data_PCOD9565482
_publ_section_title
;
Structure prediction by ZEFSAII (Michael W. Deem and Ramdas Pophale) SiO2 
 PCOD9565482
Probable space group: P 4/N M M
;
_chemical_formula_sum "Si O2"
_cell_formula_units_Z 52
_cell_length_a 17.796505
_cell_length_b 17.796505
_cell_length_c 7.264270
_cell_angle_alpha 90.000000
_cell_angle_beta 90.000000
_cell_angle_gamma 90.000000
_cell_volume 2300.707561
_symmetry_space_group_name_H-M "P 4/N M M"
_symmetry_group_IT_number 129
_symmetry_cell_setting 'tetragonal'
loop_
_space_group_symop_operation_xyz
x,y,z
1/2-y,x,z
1/2-x,1/2-y,z
y,1/2-x,z
1/2+x,-y,-z
-x,1/2+y,-z
1/2+y,1/2+x,-z
-y,-x,-z
-x,-y,-z
1/2+y,-x,-z
1/2+x,1/2+y,-z
-y,1/2+x,-z
1/2-x,y,z
x,1/2-y,z
1/2-y,1/2-x,z
y,x,z
loop_
_atom_site_type_symbol
_atom_site_label
_atom_site_fract_x
_atom_site_fract_y
_atom_site_fract_z
Si Si1 0.163878 0.459865 0.567753
Si Si2 0.629068 0.332953 0.703055
Si Si3 0.512639 0.332468 0.144008
Si Si4 0.500000 0.500000 0.000000
O O1 0.250000 0.436884 0.606722
O O2 0.101380 0.398621 0.618439
O O3 0.150168 0.540609 0.662902
O O4 0.158997 0.475349 0.347511
O O5 0.664532 0.335469 0.500000
O O6 0.635979 0.250000 0.780692
O O7 0.666189 0.398696 0.816151
O O8 0.490338 0.250000 0.069511
O O9 0.499245 0.407934 0.032999
#
# Coordination Sequence:
#
# PCOD9565482 Si02
#       4
#    16  16  16   4
#     4   9  17  31  53  83 115 145 187 237 291 358
#     4   9  18  31  54  86 118 145 172 224 295 364
#     4  10  22  37  55  82 108 145 201 240 286 355
#     4  12  24  40  62  76 112 164 192 266 294 312
#
# _framework density 22.601742000000002
#
# number of rings (size 3 to 8) (size 9 to 14) (size 15 to 20)
#    0.000    2.462    1.538    2.769    2.154    5.538 
#    0.000    0.000    0.000    0.462    0.000    0.000 
#    0.000    0.000    0.000    0.000    0.000    0.000 
#
# Total GULP energy -289718.075160 kJ/mol
# GULP energy per Si atom -5571.501445 kJ/mol
# Density = 2.255030 g / cm^3
# Si number density = 22.601742 Si / 1000 Ang^3
#
#
#
# Elastic Constant Matrix: (Units=GPa)
#
#
# Indices 1 2 3 4 5 6 
#
# 1 161.0359 93.3292 15.1496 0.0000 0.0000 0.0000
# 2 93.3292 161.0354 15.1490 0.0000 0.0000 0.0000
# 3 15.1496 15.1490 53.1362 0.0000 0.0000 0.0000
# 4 0.0000 0.0000 0.0000 -10.3826 0.0000 0.0000
# 5 0.0000 0.0000 0.0000 0.0000 -10.3745 0.0000
# 6 0.0000 0.0000 0.0000 0.0000 0.0000 30.7014
#
#
#
# Elastic Compliance Matrix: (Units=1/GPa)
#
#
# Indices 1 2 3 4 5 6 
#
# 1 0.009420 -0.005350 -0.001160 0.000000 0.000000 0.000000
# 2 -0.005350 0.009420 -0.001160 0.000000 0.000000 0.000000
# 3 -0.001160 -0.001160 0.019481 0.000000 0.000000 0.000000
# 4 0.000000 0.000000 0.000000 -0.096315 0.000000 0.000000
# 5 0.000000 0.000000 0.000000 0.000000 -0.096390 0.000000
# 6 0.000000 0.000000 0.000000 0.000000 0.000000 0.032572
#
#
# Mechanical properties :
#
#
# Convention : Reuss Voigt Hill
#
# Bulk Modulus (GPa) = 43.51748 69.16259 56.34003
# Shear Modulus (GPa) = -50.60111 18.76084 -15.92014
#
# Velocity S-wave (km/s) = -4.73674 2.88420 -2.65689
# Velocity P-wave (km/s) = 3.25881 6.46208 3.94580
#
# Compressibility (1/GPa) = 0.02297927
#
# Stress axis : x y z
#
# Youngs Moduli (GPa) = 106.16161 106.16147 51.33172
#
# Poissons Ratio (x) = 0.56797 0.05956
# Poissons Ratio (y) = 0.56797 0.05955
# Poissons Ratio (z) = 0.12318 0.12316
#
# Static dielectric constant tensor:
#      x y z
#    x 1.800710 0.000000 0.000000 
#    y 0.000000 1.800710 0.000000 
#    z 0.000000 0.000000 1.953690 
# 
# From -- ./inp_files/1634.got.cif
#   From: 2010.05.17/outbox.cif.g08.bks.cpg/sg129_1_cif.got.tgz:1634.got - 2010.05.20 12:12:06.
