data_PCOD9565695
_publ_section_title
;
Structure prediction by ZEFSAII (Michael W. Deem and Ramdas Pophale) SiO2 
 PCOD9565695
Probable space group: P 4/N C C
;
_chemical_formula_sum "Si O2"
_cell_formula_units_Z 120
_cell_length_a 26.799260
_cell_length_b 26.799260
_cell_length_c 8.992794
_cell_angle_alpha 90.000000
_cell_angle_beta 90.000000
_cell_angle_gamma 90.000000
_cell_volume 6458.627677
_symmetry_space_group_name_H-M "P 4/N C C"
_symmetry_group_IT_number 130
_symmetry_cell_setting 'tetragonal'
loop_
_space_group_symop_operation_xyz
x,y,z
1/2-y,x,z
1/2-x,1/2-y,z
y,1/2-x,z
1/2+x,-y,1/2-z
-x,1/2+y,1/2-z
1/2+y,1/2+x,1/2-z
-y,-x,1/2-z
-x,-y,-z
1/2+y,-x,-z
1/2+x,1/2+y,-z
-y,1/2+x,-z
1/2-x,y,1/2+z
x,1/2-y,1/2+z
1/2-y,1/2-x,1/2+z
y,x,1/2+z
loop_
_atom_site_type_symbol
_atom_site_label
_atom_site_fract_x
_atom_site_fract_y
_atom_site_fract_z
Si Si1 0.086210 0.913791 0.250000
Si Si2 0.545596 0.321515 0.595709
Si Si3 0.689184 0.959911 0.919991
Si Si4 0.845368 0.641594 0.002500
Si Si5 0.104910 0.453201 0.575102
Si Si6 0.207787 0.179714 0.235147
Si Si7 0.087068 0.480544 0.908477
Si Si8 0.486957 0.757941 0.155692
O O1 0.083830 0.863149 0.345527
O O2 0.037810 0.918774 0.142324
O O3 0.497883 0.356239 0.555812
O O4 0.552361 0.286985 0.450245
O O5 0.534475 0.284901 0.735153
O O6 0.636252 0.977545 0.988058
O O7 0.730994 0.975579 0.040306
O O8 0.683002 0.900734 0.907578
O O9 0.704061 0.985073 0.765647
O O10 0.903181 0.629192 0.990044
O O11 0.834471 0.695166 0.932875
O O12 0.821101 0.640344 0.163732
O O13 0.096252 0.451745 0.752435
O O14 0.050764 0.455480 0.494854
O O15 0.265782 0.184771 0.261670
#
# Coordination Sequence:
#
# PCOD9565695 Si02
#       8
#     8  16  16  16  16  16  16  16
#     4  10  20  42  62  90 122 173 196 242 294 367
#     4  10  22  37  64  85 125 154 195 236 299 342
#     4  10  21  36  56  86 110 143 189 247 293 350
#     4  11  23  35  57  69  99 135 189 241 293 367
#     4  10  21  37  54  84 110 150 193 250 293 352
#     4  11  25  39  47  65  93 129 178 250 309 364
#     4  10  21  37  57  80 122 149 201 240 290 354
#     4  10  21  37  59  89 117 152 190 250 292 347
#
# _framework density 18.579798
#
# number of rings (size 3 to 8) (size 9 to 14) (size 15 to 20)
#    0.000    1.733    2.667    2.400    7.467    5.333 
#    0.000    0.667    0.000    0.000    0.000    0.000 
#    0.000    1.600    0.000    0.000    0.000    0.000 
#
# Total GULP energy -669302.154873 kJ/mol
# GULP energy per Si atom -5577.517957 kJ/mol
# Density = 1.853751 g / cm^3
# Si number density = 18.579798 Si / 1000 Ang^3
#
#
#
# Elastic Constant Matrix: (Units=GPa)
#
#
# Indices 1 2 3 4 5 6 
#
# 1 63.3417 23.2583 16.3048 0.0000 0.0000 0.0000
# 2 23.2583 63.3420 16.3048 0.0000 0.0000 0.0000
# 3 16.3048 16.3048 73.1840 0.0000 0.0000 0.0000
# 4 0.0000 0.0000 0.0000 29.3909 0.0000 0.0000
# 5 0.0000 0.0000 0.0000 0.0000 29.3908 0.0000
# 6 0.0000 0.0000 0.0000 0.0000 0.0000 24.6572
#
#
#
# Elastic Compliance Matrix: (Units=1/GPa)
#
#
# Indices 1 2 3 4 5 6 
#
# 1 0.018776 -0.006172 -0.002808 0.000000 0.000000 0.000000
# 2 -0.006172 0.018776 -0.002808 0.000000 0.000000 0.000000
# 3 -0.002808 -0.002808 0.014916 0.000000 0.000000 0.000000
# 4 0.000000 0.000000 0.000000 0.034024 0.000000 0.000000
# 5 0.000000 0.000000 0.000000 0.000000 0.034024 0.000000
# 6 0.000000 0.000000 0.000000 0.000000 0.000000 0.040556
#
#
# Mechanical properties :
#
#
# Convention : Reuss Voigt Hill
#
# Bulk Modulus (GPa) = 34.61154 34.62260 34.61707
# Shear Modulus (GPa) = 25.73614 26.28778 26.01196
#
# Velocity S-wave (km/s) = 3.72582 3.76554 3.74573
# Velocity P-wave (km/s) = 6.09738 6.13031 6.11387
#
# Compressibility (1/GPa) = 0.02889209
#
# Stress axis : x y z
#
# Youngs Moduli (GPa) = 53.25840 53.25870 67.04435
#
# Poissons Ratio (x) = 0.32869 0.18828
# Poissons Ratio (y) = 0.32869 0.18828
# Poissons Ratio (z) = 0.14956 0.14956
#
# Static dielectric constant tensor:
#      x y z
#    x 1.653420 0.000000 0.000000 
#    y 0.000000 1.653420 0.000000 
#    z 0.000000 0.000000 1.683170 
# 
# From -- ./inp_files/1074.got.cif
#   From: 2010.05.17/outbox.cif.g08.bks.cpg/sg130_1_cif.got.tgz:1074.got - 2010.05.20 12:17:35.
