data_PCOD9565414
_publ_section_title
;
Structure prediction by ZEFSAII (Michael W. Deem and Ramdas Pophale) SiO2 
 PCOD9565414
Probable space group: P 4/N M M
;
_chemical_formula_sum "Si O2"
_cell_formula_units_Z 96
_cell_length_a 23.638102
_cell_length_b 23.638102
_cell_length_c 9.960232
_cell_angle_alpha 90.000000
_cell_angle_beta 90.000000
_cell_angle_gamma 90.000000
_cell_volume 5565.377899
_symmetry_space_group_name_H-M "P 4/N M M"
_symmetry_group_IT_number 129
_symmetry_cell_setting 'tetragonal'
loop_
_space_group_symop_operation_xyz
x,y,z
1/2-y,x,z
1/2-x,1/2-y,z
y,1/2-x,z
1/2+x,-y,-z
-x,1/2+y,-z
1/2+y,1/2+x,-z
-y,-x,-z
-x,-y,-z
1/2+y,-x,-z
1/2+x,1/2+y,-z
-y,1/2+x,-z
1/2-x,y,z
x,1/2-y,z
1/2-y,1/2-x,z
y,x,z
loop_
_atom_site_type_symbol
_atom_site_label
_atom_site_fract_x
_atom_site_fract_y
_atom_site_fract_z
Si Si1 0.494005 0.683499 0.960487
Si Si2 0.092137 0.315004 0.819198
Si Si3 0.481873 0.182963 0.560586
Si Si4 0.814901 0.124926 0.106849
Si Si5 0.380272 0.594060 0.643880
Si Si6 0.989621 0.893872 0.699543
O O1 0.493576 0.750000 0.919741
O O2 0.506204 0.642986 0.835153
O O3 0.541473 0.676386 0.074766
O O4 0.433572 0.671087 0.029041
O O5 0.110681 0.250000 0.831358
O O6 0.141814 0.358187 0.846939
O O7 0.067827 0.323325 0.669160
O O8 0.489925 0.250000 0.534890
O O9 0.537169 0.156207 0.631173
O O10 0.473664 0.147653 0.424208
O O11 0.750000 0.121994 0.149954
O O12 0.855370 0.129770 0.234334
O O13 0.826217 0.173784 0.000000
O O14 0.375926 0.624075 0.500000
O O15 0.446962 0.583268 0.668359
O O16 0.944327 0.944327 0.710184
#
# Coordination Sequence:
#
# PCOD9565414 Si02
#       6
#    16  16  16  16  16  16
#     4  10  20  36  57  80 110 147 187 227 273 335
#     4  10  20  34  54  79 107 144 186 229 278 330
#     4  10  20  36  56  77 107 149 190 223 270 334
#     4  11  21  39  60  82 111 144 187 233 275 328
#     4  10  21  36  55  83 115 145 184 224 282 331
#     4  11  22  35  54  84 119 146 180 231 284 333
#
# _framework density 17.249503000000001
#
# number of rings (size 3 to 8) (size 9 to 14) (size 15 to 20)
#    0.000    1.667    3.333    2.000    0.000    4.000 
#    0.000    1.667    0.000    0.000    0.000    0.000 
#    0.000   12.000    0.000    0.000    0.000    0.000 
#
# Total GULP energy -535743.865162 kJ/mol
# GULP energy per Si atom -5580.665262 kJ/mol
# Density = 1.721024 g / cm^3
# Si number density = 17.249503 Si / 1000 Ang^3
#
#
#
# Elastic Constant Matrix: (Units=GPa)
#
#
# Indices 1 2 3 4 5 6 
#
# 1 63.2725 39.7451 32.2175 0.0000 0.0000 0.0000
# 2 39.7451 63.2700 32.2173 0.0000 0.0000 0.0000
# 3 32.2175 32.2173 96.8075 0.0000 0.0000 0.0000
# 4 0.0000 0.0000 0.0000 21.2393 0.0000 0.0000
# 5 0.0000 0.0000 0.0000 0.0000 21.2392 0.0000
# 6 0.0000 0.0000 0.0000 0.0000 0.0000 26.1685
#
#
#
# Elastic Compliance Matrix: (Units=1/GPa)
#
#
# Indices 1 2 3 4 5 6 
#
# 1 0.027382 -0.015123 -0.004080 0.000000 0.000000 0.000000
# 2 -0.015123 0.027383 -0.004080 0.000000 0.000000 0.000000
# 3 -0.004080 -0.004080 0.013045 0.000000 0.000000 0.000000
# 4 0.000000 0.000000 0.000000 0.047083 0.000000 0.000000
# 5 0.000000 0.000000 0.000000 0.000000 0.047083 0.000000
# 6 0.000000 0.000000 0.000000 0.000000 0.000000 0.038214
#
#
# Mechanical properties :
#
#
# Convention : Reuss Voigt Hill
#
# Bulk Modulus (GPa) = 47.07172 47.96776 47.51974
# Shear Modulus (GPa) = 19.69770 21.67408 20.68589
#
# Velocity S-wave (km/s) = 3.38291 3.54857 3.46673
# Velocity P-wave (km/s) = 6.52738 6.68269 6.60549
#
# Compressibility (1/GPa) = 0.02124418
#
# Stress axis : x y z
#
# Youngs Moduli (GPa) = 36.52054 36.51889 76.65607
#
# Poissons Ratio (x) = 0.55229 0.31273
# Poissons Ratio (y) = 0.55232 0.31275
# Poissons Ratio (z) = 0.14899 0.14900
#
# Static dielectric constant tensor:
#      x y z
#    x 1.568230 0.000000 0.000000 
#    y 0.000000 1.568230 0.000000 
#    z 0.000000 0.000000 1.590740 
# 
# From -- ./inp_files/2618.got.cif
#   From: 2010.05.17/outbox.cif.g08.bks.cpg/sg129_2_cif.got.tgz:2618.got - 2010.05.20 12:12:06.
