data_PCOD9565328
_publ_section_title
;
Structure prediction by ZEFSAII (Michael W. Deem and Ramdas Pophale) SiO2 
 PCOD9565328
Probable space group: P 4/N M M
;
_chemical_formula_sum "Si O2"
_cell_formula_units_Z 128
_cell_length_a 22.742570
_cell_length_b 22.742570
_cell_length_c 12.793331
_cell_angle_alpha 90.000000
_cell_angle_beta 90.000000
_cell_angle_gamma 90.000000
_cell_volume 6617.024104
_symmetry_space_group_name_H-M "P 4/N M M"
_symmetry_group_IT_number 129
_symmetry_cell_setting 'tetragonal'
loop_
_space_group_symop_operation_xyz
x,y,z
1/2-y,x,z
1/2-x,1/2-y,z
y,1/2-x,z
1/2+x,-y,-z
-x,1/2+y,-z
1/2+y,1/2+x,-z
-y,-x,-z
-x,-y,-z
1/2+y,-x,-z
1/2+x,1/2+y,-z
-y,1/2+x,-z
1/2-x,y,z
x,1/2-y,z
1/2-y,1/2-x,z
y,x,z
loop_
_atom_site_type_symbol
_atom_site_label
_atom_site_fract_x
_atom_site_fract_y
_atom_site_fract_z
Si Si1 0.819752 0.989628 0.854126
Si Si2 0.121879 0.814998 0.916543
Si Si3 0.405098 0.499765 0.956237
Si Si4 0.902638 0.184513 0.443157
Si Si5 0.680133 0.584618 0.399137
Si Si6 0.314263 0.659361 0.722478
Si Si7 0.022363 0.818322 0.237044
Si Si8 0.179137 0.470116 0.379143
O O1 0.750000 0.975414 0.871249
O O2 0.839647 0.963020 0.741937
O O3 0.823720 0.061044 0.854641
O O4 0.862785 0.976129 0.950459
O O5 0.117962 0.750000 0.964176
O O6 0.176858 0.820009 0.840113
O O7 0.135073 0.864928 0.000000
O O8 0.447188 0.447188 0.919546
O O9 0.362899 0.518088 0.860245
O O10 0.450057 0.549944 0.000000
O O11 0.861660 0.138340 0.500000
O O12 0.908673 0.250000 0.491185
O O13 0.866258 0.190112 0.337700
O O14 0.966135 0.159336 0.418814
O O15 0.750000 0.597999 0.390629
O O16 0.637695 0.637695 0.365392
O O17 0.669861 0.526592 0.326838
O O18 0.667376 0.571680 0.522291
O O19 0.250000 0.675114 0.682115
O O20 0.322004 0.588761 0.719155
O O21 0.014176 0.750000 0.202737
O O22 0.250000 0.473721 0.370895
#
# Coordination Sequence:
#
# PCOD9565328 Si02
#       8
#    16  16  16  16  16  16  16  16
#     4  10  19  35  57  77 103 145 193 231 269 332
#     4  11  21  32  47  71 103 142 187 240 296 337
#     4  11  23  36  54  81 114 146 180 233 288 328
#     4  11  21  33  48  70 100 139 184 230 277 319
#     4  10  21  39  65  93 119 144 174 222 280 346
#     4  11  21  32  49  72  99 138 186 232 277 322
#     4  10  21  39  61  83 109 148 193 228 272 341
#     4   9  19  36  56  79 107 146 190 224 265 328
#
# _framework density 19.344042000000002
#
# number of rings (size 3 to 8) (size 9 to 14) (size 15 to 20)
#    0.000    1.625    1.250    4.500    0.000    6.875 
#    0.000    0.000    0.000    1.125    0.000    0.000 
#    0.000    2.250    0.000    0.500    0.000    0.000 
#
# Total GULP energy -713421.311646 kJ/mol
# GULP energy per Si atom -5573.603997 kJ/mol
# Density = 1.930001 g / cm^3
# Si number density = 19.344042 Si / 1000 Ang^3
#
#
#
# Elastic Constant Matrix: (Units=GPa)
#
#
# Indices 1 2 3 4 5 6 
#
# 1 67.3738 44.8138 19.6340 0.0000 0.0000 0.0000
# 2 44.8138 67.3750 19.6345 0.0000 0.0000 0.0000
# 3 19.6340 19.6345 77.6910 0.0000 0.0000 0.0000
# 4 0.0000 0.0000 0.0000 18.3244 0.0000 0.0000
# 5 0.0000 0.0000 0.0000 0.0000 18.2959 0.0000
# 6 0.0000 0.0000 0.0000 0.0000 0.0000 275.9107
#
#
#
# Elastic Compliance Matrix: (Units=1/GPa)
#
#
# Indices 1 2 3 4 5 6 
#
# 1 0.027052 -0.017273 -0.002471 0.000000 0.000000 0.000000
# 2 -0.017273 0.027052 -0.002471 0.000000 0.000000 0.000000
# 3 -0.002471 -0.002471 0.014121 0.000000 0.000000 0.000000
# 4 0.000000 0.000000 0.000000 0.054572 0.000000 0.000000
# 5 0.000000 0.000000 0.000000 0.000000 0.054657 0.000000
# 6 0.000000 0.000000 0.000000 0.000000 0.000000 0.003624
#
#
# Mechanical properties :
#
#
# Convention : Reuss Voigt Hill
#
# Bulk Modulus (GPa) = 42.02970 42.28940 42.15955
# Shear Modulus (GPa) = 21.41876 71.06337 46.24107
#
# Velocity S-wave (km/s) = 3.33115 6.06765 4.89453
# Velocity P-wave (km/s) = 6.04732 8.42601 7.33375
#
# Compressibility (1/GPa) = 0.02379270
#
# Stress axis : x y z
#
# Youngs Moduli (GPa) = 36.96578 36.96632 70.81856
#
# Poissons Ratio (x) = 0.63853 0.17500
# Poissons Ratio (y) = 0.63852 0.17502
# Poissons Ratio (z) = 0.09135 0.09136
#
# Static dielectric constant tensor:
#      x y z
#    x 1.663140 0.000000 0.000000 
#    y 0.000000 1.662870 0.000000 
#    z 0.000000 0.000000 1.780590 
# 
# From -- ./inp_files/4189.got.cif
#   From: 2010.05.17/outbox.cif.g08.bks.cpg/sg129_3_cif.got.tgz:4189.got - 2010.05.20 12:12:06.
