data_PCOD9565653
_publ_section_title
;
Structure prediction by ZEFSAII (Michael W. Deem and Ramdas Pophale) SiO2 
 PCOD9565653
Probable space group: P 4/N C C
;
_chemical_formula_sum "Si O2"
_cell_formula_units_Z 116
_cell_length_a 17.726740
_cell_length_b 17.726740
_cell_length_c 16.974119
_cell_angle_alpha 90.000000
_cell_angle_beta 90.000000
_cell_angle_gamma 90.000000
_cell_volume 5333.901512
_symmetry_space_group_name_H-M "P 4/N C C"
_symmetry_group_IT_number 130
_symmetry_cell_setting 'tetragonal'
loop_
_space_group_symop_operation_xyz
x,y,z
1/2-y,x,z
1/2-x,1/2-y,z
y,1/2-x,z
1/2+x,-y,1/2-z
-x,1/2+y,1/2-z
1/2+y,1/2+x,1/2-z
-y,-x,1/2-z
-x,-y,-z
1/2+y,-x,-z
1/2+x,1/2+y,-z
-y,1/2+x,-z
1/2-x,y,1/2+z
x,1/2-y,1/2+z
1/2-y,1/2-x,1/2+z
y,x,1/2+z
loop_
_atom_site_type_symbol
_atom_site_label
_atom_site_fract_x
_atom_site_fract_y
_atom_site_fract_z
Si Si1 0.262049 0.052562 0.772943
Si Si2 0.551208 0.394665 0.555506
Si Si3 0.607810 0.181764 0.317289
Si Si4 0.624966 0.777077 0.392634
Si Si5 0.250000 0.250000 0.932994
Si Si6 0.354774 0.379064 0.873975
Si Si7 0.275166 0.864383 0.471619
Si Si8 0.044230 0.398051 0.518211
O O1 0.230913 0.083758 0.691001
O O2 0.192037 0.055200 0.833175
O O3 0.323516 0.111743 0.807170
O O4 0.298682 0.970787 0.775035
O O5 0.603874 0.397977 0.632536
O O6 0.564702 0.314938 0.512803
O O7 0.464284 0.416367 0.569249
O O8 0.582709 0.457369 0.494343
O O9 0.670003 0.170003 0.250000
O O10 0.623593 0.244153 0.384087
O O11 0.665536 0.696063 0.401295
O O12 0.564223 0.815359 0.450254
O O13 0.295262 0.330387 0.924181
O O14 0.419937 0.405084 0.931410
O O15 0.334889 0.795969 0.477580
#
# Coordination Sequence:
#
# PCOD9565653 Si02
#       8
#    16  16  16  16   4  16  16  16
#     4  11  21  41  62  94 139 179 218 275 341 408
#     4  10  23  45  70  99 135 175 227 289 346 405
#     4  11  24  42  70 103 129 175 230 277 348 417
#     4  11  26  40  60  98 144 185 221 278 340 407
#     4   8  20  28  52  94 128 156 228 250 296 388
#     4  10  20  36  66  91 129 183 219 267 328 409
#     4   9  20  44  72  96 129 175 218 290 346 394
#     4  11  24  41  67 102 134 176 232 278 337 416
#
# _framework density 21.747682999999999
#
# number of rings (size 3 to 8) (size 9 to 14) (size 15 to 20)
#    0.000    1.655    2.759    0.828    5.793    2.207 
#    7.448    5.517    0.000    0.000    0.000    0.000 
#    0.000    0.000    0.000    0.000    0.000    0.000 
#
# Total GULP energy -646841.459081 kJ/mol
# GULP energy per Si atom -5576.219475 kJ/mol
# Density = 2.169818 g / cm^3
# Si number density = 21.747683 Si / 1000 Ang^3
#
#
#
# Elastic Constant Matrix: (Units=GPa)
#
#
# Indices 1 2 3 4 5 6 
#
# 1 67.1937 52.0781 34.8974 0.0000 0.0000 0.0000
# 2 52.0781 67.1937 34.8974 0.0000 0.0000 0.0000
# 3 34.8974 34.8974 62.9491 0.0000 0.0000 0.0000
# 4 0.0000 0.0000 0.0000 28.3431 0.0000 0.0000
# 5 0.0000 0.0000 0.0000 0.0000 28.3431 0.0000
# 6 0.0000 0.0000 0.0000 0.0000 0.0000 33.6487
#
#
#
# Elastic Compliance Matrix: (Units=1/GPa)
#
#
# Indices 1 2 3 4 5 6 
#
# 1 0.039284 -0.026873 -0.006880 0.000000 0.000000 0.000000
# 2 -0.026873 0.039284 -0.006880 0.000000 0.000000 0.000000
# 3 -0.006880 -0.006880 0.023514 0.000000 0.000000 0.000000
# 4 0.000000 0.000000 0.000000 0.035282 0.000000 0.000000
# 5 0.000000 0.000000 0.000000 0.000000 0.035282 0.000000
# 6 0.000000 0.000000 0.000000 0.000000 0.000000 0.029719
#
#
# Mechanical properties :
#
#
# Convention : Reuss Voigt Hill
#
# Bulk Modulus (GPa) = 48.04297 49.00915 48.52606
# Shear Modulus (GPa) = 17.20763 23.09786 20.15275
#
# Velocity S-wave (km/s) = 2.81595 3.26250 3.04741
# Velocity P-wave (km/s) = 5.71942 6.06433 5.89440
#
# Compressibility (1/GPa) = 0.02081470
#
# Stress axis : x y z
#
# Youngs Moduli (GPa) = 25.45590 25.45590 42.52799
#
# Poissons Ratio (x) = 0.68409 0.29259
# Poissons Ratio (y) = 0.68409 0.29259
# Poissons Ratio (z) = 0.17513 0.17513
#
# Static dielectric constant tensor:
#      x y z
#    x 1.804290 0.000000 0.000000 
#    y 0.000000 1.804290 0.000000 
#    z 0.000000 0.000000 1.819280 
# 
# From -- ./inp_files/3215.got.cif
#   From: 2010.05.17/outbox.cif.g08.bks.cpg/sg130_2_cif.got.tgz:3215.got - 2010.05.20 12:17:35.
