data_PCOD9565192
_publ_section_title
;
Structure prediction by ZEFSAII (Michael W. Deem and Ramdas Pophale) SiO2 
 PCOD9565192
Probable space group: P 4/N M M
;
_chemical_formula_sum "Si O2"
_cell_formula_units_Z 72
_cell_length_a 14.124752
_cell_length_b 14.124752
_cell_length_c 23.755154
_cell_angle_alpha 90.000000
_cell_angle_beta 90.000000
_cell_angle_gamma 90.000000
_cell_volume 4739.357970
_symmetry_space_group_name_H-M "P 4/N M M"
_symmetry_group_IT_number 129
_symmetry_cell_setting 'tetragonal'
loop_
_space_group_symop_operation_xyz
x,y,z
1/2-y,x,z
1/2-x,1/2-y,z
y,1/2-x,z
1/2+x,-y,-z
-x,1/2+y,-z
1/2+y,1/2+x,-z
-y,-x,-z
-x,-y,-z
1/2+y,-x,-z
1/2+x,1/2+y,-z
-y,1/2+x,-z
1/2-x,y,z
x,1/2-y,z
1/2-y,1/2-x,z
y,x,z
loop_
_atom_site_type_symbol
_atom_site_label
_atom_site_fract_x
_atom_site_fract_y
_atom_site_fract_z
Si Si1 0.860773 0.139228 0.000000
Si Si2 0.136132 0.981892 0.670723
Si Si3 0.481518 0.862886 0.111780
Si Si4 0.641235 0.134983 0.562356
Si Si5 0.858109 0.135228 0.779839
O O1 0.926021 0.119217 0.946429
O O2 0.750000 0.127119 0.984392
O O3 0.250000 0.995206 0.671184
O O4 0.109075 0.926043 0.613773
O O5 0.109826 0.916598 0.724119
O O6 0.079451 0.079451 0.673984
O O7 0.498723 0.750000 0.115965
O O8 0.414766 0.891840 0.164057
O O9 0.576892 0.923109 0.113550
O O10 0.606811 0.106811 0.500000
O O11 0.750000 0.102920 0.571178
O O12 0.644433 0.250000 0.561063
O O13 0.750000 0.100224 0.779017
O O14 0.853457 0.250000 0.780274
#
# Coordination Sequence:
#
# PCOD9565192 Si02
#       5
#     8  16  16  16  16
#     4   9  17  30  48  68  89 115 150 194 236 259
#     4  10  19  29  42  62  89 119 147 174 208 256
#     4  10  19  30  45  66  93 122 149 177 212 260
#     4   8  14  26  44  64  85 109 140 183 230 263
#     4   9  17  30  47  64  82 106 139 181 223 255
#
# _framework density 15.191932
#
# number of rings (size 3 to 8) (size 9 to 14) (size 15 to 20)
#    0.000    2.778    0.000    3.000    0.000    6.222 
#    0.000    0.000    0.000    4.000    0.000    0.000 
#    0.000   35.111    0.000    0.000    0.000    0.000 
#
# Total GULP energy -401032.796365 kJ/mol
# GULP energy per Si atom -5569.899950 kJ/mol
# Density = 1.515735 g / cm^3
# Si number density = 15.191932 Si / 1000 Ang^3
#
#
#
# Elastic Constant Matrix: (Units=GPa)
#
#
# Indices 1 2 3 4 5 6 
#
# 1 63.6958 45.2857 54.4350 0.0000 0.0000 0.0000
# 2 45.2857 63.6959 54.4352 0.0000 0.0000 0.0000
# 3 54.4350 54.4352 133.3027 0.0000 0.0000 0.0000
# 4 0.0000 0.0000 0.0000 8.5417 0.0000 0.0000
# 5 0.0000 0.0000 0.0000 0.0000 8.5416 0.0000
# 6 0.0000 0.0000 0.0000 0.0000 0.0000 19.9923
#
#
#
# Elastic Compliance Matrix: (Units=1/GPa)
#
#
# Indices 1 2 3 4 5 6 
#
# 1 0.034908 -0.019410 -0.006329 0.000000 0.000000 0.000000
# 2 -0.019410 0.034908 -0.006329 0.000000 0.000000 0.000000
# 3 -0.006329 -0.006329 0.012671 0.000000 0.000000 0.000000
# 4 0.000000 0.000000 0.000000 0.117073 0.000000 0.000000
# 5 0.000000 0.000000 0.000000 0.000000 0.117074 0.000000
# 6 0.000000 0.000000 0.000000 0.000000 0.000000 0.050019
#
#
# Mechanical properties :
#
#
# Convention : Reuss Voigt Hill
#
# Bulk Modulus (GPa) = 54.49076 63.22293 58.85684
# Shear Modulus (GPa) = 11.44413 14.51768 12.98091
#
# Velocity S-wave (km/s) = 2.74761 3.09466 2.92629
# Velocity P-wave (km/s) = 6.78321 7.38077 7.08829
#
# Compressibility (1/GPa) = 0.01835174
#
# Stress axis : x y z
#
# Youngs Moduli (GPa) = 28.64667 28.64670 78.92323
#
# Poissons Ratio (x) = 0.55603 0.49949
# Poissons Ratio (y) = 0.55603 0.49949
# Poissons Ratio (z) = 0.18130 0.18130
#
# Static dielectric constant tensor:
#      x y z
#    x 1.486350 0.000000 0.000000 
#    y 0.000000 1.486350 0.000000 
#    z 0.000000 0.000000 1.518070 
# 
# From -- ./inp_files/6355.got.cif
#   From: 2010.05.17/outbox.cif.g08.bks.cpg/sg129_4_cif.got.tgz:6355.got - 2010.05.20 12:12:06.
