data_PCOD9565648
_publ_section_title
;
Structure prediction by ZEFSAII (Michael W. Deem and Ramdas Pophale) SiO2 
 PCOD9565648
Probable space group: P 4/N C C
;
_chemical_formula_sum "Si O2"
_cell_formula_units_Z 64
_cell_length_a 14.465553
_cell_length_b 14.465553
_cell_length_c 15.343360
_cell_angle_alpha 90.000000
_cell_angle_beta 90.000000
_cell_angle_gamma 90.000000
_cell_volume 3210.632197
_symmetry_space_group_name_H-M "P 4/N C C"
_symmetry_group_IT_number 130
_symmetry_cell_setting 'tetragonal'
loop_
_space_group_symop_operation_xyz
x,y,z
1/2-y,x,z
1/2-x,1/2-y,z
y,1/2-x,z
1/2+x,-y,1/2-z
-x,1/2+y,1/2-z
1/2+y,1/2+x,1/2-z
-y,-x,1/2-z
-x,-y,-z
1/2+y,-x,-z
1/2+x,1/2+y,-z
-y,1/2+x,-z
1/2-x,y,1/2+z
x,1/2-y,1/2+z
1/2-y,1/2-x,1/2+z
y,x,1/2+z
loop_
_atom_site_type_symbol
_atom_site_label
_atom_site_fract_x
_atom_site_fract_y
_atom_site_fract_z
Si Si1 0.365875 0.344299 0.259048
Si Si2 0.054008 0.127795 0.442259
Si Si3 0.601251 0.516180 0.393532
Si Si4 0.601907 0.255113 0.012673
O O1 0.263307 0.375442 0.235312
O O2 0.379287 0.352704 0.362275
O O3 0.440087 0.397294 0.201277
O O4 0.101954 0.096383 0.532251
O O5 0.982140 0.211518 0.458142
O O6 0.990652 0.041991 0.411635
O O7 0.687293 0.446938 0.410555
O O8 0.668800 0.330329 0.965328
#
# Coordination Sequence:
#
# PCOD9565648 Si02
#       4
#    16  16  16  16
#     4  11  23  36  52  77 109 143 182 225 266 319
#     4  10  20  36  58  81 108 142 179 222 273 329
#     4  10  20  36  58  81 108 142 179 222 273 329
#     4   9  18  34  56  81 108 140 180 225 272 322
#
# _framework density 19.933768000000001
#
# number of rings (size 3 to 8) (size 9 to 14) (size 15 to 20)
#    0.000    2.000    0.000    3.750    0.000    0.000 
#    0.000    6.250    0.000    6.000    0.000    0.000 
#    0.000    0.000    0.000    0.000    0.000    0.000 
#
# Total GULP energy -356936.647390 kJ/mol
# GULP energy per Si atom -5577.135115 kJ/mol
# Density = 1.988840 g / cm^3
# Si number density = 19.933768 Si / 1000 Ang^3
#
#
#
# Elastic Constant Matrix: (Units=GPa)
#
#
# Indices 1 2 3 4 5 6 
#
# 1 36.7237 24.0381 5.0571 0.0000 0.0000 0.0000
# 2 24.0381 36.7237 5.0571 0.0000 0.0000 0.0000
# 3 5.0571 5.0571 46.2438 0.0000 0.0000 0.0000
# 4 0.0000 0.0000 0.0000 26.6691 0.0000 0.0000
# 5 0.0000 0.0000 0.0000 0.0000 26.6691 0.0000
# 6 0.0000 0.0000 0.0000 0.0000 0.0000 9.4011
#
#
#
# Elastic Compliance Matrix: (Units=1/GPa)
#
#
# Indices 1 2 3 4 5 6 
#
# 1 0.047796 -0.031033 -0.001833 0.000000 0.000000 0.000000
# 2 -0.031033 0.047796 -0.001833 0.000000 0.000000 0.000000
# 3 -0.001833 -0.001833 0.022025 0.000000 0.000000 0.000000
# 4 0.000000 0.000000 0.000000 0.037497 0.000000 0.000000
# 5 0.000000 0.000000 0.000000 0.000000 0.037497 0.000000
# 6 0.000000 0.000000 0.000000 0.000000 0.000000 0.106371
#
#
# Mechanical properties :
#
#
# Convention : Reuss Voigt Hill
#
# Bulk Modulus (GPa) = 20.73889 20.88842 20.81366
# Shear Modulus (GPa) = 13.00549 18.25045 15.62797
#
# Velocity S-wave (km/s) = 2.55705 3.02910 2.80303
# Velocity P-wave (km/s) = 4.37544 4.76818 4.57603
#
# Compressibility (1/GPa) = 0.04821858
#
# Stress axis : x y z
#
# Youngs Moduli (GPa) = 20.92226 20.92226 45.40203
#
# Poissons Ratio (x) = 0.64928 0.08323
# Poissons Ratio (y) = 0.64928 0.08323
# Poissons Ratio (z) = 0.03835 0.03835
#
# Static dielectric constant tensor:
#      x y z
#    x 1.728400 0.000000 0.000000 
#    y 0.000000 1.728400 0.000000 
#    z 0.000000 0.000000 1.658030 
# 
# From -- ./inp_files/2157.got.cif
#   From: 2010.05.17/outbox.cif.g08.bks.cpg/sg130_2_cif.got.tgz:2157.got - 2010.05.20 12:17:35.
