data_PCOD9565882
_publ_section_title
;
Structure prediction by ZEFSAII (Michael W. Deem and Ramdas Pophale) SiO2 
 PCOD9565882
Probable space group: P 4/N C C
;
_chemical_formula_sum "Si O2"
_cell_formula_units_Z 60
_cell_length_a 13.623191
_cell_length_b 13.623191
_cell_length_c 15.073291
_cell_angle_alpha 90.000000
_cell_angle_beta 90.000000
_cell_angle_gamma 90.000000
_cell_volume 2797.472170
_symmetry_space_group_name_H-M "P 4/N C C"
_symmetry_group_IT_number 130
_symmetry_cell_setting 'tetragonal'
loop_
_space_group_symop_operation_xyz
x,y,z
1/2-y,x,z
1/2-x,1/2-y,z
y,1/2-x,z
1/2+x,-y,1/2-z
-x,1/2+y,1/2-z
1/2+y,1/2+x,1/2-z
-y,-x,1/2-z
-x,-y,-z
1/2+y,-x,-z
1/2+x,1/2+y,-z
-y,1/2+x,-z
1/2-x,y,1/2+z
x,1/2-y,1/2+z
1/2-y,1/2-x,1/2+z
y,x,1/2+z
loop_
_atom_site_type_symbol
_atom_site_label
_atom_site_fract_x
_atom_site_fract_y
_atom_site_fract_z
Si Si1 0.021748 0.521748 0.750000
Si Si2 0.750000 0.750000 0.556594
Si Si3 0.937789 0.437701 0.930530
Si Si4 0.190846 0.099908 0.204184
Si Si5 0.757014 0.962062 0.991323
O O1 0.971600 0.473011 0.834826
O O2 0.992670 0.636378 0.753560
O O3 0.778893 0.868303 0.548054
O O4 0.827230 0.468843 0.951053
O O5 0.000000 0.500000 0.000000
O O6 0.969529 0.327413 0.951097
O O7 0.302449 0.127905 0.227939
O O8 0.192228 0.084928 0.097395
#
# Coordination Sequence:
#
# PCOD9565882 Si02
#       5
#     8   4  16  16  16
#     4  12  24  40  70 108 138 172 238 304 352 420
#     4  12  16  36  76 102 124 176 246 280 328 422
#     4  12  25  43  69 103 144 184 233 298 363 425
#     4  11  20  41  71 101 135 180 231 289 348 414
#     4  12  22  44  71  97 140 190 231 291 360 422
#
# _framework density 21.447934
#
# number of rings (size 3 to 8) (size 9 to 14) (size 15 to 20)
#    0.000    0.267   10.667    0.000    0.000    2.667 
#    0.000    0.000    0.000    2.400    0.000    0.000 
#    0.000    0.000    0.000    0.000    0.000    0.000 
#
# Total GULP energy -334437.036289 kJ/mol
# GULP energy per Si atom -5573.950605 kJ/mol
# Density = 2.139912 g / cm^3
# Si number density = 21.447934 Si / 1000 Ang^3
#
#
#
# Elastic Constant Matrix: (Units=GPa)
#
#
# Indices 1 2 3 4 5 6 
#
# 1 80.7270 34.8409 15.3775 0.0000 0.0000 0.0000
# 2 34.8409 80.7270 15.3775 0.0000 0.0000 0.0000
# 3 15.3775 15.3775 85.6656 0.0000 0.0000 0.0000
# 4 0.0000 0.0000 0.0000 27.8894 0.0000 0.0000
# 5 0.0000 0.0000 0.0000 0.0000 27.8894 0.0000
# 6 0.0000 0.0000 0.0000 0.0000 0.0000 57.9681
#
#
#
# Elastic Compliance Matrix: (Units=1/GPa)
#
#
# Indices 1 2 3 4 5 6 
#
# 1 0.015440 -0.006353 -0.001631 0.000000 0.000000 0.000000
# 2 -0.006353 0.015440 -0.001631 0.000000 0.000000 0.000000
# 3 -0.001631 -0.001631 0.012259 0.000000 0.000000 0.000000
# 4 0.000000 0.000000 0.000000 0.035856 0.000000 0.000000
# 5 0.000000 0.000000 0.000000 0.000000 0.035856 0.000000
# 6 0.000000 0.000000 0.000000 0.000000 0.000000 0.017251
#
#
# Mechanical properties :
#
#
# Convention : Reuss Voigt Hill
#
# Bulk Modulus (GPa) = 41.82657 42.03457 41.93057
# Shear Modulus (GPa) = 31.38696 34.85096 33.11896
#
# Velocity S-wave (km/s) = 3.82959 4.03539 3.93384
# Velocity P-wave (km/s) = 6.25285 6.43067 6.34238
#
# Compressibility (1/GPa) = 0.02390825
#
# Stress axis : x y z
#
# Youngs Moduli (GPa) = 64.76664 64.76664 81.57338
#
# Poissons Ratio (x) = 0.41146 0.13306
# Poissons Ratio (y) = 0.41146 0.13306
# Poissons Ratio (z) = 0.10565 0.10565
#
# Static dielectric constant tensor:
#      x y z
#    x 1.822870 0.000000 0.000000 
#    y 0.000000 1.822870 0.000000 
#    z 0.000000 0.000000 1.819930 
# 
# From -- ./inp_files/2202.got.cif
#   From: 2010.05.17/outbox.cif.g08.bks.cpg/sg130_2_cif.got.tgz:2202.got - 2010.05.20 12:17:35.
