data_PCOD9565538
_publ_section_title
;
Structure prediction by ZEFSAII (Michael W. Deem and Ramdas Pophale) SiO2 
 PCOD9565538
Probable space group: P 4/N C C
;
_chemical_formula_sum "Si O2"
_cell_formula_units_Z 96
_cell_length_a 14.435340
_cell_length_b 14.435340
_cell_length_c 18.007799
_cell_angle_alpha 90.000000
_cell_angle_beta 90.000000
_cell_angle_gamma 90.000000
_cell_volume 3752.447885
_symmetry_space_group_name_H-M "P 4/N C C"
_symmetry_group_IT_number 130
_symmetry_cell_setting 'tetragonal'
loop_
_space_group_symop_operation_xyz
x,y,z
1/2-y,x,z
1/2-x,1/2-y,z
y,1/2-x,z
1/2+x,-y,1/2-z
-x,1/2+y,1/2-z
1/2+y,1/2+x,1/2-z
-y,-x,1/2-z
-x,-y,-z
1/2+y,-x,-z
1/2+x,1/2+y,-z
-y,1/2+x,-z
1/2-x,y,1/2+z
x,1/2-y,1/2+z
1/2-y,1/2-x,1/2+z
y,x,1/2+z
loop_
_atom_site_type_symbol
_atom_site_label
_atom_site_fract_x
_atom_site_fract_y
_atom_site_fract_z
Si Si1 0.278181 0.042475 0.067304
Si Si2 0.435078 0.427421 0.955020
Si Si3 0.845979 0.991150 0.809531
Si Si4 0.557654 0.075163 0.667560
Si Si5 0.781211 0.110232 0.030465
Si Si6 0.819572 0.067361 0.655201
O O1 0.340361 0.967207 0.112733
O O2 0.213950 0.072677 0.136006
O O3 0.208192 0.989012 0.009859
O O4 0.350608 0.100370 0.016682
O O5 0.401685 0.491528 0.884625
O O6 0.498480 0.356213 0.907719
O O7 0.500000 0.500000 0.000000
O O8 0.806179 0.005142 0.727655
O O9 0.858046 0.098818 0.834274
O O10 0.951401 0.956679 0.811033
O O11 0.596778 0.096778 0.750000
O O12 0.682020 0.148590 0.003626
O O13 0.770356 0.114211 0.119375
#
# Coordination Sequence:
#
# PCOD9565538 Si02
#       6
#    16  16  16  16  16  16
#     4  10  20  30  52  77  98 135 189 221 256 332
#     4   8  15  29  48  72  97 130 174 220 260 308
#     4  10  17  32  51  71 101 138 173 218 279 323
#     4  10  18  33  54  76 106 141 176 228 277 314
#     4  10  19  31  46  68 104 144 177 213 256 317
#     4   9  16  29  48  65  96 145 166 208 266 317
#
# _framework density 25.583302
#
# number of rings (size 3 to 8) (size 9 to 14) (size 15 to 20)
#    0.000    2.500    5.000    0.000    0.000    1.333 
#    0.000    0.000    0.000    0.500    0.000    0.000 
#    0.000    0.000   13.333    0.000    0.000    0.000 
#
# Total GULP energy -534735.676647 kJ/mol
# GULP energy per Si atom -5570.163298 kJ/mol
# Density = 2.552507 g / cm^3
# Si number density = 25.583302 Si / 1000 Ang^3
#
#
#
# Elastic Constant Matrix: (Units=GPa)
#
#
# Indices 1 2 3 4 5 6 
#
# 1 34.8144 -3.2774 18.8432 0.0000 0.0000 0.0000
# 2 -3.2774 34.8144 18.8432 0.0000 0.0000 0.0000
# 3 18.8432 18.8432 219.1804 0.0000 0.0000 0.0000
# 4 0.0000 0.0000 0.0000 39.2555 0.0000 0.0000
# 5 0.0000 0.0000 0.0000 0.0000 39.2555 0.0000
# 6 0.0000 0.0000 0.0000 0.0000 0.0000 32.0896
#
#
#
# Elastic Compliance Matrix: (Units=1/GPa)
#
#
# Indices 1 2 3 4 5 6 
#
# 1 0.030796 0.004543 -0.003038 0.000000 0.000000 0.000000
# 2 0.004543 0.030796 -0.003038 0.000000 0.000000 0.000000
# 3 -0.003038 -0.003038 0.005085 0.000000 0.000000 0.000000
# 4 0.000000 0.000000 0.000000 0.025474 0.000000 0.000000
# 5 0.000000 0.000000 0.000000 0.000000 0.025474 0.000000
# 6 0.000000 0.000000 0.000000 0.000000 0.000000 0.031163
#
#
# Mechanical properties :
#
#
# Convention : Reuss Voigt Hill
#
# Bulk Modulus (GPa) = 15.72060 39.73635 27.72848
# Shear Modulus (GPa) = 28.89225 39.08015 33.98620
#
# Velocity S-wave (km/s) = 3.36421 3.91265 3.64875
# Velocity P-wave (km/s) = 4.60964 5.99813 5.34913
#
# Compressibility (1/GPa) = 0.06361079
#
# Stress axis : x y z
#
# Youngs Moduli (GPa) = 32.47193 32.47193 196.66306
#
# Poissons Ratio (x) = -0.14753 0.59749
# Poissons Ratio (y) = -0.14753 0.59749
# Poissons Ratio (z) = 0.09865 0.09865
#
# Static dielectric constant tensor:
#      x y z
#    x 2.175450 0.000000 0.000000 
#    y 0.000000 2.175450 0.000000 
#    z 0.000000 0.000000 2.112850 
# 
# From -- ./inp_files/3068.got.cif
#   From: 2010.05.17/outbox.cif.g08.bks.cpg/sg130_2_cif.got.tgz:3068.got - 2010.05.20 12:17:35.
