data_PCOD9565910
_publ_section_title
;
Structure prediction by ZEFSAII (Michael W. Deem and Ramdas Pophale) SiO2 
 PCOD9565910
Probable space group: P 4/N C C
;
_chemical_formula_sum "Si O2"
_cell_formula_units_Z 112
_cell_length_a 15.613740
_cell_length_b 15.613740
_cell_length_c 18.695839
_cell_angle_alpha 90.000000
_cell_angle_beta 90.000000
_cell_angle_gamma 90.000000
_cell_volume 4557.837590
_symmetry_space_group_name_H-M "P 4/N C C"
_symmetry_group_IT_number 130
_symmetry_cell_setting 'tetragonal'
loop_
_space_group_symop_operation_xyz
x,y,z
1/2-y,x,z
1/2-x,1/2-y,z
y,1/2-x,z
1/2+x,-y,1/2-z
-x,1/2+y,1/2-z
1/2+y,1/2+x,1/2-z
-y,-x,1/2-z
-x,-y,-z
1/2+y,-x,-z
1/2+x,1/2+y,-z
-y,1/2+x,-z
1/2-x,y,1/2+z
x,1/2-y,1/2+z
1/2-y,1/2-x,1/2+z
y,x,1/2+z
loop_
_atom_site_type_symbol
_atom_site_label
_atom_site_fract_x
_atom_site_fract_y
_atom_site_fract_z
Si Si1 0.803111 0.877130 0.872435
Si Si2 0.942390 0.563737 0.702684
Si Si3 0.743269 0.148454 0.603115
Si Si4 0.022380 0.446570 0.087797
Si Si5 0.755203 0.992444 0.179820
Si Si6 0.081755 0.623950 0.482245
Si Si7 0.272740 0.386928 0.956513
O O1 0.707295 0.856140 0.848837
O O2 0.869020 0.953770 0.859461
O O3 0.785343 0.890236 0.958257
O O4 0.844864 0.532762 0.716112
O O5 0.949133 0.667170 0.705774
O O6 0.008170 0.508170 0.750000
O O7 0.978605 0.533133 0.624550
O O8 0.750000 0.250000 0.609535
O O9 0.802656 0.112018 0.537866
O O10 0.644885 0.133011 0.583361
O O11 0.763331 0.093486 0.673458
O O12 0.963397 0.407636 0.026215
O O13 0.108034 0.487716 0.052046
O O14 0.774193 0.965297 0.097130
O O15 0.182319 0.344004 0.936973
#
# Coordination Sequence:
#
# PCOD9565910 Si02
#       7
#    16  16  16  16  16  16  16
#     4   9  20  34  55  98 147 185 218 267 353 442
#     4  12  29  53  74 106 135 189 249 314 358 418
#     4  12  23  38  63 103 150 195 232 271 343 447
#     4  11  24  39  64  97 138 183 230 290 369 403
#     4  12  24  48  76 101 140 174 247 304 361 422
#     4  11  22  36  61 100 139 184 222 281 345 429
#     4   9  17  31  64 106 135 165 211 278 351 415
#
# _framework density 24.573056999999999
#
# number of rings (size 3 to 8) (size 9 to 14) (size 15 to 20)
#    0.000    1.143    5.714    1.714    8.000    0.286 
#    5.143    0.000    0.000    0.000    0.000    0.000 
#    0.000    0.000    0.000    0.000    0.000    0.000 
#
# Total GULP energy -624927.870088 kJ/mol
# GULP energy per Si atom -5579.713126 kJ/mol
# Density = 2.451713 g / cm^3
# Si number density = 24.573057 Si / 1000 Ang^3
#
#
#
# Elastic Constant Matrix: (Units=GPa)
#
#
# Indices 1 2 3 4 5 6 
#
# 1 109.3907 34.2156 25.9314 0.0000 0.0000 0.0000
# 2 34.2156 109.3907 25.9314 0.0000 0.0000 0.0000
# 3 25.9314 25.9314 52.5598 0.0000 0.0000 0.0000
# 4 0.0000 0.0000 0.0000 19.4779 0.0000 0.0000
# 5 0.0000 0.0000 0.0000 0.0000 19.4779 0.0000
# 6 0.0000 0.0000 0.0000 0.0000 0.0000 14.8655
#
#
#
# Elastic Compliance Matrix: (Units=1/GPa)
#
#
# Indices 1 2 3 4 5 6 
#
# 1 0.010888 -0.002415 -0.004180 0.000000 0.000000 0.000000
# 2 -0.002415 0.010888 -0.004180 0.000000 0.000000 0.000000
# 3 -0.004180 -0.004180 0.023151 0.000000 0.000000 0.000000
# 4 0.000000 0.000000 0.000000 0.051340 0.000000 0.000000
# 5 0.000000 0.000000 0.000000 0.000000 0.051340 0.000000
# 6 0.000000 0.000000 0.000000 0.000000 0.000000 0.067270
#
#
# Mechanical properties :
#
#
# Convention : Reuss Voigt Hill
#
# Bulk Modulus (GPa) = 42.77951 49.27756 46.02854
# Shear Modulus (GPa) = 20.47341 23.11513 21.79427
#
# Velocity S-wave (km/s) = 2.88959 3.07036 2.98135
# Velocity P-wave (km/s) = 5.34602 5.71546 5.53382
#
# Compressibility (1/GPa) = 0.02337568
#
# Stress axis : x y z
#
# Youngs Moduli (GPa) = 91.84635 91.84635 43.19475
#
# Poissons Ratio (x) = 0.22177 0.18057
# Poissons Ratio (y) = 0.22177 0.18057
# Poissons Ratio (z) = 0.38396 0.38396
#
# Static dielectric constant tensor:
#      x y z
#    x 1.963220 0.000000 0.000000 
#    y 0.000000 1.963220 0.000000 
#    z 0.000000 0.000000 2.040490 
# 
# From -- ./inp_files/4280.got.cif
#   From: 2010.05.17/outbox.cif.g08.bks.cpg/sg130_3_cif.got.tgz:4280.got - 2010.05.20 12:17:35.
