data_PCOD9565964
_publ_section_title
;
Structure prediction by ZEFSAII (Michael W. Deem and Ramdas Pophale) SiO2 
 PCOD9565964
Probable space group: P 4/N C C
;
_chemical_formula_sum "Si O2"
_cell_formula_units_Z 88
_cell_length_a 17.990032
_cell_length_b 17.990032
_cell_length_c 14.146999
_cell_angle_alpha 90.000000
_cell_angle_beta 90.000000
_cell_angle_gamma 90.000000
_cell_volume 4578.552459
_symmetry_space_group_name_H-M "P 4/N C C"
_symmetry_group_IT_number 130
_symmetry_cell_setting 'tetragonal'
loop_
_space_group_symop_operation_xyz
x,y,z
1/2-y,x,z
1/2-x,1/2-y,z
y,1/2-x,z
1/2+x,-y,1/2-z
-x,1/2+y,1/2-z
1/2+y,1/2+x,1/2-z
-y,-x,1/2-z
-x,-y,-z
1/2+y,-x,-z
1/2+x,1/2+y,-z
-y,1/2+x,-z
1/2-x,y,1/2+z
x,1/2-y,1/2+z
1/2-y,1/2-x,1/2+z
y,x,1/2+z
loop_
_atom_site_type_symbol
_atom_site_label
_atom_site_fract_x
_atom_site_fract_y
_atom_site_fract_z
Si Si1 0.750000 0.250000 0.500000
Si Si2 0.654680 0.890548 0.238182
Si Si3 0.750000 0.750000 0.220647
Si Si4 0.730175 0.493678 0.597884
Si Si5 0.484248 0.859660 0.241497
Si Si6 0.273116 0.492112 0.114708
Si Si7 0.841399 0.148290 0.861704
O O1 0.687068 0.281484 0.569906
O O2 0.677094 0.805308 0.222545
O O3 0.565731 0.896136 0.238825
O O4 0.689013 0.942459 0.156947
O O5 0.689601 0.921057 0.335914
O O6 0.807617 0.474472 0.649805
O O7 0.749349 0.518346 0.492639
O O8 0.678888 0.420766 0.604353
O O9 0.419783 0.919783 0.250000
O O10 0.485109 0.800487 0.327062
O O11 0.330245 0.560426 0.126579
O O12 0.832645 0.167356 0.750000
#
# Coordination Sequence:
#
# PCOD9565964 Si02
#       7
#     4  16   4  16  16  16  16
#     4  12  26  36  68 106 132 192 234 260 328 402
#     4  11  24  48  71  94 131 179 222 292 346 393
#     4  12  20  52  70  96 128 170 240 292 334 424
#     4  11  25  44  68 101 135 177 222 276 337 407
#     4  11  26  43  67  97 136 174 227 276 343 402
#     4  11  25  44  68 101 135 177 222 276 337 407
#     4  12  23  41  67  97 143 183 221 271 329 404
#
# _framework density 19.220047999999998
#
# number of rings (size 3 to 8) (size 9 to 14) (size 15 to 20)
#    0.000    0.727    9.091    0.273    7.636    1.455 
#    0.000    2.727    0.000    0.000    0.000    0.000 
#    0.000    0.000    0.000    0.000    0.000    0.000 
#
# Total GULP energy -490828.834209 kJ/mol
# GULP energy per Si atom -5577.600389 kJ/mol
# Density = 1.917630 g / cm^3
# Si number density = 19.220048 Si / 1000 Ang^3
#
#
#
# Elastic Constant Matrix: (Units=GPa)
#
#
# Indices 1 2 3 4 5 6 
#
# 1 104.1800 10.1131 4.2240 0.0000 0.0000 0.0000
# 2 10.1131 104.1793 4.2238 0.0000 0.0000 0.0000
# 3 4.2240 4.2238 105.6275 0.0000 0.0000 0.0000
# 4 0.0000 0.0000 0.0000 104.9273 0.0000 0.0000
# 5 0.0000 0.0000 0.0000 0.0000 104.9325 0.0000
# 6 0.0000 0.0000 0.0000 0.0000 0.0000 52.8407
#
#
#
# Elastic Compliance Matrix: (Units=1/GPa)
#
#
# Indices 1 2 3 4 5 6 
#
# 1 0.009703 -0.000928 -0.000351 0.000000 0.000000 0.000000
# 2 -0.000928 0.009703 -0.000351 0.000000 0.000000 0.000000
# 3 -0.000351 -0.000351 0.009495 0.000000 0.000000 0.000000
# 4 0.000000 0.000000 0.000000 0.009530 0.000000 0.000000
# 5 0.000000 0.000000 0.000000 0.000000 0.009530 0.000000
# 6 0.000000 0.000000 0.000000 0.000000 0.000000 0.018925
#
#
# Mechanical properties :
#
#
# Convention : Reuss Voigt Hill
#
# Bulk Modulus (GPa) = 38.99786 39.01206 39.00496
# Shear Modulus (GPa) = 63.53794 72.23516 67.88655
#
# Velocity S-wave (km/s) = 5.75586 6.13717 5.94957
# Velocity P-wave (km/s) = 8.03165 8.40008 8.21793
#
# Compressibility (1/GPa) = 0.02564244
#
# Stress axis : x y z
#
# Youngs Moduli (GPa) = 103.06030 103.05971 105.31534
#
# Poissons Ratio (x) = 0.09561 0.03696
# Poissons Ratio (y) = 0.09561 0.03696
# Poissons Ratio (z) = 0.03617 0.03616
#
# Static dielectric constant tensor:
#      x y z
#    x 1.705510 0.000000 0.000000 
#    y 0.000000 1.705520 0.000000 
#    z 0.000000 0.000000 1.819230 
# 
# From -- ./inp_files/2426.got.cif
#   From: 2010.05.17/outbox.cif.g08.bks.cpg/sg130_2_cif.got.tgz:2426.got - 2010.05.20 12:17:35.
