data_PCOD9565682
_publ_section_title
;
Structure prediction by ZEFSAII (Michael W. Deem and Ramdas Pophale) SiO2 
 PCOD9565682
Probable space group: P 4/N C C
;
_chemical_formula_sum "Si O2"
_cell_formula_units_Z 96
_cell_length_a 16.516306
_cell_length_b 16.516306
_cell_length_c 18.700657
_cell_angle_alpha 90.000000
_cell_angle_beta 90.000000
_cell_angle_gamma 90.000000
_cell_volume 5101.321627
_symmetry_space_group_name_H-M "P 4/N C C"
_symmetry_group_IT_number 130
_symmetry_cell_setting 'tetragonal'
loop_
_space_group_symop_operation_xyz
x,y,z
1/2-y,x,z
1/2-x,1/2-y,z
y,1/2-x,z
1/2+x,-y,1/2-z
-x,1/2+y,1/2-z
1/2+y,1/2+x,1/2-z
-y,-x,1/2-z
-x,-y,-z
1/2+y,-x,-z
1/2+x,1/2+y,-z
-y,1/2+x,-z
1/2-x,y,1/2+z
x,1/2-y,1/2+z
1/2-y,1/2-x,1/2+z
y,x,1/2+z
loop_
_atom_site_type_symbol
_atom_site_label
_atom_site_fract_x
_atom_site_fract_y
_atom_site_fract_z
Si Si1 0.309379 0.370105 0.506994
Si Si2 0.699297 0.491528 0.385068
Si Si3 0.871720 0.053433 0.131069
Si Si4 0.535986 0.761498 0.229846
Si Si5 0.875912 0.896530 0.649173
Si Si6 0.717496 0.119501 0.495057
O O1 0.214250 0.354863 0.520536
O O2 0.333855 0.443200 0.558191
O O3 0.325806 0.388690 0.423829
O O4 0.627205 0.432276 0.361252
O O5 0.732896 0.534455 0.314556
O O6 0.764421 0.436262 0.426896
O O7 0.820777 0.067333 0.058833
O O8 0.808277 0.040793 0.195623
O O9 0.918526 0.967850 0.128610
O O10 0.609828 0.812744 0.193338
O O11 0.543094 0.671307 0.200530
O O12 0.658247 0.195854 0.482224
#
# Coordination Sequence:
#
# PCOD9565682 Si02
#       6
#    16  16  16  16  16  16
#     4  11  22  37  58  86 118 160 210 255 297 381
#     4  11  22  38  62  92 126 155 205 269 310 349
#     4   9  21  40  63  85 125 165 197 252 324 370
#     4  10  22  37  60  85 118 165 199 248 307 375
#     4  10  20  39  61  80 117 162 205 237 306 382
#     4   9  18  37  65  92 120 162 214 257 304 368
#
# _framework density 18.818653999999999
#
# number of rings (size 3 to 8) (size 9 to 14) (size 15 to 20)
#    1.000    1.000    1.667    2.500    2.333    1.000 
#    0.000    2.500   11.000    4.000    0.000    0.000 
#    0.000    0.000    0.000    0.000    0.000    0.000 
#
# Total GULP energy -534937.947397 kJ/mol
# GULP energy per Si atom -5572.270285 kJ/mol
# Density = 1.877582 g / cm^3
# Si number density = 18.818654 Si / 1000 Ang^3
#
#
#
# Elastic Constant Matrix: (Units=GPa)
#
#
# Indices 1 2 3 4 5 6 
#
# 1 48.1488 18.7524 44.7403 0.0000 0.0000 0.0000
# 2 18.7524 48.1488 44.7403 0.0000 0.0000 0.0000
# 3 44.7403 44.7403 128.3566 0.0000 0.0000 0.0000
# 4 0.0000 0.0000 0.0000 16.5194 0.0000 0.0000
# 5 0.0000 0.0000 0.0000 0.0000 16.5194 0.0000
# 6 0.0000 0.0000 0.0000 0.0000 0.0000 12.4801
#
#
#
# Elastic Compliance Matrix: (Units=1/GPa)
#
#
# Indices 1 2 3 4 5 6 
#
# 1 0.031010 -0.003008 -0.009761 0.000000 0.000000 0.000000
# 2 -0.003008 0.031010 -0.009761 0.000000 0.000000 0.000000
# 3 -0.009761 -0.009761 0.014595 0.000000 0.000000 0.000000
# 4 0.000000 0.000000 0.000000 0.060535 0.000000 0.000000
# 5 0.000000 0.000000 0.000000 0.000000 0.060535 0.000000
# 6 0.000000 0.000000 0.000000 0.000000 0.000000 0.080127
#
#
# Mechanical properties :
#
#
# Convention : Reuss Voigt Hill
#
# Bulk Modulus (GPa) = 31.68831 49.01336 40.35084
# Shear Modulus (GPa) = 14.99749 16.86518 15.93134
#
# Velocity S-wave (km/s) = 2.82609 2.99690 2.91275
# Velocity P-wave (km/s) = 5.24637 6.17064 5.72718
#
# Compressibility (1/GPa) = 0.03155738
#
# Stress axis : x y z
#
# Youngs Moduli (GPa) = 32.24766 32.24766 68.51609
#
# Poissons Ratio (x) = 0.09700 0.66875
# Poissons Ratio (y) = 0.09700 0.66875
# Poissons Ratio (z) = 0.31475 0.31475
#
# Static dielectric constant tensor:
#      x y z
#    x 1.663960 0.000000 0.000000 
#    y 0.000000 1.663960 0.000000 
#    z 0.000000 0.000000 1.635630 
# 
# From -- ./inp_files/3088.got.cif
#   From: 2010.05.17/outbox.cif.g08.bks.cpg/sg130_2_cif.got.tgz:3088.got - 2010.05.20 12:17:35.
