data_PCOD9565126
_publ_section_title
;
Structure prediction by ZEFSAII (Michael W. Deem and Ramdas Pophale) SiO2 
 PCOD9565126
Probable space group: P 4/N M M
;
_chemical_formula_sum "Si O2"
_cell_formula_units_Z 112
_cell_length_a 18.204801
_cell_length_b 18.204801
_cell_length_c 22.714237
_cell_angle_alpha 90.000000
_cell_angle_beta 90.000000
_cell_angle_gamma 90.000000
_cell_volume 7527.833846
_symmetry_space_group_name_H-M "P 4/N M M"
_symmetry_group_IT_number 129
_symmetry_cell_setting 'tetragonal'
loop_
_space_group_symop_operation_xyz
x,y,z
1/2-y,x,z
1/2-x,1/2-y,z
y,1/2-x,z
1/2+x,-y,-z
-x,1/2+y,-z
1/2+y,1/2+x,-z
-y,-x,-z
-x,-y,-z
1/2+y,-x,-z
1/2+x,1/2+y,-z
-y,1/2+x,-z
1/2-x,y,z
x,1/2-y,z
1/2-y,1/2-x,z
y,x,z
loop_
_atom_site_type_symbol
_atom_site_label
_atom_site_fract_x
_atom_site_fract_y
_atom_site_fract_z
Si Si1 0.574910 0.164613 0.823741
Si Si2 0.557015 0.062850 0.644550
Si Si3 0.060927 0.559738 0.932318
Si Si4 0.835227 0.164555 0.429101
Si Si5 0.547139 0.164596 0.247845
Si Si6 0.550174 0.665441 0.865392
Si Si7 0.045218 0.164324 0.723962
O O1 0.594004 0.250000 0.827643
O O2 0.562305 0.128425 0.887272
O O3 0.636251 0.118693 0.787964
O O4 0.501576 0.156988 0.784139
O O5 0.608192 0.106658 0.598632
O O6 0.611695 0.036574 0.696608
O O7 0.502786 0.122368 0.674718
O O8 0.505004 0.994997 0.624208
O O9 0.018541 0.481459 0.930196
O O10 0.003353 0.618837 0.907000
O O11 0.077405 0.577405 0.000000
O O12 0.838718 0.161283 0.500000
O O13 0.750000 0.147943 0.411792
O O14 0.849589 0.250000 0.411967
O O15 0.554659 0.250000 0.264308
O O16 0.481704 0.157073 0.200643
O O17 0.548533 0.750000 0.881347
O O18 0.629710 0.629710 0.868763
O O19 0.053394 0.250000 0.710537
O O20 0.121397 0.121397 0.729379
#
# Coordination Sequence:
#
# PCOD9565126 Si02
#       7
#    16  16  16  16  16  16  16
#     4   9  17  28  42  61  83 106 136 176 217 254
#     4  10  18  28  45  68  92 116 145 181 219 257
#     4   9  17  29  44  60  79 107 141 173 210 259
#     4   9  18  32  48  66  91 123 155 185 218 258
#     4   9  17  29  44  62  86 115 143 171 207 254
#     4   9  17  29  44  62  84 108 136 171 208 247
#     4   9  17  28  42  61  84 110 139 172 212 256
#
# _framework density 14.878118000000001
#
# number of rings (size 3 to 8) (size 9 to 14) (size 15 to 20)
#    0.000    2.857    0.000    2.143    0.000    5.429 
#    0.000    0.000    0.000    0.000    0.000    2.000 
#    0.000    6.000    0.000   10.571    0.000    0.286 
#
# Total GULP energy -623700.039339 kJ/mol
# GULP energy per Si atom -5568.750351 kJ/mol
# Density = 1.484426 g / cm^3
# Si number density = 14.878118 Si / 1000 Ang^3
#
#
#
# Elastic Constant Matrix: (Units=GPa)
#
#
# Indices 1 2 3 4 5 6 
#
# 1 71.2585 44.5128 25.2165 0.0000 0.0000 0.0000
# 2 44.5128 71.2585 25.2165 0.0000 0.0000 0.0000
# 3 25.2165 25.2165 51.1350 0.0000 0.0000 0.0000
# 4 0.0000 0.0000 0.0000 14.4827 0.0000 0.0000
# 5 0.0000 0.0000 0.0000 0.0000 14.4827 0.0000
# 6 0.0000 0.0000 0.0000 0.0000 0.0000 21.0247
#
#
#
# Elastic Compliance Matrix: (Units=1/GPa)
#
#
# Indices 1 2 3 4 5 6 
#
# 1 0.024195 -0.013194 -0.005425 0.000000 0.000000 0.000000
# 2 -0.013194 0.024195 -0.005425 0.000000 0.000000 0.000000
# 3 -0.005425 -0.005425 0.024907 0.000000 0.000000 0.000000
# 4 0.000000 0.000000 0.000000 0.069048 0.000000 0.000000
# 5 0.000000 0.000000 0.000000 0.000000 0.069048 0.000000
# 6 0.000000 0.000000 0.000000 0.000000 0.000000 0.047563
#
#
# Mechanical properties :
#
#
# Convention : Reuss Voigt Hill
#
# Bulk Modulus (GPa) = 39.66895 42.61595 41.14245
# Shear Modulus (GPa) = 15.85054 16.57843 16.21449
#
# Velocity S-wave (km/s) = 3.26753 3.34171 3.30483
# Velocity P-wave (km/s) = 6.39970 6.60264 6.50196
#
# Compressibility (1/GPa) = 0.02520863
#
# Stress axis : x y z
#
# Youngs Moduli (GPa) = 41.33074 41.33083 40.15000
#
# Poissons Ratio (x) = 0.54532 0.21781
# Poissons Ratio (y) = 0.54532 0.21781
# Poissons Ratio (z) = 0.22422 0.22422
#
# Static dielectric constant tensor:
#      x y z
#    x 1.483340 0.000000 0.000000 
#    y 0.000000 1.483340 0.000000 
#    z 0.000000 0.000000 1.482120 
# 
# From -- ./inp_files/6702.got.cif
#   From: 2010.05.17/outbox.cif.g08.bks.cpg/sg129_4_cif.got.tgz:6702.got - 2010.05.20 12:12:06.
