data_PCOD9565505
_publ_section_title
;
Structure prediction by ZEFSAII (Michael W. Deem and Ramdas Pophale) SiO2 
 PCOD9565505
Probable space group: P 4/N M M
;
_chemical_formula_sum "Si O2"
_cell_formula_units_Z 58
_cell_length_a 19.012608
_cell_length_b 19.012608
_cell_length_c 8.151004
_cell_angle_alpha 90.000000
_cell_angle_beta 90.000000
_cell_angle_gamma 90.000000
_cell_volume 2946.418918
_symmetry_space_group_name_H-M "P 4/N M M"
_symmetry_group_IT_number 129
_symmetry_cell_setting 'tetragonal'
loop_
_space_group_symop_operation_xyz
x,y,z
1/2-y,x,z
1/2-x,1/2-y,z
y,1/2-x,z
1/2+x,-y,-z
-x,1/2+y,-z
1/2+y,1/2+x,-z
-y,-x,-z
-x,-y,-z
1/2+y,-x,-z
1/2+x,1/2+y,-z
-y,1/2+x,-z
1/2-x,y,z
x,1/2-y,z
1/2-y,1/2-x,z
y,x,z
loop_
_atom_site_type_symbol
_atom_site_label
_atom_site_fract_x
_atom_site_fract_y
_atom_site_fract_z
Si Si1 0.826188 0.326188 0.500000
Si Si2 0.129321 0.370680 0.758936
Si Si3 0.750000 0.750000 0.275255
Si Si4 0.370987 0.560859 0.245546
Si Si5 0.057655 0.057655 0.442865
Si Si6 0.828414 0.480297 0.115287
O O1 0.829607 0.250000 0.584639
O O2 0.889129 0.330715 0.371364
O O3 0.187980 0.312021 0.727897
O O4 0.097155 0.402846 0.589862
O O5 0.159881 0.437074 0.858944
O O6 0.389468 0.488008 0.333153
O O7 0.440461 0.607771 0.206356
O O8 0.334685 0.543979 0.073330
O O9 0.000000 0.000000 0.500000
O O10 0.750000 0.462366 0.176496
#
# Coordination Sequence:
#
# PCOD9565505 Si02
#       6
#     8   8   2  16   8  16
#     4  11  22  37  56  84 128 173 202 243 318 400
#     4  12  23  44  70  91 128 171 217 267 333 398
#     4  12  28  48  68  98 136 184 216 262 336 432
#     4  11  22  39  62  94 127 160 215 274 323 374
#     4  12  21  39  67  97 121 161 217 284 329 371
#     4  11  22  38  64  94 125 167 213 267 325 387
#
# _framework density 19.684913000000002
#
# number of rings (size 3 to 8) (size 9 to 14) (size 15 to 20)
#    0.000    0.690    5.517    2.483    0.000    2.207 
#    4.966    0.000    0.000    9.931    0.000    0.000 
#    0.000    0.000    0.000    0.000    0.000    0.000 
#
# Total GULP energy -323359.958423 kJ/mol
# GULP energy per Si atom -5575.171697 kJ/mol
# Density = 1.964011 g / cm^3
# Si number density = 19.684913 Si / 1000 Ang^3
#
#
#
# Elastic Constant Matrix: (Units=GPa)
#
#
# Indices 1 2 3 4 5 6 
#
# 1 125.2673 59.5393 38.8051 0.0000 0.0000 0.0000
# 2 59.5393 125.2673 38.8051 0.0000 0.0000 0.0000
# 3 38.8051 38.8051 72.9206 0.0000 0.0000 0.0000
# 4 0.0000 0.0000 0.0000 -0.7775 0.0000 0.0000
# 5 0.0000 0.0000 0.0000 0.0000 -0.7775 0.0000
# 6 0.0000 0.0000 0.0000 0.0000 0.0000 38.8976
#
#
#
# Elastic Compliance Matrix: (Units=1/GPa)
#
#
# Indices 1 2 3 4 5 6 
#
# 1 0.011091 -0.004123 -0.003708 0.000000 0.000000 0.000000
# 2 -0.004123 0.011091 -0.003708 0.000000 0.000000 0.000000
# 3 -0.003708 -0.003708 0.017660 0.000000 0.000000 0.000000
# 4 0.000000 0.000000 0.000000 -1.286241 0.000000 0.000000
# 5 0.000000 0.000000 0.000000 0.000000 -1.286241 0.000000
# 6 0.000000 0.000000 0.000000 0.000000 0.000000 0.025709
#
#
# Mechanical properties :
#
#
# Convention : Reuss Voigt Hill
#
# Bulk Modulus (GPa) = 59.65166 66.41712 63.03439
# Shear Modulus (GPa) = -2.01754 19.88893 8.93569
#
# Velocity S-wave (km/s) = -1.01348 3.18207 2.13289
# Velocity P-wave (km/s) = 5.38512 6.87853 6.17712
#
# Compressibility (1/GPa) = 0.01676399
#
# Stress axis : x y z
#
# Youngs Moduli (GPa) = 90.16094 90.16094 56.62432
#
# Poissons Ratio (x) = 0.37173 0.20998
# Poissons Ratio (y) = 0.37173 0.20998
# Poissons Ratio (z) = 0.33434 0.33434
#
# Static dielectric constant tensor:
#      x y z
#    x 1.693890 0.000000 0.000000 
#    y 0.000000 1.693890 0.000000 
#    z 0.000000 0.000000 1.683180 
# 
# From -- ./inp_files/1804.got.cif
#   From: 2010.05.17/outbox.cif.g08.bks.cpg/sg129_1_cif.got.tgz:1804.got - 2010.05.20 12:12:06.
