data_PCOD9565926
_publ_section_title
;
Structure prediction by ZEFSAII (Michael W. Deem and Ramdas Pophale) SiO2 
 PCOD9565926
Probable space group: P 4/N C C
;
_chemical_formula_sum "Si O2"
_cell_formula_units_Z 96
_cell_length_a 14.481169
_cell_length_b 14.481169
_cell_length_c 18.563184
_cell_angle_alpha 90.000000
_cell_angle_beta 90.000000
_cell_angle_gamma 90.000000
_cell_volume 3892.778682
_symmetry_space_group_name_H-M "P 4/N C C"
_symmetry_group_IT_number 130
_symmetry_cell_setting 'tetragonal'
loop_
_space_group_symop_operation_xyz
x,y,z
1/2-y,x,z
1/2-x,1/2-y,z
y,1/2-x,z
1/2+x,-y,1/2-z
-x,1/2+y,1/2-z
1/2+y,1/2+x,1/2-z
-y,-x,1/2-z
-x,-y,-z
1/2+y,-x,-z
1/2+x,1/2+y,-z
-y,1/2+x,-z
1/2-x,y,1/2+z
x,1/2-y,1/2+z
1/2-y,1/2-x,1/2+z
y,x,1/2+z
loop_
_atom_site_type_symbol
_atom_site_label
_atom_site_fract_x
_atom_site_fract_y
_atom_site_fract_z
Si Si1 0.584052 0.924433 0.638184
Si Si2 0.857955 0.508594 0.985263
Si Si3 0.562397 0.313491 0.445346
Si Si4 0.938641 0.913434 0.829991
Si Si5 0.750000 0.250000 0.624569
Si Si6 0.337037 0.837037 0.750000
Si Si7 0.466300 0.227005 0.259320
O O1 0.555269 0.891928 0.558364
O O2 0.598463 0.829937 0.683275
O O3 0.670611 0.992449 0.621829
O O4 0.507110 0.996781 0.669359
O O5 0.912199 0.412215 0.977253
O O6 0.874929 0.558844 0.910582
O O7 0.751491 0.484400 0.996863
O O8 0.658934 0.268684 0.420530
O O9 0.965103 0.831651 0.772342
O O10 0.836348 0.945285 0.810850
O O11 0.669423 0.266194 0.683008
O O12 0.433877 0.810927 0.716489
#
# Coordination Sequence:
#
# PCOD9565926 Si02
#       7
#    16  16  16  16   8   8  16
#     4  11  25  47  73 112 152 207 250 320 396 468
#     4  11  25  43  77 107 156 200 256 315 404 460
#     4  11  23  42  71 108 154 188 255 316 391 478
#     4  11  26  45  74 109 148 207 262 314 386 469
#     4  11  24  39  72 116 144 190 244 322 400 462
#     4  11  22  42  70 106 156 187 234 312 394 461
#     4  12  26  46  76 106 155 198 260 311 385 464
#
# _framework density 24.661045999999999
#
# number of rings (size 3 to 8) (size 9 to 14) (size 15 to 20)
#    0.000    0.833    1.667    6.000    9.333    0.333 
#    0.000    0.000    0.000    0.500    0.000    0.000 
#    0.000    0.000    0.000    0.000    0.000    0.000 
#
# Total GULP energy -536366.209874 kJ/mol
# GULP energy per Si atom -5587.148020 kJ/mol
# Density = 2.460492 g / cm^3
# Si number density = 24.661046 Si / 1000 Ang^3
#
#
#
# Elastic Constant Matrix: (Units=GPa)
#
#
# Indices 1 2 3 4 5 6 
#
# 1 88.0135 2.9142 19.1776 0.0000 0.0000 0.0000
# 2 2.9142 88.0135 19.1776 0.0000 0.0000 0.0000
# 3 19.1776 19.1776 139.9402 0.0000 0.0000 0.0000
# 4 0.0000 0.0000 0.0000 44.2872 0.0000 0.0000
# 5 0.0000 0.0000 0.0000 0.0000 44.2872 0.0000
# 6 0.0000 0.0000 0.0000 0.0000 0.0000 30.9196
#
#
#
# Elastic Compliance Matrix: (Units=1/GPa)
#
#
# Indices 1 2 3 4 5 6 
#
# 1 0.011712 -0.000039 -0.001600 0.000000 0.000000 0.000000
# 2 -0.000039 0.011712 -0.001600 0.000000 0.000000 0.000000
# 3 -0.001600 -0.001600 0.007584 0.000000 0.000000 0.000000
# 4 0.000000 0.000000 0.000000 0.022580 0.000000 0.000000
# 5 0.000000 0.000000 0.000000 0.000000 0.022580 0.000000
# 6 0.000000 0.000000 0.000000 0.000000 0.000000 0.032342
#
#
# Mechanical properties :
#
#
# Convention : Reuss Voigt Hill
#
# Bulk Modulus (GPa) = 40.76495 44.27844 42.52170
# Shear Modulus (GPa) = 40.59647 42.21200 41.40423
#
# Velocity S-wave (km/s) = 4.06171 4.14174 4.10192
# Velocity P-wave (km/s) = 6.20988 6.39264 6.30192
#
# Compressibility (1/GPa) = 0.02453088
#
# Stress axis : x y z
#
# Youngs Moduli (GPa) = 85.38442 85.38442 131.85071
#
# Poissons Ratio (x) = 0.00335 0.21091
# Poissons Ratio (y) = 0.00335 0.21091
# Poissons Ratio (z) = 0.13658 0.13658
#
# Static dielectric constant tensor:
#      x y z
#    x 2.027050 0.000000 0.000000 
#    y 0.000000 2.027050 0.000000 
#    z 0.000000 0.000000 2.104490 
# 
# From -- ./inp_files/3840.got.cif
#   From: 2010.05.17/outbox.cif.g08.bks.cpg/sg130_2_cif.got.tgz:3840.got - 2010.05.20 12:17:35.
