data_PCOD9565144
_publ_section_title
;
Structure prediction by ZEFSAII (Michael W. Deem and Ramdas Pophale) SiO2 
 PCOD9565144
Probable space group: P 4/N M M
;
_chemical_formula_sum "Si O2"
_cell_formula_units_Z 96
_cell_length_a 18.866115
_cell_length_b 18.866115
_cell_length_c 16.068175
_cell_angle_alpha 90.000000
_cell_angle_beta 90.000000
_cell_angle_gamma 90.000000
_cell_volume 5719.150271
_symmetry_space_group_name_H-M "P 4/N M M"
_symmetry_group_IT_number 129
_symmetry_cell_setting 'tetragonal'
loop_
_space_group_symop_operation_xyz
x,y,z
1/2-y,x,z
1/2-x,1/2-y,z
y,1/2-x,z
1/2+x,-y,-z
-x,1/2+y,-z
1/2+y,1/2+x,-z
-y,-x,-z
-x,-y,-z
1/2+y,-x,-z
1/2+x,1/2+y,-z
-y,1/2+x,-z
1/2-x,y,z
x,1/2-y,z
1/2-y,1/2-x,z
y,x,z
loop_
_atom_site_type_symbol
_atom_site_label
_atom_site_fract_x
_atom_site_fract_y
_atom_site_fract_z
Si Si1 0.666020 0.951010 0.159874
Si Si2 0.500286 0.380990 0.502284
Si Si3 0.668382 0.404940 0.750253
Si Si4 0.895057 0.334644 0.914547
Si Si5 0.829632 0.948566 0.673850
Si Si6 0.037745 0.830235 0.322609
O O1 0.750000 0.932166 0.157574
O O2 0.613807 0.886194 0.139803
O O3 0.655586 0.020699 0.102245
O O4 0.648324 0.980543 0.252740
O O5 0.570104 0.429897 0.500000
O O6 0.434841 0.434841 0.512679
O O7 0.486340 0.340662 0.416139
O O8 0.507122 0.335215 0.585266
O O9 0.750000 0.386216 0.730314
O O10 0.646306 0.372488 0.838826
O O11 0.662907 0.489833 0.742575
O O12 0.609022 0.375137 0.687808
O O13 0.881406 0.250000 0.913414
O O14 0.868492 0.368492 0.000000
O O15 0.750000 0.919578 0.677344
O O16 0.888833 0.888833 0.682635
O O17 0.057375 0.750000 0.301033
#
# Coordination Sequence:
#
# PCOD9565144 Si02
#       6
#    16  16  16  16  16  16
#     4   9  19  34  52  77 106 136 172 213 260 310
#     4  10  18  30  50  73  97 132 177 220 260 305
#     4  10  20  33  50  74 103 135 170 206 250 309
#     4  10  21  36  56  82 108 136 170 210 254 306
#     4  10  21  36  54  76 102 135 177 223 266 309
#     4  10  19  31  49  72 102 137 173 216 258 301
#
# _framework density 16.785710999999999
#
# number of rings (size 3 to 8) (size 9 to 14) (size 15 to 20)
#    0.000    2.167    1.667    3.000    0.000    5.500 
#    0.000    0.000    0.000    0.000    0.000    2.333 
#    0.000    5.333    0.000    0.000    0.000    0.000 
#
# Total GULP energy -535018.444901 kJ/mol
# GULP energy per Si atom -5573.108801 kJ/mol
# Density = 1.674751 g / cm^3
# Si number density = 16.785711 Si / 1000 Ang^3
#
#
#
# Elastic Constant Matrix: (Units=GPa)
#
#
# Indices 1 2 3 4 5 6 
#
# 1 91.7310 60.9058 40.9904 0.0000 0.0000 0.0000
# 2 60.9058 91.7325 40.9896 0.0000 0.0000 0.0000
# 3 40.9904 40.9896 82.7557 0.0000 0.0000 0.0000
# 4 0.0000 0.0000 0.0000 18.4393 0.0000 0.0000
# 5 0.0000 0.0000 0.0000 0.0000 18.4396 0.0000
# 6 0.0000 0.0000 0.0000 0.0000 0.0000 24.3049
#
#
#
# Elastic Compliance Matrix: (Units=1/GPa)
#
#
# Indices 1 2 3 4 5 6 
#
# 1 0.020683 -0.011757 -0.004422 0.000000 0.000000 0.000000
# 2 -0.011757 0.020683 -0.004421 0.000000 0.000000 0.000000
# 3 -0.004422 -0.004421 0.016464 0.000000 0.000000 0.000000
# 4 0.000000 0.000000 0.000000 0.054232 0.000000 0.000000
# 5 0.000000 0.000000 0.000000 0.000000 0.054231 0.000000
# 6 0.000000 0.000000 0.000000 0.000000 0.000000 0.041144
#
#
# Mechanical properties :
#
#
# Convention : Reuss Voigt Hill
#
# Bulk Modulus (GPa) = 60.12927 61.33232 60.73080
# Shear Modulus (GPa) = 19.67116 20.45899 20.06507
#
# Velocity S-wave (km/s) = 3.42701 3.49497 3.46116
# Velocity P-wave (km/s) = 7.18044 7.27352 7.22713
#
# Compressibility (1/GPa) = 0.01663084
#
# Stress axis : x y z
#
# Youngs Moduli (GPa) = 48.34774 48.34927 60.74038
#
# Poissons Ratio (x) = 0.56845 0.26856
# Poissons Ratio (y) = 0.56843 0.26853
# Poissons Ratio (z) = 0.21377 0.21375
#
# Static dielectric constant tensor:
#      x y z
#    x 1.557540 0.000000 0.000000 
#    y 0.000000 1.557540 0.000000 
#    z 0.000000 0.000000 1.575950 
# 
# From -- ./inp_files/5650.got.cif
#   From: 2010.05.17/outbox.cif.g08.bks.cpg/sg129_3_cif.got.tgz:5650.got - 2010.05.20 12:12:06.
