data_PCOD9565890
_publ_section_title
;
Structure prediction by ZEFSAII (Michael W. Deem and Ramdas Pophale) SiO2 
 PCOD9565890
Probable space group: P 4/N C C
;
_chemical_formula_sum "Si O2"
_cell_formula_units_Z 112
_cell_length_a 14.895372
_cell_length_b 14.895372
_cell_length_c 24.314695
_cell_angle_alpha 90.000000
_cell_angle_beta 90.000000
_cell_angle_gamma 90.000000
_cell_volume 5394.752611
_symmetry_space_group_name_H-M "P 4/N C C"
_symmetry_group_IT_number 130
_symmetry_cell_setting 'tetragonal'
loop_
_space_group_symop_operation_xyz
x,y,z
1/2-y,x,z
1/2-x,1/2-y,z
y,1/2-x,z
1/2+x,-y,1/2-z
-x,1/2+y,1/2-z
1/2+y,1/2+x,1/2-z
-y,-x,1/2-z
-x,-y,-z
1/2+y,-x,-z
1/2+x,1/2+y,-z
-y,1/2+x,-z
1/2-x,y,1/2+z
x,1/2-y,1/2+z
1/2-y,1/2-x,1/2+z
y,x,1/2+z
loop_
_atom_site_type_symbol
_atom_site_label
_atom_site_fract_x
_atom_site_fract_y
_atom_site_fract_z
Si Si1 0.239946 0.022344 0.369941
Si Si2 0.865968 0.372158 0.316196
Si Si3 0.040101 0.467622 0.133625
Si Si4 0.853863 0.857837 0.447748
Si Si5 0.324039 0.917715 0.198966
Si Si6 0.270530 0.396062 0.752804
Si Si7 0.429397 0.407888 0.435894
O O1 0.271972 0.077829 0.316916
O O2 0.159202 0.075869 0.398935
O O3 0.319173 0.020296 0.414171
O O4 0.202917 0.927246 0.346238
O O5 0.863574 0.363574 0.250000
O O6 0.917232 0.465182 0.330422
O O7 0.760656 0.373929 0.332437
O O8 0.110786 0.398406 0.109008
O O9 0.089531 0.549295 0.164767
O O10 0.990508 0.508757 0.080684
O O11 0.747783 0.872268 0.450305
O O12 0.899641 0.899604 0.501609
O O13 0.357367 0.857367 0.250000
O O14 0.284828 0.011881 0.221226
O O15 0.175907 0.348252 0.740924
#
# Coordination Sequence:
#
# PCOD9565890 Si02
#       7
#    16  16  16  16  16  16  16
#     4  11  21  37  64  98 127 167 217 285 332 381
#     4  11  24  42  64  92 138 176 225 277 320 398
#     4  11  25  42  66  96 134 179 216 269 337 404
#     4  11  23  42  71 100 130 163 214 282 340 395
#     4  12  25  42  64  91 135 187 229 264 325 407
#     4  11  22  36  60  92 128 166 216 274 335 389
#     4  11  22  40  66  96 130 168 218 274 336 395
#
# _framework density 20.760914
#
# number of rings (size 3 to 8) (size 9 to 14) (size 15 to 20)
#    0.000    0.857    4.286    3.429    2.000    0.571 
#    0.000    1.429    0.000    0.000    0.000    0.000 
#    0.000    0.000    0.000    0.000    0.000    0.000 
#
# Total GULP energy -626271.296787 kJ/mol
# GULP energy per Si atom -5591.708007 kJ/mol
# Density = 2.071366 g / cm^3
# Si number density = 20.760914 Si / 1000 Ang^3
#
#
#
# Elastic Constant Matrix: (Units=GPa)
#
#
# Indices 1 2 3 4 5 6 
#
# 1 78.6977 26.9181 11.0580 0.0000 0.0000 0.0000
# 2 26.9181 78.6977 11.0580 0.0000 0.0000 0.0000
# 3 11.0580 11.0580 54.5097 0.0000 0.0000 0.0000
# 4 0.0000 0.0000 0.0000 31.4179 0.0000 0.0000
# 5 0.0000 0.0000 0.0000 0.0000 31.4179 0.0000
# 6 0.0000 0.0000 0.0000 0.0000 0.0000 21.9646
#
#
#
# Elastic Compliance Matrix: (Units=1/GPa)
#
#
# Indices 1 2 3 4 5 6 
#
# 1 0.014600 -0.004712 -0.002006 0.000000 0.000000 0.000000
# 2 -0.004712 0.014600 -0.002006 0.000000 0.000000 0.000000
# 3 -0.002006 -0.002006 0.019159 0.000000 0.000000 0.000000
# 4 0.000000 0.000000 0.000000 0.031829 0.000000 0.000000
# 5 0.000000 0.000000 0.000000 0.000000 0.031829 0.000000
# 6 0.000000 0.000000 0.000000 0.000000 0.000000 0.045528
#
#
# Mechanical properties :
#
#
# Convention : Reuss Voigt Hill
#
# Bulk Modulus (GPa) = 32.34990 34.44147 33.39569
# Shear Modulus (GPa) = 26.98356 27.81817 27.40086
#
# Velocity S-wave (km/s) = 3.60909 3.66448 3.63689
# Velocity P-wave (km/s) = 5.74311 5.87623 5.81005
#
# Compressibility (1/GPa) = 0.03091200
#
# Stress axis : x y z
#
# Youngs Moduli (GPa) = 68.49091 68.49091 52.19422
#
# Poissons Ratio (x) = 0.32274 0.10470
# Poissons Ratio (y) = 0.32274 0.10470
# Poissons Ratio (z) = 0.13739 0.13739
#
# Static dielectric constant tensor:
#      x y z
#    x 1.767180 0.000000 0.000000 
#    y 0.000000 1.767180 0.000000 
#    z 0.000000 0.000000 1.704400 
# 
# From -- ./inp_files/4272.got.cif
#   From: 2010.05.17/outbox.cif.g08.bks.cpg/sg130_3_cif.got.tgz:4272.got - 2010.05.20 12:17:35.
