data_PCOD9565404
_publ_section_title
;
Structure prediction by ZEFSAII (Michael W. Deem and Ramdas Pophale) SiO2 
 PCOD9565404
Probable space group: P 4/N M M
;
_chemical_formula_sum "Si O2"
_cell_formula_units_Z 128
_cell_length_a 24.034186
_cell_length_b 24.034186
_cell_length_c 12.951202
_cell_angle_alpha 90.000000
_cell_angle_beta 90.000000
_cell_angle_gamma 90.000000
_cell_volume 7481.159478
_symmetry_space_group_name_H-M "P 4/N M M"
_symmetry_group_IT_number 129
_symmetry_cell_setting 'tetragonal'
loop_
_space_group_symop_operation_xyz
x,y,z
1/2-y,x,z
1/2-x,1/2-y,z
y,1/2-x,z
1/2+x,-y,-z
-x,1/2+y,-z
1/2+y,1/2+x,-z
-y,-x,-z
-x,-y,-z
1/2+y,-x,-z
1/2+x,1/2+y,-z
-y,1/2+x,-z
1/2-x,y,z
x,1/2-y,z
1/2-y,1/2-x,z
y,x,z
loop_
_atom_site_type_symbol
_atom_site_label
_atom_site_fract_x
_atom_site_fract_y
_atom_site_fract_z
Si Si1 0.524472 0.881618 0.784750
Si Si2 0.896530 0.092251 0.239274
Si Si3 0.487401 0.184570 0.427613
Si Si4 0.183880 0.616832 0.417321
Si Si5 0.094018 0.315682 0.613969
Si Si6 0.967671 0.624527 0.205472
Si Si7 0.007988 0.314635 0.011318
Si Si8 0.188073 0.614502 0.943224
O O1 0.569326 0.930675 0.786939
O O2 0.461426 0.904206 0.788466
O O3 0.526939 0.848579 0.676464
O O4 0.531179 0.842265 0.884822
O O5 0.882328 0.139579 0.323352
O O6 0.857540 0.105493 0.143194
O O7 0.884384 0.027313 0.260704
O O8 0.478803 0.250000 0.406975
O O9 0.552726 0.178277 0.455785
O O10 0.448513 0.167940 0.522578
O O11 0.161313 0.661313 0.500000
O O12 0.250000 0.625149 0.392376
O O13 0.101988 0.250000 0.610763
O O14 0.150532 0.349469 0.599681
O O15 0.067205 0.334167 0.722217
O O16 0.932548 0.567453 0.197628
O O17 0.976240 0.651046 0.091841
O O18 0.024839 0.250000 0.001285
O O19 0.940317 0.314909 0.015319
O O20 0.250000 0.616475 0.899842
O O21 0.170559 0.670559 0.000000
#
# Coordination Sequence:
#
# PCOD9565404 Si02
#       8
#    16  16  16  16  16  16  16  16
#     4  11  20  32  54  81 110 139 174 221 271 325
#     4  10  21  36  52  78 106 139 173 218 276 323
#     4   9  19  35  54  77 105 141 179 217 265 321
#     4  10  21  36  55  76 103 140 182 226 270 322
#     4  10  20  35  55  78 106 136 172 216 259 315
#     4  10  20  34  54  80 109 141 181 224 269 325
#     4  10  20  34  53  75 107 145 178 217 266 322
#     4  10  20  35  51  70  96 131 175 218 259 309
#
# _framework density 17.109646999999999
#
# number of rings (size 3 to 8) (size 9 to 14) (size 15 to 20)
#    0.000    2.000    1.250    2.625    0.000    2.375 
#    0.000    1.875    0.000    6.000    0.000    0.000 
#    0.000   10.250    0.000    0.000    0.000    0.000 
#
# Total GULP energy -713410.043522 kJ/mol
# GULP energy per Si atom -5573.515965 kJ/mol
# Density = 1.707070 g / cm^3
# Si number density = 17.109647 Si / 1000 Ang^3
#
#
#
# Elastic Constant Matrix: (Units=GPa)
#
#
# Indices 1 2 3 4 5 6 
#
# 1 89.3697 49.1537 38.2194 0.0000 0.0000 0.0000
# 2 49.1537 89.3697 38.2194 0.0000 0.0000 0.0000
# 3 38.2194 38.2194 67.4150 0.0000 0.0000 0.0000
# 4 0.0000 0.0000 0.0000 20.4682 0.0000 0.0000
# 5 0.0000 0.0000 0.0000 0.0000 20.4682 0.0000
# 6 0.0000 0.0000 0.0000 0.0000 0.0000 25.7279
#
#
#
# Elastic Compliance Matrix: (Units=1/GPa)
#
#
# Indices 1 2 3 4 5 6 
#
# 1 0.017686 -0.007180 -0.005956 0.000000 0.000000 0.000000
# 2 -0.007180 0.017686 -0.005956 0.000000 0.000000 0.000000
# 3 -0.005956 -0.005956 0.021587 0.000000 0.000000 0.000000
# 4 0.000000 0.000000 0.000000 0.048856 0.000000 0.000000
# 5 0.000000 0.000000 0.000000 0.000000 0.048856 0.000000
# 6 0.000000 0.000000 0.000000 0.000000 0.000000 0.038868
#
#
# Mechanical properties :
#
#
# Convention : Reuss Voigt Hill
#
# Bulk Modulus (GPa) = 53.26475 55.25996 54.26236
# Shear Modulus (GPa) = 21.01011 21.37029 21.19020
#
# Velocity S-wave (km/s) = 3.50804 3.53798 3.52304
# Velocity P-wave (km/s) = 6.89982 7.00410 6.95215
#
# Compressibility (1/GPa) = 0.01877414
#
# Stress axis : x y z
#
# Youngs Moduli (GPa) = 56.54306 56.54306 46.32509
#
# Poissons Ratio (x) = 0.40599 0.27591
# Poissons Ratio (y) = 0.40599 0.27591
# Poissons Ratio (z) = 0.33676 0.33676
#
# Static dielectric constant tensor:
#      x y z
#    x 1.573160 0.000000 0.000000 
#    y 0.000000 1.573160 0.000000 
#    z 0.000000 0.000000 1.578460 
# 
# From -- ./inp_files/4180.got.cif
#   From: 2010.05.17/outbox.cif.g08.bks.cpg/sg129_3_cif.got.tgz:4180.got - 2010.05.20 12:12:06.
