data_PCOD9565903
_publ_section_title
;
Structure prediction by ZEFSAII (Michael W. Deem and Ramdas Pophale) SiO2 
 PCOD9565903
Probable space group: P 4/N C C
;
_chemical_formula_sum "Si O2"
_cell_formula_units_Z 96
_cell_length_a 22.541948
_cell_length_b 22.541948
_cell_length_c 9.845868
_cell_angle_alpha 90.000000
_cell_angle_beta 90.000000
_cell_angle_gamma 90.000000
_cell_volume 5003.073651
_symmetry_space_group_name_H-M "P 4/N C C"
_symmetry_group_IT_number 130
_symmetry_cell_setting 'tetragonal'
loop_
_space_group_symop_operation_xyz
x,y,z
1/2-y,x,z
1/2-x,1/2-y,z
y,1/2-x,z
1/2+x,-y,1/2-z
-x,1/2+y,1/2-z
1/2+y,1/2+x,1/2-z
-y,-x,1/2-z
-x,-y,-z
1/2+y,-x,-z
1/2+x,1/2+y,-z
-y,1/2+x,-z
1/2-x,y,1/2+z
x,1/2-y,1/2+z
1/2-y,1/2-x,1/2+z
y,x,1/2+z
loop_
_atom_site_type_symbol
_atom_site_label
_atom_site_fract_x
_atom_site_fract_y
_atom_site_fract_z
Si Si1 0.490223 0.599913 0.973303
Si Si2 0.680115 0.499429 0.210121
Si Si3 0.629981 0.328308 0.397781
Si Si4 0.298760 0.640194 0.361049
Si Si5 0.487462 0.401434 0.513468
Si Si6 0.510127 0.184674 0.265801
O O1 0.548900 0.560570 0.947946
O O2 0.499331 0.640600 0.106687
O O3 0.483688 0.646220 0.849165
O O4 0.438776 0.548889 0.984846
O O5 0.679846 0.439793 0.119017
O O6 0.634387 0.536656 0.118421
O O7 0.748845 0.518534 0.228252
O O8 0.652945 0.347056 0.250000
O O9 0.652272 0.262848 0.432487
O O10 0.653019 0.367138 0.521155
O O11 0.310724 0.689277 0.250000
O O12 0.299842 0.580046 0.273201
O O13 0.495760 0.353932 0.633788
#
# Coordination Sequence:
#
# PCOD9565903 Si02
#       6
#    16  16  16  16  16  16
#     4  11  22  37  59  85 114 147 184 230 280 331
#     4  11  22  37  56  79 110 145 182 223 274 335
#     4  11  22  34  49  68  95 136 181 226 269 308
#     4  11  22  34  49  68  95 136 181 226 269 308
#     4  11  22  37  59  85 114 147 184 230 280 331
#     4  11  22  37  56  79 110 145 182 223 274 335
#
# _framework density 19.188203999999999
#
# number of rings (size 3 to 8) (size 9 to 14) (size 15 to 20)
#    0.000    1.000    0.000    9.000    0.000   10.000 
#    0.000    0.000    0.000    0.000    0.000    0.000 
#    0.000   46.667    0.000    0.000    0.000    0.000 
#
# Total GULP energy -535595.314613 kJ/mol
# GULP energy per Si atom -5579.117861 kJ/mol
# Density = 1.914453 g / cm^3
# Si number density = 19.188204 Si / 1000 Ang^3
#
#
#
# Elastic Constant Matrix: (Units=GPa)
#
#
# Indices 1 2 3 4 5 6 
#
# 1 87.8603 25.8079 23.1006 0.0000 0.0000 0.0000
# 2 25.8079 87.8598 23.1007 0.0000 0.0000 0.0000
# 3 23.1006 23.1007 114.4638 0.0000 0.0000 0.0000
# 4 0.0000 0.0000 0.0000 25.4285 0.0000 0.0000
# 5 0.0000 0.0000 0.0000 0.0000 25.4289 0.0000
# 6 0.0000 0.0000 0.0000 0.0000 0.0000 19.6252
#
#
#
# Elastic Compliance Matrix: (Units=1/GPa)
#
#
# Indices 1 2 3 4 5 6 
#
# 1 0.012850 -0.003266 -0.001934 0.000000 0.000000 0.000000
# 2 -0.003266 0.012850 -0.001934 0.000000 0.000000 0.000000
# 3 -0.001934 -0.001934 0.009517 0.000000 0.000000 0.000000
# 4 0.000000 0.000000 0.000000 0.039326 0.000000 0.000000
# 5 0.000000 0.000000 0.000000 0.000000 0.039325 0.000000
# 6 0.000000 0.000000 0.000000 0.000000 0.000000 0.050955
#
#
# Mechanical properties :
#
#
# Convention : Reuss Voigt Hill
#
# Bulk Modulus (GPa) = 47.73749 48.24470 47.99109
# Shear Modulus (GPa) = 26.87114 28.64152 27.75633
#
# Velocity S-wave (km/s) = 3.74625 3.86769 3.80745
# Velocity P-wave (km/s) = 6.60644 6.71884 6.66288
#
# Compressibility (1/GPa) = 0.02094790
#
# Stress axis : x y z
#
# Youngs Moduli (GPa) = 77.82378 77.82325 105.07436
#
# Poissons Ratio (x) = 0.25416 0.20323
# Poissons Ratio (y) = 0.25416 0.20323
# Poissons Ratio (z) = 0.15052 0.15052
#
# Static dielectric constant tensor:
#      x y z
#    x 1.758920 0.000000 0.000000 
#    y 0.000000 1.758920 0.000000 
#    z 0.000000 0.000000 1.705740 
# 
# From -- ./inp_files/916.got.cif
#   From: 2010.05.17/outbox.cif.g08.bks.cpg/sg130_1_cif.got.tgz:916.got - 2010.05.20 12:17:35.
