data_PCOD9565115
_publ_section_title
;
Structure prediction by ZEFSAII (Michael W. Deem and Ramdas Pophale) SiO2 
 PCOD9565115
Probable space group: P 4/N M M
;
_chemical_formula_sum "Si O2"
_cell_formula_units_Z 112
_cell_length_a 20.391004
_cell_length_b 20.391004
_cell_length_c 17.493275
_cell_angle_alpha 90.000000
_cell_angle_beta 90.000000
_cell_angle_gamma 90.000000
_cell_volume 7273.582064
_symmetry_space_group_name_H-M "P 4/N M M"
_symmetry_group_IT_number 129
_symmetry_cell_setting 'tetragonal'
loop_
_space_group_symop_operation_xyz
x,y,z
1/2-y,x,z
1/2-x,1/2-y,z
y,1/2-x,z
1/2+x,-y,-z
-x,1/2+y,-z
1/2+y,1/2+x,-z
-y,-x,-z
-x,-y,-z
1/2+y,-x,-z
1/2+x,1/2+y,-z
-y,1/2+x,-z
1/2-x,y,z
x,1/2-y,z
1/2-y,1/2-x,z
y,x,z
loop_
_atom_site_type_symbol
_atom_site_label
_atom_site_fract_x
_atom_site_fract_y
_atom_site_fract_z
Si Si1 0.409406 0.518015 0.837347
Si Si2 0.376088 0.481605 0.116416
Si Si3 0.569109 0.825034 0.727196
Si Si4 0.898998 0.007967 0.597397
Si Si5 0.825976 0.937467 0.467562
Si Si6 0.326274 0.934120 0.978783
Si Si7 0.394799 0.506832 0.663476
O O1 0.449730 0.449730 0.847333
O O2 0.464183 0.574746 0.847752
O O3 0.356926 0.532248 0.903299
O O4 0.380509 0.521655 0.751847
O O5 0.423310 0.423310 0.087118
O O6 0.333146 0.453639 0.185458
O O7 0.336703 0.515486 0.048790
O O8 0.571824 0.750000 0.704128
O O9 0.638286 0.861715 0.718304
O O10 0.519082 0.864932 0.673888
O O11 0.960561 0.960561 0.579015
O O12 0.849247 0.992275 0.529056
O O13 0.930039 0.078232 0.616824
O O14 0.750000 0.920687 0.478049
O O15 0.874537 0.874537 0.476418
O O16 0.839885 0.969662 0.384942
O O17 0.250000 0.918210 0.969305
O O18 0.370879 0.870879 0.000000
O O19 0.456425 0.456425 0.666678
#
# Coordination Sequence:
#
# PCOD9565115 Si02
#       7
#    16  16  16  16  16  16  16
#     4   9  16  29  49  71  91 112 142 190 244 276
#     4   9  16  29  47  67  89 113 148 190 232 270
#     4  10  18  27  42  63  91 124 153 182 218 267
#     4   9  16  29  46  65  88 116 149 190 234 268
#     4  10  20  31  45  67  95 127 157 184 220 269
#     4  10  20  31  45  66  91 121 154 185 224 274
#     4   9  16  29  49  70  91 114 146 192 240 274
#
# _framework density 15.39819
#
# number of rings (size 3 to 8) (size 9 to 14) (size 15 to 20)
#    0.000    2.571    1.429    1.714    0.000    4.429 
#    0.000    0.000    0.000    2.571    0.000    0.000 
#    0.000   12.286    0.000    0.571    0.000    0.000 
#
# Total GULP energy -623697.462014 kJ/mol
# GULP energy per Si atom -5568.727339 kJ/mol
# Density = 1.536314 g / cm^3
# Si number density = 15.398190 Si / 1000 Ang^3
#
#
#
# Elastic Constant Matrix: (Units=GPa)
#
#
# Indices 1 2 3 4 5 6 
#
# 1 57.7410 15.8661 26.4641 0.0000 0.0000 0.0000
# 2 15.8661 57.7410 26.4641 0.0000 0.0000 0.0000
# 3 26.4641 26.4641 82.8275 0.0000 0.0000 0.0000
# 4 0.0000 0.0000 0.0000 8.9510 0.0000 0.0000
# 5 0.0000 0.0000 0.0000 0.0000 8.9510 0.0000
# 6 0.0000 0.0000 0.0000 0.0000 0.0000 6.8688
#
#
#
# Elastic Compliance Matrix: (Units=1/GPa)
#
#
# Indices 1 2 3 4 5 6 
#
# 1 0.020759 -0.003121 -0.005635 0.000000 0.000000 0.000000
# 2 -0.003121 0.020759 -0.005635 0.000000 0.000000 0.000000
# 3 -0.005635 -0.005635 0.015674 0.000000 0.000000 0.000000
# 4 0.000000 0.000000 0.000000 0.111719 0.000000 0.000000
# 5 0.000000 0.000000 0.000000 0.000000 0.111719 0.000000
# 6 0.000000 0.000000 0.000000 0.000000 0.000000 0.145587
#
#
# Mechanical properties :
#
#
# Convention : Reuss Voigt Hill
#
# Bulk Modulus (GPa) = 35.20085 37.32202 36.26143
# Shear Modulus (GPa) = 10.76493 13.58851 12.17672
#
# Velocity S-wave (km/s) = 2.64692 2.97387 2.81515
# Velocity P-wave (km/s) = 5.67905 6.00686 5.84526
#
# Compressibility (1/GPa) = 0.02840840
#
# Stress axis : x y z
#
# Youngs Moduli (GPa) = 48.17117 48.17117 63.79813
#
# Poissons Ratio (x) = 0.15036 0.35953
# Poissons Ratio (y) = 0.15036 0.35953
# Poissons Ratio (z) = 0.27147 0.27147
#
# Static dielectric constant tensor:
#      x y z
#    x 1.501790 0.000000 0.000000 
#    y 0.000000 1.501790 0.000000 
#    z 0.000000 0.000000 1.537080 
# 
# From -- ./inp_files/6010.got.cif
#   From: 2010.05.17/outbox.cif.g08.bks.cpg/sg129_4_cif.got.tgz:6010.got - 2010.05.20 12:12:06.
