data_PCOD9565696
_publ_section_title
;
Structure prediction by ZEFSAII (Michael W. Deem and Ramdas Pophale) SiO2 
 PCOD9565696
Probable space group: P 4/N C C
;
_chemical_formula_sum "Si O2"
_cell_formula_units_Z 116
_cell_length_a 17.326591
_cell_length_b 17.326591
_cell_length_c 17.487740
_cell_angle_alpha 90.000000
_cell_angle_beta 90.000000
_cell_angle_gamma 90.000000
_cell_volume 5250.007641
_symmetry_space_group_name_H-M "P 4/N C C"
_symmetry_group_IT_number 130
_symmetry_cell_setting 'tetragonal'
loop_
_space_group_symop_operation_xyz
x,y,z
1/2-y,x,z
1/2-x,1/2-y,z
y,1/2-x,z
1/2+x,-y,1/2-z
-x,1/2+y,1/2-z
1/2+y,1/2+x,1/2-z
-y,-x,1/2-z
-x,-y,-z
1/2+y,-x,-z
1/2+x,1/2+y,-z
-y,1/2+x,-z
1/2-x,y,1/2+z
x,1/2-y,1/2+z
1/2-y,1/2-x,1/2+z
y,x,1/2+z
loop_
_atom_site_type_symbol
_atom_site_label
_atom_site_fract_x
_atom_site_fract_y
_atom_site_fract_z
Si Si1 0.247592 0.913391 0.284938
Si Si2 0.514335 0.881039 0.932190
Si Si3 0.649681 0.203165 0.628096
Si Si4 0.283977 0.125891 0.470861
Si Si5 0.547559 0.644283 0.669234
Si Si6 0.552085 0.071265 0.563739
Si Si7 0.389276 0.490321 0.245213
Si Si8 0.250000 0.750000 0.500000
O O1 0.280103 0.854676 0.348072
O O2 0.249819 0.870148 0.203829
O O3 0.165869 0.954409 0.294743
O O4 0.309934 0.982860 0.283749
O O5 0.504825 0.864716 0.842921
O O6 0.564046 0.960342 0.940272
O O7 0.558600 0.810694 0.972065
O O8 0.439502 0.906031 0.981649
O O9 0.579473 0.148469 0.604489
O O10 0.676544 0.250144 0.555152
O O11 0.341810 0.198353 0.481229
O O12 0.297347 0.092344 0.386065
O O13 0.500725 0.585532 0.613450
O O14 0.604753 0.595105 0.721655
O O15 0.474787 0.525214 0.250000
#
# Coordination Sequence:
#
# PCOD9565696 Si02
#       8
#    16  16  16  16  16  16  16   4
#     4  10  24  41  67  92 128 171 209 275 327 379
#     4  10  21  36  61  94 123 157 208 267 324 363
#     4  10  24  43  62  84 131 175 219 255 324 389
#     4  10  22  41  63  90 131 172 208 254 320 399
#     4  10  20  42  66  92 122 165 212 263 330 377
#     4   9  19  40  60  87 117 161 207 268 308 373
#     4  12  24  36  66  98 128 159 217 270 319 388
#     4  12  28  42  60  92 124 186 212 256 312 402
#
# _framework density 22.095203999999999
#
# number of rings (size 3 to 8) (size 9 to 14) (size 15 to 20)
#    0.000    1.793    1.379    1.655    5.793    2.759 
#    4.966    0.000    0.000    1.655    0.000    0.000 
#    0.000    0.000    0.000    0.000    0.000    0.000 
#
# Total GULP energy -648526.366634 kJ/mol
# GULP energy per Si atom -5590.744540 kJ/mol
# Density = 2.204491 g / cm^3
# Si number density = 22.095204 Si / 1000 Ang^3
#
#
#
# Elastic Constant Matrix: (Units=GPa)
#
#
# Indices 1 2 3 4 5 6 
#
# 1 39.4939 3.3875 4.4975 0.0000 0.0000 0.0000
# 2 3.3875 39.4938 4.4967 0.0000 0.0000 0.0000
# 3 4.4975 4.4967 86.7568 0.0000 0.0000 0.0000
# 4 0.0000 0.0000 0.0000 19.5954 0.0000 0.0000
# 5 0.0000 0.0000 0.0000 0.0000 19.5953 0.0000
# 6 0.0000 0.0000 0.0000 0.0000 0.0000 33.2298
#
#
#
# Elastic Compliance Matrix: (Units=1/GPa)
#
#
# Indices 1 2 3 4 5 6 
#
# 1 0.025636 -0.002060 -0.001222 0.000000 0.000000 0.000000
# 2 -0.002060 0.025636 -0.001222 0.000000 0.000000 0.000000
# 3 -0.001222 -0.001222 0.011653 0.000000 0.000000 0.000000
# 4 0.000000 0.000000 0.000000 0.051032 0.000000 0.000000
# 5 0.000000 0.000000 0.000000 0.000000 0.051033 0.000000
# 6 0.000000 0.000000 0.000000 0.000000 0.000000 0.030094
#
#
# Mechanical properties :
#
#
# Convention : Reuss Voigt Hill
#
# Bulk Modulus (GPa) = 18.54674 21.16752 19.85713
# Shear Modulus (GPa) = 22.51596 24.70827 23.61212
#
# Velocity S-wave (km/s) = 3.19571 3.34767 3.27257
# Velocity P-wave (km/s) = 4.69350 4.95414 4.82558
#
# Compressibility (1/GPa) = 0.05391783
#
# Stress axis : x y z
#
# Youngs Moduli (GPa) = 39.00727 39.00728 85.81356
#
# Poissons Ratio (x) = 0.08034 0.10488
# Poissons Ratio (y) = 0.08034 0.10486
# Poissons Ratio (z) = 0.04768 0.04767
#
# Static dielectric constant tensor:
#      x y z
#    x 1.795550 0.000000 0.000000 
#    y 0.000000 1.795550 0.000000 
#    z 0.000000 0.000000 1.822180 
# 
# From -- ./inp_files/3199.got.cif
#   From: 2010.05.17/outbox.cif.g08.bks.cpg/sg130_2_cif.got.tgz:3199.got - 2010.05.20 12:17:35.
