data_PCOD9565027
_publ_section_title
;
Structure prediction by ZEFSAII (Michael W. Deem and Ramdas Pophale) SiO2 
 PCOD9565027
Probable space group: P 4/M N C
;
_chemical_formula_sum "Si O2"
_cell_formula_units_Z 88
_cell_length_a 11.910602
_cell_length_b 11.910602
_cell_length_c 32.377433
_cell_angle_alpha 90.000000
_cell_angle_beta 90.000000
_cell_angle_gamma 90.000000
_cell_volume 4593.141646
_symmetry_space_group_name_H-M "P 4/M N C"
_symmetry_group_IT_number 128
_symmetry_cell_setting 'tetragonal'
loop_
_space_group_symop_operation_xyz
x,y,z
-y,x,z
-x,-y,z
y,-x,z
1/2+x,1/2-y,1/2-z
1/2-x,1/2+y,1/2-z
1/2+y,1/2+x,1/2-z
1/2-y,1/2-x,1/2-z
-x,-y,-z
y,-x,-z
x,y,-z
-y,x,-z
1/2-x,1/2+y,1/2+z
1/2+x,1/2-y,1/2+z
1/2-y,1/2-x,1/2+z
1/2+y,1/2+x,1/2+z
loop_
_atom_site_type_symbol
_atom_site_label
_atom_site_fract_x
_atom_site_fract_y
_atom_site_fract_z
Si Si1 0.181466 0.051425 0.786293
Si Si2 0.427959 0.791207 0.220298
Si Si3 0.862131 0.122542 0.646191
Si Si4 0.323173 0.567198 0.454803
Si Si5 0.796908 0.368847 0.370942
Si Si6 0.500000 0.000000 0.162777
O O1 0.235717 0.083060 0.829976
O O2 0.074132 0.131038 0.784212
O O3 0.266041 0.039361 0.747535
O O4 0.328095 0.828095 0.250000
O O5 0.392266 0.683526 0.193227
O O6 0.447454 0.901292 0.191540
O O7 0.797665 0.233031 0.630821
O O8 0.991372 0.150878 0.634678
O O9 0.361247 0.437783 0.453375
O O10 0.269479 0.587823 0.500000
O O11 0.254869 0.594917 0.414132
O O12 0.916449 0.428643 0.365567
#
# Coordination Sequence:
#
# PCOD9565027 Si02
#       6
#    16  16  16  16  16   8
#     4  11  24  38  58  87 121 169 223 270 320 389
#     4  12  23  41  59  83 126 172 225 280 328 373
#     4  11  25  43  62  87 124 179 230 269 322 396
#     4   9  20  40  68 101 133 163 202 264 345 421
#     4  12  24  40  65  92 128 164 217 277 336 394
#     4  12  27  40  55  92 126 166 219 278 334 375
#
# _framework density 19.158998
#
# number of rings (size 3 to 8) (size 9 to 14) (size 15 to 20)
#    0.000    0.909    3.636    4.091    2.545    2.909 
#    0.000    0.455    0.000    1.091    0.000    1.273 
#    0.000    0.000    0.000    0.000    0.000    0.000 
#
# Total GULP energy -490319.493783 kJ/mol
# GULP energy per Si atom -5571.812429 kJ/mol
# Density = 1.911539 g / cm^3
# Si number density = 19.158998 Si / 1000 Ang^3
#
#
#
# Elastic Constant Matrix: (Units=GPa)
#
#
# Indices 1 2 3 4 5 6 
#
# 1 55.5211 32.0547 31.7529 0.0000 0.0000 0.0000
# 2 32.0547 55.5211 31.7529 0.0000 0.0000 0.0000
# 3 31.7529 31.7529 103.7191 0.0000 0.0000 0.0000
# 4 0.0000 0.0000 0.0000 -1.0206 0.0000 0.0000
# 5 0.0000 0.0000 0.0000 0.0000 -1.0206 0.0000
# 6 0.0000 0.0000 0.0000 0.0000 0.0000 27.5885
#
#
#
# Elastic Compliance Matrix: (Units=1/GPa)
#
#
# Indices 1 2 3 4 5 6 
#
# 1 0.028645 -0.013968 -0.004493 0.000000 0.000000 0.000000
# 2 -0.013968 0.028645 -0.004493 0.000000 0.000000 0.000000
# 3 -0.004493 -0.004493 0.012393 0.000000 0.000000 0.000000
# 4 0.000000 0.000000 0.000000 -0.979848 0.000000 0.000000
# 5 0.000000 0.000000 0.000000 0.000000 -0.979848 0.000000
# 6 0.000000 0.000000 0.000000 0.000000 0.000000 0.036247
#
#
# Mechanical properties :
#
#
# Convention : Reuss Voigt Hill
#
# Bulk Modulus (GPa) = 42.06362 45.09802 43.58082
# Shear Modulus (GPa) = -2.77788 13.05621 5.13916
#
# Velocity S-wave (km/s) = -1.20543 2.61332 1.63957
# Velocity P-wave (km/s) = 4.47943 5.71803 5.13620
#
# Compressibility (1/GPa) = 0.02377351
#
# Stress axis : x y z
#
# Youngs Moduli (GPa) = 34.90954 34.90954 80.69349
#
# Poissons Ratio (x) = 0.48763 0.36258
# Poissons Ratio (y) = 0.48763 0.36258
# Poissons Ratio (z) = 0.15686 0.15686
#
# Static dielectric constant tensor:
#      x y z
#    x 1.757150 0.000000 0.000000 
#    y 0.000000 1.757150 0.000000 
#    z 0.000000 0.000000 1.670020 
# 
# From -- ./inp_files/7270.got.cif
#   From: 2010.05.17/outbox.cif.g08.bks.cpg/sg128_4_cif.got.tgz:7270.got - 2010.05.20 12:07:25.
