data_PCOD9565280
_publ_section_title
;
Structure prediction by ZEFSAII (Michael W. Deem and Ramdas Pophale) SiO2 
 PCOD9565280
Probable space group: P 4/N M M
;
_chemical_formula_sum "Si O2"
_cell_formula_units_Z 128
_cell_length_a 18.436683
_cell_length_b 18.436683
_cell_length_c 23.103285
_cell_angle_alpha 90.000000
_cell_angle_beta 90.000000
_cell_angle_gamma 90.000000
_cell_volume 7853.067178
_symmetry_space_group_name_H-M "P 4/N M M"
_symmetry_group_IT_number 129
_symmetry_cell_setting 'tetragonal'
loop_
_space_group_symop_operation_xyz
x,y,z
1/2-y,x,z
1/2-x,1/2-y,z
y,1/2-x,z
1/2+x,-y,-z
-x,1/2+y,-z
1/2+y,1/2+x,-z
-y,-x,-z
-x,-y,-z
1/2+y,-x,-z
1/2+x,1/2+y,-z
-y,1/2+x,-z
1/2-x,y,z
x,1/2-y,z
1/2-y,1/2-x,z
y,x,z
loop_
_atom_site_type_symbol
_atom_site_label
_atom_site_fract_x
_atom_site_fract_y
_atom_site_fract_z
Si Si1 0.665331 0.549287 0.984900
Si Si2 0.335117 0.833789 0.289472
Si Si3 0.389269 0.666392 0.835887
Si Si4 0.450538 0.333044 0.153232
Si Si5 0.164972 0.907012 0.949191
Si Si6 0.665272 0.060409 0.467024
Si Si7 0.833907 0.548735 0.573479
Si Si8 0.438683 0.558874 0.359326
O O1 0.750000 0.559375 0.996283
O O2 0.620051 0.620051 0.998478
O O3 0.658372 0.535120 0.915981
O O4 0.638267 0.482009 0.022601
O O5 0.250000 0.852592 0.303883
O O6 0.346848 0.750000 0.307708
O O7 0.341159 0.839350 0.219925
O O8 0.394591 0.888942 0.315284
O O9 0.384627 0.750000 0.856856
O O10 0.472420 0.654767 0.816901
O O11 0.370971 0.615546 0.889397
O O12 0.427235 0.250000 0.162385
O O13 0.389639 0.389639 0.170631
O O14 0.250000 0.913140 0.938824
O O15 0.150573 0.849428 0.000000
O O16 0.629752 0.129752 0.500000
O O17 0.750000 0.072862 0.451950
O O18 0.613143 0.043533 0.412843
O O19 0.662200 0.994440 0.512649
O O20 0.750000 0.555274 0.590057
O O21 0.875195 0.624806 0.568922
O O22 0.879507 0.498887 0.617533
O O23 0.509858 0.509858 0.342595
#
# Coordination Sequence:
#
# PCOD9565280 Si02
#       8
#    16  16  16  16  16  16  16  16
#     4   9  18  31  46  67  92 118 149 183 223 272
#     4  10  21  36  53  72  97 130 166 207 255 304
#     4  10  20  34  48  67  94 123 155 193 240 294
#     4   9  17  30  47  67  93 122 153 189 228 275
#     4  11  20  30  46  68  92 118 149 185 228 286
#     4   9  17  29  46  71 102 134 167 204 249 295
#     4   9  17  29  46  69  97 129 163 198 237 282
#     4  10  19  32  50  71  98 131 169 209 249 295
#
# _framework density 16.299364000000001
#
# number of rings (size 3 to 8) (size 9 to 14) (size 15 to 20)
#    0.000    2.375    1.250    1.875    0.000    5.125 
#    0.000    1.250    0.000    0.000    0.000    0.000 
#    0.000    5.250    0.000    0.000    0.000    1.750 
#
# Total GULP energy -713008.715069 kJ/mol
# GULP energy per Si atom -5570.380586 kJ/mol
# Density = 1.626227 g / cm^3
# Si number density = 16.299364 Si / 1000 Ang^3
#
#
#
# Elastic Constant Matrix: (Units=GPa)
#
#
# Indices 1 2 3 4 5 6 
#
# 1 22.9433 108.3914 14.7103 0.0000 0.0000 0.0000
# 2 108.3914 22.9635 14.7124 0.0000 0.0000 0.0000
# 3 14.7103 14.7124 20.5042 0.0000 0.0000 0.0000
# 4 0.0000 0.0000 0.0000 18.3196 0.0000 0.0000
# 5 0.0000 0.0000 0.0000 0.0000 18.3196 0.0000
# 6 0.0000 0.0000 0.0000 0.0000 0.0000 39.3577
#
#
#
# Elastic Compliance Matrix: (Units=1/GPa)
#
#
# Indices 1 2 3 4 5 6 
#
# 1 -0.001317 0.010388 -0.006509 0.000000 0.000000 0.000000
# 2 0.010388 -0.001316 -0.006509 0.000000 0.000000 0.000000
# 3 -0.006509 -0.006509 0.058110 0.000000 0.000000 0.000000
# 4 0.000000 0.000000 0.000000 0.054586 0.000000 0.000000
# 5 0.000000 0.000000 0.000000 0.000000 0.054586 0.000000
# 6 0.000000 0.000000 0.000000 0.000000 0.000000 0.025408
#
#
# Mechanical properties :
#
#
# Convention : Reuss Voigt Hill
#
# Bulk Modulus (GPa) = 19.91291 38.00437 28.95864
# Shear Modulus (GPa) = 23.57864 10.43918 17.00891
#
# Velocity S-wave (km/s) = 3.80754 2.53349 3.23388
# Velocity P-wave (km/s) = 5.61902 5.65024 5.63465
#
# Compressibility (1/GPa) = 0.05021867
#
# Stress axis : x y z
#
# Youngs Moduli (GPa) = -759.11569 -760.16340 17.20867
#
# Poissons Ratio (x) = 7.89656 0.11200
# Poissons Ratio (y) = 7.88568 0.11201
# Poissons Ratio (z) = -4.94081 -4.94769
#
# Static dielectric constant tensor:
#      x y z
#    x 1.553560 0.000000 0.000000 
#    y 0.000000 1.553560 0.000000 
#    z 0.000000 0.000000 1.551510 
# 
# From -- ./inp_files/7336.got.cif
#   From: 2010.05.17/outbox.cif.g08.bks.cpg/sg129_4_cif.got.tgz:7336.got - 2010.05.20 12:12:06.
