data_PCOD9565181
_publ_section_title
;
Structure prediction by ZEFSAII (Michael W. Deem and Ramdas Pophale) SiO2 
 PCOD9565181
Probable space group: P 4/N M M
;
_chemical_formula_sum "Si O2"
_cell_formula_units_Z 104
_cell_length_a 14.193180
_cell_length_b 14.193180
_cell_length_c 33.842052
_cell_angle_alpha 90.000000
_cell_angle_beta 90.000000
_cell_angle_gamma 90.000000
_cell_volume 6817.358140
_symmetry_space_group_name_H-M "P 4/N M M"
_symmetry_group_IT_number 129
_symmetry_cell_setting 'tetragonal'
loop_
_space_group_symop_operation_xyz
x,y,z
1/2-y,x,z
1/2-x,1/2-y,z
y,1/2-x,z
1/2+x,-y,-z
-x,1/2+y,-z
1/2+y,1/2+x,-z
-y,-x,-z
-x,-y,-z
1/2+y,-x,-z
1/2+x,1/2+y,-z
-y,1/2+x,-z
1/2-x,y,z
x,1/2-y,z
1/2-y,1/2-x,z
y,x,z
loop_
_atom_site_type_symbol
_atom_site_label
_atom_site_fract_x
_atom_site_fract_y
_atom_site_fract_z
Si Si1 0.360022 0.514701 0.230495
Si Si2 0.018551 0.861755 0.078378
Si Si3 0.515395 0.363129 0.618505
Si Si4 0.135420 0.641797 0.543792
Si Si5 0.359211 0.640790 0.000000
Si Si6 0.137657 0.640705 0.694085
Si Si7 0.981685 0.138155 0.139486
O O1 0.250000 0.491743 0.234355
O O2 0.423436 0.423436 0.235985
O O3 0.384336 0.588547 0.264682
O O4 0.373857 0.548407 0.185368
O O5 0.004269 0.750000 0.084398
O O6 0.070245 0.875054 0.036185
O O7 0.088576 0.906465 0.110959
O O8 0.922740 0.922740 0.079491
O O9 0.504577 0.250000 0.617946
O O10 0.417368 0.417368 0.618539
O O11 0.575542 0.391704 0.579911
O O12 0.574278 0.389175 0.657714
O O13 0.107528 0.607528 0.500000
O O14 0.250000 0.644434 0.543076
O O15 0.103800 0.750000 0.549754
O O16 0.250000 0.630090 0.013249
O O17 0.250000 0.634794 0.698748
O O18 0.114879 0.750000 0.684678
O O19 0.992011 0.250000 0.131699
O O20 0.079606 0.079606 0.134695
#
# Coordination Sequence:
#
# PCOD9565181 Si02
#       7
#    16  16  16  16   8  16  16
#     4   9  17  29  45  66  92 118 143 173 211 259
#     4  10  20  33  49  69  94 124 157 193 230 268
#     4  10  19  29  42  60  83 112 142 171 205 246
#     4   8  14  26  44  64  84 104 129 167 212 251
#     4   9  17  30  50  74  95 117 148 186 229 275
#     4   9  17  29  45  64  84 107 139 180 221 254
#     4   9  18  31  47  69  95 122 152 185 223 268
#
# _framework density 15.255176000000001
#
# number of rings (size 3 to 8) (size 9 to 14) (size 15 to 20)
#    0.000    2.846    0.000    2.077    0.000    4.308 
#    0.000    3.077    0.000    0.000    0.000    2.154 
#    0.000    6.462    0.000    0.615    0.000    0.154 
#
# Total GULP energy -579118.661909 kJ/mol
# GULP energy per Si atom -5568.448672 kJ/mol
# Density = 1.522045 g / cm^3
# Si number density = 15.255176 Si / 1000 Ang^3
#
#
#
# Elastic Constant Matrix: (Units=GPa)
#
#
# Indices 1 2 3 4 5 6 
#
# 1 72.9225 49.9404 59.5702 0.0000 0.0000 0.0000
# 2 49.9404 72.9229 59.5702 0.0000 0.0000 0.0000
# 3 59.5702 59.5702 106.1886 0.0000 0.0000 0.0000
# 4 0.0000 0.0000 0.0000 17.6326 0.0000 0.0000
# 5 0.0000 0.0000 0.0000 0.0000 17.6326 0.0000
# 6 0.0000 0.0000 0.0000 0.0000 0.0000 19.7927
#
#
#
# Elastic Compliance Matrix: (Units=1/GPa)
#
#
# Indices 1 2 3 4 5 6 
#
# 1 0.030680 -0.012832 -0.010013 0.000000 0.000000 0.000000
# 2 -0.012832 0.030680 -0.010013 0.000000 0.000000 0.000000
# 3 -0.010013 -0.010013 0.020651 0.000000 0.000000 0.000000
# 4 0.000000 0.000000 0.000000 0.056713 0.000000 0.000000
# 5 0.000000 0.000000 0.000000 0.000000 0.056713 0.000000
# 6 0.000000 0.000000 0.000000 0.000000 0.000000 0.050524
#
#
# Mechanical properties :
#
#
# Convention : Reuss Voigt Hill
#
# Bulk Modulus (GPa) = 61.36009 65.57729 63.46869
# Shear Modulus (GPa) = 15.76749 16.54178 16.15464
#
# Velocity S-wave (km/s) = 3.21843 3.29650 3.25770
# Velocity P-wave (km/s) = 7.35669 7.58745 7.47296
#
# Compressibility (1/GPa) = 0.01629724
#
# Stress axis : x y z
#
# Youngs Moduli (GPa) = 32.59423 32.59456 48.42336
#
# Poissons Ratio (x) = 0.41824 0.48485
# Poissons Ratio (y) = 0.41824 0.48485
# Poissons Ratio (z) = 0.32636 0.32636
#
# Static dielectric constant tensor:
#      x y z
#    x 1.488120 0.000000 0.000000 
#    y 0.000000 1.488120 0.000000 
#    z 0.000000 0.000000 1.517050 
# 
# From -- ./inp_files/7897.got.cif
#   From: 2010.05.17/outbox.cif.g08.bks.cpg/sg129_4_cif.got.tgz:7897.got - 2010.05.20 12:12:06.
