data_PCOD9565600
_publ_section_title
;
Structure prediction by ZEFSAII (Michael W. Deem and Ramdas Pophale) SiO2 
 PCOD9565600
Probable space group: P 4/N C C
;
_chemical_formula_sum "Si O2"
_cell_formula_units_Z 64
_cell_length_a 14.121569
_cell_length_b 14.121569
_cell_length_c 14.763016
_cell_angle_alpha 90.000000
_cell_angle_beta 90.000000
_cell_angle_gamma 90.000000
_cell_volume 2944.021622
_symmetry_space_group_name_H-M "P 4/N C C"
_symmetry_group_IT_number 130
_symmetry_cell_setting 'tetragonal'
loop_
_space_group_symop_operation_xyz
x,y,z
1/2-y,x,z
1/2-x,1/2-y,z
y,1/2-x,z
1/2+x,-y,1/2-z
-x,1/2+y,1/2-z
1/2+y,1/2+x,1/2-z
-y,-x,1/2-z
-x,-y,-z
1/2+y,-x,-z
1/2+x,1/2+y,-z
-y,1/2+x,-z
1/2-x,y,1/2+z
x,1/2-y,1/2+z
1/2-y,1/2-x,1/2+z
y,x,1/2+z
loop_
_atom_site_type_symbol
_atom_site_label
_atom_site_fract_x
_atom_site_fract_y
_atom_site_fract_z
Si Si1 0.250000 0.250000 0.921632
Si Si2 0.106495 0.112331 0.504895
Si Si3 0.598468 0.397835 0.060897
Si Si4 0.157505 0.127403 0.215783
Si Si5 0.525711 0.025711 0.750000
Si Si6 0.250000 0.750000 0.000000
O O1 0.323443 0.160753 0.935536
O O2 0.123880 0.152715 0.606076
O O3 0.997420 0.131302 0.481354
O O4 0.124973 0.999798 0.509303
O O5 0.566364 0.421909 0.162436
O O6 0.676330 0.316357 0.054383
O O7 0.267221 0.122489 0.242415
O O8 0.085542 0.049598 0.252939
#
# Coordination Sequence:
#
# PCOD9565600 Si02
#       6
#     4  16  16  16   8   4
#     4  12  16  32  68  98 112 148 212 282 304 360
#     4  10  19  38  66  93 118 167 218 266 314 381
#     4  10  24  42  63  91 133 170 217 266 324 393
#     4  10  19  40  67  93 125 175 213 262 325 393
#     4  10  24  45  60  95 140 166 208 274 340 377
#     4  12  24  42  68  96 124 178 228 268 316 406
#
# _framework density 21.738969999999998
#
# number of rings (size 3 to 8) (size 9 to 14) (size 15 to 20)
#    0.000    1.750    2.500    1.500    3.500    0.500 
#   18.000    0.000    0.000    0.000    0.000    0.000 
#    0.000    0.000    0.000    0.000    0.000    0.000 
#
# Total GULP energy -356995.528395 kJ/mol
# GULP energy per Si atom -5578.055131 kJ/mol
# Density = 2.168949 g / cm^3
# Si number density = 21.738970 Si / 1000 Ang^3
#
#
#
# Elastic Constant Matrix: (Units=GPa)
#
#
# Indices 1 2 3 4 5 6 
#
# 1 120.0557 70.6512 22.8200 0.0000 0.0000 0.0000
# 2 70.6512 120.0557 22.8200 0.0000 0.0000 0.0000
# 3 22.8200 22.8200 62.6283 0.0000 0.0000 0.0000
# 4 0.0000 0.0000 0.0000 11.6107 0.0000 0.0000
# 5 0.0000 0.0000 0.0000 0.0000 11.6107 0.0000
# 6 0.0000 0.0000 0.0000 0.0000 0.0000 48.4796
#
#
#
# Elastic Compliance Matrix: (Units=1/GPa)
#
#
# Indices 1 2 3 4 5 6 
#
# 1 0.012993 -0.007248 -0.002093 0.000000 0.000000 0.000000
# 2 -0.007248 0.012993 -0.002093 0.000000 0.000000 0.000000
# 3 -0.002093 -0.002093 0.017493 0.000000 0.000000 0.000000
# 4 0.000000 0.000000 0.000000 0.086128 0.000000 0.000000
# 5 0.000000 0.000000 0.000000 0.000000 0.086128 0.000000
# 6 0.000000 0.000000 0.000000 0.000000 0.000000 0.020627
#
#
# Mechanical properties :
#
#
# Convention : Reuss Voigt Hill
#
# Bulk Modulus (GPa) = 48.52222 59.48023 54.00123
# Shear Modulus (GPa) = 18.78997 26.77010 22.78004
#
# Velocity S-wave (km/s) = 2.94316 3.51299 3.24062
# Velocity P-wave (km/s) = 5.82396 6.62384 6.23674
#
# Compressibility (1/GPa) = 0.02060911
#
# Stress axis : x y z
#
# Youngs Moduli (GPa) = 76.96564 76.96564 57.16704
#
# Poissons Ratio (x) = 0.55786 0.11966
# Poissons Ratio (y) = 0.55786 0.11966
# Poissons Ratio (z) = 0.16110 0.16110
#
# Static dielectric constant tensor:
#      x y z
#    x 1.849150 0.000000 0.000000 
#    y 0.000000 1.849150 0.000000 
#    z 0.000000 0.000000 1.874250 
# 
# From -- ./inp_files/2887.got.cif
#   From: 2010.05.17/outbox.cif.g08.bks.cpg/sg130_2_cif.got.tgz:2887.got - 2010.05.20 12:17:35.
