data_PCOD9565840
_publ_section_title
;
Structure prediction by ZEFSAII (Michael W. Deem and Ramdas Pophale) SiO2 
 PCOD9565840
Probable space group: P 4/N C C
;
_chemical_formula_sum "Si O2"
_cell_formula_units_Z 72
_cell_length_a 16.546285
_cell_length_b 16.546285
_cell_length_c 11.208847
_cell_angle_alpha 90.000000
_cell_angle_beta 90.000000
_cell_angle_gamma 90.000000
_cell_volume 3068.753057
_symmetry_space_group_name_H-M "P 4/N C C"
_symmetry_group_IT_number 130
_symmetry_cell_setting 'tetragonal'
loop_
_space_group_symop_operation_xyz
x,y,z
1/2-y,x,z
1/2-x,1/2-y,z
y,1/2-x,z
1/2+x,-y,1/2-z
-x,1/2+y,1/2-z
1/2+y,1/2+x,1/2-z
-y,-x,1/2-z
-x,-y,-z
1/2+y,-x,-z
1/2+x,1/2+y,-z
-y,1/2+x,-z
1/2-x,y,1/2+z
x,1/2-y,1/2+z
1/2-y,1/2-x,1/2+z
y,x,1/2+z
loop_
_atom_site_type_symbol
_atom_site_label
_atom_site_fract_x
_atom_site_fract_y
_atom_site_fract_z
Si Si1 0.993542 0.845490 0.827221
Si Si2 0.244229 0.548231 0.874800
Si Si3 0.391846 0.908807 0.536874
Si Si4 0.119344 0.215684 0.978078
Si Si5 0.013059 0.513059 0.750000
O O1 0.918814 0.802326 0.891375
O O2 0.048654 0.783856 0.754217
O O3 0.971359 0.917313 0.736438
O O4 0.046122 0.888792 0.929540
O O5 0.177132 0.615332 0.896949
O O6 0.311574 0.557342 0.977527
O O7 0.207182 0.458018 0.891461
O O8 0.434192 0.964101 0.635208
O O9 0.194257 0.154954 0.962627
#
# Coordination Sequence:
#
# PCOD9565840 Si02
#       5
#    16  16  16  16   8
#     4  11  24  43  71 103 143 184 248 307 360 441
#     4  11  25  44  71 101 142 185 242 308 369 446
#     4  11  26  44  70 107 138 191 244 301 373 443
#     4  10  24  42  65 102 146 187 236 298 374 442
#     4  12  24  42  78 103 141 194 246 298 370 450
#
# _framework density 23.462298000000001
#
# number of rings (size 3 to 8) (size 9 to 14) (size 15 to 20)
#    0.000    1.111    2.222    2.000   15.556    0.444 
#    0.000    2.222    0.000    0.000    0.000    0.000 
#    0.000    0.000    0.000    0.000    0.000    0.000 
#
# Total GULP energy -402729.015921 kJ/mol
# GULP energy per Si atom -5593.458554 kJ/mol
# Density = 2.340890 g / cm^3
# Si number density = 23.462298 Si / 1000 Ang^3
#
#
#
# Elastic Constant Matrix: (Units=GPa)
#
#
# Indices 1 2 3 4 5 6 
#
# 1 74.2934 11.4927 7.6438 0.0000 0.0000 0.0000
# 2 11.4927 74.2934 7.6438 0.0000 0.0000 0.0000
# 3 7.6438 7.6438 67.2007 0.0000 0.0000 0.0000
# 4 0.0000 0.0000 0.0000 36.5712 0.0000 0.0000
# 5 0.0000 0.0000 0.0000 0.0000 36.5712 0.0000
# 6 0.0000 0.0000 0.0000 0.0000 0.0000 34.6884
#
#
#
# Elastic Compliance Matrix: (Units=1/GPa)
#
#
# Indices 1 2 3 4 5 6 
#
# 1 0.013911 -0.002013 -0.001353 0.000000 0.000000 0.000000
# 2 -0.002013 0.013911 -0.001353 0.000000 0.000000 0.000000
# 3 -0.001353 -0.001353 0.015189 0.000000 0.000000 0.000000
# 4 0.000000 0.000000 0.000000 0.027344 0.000000 0.000000
# 5 0.000000 0.000000 0.000000 0.000000 0.027344 0.000000
# 6 0.000000 0.000000 0.000000 0.000000 0.000000 0.028828
#
#
# Mechanical properties :
#
#
# Convention : Reuss Voigt Hill
#
# Bulk Modulus (GPa) = 29.78726 29.92757 29.85742
# Shear Modulus (GPa) = 33.97771 34.16663 34.07217
#
# Velocity S-wave (km/s) = 3.80963 3.82021 3.81492
# Velocity P-wave (km/s) = 5.66343 5.67820 5.67082
#
# Compressibility (1/GPa) = 0.03357140
#
# Stress axis : x y z
#
# Youngs Moduli (GPa) = 71.88698 71.88698 65.83849
#
# Poissons Ratio (x) = 0.14468 0.08910
# Poissons Ratio (y) = 0.14468 0.08910
# Poissons Ratio (z) = 0.09729 0.09729
#
# Static dielectric constant tensor:
#      x y z
#    x 1.901610 0.000000 0.000000 
#    y 0.000000 1.901610 0.000000 
#    z 0.000000 0.000000 1.932290 
# 
# From -- ./inp_files/1619.got.cif
#   From: 2010.05.17/outbox.cif.g08.bks.cpg/sg130_1_cif.got.tgz:1619.got - 2010.05.20 12:17:35.
