data_PCOD9565146
_publ_section_title
;
Structure prediction by ZEFSAII (Michael W. Deem and Ramdas Pophale) SiO2 
 PCOD9565146
Probable space group: P 4/N M M
;
_chemical_formula_sum "Si O2"
_cell_formula_units_Z 96
_cell_length_a 24.655339
_cell_length_b 24.655339
_cell_length_c 10.132442
_cell_angle_alpha 90.000000
_cell_angle_beta 90.000000
_cell_angle_gamma 90.000000
_cell_volume 6159.367015
_symmetry_space_group_name_H-M "P 4/N M M"
_symmetry_group_IT_number 129
_symmetry_cell_setting 'tetragonal'
loop_
_space_group_symop_operation_xyz
x,y,z
1/2-y,x,z
1/2-x,1/2-y,z
y,1/2-x,z
1/2+x,-y,-z
-x,1/2+y,-z
1/2+y,1/2+x,-z
-y,-x,-z
-x,-y,-z
1/2+y,-x,-z
1/2+x,1/2+y,-z
-y,1/2+x,-z
1/2-x,y,z
x,1/2-y,z
1/2-y,1/2-x,z
y,x,z
loop_
_atom_site_type_symbol
_atom_site_label
_atom_site_fract_x
_atom_site_fract_y
_atom_site_fract_z
Si Si1 0.473284 0.688932 0.217439
Si Si2 0.023454 0.568646 0.136095
Si Si3 0.870602 0.307623 0.397760
Si Si4 0.309422 0.993390 0.467343
Si Si5 0.425035 0.983461 0.382861
Si Si6 0.312263 0.846527 0.856964
O O1 0.492851 0.750000 0.175168
O O2 0.492475 0.632058 0.152331
O O3 0.484497 0.685754 0.374674
O O4 0.409183 0.688448 0.187193
O O5 0.066116 0.551617 0.250633
O O6 0.970540 0.529461 0.148690
O O7 0.052864 0.552864 0.000000
O O8 0.852426 0.352426 0.500000
O O9 0.851321 0.250000 0.454307
O O10 0.934844 0.306758 0.397859
O O11 0.845786 0.316015 0.255009
O O12 0.250000 0.020170 0.443910
O O13 0.367411 0.011990 0.411942
O O14 0.443000 0.943000 0.500000
O O15 0.469558 0.030443 0.377750
O O16 0.250000 0.827374 0.861478
O O17 0.338266 0.838266 0.000000
#
# Coordination Sequence:
#
# PCOD9565146 Si02
#       6
#    16  16  16  16  16  16
#     4  10  19  32  48  66  89 118 150 184 228 280
#     4  10  20  33  50  73  98 123 153 196 240 276
#     4  11  20  30  43  56  73 104 142 181 223 263
#     4  10  19  31  47  67  91 114 145 190 232 273
#     4  10  18  30  51  72  91 119 154 190 230 279
#     4  11  22  33  42  55  78 109 145 188 230 264
#
# _framework density 15.586017999999999
#
# number of rings (size 3 to 8) (size 9 to 14) (size 15 to 20)
#    0.000    1.667    3.333    3.000    0.000    2.000 
#    0.000    2.500    0.000    0.000    0.000    0.000 
#    0.000    0.667    0.000    3.667    0.000    9.333 
#
# Total GULP energy -534593.286996 kJ/mol
# GULP energy per Si atom -5568.680073 kJ/mol
# Density = 1.555054 g / cm^3
# Si number density = 15.586018 Si / 1000 Ang^3
#
#
#
# Elastic Constant Matrix: (Units=GPa)
#
#
# Indices 1 2 3 4 5 6 
#
# 1 70.0704 11.9240 17.9414 0.0000 0.0000 0.0000
# 2 11.9240 70.0704 17.9414 0.0000 0.0000 0.0000
# 3 17.9414 17.9414 78.8667 0.0000 0.0000 0.0000
# 4 0.0000 0.0000 0.0000 13.6959 0.0000 0.0000
# 5 0.0000 0.0000 0.0000 0.0000 13.6959 0.0000
# 6 0.0000 0.0000 0.0000 0.0000 0.0000 10.6011
#
#
#
# Elastic Compliance Matrix: (Units=1/GPa)
#
#
# Indices 1 2 3 4 5 6 
#
# 1 0.015371 -0.001827 -0.003081 0.000000 0.000000 0.000000
# 2 -0.001827 0.015371 -0.003081 0.000000 0.000000 0.000000
# 3 -0.003081 -0.003081 0.014082 0.000000 0.000000 0.000000
# 4 0.000000 0.000000 0.000000 0.073015 0.000000 0.000000
# 5 0.000000 0.000000 0.000000 0.000000 0.073015 0.000000
# 6 0.000000 0.000000 0.000000 0.000000 0.000000 0.094330
#
#
# Mechanical properties :
#
#
# Convention : Reuss Voigt Hill
#
# Bulk Modulus (GPa) = 34.66753 34.95787 34.81270
# Shear Modulus (GPa) = 16.08874 19.01196 17.55035
#
# Velocity S-wave (km/s) = 3.21636 3.49636 3.35928
# Velocity P-wave (km/s) = 6.00702 6.22713 6.11806
#
# Compressibility (1/GPa) = 0.02884543
#
# Stress axis : x y z
#
# Youngs Moduli (GPa) = 65.05687 65.05687 71.01509
#
# Poissons Ratio (x) = 0.11885 0.21881
# Poissons Ratio (y) = 0.11885 0.21881
# Poissons Ratio (z) = 0.20045 0.20045
#
# Static dielectric constant tensor:
#      x y z
#    x 1.548950 0.000000 0.000000 
#    y 0.000000 1.548950 0.000000 
#    z 0.000000 0.000000 1.521480 
# 
# From -- ./inp_files/2805.got.cif
#   From: 2010.05.17/outbox.cif.g08.bks.cpg/sg129_2_cif.got.tgz:2805.got - 2010.05.20 12:12:06.
