data_PCOD9565312
_publ_section_title
;
Structure prediction by ZEFSAII (Michael W. Deem and Ramdas Pophale) SiO2 
 PCOD9565312
Probable space group: P 4/N M M
;
_chemical_formula_sum "Si O2"
_cell_formula_units_Z 58
_cell_length_a 17.667038
_cell_length_b 17.667038
_cell_length_c 8.356252
_cell_angle_alpha 90.000000
_cell_angle_beta 90.000000
_cell_angle_gamma 90.000000
_cell_volume 2608.188735
_symmetry_space_group_name_H-M "P 4/N M M"
_symmetry_group_IT_number 129
_symmetry_cell_setting 'tetragonal'
loop_
_space_group_symop_operation_xyz
x,y,z
1/2-y,x,z
1/2-x,1/2-y,z
y,1/2-x,z
1/2+x,-y,-z
-x,1/2+y,-z
1/2+y,1/2+x,-z
-y,-x,-z
-x,-y,-z
1/2+y,-x,-z
1/2+x,1/2+y,-z
-y,1/2+x,-z
1/2-x,y,z
x,1/2-y,z
1/2-y,1/2-x,z
y,x,z
loop_
_atom_site_type_symbol
_atom_site_label
_atom_site_fract_x
_atom_site_fract_y
_atom_site_fract_z
Si Si1 0.483312 0.660333 0.673755
Si Si2 0.663689 0.663689 0.143254
Si Si3 0.250000 0.250000 0.362221
Si Si4 0.560634 0.939367 0.940565
Si Si5 0.834423 0.158150 0.184360
Si Si6 0.368408 0.131593 0.494190
O O1 0.480768 0.750000 0.690544
O O2 0.521259 0.622295 0.827904
O O3 0.396571 0.632692 0.687573
O O4 0.542038 0.643721 0.532108
O O5 0.750000 0.646997 0.091443
O O6 0.659562 0.659562 0.334556
O O7 0.604194 0.604194 0.078818
O O8 0.317275 0.182726 0.373645
O O9 0.500000 0.000000 0.000000
O O10 0.750000 0.127831 0.213493
O O11 0.829564 0.250000 0.190264
O O12 0.858055 0.141946 0.000000
#
# Coordination Sequence:
#
# PCOD9565312 Si02
#       6
#    16   8   2   8  16   8
#     4  10  19  33  54  86 121 159 202 251 308 370
#     4  11  21  41  67  95 123 166 218 266 316 383
#     4  12  16  36  56  90 132 168 208 254 324 400
#     4  11  24  37  52  84 125 157 198 259 321 375
#     4   8  14  26  47  75 108 149 199 254 309 364
#     4  11  20  34  61  92 128 166 209 259 317 388
#
# _framework density 22.237653999999999
#
# number of rings (size 3 to 8) (size 9 to 14) (size 15 to 20)
#    0.000    2.069    2.759    2.483    0.000    0.000 
#    0.000    4.138    0.000    0.000    0.000    5.793 
#    0.000   15.448    0.000    0.000    0.000    0.000 
#
# Total GULP energy -323197.682316 kJ/mol
# GULP energy per Si atom -5572.373833 kJ/mol
# Density = 2.218704 g / cm^3
# Si number density = 22.237654 Si / 1000 Ang^3
#
#
#
# Elastic Constant Matrix: (Units=GPa)
#
#
# Indices 1 2 3 4 5 6 
#
# 1 121.0605 13.8519 20.7695 0.0000 0.0000 0.0000
# 2 13.8519 121.0587 20.7698 0.0000 0.0000 0.0000
# 3 20.7695 20.7698 27.5271 0.0000 0.0000 0.0000
# 4 0.0000 0.0000 0.0000 47.1815 0.0000 0.0000
# 5 0.0000 0.0000 0.0000 0.0000 47.1825 0.0000
# 6 0.0000 0.0000 0.0000 0.0000 0.0000 34.0875
#
#
#
# Elastic Compliance Matrix: (Units=1/GPa)
#
#
# Indices 1 2 3 4 5 6 
#
# 1 0.009491 0.000164 -0.007285 0.000000 0.000000 0.000000
# 2 0.000164 0.009492 -0.007285 0.000000 0.000000 0.000000
# 3 -0.007285 -0.007285 0.047321 0.000000 0.000000 0.000000
# 4 0.000000 0.000000 0.000000 0.021195 0.000000 0.000000
# 5 0.000000 0.000000 0.000000 0.000000 0.021194 0.000000
# 6 0.000000 0.000000 0.000000 0.000000 0.000000 0.029336
#
#
# Mechanical properties :
#
#
# Convention : Reuss Voigt Hill
#
# Bulk Modulus (GPa) = 26.67266 42.26984 34.47125
# Shear Modulus (GPa) = 27.88004 39.97399 33.92702
#
# Velocity S-wave (km/s) = 3.54465 4.24439 3.91020
# Velocity P-wave (km/s) = 5.36406 6.56272 5.99343
#
# Compressibility (1/GPa) = 0.03749157
#
# Stress axis : x y z
#
# Youngs Moduli (GPa) = 105.35825 105.35601 21.13209
#
# Poissons Ratio (x) = -0.01726 0.15395
# Poissons Ratio (y) = -0.01726 0.15395
# Poissons Ratio (z) = 0.76754 0.76755
#
# Static dielectric constant tensor:
#      x y z
#    x 1.846950 0.000000 0.000000 
#    y 0.000000 1.846950 0.000000 
#    z 0.000000 0.000000 1.853700 
# 
# From -- ./inp_files/1829.got.cif
#   From: 2010.05.17/outbox.cif.g08.bks.cpg/sg129_1_cif.got.tgz:1829.got - 2010.05.20 12:12:06.
