data_PCOD9565242
_publ_section_title
;
Structure prediction by ZEFSAII (Michael W. Deem and Ramdas Pophale) SiO2 
 PCOD9565242
Probable space group: P 4/N M M
;
_chemical_formula_sum "Si O2"
_cell_formula_units_Z 128
_cell_length_a 18.432730
_cell_length_b 18.432730
_cell_length_c 22.233325
_cell_angle_alpha 90.000000
_cell_angle_beta 90.000000
_cell_angle_gamma 90.000000
_cell_volume 7554.117569
_symmetry_space_group_name_H-M "P 4/N M M"
_symmetry_group_IT_number 129
_symmetry_cell_setting 'tetragonal'
loop_
_space_group_symop_operation_xyz
x,y,z
1/2-y,x,z
1/2-x,1/2-y,z
y,1/2-x,z
1/2+x,-y,-z
-x,1/2+y,-z
1/2+y,1/2+x,-z
-y,-x,-z
-x,-y,-z
1/2+y,-x,-z
1/2+x,1/2+y,-z
-y,1/2+x,-z
1/2-x,y,z
x,1/2-y,z
1/2-y,1/2-x,z
y,x,z
loop_
_atom_site_type_symbol
_atom_site_label
_atom_site_fract_x
_atom_site_fract_y
_atom_site_fract_z
Si Si1 0.554495 0.437409 0.254986
Si Si2 0.330582 0.898279 0.556700
Si Si3 0.834002 0.165361 0.815122
Si Si4 0.981847 0.401698 0.379417
Si Si5 0.949329 0.668119 0.120721
Si Si6 0.667545 0.947063 0.266380
Si Si7 0.602875 0.334408 0.941708
Si Si8 0.447746 0.330476 0.489937
O O1 0.494084 0.494084 0.227817
O O2 0.603829 0.385075 0.214219
O O3 0.515534 0.392811 0.307837
O O4 0.613094 0.490504 0.287488
O O5 0.345518 0.845518 0.500000
O O6 0.250000 0.886041 0.582013
O O7 0.398865 0.892162 0.600391
O O8 0.334242 0.979234 0.529138
O O9 0.750000 0.158721 0.796463
O O10 0.858060 0.250000 0.802435
O O11 0.840793 0.156306 0.887056
O O12 0.019333 0.480668 0.391945
O O13 0.027395 0.347920 0.421611
O O14 0.927925 0.750000 0.104798
O O15 0.889276 0.610725 0.103033
O O16 0.956196 0.666415 0.193420
O O17 0.025353 0.651820 0.089313
O O18 0.750000 0.952947 0.287338
O O19 0.629893 0.870107 0.279899
O O20 0.605556 0.250000 0.960066
O O21 0.618483 0.381517 0.000000
O O22 0.417259 0.250000 0.494411
O O23 0.391084 0.391084 0.509062
#
# Coordination Sequence:
#
# PCOD9565242 Si02
#       8
#    16  16  16  16  16  16  16  16
#     4  10  19  31  48  68  93 123 155 194 235 274
#     4   9  17  29  45  66  92 122 154 190 227 266
#     4  10  20  33  49  69  95 126 156 190 236 288
#     4   9  18  31  47  67  89 120 158 189 222 268
#     4   9  17  29  45  66  92 121 151 185 225 268
#     4   9  16  27  43  62  88 120 151 184 220 258
#     4  10  19  31  47  67  91 119 153 192 232 279
#     4   9  17  30  48  68  91 116 144 184 229 271
#
# _framework density 16.944400999999999
#
# number of rings (size 3 to 8) (size 9 to 14) (size 15 to 20)
#    0.000    2.625    1.250    1.125    0.000    4.375 
#    0.000    1.250    0.000    0.000    0.000    0.000 
#    0.000    3.250    0.000    0.000    0.000    1.125 
#
# Total GULP energy -712728.835915 kJ/mol
# GULP energy per Si atom -5568.194031 kJ/mol
# Density = 1.690584 g / cm^3
# Si number density = 16.944401 Si / 1000 Ang^3
#
#
#
# Elastic Constant Matrix: (Units=GPa)
#
#
# Indices 1 2 3 4 5 6 
#
# 1 48.8690 14.9406 -6.3054 0.0000 0.0000 0.0000
# 2 14.9406 48.8690 -6.3054 0.0000 0.0000 0.0000
# 3 -6.3054 -6.3054 13.0501 0.0000 0.0000 0.0000
# 4 0.0000 0.0000 0.0000 12.0365 0.0000 0.0000
# 5 0.0000 0.0000 0.0000 0.0000 12.0365 0.0000
# 6 0.0000 0.0000 0.0000 0.0000 0.0000 18.1251
#
#
#
# Elastic Compliance Matrix: (Units=1/GPa)
#
#
# Indices 1 2 3 4 5 6 
#
# 1 0.023400 -0.006074 0.008371 0.000000 0.000000 0.000000
# 2 -0.006074 0.023400 0.008371 0.000000 0.000000 0.000000
# 3 0.008371 0.008371 0.084718 0.000000 0.000000 0.000000
# 4 0.000000 0.000000 0.000000 0.083081 0.000000 0.000000
# 5 0.000000 0.000000 0.000000 0.000000 0.083081 0.000000
# 6 0.000000 0.000000 0.000000 0.000000 0.000000 0.055172
#
#
# Mechanical properties :
#
#
# Convention : Reuss Voigt Hill
#
# Bulk Modulus (GPa) = 6.54211 12.82751 9.68481
# Shear Modulus (GPa) = 13.07310 15.67017 14.37163
#
# Velocity S-wave (km/s) = 2.78065 3.04435 2.91549
# Velocity P-wave (km/s) = 3.76546 4.46589 4.13055
#
# Compressibility (1/GPa) = 0.15285583
#
# Stress axis : x y z
#
# Youngs Moduli (GPa) = 42.73513 42.73513 11.80392
#
# Poissons Ratio (x) = 0.25957 -0.09882
# Poissons Ratio (y) = 0.25957 -0.09882
# Poissons Ratio (z) = -0.35776 -0.35776
#
# Static dielectric constant tensor:
#      x y z
#    x 1.589210 0.000000 0.000000 
#    y 0.000000 1.589210 0.000000 
#    z 0.000000 0.000000 1.584020 
# 
# From -- ./inp_files/7298.got.cif
#   From: 2010.05.17/outbox.cif.g08.bks.cpg/sg129_4_cif.got.tgz:7298.got - 2010.05.20 12:12:06.
