data_PCOD9565434
_publ_section_title
;
Structure prediction by ZEFSAII (Michael W. Deem and Ramdas Pophale) SiO2 
 PCOD9565434
Probable space group: P 4/N M M
;
_chemical_formula_sum "Si O2"
_cell_formula_units_Z 64
_cell_length_a 19.669825
_cell_length_b 19.669825
_cell_length_c 8.045389
_cell_angle_alpha 90.000000
_cell_angle_beta 90.000000
_cell_angle_gamma 90.000000
_cell_volume 3112.777220
_symmetry_space_group_name_H-M "P 4/N M M"
_symmetry_group_IT_number 129
_symmetry_cell_setting 'tetragonal'
loop_
_space_group_symop_operation_xyz
x,y,z
1/2-y,x,z
1/2-x,1/2-y,z
y,1/2-x,z
1/2+x,-y,-z
-x,1/2+y,-z
1/2+y,1/2+x,-z
-y,-x,-z
-x,-y,-z
1/2+y,-x,-z
1/2+x,1/2+y,-z
-y,1/2+x,-z
1/2-x,y,z
x,1/2-y,z
1/2-y,1/2-x,z
y,x,z
loop_
_atom_site_type_symbol
_atom_site_label
_atom_site_fract_x
_atom_site_fract_y
_atom_site_fract_z
Si Si1 0.831114 0.945617 0.862492
Si Si2 0.472051 0.830281 0.189324
Si Si3 0.886887 0.498449 0.529497
Si Si4 0.673413 0.177840 0.198370
O O1 0.750000 0.931359 0.874882
O O2 0.877645 0.877645 0.852179
O O3 0.844948 0.991368 0.698734
O O4 0.854280 0.987566 0.026970
O O5 0.462692 0.750000 0.161941
O O6 0.509168 0.843264 0.362797
O O7 0.395900 0.859032 0.214124
O O8 0.929410 0.429410 0.500000
O O9 0.943538 0.556463 0.537322
O O10 0.750000 0.176085 0.273078
O O11 0.641225 0.250000 0.253036
O O12 0.681659 0.181659 0.000000
#
# Coordination Sequence:
#
# PCOD9565434 Si02
#       4
#    16  16  16  16
#     4  10  22  40  63  91 121 157 204 257 315 375
#     4  10  20  35  59  86 115 155 196 240 296 354
#     4  10  22  38  56  81 115 153 196 246 296 359
#     4   8  15  28  47  74 108 147 189 231 279 337
#
# _framework density 20.560419
#
# number of rings (size 3 to 8) (size 9 to 14) (size 15 to 20)
#    0.000    2.500    0.000    2.250    3.500    0.250 
#    0.000    5.000    0.000    1.500    0.000   10.500 
#    0.000    0.000    0.000    0.000    0.000    0.000 
#
# Total GULP energy -356330.485571 kJ/mol
# GULP energy per Si atom -5567.663837 kJ/mol
# Density = 2.051362 g / cm^3
# Si number density = 20.560419 Si / 1000 Ang^3
#
#
#
# Elastic Constant Matrix: (Units=GPa)
#
#
# Indices 1 2 3 4 5 6 
#
# 1 80.1043 44.3695 48.8367 0.0000 0.0000 0.0000
# 2 44.3695 80.1043 48.8367 0.0000 0.0000 0.0000
# 3 48.8367 48.8367 135.1389 0.0000 0.0000 0.0000
# 4 0.0000 0.0000 0.0000 20.0960 0.0000 0.0000
# 5 0.0000 0.0000 0.0000 0.0000 20.0960 0.0000
# 6 0.0000 0.0000 0.0000 0.0000 0.0000 -169.9796
#
#
#
# Elastic Compliance Matrix: (Units=1/GPa)
#
#
# Indices 1 2 3 4 5 6 
#
# 1 0.019599 -0.008385 -0.004052 0.000000 0.000000 0.000000
# 2 -0.008385 0.019599 -0.004052 0.000000 0.000000 0.000000
# 3 -0.004052 -0.004052 0.010329 0.000000 0.000000 0.000000
# 4 0.000000 0.000000 0.000000 0.049761 0.000000 0.000000
# 5 0.000000 0.000000 0.000000 0.000000 0.049761 0.000000
# 6 0.000000 0.000000 0.000000 0.000000 0.000000 -0.005883
#
#
# Mechanical properties :
#
#
# Convention : Reuss Voigt Hill
#
# Bulk Modulus (GPa) = 60.43592 64.38151 62.40871
# Shear Modulus (GPa) = 27.52379 -15.73721 5.89329
#
# Velocity S-wave (km/s) = 3.66276 -2.76961 1.69486
# Velocity P-wave (km/s) = 6.88084 4.59931 5.85233
#
# Compressibility (1/GPa) = 0.01654645
#
# Stress axis : x y z
#
# Youngs Moduli (GPa) = 51.02349 51.02349 96.81713
#
# Poissons Ratio (x) = 0.42784 0.39235
# Poissons Ratio (y) = 0.42784 0.39235
# Poissons Ratio (z) = 0.20677 0.20677
#
# Static dielectric constant tensor:
#      x y z
#    x 1.775620 0.000000 0.000000 
#    y 0.000000 1.775620 0.000000 
#    z 0.000000 0.000000 1.752870 
# 
# From -- ./inp_files/2090.got.cif
#   From: 2010.05.17/outbox.cif.g08.bks.cpg/sg129_2_cif.got.tgz:2090.got - 2010.05.20 12:12:06.
