data_PCOD9565355
_publ_section_title
;
Structure prediction by ZEFSAII (Michael W. Deem and Ramdas Pophale) SiO2 
 PCOD9565355
Probable space group: P 4/N M M
;
_chemical_formula_sum "Si O2"
_cell_formula_units_Z 80
_cell_length_a 13.284133
_cell_length_b 13.284133
_cell_length_c 27.375996
_cell_angle_alpha 90.000000
_cell_angle_beta 90.000000
_cell_angle_gamma 90.000000
_cell_volume 4830.992452
_symmetry_space_group_name_H-M "P 4/N M M"
_symmetry_group_IT_number 129
_symmetry_cell_setting 'tetragonal'
loop_
_space_group_symop_operation_xyz
x,y,z
1/2-y,x,z
1/2-x,1/2-y,z
y,1/2-x,z
1/2+x,-y,-z
-x,1/2+y,-z
1/2+y,1/2+x,-z
-y,-x,-z
-x,-y,-z
1/2+y,-x,-z
1/2+x,1/2+y,-z
-y,1/2+x,-z
1/2-x,y,z
x,1/2-y,z
1/2-y,1/2-x,z
y,x,z
loop_
_atom_site_type_symbol
_atom_site_label
_atom_site_fract_x
_atom_site_fract_y
_atom_site_fract_z
Si Si1 0.628852 0.130903 0.847649
Si Si2 0.630645 0.469556 0.362066
Si Si3 0.534826 0.366674 0.453274
Si Si4 0.497904 0.497904 0.077913
Si Si5 0.365091 0.627824 0.261674
Si Si6 0.372005 0.127996 0.998437
O O1 0.750000 0.119840 0.851203
O O2 0.606661 0.250000 0.853196
O O3 0.599284 0.098391 0.792450
O O4 0.572167 0.066831 0.888016
O O5 0.750000 0.480640 0.363286
O O6 0.573472 0.573472 0.371942
O O7 0.595105 0.393096 0.403954
O O8 0.599498 0.429291 0.308656
O O9 0.599999 0.400002 0.500000
O O10 0.510926 0.250000 0.455788
O O11 0.435508 0.435508 0.453464
O O12 0.571066 0.571066 0.046204
O O13 0.426684 0.426684 0.044369
O O14 0.250000 0.592951 0.267966
O O15 0.362459 0.750000 0.260872
O O16 0.388197 0.250000 0.998021
#
# Coordination Sequence:
#
# PCOD9565355 Si02
#       6
#    16  16  16   8  16   8
#     4   9  18  32  50  75 104 130 163 209 255 300
#     4  10  20  32  49  73 102 138 177 214 256 307
#     4  10  21  36  54  78 105 134 174 220 265 314
#     4  11  20  32  56  78  96 132 173 208 248 296
#     4   8  15  29  48  69  95 127 162 204 254 304
#     4  10  22  38  52  72 104 136 168 206 250 300
#
# _framework density 16.559743999999998
#
# number of rings (size 3 to 8) (size 9 to 14) (size 15 to 20)
#    0.000    2.500    0.000    3.600    1.400    2.600 
#    0.000    0.000    0.000    8.400    0.000    0.000 
#    0.000    0.000    0.000    0.000    0.000    0.000 
#
# Total GULP energy -445856.916222 kJ/mol
# GULP energy per Si atom -5573.211453 kJ/mol
# Density = 1.652205 g / cm^3
# Si number density = 16.559744 Si / 1000 Ang^3
#
#
#
# Elastic Constant Matrix: (Units=GPa)
#
#
# Indices 1 2 3 4 5 6 
#
# 1 85.7570 37.9626 50.2722 0.0000 0.0000 0.0000
# 2 37.9626 85.7615 50.2725 0.0000 0.0000 0.0000
# 3 50.2722 50.2725 130.7282 0.0000 0.0000 0.0000
# 4 0.0000 0.0000 0.0000 23.0083 0.0000 0.0000
# 5 0.0000 0.0000 0.0000 0.0000 23.0088 0.0000
# 6 0.0000 0.0000 0.0000 0.0000 0.0000 16.6809
#
#
#
# Elastic Compliance Matrix: (Units=1/GPa)
#
#
# Indices 1 2 3 4 5 6 
#
# 1 0.016340 -0.004583 -0.004521 0.000000 0.000000 0.000000
# 2 -0.004583 0.016339 -0.004521 0.000000 0.000000 0.000000
# 3 -0.004521 -0.004521 0.011127 0.000000 0.000000 0.000000
# 4 0.000000 0.000000 0.000000 0.043463 0.000000 0.000000
# 5 0.000000 0.000000 0.000000 0.000000 0.043462 0.000000
# 6 0.000000 0.000000 0.000000 0.000000 0.000000 0.059949
#
#
# Mechanical properties :
#
#
# Convention : Reuss Voigt Hill
#
# Bulk Modulus (GPa) = 60.40189 64.36236 62.38212
# Shear Modulus (GPa) = 22.37667 23.45555 22.91611
#
# Velocity S-wave (km/s) = 3.67995 3.76762 3.72404
# Velocity P-wave (km/s) = 7.38988 7.60774 7.49960
#
# Compressibility (1/GPa) = 0.01655577
#
# Stress axis : x y z
#
# Youngs Moduli (GPa) = 61.19981 61.20366 89.87346
#
# Poissons Ratio (x) = 0.28047 0.40635
# Poissons Ratio (y) = 0.28045 0.40632
# Poissons Ratio (z) = 0.27671 0.27670
#
# Static dielectric constant tensor:
#      x y z
#    x 1.532450 0.000000 0.000000 
#    y 0.000000 1.532450 0.000000 
#    z 0.000000 0.000000 1.571130 
# 
# From -- ./inp_files/7714.got.cif
#   From: 2010.05.17/outbox.cif.g08.bks.cpg/sg129_4_cif.got.tgz:7714.got - 2010.05.20 12:12:06.
