data_PCOD9565509
_publ_section_title
;
Structure prediction by ZEFSAII (Michael W. Deem and Ramdas Pophale) SiO2 
 PCOD9565509
Probable space group: P 4/N M M
;
_chemical_formula_sum "Si O2"
_cell_formula_units_Z 96
_cell_length_a 23.784754
_cell_length_b 23.784754
_cell_length_c 8.636412
_cell_angle_alpha 90.000000
_cell_angle_beta 90.000000
_cell_angle_gamma 90.000000
_cell_volume 4885.743694
_symmetry_space_group_name_H-M "P 4/N M M"
_symmetry_group_IT_number 129
_symmetry_cell_setting 'tetragonal'
loop_
_space_group_symop_operation_xyz
x,y,z
1/2-y,x,z
1/2-x,1/2-y,z
y,1/2-x,z
1/2+x,-y,-z
-x,1/2+y,-z
1/2+y,1/2+x,-z
-y,-x,-z
-x,-y,-z
1/2+y,-x,-z
1/2+x,1/2+y,-z
-y,1/2+x,-z
1/2-x,y,z
x,1/2-y,z
1/2-y,1/2-x,z
y,x,z
loop_
_atom_site_type_symbol
_atom_site_label
_atom_site_fract_x
_atom_site_fract_y
_atom_site_fract_z
Si Si1 0.815652 0.906770 0.676513
Si Si2 0.185642 0.516114 0.861408
Si Si3 0.187396 0.685866 0.688467
Si Si4 0.407267 0.895603 0.316624
Si Si5 0.990921 0.602900 0.860505
Si Si6 0.189603 0.099883 0.688481
O O1 0.750000 0.907384 0.724256
O O2 0.847168 0.847168 0.704603
O O3 0.853526 0.953737 0.759038
O O4 0.817671 0.916843 0.491433
O O5 0.250000 0.534695 0.896733
O O6 0.154455 0.550376 0.726392
O O7 0.189870 0.453241 0.797885
O O8 0.141092 0.514725 0.000707
O O9 0.186056 0.686056 0.500000
O O10 0.250000 0.664109 0.732327
O O11 0.183798 0.750000 0.741228
O O12 0.133158 0.651071 0.738594
O O13 0.405433 0.905433 0.500000
O O14 0.418695 0.954595 0.232997
O O15 0.948763 0.551238 0.903212
O O16 0.250000 0.129287 0.697544
O O17 0.140330 0.140330 0.735534
#
# Coordination Sequence:
#
# PCOD9565509 Si02
#       6
#    16  16  16  16  16  16
#     4   9  18  34  56  83 114 147 188 236 286 341
#     4  11  23  39  59  82 112 149 189 233 281 339
#     4   8  15  30  53  81 111 140 172 216 273 336
#     4  11  23  38  59  86 114 147 190 240 291 345
#     4  11  24  40  58  81 113 155 198 241 291 346
#     4   9  18  33  55  82 111 145 184 230 284 339
#
# _framework density 19.649004000000001
#
# number of rings (size 3 to 8) (size 9 to 14) (size 15 to 20)
#    0.000    2.167    0.000    3.500    0.000    4.667 
#    0.000    1.667    0.000    0.000    0.000    4.667 
#    0.000    0.000    0.000    0.000    0.000    0.000 
#
# Total GULP energy -535128.445397 kJ/mol
# GULP energy per Si atom -5574.254640 kJ/mol
# Density = 1.960428 g / cm^3
# Si number density = 19.649004 Si / 1000 Ang^3
#
#
#
# Elastic Constant Matrix: (Units=GPa)
#
#
# Indices 1 2 3 4 5 6 
#
# 1 77.1364 20.3159 23.2266 0.0000 0.0000 0.0000
# 2 20.3159 77.1364 23.2266 0.0000 0.0000 0.0000
# 3 23.2266 23.2266 37.7866 0.0000 0.0000 0.0000
# 4 0.0000 0.0000 0.0000 14.8327 0.0000 0.0000
# 5 0.0000 0.0000 0.0000 0.0000 14.8327 0.0000
# 6 0.0000 0.0000 0.0000 0.0000 0.0000 39.4317
#
#
#
# Elastic Compliance Matrix: (Units=1/GPa)
#
#
# Indices 1 2 3 4 5 6 
#
# 1 0.016057 -0.001543 -0.008922 0.000000 0.000000 0.000000
# 2 -0.001543 0.016057 -0.008922 0.000000 0.000000 0.000000
# 3 -0.008922 -0.008922 0.037432 0.000000 0.000000 0.000000
# 4 0.000000 0.000000 0.000000 0.067418 0.000000 0.000000
# 5 0.000000 0.000000 0.000000 0.000000 0.067418 0.000000
# 6 0.000000 0.000000 0.000000 0.000000 0.000000 0.025360
#
#
# Mechanical properties :
#
#
# Convention : Reuss Voigt Hill
#
# Bulk Modulus (GPa) = 32.49467 36.17754 34.33610
# Shear Modulus (GPa) = 17.93580 22.17212 20.05396
#
# Velocity S-wave (km/s) = 3.02455 3.36282 3.19816
# Velocity P-wave (km/s) = 5.36383 5.79051 5.58125
#
# Compressibility (1/GPa) = 0.03077428
#
# Stress axis : x y z
#
# Youngs Moduli (GPa) = 62.27931 62.27931 26.71501
#
# Poissons Ratio (x) = 0.09607 0.23834
# Poissons Ratio (y) = 0.09607 0.23834
# Poissons Ratio (z) = 0.55563 0.55563
#
# Static dielectric constant tensor:
#      x y z
#    x 1.711650 0.000000 0.000000 
#    y 0.000000 1.711650 0.000000 
#    z 0.000000 0.000000 1.696620 
# 
# From -- ./inp_files/2608.got.cif
#   From: 2010.05.17/outbox.cif.g08.bks.cpg/sg129_2_cif.got.tgz:2608.got - 2010.05.20 12:12:06.
