data_PCOD9565184
_publ_section_title
;
Structure prediction by ZEFSAII (Michael W. Deem and Ramdas Pophale) SiO2 
 PCOD9565184
Probable space group: P 4/N M M
;
_chemical_formula_sum "Si O2"
_cell_formula_units_Z 104
_cell_length_a 14.411468
_cell_length_b 14.411468
_cell_length_c 33.633449
_cell_angle_alpha 90.000000
_cell_angle_beta 90.000000
_cell_angle_gamma 90.000000
_cell_volume 6985.344810
_symmetry_space_group_name_H-M "P 4/N M M"
_symmetry_group_IT_number 129
_symmetry_cell_setting 'tetragonal'
loop_
_space_group_symop_operation_xyz
x,y,z
1/2-y,x,z
1/2-x,1/2-y,z
y,1/2-x,z
1/2+x,-y,-z
-x,1/2+y,-z
1/2+y,1/2+x,-z
-y,-x,-z
-x,-y,-z
1/2+y,-x,-z
1/2+x,1/2+y,-z
-y,1/2+x,-z
1/2-x,y,z
x,1/2-y,z
1/2-y,1/2-x,z
y,x,z
loop_
_atom_site_type_symbol
_atom_site_label
_atom_site_fract_x
_atom_site_fract_y
_atom_site_fract_z
Si Si1 0.359498 0.513777 0.229252
Si Si2 0.013918 0.859640 0.076447
Si Si3 0.513554 0.360592 0.617772
Si Si4 0.137272 0.643608 0.544369
Si Si5 0.358559 0.641442 0.000000
Si Si6 0.141743 0.641699 0.694376
Si Si7 0.858599 0.141428 0.152873
O O1 0.250000 0.490501 0.228993
O O2 0.424367 0.424367 0.229245
O O3 0.377495 0.575734 0.268393
O O4 0.378477 0.576364 0.190380
O O5 0.991021 0.750000 0.076489
O O6 0.076142 0.878311 0.037440
O O7 0.076174 0.878490 0.115430
O O8 0.924238 0.924238 0.076431
O O9 0.495510 0.250000 0.615033
O O10 0.420976 0.420976 0.619409
O O11 0.575168 0.389498 0.579646
O O12 0.575274 0.376439 0.657162
O O13 0.111078 0.611078 0.500000
O O14 0.250000 0.646986 0.544197
O O15 0.105355 0.750000 0.550809
O O16 0.250000 0.629578 0.011080
O O17 0.250000 0.630697 0.706062
O O18 0.129837 0.750000 0.682657
O O19 0.750000 0.129607 0.163843
O O20 0.870623 0.250000 0.141848
#
# Coordination Sequence:
#
# PCOD9565184 Si02
#       7
#    16  16  16  16   8  16  16
#     4  10  19  30  45  65  90 117 142 170 206 252
#     4  10  19  30  45  65  90 118 145 175 212 256
#     4  10  19  29  42  61  86 115 143 170 203 247
#     4   8  14  26  44  64  84 105 133 174 219 253
#     4   9  17  30  48  68  87 109 142 184 224 255
#     4   9  17  30  48  67  84 104 136 180 223 253
#     4   9  17  30  48  68  87 109 142 183 221 250
#
# _framework density 14.888313
#
# number of rings (size 3 to 8) (size 9 to 14) (size 15 to 20)
#    0.000    2.692    0.000    3.000    0.000    6.308 
#    0.000    0.000    0.000    0.000    0.000    0.000 
#    0.000   24.923    0.000    0.615    0.000    0.000 
#
# Total GULP energy -579557.370212 kJ/mol
# GULP energy per Si atom -5572.667021 kJ/mol
# Density = 1.485443 g / cm^3
# Si number density = 14.888313 Si / 1000 Ang^3
#
#
#
# Elastic Constant Matrix: (Units=GPa)
#
#
# Indices 1 2 3 4 5 6 
#
# 1 80.1013 69.4118 74.5632 0.0000 0.0000 0.0000
# 2 69.4118 80.1016 74.5631 0.0000 0.0000 0.0000
# 3 74.5632 74.5631 123.4970 0.0000 0.0000 0.0000
# 4 0.0000 0.0000 0.0000 6.2913 0.0000 0.0000
# 5 0.0000 0.0000 0.0000 0.0000 6.2915 0.0000
# 6 0.0000 0.0000 0.0000 0.0000 0.0000 30.5961
#
#
#
# Elastic Compliance Matrix: (Units=1/GPa)
#
#
# Indices 1 2 3 4 5 6 
#
# 1 0.055181 -0.038367 -0.010152 0.000000 0.000000 0.000000
# 2 -0.038367 0.055181 -0.010151 0.000000 0.000000 0.000000
# 3 -0.010152 -0.010151 0.020356 0.000000 0.000000 0.000000
# 4 0.000000 0.000000 0.000000 0.158951 0.000000 0.000000
# 5 0.000000 0.000000 0.000000 0.000000 0.158946 0.000000
# 6 0.000000 0.000000 0.000000 0.000000 0.000000 0.032684
#
#
# Mechanical properties :
#
#
# Convention : Reuss Voigt Hill
#
# Bulk Modulus (GPa) = 74.75583 80.08623 77.42103
# Shear Modulus (GPa) = 8.29054 12.97987 10.63521
#
# Velocity S-wave (km/s) = 2.36232 2.95586 2.67560
# Velocity P-wave (km/s) = 7.60006 8.09676 7.85234
#
# Compressibility (1/GPa) = 0.01337688
#
# Stress axis : x y z
#
# Youngs Moduli (GPa) = 18.12213 18.12231 49.12675
#
# Poissons Ratio (x) = 0.69531 0.49872
# Poissons Ratio (y) = 0.69530 0.49870
# Poissons Ratio (z) = 0.18397 0.18396
#
# Static dielectric constant tensor:
#      x y z
#    x 1.472120 0.000000 0.000000 
#    y 0.000000 1.472120 0.000000 
#    z 0.000000 0.000000 1.488310 
# 
# From -- ./inp_files/7896.got.cif
#   From: 2010.05.17/outbox.cif.g08.bks.cpg/sg129_4_cif.got.tgz:7896.got - 2010.05.20 12:12:06.
