data_PCOD9565393
_publ_section_title
;
Structure prediction by ZEFSAII (Michael W. Deem and Ramdas Pophale) SiO2 
 PCOD9565393
Probable space group: P 4/N M M
;
_chemical_formula_sum "Si O2"
_cell_formula_units_Z 96
_cell_length_a 18.869586
_cell_length_b 18.869586
_cell_length_c 14.019943
_cell_angle_alpha 90.000000
_cell_angle_beta 90.000000
_cell_angle_gamma 90.000000
_cell_volume 4991.958791
_symmetry_space_group_name_H-M "P 4/N M M"
_symmetry_group_IT_number 129
_symmetry_cell_setting 'tetragonal'
loop_
_space_group_symop_operation_xyz
x,y,z
1/2-y,x,z
1/2-x,1/2-y,z
y,1/2-x,z
1/2+x,-y,-z
-x,1/2+y,-z
1/2+y,1/2+x,-z
-y,-x,-z
-x,-y,-z
1/2+y,-x,-z
1/2+x,1/2+y,-z
-y,1/2+x,-z
1/2-x,y,z
x,1/2-y,z
1/2-y,1/2-x,z
y,x,z
loop_
_atom_site_type_symbol
_atom_site_label
_atom_site_fract_x
_atom_site_fract_y
_atom_site_fract_z
Si Si1 0.666350 0.392934 0.753892
Si Si2 0.450298 0.331968 0.799198
Si Si3 0.331687 0.053467 0.469128
Si Si4 0.052854 0.168476 0.238795
Si Si5 0.943604 0.166675 0.620866
Si Si6 0.914423 0.169478 0.924171
O O1 0.750000 0.387243 0.739378
O O2 0.651211 0.472642 0.791450
O O3 0.623028 0.377301 0.657848
O O4 0.636495 0.338798 0.832107
O O5 0.427222 0.250000 0.801853
O O6 0.386518 0.386518 0.803243
O O7 0.496052 0.341987 0.702518
O O8 0.506756 0.343110 0.884620
O O9 0.250000 0.067715 0.496804
O O10 0.383464 0.116537 0.498859
O O11 0.333745 0.049082 0.354620
O O12 0.353098 0.981642 0.522603
O O13 0.069836 0.250000 0.211807
O O14 0.111915 0.111915 0.207914
O O15 0.924266 0.250000 0.617449
O O16 0.909747 0.250000 0.961647
O O17 0.886188 0.113813 0.000000
#
# Coordination Sequence:
#
# PCOD9565393 Si02
#       6
#    16  16  16  16  16  16
#     4  10  20  33  50  73  99 126 159 199 243 296
#     4   9  18  32  49  73 105 137 170 205 243 291
#     4   9  17  30  48  70  97 129 167 209 248 286
#     4   9  19  34  51  73  99 128 165 207 248 290
#     4   9  18  31  47  69  99 134 169 207 248 287
#     4  10  21  36  56  81 103 125 158 202 250 298
#
# _framework density 19.230929
#
# number of rings (size 3 to 8) (size 9 to 14) (size 15 to 20)
#    0.000    2.667    0.000    2.500    0.000    7.000 
#    0.000    3.333    0.000    4.000    0.000    9.333 
#    0.000    5.333    0.000    0.000    0.000    0.167 
#
# Total GULP energy -535620.654449 kJ/mol
# GULP energy per Si atom -5579.381817 kJ/mol
# Density = 1.918716 g / cm^3
# Si number density = 19.230929 Si / 1000 Ang^3
#
#
#
# Elastic Constant Matrix: (Units=GPa)
#
#
# Indices 1 2 3 4 5 6 
#
# 1 83.1660 67.6597 3.7897 0.0000 0.0000 0.0000
# 2 67.6597 83.1662 3.7899 0.0000 0.0000 0.0000
# 3 3.7897 3.7899 25.4636 0.0000 0.0000 0.0000
# 4 0.0000 0.0000 0.0000 17.3563 0.0000 0.0000
# 5 0.0000 0.0000 0.0000 0.0000 17.3547 0.0000
# 6 0.0000 0.0000 0.0000 0.0000 0.0000 -21.5068
#
#
#
# Elastic Compliance Matrix: (Units=1/GPa)
#
#
# Indices 1 2 3 4 5 6 
#
# 1 0.035585 -0.028905 -0.000994 0.000000 0.000000 0.000000
# 2 -0.028905 0.035585 -0.000994 0.000000 0.000000 0.000000
# 3 -0.000994 -0.000994 0.039568 0.000000 0.000000 0.000000
# 4 0.000000 0.000000 0.000000 0.057616 0.000000 0.000000
# 5 0.000000 0.000000 0.000000 0.000000 0.057621 0.000000
# 6 0.000000 0.000000 0.000000 0.000000 0.000000 -0.046497
#
#
# Mechanical properties :
#
#
# Convention : Reuss Voigt Hill
#
# Bulk Modulus (GPa) = 20.42855 38.03048 29.22952
# Shear Modulus (GPa) = 19.41139 10.41128 14.91133
#
# Velocity S-wave (km/s) = 3.18053 2.32929 2.78759
# Velocity P-wave (km/s) = 4.91258 5.20122 5.05896
#
# Compressibility (1/GPa) = 0.04895110
#
# Stress axis : x y z
#
# Youngs Moduli (GPa) = 28.10187 28.10194 25.27313
#
# Poissons Ratio (x) = 0.81228 0.02512
# Poissons Ratio (y) = 0.81227 0.02513
# Poissons Ratio (z) = 0.02793 0.02795
#
# Static dielectric constant tensor:
#      x y z
#    x 1.653740 0.000000 0.000000 
#    y 0.000000 1.653740 0.000000 
#    z 0.000000 0.000000 1.710720 
# 
# From -- ./inp_files/5693.got.cif
#   From: 2010.05.17/outbox.cif.g08.bks.cpg/sg129_3_cif.got.tgz:5693.got - 2010.05.20 12:12:06.
