data_PCOD9565364
_publ_section_title
;
Structure prediction by ZEFSAII (Michael W. Deem and Ramdas Pophale) SiO2 
 PCOD9565364
Probable space group: P 4/N M M
;
_chemical_formula_sum "Si O2"
_cell_formula_units_Z 96
_cell_length_a 18.718421
_cell_length_b 18.718421
_cell_length_c 16.851382
_cell_angle_alpha 90.000000
_cell_angle_beta 90.000000
_cell_angle_gamma 90.000000
_cell_volume 5904.375172
_symmetry_space_group_name_H-M "P 4/N M M"
_symmetry_group_IT_number 129
_symmetry_cell_setting 'tetragonal'
loop_
_space_group_symop_operation_xyz
x,y,z
1/2-y,x,z
1/2-x,1/2-y,z
y,1/2-x,z
1/2+x,-y,-z
-x,1/2+y,-z
1/2+y,1/2+x,-z
-y,-x,-z
-x,-y,-z
1/2+y,-x,-z
1/2+x,1/2+y,-z
-y,1/2+x,-z
1/2-x,y,z
x,1/2-y,z
1/2-y,1/2-x,z
y,x,z
loop_
_atom_site_type_symbol
_atom_site_label
_atom_site_fract_x
_atom_site_fract_y
_atom_site_fract_z
Si Si1 0.043041 0.568293 0.907320
Si Si2 0.667636 0.168795 0.096811
Si Si3 0.665106 0.461695 0.664062
Si Si4 0.834016 0.947110 0.818637
Si Si5 0.451278 0.333132 0.497036
Si Si6 0.398787 0.832846 0.420260
O O1 0.115968 0.604784 0.875640
O O2 0.003370 0.496631 0.874185
O O3 0.985351 0.630927 0.894018
O O4 0.054870 0.554870 0.000000
O O5 0.750000 0.160009 0.121852
O O6 0.643953 0.250000 0.120146
O O7 0.667449 0.167449 0.000000
O O8 0.750000 0.446725 0.664643
O O9 0.646234 0.502250 0.744393
O O10 0.651997 0.514464 0.589666
O O11 0.624473 0.388356 0.646783
O O12 0.750000 0.941719 0.823948
O O13 0.871496 0.871496 0.806828
O O14 0.428845 0.250000 0.498583
O O15 0.387496 0.387496 0.512766
O O16 0.518028 0.341761 0.556732
O O17 0.355059 0.855059 0.500000
O O18 0.385310 0.750000 0.401839
#
# Coordination Sequence:
#
# PCOD9565364 Si02
#       6
#    16  16  16  16  16  16
#     4   9  17  29  45  65  88 114 145 180 219 264
#     4   8  13  22  38  59  81 105 133 166 204 247
#     4   9  18  30  43  63  91 121 154 189 224 266
#     4  10  20  33  49  69  94 124 156 189 224 264
#     4   9  17  28  42  62  87 116 153 194 234 276
#     4   9  17  28  44  66  89 116 152 191 231 277
#
# _framework density 16.259129999999999
#
# number of rings (size 3 to 8) (size 9 to 14) (size 15 to 20)
#    0.000    3.000    0.000    3.000    0.000    5.833 
#    0.000    0.833    0.000    4.000    0.000    0.000 
#    0.000    0.333    0.000    0.000    0.000   19.667 
#
# Total GULP energy -534404.809835 kJ/mol
# GULP energy per Si atom -5566.716769 kJ/mol
# Density = 1.622212 g / cm^3
# Si number density = 16.259130 Si / 1000 Ang^3
#
#
#
# Elastic Constant Matrix: (Units=GPa)
#
#
# Indices 1 2 3 4 5 6 
#
# 1 94.0132 78.8718 20.1944 0.0000 0.0000 0.0000
# 2 78.8718 94.0132 20.1944 0.0000 0.0000 0.0000
# 3 20.1944 20.1944 34.0186 0.0000 0.0000 0.0000
# 4 0.0000 0.0000 0.0000 10.8100 0.0000 0.0000
# 5 0.0000 0.0000 0.0000 0.0000 10.8100 0.0000
# 6 0.0000 0.0000 0.0000 0.0000 0.0000 -0.0702
#
#
#
# Elastic Compliance Matrix: (Units=1/GPa)
#
#
# Indices 1 2 3 4 5 6 
#
# 1 0.036380 -0.029664 -0.003987 0.000000 0.000000 0.000000
# 2 -0.029664 0.036380 -0.003987 0.000000 0.000000 0.000000
# 3 -0.003987 -0.003987 0.034129 0.000000 0.000000 0.000000
# 4 0.000000 0.000000 0.000000 0.092507 0.000000 0.000000
# 5 0.000000 0.000000 0.000000 0.000000 0.092507 0.000000
# 6 0.000000 0.000000 0.000000 0.000000 0.000000-14.249676
#
#
# Mechanical properties :
#
#
# Convention : Reuss Voigt Hill
#
# Bulk Modulus (GPa) = 31.63193 51.17402 41.40297
# Shear Modulus (GPa) = -0.36044 11.16225 5.40090
#
# Velocity S-wave (km/s) = -0.47134 2.62300 1.82455
# Velocity P-wave (km/s) = 4.38188 6.38090 5.47342
#
# Compressibility (1/GPa) = 0.03161363
#
# Stress axis : x y z
#
# Youngs Moduli (GPa) = 27.48776 27.48776 29.30088
#
# Poissons Ratio (x) = 0.81541 0.11681
# Poissons Ratio (y) = 0.81541 0.11681
# Poissons Ratio (z) = 0.10958 0.10958
#
# Static dielectric constant tensor:
#      x y z
#    x 1.554950 0.000000 0.000000 
#    y 0.000000 1.554950 0.000000 
#    z 0.000000 0.000000 1.551840 
# 
# From -- ./inp_files/5665.got.cif
#   From: 2010.05.17/outbox.cif.g08.bks.cpg/sg129_3_cif.got.tgz:5665.got - 2010.05.20 12:12:06.
