data_PCOD9565437
_publ_section_title
;
Structure prediction by ZEFSAII (Michael W. Deem and Ramdas Pophale) SiO2 
 PCOD9565437
Probable space group: P 4/N M M
;
_chemical_formula_sum "Si O2"
_cell_formula_units_Z 72
_cell_length_a 13.442534
_cell_length_b 13.442534
_cell_length_c 24.349882
_cell_angle_alpha 90.000000
_cell_angle_beta 90.000000
_cell_angle_gamma 90.000000
_cell_volume 4400.065568
_symmetry_space_group_name_H-M "P 4/N M M"
_symmetry_group_IT_number 129
_symmetry_cell_setting 'tetragonal'
loop_
_space_group_symop_operation_xyz
x,y,z
1/2-y,x,z
1/2-x,1/2-y,z
y,1/2-x,z
1/2+x,-y,-z
-x,1/2+y,-z
1/2+y,1/2+x,-z
-y,-x,-z
-x,-y,-z
1/2+y,-x,-z
1/2+x,1/2+y,-z
-y,1/2+x,-z
1/2-x,y,z
x,1/2-y,z
1/2-y,1/2-x,z
y,x,z
loop_
_atom_site_type_symbol
_atom_site_label
_atom_site_fract_x
_atom_site_fract_y
_atom_site_fract_z
Si Si1 0.867522 0.032522 0.947660
Si Si2 0.532386 0.132810 0.843417
Si Si3 0.366907 0.867670 0.724504
Si Si4 0.367875 0.367875 0.566974
Si Si5 0.496926 0.003075 0.355943
Si Si6 0.632074 0.632074 0.560482
O O1 0.750000 0.017073 0.949109
O O2 0.900655 0.090954 0.892916
O O3 0.904151 0.095850 0.000000
O O4 0.929860 0.929860 0.948808
O O5 0.513852 0.250000 0.850844
O O6 0.588310 0.118339 0.785525
O O7 0.431449 0.068552 0.843169
O O8 0.250000 0.881427 0.710627
O O9 0.387971 0.750000 0.724127
O O10 0.436145 0.926324 0.682373
O O11 0.250000 0.385368 0.574895
O O12 0.432110 0.432110 0.608369
O O13 0.391454 0.391454 0.503240
O O14 0.431524 0.068477 0.397477
O O15 0.750000 0.614554 0.568241
#
# Coordination Sequence:
#
# PCOD9565437 Si02
#       6
#    16  16  16   8   8   8
#     4  10  21  36  56  82 109 141 184 230 272 322
#     4  10  20  36  55  78 107 141 176 216 265 316
#     4  10  21  35  51  74 105 139 172 212 263 313
#     4   9  19  35  53  75 105 136 168 210 259 310
#     4  12  19  32  54  80 101 134 174 218 252 306
#     4   9  19  35  53  75 103 136 172 210 257 308
#
# _framework density 16.363392999999999
#
# number of rings (size 3 to 8) (size 9 to 14) (size 15 to 20)
#    0.000    2.000    1.111    3.667    0.000    2.889 
#    0.000    0.000    0.000    4.000    0.000    9.333 
#    0.000    0.000    0.000    0.000    0.000    0.000 
#
# Total GULP energy -401924.727314 kJ/mol
# GULP energy per Si atom -5582.287879 kJ/mol
# Density = 1.632615 g / cm^3
# Si number density = 16.363393 Si / 1000 Ang^3
#
#
#
# Elastic Constant Matrix: (Units=GPa)
#
#
# Indices 1 2 3 4 5 6 
#
# 1 111.0071 121.1020 88.0364 0.0000 0.0000 0.0000
# 2 121.1020 111.0209 88.0391 0.0000 0.0000 0.0000
# 3 88.0364 88.0391 127.1861 0.0000 0.0000 0.0000
# 4 0.0000 0.0000 0.0000 23.2512 0.0000 0.0000
# 5 0.0000 0.0000 0.0000 0.0000 23.2495 0.0000
# 6 0.0000 0.0000 0.0000 0.0000 0.0000 21.7414
#
#
#
# Elastic Compliance Matrix: (Units=1/GPa)
#
#
# Indices 1 2 3 4 5 6 
#
# 1 -0.045033 0.054100 -0.006277 0.000000 0.000000 0.000000
# 2 0.054100 -0.045024 -0.006281 0.000000 0.000000 0.000000
# 3 -0.006277 -0.006281 0.016555 0.000000 0.000000 0.000000
# 4 0.000000 0.000000 0.000000 0.043008 0.000000 0.000000
# 5 0.000000 0.000000 0.000000 0.000000 0.043012 0.000000
# 6 0.000000 0.000000 0.000000 0.000000 0.000000 0.045995
#
#
# Mechanical properties :
#
#
# Convention : Reuss Voigt Hill
#
# Bulk Modulus (GPa) = 104.36901 104.84103 104.60502
# Shear Modulus (GPa) = -233.91183 17.11755 -108.39714
#
# Velocity S-wave (km/s) = -11.96907 3.23784 -8.14785
# Velocity P-wave (km/s) = 11.27346 8.84238 4.94486
#
# Compressibility (1/GPa) = 0.00958139
#
# Stress axis : x y z
#
# Youngs Moduli (GPa) = -22.20597 -22.21040 60.40360
#
# Poissons Ratio (x) = 1.20158 0.37916
# Poissons Ratio (y) = 1.20134 0.37941
# Poissons Ratio (z) = -0.13939 -0.13951
#
# Static dielectric constant tensor:
#      x y z
#    x 1.521650 0.000000 0.000000 
#    y 0.000000 1.521650 0.000000 
#    z 0.000000 0.000000 1.531270 
# 
# From -- ./inp_files/7439.got.cif
#   From: 2010.05.17/outbox.cif.g08.bks.cpg/sg129_4_cif.got.tgz:7439.got - 2010.05.20 12:12:06.
