data_PCOD9565100
_publ_section_title
;
Structure prediction by ZEFSAII (Michael W. Deem and Ramdas Pophale) SiO2 
 PCOD9565100
Probable space group: P 4/N M M
;
_chemical_formula_sum "Si O2"
_cell_formula_units_Z 112
_cell_length_a 24.117727
_cell_length_b 24.117727
_cell_length_c 12.357126
_cell_angle_alpha 90.000000
_cell_angle_beta 90.000000
_cell_angle_gamma 90.000000
_cell_volume 7187.704675
_symmetry_space_group_name_H-M "P 4/N M M"
_symmetry_group_IT_number 129
_symmetry_cell_setting 'tetragonal'
loop_
_space_group_symop_operation_xyz
x,y,z
1/2-y,x,z
1/2-x,1/2-y,z
y,1/2-x,z
1/2+x,-y,-z
-x,1/2+y,-z
1/2+y,1/2+x,-z
-y,-x,-z
-x,-y,-z
1/2+y,-x,-z
1/2+x,1/2+y,-z
-y,1/2+x,-z
1/2-x,y,z
x,1/2-y,z
1/2-y,1/2-x,z
y,x,z
loop_
_atom_site_type_symbol
_atom_site_label
_atom_site_fract_x
_atom_site_fract_y
_atom_site_fract_z
Si Si1 0.449729 0.539553 0.177502
Si Si2 0.991347 0.422848 0.587278
Si Si3 0.313277 0.021948 0.498651
Si Si4 0.471156 0.123527 0.882397
Si Si5 0.685959 0.594294 0.297744
Si Si6 0.685659 0.593963 0.940143
Si Si7 0.041331 0.365889 0.264468
O O1 0.487711 0.487711 0.138565
O O2 0.470848 0.558821 0.295882
O O3 0.468806 0.593842 0.110279
O O4 0.389955 0.513116 0.202511
O O5 0.957297 0.457297 0.500000
O O6 0.055023 0.444978 0.578812
O O7 0.984398 0.359064 0.557760
O O8 0.250000 0.001831 0.497761
O O9 0.314275 0.076055 0.576482
O O10 0.335681 0.030410 0.377492
O O11 0.427904 0.072097 0.882910
O O12 0.454668 0.157973 0.774529
O O13 0.453909 0.162342 0.981206
O O14 0.750000 0.601771 0.264828
O O15 0.648402 0.648402 0.280389
O O16 0.750000 0.604027 0.958178
O O17 0.648017 0.648017 0.961855
O O18 0.673104 0.574035 0.818500
O O19 0.080417 0.419584 0.286649
#
# Coordination Sequence:
#
# PCOD9565100 Si02
#       7
#    16  16  16  16  16  16  16
#     4   9  16  26  46  70  89 112 144 187 234 289
#     4  10  16  26  46  68  90 119 155 190 225 274
#     4  11  20  28  42  66  95 123 150 183 230 279
#     4   9  17  30  46  65  86 108 144 190 236 283
#     4  10  19  29  42  59  82 115 155 198 237 271
#     4  10  21  35  49  64  88 124 164 202 232 266
#     4  10  19  31  47  67  90 120 157 192 233 279
#
# _framework density 15.582165
#
# number of rings (size 3 to 8) (size 9 to 14) (size 15 to 20)
#    0.000    2.143    2.857    2.143    0.000    0.857 
#    0.000    2.857    0.000    2.571    0.000    2.000 
#    0.000    0.286    0.000    0.000    0.000    8.429 
#
# Total GULP energy -623545.220282 kJ/mol
# GULP energy per Si atom -5567.368038 kJ/mol
# Density = 1.554670 g / cm^3
# Si number density = 15.582165 Si / 1000 Ang^3
#
#
#
# Elastic Constant Matrix: (Units=GPa)
#
#
# Indices 1 2 3 4 5 6 
#
# 1 57.6416 28.0385 7.5328 0.0000 0.0000 0.0000
# 2 28.0385 57.6416 7.5328 0.0000 0.0000 0.0000
# 3 7.5328 7.5328 52.1726 0.0000 0.0000 0.0000
# 4 0.0000 0.0000 0.0000 17.7919 0.0000 0.0000
# 5 0.0000 0.0000 0.0000 0.0000 17.7919 0.0000
# 6 0.0000 0.0000 0.0000 0.0000 0.0000 13.3713
#
#
#
# Elastic Compliance Matrix: (Units=1/GPa)
#
#
# Indices 1 2 3 4 5 6 
#
# 1 0.022878 -0.010902 -0.001729 0.000000 0.000000 0.000000
# 2 -0.010902 0.022878 -0.001729 0.000000 0.000000 0.000000
# 3 -0.001729 -0.001729 0.019666 0.000000 0.000000 0.000000
# 4 0.000000 0.000000 0.000000 0.056205 0.000000 0.000000
# 5 0.000000 0.000000 0.000000 0.000000 0.056205 0.000000
# 6 0.000000 0.000000 0.000000 0.000000 0.000000 0.074787
#
#
# Mechanical properties :
#
#
# Convention : Reuss Voigt Hill
#
# Bulk Modulus (GPa) = 27.24721 28.18488 27.71604
# Shear Modulus (GPa) = 17.03146 18.08114 17.55630
#
# Velocity S-wave (km/s) = 3.30966 3.41012 3.36026
# Velocity P-wave (km/s) = 5.66826 5.79935 5.73418
#
# Compressibility (1/GPa) = 0.03670101
#
# Stress axis : x y z
#
# Youngs Moduli (GPa) = 43.71055 43.71055 50.84808
#
# Poissons Ratio (x) = 0.47655 0.08792
# Poissons Ratio (y) = 0.47655 0.08792
# Poissons Ratio (z) = 0.07558 0.07558
#
# Static dielectric constant tensor:
#      x y z
#    x 1.528470 0.000000 0.000000 
#    y 0.000000 1.528470 0.000000 
#    z 0.000000 0.000000 1.582200 
# 
# From -- ./inp_files/4127.got.cif
#   From: 2010.05.17/outbox.cif.g08.bks.cpg/sg129_3_cif.got.tgz:4127.got - 2010.05.20 12:12:06.
