data_PCOD9565510
_publ_section_title
;
Structure prediction by ZEFSAII (Michael W. Deem and Ramdas Pophale) SiO2 
 PCOD9565510
Probable space group: P 4/N M M
;
_chemical_formula_sum "Si O2"
_cell_formula_units_Z 48
_cell_length_a 18.348853
_cell_length_b 18.348853
_cell_length_c 7.438739
_cell_angle_alpha 90.000000
_cell_angle_beta 90.000000
_cell_angle_gamma 90.000000
_cell_volume 2504.477670
_symmetry_space_group_name_H-M "P 4/N M M"
_symmetry_group_IT_number 129
_symmetry_cell_setting 'tetragonal'
loop_
_space_group_symop_operation_xyz
x,y,z
1/2-y,x,z
1/2-x,1/2-y,z
y,1/2-x,z
1/2+x,-y,-z
-x,1/2+y,-z
1/2+y,1/2+x,-z
-y,-x,-z
-x,-y,-z
1/2+y,-x,-z
1/2+x,1/2+y,-z
-y,1/2+x,-z
1/2-x,y,z
x,1/2-y,z
1/2-y,1/2-x,z
y,x,z
loop_
_atom_site_type_symbol
_atom_site_label
_atom_site_fract_x
_atom_site_fract_y
_atom_site_fract_z
Si Si1 0.750000 0.523699 0.497261
Si Si2 0.250000 0.372474 0.822453
Si Si3 0.481970 0.750000 0.916448
Si Si4 0.901212 0.010354 0.355412
Si Si5 0.902299 0.402299 0.000000
O O1 0.750000 0.600321 0.386771
O O2 0.750000 0.517031 0.714147
O O3 0.680321 0.483144 0.418959
O O4 0.179402 0.320599 0.857808
O O5 0.250000 0.447624 0.944813
O O6 0.428806 0.820363 0.944920
O O7 0.948006 0.051995 0.500000
O O8 0.917856 0.046221 0.167144
O O9 0.927013 0.927013 0.353300
#
# Coordination Sequence:
#
# PCOD9565510 Si02
#       5
#     8   8   8  16   8
#     4  12  23  43  65  99 133 174 225 277 345 406
#     4  11  26  46  67  98 141 185 228 283 346 406
#     4  12  27  42  72 101 138 179 233 281 343 417
#     4  11  23  39  66  98 130 170 222 279 334 397
#     4  12  23  45  66  98 136 178 227 277 338 406
#
# _framework density 19.165673999999999
#
# number of rings (size 3 to 8) (size 9 to 14) (size 15 to 20)
#    0.000    0.500    6.667    1.500    0.000    4.333 
#    0.000    1.667    0.000    0.500    0.000    0.000 
#    0.000    0.000    0.000    0.000    0.000    0.000 
#
# Total GULP energy -267344.889785 kJ/mol
# GULP energy per Si atom -5569.685204 kJ/mol
# Density = 1.912205 g / cm^3
# Si number density = 19.165674 Si / 1000 Ang^3
#
#
#
# Elastic Constant Matrix: (Units=GPa)
#
#
# Indices 1 2 3 4 5 6 
#
# 1 127.4642 75.2168 47.2490 0.0000 0.0000 0.0000
# 2 75.2168 127.4640 47.2486 0.0000 0.0000 0.0000
# 3 47.2490 47.2486 164.7507 0.0000 0.0000 0.0000
# 4 0.0000 0.0000 0.0000 28.5463 0.0000 0.0000
# 5 0.0000 0.0000 0.0000 0.0000 28.5454 0.0000
# 6 0.0000 0.0000 0.0000 0.0000 0.0000 35.8385
#
#
#
# Elastic Compliance Matrix: (Units=1/GPa)
#
#
# Indices 1 2 3 4 5 6 
#
# 1 0.012418 -0.006722 -0.001633 0.000000 0.000000 0.000000
# 2 -0.006722 0.012418 -0.001633 0.000000 0.000000 0.000000
# 3 -0.001633 -0.001633 0.007007 0.000000 0.000000 0.000000
# 4 0.000000 0.000000 0.000000 0.035031 0.000000 0.000000
# 5 0.000000 0.000000 0.000000 0.000000 0.035032 0.000000
# 6 0.000000 0.000000 0.000000 0.000000 0.000000 0.027903
#
#
# Mechanical properties :
#
#
# Convention : Reuss Voigt Hill
#
# Bulk Modulus (GPa) = 84.28906 84.34529 84.31718
# Shear Modulus (GPa) = 32.52245 35.25035 33.88640
#
# Velocity S-wave (km/s) = 4.12383 4.29329 4.20941
# Velocity P-wave (km/s) = 8.17002 8.28737 8.22891
#
# Compressibility (1/GPa) = 0.01186394
#
# Stress axis : x y z
#
# Youngs Moduli (GPa) = 80.53100 80.53102 142.72149
#
# Poissons Ratio (x) = 0.54134 0.23312
# Poissons Ratio (y) = 0.54134 0.23312
# Poissons Ratio (z) = 0.13154 0.13154
#
# Static dielectric constant tensor:
#      x y z
#    x 1.687310 0.000000 0.000000 
#    y 0.000000 1.687320 0.000000 
#    z 0.000000 0.000000 1.664960 
# 
# From -- ./inp_files/1612.got.cif
#   From: 2010.05.17/outbox.cif.g08.bks.cpg/sg129_1_cif.got.tgz:1612.got - 2010.05.20 12:12:06.
