data_PCOD9565828
_publ_section_title
;
Structure prediction by ZEFSAII (Michael W. Deem and Ramdas Pophale) SiO2 
 PCOD9565828
Probable space group: P 4/N C C
;
_chemical_formula_sum "Si O2"
_cell_formula_units_Z 56
_cell_length_a 12.887810
_cell_length_b 12.887810
_cell_length_c 17.267999
_cell_angle_alpha 90.000000
_cell_angle_beta 90.000000
_cell_angle_gamma 90.000000
_cell_volume 2868.139459
_symmetry_space_group_name_H-M "P 4/N C C"
_symmetry_group_IT_number 130
_symmetry_cell_setting 'tetragonal'
loop_
_space_group_symop_operation_xyz
x,y,z
1/2-y,x,z
1/2-x,1/2-y,z
y,1/2-x,z
1/2+x,-y,1/2-z
-x,1/2+y,1/2-z
1/2+y,1/2+x,1/2-z
-y,-x,1/2-z
-x,-y,-z
1/2+y,-x,-z
1/2+x,1/2+y,-z
-y,1/2+x,-z
1/2-x,y,1/2+z
x,1/2-y,1/2+z
1/2-y,1/2-x,1/2+z
y,x,1/2+z
loop_
_atom_site_type_symbol
_atom_site_label
_atom_site_fract_x
_atom_site_fract_y
_atom_site_fract_z
Si Si1 0.597801 0.668777 0.854279
Si Si2 0.382334 0.965560 0.002861
Si Si3 0.372716 0.732863 0.611973
Si Si4 0.912056 0.412056 0.750000
O O1 0.708721 0.614799 0.839731
O O2 0.552566 0.668594 0.942130
O O3 0.513008 0.606935 0.803113
O O4 0.379638 0.856001 0.046956
O O5 0.327761 0.940438 0.921204
O O6 0.500000 0.000000 0.000000
O O7 0.250000 0.750000 0.620869
O O8 0.411548 0.685501 0.691973
#
# Coordination Sequence:
#
# PCOD9565828 Si02
#       4
#    16  16  16   8
#     4  10  23  44  63  93 136 173 215 272 333 392
#     4  11  21  36  66  91 124 165 213 265 326 389
#     4  11  21  41  59  93 126 160 215 271 320 380
#     4  10  25  38  68  93 122 180 216 270 325 398
#
# _framework density 19.524853
#
# number of rings (size 3 to 8) (size 9 to 14) (size 15 to 20)
#    0.000    1.429    2.857    2.143    4.000    4.571 
#    0.000    0.000    0.000    3.429    0.000    0.000 
#    0.000    0.000    0.000    0.000    0.000    0.000 
#
# Total GULP energy -312310.861348 kJ/mol
# GULP energy per Si atom -5576.979667 kJ/mol
# Density = 1.948041 g / cm^3
# Si number density = 19.524853 Si / 1000 Ang^3
#
#
#
# Elastic Constant Matrix: (Units=GPa)
#
#
# Indices 1 2 3 4 5 6 
#
# 1 91.1203 54.1366 25.9861 0.0000 0.0000 0.0000
# 2 54.1366 91.1203 25.9861 0.0000 0.0000 0.0000
# 3 25.9861 25.9861 79.3639 0.0000 0.0000 0.0000
# 4 0.0000 0.0000 0.0000 23.0433 0.0000 0.0000
# 5 0.0000 0.0000 0.0000 0.0000 23.0433 0.0000
# 6 0.0000 0.0000 0.0000 0.0000 0.0000 35.1938
#
#
#
# Elastic Compliance Matrix: (Units=1/GPa)
#
#
# Indices 1 2 3 4 5 6 
#
# 1 0.017418 -0.009621 -0.002553 0.000000 0.000000 0.000000
# 2 -0.009621 0.017418 -0.002553 0.000000 0.000000 0.000000
# 3 -0.002553 -0.002553 0.014272 0.000000 0.000000 0.000000
# 4 0.000000 0.000000 0.000000 0.043396 0.000000 0.000000
# 5 0.000000 0.000000 0.000000 0.000000 0.043396 0.000000
# 6 0.000000 0.000000 0.000000 0.000000 0.000000 0.028414
#
#
# Mechanical properties :
#
#
# Convention : Reuss Voigt Hill
#
# Bulk Modulus (GPa) = 50.87777 52.64693 51.76235
# Shear Modulus (GPa) = 24.95983 26.62247 25.79115
#
# Velocity S-wave (km/s) = 3.57930 3.69659 3.63842
# Velocity P-wave (km/s) = 6.57239 6.72624 6.64976
#
# Compressibility (1/GPa) = 0.01965495
#
# Stress axis : x y z
#
# Youngs Moduli (GPa) = 57.41052 57.41052 70.06618
#
# Poissons Ratio (x) = 0.55232 0.17890
# Poissons Ratio (y) = 0.55232 0.17890
# Poissons Ratio (z) = 0.14658 0.14658
#
# Static dielectric constant tensor:
#      x y z
#    x 1.684780 0.000000 0.000000 
#    y 0.000000 1.684780 0.000000 
#    z 0.000000 0.000000 1.675630 
# 
# From -- ./inp_files/3429.got.cif
#   From: 2010.05.17/outbox.cif.g08.bks.cpg/sg130_2_cif.got.tgz:3429.got - 2010.05.20 12:17:35.
