data_PCOD9565555
_publ_section_title
;
Structure prediction by ZEFSAII (Michael W. Deem and Ramdas Pophale) SiO2 
 PCOD9565555
Probable space group: P 4/N C C
;
_chemical_formula_sum "Si O2"
_cell_formula_units_Z 96
_cell_length_a 14.799376
_cell_length_b 14.799376
_cell_length_c 20.561048
_cell_angle_alpha 90.000000
_cell_angle_beta 90.000000
_cell_angle_gamma 90.000000
_cell_volume 4503.312191
_symmetry_space_group_name_H-M "P 4/N C C"
_symmetry_group_IT_number 130
_symmetry_cell_setting 'tetragonal'
loop_
_space_group_symop_operation_xyz
x,y,z
1/2-y,x,z
1/2-x,1/2-y,z
y,1/2-x,z
1/2+x,-y,1/2-z
-x,1/2+y,1/2-z
1/2+y,1/2+x,1/2-z
-y,-x,1/2-z
-x,-y,-z
1/2+y,-x,-z
1/2+x,1/2+y,-z
-y,1/2+x,-z
1/2-x,y,1/2+z
x,1/2-y,1/2+z
1/2-y,1/2-x,1/2+z
y,x,1/2+z
loop_
_atom_site_type_symbol
_atom_site_label
_atom_site_fract_x
_atom_site_fract_y
_atom_site_fract_z
Si Si1 0.250000 0.250000 0.104576
Si Si2 0.868238 0.837630 0.731933
Si Si3 0.564401 0.286086 0.960904
Si Si4 0.009444 0.509444 0.750000
Si Si5 0.750000 0.250000 0.000000
Si Si6 0.159249 0.408488 0.048191
Si Si7 0.453038 0.531898 0.105688
Si Si8 0.845020 0.583952 0.584979
O O1 0.227973 0.357832 0.094732
O O2 0.768089 0.872649 0.753604
O O3 0.865592 0.837949 0.653190
O O4 0.952576 0.904519 0.749209
O O5 0.588183 0.382437 0.930163
O O6 0.490308 0.232940 0.918760
O O7 0.656518 0.230820 0.963820
O O8 0.507365 0.305240 0.026519
O O9 0.045004 0.550423 0.817163
O O10 0.062179 0.416342 0.081013
O O11 0.144411 0.352231 0.980234
O O12 0.558612 0.534030 0.086038
#
# Coordination Sequence:
#
# PCOD9565555 Si02
#       8
#     4  16  16   8   4  16  16  16
#     4  12  24  32  60  88 134 164 184 232 340 378
#     4  10  21  38  66  96 119 157 217 273 316 377
#     4  11  21  37  61  90 124 156 203 250 310 379
#     4  10  22  44  62  84 122 170 212 266 324 362
#     4  12  24  36  60  94 128 172 200 248 316 402
#     4  11  21  36  54  90 122 156 192 245 310 384
#     4  10  22  39  59  80 121 160 200 253 299 363
#     4  10  18  35  63  90 120 150 195 257 319 372
#
# _framework density 21.317641999999999
#
# number of rings (size 3 to 8) (size 9 to 14) (size 15 to 20)
#    0.000    1.500    1.667    7.000    0.000    0.000 
#    3.000    1.667    0.000    1.000    0.000    0.000 
#    0.000    0.000    0.000    0.000    0.000    0.000 
#
# Total GULP energy -534649.773472 kJ/mol
# GULP energy per Si atom -5569.268474 kJ/mol
# Density = 2.126912 g / cm^3
# Si number density = 21.317642 Si / 1000 Ang^3
#
#
#
# Elastic Constant Matrix: (Units=GPa)
#
#
# Indices 1 2 3 4 5 6 
#
# 1 100.5799 47.4667 14.8222 0.0000 0.0000 0.0000
# 2 47.4667 100.5799 14.8222 0.0000 0.0000 0.0000
# 3 14.8222 14.8222 68.5466 0.0000 0.0000 0.0000
# 4 0.0000 0.0000 0.0000 14.8146 0.0000 0.0000
# 5 0.0000 0.0000 0.0000 0.0000 14.8146 0.0000
# 6 0.0000 0.0000 0.0000 0.0000 0.0000 34.0560
#
#
#
# Elastic Compliance Matrix: (Units=1/GPa)
#
#
# Indices 1 2 3 4 5 6 
#
# 1 0.012944 -0.005884 -0.001527 0.000000 0.000000 0.000000
# 2 -0.005884 0.012944 -0.001527 0.000000 0.000000 0.000000
# 3 -0.001527 -0.001527 0.015249 0.000000 0.000000 0.000000
# 4 0.000000 0.000000 0.000000 0.067501 0.000000 0.000000
# 5 0.000000 0.000000 0.000000 0.000000 0.067501 0.000000
# 6 0.000000 0.000000 0.000000 0.000000 0.000000 0.029363
#
#
# Mechanical properties :
#
#
# Convention : Reuss Voigt Hill
#
# Bulk Modulus (GPa) = 42.98719 47.10320 45.04520
# Shear Modulus (GPa) = 21.63275 25.57671 23.60473
#
# Velocity S-wave (km/s) = 3.18902 3.46756 3.33120
# Velocity P-wave (km/s) = 5.81108 6.17866 5.99768
#
# Compressibility (1/GPa) = 0.02326274
#
# Stress axis : x y z
#
# Youngs Moduli (GPa) = 77.25573 77.25573 65.57859
#
# Poissons Ratio (x) = 0.45455 0.10012
# Poissons Ratio (y) = 0.45455 0.10012
# Poissons Ratio (z) = 0.11795 0.11795
#
# Static dielectric constant tensor:
#      x y z
#    x 1.807030 0.000000 0.000000 
#    y 0.000000 1.807030 0.000000 
#    z 0.000000 0.000000 1.844170 
# 
# From -- ./inp_files/3860.got.cif
#   From: 2010.05.17/outbox.cif.g08.bks.cpg/sg130_2_cif.got.tgz:3860.got - 2010.05.20 12:17:35.
