data_PCOD9565582
_publ_section_title
;
Structure prediction by ZEFSAII (Michael W. Deem and Ramdas Pophale) SiO2 
 PCOD9565582
Probable space group: P 4/N C C
;
_chemical_formula_sum "Si O2"
_cell_formula_units_Z 112
_cell_length_a 16.141027
_cell_length_b 16.141027
_cell_length_c 22.577050
_cell_angle_alpha 90.000000
_cell_angle_beta 90.000000
_cell_angle_gamma 90.000000
_cell_volume 5882.060982
_symmetry_space_group_name_H-M "P 4/N C C"
_symmetry_group_IT_number 130
_symmetry_cell_setting 'tetragonal'
loop_
_space_group_symop_operation_xyz
x,y,z
1/2-y,x,z
1/2-x,1/2-y,z
y,1/2-x,z
1/2+x,-y,1/2-z
-x,1/2+y,1/2-z
1/2+y,1/2+x,1/2-z
-y,-x,1/2-z
-x,-y,-z
1/2+y,-x,-z
1/2+x,1/2+y,-z
-y,1/2+x,-z
1/2-x,y,1/2+z
x,1/2-y,1/2+z
1/2-y,1/2-x,1/2+z
y,x,1/2+z
loop_
_atom_site_type_symbol
_atom_site_label
_atom_site_fract_x
_atom_site_fract_y
_atom_site_fract_z
Si Si1 0.191360 0.121967 0.555422
Si Si2 0.389702 0.434694 0.221173
Si Si3 0.216747 0.655744 0.653616
Si Si4 0.715012 0.523602 0.325522
Si Si5 0.670266 0.164723 0.477696
Si Si6 0.591872 0.997328 0.026638
Si Si7 0.965818 0.096975 0.834552
O O1 0.289301 0.144300 0.555652
O O2 0.181703 0.060356 0.611878
O O3 0.151089 0.072821 0.500373
O O4 0.302070 0.431174 0.187885
O O5 0.443278 0.352074 0.220775
O O6 0.441241 0.504522 0.185722
O O7 0.372767 0.468024 0.286957
O O8 0.250000 0.750000 0.663595
O O9 0.267685 0.575638 0.677395
O O10 0.208807 0.635192 0.583484
O O11 0.120316 0.647975 0.673018
O O12 0.654551 0.262411 0.471480
O O13 0.585589 0.125395 0.493794
O O14 0.595780 0.002408 0.098160
O O15 0.500000 0.000000 0.000000
#
# Coordination Sequence:
#
# PCOD9565582 Si02
#       7
#    16  16  16  16  16  16  16
#     4  11  24  41  64  95 130 168 225 281 322 387
#     4  10  21  43  65  91 124 167 221 281 323 385
#     4  10  20  37  62  94 132 165 209 264 324 390
#     4  11  21  39  70  92 123 169 223 273 323 389
#     4  10  19  34  56  91 128 169 207 253 305 381
#     4  11  24  38  64  92 130 178 213 264 341 410
#     4   9  22  44  59  91 136 165 214 276 329 397
#
# _framework density 19.040944
#
# number of rings (size 3 to 8) (size 9 to 14) (size 15 to 20)
#    0.000    1.714    2.857    1.714    6.000    0.286 
#    7.714    5.000    0.000    0.000    0.000    0.000 
#    0.000    0.000    0.000    0.000    0.000    0.000 
#
# Total GULP energy -624010.837206 kJ/mol
# GULP energy per Si atom -5571.525332 kJ/mol
# Density = 1.899761 g / cm^3
# Si number density = 19.040944 Si / 1000 Ang^3
#
#
#
# Elastic Constant Matrix: (Units=GPa)
#
#
# Indices 1 2 3 4 5 6 
#
# 1 90.6823 76.5373 33.1956 0.0000 0.0000 0.0000
# 2 76.5373 90.6823 33.1956 0.0000 0.0000 0.0000
# 3 33.1956 33.1956 81.4213 0.0000 0.0000 0.0000
# 4 0.0000 0.0000 0.0000 25.7807 0.0000 0.0000
# 5 0.0000 0.0000 0.0000 0.0000 25.7807 0.0000
# 6 0.0000 0.0000 0.0000 0.0000 0.0000 15.7089
#
#
#
# Elastic Compliance Matrix: (Units=1/GPa)
#
#
# Indices 1 2 3 4 5 6 
#
# 1 0.038916 -0.031781 -0.002909 0.000000 0.000000 0.000000
# 2 -0.031781 0.038916 -0.002909 0.000000 0.000000 0.000000
# 3 -0.002909 -0.002909 0.014654 0.000000 0.000000 0.000000
# 4 0.000000 0.000000 0.000000 0.038789 0.000000 0.000000
# 5 0.000000 0.000000 0.000000 0.000000 0.038789 0.000000
# 6 0.000000 0.000000 0.000000 0.000000 0.000000 0.063658
#
#
# Mechanical properties :
#
#
# Convention : Reuss Voigt Hill
#
# Bulk Modulus (GPa) = 57.84343 60.96031 59.40187
# Shear Modulus (GPa) = 15.88912 21.44457 18.66684
#
# Velocity S-wave (km/s) = 2.89186 3.35958 3.13446
# Velocity P-wave (km/s) = 6.44941 6.86542 6.66066
#
# Compressibility (1/GPa) = 0.01728805
#
# Stress axis : x y z
#
# Youngs Moduli (GPa) = 25.69654 25.69654 68.24168
#
# Poissons Ratio (x) = 0.81665 0.19851
# Poissons Ratio (y) = 0.81665 0.19851
# Poissons Ratio (z) = 0.07475 0.07475
#
# Static dielectric constant tensor:
#      x y z
#    x 2.932050 0.000000 0.000000 
#    y 0.000000 2.932050 0.000000 
#    z 0.000000 0.000000 1.676740 
# 
# From -- ./inp_files/4275.got.cif
#   From: 2010.05.17/outbox.cif.g08.bks.cpg/sg130_3_cif.got.tgz:4275.got - 2010.05.20 12:17:35.
