data_PCOD9565627
_publ_section_title
;
Structure prediction by ZEFSAII (Michael W. Deem and Ramdas Pophale) SiO2 
 PCOD9565627
Probable space group: P 4/N C C
;
_chemical_formula_sum "Si O2"
_cell_formula_units_Z 92
_cell_length_a 15.343727
_cell_length_b 15.343727
_cell_length_c 21.374993
_cell_angle_alpha 90.000000
_cell_angle_beta 90.000000
_cell_angle_gamma 90.000000
_cell_volume 5032.313710
_symmetry_space_group_name_H-M "P 4/N C C"
_symmetry_group_IT_number 130
_symmetry_cell_setting 'tetragonal'
loop_
_space_group_symop_operation_xyz
x,y,z
1/2-y,x,z
1/2-x,1/2-y,z
y,1/2-x,z
1/2+x,-y,1/2-z
-x,1/2+y,1/2-z
1/2+y,1/2+x,1/2-z
-y,-x,1/2-z
-x,-y,-z
1/2+y,-x,-z
1/2+x,1/2+y,-z
-y,1/2+x,-z
1/2-x,y,1/2+z
x,1/2-y,1/2+z
1/2-y,1/2-x,1/2+z
y,x,1/2+z
loop_
_atom_site_type_symbol
_atom_site_label
_atom_site_fract_x
_atom_site_fract_y
_atom_site_fract_z
Si Si1 0.750000 0.750000 0.374018
Si Si2 0.250000 0.750000 0.886011
Si Si3 0.155601 0.910524 0.548243
Si Si4 0.820346 0.501781 0.077549
Si Si5 0.637291 0.538810 0.036817
Si Si6 0.389699 0.623278 0.323664
Si Si7 0.456486 0.285171 0.603030
O O1 0.642347 0.732111 0.376808
O O2 0.320101 0.695371 0.926672
O O3 0.188195 0.689033 0.843728
O O4 0.051795 0.910934 0.549529
O O5 0.180250 0.926630 0.475818
O O6 0.196917 0.988908 0.588281
O O7 0.722483 0.536182 0.080557
O O8 0.880002 0.577591 0.050742
O O9 0.863215 0.464008 0.139390
O O10 0.667340 0.542875 0.964727
O O11 0.390458 0.609543 0.250000
O O12 0.481274 0.660439 0.350160
#
# Coordination Sequence:
#
# PCOD9565627 Si02
#       7
#     4   8  16  16  16  16  16
#     4  12  24  44  60  92 138 164 220 248 312 398
#     4  10  21  39  64  96 125 159 196 268 328 371
#     4  10  20  34  62  97 126 154 203 256 326 376
#     4  11  23  36  62  89 127 163 201 259 312 387
#     4  11  21  37  60  94 129 157 206 257 322 376
#     4  11  23  41  62  90 123 162 213 258 313 371
#     4  10  23  37  64  91 127 171 200 260 318 383
#
# _framework density 18.281849999999999
#
# number of rings (size 3 to 8) (size 9 to 14) (size 15 to 20)
#    0.000    1.391    3.478    2.870    2.435    1.043 
#    0.000    1.739    0.000    0.000    0.000    0.000 
#    0.000    0.000    0.000    0.000    0.000    0.000 
#
# Total GULP energy -512802.126835 kJ/mol
# GULP energy per Si atom -5573.936161 kJ/mol
# Density = 1.824024 g / cm^3
# Si number density = 18.281850 Si / 1000 Ang^3
#
#
#
# Elastic Constant Matrix: (Units=GPa)
#
#
# Indices 1 2 3 4 5 6 
#
# 1 120.1306 52.5349 36.2943 0.0000 0.0000 0.0000
# 2 52.5349 120.1306 36.2943 0.0000 0.0000 0.0000
# 3 36.2943 36.2943 85.1093 0.0000 0.0000 0.0000
# 4 0.0000 0.0000 0.0000 0.6799 0.0000 0.0000
# 5 0.0000 0.0000 0.0000 0.0000 0.6813 0.0000
# 6 0.0000 0.0000 0.0000 0.0000 0.0000 39.5189
#
#
#
# Elastic Compliance Matrix: (Units=1/GPa)
#
#
# Indices 1 2 3 4 5 6 
#
# 1 0.010925 -0.003869 -0.003009 0.000000 0.000000 0.000000
# 2 -0.003869 0.010925 -0.003009 0.000000 0.000000 0.000000
# 3 -0.003009 -0.003009 0.014316 0.000000 0.000000 0.000000
# 4 0.000000 0.000000 0.000000 1.470813 0.000000 0.000000
# 5 0.000000 0.000000 0.000000 0.000000 1.467873 0.000000
# 6 0.000000 0.000000 0.000000 0.000000 0.000000 0.025304
#
#
# Mechanical properties :
#
#
# Convention : Reuss Voigt Hill
#
# Bulk Modulus (GPa) = 61.00389 63.95751 62.48070
# Shear Modulus (GPa) = 1.65268 21.52581 11.58924
#
# Velocity S-wave (km/s) = 0.95182 3.43511 2.52051
# Velocity P-wave (km/s) = 5.88634 7.12695 6.53614
#
# Compressibility (1/GPa) = 0.01639240
#
# Stress axis : x y z
#
# Youngs Moduli (GPa) = 91.53112 91.53115 69.85117
#
# Poissons Ratio (x) = 0.35410 0.21020
# Poissons Ratio (y) = 0.35410 0.21020
# Poissons Ratio (z) = 0.27544 0.27544
#
# Static dielectric constant tensor:
#      x y z
#    x 1.654930 0.000000 0.000000 
#    y 0.000000 1.654930 0.000000 
#    z 0.000000 0.000000 1.600250 
# 
# From -- ./inp_files/3814.got.cif
#   From: 2010.05.17/outbox.cif.g08.bks.cpg/sg130_2_cif.got.tgz:3814.got - 2010.05.20 12:17:35.
