data_PCOD9565670
_publ_section_title
;
Structure prediction by ZEFSAII (Michael W. Deem and Ramdas Pophale) SiO2 
 PCOD9565670
Probable space group: P 4/N C C
;
_chemical_formula_sum "Si O2"
_cell_formula_units_Z 72
_cell_length_a 19.685630
_cell_length_b 19.685630
_cell_length_c 8.346894
_cell_angle_alpha 90.000000
_cell_angle_beta 90.000000
_cell_angle_gamma 90.000000
_cell_volume 3234.621988
_symmetry_space_group_name_H-M "P 4/N C C"
_symmetry_group_IT_number 130
_symmetry_cell_setting 'tetragonal'
loop_
_space_group_symop_operation_xyz
x,y,z
1/2-y,x,z
1/2-x,1/2-y,z
y,1/2-x,z
1/2+x,-y,1/2-z
-x,1/2+y,1/2-z
1/2+y,1/2+x,1/2-z
-y,-x,1/2-z
-x,-y,-z
1/2+y,-x,-z
1/2+x,1/2+y,-z
-y,1/2+x,-z
1/2-x,y,1/2+z
x,1/2-y,1/2+z
1/2-y,1/2-x,1/2+z
y,x,1/2+z
loop_
_atom_site_type_symbol
_atom_site_label
_atom_site_fract_x
_atom_site_fract_y
_atom_site_fract_z
Si Si1 0.250000 0.250000 0.848595
Si Si2 0.250000 0.750000 0.000000
Si Si3 0.309189 0.103447 0.258445
Si Si4 0.167378 0.436115 0.597997
Si Si5 0.564303 0.172660 0.300549
Si Si6 0.809336 0.391303 0.856123
O O1 0.212814 0.175242 0.839612
O O2 0.219870 0.682744 0.086496
O O3 0.329256 0.055706 0.406960
O O4 0.244043 0.079869 0.158541
O O5 0.372070 0.120700 0.144170
O O6 0.145111 0.500579 0.702024
O O7 0.629866 0.129866 0.250000
O O8 0.562751 0.173135 0.491752
O O9 0.575906 0.249744 0.245889
O O10 0.874197 0.374197 0.750000
#
# Coordination Sequence:
#
# PCOD9565670 Si02
#       6
#     4   4  16  16  16  16
#     4   8  16  30  60  86 112 130 180 258 300 346
#     4  12  18  32  58  88 114 148 194 264 314 336
#     4  10  20  38  59  93 115 152 197 248 316 351
#     4  11  23  38  64  87 123 155 198 257 299 368
#     4  12  23  39  57  91 123 161 203 241 302 367
#     4  12  21  35  60  88 122 155 199 261 310 354
#
# _framework density 22.259169
#
# number of rings (size 3 to 8) (size 9 to 14) (size 15 to 20)
#    0.000    0.889    4.444    4.333    0.000    3.556 
#    0.000    1.111    0.000    1.333    0.000    0.000 
#    0.000    0.000    0.000    0.000    0.000    0.000 
#
# Total GULP energy -401751.820555 kJ/mol
# GULP energy per Si atom -5579.886397 kJ/mol
# Density = 2.220851 g / cm^3
# Si number density = 22.259169 Si / 1000 Ang^3
#
#
#
# Elastic Constant Matrix: (Units=GPa)
#
#
# Indices 1 2 3 4 5 6 
#
# 1 33.7324 5.4035 -3.3458 0.0000 0.0000 0.0000
# 2 5.4035 33.7324 -3.3458 0.0000 0.0000 0.0000
# 3 -3.3458 -3.3458 65.4170 0.0000 0.0000 0.0000
# 4 0.0000 0.0000 0.0000 21.2644 0.0000 0.0000
# 5 0.0000 0.0000 0.0000 0.0000 21.2644 0.0000
# 6 0.0000 0.0000 0.0000 0.0000 0.0000 17.5040
#
#
#
# Elastic Compliance Matrix: (Units=1/GPa)
#
#
# Indices 1 2 3 4 5 6 
#
# 1 0.030538 -0.004761 0.001318 0.000000 0.000000 0.000000
# 2 -0.004761 0.030538 0.001318 0.000000 0.000000 0.000000
# 3 0.001318 0.001318 0.015421 0.000000 0.000000 0.000000
# 4 0.000000 0.000000 0.000000 0.047027 0.000000 0.000000
# 5 0.000000 0.000000 0.000000 0.000000 0.047027 0.000000
# 6 0.000000 0.000000 0.000000 0.000000 0.000000 0.057130
#
#
# Mechanical properties :
#
#
# Convention : Reuss Voigt Hill
#
# Bulk Modulus (GPa) = 13.84084 14.47838 14.15961
# Shear Modulus (GPa) = 19.53017 20.95121 20.24069
#
# Velocity S-wave (km/s) = 2.96531 3.07129 3.01876
# Velocity P-wave (km/s) = 4.23740 4.36986 4.30414
#
# Compressibility (1/GPa) = 0.07224993
#
# Stress axis : x y z
#
# Youngs Moduli (GPa) = 32.74555 32.74555 64.84488
#
# Poissons Ratio (x) = 0.15590 -0.08549
# Poissons Ratio (y) = 0.15590 -0.08549
# Poissons Ratio (z) = -0.04317 -0.04317
#
# Static dielectric constant tensor:
#      x y z
#    x 1.812430 0.000000 0.000000 
#    y 0.000000 1.812430 0.000000 
#    z 0.000000 0.000000 1.867700 
# 
# From -- ./inp_files/808.got.cif
#   From: 2010.05.17/outbox.cif.g08.bks.cpg/sg130_1_cif.got.tgz:808.got - 2010.05.20 12:17:35.
