data_PCOD9565754
_publ_section_title
;
Structure prediction by ZEFSAII (Michael W. Deem and Ramdas Pophale) SiO2 
 PCOD9565754
Probable space group: P 4/N C C
;
_chemical_formula_sum "Si O2"
_cell_formula_units_Z 48
_cell_length_a 12.977970
_cell_length_b 12.977970
_cell_length_c 10.952354
_cell_angle_alpha 90.000000
_cell_angle_beta 90.000000
_cell_angle_gamma 90.000000
_cell_volume 1844.679852
_symmetry_space_group_name_H-M "P 4/N C C"
_symmetry_group_IT_number 130
_symmetry_cell_setting 'tetragonal'
loop_
_space_group_symop_operation_xyz
x,y,z
1/2-y,x,z
1/2-x,1/2-y,z
y,1/2-x,z
1/2+x,-y,1/2-z
-x,1/2+y,1/2-z
1/2+y,1/2+x,1/2-z
-y,-x,1/2-z
-x,-y,-z
1/2+y,-x,-z
1/2+x,1/2+y,-z
-y,1/2+x,-z
1/2-x,y,1/2+z
x,1/2-y,1/2+z
1/2-y,1/2-x,1/2+z
y,x,1/2+z
loop_
_atom_site_type_symbol
_atom_site_label
_atom_site_fract_x
_atom_site_fract_y
_atom_site_fract_z
Si Si1 0.964449 0.881288 0.500667
Si Si2 0.378595 0.044979 0.231349
Si Si3 0.129696 0.721359 0.858772
O O1 0.892885 0.874918 0.379847
O O2 0.918235 0.851370 0.631759
O O3 0.071002 0.820645 0.477162
O O4 0.000000 0.000000 0.500000
O O5 0.486726 0.986726 0.250000
O O6 0.304995 0.951478 0.189903
O O7 0.250000 0.750000 0.874567
O O8 0.138304 0.638304 0.750000
#
# Coordination Sequence:
#
# PCOD9565754 Si02
#       3
#    16  16  16
#     4  10  23  41  63  92 148 193 229 285 368 428
#     4  10  21  42  59  95 137 187 234 283 364 420
#     4  11  22  40  66 104 147 178 237 305 352 425
#
# _framework density 26.020772999999998
#
# number of rings (size 3 to 8) (size 9 to 14) (size 15 to 20)
#    0.000    1.667    3.333    3.000    0.000    9.333 
#    0.000    0.000    0.000    1.000    0.000    9.333 
#    0.000    1.333    0.000    0.000    0.000    0.000 
#
# Total GULP energy -268023.724697 kJ/mol
# GULP energy per Si atom -5583.827598 kJ/mol
# Density = 2.596155 g / cm^3
# Si number density = 26.020773 Si / 1000 Ang^3
#
#
#
# Elastic Constant Matrix: (Units=GPa)
#
#
# Indices 1 2 3 4 5 6 
#
# 1 87.3884 74.2982 48.8958 0.0000 0.0000 0.0000
# 2 74.2982 87.3884 48.8958 0.0000 0.0000 0.0000
# 3 48.8958 48.8958 277.7418 0.0000 0.0000 0.0000
# 4 0.0000 0.0000 0.0000 29.2233 0.0000 0.0000
# 5 0.0000 0.0000 0.0000 0.0000 29.2233 0.0000
# 6 0.0000 0.0000 0.0000 0.0000 0.0000 60.8774
#
#
#
# Elastic Compliance Matrix: (Units=1/GPa)
#
#
# Indices 1 2 3 4 5 6 
#
# 1 0.041657 -0.034735 -0.001219 0.000000 0.000000 0.000000
# 2 -0.034735 0.041657 -0.001219 0.000000 0.000000 0.000000
# 3 -0.001219 -0.001219 0.004030 0.000000 0.000000 0.000000
# 4 0.000000 0.000000 0.000000 0.034219 0.000000 0.000000
# 5 0.000000 0.000000 0.000000 0.000000 0.034219 0.000000
# 6 0.000000 0.000000 0.000000 0.000000 0.000000 0.016426
#
#
# Mechanical properties :
#
#
# Convention : Reuss Voigt Hill
#
# Bulk Modulus (GPa) = 76.92969 88.52203 82.72586
# Shear Modulus (GPa) = 19.92928 42.56006 31.24467
#
# Velocity S-wave (km/s) = 2.77049 4.04867 3.46896
# Velocity P-wave (km/s) = 6.31372 7.47992 6.92143
#
# Compressibility (1/GPa) = 0.01299888
#
# Stress axis : x y z
#
# Youngs Moduli (GPa) = 24.00543 24.00543 248.16853
#
# Poissons Ratio (x) = 0.83384 0.30241
# Poissons Ratio (y) = 0.83384 0.30241
# Poissons Ratio (z) = 0.02925 0.02925
#
# Static dielectric constant tensor:
#      x y z
#    x 2.119280 0.000000 0.000000 
#    y 0.000000 2.119280 0.000000 
#    z 0.000000 0.000000 2.328820 
# 
# From -- ./inp_files/1325.got.cif
#   From: 2010.05.17/outbox.cif.g08.bks.cpg/sg130_1_cif.got.tgz:1325.got - 2010.05.20 12:17:35.
