data_PCOD9565686
_publ_section_title
;
Structure prediction by ZEFSAII (Michael W. Deem and Ramdas Pophale) SiO2 
 PCOD9565686
Probable space group: P 4/N C C
;
_chemical_formula_sum "Si O2"
_cell_formula_units_Z 116
_cell_length_a 17.842961
_cell_length_b 17.842961
_cell_length_c 16.536323
_cell_angle_alpha 90.000000
_cell_angle_beta 90.000000
_cell_angle_gamma 90.000000
_cell_volume 5264.689944
_symmetry_space_group_name_H-M "P 4/N C C"
_symmetry_group_IT_number 130
_symmetry_cell_setting 'tetragonal'
loop_
_space_group_symop_operation_xyz
x,y,z
1/2-y,x,z
1/2-x,1/2-y,z
y,1/2-x,z
1/2+x,-y,1/2-z
-x,1/2+y,1/2-z
1/2+y,1/2+x,1/2-z
-y,-x,1/2-z
-x,-y,-z
1/2+y,-x,-z
1/2+x,1/2+y,-z
-y,1/2+x,-z
1/2-x,y,1/2+z
x,1/2-y,1/2+z
1/2-y,1/2-x,1/2+z
y,x,1/2+z
loop_
_atom_site_type_symbol
_atom_site_label
_atom_site_fract_x
_atom_site_fract_y
_atom_site_fract_z
Si Si1 0.366406 0.299442 0.456947
Si Si2 0.250000 0.750000 0.500000
Si Si3 0.564111 0.232725 0.261605
Si Si4 0.477252 0.094810 0.258200
Si Si5 0.137465 0.998942 0.851089
Si Si6 0.587126 0.572317 0.922647
Si Si7 0.655578 0.327467 0.619499
Si Si8 0.433485 0.588250 0.992286
O O1 0.287573 0.344366 0.448622
O O2 0.433020 0.318782 0.394737
O O3 0.398664 0.334653 0.540675
O O4 0.238269 0.682600 0.561351
O O5 0.494505 0.178680 0.285377
O O6 0.536855 0.316019 0.278061
O O7 0.635915 0.214893 0.318332
O O8 0.587873 0.206147 0.172309
O O9 0.436664 0.040149 0.320066
O O10 0.433340 0.091225 0.173672
O O11 0.559978 0.059978 0.250000
O O12 0.116078 0.934377 0.914571
O O13 0.514552 0.614708 0.960091
O O14 0.568353 0.489622 0.956866
O O15 0.641248 0.394489 0.556658
#
# Coordination Sequence:
#
# PCOD9565686 Si02
#       8
#    16   4  16  16  16  16  16  16
#     4  10  23  42  62  92 132 177 218 270 332 406
#     4  12  28  46  64  96 128 186 216 272 328 422
#     4  11  24  42  68  97 129 181 216 280 340 408
#     4  12  21  42  64  97 134 170 218 279 343 395
#     4  11  24  38  66  99 132 170 224 276 337 407
#     4  10  21  36  67  94 127 164 221 272 330 394
#     4  11  24  45  68  91 136 175 224 268 341 409
#     4  10  20  39  64  98 123 167 219 278 325 395
#
# _framework density 22.033587000000001
#
# number of rings (size 3 to 8) (size 9 to 14) (size 15 to 20)
#    0.000    1.241    4.138    1.655    5.793    3.310 
#    2.483    0.000    0.000    1.655    0.000    0.000 
#    0.000    0.000    0.000    0.000    0.000    0.000 
#
# Total GULP energy -647304.910188 kJ/mol
# GULP energy per Si atom -5580.214743 kJ/mol
# Density = 2.198344 g / cm^3
# Si number density = 22.033587 Si / 1000 Ang^3
#
#
#
# Elastic Constant Matrix: (Units=GPa)
#
#
# Indices 1 2 3 4 5 6 
#
# 1 50.0828 5.5451 19.4732 0.0000 0.0000 0.0000
# 2 5.5451 50.0828 19.4732 0.0000 0.0000 0.0000
# 3 19.4732 19.4732 87.9623 0.0000 0.0000 0.0000
# 4 0.0000 0.0000 0.0000 28.1293 0.0000 0.0000
# 5 0.0000 0.0000 0.0000 0.0000 28.1293 0.0000
# 6 0.0000 0.0000 0.0000 0.0000 0.0000 23.2931
#
#
#
# Elastic Compliance Matrix: (Units=1/GPa)
#
#
# Indices 1 2 3 4 5 6 
#
# 1 0.021863 -0.000589 -0.004710 0.000000 0.000000 0.000000
# 2 -0.000589 0.021863 -0.004710 0.000000 0.000000 0.000000
# 3 -0.004710 -0.004710 0.013454 0.000000 0.000000 0.000000
# 4 0.000000 0.000000 0.000000 0.035550 0.000000 0.000000
# 5 0.000000 0.000000 0.000000 0.000000 0.035550 0.000000
# 6 0.000000 0.000000 0.000000 0.000000 0.000000 0.042931
#
#
# Mechanical properties :
#
#
# Convention : Reuss Voigt Hill
#
# Bulk Modulus (GPa) = 26.90846 30.79008 28.84927
# Shear Modulus (GPa) = 24.55590 25.48611 25.02100
#
# Velocity S-wave (km/s) = 3.34200 3.40471 3.37350
# Velocity P-wave (km/s) = 5.20874 5.42776 5.31937
#
# Compressibility (1/GPa) = 0.03716303
#
# Stress axis : x y z
#
# Youngs Moduli (GPa) = 45.73858 45.73858 74.32868
#
# Poissons Ratio (x) = 0.02696 0.35006
# Poissons Ratio (y) = 0.02696 0.35006
# Poissons Ratio (z) = 0.21541 0.21541
#
# Static dielectric constant tensor:
#      x y z
#    x 1.860490 0.000000 0.000000 
#    y 0.000000 1.860490 0.000000 
#    z 0.000000 0.000000 1.820300 
# 
# From -- ./inp_files/3239.got.cif
#   From: 2010.05.17/outbox.cif.g08.bks.cpg/sg130_2_cif.got.tgz:3239.got - 2010.05.20 12:17:35.
