data_PCOD9565810
_publ_section_title
;
Structure prediction by ZEFSAII (Michael W. Deem and Ramdas Pophale) SiO2 
 PCOD9565810
Probable space group: P 4/N C C
;
_chemical_formula_sum "Si O2"
_cell_formula_units_Z 88
_cell_length_a 12.003994
_cell_length_b 12.003994
_cell_length_c 29.535950
_cell_angle_alpha 90.000000
_cell_angle_beta 90.000000
_cell_angle_gamma 90.000000
_cell_volume 4256.008469
_symmetry_space_group_name_H-M "P 4/N C C"
_symmetry_group_IT_number 130
_symmetry_cell_setting 'tetragonal'
loop_
_space_group_symop_operation_xyz
x,y,z
1/2-y,x,z
1/2-x,1/2-y,z
y,1/2-x,z
1/2+x,-y,1/2-z
-x,1/2+y,1/2-z
1/2+y,1/2+x,1/2-z
-y,-x,1/2-z
-x,-y,-z
1/2+y,-x,-z
1/2+x,1/2+y,-z
-y,1/2+x,-z
1/2-x,y,1/2+z
x,1/2-y,1/2+z
1/2-y,1/2-x,1/2+z
y,x,1/2+z
loop_
_atom_site_type_symbol
_atom_site_label
_atom_site_fract_x
_atom_site_fract_y
_atom_site_fract_z
Si Si1 0.391397 0.673205 0.476405
Si Si2 0.166721 0.417019 0.464094
Si Si3 0.004474 0.597553 0.683877
Si Si4 0.078022 0.327915 0.217178
Si Si5 0.750000 0.250000 0.102982
Si Si6 0.176138 0.965787 0.868175
O O1 0.303266 0.614819 0.509646
O O2 0.512398 0.634865 0.491221
O O3 0.331842 0.673794 0.428108
O O4 0.107240 0.298751 0.463885
O O5 0.146938 0.484687 0.417697
O O6 0.966620 0.649536 0.731838
O O7 0.908092 0.515769 0.667488
O O8 0.115630 0.521509 0.687912
O O9 0.007757 0.699003 0.648493
O O10 0.106849 0.196747 0.210741
O O11 0.826853 0.167083 0.130195
#
# Coordination Sequence:
#
# PCOD9565810 Si02
#       6
#    16  16  16  16   8  16
#     4   9  17  36  55  76 109 149 199 225 281 362
#     4  11  22  35  56  87 117 153 199 250 298 355
#     4  11  24  38  62  99 118 158 202 255 310 367
#     4  10  22  44  66  84 122 170 203 242 304 383
#     4  10  23  40  58  85 120 164 192 257 308 352
#     4  12  22  38  62  91 128 148 201 259 312 362
#
# _framework density 20.676651
#
# number of rings (size 3 to 8) (size 9 to 14) (size 15 to 20)
#    0.000    1.636    7.273    0.000    2.545    1.091 
#    3.273    0.000    0.000    0.000    0.000    0.000 
#    0.000    0.000    0.000    0.000    0.000    0.000 
#
# Total GULP energy -490676.102825 kJ/mol
# GULP energy per Si atom -5575.864805 kJ/mol
# Density = 2.062959 g / cm^3
# Si number density = 20.676651 Si / 1000 Ang^3
#
#
#
# Elastic Constant Matrix: (Units=GPa)
#
#
# Indices 1 2 3 4 5 6 
#
# 1 61.8299 -2.7717 9.0313 0.0000 0.0000 0.0000
# 2 -2.7717 61.8299 9.0313 0.0000 0.0000 0.0000
# 3 9.0313 9.0313 41.3622 0.0000 0.0000 0.0000
# 4 0.0000 0.0000 0.0000 0.0470 0.0000 0.0000
# 5 0.0000 0.0000 0.0000 0.0000 0.0470 0.0000
# 6 0.0000 0.0000 0.0000 0.0000 0.0000 13.5322
#
#
#
# Elastic Compliance Matrix: (Units=1/GPa)
#
#
# Indices 1 2 3 4 5 6 
#
# 1 0.016812 0.001332 -0.003962 0.000000 0.000000 0.000000
# 2 0.001332 0.016812 -0.003962 0.000000 0.000000 0.000000
# 3 -0.003962 -0.003962 0.025907 0.000000 0.000000 0.000000
# 4 0.000000 0.000000 0.000000 21.260646 0.000000 0.000000
# 5 0.000000 0.000000 0.000000 0.000000 21.260646 0.000000
# 6 0.000000 0.000000 0.000000 0.000000 0.000000 0.073898
#
#
# Mechanical properties :
#
#
# Convention : Reuss Voigt Hill
#
# Bulk Modulus (GPa) = 21.57582 21.73373 21.65478
# Shear Modulus (GPa) = 0.11714 12.70733 6.41224
#
# Velocity S-wave (km/s) = 0.23828 2.48175 1.76293
# Velocity P-wave (km/s) = 3.24549 4.32968 3.82619
#
# Compressibility (1/GPa) = 0.04634817
#
# Stress axis : x y z
#
# Youngs Moduli (GPa) = 59.48201 59.48201 38.60007
#
# Poissons Ratio (x) = -0.07925 0.15292
# Poissons Ratio (y) = -0.07925 0.15292
# Poissons Ratio (z) = 0.23565 0.23565
#
# Static dielectric constant tensor:
#      x y z
#    x 1.768650 0.000000 0.000000 
#    y 0.000000 1.768650 0.000000 
#    z 0.000000 0.000000 1.747220 
# 
# From -- ./inp_files/4867.got.cif
#   From: 2010.05.17/outbox.cif.g08.bks.cpg/sg130_3_cif.got.tgz:4867.got - 2010.05.20 12:17:35.
