data_PCOD9565197
_publ_section_title
;
Structure prediction by ZEFSAII (Michael W. Deem and Ramdas Pophale) SiO2 
 PCOD9565197
Probable space group: P 4/N M M
;
_chemical_formula_sum "Si O2"
_cell_formula_units_Z 96
_cell_length_a 21.191297
_cell_length_b 21.191297
_cell_length_c 12.849811
_cell_angle_alpha 90.000000
_cell_angle_beta 90.000000
_cell_angle_gamma 90.000000
_cell_volume 5770.478356
_symmetry_space_group_name_H-M "P 4/N M M"
_symmetry_group_IT_number 129
_symmetry_cell_setting 'tetragonal'
loop_
_space_group_symop_operation_xyz
x,y,z
1/2-y,x,z
1/2-x,1/2-y,z
y,1/2-x,z
1/2+x,-y,-z
-x,1/2+y,-z
1/2+y,1/2+x,-z
-y,-x,-z
-x,-y,-z
1/2+y,-x,-z
1/2+x,1/2+y,-z
-y,1/2+x,-z
1/2-x,y,z
x,1/2-y,z
1/2-y,1/2-x,z
y,x,z
loop_
_atom_site_type_symbol
_atom_site_label
_atom_site_fract_x
_atom_site_fract_y
_atom_site_fract_z
Si Si1 0.580428 0.820997 0.601286
Si Si2 0.322350 0.853753 0.379742
Si Si3 0.820111 0.024769 0.758071
Si Si4 0.556913 0.177861 0.741004
Si Si5 0.449305 0.555347 0.124375
Si Si6 0.997566 0.402899 0.554873
O O1 0.580541 0.750000 0.561331
O O2 0.648952 0.851049 0.607728
O O3 0.545093 0.821778 0.711498
O O4 0.538370 0.865267 0.528401
O O5 0.342454 0.842454 0.500000
O O6 0.250000 0.832213 0.370814
O O7 0.323668 0.926537 0.340230
O O8 0.370075 0.822092 0.297863
O O9 0.750000 0.036057 0.805422
O O10 0.881745 0.034864 0.827323
O O11 0.537967 0.250000 0.762534
O O12 0.543047 0.126624 0.831041
O O13 0.524117 0.146407 0.640656
O O14 0.505549 0.505549 0.153504
O O15 0.445028 0.554973 0.000000
O O16 0.042410 0.457591 0.601270
O O17 0.940517 0.440517 0.500000
#
# Coordination Sequence:
#
# PCOD9565197 Si02
#       6
#    16  16  16  16  16  16
#     4  10  19  30  46  69  98 131 162 192 231 282
#     4  10  19  29  43  66  98 133 164 192 223 264
#     4   9  18  32  50  72  96 123 158 200 244 287
#     4  11  21  32  48  70  97 126 160 202 243 286
#     4  10  21  37  55  72  92 121 158 202 254 308
#     4  10  19  31  49  72  99 130 163 199 240 287
#
# _framework density 16.636403000000001
#
# number of rings (size 3 to 8) (size 9 to 14) (size 15 to 20)
#    0.000    2.000    0.000    5.500    0.000    4.667 
#    0.000    0.000    0.000    0.500    0.000    2.333 
#    0.000    3.000    0.000   12.333    0.000    0.333 
#
# Total GULP energy -534802.472093 kJ/mol
# GULP energy per Si atom -5570.859084 kJ/mol
# Density = 1.659854 g / cm^3
# Si number density = 16.636403 Si / 1000 Ang^3
#
#
#
# Elastic Constant Matrix: (Units=GPa)
#
#
# Indices 1 2 3 4 5 6 
#
# 1 3.3520 177.5399 39.8089 0.0000 0.0000 0.0000
# 2 177.5399 3.3540 39.8092 0.0000 0.0000 0.0000
# 3 39.8089 39.8092 68.3957 0.0000 0.0000 0.0000
# 4 0.0000 0.0000 0.0000 14.6214 0.0000 0.0000
# 5 0.0000 0.0000 0.0000 0.0000 14.6213 0.0000
# 6 0.0000 0.0000 0.0000 0.0000 0.0000 15.5928
#
#
#
# Elastic Compliance Matrix: (Units=1/GPa)
#
#
# Indices 1 2 3 4 5 6 
#
# 1 0.000846 0.006587 -0.004326 0.000000 0.000000 0.000000
# 2 0.006587 0.000846 -0.004326 0.000000 0.000000 0.000000
# 3 -0.004326 -0.004326 0.019656 0.000000 0.000000 0.000000
# 4 0.000000 0.000000 0.000000 0.068393 0.000000 0.000000
# 5 0.000000 0.000000 0.000000 0.000000 0.068393 0.000000
# 6 0.000000 0.000000 0.000000 0.000000 0.000000 0.064132
#
#
# Mechanical properties :
#
#
# Convention : Reuss Voigt Hill
#
# Bulk Modulus (GPa) = 58.08071 65.49087 61.78579
# Shear Modulus (GPa) = 21.53919 -3.16998 9.18460
#
# Velocity S-wave (km/s) = 3.60210 -1.38188 2.35218
# Velocity P-wave (km/s) = 7.23103 6.07498 6.67807
#
# Compressibility (1/GPa) = 0.01721742
#
# Stress axis : x y z
#
# Youngs Moduli (GPa) = 1182.70837 1182.60703 50.87424
#
# Poissons Ratio (x) = -7.78926 0.22007
# Poissons Ratio (y) = -7.78992 0.22007
# Poissons Ratio (z) = 5.11610 5.11568
#
# Static dielectric constant tensor:
#      x y z
#    x 1.598860 0.000000 0.000000 
#    y 0.000000 1.598860 0.000000 
#    z 0.000000 0.000000 1.540070 
# 
# From -- ./inp_files/3837.got.cif
#   From: 2010.05.17/outbox.cif.g08.bks.cpg/sg129_2_cif.got.tgz:3837.got - 2010.05.20 12:12:06.
