data_PCOD9565556
_publ_section_title
;
Structure prediction by ZEFSAII (Michael W. Deem and Ramdas Pophale) SiO2 
 PCOD9565556
Probable space group: P 4/N C C
;
_chemical_formula_sum "Si O2"
_cell_formula_units_Z 80
_cell_length_a 14.893466
_cell_length_b 14.893466
_cell_length_c 14.610667
_cell_angle_alpha 90.000000
_cell_angle_beta 90.000000
_cell_angle_gamma 90.000000
_cell_volume 3240.869915
_symmetry_space_group_name_H-M "P 4/N C C"
_symmetry_group_IT_number 130
_symmetry_cell_setting 'tetragonal'
loop_
_space_group_symop_operation_xyz
x,y,z
1/2-y,x,z
1/2-x,1/2-y,z
y,1/2-x,z
1/2+x,-y,1/2-z
-x,1/2+y,1/2-z
1/2+y,1/2+x,1/2-z
-y,-x,1/2-z
-x,-y,-z
1/2+y,-x,-z
1/2+x,1/2+y,-z
-y,1/2+x,-z
1/2-x,y,1/2+z
x,1/2-y,1/2+z
1/2-y,1/2-x,1/2+z
y,x,1/2+z
loop_
_atom_site_type_symbol
_atom_site_label
_atom_site_fract_x
_atom_site_fract_y
_atom_site_fract_z
Si Si1 0.904854 0.287400 0.103647
Si Si2 0.892690 0.168487 0.390347
Si Si3 0.661579 0.871705 0.287959
Si Si4 0.872840 0.978560 0.431786
Si Si5 0.479980 0.854447 0.643617
O O1 0.840339 0.209906 0.144323
O O2 0.057629 0.374712 0.285408
O O3 0.901607 0.382681 0.151747
O O4 0.881353 0.309235 0.998250
O O5 0.952142 0.247919 0.350430
O O6 0.926312 0.064917 0.390100
O O7 0.631939 0.768460 0.274648
O O8 0.770755 0.005145 0.404488
O O9 0.614545 0.895348 0.385099
O O10 0.875471 0.984150 0.541048
#
# Coordination Sequence:
#
# PCOD9565556 Si02
#       5
#    16  16  16  16  16
#     4   8  14  28  66 116 148 167 197 281 393 471
#     4   8  14  28  66 116 146 167 197 279 385 466
#     4  11  26  47  61  83 135 206 255 297 336 398
#     4   8  19  37  66 102 143 179 221 290 374 434
#     4  10  18  35  71 114 135 172 236 290 364 454
#
# _framework density 24.684732
#
# number of rings (size 3 to 8) (size 9 to 14) (size 15 to 20)
#    1.200    1.800    2.000    0.600    0.000    1.600 
#    0.000   10.000    0.000    7.200    5.200    2.800 
#    0.000    0.000    6.800    0.000    0.000    0.000 
#
# Total GULP energy -446240.340063 kJ/mol
# GULP energy per Si atom -5578.004251 kJ/mol
# Density = 2.462855 g / cm^3
# Si number density = 24.684732 Si / 1000 Ang^3
#
#
#
# Elastic Constant Matrix: (Units=GPa)
#
#
# Indices 1 2 3 4 5 6 
#
# 1 167.2127 23.3346 59.3885 0.0000 0.0000 0.0000
# 2 23.3346 167.2127 59.3885 0.0000 0.0000 0.0000
# 3 59.3885 59.3885 109.1198 0.0000 0.0000 0.0000
# 4 0.0000 0.0000 0.0000 33.4376 0.0000 0.0000
# 5 0.0000 0.0000 0.0000 0.0000 33.4376 0.0000
# 6 0.0000 0.0000 0.0000 0.0000 0.0000 -3.6569
#
#
#
# Elastic Compliance Matrix: (Units=1/GPa)
#
#
# Indices 1 2 3 4 5 6 
#
# 1 0.007446 0.000496 -0.004323 0.000000 0.000000 0.000000
# 2 0.000496 0.007446 -0.004323 0.000000 0.000000 0.000000
# 3 -0.004323 -0.004323 0.013870 0.000000 0.000000 0.000000
# 4 0.000000 0.000000 0.000000 0.029906 0.000000 0.000000
# 5 0.000000 0.000000 0.000000 0.000000 0.029906 0.000000
# 6 0.000000 0.000000 0.000000 0.000000 0.000000 -0.273455
#
#
# Mechanical properties :
#
#
# Convention : Reuss Voigt Hill
#
# Bulk Modulus (GPa) = 80.23278 80.86314 80.54796
# Shear Modulus (GPa) = -30.40879 32.73922 1.16522
#
# Velocity S-wave (km/s) = -3.51363 3.64578 0.68780
# Velocity P-wave (km/s) = 4.01407 7.10998 5.77341
#
# Compressibility (1/GPa) = 0.01246373
#
# Stress axis : x y z
#
# Youngs Moduli (GPa) = 134.29171 134.29171 72.10026
#
# Poissons Ratio (x) = -0.06663 0.31167
# Poissons Ratio (y) = -0.06663 0.31167
# Poissons Ratio (z) = 0.58051 0.58051
#
# Static dielectric constant tensor:
#      x y z
#    x 1.998730 0.000000 0.000000 
#    y 0.000000 1.998730 0.000000 
#    z 0.000000 0.000000 1.929370 
# 
# From -- ./inp_files/2452.got.cif
#   From: 2010.05.17/outbox.cif.g08.bks.cpg/sg130_2_cif.got.tgz:2452.got - 2010.05.20 12:17:35.
