data_PCOD9565946
_publ_section_title
;
Structure prediction by ZEFSAII (Michael W. Deem and Ramdas Pophale) SiO2 
 PCOD9565946
Probable space group: P 4/N C C
;
_chemical_formula_sum "Si O2"
_cell_formula_units_Z 96
_cell_length_a 14.358605
_cell_length_b 14.358605
_cell_length_c 21.741823
_cell_angle_alpha 90.000000
_cell_angle_beta 90.000000
_cell_angle_gamma 90.000000
_cell_volume 4482.501593
_symmetry_space_group_name_H-M "P 4/N C C"
_symmetry_group_IT_number 130
_symmetry_cell_setting 'tetragonal'
loop_
_space_group_symop_operation_xyz
x,y,z
1/2-y,x,z
1/2-x,1/2-y,z
y,1/2-x,z
1/2+x,-y,1/2-z
-x,1/2+y,1/2-z
1/2+y,1/2+x,1/2-z
-y,-x,1/2-z
-x,-y,-z
1/2+y,-x,-z
1/2+x,1/2+y,-z
-y,1/2+x,-z
1/2-x,y,1/2+z
x,1/2-y,1/2+z
1/2-y,1/2-x,1/2+z
y,x,1/2+z
loop_
_atom_site_type_symbol
_atom_site_label
_atom_site_fract_x
_atom_site_fract_y
_atom_site_fract_z
Si Si1 0.078894 0.921107 0.750000
Si Si2 0.750000 0.750000 0.789318
Si Si3 0.790895 0.078310 0.721186
Si Si4 0.922659 0.617805 0.809340
Si Si5 0.286254 0.645630 0.405268
Si Si6 0.593407 0.604084 0.949890
Si Si7 0.616217 0.417532 0.021514
Si Si8 0.750000 0.750000 0.469004
O O1 0.071444 0.819848 0.719577
O O2 0.991988 0.927446 0.795726
O O3 0.821871 0.660374 0.792754
O O4 0.825438 0.174563 0.750000
O O5 0.827139 0.087023 0.651498
O O6 0.834058 0.998779 0.764876
O O7 0.931031 0.627980 0.882876
O O8 0.250000 0.750000 0.389119
O O9 0.195231 0.592905 0.428459
O O10 0.357165 0.647012 0.462137
O O11 0.482002 0.618997 0.952206
O O12 0.647840 0.698250 0.965197
O O13 0.608263 0.523557 0.999808
#
# Coordination Sequence:
#
# PCOD9565946 Si02
#       8
#     8   4  16  16  16  16  16   4
#     4  12  25  42  66 103 140 182 242 294 370 441
#     4  12  25  48  72  97 150 189 240 292 373 442
#     4  12  26  43  69 104 145 181 237 302 368 431
#     4  12  24  45  71 106 138 195 240 301 366 447
#     4  12  23  44  71 100 139 182 234 293 365 434
#     4  11  25  41  69 103 143 181 244 295 354 429
#     4  11  23  44  70 105 139 186 235 298 358 429
#     4  12  25  40  72 101 138 193 240 300 345 430
#
# _framework density 21.416612000000001
#
# number of rings (size 3 to 8) (size 9 to 14) (size 15 to 20)
#    0.000    0.333    4.167    5.750    0.000    0.000 
#    0.000    0.000    0.000    1.000    0.000    0.000 
#    0.000    0.000    0.000    0.000    0.000    0.000 
#
# Total GULP energy -534666.403365 kJ/mol
# GULP energy per Si atom -5569.441702 kJ/mol
# Density = 2.136787 g / cm^3
# Si number density = 21.416612 Si / 1000 Ang^3
#
#
#
# Elastic Constant Matrix: (Units=GPa)
#
#
# Indices 1 2 3 4 5 6 
#
# 1 90.5207 15.8377 17.1164 0.0000 0.0000 0.0000
# 2 15.8377 90.5181 17.1168 0.0000 0.0000 0.0000
# 3 17.1164 17.1168 76.9547 0.0000 0.0000 0.0000
# 4 0.0000 0.0000 0.0000 -2.6661 0.0000 0.0000
# 5 0.0000 0.0000 0.0000 0.0000 -2.6588 0.0000
# 6 0.0000 0.0000 0.0000 0.0000 0.0000 52.6617
#
#
#
# Elastic Compliance Matrix: (Units=1/GPa)
#
#
# Indices 1 2 3 4 5 6 
#
# 1 0.011759 -0.001631 -0.002252 0.000000 0.000000 0.000000
# 2 -0.001631 0.011759 -0.002253 0.000000 0.000000 0.000000
# 3 -0.002252 -0.002253 0.013997 0.000000 0.000000 0.000000
# 4 0.000000 0.000000 0.000000 -0.375079 0.000000 0.000000
# 5 0.000000 0.000000 0.000000 0.000000 -0.376106 0.000000
# 6 0.000000 0.000000 0.000000 0.000000 0.000000 0.018989
#
#
# Mechanical properties :
#
#
# Convention : Reuss Voigt Hill
#
# Bulk Modulus (GPa) = 39.61793 39.79281 39.70537
# Shear Modulus (GPa) = -7.41846 23.32887 7.95520
#
# Velocity S-wave (km/s) = -1.86317 3.30402 1.92940
# Velocity P-wave (km/s) = 3.72965 5.75987 4.85213
#
# Compressibility (1/GPa) = 0.02524110
#
# Stress axis : x y z
#
# Youngs Moduli (GPa) = 85.04450 85.04171 71.44542
#
# Poissons Ratio (x) = 0.13874 0.16093
# Poissons Ratio (y) = 0.13874 0.16094
# Poissons Ratio (z) = 0.19156 0.19157
#
# Static dielectric constant tensor:
#      x y z
#    x 1.788660 0.000000 0.000000 
#    y 0.000000 1.788660 0.000000 
#    z 0.000000 0.000000 1.346240 
# 
# From -- ./inp_files/3876.got.cif
#   From: 2010.05.17/outbox.cif.g08.bks.cpg/sg130_2_cif.got.tgz:3876.got - 2010.05.20 12:17:35.
