data_PCOD9565130
_publ_section_title
;
Structure prediction by ZEFSAII (Michael W. Deem and Ramdas Pophale) SiO2 
 PCOD9565130
Probable space group: P 4/N M M
;
_chemical_formula_sum "Si O2"
_cell_formula_units_Z 72
_cell_length_a 18.241375
_cell_length_b 18.241375
_cell_length_c 13.000719
_cell_angle_alpha 90.000000
_cell_angle_beta 90.000000
_cell_angle_gamma 90.000000
_cell_volume 4325.960150
_symmetry_space_group_name_H-M "P 4/N M M"
_symmetry_group_IT_number 129
_symmetry_cell_setting 'tetragonal'
loop_
_space_group_symop_operation_xyz
x,y,z
1/2-y,x,z
1/2-x,1/2-y,z
y,1/2-x,z
1/2+x,-y,-z
-x,1/2+y,-z
1/2+y,1/2+x,-z
-y,-x,-z
-x,-y,-z
1/2+y,-x,-z
1/2+x,1/2+y,-z
-y,1/2+x,-z
1/2-x,y,z
x,1/2-y,z
1/2-y,1/2-x,z
y,x,z
loop_
_atom_site_type_symbol
_atom_site_label
_atom_site_fract_x
_atom_site_fract_y
_atom_site_fract_z
Si Si1 0.336516 0.047023 0.384732
Si Si2 0.481166 0.667302 0.388930
Si Si3 0.330335 0.830335 0.500000
Si Si4 0.834465 0.333660 0.875925
Si Si5 0.051758 0.937405 0.763545
O O1 0.250000 0.045116 0.362874
O O2 0.373693 0.126308 0.372021
O O3 0.346956 0.021758 0.503187
O O4 0.382238 0.992010 0.312468
O O5 0.499631 0.750000 0.355271
O O6 0.394990 0.664993 0.418911
O O7 0.488450 0.605438 0.304467
O O8 0.336347 0.750000 0.549691
O O9 0.750000 0.346909 0.843078
O O10 0.854273 0.250000 0.843485
O O11 0.889083 0.395000 0.833952
O O12 0.835103 0.335103 0.000000
O O13 0.990162 0.990162 0.813266
#
# Coordination Sequence:
#
# PCOD9565130 Si02
#       5
#    16  16   8  16  16
#     4  10  20  32  45  62  87 121 159 196 230 266
#     4  10  18  29  44  64  95 128 159 190 223 266
#     4   9  16  24  37  60  90 122 155 191 224 260
#     4   9  19  36  55  73  94 121 154 191 232 284
#     4  11  20  30  47  71  99 125 152 187 233 285
#
# _framework density 16.643704
#
# number of rings (size 3 to 8) (size 9 to 14) (size 15 to 20)
#    0.000    2.111    2.222    2.667    0.000    3.333 
#    0.000    2.222    0.000    0.000    0.000    0.000 
#    0.000    4.000    0.000   16.444    0.000    0.444 
#
# Total GULP energy -401386.993159 kJ/mol
# GULP energy per Si atom -5574.819349 kJ/mol
# Density = 1.660582 g / cm^3
# Si number density = 16.643704 Si / 1000 Ang^3
#
#
#
# Elastic Constant Matrix: (Units=GPa)
#
#
# Indices 1 2 3 4 5 6 
#
# 1 88.0158 69.3886 27.2078 0.0000 0.0000 0.0000
# 2 69.3886 88.0158 27.2078 0.0000 0.0000 0.0000
# 3 27.2078 27.2078 30.2081 0.0000 0.0000 0.0000
# 4 0.0000 0.0000 0.0000 13.4934 0.0000 0.0000
# 5 0.0000 0.0000 0.0000 0.0000 13.4934 0.0000
# 6 0.0000 0.0000 0.0000 0.0000 0.0000 32.6230
#
#
#
# Elastic Compliance Matrix: (Units=1/GPa)
#
#
# Indices 1 2 3 4 5 6 
#
# 1 0.031455 -0.022230 -0.008309 0.000000 0.000000 0.000000
# 2 -0.022230 0.031455 -0.008309 0.000000 0.000000 0.000000
# 3 -0.008309 -0.008309 0.048072 0.000000 0.000000 0.000000
# 4 0.000000 0.000000 0.000000 0.074110 0.000000 0.000000
# 5 0.000000 0.000000 0.000000 0.000000 0.074110 0.000000
# 6 0.000000 0.000000 0.000000 0.000000 0.000000 0.030653
#
#
# Mechanical properties :
#
#
# Convention : Reuss Voigt Hill
#
# Bulk Modulus (GPa) = 30.04288 50.42756 40.23522
# Shear Modulus (GPa) = 13.20487 17.41767 15.31127
#
# Velocity S-wave (km/s) = 2.81977 3.23848 3.03635
# Velocity P-wave (km/s) = 5.35642 6.65941 6.04313
#
# Compressibility (1/GPa) = 0.03328576
#
# Stress axis : x y z
#
# Youngs Moduli (GPa) = 31.79115 31.79115 20.80214
#
# Poissons Ratio (x) = 0.70671 0.17285
# Poissons Ratio (y) = 0.70671 0.17285
# Poissons Ratio (z) = 0.26417 0.26417
#
# Static dielectric constant tensor:
#      x y z
#    x 1.579630 0.000000 0.000000 
#    y 0.000000 1.579630 0.000000 
#    z 0.000000 0.000000 1.571090 
# 
# From -- ./inp_files/3555.got.cif
#   From: 2010.05.17/outbox.cif.g08.bks.cpg/sg129_2_cif.got.tgz:3555.got - 2010.05.20 12:12:06.
