data_PCOD9565173
_publ_section_title
;
Structure prediction by ZEFSAII (Michael W. Deem and Ramdas Pophale) SiO2 
 PCOD9565173
Probable space group: P 4/N M M
;
_chemical_formula_sum "Si O2"
_cell_formula_units_Z 88
_cell_length_a 18.376471
_cell_length_b 18.376471
_cell_length_c 15.860805
_cell_angle_alpha 90.000000
_cell_angle_beta 90.000000
_cell_angle_gamma 90.000000
_cell_volume 5356.109571
_symmetry_space_group_name_H-M "P 4/N M M"
_symmetry_group_IT_number 129
_symmetry_cell_setting 'tetragonal'
loop_
_space_group_symop_operation_xyz
x,y,z
1/2-y,x,z
1/2-x,1/2-y,z
y,1/2-x,z
1/2+x,-y,-z
-x,1/2+y,-z
1/2+y,1/2+x,-z
-y,-x,-z
-x,-y,-z
1/2+y,-x,-z
1/2+x,1/2+y,-z
-y,1/2+x,-z
1/2-x,y,z
x,1/2-y,z
1/2-y,1/2-x,z
y,x,z
loop_
_atom_site_type_symbol
_atom_site_label
_atom_site_fract_x
_atom_site_fract_y
_atom_site_fract_z
Si Si1 0.932920 0.335964 0.936158
Si Si2 0.541287 0.958714 0.075196
Si Si3 0.975957 0.975957 0.754581
Si Si4 0.042636 0.664226 0.494238
Si Si5 0.460824 0.460824 0.580292
Si Si6 0.022292 0.668698 0.686560
Si Si7 0.668788 0.167049 0.227103
O O1 0.937193 0.250000 0.957107
O O2 0.891903 0.342168 0.845979
O O3 0.011447 0.376106 0.932001
O O4 0.881142 0.381142 0.000000
O O5 0.510942 0.989059 0.163645
O O6 0.500000 0.000000 0.000000
O O7 0.010181 0.010181 0.669305
O O8 0.890518 0.988643 0.747133
O O9 0.117377 0.617377 0.500000
O O10 0.053175 0.750000 0.476869
O O11 0.007854 0.657594 0.588079
O O12 0.987491 0.622166 0.431516
O O13 0.500000 0.500000 0.500000
O O14 0.000873 0.750000 0.710043
O O15 0.108744 0.660915 0.701252
O O16 0.750000 0.158744 0.261185
O O17 0.662855 0.250000 0.191899
#
# Coordination Sequence:
#
# PCOD9565173 Si02
#       7
#    16   8   8  16   8  16  16
#     4  10  19  32  51  74 104 138 175 219 269 320
#     4  10  22  36  50  79 106 136 180 227 267 308
#     4  12  18  36  56  69 103 142 178 225 261 323
#     4  10  19  32  49  74 107 136 173 220 263 321
#     4  10  18  34  52  73  95 139 184 210 254 321
#     4  10  19  30  48  73  99 135 174 213 265 316
#     4   9  17  28  42  67 102 134 168 205 250 317
#
# _framework density 16.429835000000001
#
# number of rings (size 3 to 8) (size 9 to 14) (size 15 to 20)
#    0.000    2.000    5.455    0.545    0.000    1.818 
#    0.000    2.727    0.000    0.818    0.000    2.545 
#    0.000    3.273    0.000    0.000    0.000    0.182 
#
# Total GULP energy -489961.446307 kJ/mol
# GULP energy per Si atom -5567.743708 kJ/mol
# Density = 1.639244 g / cm^3
# Si number density = 16.429835 Si / 1000 Ang^3
#
#
#
# Elastic Constant Matrix: (Units=GPa)
#
#
# Indices 1 2 3 4 5 6 
#
# 1 84.5346 54.5387 12.7991 0.0000 0.0000 0.0000
# 2 54.5387 84.5346 12.7991 0.0000 0.0000 0.0000
# 3 12.7991 12.7991 55.9379 0.0000 0.0000 0.0000
# 4 0.0000 0.0000 0.0000 16.3969 0.0000 0.0000
# 5 0.0000 0.0000 0.0000 0.0000 16.3969 0.0000
# 6 0.0000 0.0000 0.0000 0.0000 0.0000 26.1608
#
#
#
# Elastic Compliance Matrix: (Units=1/GPa)
#
#
# Indices 1 2 3 4 5 6 
#
# 1 0.020422 -0.012916 -0.001718 0.000000 0.000000 0.000000
# 2 -0.012916 0.020422 -0.001718 0.000000 0.000000 0.000000
# 3 -0.001718 -0.001718 0.018663 0.000000 0.000000 0.000000
# 4 0.000000 0.000000 0.000000 0.060987 0.000000 0.000000
# 5 0.000000 0.000000 0.000000 0.000000 0.060987 0.000000
# 6 0.000000 0.000000 0.000000 0.000000 0.000000 0.038225
#
#
# Mechanical properties :
#
#
# Convention : Reuss Voigt Hill
#
# Bulk Modulus (GPa) = 37.30528 42.80897 40.05712
# Shear Modulus (GPa) = 19.13188 21.44893 20.29041
#
# Velocity S-wave (km/s) = 3.41612 3.61707 3.51803
# Velocity P-wave (km/s) = 6.18991 6.59973 6.39810
#
# Compressibility (1/GPa) = 0.02680586
#
# Stress axis : x y z
#
# Youngs Moduli (GPa) = 48.96620 48.96620 53.58209
#
# Poissons Ratio (x) = 0.63243 0.09203
# Poissons Ratio (y) = 0.63243 0.09203
# Poissons Ratio (z) = 0.08410 0.08410
#
# Static dielectric constant tensor:
#      x y z
#    x 1.581230 0.000000 0.000000 
#    y 0.000000 1.581230 0.000000 
#    z 0.000000 0.000000 1.574620 
# 
# From -- ./inp_files/4822.got.cif
#   From: 2010.05.17/outbox.cif.g08.bks.cpg/sg129_3_cif.got.tgz:4822.got - 2010.05.20 12:12:06.
