data_PCOD9565802
_publ_section_title
;
Structure prediction by ZEFSAII (Michael W. Deem and Ramdas Pophale) SiO2 
 PCOD9565802
Probable space group: P 4/N C C
;
_chemical_formula_sum "Si O2"
_cell_formula_units_Z 116
_cell_length_a 18.652833
_cell_length_b 18.652833
_cell_length_c 16.811779
_cell_angle_alpha 90.000000
_cell_angle_beta 90.000000
_cell_angle_gamma 90.000000
_cell_volume 5849.291652
_symmetry_space_group_name_H-M "P 4/N C C"
_symmetry_group_IT_number 130
_symmetry_cell_setting 'tetragonal'
loop_
_space_group_symop_operation_xyz
x,y,z
1/2-y,x,z
1/2-x,1/2-y,z
y,1/2-x,z
1/2+x,-y,1/2-z
-x,1/2+y,1/2-z
1/2+y,1/2+x,1/2-z
-y,-x,1/2-z
-x,-y,-z
1/2+y,-x,-z
1/2+x,1/2+y,-z
-y,1/2+x,-z
1/2-x,y,1/2+z
x,1/2-y,1/2+z
1/2-y,1/2-x,1/2+z
y,x,1/2+z
loop_
_atom_site_type_symbol
_atom_site_label
_atom_site_fract_x
_atom_site_fract_y
_atom_site_fract_z
Si Si1 0.750000 0.250000 0.000000
Si Si2 0.529293 0.768527 0.482451
Si Si3 0.316145 0.963313 0.370866
Si Si4 0.881719 0.183467 0.098081
Si Si5 0.151756 0.182081 0.930548
Si Si6 0.285802 0.906309 0.743313
Si Si7 0.402074 0.341663 0.268496
Si Si8 0.804040 0.563501 0.320329
O O1 0.717777 0.185175 0.948464
O O2 0.505818 0.716386 0.554646
O O3 0.455864 0.799735 0.446191
O O4 0.582144 0.831017 0.515418
O O5 0.563907 0.723007 0.410634
O O6 0.369994 0.901112 0.394875
O O7 0.249646 0.924003 0.327725
O O8 0.348835 0.019761 0.307995
O O9 0.883405 0.222248 0.183659
O O10 0.232290 0.156194 0.944636
O O11 0.142037 0.152907 0.841075
O O12 0.346292 0.846292 0.750000
O O13 0.313938 0.981594 0.707983
O O14 0.375876 0.393168 0.198497
O O15 0.402900 0.261848 0.231338
#
# Coordination Sequence:
#
# PCOD9565802 Si02
#       8
#     4  16  16  16  16  16  16  16
#     4  12  20  36  70 100 128 184 222 276 340 392
#     4  11  24  41  62  98 143 163 218 276 340 386
#     4  11  22  41  68  94 133 181 216 275 329 397
#     4  11  23  39  64  99 135 174 222 276 333 395
#     4  11  21  38  67  93 118 172 215 265 327 400
#     4  10  22  42  66  96 132 173 230 271 325 391
#     4  11  21  43  66  92 130 167 229 270 331 396
#     4  10  24  39  63  96 129 172 212 289 325 392
#
# _framework density 19.831461000000001
#
# number of rings (size 3 to 8) (size 9 to 14) (size 15 to 20)
#    0.000    1.241    4.138    2.069    1.931    0.828 
#    0.000    4.828    0.000    0.000    0.000    0.000 
#    0.000    0.000    0.000    0.000    0.000    0.000 
#
# Total GULP energy -647209.104893 kJ/mol
# GULP energy per Si atom -5579.388835 kJ/mol
# Density = 1.978632 g / cm^3
# Si number density = 19.831461 Si / 1000 Ang^3
#
#
#
# Elastic Constant Matrix: (Units=GPa)
#
#
# Indices 1 2 3 4 5 6 
#
# 1 85.9873 62.5641 43.1747 0.0000 0.0000 0.0000
# 2 62.5641 85.9873 43.1747 0.0000 0.0000 0.0000
# 3 43.1747 43.1747 99.6437 0.0000 0.0000 0.0000
# 4 0.0000 0.0000 0.0000 27.7806 0.0000 0.0000
# 5 0.0000 0.0000 0.0000 0.0000 27.7806 0.0000
# 6 0.0000 0.0000 0.0000 0.0000 0.0000 19.8170
#
#
#
# Elastic Compliance Matrix: (Units=1/GPa)
#
#
# Indices 1 2 3 4 5 6 
#
# 1 0.025845 -0.016847 -0.003899 0.000000 0.000000 0.000000
# 2 -0.016847 0.025845 -0.003899 0.000000 0.000000 0.000000
# 3 -0.003899 -0.003899 0.013414 0.000000 0.000000 0.000000
# 4 0.000000 0.000000 0.000000 0.035996 0.000000 0.000000
# 5 0.000000 0.000000 0.000000 0.000000 0.035996 0.000000
# 6 0.000000 0.000000 0.000000 0.000000 0.000000 0.050462
#
#
# Mechanical properties :
#
#
# Convention : Reuss Voigt Hill
#
# Bulk Modulus (GPa) = 63.23000 63.27170 63.25085
# Shear Modulus (GPa) = 20.65086 23.25596 21.95341
#
# Velocity S-wave (km/s) = 3.23045 3.42816 3.33077
# Velocity P-wave (km/s) = 6.77254 6.90244 6.83780
#
# Compressibility (1/GPa) = 0.01581528
#
# Stress axis : x y z
#
# Youngs Moduli (GPa) = 38.69174 38.69174 74.54725
#
# Poissons Ratio (x) = 0.65186 0.29064
# Poissons Ratio (y) = 0.65186 0.29064
# Poissons Ratio (z) = 0.15085 0.15085
#
# Static dielectric constant tensor:
#      x y z
#    x 1.715490 0.000000 0.000000 
#    y 0.000000 1.715490 0.000000 
#    z 0.000000 0.000000 1.728840 
# 
# From -- ./inp_files/3217.got.cif
#   From: 2010.05.17/outbox.cif.g08.bks.cpg/sg130_2_cif.got.tgz:3217.got - 2010.05.20 12:17:35.
