data_PCOD9565599
_publ_section_title
;
Structure prediction by ZEFSAII (Michael W. Deem and Ramdas Pophale) SiO2 
 PCOD9565599
Probable space group: P 4/N C C
;
_chemical_formula_sum "Si O2"
_cell_formula_units_Z 112
_cell_length_a 13.957131
_cell_length_b 13.957131
_cell_length_c 23.621937
_cell_angle_alpha 90.000000
_cell_angle_beta 90.000000
_cell_angle_gamma 90.000000
_cell_volume 4601.588896
_symmetry_space_group_name_H-M "P 4/N C C"
_symmetry_group_IT_number 130
_symmetry_cell_setting 'tetragonal'
loop_
_space_group_symop_operation_xyz
x,y,z
1/2-y,x,z
1/2-x,1/2-y,z
y,1/2-x,z
1/2+x,-y,1/2-z
-x,1/2+y,1/2-z
1/2+y,1/2+x,1/2-z
-y,-x,1/2-z
-x,-y,-z
1/2+y,-x,-z
1/2+x,1/2+y,-z
-y,1/2+x,-z
1/2-x,y,1/2+z
x,1/2-y,1/2+z
1/2-y,1/2-x,1/2+z
y,x,1/2+z
loop_
_atom_site_type_symbol
_atom_site_label
_atom_site_fract_x
_atom_site_fract_y
_atom_site_fract_z
Si Si1 0.082820 0.948289 0.127855
Si Si2 0.873498 0.329075 0.480741
Si Si3 0.898688 0.699561 0.810267
Si Si4 0.703295 0.954936 0.181704
Si Si5 0.935166 0.420248 0.579842
Si Si6 0.190918 0.390534 0.425544
Si Si7 0.153895 0.685844 0.184763
O O1 0.121819 0.875009 0.080555
O O2 0.989442 0.899908 0.157477
O O3 0.162278 0.998245 0.167023
O O4 0.036822 0.036908 0.095842
O O5 0.862261 0.216706 0.481335
O O6 0.954884 0.359329 0.523604
O O7 0.868343 0.808081 0.826020
O O8 0.908628 0.695491 0.742476
O O9 0.776403 0.896978 0.141160
O O10 0.748222 0.060776 0.183590
O O11 0.867919 0.513041 0.565129
O O12 0.888980 0.363097 0.633297
O O13 0.129058 0.299730 0.446141
O O14 0.250000 0.750000 0.177001
O O15 0.150696 0.650696 0.250000
#
# Coordination Sequence:
#
# PCOD9565599 Si02
#       7
#    16  16  16  16  16  16  16
#     4  12  27  46  73 105 141 184 247 308 363 430
#     4  11  27  48  76 101 137 191 245 308 373 433
#     4  11  28  48  71 105 149 199 237 289 370 453
#     4  11  23  42  69 104 146 188 233 289 357 442
#     4  11  25  44  71 102 142 183 246 299 368 427
#     4  10  19  38  65  99 140 179 227 289 348 424
#     4  10  25  39  68 107 149 192 237 289 365 433
#
# _framework density 24.339421000000002
#
# number of rings (size 3 to 8) (size 9 to 14) (size 15 to 20)
#    0.000    1.143    1.429    3.429   14.000    1.143 
#    0.000    0.000    0.000    1.714    0.000    0.000 
#    0.000    0.000    0.000    0.000    0.000    0.000 
#
# Total GULP energy -625307.431417 kJ/mol
# GULP energy per Si atom -5583.102066 kJ/mol
# Density = 2.428402 g / cm^3
# Si number density = 24.339421 Si / 1000 Ang^3
#
#
#
# Elastic Constant Matrix: (Units=GPa)
#
#
# Indices 1 2 3 4 5 6 
#
# 1 71.3247 26.5795 22.6454 0.0000 0.0000 0.0000
# 2 26.5795 71.3247 22.6454 0.0000 0.0000 0.0000
# 3 22.6454 22.6454 81.3740 0.0000 0.0000 0.0000
# 4 0.0000 0.0000 0.0000 33.4710 0.0000 0.0000
# 5 0.0000 0.0000 0.0000 0.0000 33.4710 0.0000
# 6 0.0000 0.0000 0.0000 0.0000 0.0000 33.8874
#
#
#
# Elastic Compliance Matrix: (Units=1/GPa)
#
#
# Indices 1 2 3 4 5 6 
#
# 1 0.017036 -0.005313 -0.003262 0.000000 0.000000 0.000000
# 2 -0.005313 0.017036 -0.003262 0.000000 0.000000 0.000000
# 3 -0.003262 -0.003262 0.014105 0.000000 0.000000 0.000000
# 4 0.000000 0.000000 0.000000 0.029877 0.000000 0.000000
# 5 0.000000 0.000000 0.000000 0.000000 0.029877 0.000000
# 6 0.000000 0.000000 0.000000 0.000000 0.000000 0.029509
#
#
# Mechanical properties :
#
#
# Convention : Reuss Voigt Hill
#
# Bulk Modulus (GPa) = 40.81382 40.86268 40.83825
# Shear Modulus (GPa) = 29.53651 30.30941 29.92296
#
# Velocity S-wave (km/s) = 3.48735 3.53268 3.51009
# Velocity P-wave (km/s) = 5.74634 5.78489 5.76565
#
# Compressibility (1/GPa) = 0.02450151
#
# Stress axis : x y z
#
# Youngs Moduli (GPa) = 58.69908 58.69908 70.89809
#
# Poissons Ratio (x) = 0.31185 0.23130
# Poissons Ratio (y) = 0.31185 0.23130
# Poissons Ratio (z) = 0.19150 0.19150
#
# Static dielectric constant tensor:
#      x y z
#    x 2.013000 0.000000 0.000000 
#    y 0.000000 2.013000 0.000000 
#    z 0.000000 0.000000 2.002240 
# 
# From -- ./inp_files/4282.got.cif
#   From: 2010.05.17/outbox.cif.g08.bks.cpg/sg130_3_cif.got.tgz:4282.got - 2010.05.20 12:17:35.
