data_PCOD9565365
_publ_section_title
;
Structure prediction by ZEFSAII (Michael W. Deem and Ramdas Pophale) SiO2 
 PCOD9565365
Probable space group: P 4/N M M
;
_chemical_formula_sum "Si O2"
_cell_formula_units_Z 64
_cell_length_a 14.126944
_cell_length_b 14.126944
_cell_length_c 20.734928
_cell_angle_alpha 90.000000
_cell_angle_beta 90.000000
_cell_angle_gamma 90.000000
_cell_volume 4138.080918
_symmetry_space_group_name_H-M "P 4/N M M"
_symmetry_group_IT_number 129
_symmetry_cell_setting 'tetragonal'
loop_
_space_group_symop_operation_xyz
x,y,z
1/2-y,x,z
1/2-x,1/2-y,z
y,1/2-x,z
1/2+x,-y,-z
-x,1/2+y,-z
1/2+y,1/2+x,-z
-y,-x,-z
-x,-y,-z
1/2+y,-x,-z
1/2+x,1/2+y,-z
-y,1/2+x,-z
1/2-x,y,z
x,1/2-y,z
1/2-y,1/2-x,z
y,x,z
loop_
_atom_site_type_symbol
_atom_site_label
_atom_site_fract_x
_atom_site_fract_y
_atom_site_fract_z
Si Si1 0.638011 0.361990 0.500000
Si Si2 0.859988 0.140013 0.000000
Si Si3 0.862214 0.480586 0.128679
Si Si4 0.637474 0.480480 0.769637
Si Si5 0.861548 0.015244 0.621839
O O1 0.750000 0.377221 0.491799
O O2 0.607143 0.415126 0.564841
O O3 0.929359 0.123072 0.940275
O O4 0.750000 0.128792 0.979308
O O5 0.750000 0.494968 0.137671
O O6 0.905631 0.410337 0.182420
O O7 0.923227 0.576774 0.131156
O O8 0.750000 0.491428 0.780882
O O9 0.578726 0.578726 0.777656
O O10 0.623336 0.449338 0.695050
O O11 0.750000 0.999342 0.614966
O O12 0.918893 0.918893 0.615327
#
# Coordination Sequence:
#
# PCOD9565365 Si02
#       5
#     8   8  16  16  16
#     4   9  17  28  42  62  87 115 148 184 220 257
#     4   9  17  30  50  74  95 117 148 186 229 273
#     4  10  20  33  49  69  94 124 157 192 227 265
#     4   9  18  31  47  69  94 119 150 187 229 277
#     4   9  17  29  45  65  89 116 145 179 220 266
#
# _framework density 15.466106
#
# number of rings (size 3 to 8) (size 9 to 14) (size 15 to 20)
#    0.000    2.750    0.000    1.500    0.000    3.250 
#    0.000    5.000    0.000    0.000    0.000    3.500 
#    0.000    6.000    0.000    0.000    0.000    0.000 
#
# Total GULP energy -356409.589422 kJ/mol
# GULP energy per Si atom -5568.899835 kJ/mol
# Density = 1.543090 g / cm^3
# Si number density = 15.466106 Si / 1000 Ang^3
#
#
#
# Elastic Constant Matrix: (Units=GPa)
#
#
# Indices 1 2 3 4 5 6 
#
# 1 92.9837 55.3121 68.4432 0.0000 0.0000 0.0000
# 2 55.3121 92.9839 68.4436 0.0000 0.0000 0.0000
# 3 68.4432 68.4436 109.1711 0.0000 0.0000 0.0000
# 4 0.0000 0.0000 0.0000 26.4619 0.0000 0.0000
# 5 0.0000 0.0000 0.0000 0.0000 26.4619 0.0000
# 6 0.0000 0.0000 0.0000 0.0000 0.0000 16.8570
#
#
#
# Elastic Compliance Matrix: (Units=1/GPa)
#
#
# Indices 1 2 3 4 5 6 
#
# 1 0.021275 -0.005270 -0.010035 0.000000 0.000000 0.000000
# 2 -0.005270 0.021276 -0.010035 0.000000 0.000000 0.000000
# 3 -0.010035 -0.010035 0.021742 0.000000 0.000000 0.000000
# 4 0.000000 0.000000 0.000000 0.037790 0.000000 0.000000
# 5 0.000000 0.000000 0.000000 0.000000 0.037790 0.000000
# 6 0.000000 0.000000 0.000000 0.000000 0.000000 0.059323
#
#
# Mechanical properties :
#
#
# Convention : Reuss Voigt Hill
#
# Bulk Modulus (GPa) = 73.44709 75.50405 74.47557
# Shear Modulus (GPa) = 19.65310 20.81882 20.23596
#
# Velocity S-wave (km/s) = 3.56858 3.67289 3.62111
# Velocity P-wave (km/s) = 8.03566 8.17997 8.10814
#
# Compressibility (1/GPa) = 0.01361524
#
# Stress axis : x y z
#
# Youngs Moduli (GPa) = 47.00246 47.00213 45.99339
#
# Poissons Ratio (x) = 0.24768 0.46153
# Poissons Ratio (y) = 0.24768 0.46154
# Poissons Ratio (z) = 0.47165 0.47166
#
# Static dielectric constant tensor:
#      x y z
#    x 1.496650 0.000000 0.000000 
#    y 0.000000 1.496650 0.000000 
#    z 0.000000 0.000000 1.524220 
# 
# From -- ./inp_files/5413.got.cif
#   From: 2010.05.17/outbox.cif.g08.bks.cpg/sg129_3_cif.got.tgz:5413.got - 2010.05.20 12:12:06.
