data_PCOD9565349
_publ_section_title
;
Structure prediction by ZEFSAII (Michael W. Deem and Ramdas Pophale) SiO2 
 PCOD9565349
Probable space group: P 4/N M M
;
_chemical_formula_sum "Si O2"
_cell_formula_units_Z 64
_cell_length_a 13.421183
_cell_length_b 13.421183
_cell_length_c 21.110105
_cell_angle_alpha 90.000000
_cell_angle_beta 90.000000
_cell_angle_gamma 90.000000
_cell_volume 3802.524226
_symmetry_space_group_name_H-M "P 4/N M M"
_symmetry_group_IT_number 129
_symmetry_cell_setting 'tetragonal'
loop_
_space_group_symop_operation_xyz
x,y,z
1/2-y,x,z
1/2-x,1/2-y,z
y,1/2-x,z
1/2+x,-y,-z
-x,1/2+y,-z
1/2+y,1/2+x,-z
-y,-x,-z
-x,-y,-z
1/2+y,-x,-z
1/2+x,1/2+y,-z
-y,1/2+x,-z
1/2-x,y,z
x,1/2-y,z
1/2-y,1/2-x,z
y,x,z
loop_
_atom_site_type_symbol
_atom_site_label
_atom_site_fract_x
_atom_site_fract_y
_atom_site_fract_z
Si Si1 0.467028 0.632550 0.317673
Si Si2 0.970864 0.368816 0.199594
Si Si3 0.966857 0.132031 0.439087
Si Si4 0.364424 0.871049 0.930720
O O1 0.482900 0.750000 0.322189
O O2 0.569485 0.569485 0.318671
O O3 0.409661 0.603322 0.253316
O O4 0.401969 0.592578 0.376506
O O5 0.979269 0.250000 0.203688
O O6 0.928670 0.396774 0.130354
O O7 0.075150 0.424851 0.209845
O O8 0.904787 0.095214 0.500000
O O9 0.981697 0.250000 0.440210
O O10 0.070193 0.070193 0.439579
O O11 0.250000 0.904982 0.922222
O O12 0.361752 0.750000 0.933778
O O13 0.402969 0.902969 0.000000
#
# Coordination Sequence:
#
# PCOD9565349 Si02
#       4
#    16  16  16  16
#     4  10  21  36  54  77 102 128 161 200 244 296
#     4  10  20  32  47  69  96 128 166 204 243 288
#     4  10  21  36  54  78 106 136 172 210 248 292
#     4   8  14  26  45  68  92 118 152 197 246 292
#
# _framework density 16.830924
#
# number of rings (size 3 to 8) (size 9 to 14) (size 15 to 20)
#    0.000    2.500    0.000    3.000    0.000    5.500 
#    0.000    0.000    0.000    9.000    0.000    0.000 
#    0.000    6.000    0.000    0.000    0.000    0.000 
#
# Total GULP energy -356887.530695 kJ/mol
# GULP energy per Si atom -5576.367667 kJ/mol
# Density = 1.679262 g / cm^3
# Si number density = 16.830924 Si / 1000 Ang^3
#
#
#
# Elastic Constant Matrix: (Units=GPa)
#
#
# Indices 1 2 3 4 5 6 
#
# 1 96.0665 90.5800 50.8978 0.0000 0.0000 0.0000
# 2 90.5800 96.0729 50.8981 0.0000 0.0000 0.0000
# 3 50.8978 50.8981 135.8120 0.0000 0.0000 0.0000
# 4 0.0000 0.0000 0.0000 19.9190 0.0000 0.0000
# 5 0.0000 0.0000 0.0000 0.0000 19.9168 0.0000
# 6 0.0000 0.0000 0.0000 0.0000 0.0000 6.5255
#
#
#
# Elastic Compliance Matrix: (Units=1/GPa)
#
#
# Indices 1 2 3 4 5 6 
#
# 1 0.094450 -0.087712 -0.002525 0.000000 0.000000 0.000000
# 2 -0.087712 0.094442 -0.002522 0.000000 0.000000 0.000000
# 3 -0.002525 -0.002522 0.009255 0.000000 0.000000 0.000000
# 4 0.000000 0.000000 0.000000 0.050203 0.000000 0.000000
# 5 0.000000 0.000000 0.000000 0.000000 0.050209 0.000000
# 6 0.000000 0.000000 0.000000 0.000000 0.000000 0.153246
#
#
# Mechanical properties :
#
#
# Convention : Reuss Voigt Hill
#
# Bulk Modulus (GPa) = 79.18924 79.18924 79.18924
# Shear Modulus (GPa) = 7.79384 18.31063 13.05223
#
# Velocity S-wave (km/s) = 2.15423 3.30193 2.78779
# Velocity P-wave (km/s) = 7.30340 7.85424 7.58382
#
# Compressibility (1/GPa) = 0.01262798
#
# Stress axis : x y z
#
# Youngs Moduli (GPa) = 10.58763 10.58850 108.05306
#
# Poissons Ratio (x) = 0.92874 0.27283
# Poissons Ratio (y) = 0.92866 0.27255
# Poissons Ratio (z) = 0.02673 0.02671
#
# Static dielectric constant tensor:
#      x y z
#    x 1.542690 0.000000 0.000000 
#    y 0.000000 1.542690 0.000000 
#    z 0.000000 0.000000 1.586590 
# 
# From -- ./inp_files/5364.got.cif
#   From: 2010.05.17/outbox.cif.g08.bks.cpg/sg129_3_cif.got.tgz:5364.got - 2010.05.20 12:12:06.
