data_PCOD9565651
_publ_section_title
;
Structure prediction by ZEFSAII (Michael W. Deem and Ramdas Pophale) SiO2 
 PCOD9565651
Probable space group: P 4/N C C
;
_chemical_formula_sum "Si O2"
_cell_formula_units_Z 44
_cell_length_a 7.943308
_cell_length_b 7.943308
_cell_length_c 32.844157
_cell_angle_alpha 90.000000
_cell_angle_beta 90.000000
_cell_angle_gamma 90.000000
_cell_volume 2072.339593
_symmetry_space_group_name_H-M "P 4/N C C"
_symmetry_group_IT_number 130
_symmetry_cell_setting 'tetragonal'
loop_
_space_group_symop_operation_xyz
x,y,z
1/2-y,x,z
1/2-x,1/2-y,z
y,1/2-x,z
1/2+x,-y,1/2-z
-x,1/2+y,1/2-z
1/2+y,1/2+x,1/2-z
-y,-x,1/2-z
-x,-y,-z
1/2+y,-x,-z
1/2+x,1/2+y,-z
-y,1/2+x,-z
1/2-x,y,1/2+z
x,1/2-y,1/2+z
1/2-y,1/2-x,1/2+z
y,x,1/2+z
loop_
_atom_site_type_symbol
_atom_site_label
_atom_site_fract_x
_atom_site_fract_y
_atom_site_fract_z
Si Si1 0.340579 0.981799 0.069601
Si Si2 0.344801 0.516901 0.208357
Si Si3 0.250000 0.750000 0.360100
Si Si4 0.750000 0.250000 0.500000
O O1 0.454883 0.146337 0.069514
O O2 0.356258 0.869913 0.109985
O O3 0.360040 0.866236 0.029905
O O4 0.456401 0.348884 0.206918
O O5 0.388785 0.611216 0.250000
O O6 0.364364 0.637529 0.169686
#
# Coordination Sequence:
#
# PCOD9565651 Si02
#       4
#    16  16   8   4
#     4  10  21  37  58  85 118 156 197 246 306 370
#     4  11  23  40  63  90 123 163 207 257 311 369
#     4  11  21  35  57  84 116 156 203 245 295 361
#     4  10  20  36  62  88 114 148 194 248 304 370
#
# _framework density 21.232043000000001
#
# number of rings (size 3 to 8) (size 9 to 14) (size 15 to 20)
#    0.000    1.455    0.000    6.000    0.000    2.909 
#    0.000    0.000    0.000   40.364    0.000    0.000 
#    0.000    0.000    0.000    0.000    0.000    0.000 
#
# Total GULP energy -246113.756588 kJ/mol
# GULP energy per Si atom -5593.494468 kJ/mol
# Density = 2.118372 g / cm^3
# Si number density = 21.232043 Si / 1000 Ang^3
#
#
#
# Elastic Constant Matrix: (Units=GPa)
#
#
# Indices 1 2 3 4 5 6 
#
# 1 83.4097 13.8990 44.7366 0.0000 0.0000 0.0000
# 2 13.8990 83.4097 44.7365 0.0000 0.0000 0.0000
# 3 44.7366 44.7365 179.9215 0.0000 0.0000 0.0000
# 4 0.0000 0.0000 0.0000 23.9789 0.0000 0.0000
# 5 0.0000 0.0000 0.0000 0.0000 23.9789 0.0000
# 6 0.0000 0.0000 0.0000 0.0000 0.0000 22.8729
#
#
#
# Elastic Compliance Matrix: (Units=1/GPa)
#
#
# Indices 1 2 3 4 5 6 
#
# 1 0.013854 -0.000532 -0.003313 0.000000 0.000000 0.000000
# 2 -0.000532 0.013854 -0.003313 0.000000 0.000000 0.000000
# 3 -0.003313 -0.003313 0.007205 0.000000 0.000000 0.000000
# 4 0.000000 0.000000 0.000000 0.041703 0.000000 0.000000
# 5 0.000000 0.000000 0.000000 0.000000 0.041703 0.000000
# 6 0.000000 0.000000 0.000000 0.000000 0.000000 0.043720
#
#
# Mechanical properties :
#
#
# Convention : Reuss Voigt Hill
#
# Bulk Modulus (GPa) = 48.54402 61.49834 55.02118
# Shear Modulus (GPa) = 27.28943 30.39073 28.84008
#
# Velocity S-wave (km/s) = 3.58899 3.78744 3.68955
# Velocity P-wave (km/s) = 6.33148 6.93931 6.64235
#
# Compressibility (1/GPa) = 0.02059986
#
# Stress axis : x y z
#
# Youngs Moduli (GPa) = 72.17964 72.17969 138.78733
#
# Poissons Ratio (x) = 0.03840 0.45974
# Poissons Ratio (y) = 0.03840 0.45974
# Poissons Ratio (z) = 0.23910 0.23910
#
# Static dielectric constant tensor:
#      x y z
#    x 1.770930 0.000000 0.000000 
#    y 0.000000 1.770930 0.000000 
#    z 0.000000 0.000000 1.748800 
# 
# From -- ./inp_files/4671.got.cif
#   From: 2010.05.17/outbox.cif.g08.bks.cpg/sg130_3_cif.got.tgz:4671.got - 2010.05.20 12:17:35.
