data_PCOD9565084
_publ_section_title
;
Structure prediction by ZEFSAII (Michael W. Deem and Ramdas Pophale) SiO2 
 PCOD9565084
Probable space group: P 4/M N C
;
_chemical_formula_sum "Si O2"
_cell_formula_units_Z 96
_cell_length_a 24.000000
_cell_length_b 24.000000
_cell_length_c 9.000000
_cell_angle_alpha 90.000000
_cell_angle_beta 90.000000
_cell_angle_gamma 90.000000
_cell_volume 5184.000000
_symmetry_space_group_name_H-M "P 4/M N C"
_symmetry_group_IT_number 128
_symmetry_cell_setting 'tetragonal'
loop_
_space_group_symop_operation_xyz
x,y,z
-y,x,z
-x,-y,z
y,-x,z
1/2+x,1/2-y,1/2-z
1/2-x,1/2+y,1/2-z
1/2+y,1/2+x,1/2-z
1/2-y,1/2-x,1/2-z
-x,-y,-z
y,-x,-z
x,y,-z
-y,x,-z
1/2-x,1/2+y,1/2+z
1/2+x,1/2-y,1/2+z
1/2-y,1/2-x,1/2+z
1/2+y,1/2+x,1/2+z
loop_
_atom_site_type_symbol
_atom_site_label
_atom_site_fract_x
_atom_site_fract_y
_atom_site_fract_z
Si Si1 0.307212 0.274859 0.677408
Si Si2 0.467985 0.413309 0.676744
Si Si3 0.498662 0.916787 0.676938
Si Si4 0.786030 0.633232 0.676815
Si Si5 0.785629 0.506687 0.322591
Si Si6 0.301368 0.575155 0.823795
O O1 0.279574 0.220427 0.750000
O O2 0.310896 0.268491 0.500000
O O3 0.264977 0.325711 0.710811
O O4 0.366085 0.289317 0.746549
O O5 0.531833 0.430872 0.706998
O O6 0.463647 0.401510 0.500000
O O7 0.448327 0.360418 0.767764
O O8 0.549493 0.950508 0.750000
O O9 0.497279 0.926565 0.500000
O O10 0.503442 0.851122 0.702055
O O11 0.443587 0.943587 0.750000
O O12 0.840494 0.659507 0.750000
O O13 0.794434 0.632945 0.500000
O O14 0.774131 0.570418 0.722019
O O15 0.774580 0.500420 0.500000
O O16 0.746690 0.466213 0.231183
O O17 0.301180 0.581021 0.000000
#
# Coordination Sequence:
#
# PCOD9565084 Si02
#       6
#    16  16  16  16  16  16
#     4  10  21  40  63  86 114 153 196 242 293 356
#     4   9  20  41  67  90 115 154 200 246 301 363
#     4  10  20  35  58  84 115 152 193 240 289 346
#     4   9  19  36  61  88 113 146 189 238 293 346
#     4  10  22  39  57  83 116 154 198 240 287 347
#     4  12  26  39  57  89 124 160 198 245 298 352
#
# _framework density 18.518519000000001
#
# number of rings (size 3 to 8) (size 9 to 14) (size 15 to 20)
#    0.000    2.000    0.000    4.000    2.333    4.000 
#    0.000    2.500    0.000    0.000    0.000    0.000 
#    0.000    0.000    0.000    0.000    0.000    0.000 
#
# Total GULP energy -536277.712246 kJ/mol
# GULP energy per Si atom -5586.226169 kJ/mol
# Density = 1.847637 g / cm^3
# Si number density = 18.518519 Si / 1000 Ang^3
#
#
#
# Elastic Constant Matrix: (Units=GPa)
#
#
# Indices 1 2 3 4 5 6 
#
# 1 102.9649 72.2990 69.8115 0.0000 0.0000 0.0000
# 2 72.2990 102.9746 69.8190 0.0000 0.0000 0.0000
# 3 69.8115 69.8190 68.7038 0.0000 0.0000 0.0000
# 4 0.0000 0.0000 0.0000 18.1787 0.0000 0.0000
# 5 0.0000 0.0000 0.0000 0.0000 18.1775 0.0000
# 6 0.0000 0.0000 0.0000 0.0000 0.0000 12.7918
#
#
#
# Elastic Compliance Matrix: (Units=1/GPa)
#
#
# Indices 1 2 3 4 5 6 
#
# 1 0.031279 -0.001323 -0.030439 0.000000 0.000000 0.000000
# 2 -0.001323 0.031284 -0.030448 0.000000 0.000000 0.000000
# 3 -0.030439 -0.030448 0.076427 0.000000 0.000000 0.000000
# 4 0.000000 0.000000 0.000000 0.055009 0.000000 0.000000
# 5 0.000000 0.000000 0.000000 0.000000 0.055013 0.000000
# 6 0.000000 0.000000 0.000000 0.000000 0.000000 0.078175
#
#
# Mechanical properties :
#
#
# Convention : Reuss Voigt Hill
#
# Bulk Modulus (GPa) = 68.62984 77.61136 73.12060
# Shear Modulus (GPa) = 10.95380 14.01054 12.48217
#
# Velocity S-wave (km/s) = 2.43473 2.75356 2.59904
# Velocity P-wave (km/s) = 6.71151 7.21877 6.96976
#
# Compressibility (1/GPa) = 0.01457092
#
# Stress axis : x y z
#
# Youngs Moduli (GPa) = 31.97055 31.96508 13.08443
#
# Poissons Ratio (x) = 0.04229 0.39827
# Poissons Ratio (y) = 0.04229 0.39839
# Poissons Ratio (z) = 0.97314 0.97326
#
# Static dielectric constant tensor:
#      x y z
#    x 1.626180 0.000000 0.000000 
#    y 0.000000 1.626180 0.000000 
#    z 0.000000 0.000000 1.614150 
# 
# From -- ./inp_files/1423.got.cif
#   From: 2010.05.17/outbox.ucp.g08.bks.cvg/sg128_1_cif.got.tgz:1423.got - 2010.06.11 11:37:33.
