data_PCOD9565358
_publ_section_title
;
Structure prediction by ZEFSAII (Michael W. Deem and Ramdas Pophale) SiO2 
 PCOD9565358
Probable space group: P 4/N M M
;
_chemical_formula_sum "Si O2"
_cell_formula_units_Z 80
_cell_length_a 18.647054
_cell_length_b 18.647054
_cell_length_c 13.430558
_cell_angle_alpha 90.000000
_cell_angle_beta 90.000000
_cell_angle_gamma 90.000000
_cell_volume 4669.974549
_symmetry_space_group_name_H-M "P 4/N M M"
_symmetry_group_IT_number 129
_symmetry_cell_setting 'tetragonal'
loop_
_space_group_symop_operation_xyz
x,y,z
1/2-y,x,z
1/2-x,1/2-y,z
y,1/2-x,z
1/2+x,-y,-z
-x,1/2+y,-z
1/2+y,1/2+x,-z
-y,-x,-z
-x,-y,-z
1/2+y,-x,-z
1/2+x,1/2+y,-z
-y,1/2+x,-z
1/2-x,y,z
x,1/2-y,z
1/2-y,1/2-x,z
y,x,z
loop_
_atom_site_type_symbol
_atom_site_label
_atom_site_fract_x
_atom_site_fract_y
_atom_site_fract_z
Si Si1 0.451109 0.333623 0.604370
Si Si2 0.664496 0.106783 0.896139
Si Si3 0.598337 0.167776 0.695787
Si Si4 0.835214 0.031344 0.598549
Si Si5 0.952357 0.834274 0.807032
O O1 0.430700 0.250000 0.593806
O O2 0.384348 0.384348 0.623385
O O3 0.512477 0.338984 0.688139
O O4 0.490529 0.356730 0.501630
O O5 0.750000 0.119364 0.893371
O O6 0.628747 0.149014 0.804207
O O7 0.653049 0.022111 0.875892
O O8 0.632560 0.132560 0.000000
O O9 0.616190 0.250000 0.668154
O O10 0.629932 0.107963 0.621765
O O11 0.750000 0.043115 0.592115
O O12 0.848323 0.981393 0.694856
O O13 0.932965 0.750000 0.813519
O O14 0.887144 0.887144 0.829327
#
# Coordination Sequence:
#
# PCOD9565358 Si02
#       5
#    16  16  16  16  16
#     4  10  21  36  53  74 100 132 172 213 251 294
#     4  10  21  36  55  78 102 131 168 208 251 299
#     4  10  20  32  49  76 105 133 167 203 246 304
#     4   9  18  32  50  74 105 139 173 207 244 290
#     4   9  18  32  50  75 105 135 171 213 254 299
#
# _framework density 17.130714999999999
#
# number of rings (size 3 to 8) (size 9 to 14) (size 15 to 20)
#    0.000    2.400    0.000    3.600    0.000    8.200 
#    0.000    1.000    0.000   10.800    0.000    0.000 
#    0.000    6.400    0.000    0.000    0.000    0.200 
#
# Total GULP energy -446251.454239 kJ/mol
# GULP energy per Si atom -5578.143178 kJ/mol
# Density = 1.709173 g / cm^3
# Si number density = 17.130715 Si / 1000 Ang^3
#
#
#
# Elastic Constant Matrix: (Units=GPa)
#
#
# Indices 1 2 3 4 5 6 
#
# 1 104.2121 90.2645 42.9942 0.0000 0.0000 0.0000
# 2 90.2645 104.2121 42.9942 0.0000 0.0000 0.0000
# 3 42.9942 42.9942 83.1182 0.0000 0.0000 0.0000
# 4 0.0000 0.0000 0.0000 16.0611 0.0000 0.0000
# 5 0.0000 0.0000 0.0000 0.0000 16.0611 0.0000
# 6 0.0000 0.0000 0.0000 0.0000 0.0000 53.2756
#
#
#
# Elastic Compliance Matrix: (Units=1/GPa)
#
#
# Indices 1 2 3 4 5 6 
#
# 1 0.039182 -0.032515 -0.003448 0.000000 0.000000 0.000000
# 2 -0.032515 0.039182 -0.003448 0.000000 0.000000 0.000000
# 3 -0.003448 -0.003448 0.015599 0.000000 0.000000 0.000000
# 4 0.000000 0.000000 0.000000 0.062262 0.000000 0.000000
# 5 0.000000 0.000000 0.000000 0.000000 0.062262 0.000000
# 6 0.000000 0.000000 0.000000 0.000000 0.000000 0.018770
#
#
# Mechanical properties :
#
#
# Convention : Reuss Voigt Hill
#
# Bulk Modulus (GPa) = 66.05804 71.56092 68.80948
# Shear Modulus (GPa) = 15.57020 24.76554 20.16787
#
# Velocity S-wave (km/s) = 3.01808 3.80634 3.43489
# Velocity P-wave (km/s) = 7.12671 7.82187 7.48237
#
# Compressibility (1/GPa) = 0.01513820
#
# Stress axis : x y z
#
# Youngs Moduli (GPa) = 25.52217 25.52217 64.10813
#
# Poissons Ratio (x) = 0.82985 0.22108
# Poissons Ratio (y) = 0.82985 0.22108
# Poissons Ratio (z) = 0.08801 0.08801
#
# Static dielectric constant tensor:
#      x y z
#    x 1.572090 0.000000 0.000000 
#    y 0.000000 1.572090 0.000000 
#    z 0.000000 0.000000 1.583700 
# 
# From -- ./inp_files/4574.got.cif
#   From: 2010.05.17/outbox.cif.g08.bks.cpg/sg129_3_cif.got.tgz:4574.got - 2010.05.20 12:12:06.
