data_PCOD9565752
_publ_section_title
;
Structure prediction by ZEFSAII (Michael W. Deem and Ramdas Pophale) SiO2 
 PCOD9565752
Probable space group: P 4/N C C
;
_chemical_formula_sum "Si O2"
_cell_formula_units_Z 68
_cell_length_a 15.775235
_cell_length_b 15.775235
_cell_length_c 13.782210
_cell_angle_alpha 90.000000
_cell_angle_beta 90.000000
_cell_angle_gamma 90.000000
_cell_volume 3429.813758
_symmetry_space_group_name_H-M "P 4/N C C"
_symmetry_group_IT_number 130
_symmetry_cell_setting 'tetragonal'
loop_
_space_group_symop_operation_xyz
x,y,z
1/2-y,x,z
1/2-x,1/2-y,z
y,1/2-x,z
1/2+x,-y,1/2-z
-x,1/2+y,1/2-z
1/2+y,1/2+x,1/2-z
-y,-x,1/2-z
-x,-y,-z
1/2+y,-x,-z
1/2+x,1/2+y,-z
-y,1/2+x,-z
1/2-x,y,1/2+z
x,1/2-y,1/2+z
1/2-y,1/2-x,1/2+z
y,x,1/2+z
loop_
_atom_site_type_symbol
_atom_site_label
_atom_site_fract_x
_atom_site_fract_y
_atom_site_fract_z
Si Si1 0.023623 0.111661 0.245523
Si Si2 0.250000 0.750000 0.500000
Si Si3 0.078102 0.821880 0.938463
Si Si4 0.995971 0.156697 0.464226
Si Si5 0.662224 0.861078 0.390913
O O1 0.119492 0.107167 0.208053
O O2 0.014501 0.153398 0.350224
O O3 0.980219 0.019782 0.250000
O O4 0.968977 0.162046 0.163568
O O5 0.283459 0.673142 0.566484
O O6 0.029275 0.751475 0.001343
O O7 0.095319 0.915202 0.983029
O O8 0.078040 0.128489 0.524654
O O9 0.637237 0.763081 0.396878
#
# Coordination Sequence:
#
# PCOD9565752 Si02
#       5
#    16   4  16  16  16
#     4  10  22  41  65  94 130 168 217 272 319 384
#     4   8  16  32  66  92 128 178 196 272 342 372
#     4   9  18  39  63  97 133 163 219 265 322 397
#     4  10  21  41  67  93 132 173 207 272 327 373
#     4  11  24  44  64  91 132 168 220 268 314 393
#
# _framework density 19.826148
#
# number of rings (size 3 to 8) (size 9 to 14) (size 15 to 20)
#    0.000    2.118    2.353    0.000    0.000    5.647 
#    4.235   27.647    0.000    0.000    0.000    0.000 
#    0.000    0.000    0.000    0.000    0.000    0.000 
#
# Total GULP energy -379110.160475 kJ/mol
# GULP energy per Si atom -5575.149419 kJ/mol
# Density = 1.978102 g / cm^3
# Si number density = 19.826148 Si / 1000 Ang^3
#
#
#
# Elastic Constant Matrix: (Units=GPa)
#
#
# Indices 1 2 3 4 5 6 
#
# 1 116.1388 34.6003 44.6644 0.0000 0.0000 0.0000
# 2 34.6003 116.1396 44.6656 0.0000 0.0000 0.0000
# 3 44.6644 44.6656 93.2791 0.0000 0.0000 0.0000
# 4 0.0000 0.0000 0.0000 31.5452 0.0000 0.0000
# 5 0.0000 0.0000 0.0000 0.0000 31.5436 0.0000
# 6 0.0000 0.0000 0.0000 0.0000 0.0000 1.0605
#
#
#
# Elastic Compliance Matrix: (Units=1/GPa)
#
#
# Indices 1 2 3 4 5 6 
#
# 1 0.010763 -0.001501 -0.004435 0.000000 0.000000 0.000000
# 2 -0.001501 0.010763 -0.004435 0.000000 0.000000 0.000000
# 3 -0.004435 -0.004435 0.014968 0.000000 0.000000 0.000000
# 4 0.000000 0.000000 0.000000 0.031701 0.000000 0.000000
# 5 0.000000 0.000000 0.000000 0.000000 0.031702 0.000000
# 6 0.000000 0.000000 0.000000 0.000000 0.000000 0.942949
#
#
# Mechanical properties :
#
#
# Convention : Reuss Voigt Hill
#
# Bulk Modulus (GPa) = 63.48378 63.71313 63.59846
# Shear Modulus (GPa) = 4.67797 26.27167 15.47482
#
# Velocity S-wave (km/s) = 1.53773 3.64414 2.79682
# Velocity P-wave (km/s) = 5.93655 7.06485 6.52513
#
# Compressibility (1/GPa) = 0.01575205
#
# Stress axis : x y z
#
# Youngs Moduli (GPa) = 92.90967 92.90938 66.81000
#
# Poissons Ratio (x) = 0.13945 0.29630
# Poissons Ratio (y) = 0.13945 0.29631
# Poissons Ratio (z) = 0.41205 0.41207
#
# Static dielectric constant tensor:
#      x y z
#    x 1.736680 0.000000 0.000000 
#    y 0.000000 1.736680 0.000000 
#    z 0.000000 0.000000 1.652790 
# 
# From -- ./inp_files/1602.got.cif
#   From: 2010.05.17/outbox.cif.g08.bks.cpg/sg130_1_cif.got.tgz:1602.got - 2010.05.20 12:17:35.
