data_PCOD9565954
_publ_section_title
;
Structure prediction by ZEFSAII (Michael W. Deem and Ramdas Pophale) SiO2 
 PCOD9565954
Probable space group: P 4/N C C
;
_chemical_formula_sum "Si O2"
_cell_formula_units_Z 88
_cell_length_a 11.936864
_cell_length_b 11.936864
_cell_length_c 27.835072
_cell_angle_alpha 90.000000
_cell_angle_beta 90.000000
_cell_angle_gamma 90.000000
_cell_volume 3966.183840
_symmetry_space_group_name_H-M "P 4/N C C"
_symmetry_group_IT_number 130
_symmetry_cell_setting 'tetragonal'
loop_
_space_group_symop_operation_xyz
x,y,z
1/2-y,x,z
1/2-x,1/2-y,z
y,1/2-x,z
1/2+x,-y,1/2-z
-x,1/2+y,1/2-z
1/2+y,1/2+x,1/2-z
-y,-x,1/2-z
-x,-y,-z
1/2+y,-x,-z
1/2+x,1/2+y,-z
-y,1/2+x,-z
1/2-x,y,1/2+z
x,1/2-y,1/2+z
1/2-y,1/2-x,1/2+z
y,x,1/2+z
loop_
_atom_site_type_symbol
_atom_site_label
_atom_site_fract_x
_atom_site_fract_y
_atom_site_fract_z
Si Si1 0.148997 0.589027 0.122287
Si Si2 0.599879 0.345040 0.852963
Si Si3 0.830624 0.922559 0.461282
Si Si4 0.952427 0.452427 0.250000
Si Si5 0.160781 0.085387 0.427492
Si Si6 0.402729 0.145397 0.696250
O O1 0.282732 0.606525 0.128414
O O2 0.104151 0.710433 0.138302
O O3 0.133371 0.528354 0.070900
O O4 0.106905 0.494951 0.159025
O O5 0.586139 0.384963 0.797611
O O6 0.500416 0.382170 0.888127
O O7 0.697677 0.893141 0.452442
O O8 0.851358 0.950623 0.517110
O O9 0.935474 0.585982 0.254501
O O10 0.293753 0.104968 0.421457
O O11 0.396813 0.277089 0.690208
#
# Coordination Sequence:
#
# PCOD9565954 Si02
#       6
#    16  16  16   8  16  16
#     4  11  24  43  68 101 140 180 231 288 354 428
#     4  11  27  44  66  99 141 188 228 290 365 425
#     4   9  19  39  71 104 141 184 226 284 353 424
#     4  12  28  47  68  97 140 190 238 294 380 409
#     4   9  21  42  68 103 141 183 233 283 348 428
#     4  11  25  45  71 101 130 175 245 299 343 424
#
# _framework density 22.187574999999999
#
# number of rings (size 3 to 8) (size 9 to 14) (size 15 to 20)
#    0.000    1.636    1.818    2.182    5.091    4.364 
#    0.000    7.273    0.000    0.000    0.000    0.000 
#    0.000    0.000    0.000    0.000    0.000    0.000 
#
# Total GULP energy -491214.831748 kJ/mol
# GULP energy per Si atom -5581.986724 kJ/mol
# Density = 2.213707 g / cm^3
# Si number density = 22.187575 Si / 1000 Ang^3
#
#
#
# Elastic Constant Matrix: (Units=GPa)
#
#
# Indices 1 2 3 4 5 6 
#
# 1 124.6155 18.5798 57.0301 0.0000 0.0000 0.0000
# 2 18.5798 124.6155 57.0301 0.0000 0.0000 0.0000
# 3 57.0301 57.0301 128.4436 0.0000 0.0000 0.0000
# 4 0.0000 0.0000 0.0000 39.4018 0.0000 0.0000
# 5 0.0000 0.0000 0.0000 0.0000 39.4018 0.0000
# 6 0.0000 0.0000 0.0000 0.0000 0.0000 -23.0067
#
#
#
# Elastic Compliance Matrix: (Units=1/GPa)
#
#
# Indices 1 2 3 4 5 6 
#
# 1 0.010118 0.000687 -0.004797 0.000000 0.000000 0.000000
# 2 0.000687 0.010118 -0.004797 0.000000 0.000000 0.000000
# 3 -0.004797 -0.004797 0.012046 0.000000 0.000000 0.000000
# 4 0.000000 0.000000 0.000000 0.025380 0.000000 0.000000
# 5 0.000000 0.000000 0.000000 0.000000 0.025380 0.000000
# 6 0.000000 0.000000 0.000000 0.000000 0.000000 -0.043466
#
#
# Mechanical properties :
#
#
# Convention : Reuss Voigt Hill
#
# Bulk Modulus (GPa) = 69.12952 71.43941 70.28446
# Shear Modulus (GPa) = 80.36977 27.49501 53.93239
#
# Velocity S-wave (km/s) = 6.02507 3.52406 4.93561
# Velocity P-wave (km/s) = 8.92337 6.98759 8.01414
#
# Compressibility (1/GPa) = 0.01446560
#
# Stress axis : x y z
#
# Youngs Moduli (GPa) = 98.83583 98.83583 83.01704
#
# Poissons Ratio (x) = -0.06790 0.39827
# Poissons Ratio (y) = -0.06790 0.39827
# Poissons Ratio (z) = 0.47416 0.47416
#
# Static dielectric constant tensor:
#      x y z
#    x 1.843830 0.000000 0.000000 
#    y 0.000000 1.843830 0.000000 
#    z 0.000000 0.000000 1.802200 
# 
# From -- ./inp_files/4875.got.cif
#   From: 2010.05.17/outbox.cif.g08.bks.cpg/sg130_3_cif.got.tgz:4875.got - 2010.05.20 12:17:35.
