data_PCOD9565057
_publ_section_title
;
Structure prediction by ZEFSAII (Michael W. Deem and Ramdas Pophale) SiO2 
 PCOD9565057
Probable space group: P 4/M N C
;
_chemical_formula_sum "Si O2"
_cell_formula_units_Z 80
_cell_length_a 9.969988
_cell_length_b 9.969988
_cell_length_c 31.074805
_cell_angle_alpha 90.000000
_cell_angle_beta 90.000000
_cell_angle_gamma 90.000000
_cell_volume 3088.856149
_symmetry_space_group_name_H-M "P 4/M N C"
_symmetry_group_IT_number 128
_symmetry_cell_setting 'tetragonal'
loop_
_space_group_symop_operation_xyz
x,y,z
-y,x,z
-x,-y,z
y,-x,z
1/2+x,1/2-y,1/2-z
1/2-x,1/2+y,1/2-z
1/2+y,1/2+x,1/2-z
1/2-y,1/2-x,1/2-z
-x,-y,-z
y,-x,-z
x,y,-z
-y,x,-z
1/2-x,1/2+y,1/2+z
1/2+x,1/2-y,1/2+z
1/2-y,1/2-x,1/2+z
1/2+y,1/2+x,1/2+z
loop_
_atom_site_type_symbol
_atom_site_label
_atom_site_fract_x
_atom_site_fract_y
_atom_site_fract_z
Si Si1 0.491976 0.270435 0.271270
Si Si2 0.031041 0.656324 0.045742
Si Si3 0.209470 0.083672 0.585122
Si Si4 0.774778 0.015407 0.136317
Si Si5 0.725474 0.462204 0.178423
O O1 0.624217 0.366874 0.270929
O O2 0.509642 0.199329 0.317526
O O3 0.470775 0.202538 0.224641
O O4 0.190636 0.653311 0.052476
O O5 0.970300 0.708917 0.089988
O O6 0.000000 0.500000 0.043775
O O7 0.992323 0.720381 0.000000
O O8 0.285523 0.072704 0.631865
O O9 0.070756 0.164473 0.580952
O O10 0.863293 0.880742 0.137475
O O11 0.647769 0.604823 0.177862
#
# Coordination Sequence:
#
# PCOD9565057 Si02
#       5
#    16  16  16  16  16
#     4   7  10  21  47  82 113 140 175 217 262 321
#     4  11  26  42  57  80 112 148 188 240 297 335
#     4   9  19  37  62  88 112 146 189 229 275 336
#     4   9  19  37  62  88 112 146 189 229 275 336
#     4   7  10  21  47  82 113 140 175 217 262 321
#
# _framework density 25.899553999999998
#
# number of rings (size 3 to 8) (size 9 to 14) (size 15 to 20)
#    0.000    3.400    0.000    3.600    2.800    1.600 
#    0.000    3.000    0.000    2.400    0.000    0.000 
#    0.000    0.000    0.000    0.000    0.000    0.000 
#
# Total GULP energy -446239.469748 kJ/mol
# GULP energy per Si atom -5577.993372 kJ/mol
# Density = 2.584061 g / cm^3
# Si number density = 25.899554 Si / 1000 Ang^3
#
#
#
# Elastic Constant Matrix: (Units=GPa)
#
#
# Indices 1 2 3 4 5 6 
#
# 1 14.6482 38.4912 19.5665 0.0000 0.0000 0.0000
# 2 38.4912 14.6482 19.5665 0.0000 0.0000 0.0000
# 3 19.5665 19.5665 197.6879 0.0000 0.0000 0.0000
# 4 0.0000 0.0000 0.0000 43.1066 0.0000 0.0000
# 5 0.0000 0.0000 0.0000 0.0000 43.1066 0.0000
# 6 0.0000 0.0000 0.0000 0.0000 0.0000 19.3034
#
#
#
# Elastic Compliance Matrix: (Units=1/GPa)
#
#
# Indices 1 2 3 4 5 6 
#
# 1 -0.010822 0.031120 -0.002009 0.000000 0.000000 0.000000
# 2 0.031120 -0.010822 -0.002009 0.000000 0.000000 0.000000
# 3 -0.002009 -0.002009 0.005456 0.000000 0.000000 0.000000
# 4 0.000000 0.000000 0.000000 0.023198 0.000000 0.000000
# 5 0.000000 0.000000 0.000000 0.000000 0.023198 0.000000
# 6 0.000000 0.000000 0.000000 0.000000 0.000000 0.051804
#
#
# Mechanical properties :
#
#
# Convention : Reuss Voigt Hill
#
# Bulk Modulus (GPa) = 26.30477 42.47031 34.38754
# Shear Modulus (GPa) = 123.50946 31.06069 77.28508
#
# Velocity S-wave (km/s) = 6.91313 3.46681 5.46855
# Velocity P-wave (km/s) = 8.59653 5.69726 7.29243
#
# Compressibility (1/GPa) = 0.03801591
#
# Stress axis : x y z
#
# Youngs Moduli (GPa) = -92.40761 -92.40761 183.27868
#
# Poissons Ratio (x) = 2.87568 0.36821
# Poissons Ratio (y) = 2.87568 0.36821
# Poissons Ratio (z) = -0.18565 -0.18565
#
# Static dielectric constant tensor:
#      x y z
#    x 2.118220 0.000000 0.000000 
#    y 0.000000 2.118220 0.000000 
#    z 0.000000 0.000000 2.156450 
# 
# From -- ./inp_files/7159.got.cif
#   From: 2010.05.17/outbox.cif.g08.bks.cpg/sg128_4_cif.got.tgz:7159.got - 2010.05.20 12:07:25.
