data_PCOD9565993
_publ_section_title
;
Structure prediction by ZEFSAII (Michael W. Deem and Ramdas Pophale) SiO2 
 PCOD9565993
Probable space group: P 4/N C C
;
_chemical_formula_sum "Si O2"
_cell_formula_units_Z 52
_cell_length_a 9.492383
_cell_length_b 9.492383
_cell_length_c 25.168084
_cell_angle_alpha 90.000000
_cell_angle_beta 90.000000
_cell_angle_gamma 90.000000
_cell_volume 2267.778641
_symmetry_space_group_name_H-M "P 4/N C C"
_symmetry_group_IT_number 130
_symmetry_cell_setting 'tetragonal'
loop_
_space_group_symop_operation_xyz
x,y,z
1/2-y,x,z
1/2-x,1/2-y,z
y,1/2-x,z
1/2+x,-y,1/2-z
-x,1/2+y,1/2-z
1/2+y,1/2+x,1/2-z
-y,-x,1/2-z
-x,-y,-z
1/2+y,-x,-z
1/2+x,1/2+y,-z
-y,1/2+x,-z
1/2-x,y,1/2+z
x,1/2-y,1/2+z
1/2-y,1/2-x,1/2+z
y,x,1/2+z
loop_
_atom_site_type_symbol
_atom_site_label
_atom_site_fract_x
_atom_site_fract_y
_atom_site_fract_z
Si Si1 0.999746 0.043932 0.561168
Si Si2 0.468724 0.310893 0.765960
Si Si3 0.769799 0.410831 0.623975
Si Si4 0.750000 0.750000 0.929407
O O1 0.053868 0.922931 0.601483
O O2 0.090285 0.183935 0.569154
O O3 0.000000 0.000000 0.500000
O O4 0.838370 0.070491 0.576143
O O5 0.343612 0.416768 0.747063
O O6 0.613910 0.386091 0.750000
O O7 0.487235 0.280059 0.828554
O O8 0.750000 0.250000 0.642925
#
# Coordination Sequence:
#
# PCOD9565993 Si02
#       4
#    16  16  16   4
#     4  12  26  45  75 107 157 205 254 311 379 466
#     4  11  27  50  76 111 146 195 256 321 393 460
#     4  12  26  45  75 111 151 199 257 314 386 454
#     4  12  24  48  64 108 144 198 260 296 372 452
#
# _framework density 22.929928
#
# number of rings (size 3 to 8) (size 9 to 14) (size 15 to 20)
#    0.000    0.308    6.154    1.846    4.308    0.615 
#    0.000    0.000    0.000    0.000    0.000    0.000 
#    0.000    0.000    0.000    0.000    0.000    0.000 
#
# Total GULP energy -289582.967407 kJ/mol
# GULP energy per Si atom -5568.903219 kJ/mol
# Density = 2.287774 g / cm^3
# Si number density = 22.929928 Si / 1000 Ang^3
#
#
#
# Elastic Constant Matrix: (Units=GPa)
#
#
# Indices 1 2 3 4 5 6 
#
# 1 50.8713 58.0575 11.3492 0.0000 0.0000 0.0000
# 2 58.0575 50.8731 11.3477 0.0000 0.0000 0.0000
# 3 11.3492 11.3477 53.2791 0.0000 0.0000 0.0000
# 4 0.0000 0.0000 0.0000 19.4637 0.0000 0.0000
# 5 0.0000 0.0000 0.0000 0.0000 19.4635 0.0000
# 6 0.0000 0.0000 0.0000 0.0000 0.0000 -85.0457
#
#
#
# Elastic Compliance Matrix: (Units=1/GPa)
#
#
# Indices 1 2 3 4 5 6 
#
# 1 -0.064785 0.074390 -0.002044 0.000000 0.000000 0.000000
# 2 0.074390 -0.064782 -0.002049 0.000000 0.000000 0.000000
# 3 -0.002044 -0.002049 0.019641 0.000000 0.000000 0.000000
# 4 0.000000 0.000000 0.000000 0.051378 0.000000 0.000000
# 5 0.000000 0.000000 0.000000 0.000000 0.051378 0.000000
# 6 0.000000 0.000000 0.000000 0.000000 0.000000 -0.011758
#
#
# Mechanical properties :
#
#
# Convention : Reuss Voigt Hill
#
# Bulk Modulus (GPa) = 32.60609 35.17026 33.88817
# Shear Modulus (GPa) = -33.48938 -4.27243 -18.88091
#
# Velocity S-wave (km/s) = -3.82581 -1.36649 -2.87264
# Velocity P-wave (km/s) = 2.29456 3.58911 1.95150
#
# Compressibility (1/GPa) = 0.03066912
#
# Stress axis : x y z
#
# Youngs Moduli (GPa) = -15.43563 -15.43642 50.91452
#
# Poissons Ratio (x) = 1.14832 0.10406
# Poissons Ratio (y) = 1.14826 0.10430
# Poissons Ratio (z) = -0.03155 -0.03162
#
# Static dielectric constant tensor:
#      x y z
#    x 1.850630 0.000000 0.000000 
#    y 0.000000 1.850630 0.000000 
#    z 0.000000 0.000000 1.774280 
# 
# From -- ./inp_files/4696.got.cif
#   From: 2010.05.17/outbox.cif.g08.bks.cpg/sg130_3_cif.got.tgz:4696.got - 2010.05.20 12:17:35.
