data_PCOD9565918
_publ_section_title
;
Structure prediction by ZEFSAII (Michael W. Deem and Ramdas Pophale) SiO2 
 PCOD9565918
Probable space group: P 4/N C C
;
_chemical_formula_sum "Si O2"
_cell_formula_units_Z 64
_cell_length_a 16.840761
_cell_length_b 16.840761
_cell_length_c 10.419090
_cell_angle_alpha 90.000000
_cell_angle_beta 90.000000
_cell_angle_gamma 90.000000
_cell_volume 2954.970941
_symmetry_space_group_name_H-M "P 4/N C C"
_symmetry_group_IT_number 130
_symmetry_cell_setting 'tetragonal'
loop_
_space_group_symop_operation_xyz
x,y,z
1/2-y,x,z
1/2-x,1/2-y,z
y,1/2-x,z
1/2+x,-y,1/2-z
-x,1/2+y,1/2-z
1/2+y,1/2+x,1/2-z
-y,-x,1/2-z
-x,-y,-z
1/2+y,-x,-z
1/2+x,1/2+y,-z
-y,1/2+x,-z
1/2-x,y,1/2+z
x,1/2-y,1/2+z
1/2-y,1/2-x,1/2+z
y,x,1/2+z
loop_
_atom_site_type_symbol
_atom_site_label
_atom_site_fract_x
_atom_site_fract_y
_atom_site_fract_z
Si Si1 0.678728 0.050736 0.246807
Si Si2 0.491394 0.216672 0.971209
Si Si3 0.702841 0.627027 0.381558
Si Si4 0.918717 0.542658 0.704239
O O1 0.634315 0.134315 0.250000
O O2 0.745692 0.046164 0.137816
O O3 0.610988 0.985209 0.211331
O O4 0.529365 0.210767 0.111754
O O5 0.415650 0.276901 0.983119
O O6 0.466818 0.127249 0.930721
O O7 0.793066 0.653737 0.355669
O O8 0.653946 0.565370 0.297541
O O9 0.963018 0.463018 0.750000
#
# Coordination Sequence:
#
# PCOD9565918 Si02
#       4
#    16  16  16  16
#     4  11  27  43  71 104 138 182 240 294 355 430
#     4  12  23  44  69  99 143 183 236 289 361 425
#     4  11  22  40  64 102 146 184 226 283 358 430
#     4  11  24  42  70 104 142 188 241 290 347 427
#
# _framework density 21.658418999999999
#
# number of rings (size 3 to 8) (size 9 to 14) (size 15 to 20)
#    0.000    0.750    5.000    1.500    3.500    2.000 
#    0.000    2.500    0.000    6.000    0.000    0.000 
#    0.000    0.000    0.000    0.000    0.000    0.000 
#
# Total GULP energy -356871.216693 kJ/mol
# GULP energy per Si atom -5576.112761 kJ/mol
# Density = 2.160912 g / cm^3
# Si number density = 21.658419 Si / 1000 Ang^3
#
#
#
# Elastic Constant Matrix: (Units=GPa)
#
#
# Indices 1 2 3 4 5 6 
#
# 1 78.9344 48.8654 44.9415 0.0000 0.0000 0.0000
# 2 48.8654 78.9344 44.9415 0.0000 0.0000 0.0000
# 3 44.9415 44.9415 113.3778 0.0000 0.0000 0.0000
# 4 0.0000 0.0000 0.0000 20.9802 0.0000 0.0000
# 5 0.0000 0.0000 0.0000 0.0000 20.9802 0.0000
# 6 0.0000 0.0000 0.0000 0.0000 0.0000 52.7332
#
#
#
# Elastic Compliance Matrix: (Units=1/GPa)
#
#
# Indices 1 2 3 4 5 6 
#
# 1 0.022053 -0.011204 -0.004301 0.000000 0.000000 0.000000
# 2 -0.011204 0.022053 -0.004301 0.000000 0.000000 0.000000
# 3 -0.004301 -0.004301 0.012229 0.000000 0.000000 0.000000
# 4 0.000000 0.000000 0.000000 0.047664 0.000000 0.000000
# 5 0.000000 0.000000 0.000000 0.000000 0.047664 0.000000
# 6 0.000000 0.000000 0.000000 0.000000 0.000000 0.018963
#
#
# Mechanical properties :
#
#
# Convention : Reuss Voigt Hill
#
# Bulk Modulus (GPa) = 59.78727 60.97147 60.37937
# Shear Modulus (GPa) = 23.16830 27.77192 25.47011
#
# Velocity S-wave (km/s) = 3.27420 3.58476 3.43299
# Velocity P-wave (km/s) = 6.47753 6.73398 6.60700
#
# Compressibility (1/GPa) = 0.01672597
#
# Stress axis : x y z
#
# Youngs Moduli (GPa) = 45.34504 45.34504 81.76994
#
# Poissons Ratio (x) = 0.50804 0.35166
# Poissons Ratio (y) = 0.50804 0.35166
# Poissons Ratio (z) = 0.19501 0.19501
#
# Static dielectric constant tensor:
#      x y z
#    x 1.819230 0.000000 0.000000 
#    y 0.000000 1.819230 0.000000 
#    z 0.000000 0.000000 1.845530 
# 
# From -- ./inp_files/1544.got.cif
#   From: 2010.05.17/outbox.cif.g08.bks.cpg/sg130_1_cif.got.tgz:1544.got - 2010.05.20 12:17:35.
