data_PCOD9565937
_publ_section_title
;
Structure prediction by ZEFSAII (Michael W. Deem and Ramdas Pophale) SiO2 
 PCOD9565937
Probable space group: P 4/N C C
;
_chemical_formula_sum "Si O2"
_cell_formula_units_Z 48
_cell_length_a 9.626079
_cell_length_b 9.626079
_cell_length_c 26.135568
_cell_angle_alpha 90.000000
_cell_angle_beta 90.000000
_cell_angle_gamma 90.000000
_cell_volume 2421.758240
_symmetry_space_group_name_H-M "P 4/N C C"
_symmetry_group_IT_number 130
_symmetry_cell_setting 'tetragonal'
loop_
_space_group_symop_operation_xyz
x,y,z
1/2-y,x,z
1/2-x,1/2-y,z
y,1/2-x,z
1/2+x,-y,1/2-z
-x,1/2+y,1/2-z
1/2+y,1/2+x,1/2-z
-y,-x,1/2-z
-x,-y,-z
1/2+y,-x,-z
1/2+x,1/2+y,-z
-y,1/2+x,-z
1/2-x,y,1/2+z
x,1/2-y,1/2+z
1/2-y,1/2-x,1/2+z
y,x,1/2+z
loop_
_atom_site_type_symbol
_atom_site_label
_atom_site_fract_x
_atom_site_fract_y
_atom_site_fract_z
Si Si1 0.405463 0.428030 0.543124
Si Si2 0.579367 0.094557 0.650273
Si Si3 0.615930 0.115915 0.190906
O O1 0.237003 0.438724 0.539921
O O2 0.500000 0.500000 0.500000
O O3 0.438123 0.510065 0.595797
O O4 0.745382 0.092265 0.657368
O O5 0.539470 0.250202 0.667217
O O6 0.516475 0.981309 0.687886
O O7 0.646524 0.146524 0.250000
#
# Coordination Sequence:
#
# PCOD9565937 Si02
#       3
#    16  16  16
#     4  11  26  46  70  99 131 177 227 280 345 404
#     4  11  23  42  65  97 136 174 226 277 340 403
#     4  11  23  41  67  99 138 182 225 275 340 412
#
# _framework density 19.820309999999999
#
# number of rings (size 3 to 8) (size 9 to 14) (size 15 to 20)
#    0.000    1.000    3.333    4.000    4.667    2.000 
#    0.000    3.333    0.000    0.000    0.000    0.000 
#    0.000    0.000    0.000    0.000    0.000    0.000 
#
# Total GULP energy -267698.229855 kJ/mol
# GULP energy per Si atom -5577.046455 kJ/mol
# Density = 1.977520 g / cm^3
# Si number density = 19.820310 Si / 1000 Ang^3
#
#
#
# Elastic Constant Matrix: (Units=GPa)
#
#
# Indices 1 2 3 4 5 6 
#
# 1 52.1018 93.5050 44.7162 0.0000 0.0000 0.0000
# 2 93.5050 52.1018 44.7162 0.0000 0.0000 0.0000
# 3 44.7162 44.7162 159.7861 0.0000 0.0000 0.0000
# 4 0.0000 0.0000 0.0000 21.1821 0.0000 0.0000
# 5 0.0000 0.0000 0.0000 0.0000 21.1821 0.0000
# 6 0.0000 0.0000 0.0000 0.0000 0.0000 49.0971
#
#
#
# Elastic Compliance Matrix: (Units=1/GPa)
#
#
# Indices 1 2 3 4 5 6 
#
# 1 -0.007930 0.016223 -0.002321 0.000000 0.000000 0.000000
# 2 0.016223 -0.007930 -0.002321 0.000000 0.000000 0.000000
# 3 -0.002321 -0.002321 0.007557 0.000000 0.000000 0.000000
# 4 0.000000 0.000000 0.000000 0.047210 0.000000 0.000000
# 5 0.000000 0.000000 0.000000 0.000000 0.047210 0.000000
# 6 0.000000 0.000000 0.000000 0.000000 0.000000 0.020368
#
#
# Mechanical properties :
#
#
# Convention : Reuss Voigt Hill
#
# Bulk Modulus (GPa) = 67.29272 69.98494 68.63883
# Shear Modulus (GPa) = 56.64047 23.69575 40.16811
#
# Velocity S-wave (km/s) = 5.35154 3.46139 4.50668
# Velocity P-wave (km/s) = 8.49767 7.16668 7.86040
#
# Compressibility (1/GPa) = 0.01486045
#
# Stress axis : x y z
#
# Youngs Moduli (GPa) = -126.10812 -126.10812 132.32110
#
# Poissons Ratio (x) = 2.04585 0.30710
# Poissons Ratio (y) = 2.04585 0.30710
# Poissons Ratio (z) = -0.29268 -0.29268
#
# Static dielectric constant tensor:
#      x y z
#    x 1.699690 0.000000 0.000000 
#    y 0.000000 1.699690 0.000000 
#    z 0.000000 0.000000 1.740020 
# 
# From -- ./inp_files/4691.got.cif
#   From: 2010.05.17/outbox.cif.g08.bks.cpg/sg130_3_cif.got.tgz:4691.got - 2010.05.20 12:17:35.
