data_PCOD9565238
_publ_section_title
;
Structure prediction by ZEFSAII (Michael W. Deem and Ramdas Pophale) SiO2 
 PCOD9565238
Probable space group: P 4/N M M
;
_chemical_formula_sum "Si O2"
_cell_formula_units_Z 64
_cell_length_a 13.328734
_cell_length_b 13.328734
_cell_length_c 22.140276
_cell_angle_alpha 90.000000
_cell_angle_beta 90.000000
_cell_angle_gamma 90.000000
_cell_volume 3933.334055
_symmetry_space_group_name_H-M "P 4/N M M"
_symmetry_group_IT_number 129
_symmetry_cell_setting 'tetragonal'
loop_
_space_group_symop_operation_xyz
x,y,z
1/2-y,x,z
1/2-x,1/2-y,z
y,1/2-x,z
1/2+x,-y,-z
-x,1/2+y,-z
1/2+y,1/2+x,-z
-y,-x,-z
-x,-y,-z
1/2+y,-x,-z
1/2+x,1/2+y,-z
-y,1/2+x,-z
1/2-x,y,z
x,1/2-y,z
1/2-y,1/2-x,z
y,x,z
loop_
_atom_site_type_symbol
_atom_site_label
_atom_site_fract_x
_atom_site_fract_y
_atom_site_fract_z
Si Si1 0.003226 0.496775 0.095847
Si Si2 0.630655 0.029326 0.689847
Si Si3 0.872269 0.365640 0.565944
Si Si4 0.869931 0.365730 0.814776
Si Si5 0.628222 0.871779 0.002894
O O1 0.935408 0.427161 0.138368
O O2 0.074183 0.425818 0.054307
O O3 0.929767 0.570233 0.057262
O O4 0.750000 0.016308 0.688239
O O5 0.574062 0.925939 0.700387
O O6 0.598332 0.074589 0.625464
O O7 0.606930 0.101800 0.745995
O O8 0.904723 0.404723 0.500000
O O9 0.750000 0.365355 0.563932
O O10 0.904194 0.250000 0.572398
O O11 0.750000 0.376204 0.822593
O O12 0.896791 0.250000 0.824104
O O13 0.612168 0.750000 0.003700
#
# Coordination Sequence:
#
# PCOD9565238 Si02
#       5
#     8  16  16  16   8
#     4  11  20  36  58  80 105 136 170 206 247 292
#     4  10  19  31  46  68  99 132 166 208 253 299
#     4   8  14  26  45  68  93 123 162 208 254 296
#     4  10  20  34  53  77 103 132 169 212 255 296
#     4  10  22  38  56  80 110 140 168 200 242 296
#
# _framework density 16.271182
#
# number of rings (size 3 to 8) (size 9 to 14) (size 15 to 20)
#    0.000    2.375    1.250    3.000    0.000    3.750 
#    0.000    0.000    0.000    6.000    0.000    0.000 
#    0.000    0.000    0.000    0.000    0.000    0.000 
#
# Total GULP energy -356501.719813 kJ/mol
# GULP energy per Si atom -5570.339372 kJ/mol
# Density = 1.623415 g / cm^3
# Si number density = 16.271182 Si / 1000 Ang^3
#
#
#
# Elastic Constant Matrix: (Units=GPa)
#
#
# Indices 1 2 3 4 5 6 
#
# 1 56.2846 47.6499 47.8626 0.0000 0.0000 0.0000
# 2 47.6499 56.2846 47.8626 0.0000 0.0000 0.0000
# 3 47.8626 47.8626 120.0845 0.0000 0.0000 0.0000
# 4 0.0000 0.0000 0.0000 15.7829 0.0000 0.0000
# 5 0.0000 0.0000 0.0000 0.0000 15.7829 0.0000
# 6 0.0000 0.0000 0.0000 0.0000 0.0000 27.7121
#
#
#
# Elastic Compliance Matrix: (Units=1/GPa)
#
#
# Indices 1 2 3 4 5 6 
#
# 1 0.065507 -0.050305 -0.006059 0.000000 0.000000 0.000000
# 2 -0.050305 0.065507 -0.006059 0.000000 0.000000 0.000000
# 3 -0.006059 -0.006059 0.013157 0.000000 0.000000 0.000000
# 4 0.000000 0.000000 0.000000 0.063360 0.000000 0.000000
# 5 0.000000 0.000000 0.000000 0.000000 0.063360 0.000000
# 6 0.000000 0.000000 0.000000 0.000000 0.000000 0.036085
#
#
# Mechanical properties :
#
#
# Convention : Reuss Voigt Hill
#
# Bulk Modulus (GPa) = 51.74649 57.71152 54.72901
# Shear Modulus (GPa) = 11.40867 17.80748 14.60808
#
# Velocity S-wave (km/s) = 2.65081 3.31179 2.99956
# Velocity P-wave (km/s) = 6.42189 7.08304 6.76055
#
# Compressibility (1/GPa) = 0.01932498
#
# Stress axis : x y z
#
# Youngs Moduli (GPa) = 15.26562 15.26562 76.00238
#
# Poissons Ratio (x) = 0.76793 0.46051
# Poissons Ratio (y) = 0.76793 0.46051
# Poissons Ratio (z) = 0.09250 0.09250
#
# Static dielectric constant tensor:
#      x y z
#    x 1.522720 0.000000 0.000000 
#    y 0.000000 1.522720 0.000000 
#    z 0.000000 0.000000 1.564100 
# 
# From -- ./inp_files/5406.got.cif
#   From: 2010.05.17/outbox.cif.g08.bks.cpg/sg129_3_cif.got.tgz:5406.got - 2010.05.20 12:12:06.
