data_PCOD9565429
_publ_section_title
;
Structure prediction by ZEFSAII (Michael W. Deem and Ramdas Pophale) SiO2 
 PCOD9565429
Probable space group: P 4/N M M
;
_chemical_formula_sum "Si O2"
_cell_formula_units_Z 128
_cell_length_a 22.943156
_cell_length_b 22.943156
_cell_length_c 12.423973
_cell_angle_alpha 90.000000
_cell_angle_beta 90.000000
_cell_angle_gamma 90.000000
_cell_volume 6539.835359
_symmetry_space_group_name_H-M "P 4/N M M"
_symmetry_group_IT_number 129
_symmetry_cell_setting 'tetragonal'
loop_
_space_group_symop_operation_xyz
x,y,z
1/2-y,x,z
1/2-x,1/2-y,z
y,1/2-x,z
1/2+x,-y,-z
-x,1/2+y,-z
1/2+y,1/2+x,-z
-y,-x,-z
-x,-y,-z
1/2+y,-x,-z
1/2+x,1/2+y,-z
-y,1/2+x,-z
1/2-x,y,z
x,1/2-y,z
1/2-y,1/2-x,z
y,x,z
loop_
_atom_site_type_symbol
_atom_site_label
_atom_site_fract_x
_atom_site_fract_y
_atom_site_fract_z
Si Si1 0.374281 0.632950 0.618870
Si Si2 0.183220 0.090181 0.335521
Si Si3 0.917098 0.008421 0.917090
Si Si4 0.937221 0.319019 0.949040
Si Si5 0.815969 0.180491 0.824680
Si Si6 0.589640 0.496135 0.679602
Si Si7 0.481628 0.680035 0.281342
Si Si8 0.683133 0.590953 0.407375
O O1 0.351811 0.648190 0.500000
O O2 0.357193 0.676735 0.715489
O O3 0.443082 0.616789 0.612993
O O4 0.343347 0.574194 0.657389
O O5 0.250000 0.088283 0.301199
O O6 0.151879 0.151879 0.314846
O O7 0.141924 0.040202 0.289520
O O8 0.180476 0.079751 0.464683
O O9 0.853897 0.032334 0.953667
O O10 0.956791 0.043210 0.000000
O O11 0.941252 0.941252 0.922264
O O12 0.929860 0.028422 0.795179
O O13 0.937885 0.250000 0.970185
O O14 0.871500 0.332672 0.902161
O O15 0.976807 0.332708 0.844471
O O16 0.750000 0.171434 0.869563
O O17 0.820898 0.250000 0.799853
O O18 0.537222 0.537222 0.634246
O O19 0.480941 0.750000 0.291802
O O20 0.538307 0.656392 0.340461
O O21 0.750000 0.597158 0.377427
O O22 0.649268 0.649268 0.385026
#
# Coordination Sequence:
#
# PCOD9565429 Si02
#       8
#    16  16  16  16  16  16  16  16
#     4  11  21  32  52  77 100 134 177 213 247 299
#     4   9  18  33  51  72 101 134 168 208 253 306
#     4  10  20  35  54  75 102 134 168 212 268 321
#     4   9  18  34  55  77 101 132 176 222 259 308
#     4   9  19  36  55  76 106 140 172 213 263 308
#     4  10  22  37  51  74 107 136 165 209 266 318
#     4   9  18  32  47  67  98 129 161 208 255 293
#     4   9  17  29  47  71 100 135 171 210 259 310
#
# _framework density 19.572358000000001
#
# number of rings (size 3 to 8) (size 9 to 14) (size 15 to 20)
#    0.000    2.500    0.000    3.375    0.000    3.500 
#    0.000    3.750    0.000    1.500    0.000    1.750 
#    0.000    0.250    0.000    0.250    0.000    0.250 
#
# Total GULP energy -713226.824756 kJ/mol
# GULP energy per Si atom -5572.084568 kJ/mol
# Density = 1.952781 g / cm^3
# Si number density = 19.572358 Si / 1000 Ang^3
#
#
#
# Elastic Constant Matrix: (Units=GPa)
#
#
# Indices 1 2 3 4 5 6 
#
# 1 46.0800 26.0854 7.0647 0.0000 0.0000 0.0000
# 2 26.0854 46.0776 7.0641 0.0000 0.0000 0.0000
# 3 7.0647 7.0641 29.7668 0.0000 0.0000 0.0000
# 4 0.0000 0.0000 0.0000 18.7373 0.0000 0.0000
# 5 0.0000 0.0000 0.0000 0.0000 18.7373 0.0000
# 6 0.0000 0.0000 0.0000 0.0000 0.0000 26.0587
#
#
#
# Elastic Compliance Matrix: (Units=1/GPa)
#
#
# Indices 1 2 3 4 5 6 
#
# 1 0.032274 -0.017742 -0.003449 0.000000 0.000000 0.000000
# 2 -0.017742 0.032275 -0.003449 0.000000 0.000000 0.000000
# 3 -0.003449 -0.003449 0.035232 0.000000 0.000000 0.000000
# 4 0.000000 0.000000 0.000000 0.053369 0.000000 0.000000
# 5 0.000000 0.000000 0.000000 0.000000 0.053369 0.000000
# 6 0.000000 0.000000 0.000000 0.000000 0.000000 0.038375
#
#
# Mechanical properties :
#
#
# Convention : Reuss Voigt Hill
#
# Bulk Modulus (GPa) = 19.80164 22.48366 21.14265
# Shear Modulus (GPa) = 16.07678 18.15402 17.11540
#
# Velocity S-wave (km/s) = 2.86912 3.04885 2.96035
# Velocity P-wave (km/s) = 4.59510 4.88941 4.74454
#
# Compressibility (1/GPa) = 0.05050085
#
# Stress axis : x y z
#
# Youngs Moduli (GPa) = 30.98495 30.98346 28.38367
#
# Poissons Ratio (x) = 0.54971 0.09790
# Poissons Ratio (y) = 0.54973 0.09788
# Poissons Ratio (z) = 0.10688 0.10685
#
# Static dielectric constant tensor:
#      x y z
#    x 1.727290 0.000000 0.000000 
#    y 0.000000 1.727290 0.000000 
#    z 0.000000 0.000000 1.735310 
# 
# From -- ./inp_files/4230.got.cif
#   From: 2010.05.17/outbox.cif.g08.bks.cpg/sg129_3_cif.got.tgz:4230.got - 2010.05.20 12:12:06.
