data_PCOD9565867
_publ_section_title
;
Structure prediction by ZEFSAII (Michael W. Deem and Ramdas Pophale) SiO2 
 PCOD9565867
Probable space group: P 4/N C C
;
_chemical_formula_sum "Si O2"
_cell_formula_units_Z 80
_cell_length_a 15.005507
_cell_length_b 15.005507
_cell_length_c 19.610344
_cell_angle_alpha 90.000000
_cell_angle_beta 90.000000
_cell_angle_gamma 90.000000
_cell_volume 4415.567820
_symmetry_space_group_name_H-M "P 4/N C C"
_symmetry_group_IT_number 130
_symmetry_cell_setting 'tetragonal'
loop_
_space_group_symop_operation_xyz
x,y,z
1/2-y,x,z
1/2-x,1/2-y,z
y,1/2-x,z
1/2+x,-y,1/2-z
-x,1/2+y,1/2-z
1/2+y,1/2+x,1/2-z
-y,-x,1/2-z
-x,-y,-z
1/2+y,-x,-z
1/2+x,1/2+y,-z
-y,1/2+x,-z
1/2-x,y,1/2+z
x,1/2-y,1/2+z
1/2-y,1/2-x,1/2+z
y,x,1/2+z
loop_
_atom_site_type_symbol
_atom_site_label
_atom_site_fract_x
_atom_site_fract_y
_atom_site_fract_z
Si Si1 0.138985 0.472366 0.038887
Si Si2 0.193311 0.109823 0.244478
Si Si3 0.670107 0.510981 0.891446
Si Si4 0.652767 0.144414 0.486975
Si Si5 0.812149 0.613336 0.100970
O O1 0.108613 0.575056 0.036295
O O2 0.156177 0.447968 0.960094
O O3 0.232617 0.463559 0.078536
O O4 0.069640 0.405042 0.071545
O O5 0.297285 0.138653 0.236233
O O6 0.169244 0.037891 0.187470
O O7 0.176324 0.079298 0.321990
O O8 0.654935 0.410215 0.916724
O O9 0.635126 0.249629 0.479906
O O10 0.863149 0.707625 0.093834
#
# Coordination Sequence:
#
# PCOD9565867 Si02
#       5
#    16  16  16  16  16
#     4  11  19  30  53  82 106 132 173 216 258 317
#     4   9  17  29  46  76 117 146 158 192 263 335
#     4  11  19  30  53  82 106 132 173 216 258 317
#     4   9  21  38  51  70  98 137 179 227 264 288
#     4   9  17  29  46  76 117 146 158 192 263 335
#
# _framework density 18.117715
#
# number of rings (size 3 to 8) (size 9 to 14) (size 15 to 20)
#    0.000    2.200    4.000    1.800    0.000    0.400 
#    0.000    1.000    0.000    0.000    0.000   60.200 
#    0.000    0.000    0.000    0.000    0.000    0.000 
#
# Total GULP energy -446082.517027 kJ/mol
# GULP energy per Si atom -5576.031463 kJ/mol
# Density = 1.807648 g / cm^3
# Si number density = 18.117715 Si / 1000 Ang^3
#
#
#
# Elastic Constant Matrix: (Units=GPa)
#
#
# Indices 1 2 3 4 5 6 
#
# 1 39.2178 21.3184 21.1113 0.0000 0.0000 0.0000
# 2 21.3184 39.2178 21.1113 0.0000 0.0000 0.0000
# 3 21.1113 21.1113 104.3824 0.0000 0.0000 0.0000
# 4 0.0000 0.0000 0.0000 13.2012 0.0000 0.0000
# 5 0.0000 0.0000 0.0000 0.0000 13.2012 0.0000
# 6 0.0000 0.0000 0.0000 0.0000 0.0000 15.1417
#
#
#
# Elastic Compliance Matrix: (Units=1/GPa)
#
#
# Indices 1 2 3 4 5 6 
#
# 1 0.037550 -0.018318 -0.003890 0.000000 0.000000 0.000000
# 2 -0.018318 0.037550 -0.003890 0.000000 0.000000 0.000000
# 3 -0.003890 -0.003890 0.011154 0.000000 0.000000 0.000000
# 4 0.000000 0.000000 0.000000 0.075751 0.000000 0.000000
# 5 0.000000 0.000000 0.000000 0.000000 0.075751 0.000000
# 6 0.000000 0.000000 0.000000 0.000000 0.000000 0.066043
#
#
# Mechanical properties :
#
#
# Convention : Reuss Voigt Hill
#
# Bulk Modulus (GPa) = 29.36095 34.43332 31.89714
# Shear Modulus (GPa) = 13.61118 16.26062 14.93590
#
# Velocity S-wave (km/s) = 2.74389 2.99908 2.87432
# Velocity P-wave (km/s) = 5.12635 5.57128 5.35344
#
# Compressibility (1/GPa) = 0.03405884
#
# Stress axis : x y z
#
# Youngs Moduli (GPa) = 26.63122 26.63122 89.65781
#
# Poissons Ratio (x) = 0.48783 0.34874
# Poissons Ratio (y) = 0.48783 0.34874
# Poissons Ratio (z) = 0.10359 0.10359
#
# Static dielectric constant tensor:
#      x y z
#    x 1.647220 0.000000 0.000000 
#    y 0.000000 1.647220 0.000000 
#    z 0.000000 0.000000 1.596380 
# 
# From -- ./inp_files/3610.got.cif
#   From: 2010.05.17/outbox.cif.g08.bks.cpg/sg130_2_cif.got.tgz:3610.got - 2010.05.20 12:17:35.
