data_PCOD9565018
_publ_section_title
;
Structure prediction by ZEFSAII (Michael W. Deem and Ramdas Pophale) SiO2 
 PCOD9565018
Probable space group: P 4/M N C
;
_chemical_formula_sum "Si O2"
_cell_formula_units_Z 96
_cell_length_a 14.144900
_cell_length_b 14.144900
_cell_length_c 21.804005
_cell_angle_alpha 90.000000
_cell_angle_beta 90.000000
_cell_angle_gamma 90.000000
_cell_volume 4362.505986
_symmetry_space_group_name_H-M "P 4/M N C"
_symmetry_group_IT_number 128
_symmetry_cell_setting 'tetragonal'
loop_
_space_group_symop_operation_xyz
x,y,z
-y,x,z
-x,-y,z
y,-x,z
1/2+x,1/2-y,1/2-z
1/2-x,1/2+y,1/2-z
1/2+y,1/2+x,1/2-z
1/2-y,1/2-x,1/2-z
-x,-y,-z
y,-x,-z
x,y,-z
-y,x,-z
1/2-x,1/2+y,1/2+z
1/2+x,1/2-y,1/2+z
1/2-y,1/2-x,1/2+z
1/2+y,1/2+x,1/2+z
loop_
_atom_site_type_symbol
_atom_site_label
_atom_site_fract_x
_atom_site_fract_y
_atom_site_fract_z
Si Si1 0.810826 0.340454 0.130923
Si Si2 0.470270 0.655027 0.572558
Si Si3 0.077313 0.863300 0.431125
Si Si4 0.096387 0.483057 0.814258
Si Si5 0.128704 0.390596 0.000000
Si Si6 0.296736 0.841591 0.125370
Si Si7 0.887383 0.399702 0.500000
O O1 0.709877 0.386569 0.117025
O O2 0.857278 0.413745 0.179022
O O3 0.779845 0.234501 0.147987
O O4 0.865143 0.341914 0.064753
O O5 0.393112 0.571586 0.582011
O O6 0.464552 0.680411 0.500000
O O7 0.441015 0.740786 0.616811
O O8 0.098169 0.829778 0.500000
O O9 0.965732 0.877108 0.425095
O O10 0.059692 0.440309 0.750000
O O11 0.155209 0.394852 0.838584
O O12 0.000000 0.500000 0.853449
O O13 0.175042 0.336936 0.057180
O O14 0.140026 0.504285 0.000000
O O15 0.013943 0.384445 0.000000
#
# Coordination Sequence:
#
# PCOD9565018 Si02
#       7
#    16  16  16  16   8  16   8
#     4  12  23  37  65 101 133 177 226 284 344 428
#     4   9  20  36  55  90 141 182 212 261 333 408
#     4   9  18  31  51  86 138 184 213 257 330 412
#     4  11  27  52  70  89 131 180 231 296 357 403
#     4  11  23  38  58 101 147 185 225 275 345 431
#     4  12  24  38  69 103 132 176 236 286 342 421
#     4  11  23  36  62  97 155 191 219 269 357 435
#
# _framework density 22.005700000000001
#
# number of rings (size 3 to 8) (size 9 to 14) (size 15 to 20)
#    0.000    1.333    3.333    3.500    4.667    0.000 
#    3.000    0.000    0.000    0.000    0.000    0.000 
#    0.000    0.000    0.000    0.000    0.000    0.000 
#
# Total GULP energy -535646.565740 kJ/mol
# GULP energy per Si atom -5579.651726 kJ/mol
# Density = 2.195561 g / cm^3
# Si number density = 22.005700 Si / 1000 Ang^3
#
#
#
# Elastic Constant Matrix: (Units=GPa)
#
#
# Indices 1 2 3 4 5 6 
#
# 1 -54.9247 119.7342 3.4169 0.0000 0.0000 0.0000
# 2 119.7342 -54.9231 3.4172 0.0000 0.0000 0.0000
# 3 3.4169 3.4172 58.1337 0.0000 0.0000 0.0000
# 4 0.0000 0.0000 0.0000 9.2215 0.0000 0.0000
# 5 0.0000 0.0000 0.0000 0.0000 9.2207 0.0000
# 6 0.0000 0.0000 0.0000 0.0000 0.0000 28.7412
#
#
#
# Elastic Compliance Matrix: (Units=1/GPa)
#
#
# Indices 1 2 3 4 5 6 
#
# 1 0.004900 0.010626 -0.000913 0.000000 0.000000 0.000000
# 2 0.010626 0.004900 -0.000913 0.000000 0.000000 0.000000
# 3 -0.000913 -0.000913 0.017309 0.000000 0.000000 0.000000
# 4 0.000000 0.000000 0.000000 0.108442 0.000000 0.000000
# 5 0.000000 0.000000 0.000000 0.000000 0.108452 0.000000
# 6 0.000000 0.000000 0.000000 0.000000 0.000000 0.034793
#
#
# Mechanical properties :
#
#
# Convention : Reuss Voigt Hill
#
# Bulk Modulus (GPa) = 22.36617 22.38027 22.37322
# Shear Modulus (GPa) = 18.10942 -2.44881 7.83030
#
# Velocity S-wave (km/s) = 2.87181 -1.05604 1.88839
# Velocity P-wave (km/s) = 4.60242 2.95048 3.86572
#
# Compressibility (1/GPa) = 0.04471038
#
# Stress axis : x y z
#
# Youngs Moduli (GPa) = 204.07604 204.07003 57.77341
#
# Poissons Ratio (x) = -2.16838 0.05272
# Poissons Ratio (y) = -2.16845 0.05272
# Poissons Ratio (z) = 0.18624 0.18623
#
# Static dielectric constant tensor:
#      x y z
#    x 1.903970 0.000000 0.000000 
#    y 0.000000 1.903970 0.000000 
#    z 0.000000 0.000000 2.826170 
# 
# From -- ./inp_files/5814.got.cif
#   From: 2010.05.17/outbox.cif.g08.bks.cpg/sg128_3_cif.got.tgz:5814.got - 2010.05.20 12:07:25.
