data_PCOD9565308
_publ_section_title
;
Structure prediction by ZEFSAII (Michael W. Deem and Ramdas Pophale) SiO2 
 PCOD9565308
Probable space group: P 4/N M M
;
_chemical_formula_sum "Si O2"
_cell_formula_units_Z 64
_cell_length_a 20.791118
_cell_length_b 20.791118
_cell_length_c 7.257486
_cell_angle_alpha 90.000000
_cell_angle_beta 90.000000
_cell_angle_gamma 90.000000
_cell_volume 3137.197738
_symmetry_space_group_name_H-M "P 4/N M M"
_symmetry_group_IT_number 129
_symmetry_cell_setting 'tetragonal'
loop_
_space_group_symop_operation_xyz
x,y,z
1/2-y,x,z
1/2-x,1/2-y,z
y,1/2-x,z
1/2+x,-y,-z
-x,1/2+y,-z
1/2+y,1/2+x,-z
-y,-x,-z
-x,-y,-z
1/2+y,-x,-z
1/2+x,1/2+y,-z
-y,1/2+x,-z
1/2-x,y,z
x,1/2-y,z
1/2-y,1/2-x,z
y,x,z
loop_
_atom_site_type_symbol
_atom_site_label
_atom_site_fract_x
_atom_site_fract_y
_atom_site_fract_z
Si Si1 0.848459 0.179931 0.299675
Si Si2 0.552341 0.552341 0.769607
Si Si3 0.317965 0.505571 0.247620
Si Si4 0.322657 0.531628 0.808247
Si Si5 0.447245 0.447245 0.782825
O O1 0.817966 0.182035 0.500000
O O2 0.834612 0.250000 0.204091
O O3 0.924631 0.179315 0.336368
O O4 0.834198 0.109174 0.214738
O O5 0.533824 0.621106 0.696565
O O6 0.499605 0.499605 0.722519
O O7 0.554475 0.554475 0.992850
O O8 0.250000 0.473636 0.285399
O O9 0.322240 0.520120 0.028760
O O10 0.250000 0.517897 0.739254
O O11 0.378222 0.482211 0.735687
#
# Coordination Sequence:
#
# PCOD9565308 Si02
#       5
#    16   8  16  16   8
#     4  11  22  34  47  67  99 133 161 193 239 285
#     4   9  14  28  52  71  97 123 154 205 243 272
#     4   9  18  32  52  74  94 125 166 200 234 281
#     4  10  19  33  53  73  95 126 165 201 233 282
#     4   9  16  28  50  75  95 121 158 201 245 274
#
# _framework density 20.400372000000001
#
# number of rings (size 3 to 8) (size 9 to 14) (size 15 to 20)
#    0.000    2.250    2.500    1.500    0.000    1.750 
#    0.000    3.750    0.000    9.750    0.000    5.250 
#    0.000    0.000    0.000    6.250    0.000    8.000 
#
# Total GULP energy -356509.181888 kJ/mol
# GULP energy per Si atom -5570.455967 kJ/mol
# Density = 2.035394 g / cm^3
# Si number density = 20.400372 Si / 1000 Ang^3
#
#
#
# Elastic Constant Matrix: (Units=GPa)
#
#
# Indices 1 2 3 4 5 6 
#
# 1 175.6480 115.5717 11.8102 0.0000 0.0000 0.0000
# 2 115.5717 175.6477 11.8097 0.0000 0.0000 0.0000
# 3 11.8102 11.8097 51.5496 0.0000 0.0000 0.0000
# 4 0.0000 0.0000 0.0000 2.8641 0.0000 0.0000
# 5 0.0000 0.0000 0.0000 0.0000 2.8635 0.0000
# 6 0.0000 0.0000 0.0000 0.0000 0.0000 21.9206
#
#
#
# Elastic Compliance Matrix: (Units=1/GPa)
#
#
# Indices 1 2 3 4 5 6 
#
# 1 0.010072 -0.006573 -0.000802 0.000000 0.000000 0.000000
# 2 -0.006573 0.010072 -0.000801 0.000000 0.000000 0.000000
# 3 -0.000802 -0.000801 0.019766 0.000000 0.000000 0.000000
# 4 0.000000 0.000000 0.000000 0.349153 0.000000 0.000000
# 5 0.000000 0.000000 0.000000 0.000000 0.349224 0.000000
# 6 0.000000 0.000000 0.000000 0.000000 0.000000 0.045619
#
#
# Mechanical properties :
#
#
# Convention : Reuss Voigt Hill
#
# Bulk Modulus (GPa) = 42.44943 75.69205 59.07074
# Shear Modulus (GPa) = 6.18726 23.10655 14.64691
#
# Velocity S-wave (km/s) = 1.74342 3.36914 2.68241
# Velocity P-wave (km/s) = 4.99059 7.23316 6.21388
#
# Compressibility (1/GPa) = 0.02355744
#
# Stress axis : x y z
#
# Youngs Moduli (GPa) = 99.28319 99.28320 50.59175
#
# Poissons Ratio (x) = 0.65262 0.04056
# Poissons Ratio (y) = 0.65262 0.04055
# Poissons Ratio (z) = 0.07959 0.07958
#
# Static dielectric constant tensor:
#      x y z
#    x 1.734810 0.000000 0.000000 
#    y 0.000000 1.734810 0.000000 
#    z 0.000000 0.000000 1.814510 
# 
# From -- ./inp_files/2122.got.cif
#   From: 2010.05.17/outbox.cif.g08.bks.cpg/sg129_2_cif.got.tgz:2122.got - 2010.05.20 12:12:06.
