data_PCOD9565783
_publ_section_title
;
Structure prediction by ZEFSAII (Michael W. Deem and Ramdas Pophale) SiO2 
 PCOD9565783
Probable space group: P 4/N C C
;
_chemical_formula_sum "Si O2"
_cell_formula_units_Z 44
_cell_length_a 11.427688
_cell_length_b 11.427688
_cell_length_c 13.505413
_cell_angle_alpha 90.000000
_cell_angle_beta 90.000000
_cell_angle_gamma 90.000000
_cell_volume 1763.699611
_symmetry_space_group_name_H-M "P 4/N C C"
_symmetry_group_IT_number 130
_symmetry_cell_setting 'tetragonal'
loop_
_space_group_symop_operation_xyz
x,y,z
1/2-y,x,z
1/2-x,1/2-y,z
y,1/2-x,z
1/2+x,-y,1/2-z
-x,1/2+y,1/2-z
1/2+y,1/2+x,1/2-z
-y,-x,1/2-z
-x,-y,-z
1/2+y,-x,-z
1/2+x,1/2+y,-z
-y,1/2+x,-z
1/2-x,y,1/2+z
x,1/2-y,1/2+z
1/2-y,1/2-x,1/2+z
y,x,1/2+z
loop_
_atom_site_type_symbol
_atom_site_label
_atom_site_fract_x
_atom_site_fract_y
_atom_site_fract_z
Si Si1 0.250000 0.750000 0.000000
Si Si2 0.474681 0.884687 0.432514
Si Si3 0.293951 0.433896 0.384069
Si Si4 0.965828 0.465828 0.250000
O O1 0.156838 0.831360 0.939016
O O2 0.545718 0.791813 0.498112
O O3 0.520867 0.926028 0.327002
O O4 0.500000 0.000000 0.500000
O O5 0.168144 0.386351 0.359071
O O6 0.348287 0.534573 0.316445
#
# Coordination Sequence:
#
# PCOD9565783 Si02
#       4
#     4  16  16   8
#     4  12  24  42  72 100 140 194 224 278 360 404
#     4  10  22  41  62  95 136 174 226 281 333 412
#     4  10  22  41  63  91 132 177 220 275 340 403
#     4  10  22  39  64  97 130 168 228 287 336 409
#
# _framework density 24.947561
#
# number of rings (size 3 to 8) (size 9 to 14) (size 15 to 20)
#    0.000    1.818    0.000    4.364    0.000    9.455 
#    0.000    3.636    0.000    0.000    0.000    0.000 
#    0.000    0.000    0.000    0.000    0.000    0.000 
#
# Total GULP energy -245392.071605 kJ/mol
# GULP energy per Si atom -5577.092536 kJ/mol
# Density = 2.489078 g / cm^3
# Si number density = 24.947561 Si / 1000 Ang^3
#
#
#
# Elastic Constant Matrix: (Units=GPa)
#
#
# Indices 1 2 3 4 5 6 
#
# 1 64.8036 39.1282 27.2531 0.0000 0.0000 0.0000
# 2 39.1282 64.8036 27.2531 0.0000 0.0000 0.0000
# 3 27.2531 27.2531 165.7599 0.0000 0.0000 0.0000
# 4 0.0000 0.0000 0.0000 28.7123 0.0000 0.0000
# 5 0.0000 0.0000 0.0000 0.0000 28.7123 0.0000
# 6 0.0000 0.0000 0.0000 0.0000 0.0000 56.7800
#
#
#
# Elastic Compliance Matrix: (Units=1/GPa)
#
#
# Indices 1 2 3 4 5 6 
#
# 1 0.024739 -0.014209 -0.001731 0.000000 0.000000 0.000000
# 2 -0.014209 0.024739 -0.001731 0.000000 0.000000 0.000000
# 3 -0.001731 -0.001731 0.006602 0.000000 0.000000 0.000000
# 4 0.000000 0.000000 0.000000 0.034828 0.000000 0.000000
# 5 0.000000 0.000000 0.000000 0.000000 0.034828 0.000000
# 6 0.000000 0.000000 0.000000 0.000000 0.000000 0.017612
#
#
# Mechanical properties :
#
#
# Convention : Reuss Voigt Hill
#
# Bulk Modulus (GPa) = 48.22417 53.62620 50.92518
# Shear Modulus (GPa) = 26.93921 36.28976 31.61448
#
# Velocity S-wave (km/s) = 3.28965 3.81811 3.56369
# Velocity P-wave (km/s) = 5.81388 6.40153 6.11477
#
# Compressibility (1/GPa) = 0.02073649
#
# Stress axis : x y z
#
# Youngs Moduli (GPa) = 40.42250 40.42250 151.46725
#
# Poissons Ratio (x) = 0.57437 0.26222
# Poissons Ratio (y) = 0.57437 0.26222
# Poissons Ratio (z) = 0.06998 0.06998
#
# Static dielectric constant tensor:
#      x y z
#    x 2.073580 0.000000 0.000000 
#    y 0.000000 2.073580 0.000000 
#    z 0.000000 0.000000 1.997550 
# 
# From -- ./inp_files/1301.got.cif
#   From: 2010.05.17/outbox.cif.g08.bks.cpg/sg130_1_cif.got.tgz:1301.got - 2010.05.20 12:17:35.
