data_PCOD9565944
_publ_section_title
;
Structure prediction by ZEFSAII (Michael W. Deem and Ramdas Pophale) SiO2 
 PCOD9565944
Probable space group: P 4/N C C
;
_chemical_formula_sum "Si O2"
_cell_formula_units_Z 64
_cell_length_a 11.665095
_cell_length_b 11.665095
_cell_length_c 23.367979
_cell_angle_alpha 90.000000
_cell_angle_beta 90.000000
_cell_angle_gamma 90.000000
_cell_volume 3179.784688
_symmetry_space_group_name_H-M "P 4/N C C"
_symmetry_group_IT_number 130
_symmetry_cell_setting 'tetragonal'
loop_
_space_group_symop_operation_xyz
x,y,z
1/2-y,x,z
1/2-x,1/2-y,z
y,1/2-x,z
1/2+x,-y,1/2-z
-x,1/2+y,1/2-z
1/2+y,1/2+x,1/2-z
-y,-x,1/2-z
-x,-y,-z
1/2+y,-x,-z
1/2+x,1/2+y,-z
-y,1/2+x,-z
1/2-x,y,1/2+z
x,1/2-y,1/2+z
1/2-y,1/2-x,1/2+z
y,x,1/2+z
loop_
_atom_site_type_symbol
_atom_site_label
_atom_site_fract_x
_atom_site_fract_y
_atom_site_fract_z
Si Si1 0.703080 0.938888 0.123837
Si Si2 0.123200 0.944494 0.575865
Si Si3 0.386925 0.943409 0.549279
Si Si4 0.876929 0.304546 0.809971
O O1 0.619673 0.828847 0.120027
O O2 0.652681 0.028275 0.076581
O O3 0.712088 0.020492 0.180600
O O4 0.257204 0.929563 0.566891
O O5 0.064323 0.890609 0.519349
O O6 0.102837 0.888421 0.636927
O O7 0.065771 0.069104 0.572528
O O8 0.750000 0.250000 0.816232
O O9 0.870859 0.370859 0.750000
#
# Coordination Sequence:
#
# PCOD9565944 Si02
#       4
#    16  16  16  16
#     4  11  23  43  69 101 135 175 231 281 341 416
#     4  11  24  42  64 101 136 175 232 279 354 411
#     4  11  24  42  70  99 136 180 222 298 350 412
#     4  11  23  44  69  96 132 184 227 276 337 414
#
# _framework density 20.127148999999999
#
# number of rings (size 3 to 8) (size 9 to 14) (size 15 to 20)
#    0.000    1.000    5.000    1.500    3.500    0.500 
#    9.000    0.000    0.000    0.000    0.000    0.000 
#    0.000    0.000    0.000    0.000    0.000    0.000 
#
# Total GULP energy -356478.446983 kJ/mol
# GULP energy per Si atom -5569.975734 kJ/mol
# Density = 2.008134 g / cm^3
# Si number density = 20.127149 Si / 1000 Ang^3
#
#
#
# Elastic Constant Matrix: (Units=GPa)
#
#
# Indices 1 2 3 4 5 6 
#
# 1 119.0431 35.0640 49.6805 0.0000 0.0000 0.0000
# 2 35.0640 119.0431 49.6805 0.0000 0.0000 0.0000
# 3 49.6805 49.6805 153.0769 0.0000 0.0000 0.0000
# 4 0.0000 0.0000 0.0000 24.0255 0.0000 0.0000
# 5 0.0000 0.0000 0.0000 0.0000 24.0255 0.0000
# 6 0.0000 0.0000 0.0000 0.0000 0.0000 -53.5208
#
#
#
# Elastic Compliance Matrix: (Units=1/GPa)
#
#
# Indices 1 2 3 4 5 6 
#
# 1 0.010057 -0.001851 -0.002663 0.000000 0.000000 0.000000
# 2 -0.001851 0.010057 -0.002663 0.000000 0.000000 0.000000
# 3 -0.002663 -0.002663 0.008261 0.000000 0.000000 0.000000
# 4 0.000000 0.000000 0.000000 0.041622 0.000000 0.000000
# 5 0.000000 0.000000 0.000000 0.000000 0.041622 0.000000
# 6 0.000000 0.000000 0.000000 0.000000 0.000000 -0.018684
#
#
# Mechanical properties :
#
#
# Convention : Reuss Voigt Hill
#
# Bulk Modulus (GPa) = 71.32377 73.33482 72.32930
# Shear Modulus (GPa) = 44.65727 16.02193 30.33960
#
# Velocity S-wave (km/s) = 4.71548 2.82447 3.88673
# Velocity P-wave (km/s) = 8.07225 6.86671 7.49376
#
# Compressibility (1/GPa) = 0.01402057
#
# Stress axis : x y z
#
# Youngs Moduli (GPa) = 99.43387 99.43387 121.04528
#
# Poissons Ratio (x) = 0.18403 0.32238
# Poissons Ratio (y) = 0.18403 0.32238
# Poissons Ratio (z) = 0.26482 0.26482
#
# Static dielectric constant tensor:
#      x y z
#    x 1.801760 0.000000 0.000000 
#    y 0.000000 1.801760 0.000000 
#    z 0.000000 0.000000 1.699880 
# 
# From -- ./inp_files/4096.got.cif
#   From: 2010.05.17/outbox.cif.g08.bks.cpg/sg130_3_cif.got.tgz:4096.got - 2010.05.20 12:17:35.
