data_PCOD9565147
_publ_section_title
;
Structure prediction by ZEFSAII (Michael W. Deem and Ramdas Pophale) SiO2 
 PCOD9565147
Probable space group: P 4/N M M
;
_chemical_formula_sum "Si O2"
_cell_formula_units_Z 128
_cell_length_a 23.610762
_cell_length_b 23.610762
_cell_length_c 12.664367
_cell_angle_alpha 90.000000
_cell_angle_beta 90.000000
_cell_angle_gamma 90.000000
_cell_volume 7059.980384
_symmetry_space_group_name_H-M "P 4/N M M"
_symmetry_group_IT_number 129
_symmetry_cell_setting 'tetragonal'
loop_
_space_group_symop_operation_xyz
x,y,z
1/2-y,x,z
1/2-x,1/2-y,z
y,1/2-x,z
1/2+x,-y,-z
-x,1/2+y,-z
1/2+y,1/2+x,-z
-y,-x,-z
-x,-y,-z
1/2+y,-x,-z
1/2+x,1/2+y,-z
-y,1/2+x,-z
1/2-x,y,z
x,1/2-y,z
1/2-y,1/2-x,z
y,x,z
loop_
_atom_site_type_symbol
_atom_site_label
_atom_site_fract_x
_atom_site_fract_y
_atom_site_fract_z
Si Si1 0.628436 0.536056 0.598498
Si Si2 0.576510 0.187716 0.716141
Si Si3 0.430096 0.687450 0.533436
Si Si4 0.864586 0.312140 0.265196
Si Si5 0.404870 0.183373 0.605198
Si Si6 0.999333 0.592484 0.990520
Si Si7 0.978003 0.609749 0.232529
Si Si8 0.816101 0.495189 0.809397
O O1 0.568029 0.568029 0.604411
O O2 0.635025 0.471234 0.559529
O O3 0.663150 0.568740 0.506599
O O4 0.658034 0.532313 0.713081
O O5 0.553675 0.250000 0.749605
O O6 0.580160 0.189450 0.589809
O O7 0.637667 0.176560 0.765178
O O8 0.539968 0.131860 0.739595
O O9 0.457248 0.750000 0.561072
O O10 0.375996 0.684923 0.608515
O O11 0.843749 0.250000 0.236803
O O12 0.928542 0.319020 0.221830
O O13 0.408705 0.250000 0.614841
O O14 0.341860 0.158141 0.609425
O O15 0.439227 0.152832 0.699891
O O16 0.955772 0.544229 0.951088
O O17 0.998901 0.644573 0.911204
O O18 0.978039 0.611964 0.105853
O O19 0.059754 0.559754 0.000000
O O20 0.952443 0.547558 0.260328
O O21 0.750000 0.509113 0.825969
#
# Coordination Sequence:
#
# PCOD9565147 Si02
#       8
#    16  16  16  16  16  16  16  16
#     4  10  18  30  52  78 108 143 180 224 274 328
#     4  11  20  31  52  75 101 140 182 222 265 320
#     4   9  17  30  47  68  99 136 176 216 258 310
#     4   9  19  34  49  71 103 137 175 221 268 315
#     4  10  19  32  51  76 109 145 181 224 272 327
#     4  10  21  38  58  79 107 139 175 226 283 339
#     4  10  21  35  53  78 108 139 174 220 276 333
#     4  10  20  35  56  78 105 141 183 227 273 332
#
# _framework density 18.130362000000002
#
# number of rings (size 3 to 8) (size 9 to 14) (size 15 to 20)
#    0.000    2.125    1.250    3.750    0.000    1.375 
#    0.000    2.500    0.000    6.000    0.000    0.000 
#    0.000    6.250    0.000    0.500    0.000    0.125 
#
# Total GULP energy -712559.972377 kJ/mol
# GULP energy per Si atom -5566.874784 kJ/mol
# Density = 1.808910 g / cm^3
# Si number density = 18.130362 Si / 1000 Ang^3
#
#
#
# Elastic Constant Matrix: (Units=GPa)
#
#
# Indices 1 2 3 4 5 6 
#
# 1 31.3857 73.9982 22.7223 0.0000 0.0000 0.0000
# 2 73.9982 31.3857 22.7223 0.0000 0.0000 0.0000
# 3 22.7223 22.7223 80.1846 0.0000 0.0000 0.0000
# 4 0.0000 0.0000 0.0000 9.7877 0.0000 0.0000
# 5 0.0000 0.0000 0.0000 0.0000 9.7877 0.0000
# 6 0.0000 0.0000 0.0000 0.0000 0.0000 17.6247
#
#
#
# Elastic Compliance Matrix: (Units=1/GPa)
#
#
# Indices 1 2 3 4 5 6 
#
# 1 -0.006329 0.017139 -0.003063 0.000000 0.000000 0.000000
# 2 0.017139 -0.006329 -0.003063 0.000000 0.000000 0.000000
# 3 -0.003063 -0.003063 0.014207 0.000000 0.000000 0.000000
# 4 0.000000 0.000000 0.000000 0.102169 0.000000 0.000000
# 5 0.000000 0.000000 0.000000 0.000000 0.102169 0.000000
# 6 0.000000 0.000000 0.000000 0.000000 0.000000 0.056739
#
#
# Mechanical properties :
#
#
# Convention : Reuss Voigt Hill
#
# Bulk Modulus (GPa) = 42.41906 42.42686 42.42296
# Shear Modulus (GPa) = 20.12390 9.00755 14.56572
#
# Velocity S-wave (km/s) = 3.33521 2.23137 2.83749
# Velocity P-wave (km/s) = 6.18700 5.48548 5.84677
#
# Compressibility (1/GPa) = 0.02357431
#
# Stress axis : x y z
#
# Youngs Moduli (GPa) = -158.01338 -158.01338 70.38601
#
# Poissons Ratio (x) = 2.70814 0.21561
# Poissons Ratio (y) = 2.70814 0.21561
# Poissons Ratio (z) = -0.48405 -0.48405
#
# Static dielectric constant tensor:
#      x y z
#    x 1.664870 0.000000 0.000000 
#    y 0.000000 1.664870 0.000000 
#    z 0.000000 0.000000 1.630810 
# 
# From -- ./inp_files/4226.got.cif
#   From: 2010.05.17/outbox.cif.g08.bks.cpg/sg129_3_cif.got.tgz:4226.got - 2010.05.20 12:12:06.
