data_PCOD9565444
_publ_section_title
;
Structure prediction by ZEFSAII (Michael W. Deem and Ramdas Pophale) SiO2 
 PCOD9565444
Probable space group: P 4/N M M
;
_chemical_formula_sum "Si O2"
_cell_formula_units_Z 96
_cell_length_a 27.298030
_cell_length_b 27.298030
_cell_length_c 5.496034
_cell_angle_alpha 90.000000
_cell_angle_beta 90.000000
_cell_angle_gamma 90.000000
_cell_volume 4095.548037
_symmetry_space_group_name_H-M "P 4/N M M"
_symmetry_group_IT_number 129
_symmetry_cell_setting 'tetragonal'
loop_
_space_group_symop_operation_xyz
x,y,z
1/2-y,x,z
1/2-x,1/2-y,z
y,1/2-x,z
1/2+x,-y,-z
-x,1/2+y,-z
1/2+y,1/2+x,-z
-y,-x,-z
-x,-y,-z
1/2+y,-x,-z
1/2+x,1/2+y,-z
-y,1/2+x,-z
1/2-x,y,z
x,1/2-y,z
1/2-y,1/2-x,z
y,x,z
loop_
_atom_site_type_symbol
_atom_site_label
_atom_site_fract_x
_atom_site_fract_y
_atom_site_fract_z
Si Si1 0.536703 0.199534 0.103925
Si Si2 0.250000 0.333449 0.188813
Si Si3 0.419440 0.080561 0.238891
Si Si4 0.458788 0.610306 0.243872
Si Si5 0.670944 0.537698 0.538963
Si Si6 0.250000 0.102340 0.691344
Si Si7 0.157156 0.866679 0.256518
Si Si8 0.536424 0.536424 0.260491
O O1 0.540415 0.250000 0.950312
O O2 0.491292 0.204102 0.277470
O O3 0.587228 0.192743 0.248947
O O4 0.530882 0.147126 0.977259
O O5 0.202468 0.297533 0.182201
O O6 0.250000 0.367799 0.945274
O O7 0.250000 0.363554 0.445398
O O8 0.363024 0.071713 0.297097
O O9 0.446918 0.053083 0.467544
O O10 0.436295 0.063706 0.969141
O O11 0.493901 0.636570 0.438044
O O12 0.400380 0.615041 0.266642
O O13 0.480657 0.555526 0.232746
O O14 0.701908 0.567637 0.341149
O O15 0.163830 0.836171 0.500000
O O16 0.160674 0.839327 0.000000
#
# Coordination Sequence:
#
# PCOD9565444 Si02
#       8
#    16   8   8  16  16   8  16   8
#     4  11  22  38  62  92 130 171 213 266 321 386
#     4  11  28  54  74  92 126 174 232 292 345 402
#     4  10  22  36  55  86 125 164 206 253 317 396
#     4  10  22  40  61  88 132 172 216 269 324 391
#     4  11  23  37  61  93 130 169 207 266 335 394
#     4  12  28  41  70 104 126 168 225 280 348 412
#     4  10  21  40  62  87 123 169 215 260 315 379
#     4  10  20  36  59  86 116 170 219 251 311 385
#
# _framework density 23.440087999999999
#
# number of rings (size 3 to 8) (size 9 to 14) (size 15 to 20)
#    0.000    1.417    4.167    0.500    5.833    0.667 
#    0.000    5.000    0.000    0.000    0.000    0.000 
#    0.000   39.333    0.000    0.000    0.000    0.000 
#
# Total GULP energy -535175.424158 kJ/mol
# GULP energy per Si atom -5574.744002 kJ/mol
# Density = 2.338674 g / cm^3
# Si number density = 23.440088 Si / 1000 Ang^3
#
#
#
# Elastic Constant Matrix: (Units=GPa)
#
#
# Indices 1 2 3 4 5 6 
#
# 1 58.0226 43.4702 20.6826 0.0000 0.0000 0.0000
# 2 43.4702 58.0280 20.6836 0.0000 0.0000 0.0000
# 3 20.6826 20.6836 128.7198 0.0000 0.0000 0.0000
# 4 0.0000 0.0000 0.0000 -17.5221 0.0000 0.0000
# 5 0.0000 0.0000 0.0000 0.0000 -17.5287 0.0000
# 6 0.0000 0.0000 0.0000 0.0000 0.0000 -93.5791
#
#
#
# Elastic Compliance Matrix: (Units=1/GPa)
#
#
# Indices 1 2 3 4 5 6 
#
# 1 0.039626 -0.029081 -0.001694 0.000000 0.000000 0.000000
# 2 -0.029081 0.039622 -0.001694 0.000000 0.000000 0.000000
# 3 -0.001694 -0.001694 0.008313 0.000000 0.000000 0.000000
# 4 0.000000 0.000000 0.000000 -0.057071 0.000000 0.000000
# 5 0.000000 0.000000 0.000000 0.000000 -0.057049 0.000000
# 6 0.000000 0.000000 0.000000 0.000000 0.000000 -0.010686
#
#
# Mechanical properties :
#
#
# Convention : Reuss Voigt Hill
#
# Bulk Modulus (GPa) = 44.20267 46.04924 45.12596
# Shear Modulus (GPa) = 141.91183 -15.06371 63.42406
#
# Velocity S-wave (km/s) = 7.78934 -2.53780 5.20737
# Velocity P-wave (km/s) = 9.98985 3.33181 7.44641
#
# Compressibility (1/GPa) = 0.02262307
#
# Stress axis : x y z
#
# Youngs Moduli (GPa) = 25.23621 25.23857 120.29011
#
# Poissons Ratio (x) = 0.73395 0.20379
# Poissons Ratio (y) = 0.73388 0.20378
# Poissons Ratio (z) = 0.04275 0.04276
#
# Static dielectric constant tensor:
#      x y z
#    x 1.977960 0.000000 0.000000 
#    y 0.000000 1.977960 0.000000 
#    z 0.000000 0.000000 2.008580 
# 
# From -- ./inp_files/1153.got.cif
#   From: 2010.05.17/outbox.cif.g08.bks.cpg/sg129_1_cif.got.tgz:1153.got - 2010.05.20 12:12:06.
