data_PCOD9565017
_publ_section_title
;
Structure prediction by ZEFSAII (Michael W. Deem and Ramdas Pophale) SiO2 
 PCOD9565017
Probable space group: P 4/M N C
;
_chemical_formula_sum "Si O2"
_cell_formula_units_Z 80
_cell_length_a 11.312823
_cell_length_b 11.312823
_cell_length_c 30.438966
_cell_angle_alpha 90.000000
_cell_angle_beta 90.000000
_cell_angle_gamma 90.000000
_cell_volume 3895.577780
_symmetry_space_group_name_H-M "P 4/M N C"
_symmetry_group_IT_number 128
_symmetry_cell_setting 'tetragonal'
loop_
_space_group_symop_operation_xyz
x,y,z
-y,x,z
-x,-y,z
y,-x,z
1/2+x,1/2-y,1/2-z
1/2-x,1/2+y,1/2-z
1/2+y,1/2+x,1/2-z
1/2-y,1/2-x,1/2-z
-x,-y,-z
y,-x,-z
x,y,-z
-y,x,-z
1/2-x,1/2+y,1/2+z
1/2+x,1/2-y,1/2+z
1/2-y,1/2-x,1/2+z
1/2+y,1/2+x,1/2+z
loop_
_atom_site_type_symbol
_atom_site_label
_atom_site_fract_x
_atom_site_fract_y
_atom_site_fract_z
Si Si1 0.928204 0.828298 0.552348
Si Si2 0.434252 0.875659 0.356499
Si Si3 0.695761 0.534122 0.277647
Si Si4 0.868266 0.555678 0.548773
Si Si5 0.307866 0.450256 0.822340
O O1 0.934527 0.845425 0.500000
O O2 0.880172 0.696504 0.554160
O O3 0.062219 0.849152 0.569519
O O4 0.456086 0.790290 0.315797
O O5 0.478015 0.819515 0.403024
O O6 0.295585 0.910625 0.354413
O O7 0.500000 0.000000 0.350942
O O8 0.592578 0.631726 0.281699
O O9 0.740769 0.550885 0.227797
O O10 0.815533 0.528883 0.500000
O O11 0.000000 0.500000 0.547607
O O12 0.418698 0.361830 0.827072
#
# Coordination Sequence:
#
# PCOD9565017 Si02
#       5
#    16  16  16  16  16
#     4   8  14  27  49  75  98 125 168 218 270 326
#     4  11  23  35  56  88 113 144 194 235 271 327
#     4   9  20  40  61  81 112 152 186 222 276 335
#     4   9  19  36  51  70 108 150 183 223 273 319
#     4   9  20  38  59  86 119 149 175 219 286 345
#
# _framework density 20.536107999999999
#
# number of rings (size 3 to 8) (size 9 to 14) (size 15 to 20)
#    0.000    2.800    0.000    2.400    2.800    3.200 
#    3.600    2.000    0.000    0.000    0.000    1.400 
#    0.000    0.000    0.000    0.000    0.000    0.000 
#
# Total GULP energy -445619.058658 kJ/mol
# GULP energy per Si atom -5570.238233 kJ/mol
# Density = 2.048937 g / cm^3
# Si number density = 20.536108 Si / 1000 Ang^3
#
#
#
# Elastic Constant Matrix: (Units=GPa)
#
#
# Indices 1 2 3 4 5 6 
#
# 1 23.1504 -0.9635 19.8317 0.0000 0.0000 0.0000
# 2 -0.9635 23.1504 19.8317 0.0000 0.0000 0.0000
# 3 19.8317 19.8317 196.5584 0.0000 0.0000 0.0000
# 4 0.0000 0.0000 0.0000 66.3659 0.0000 0.0000
# 5 0.0000 0.0000 0.0000 0.0000 66.3659 0.0000
# 6 0.0000 0.0000 0.0000 0.0000 0.0000 -19.3716
#
#
#
# Elastic Compliance Matrix: (Units=1/GPa)
#
#
# Indices 1 2 3 4 5 6 
#
# 1 0.048230 0.006760 -0.005548 0.000000 0.000000 0.000000
# 2 0.006760 0.048230 -0.005548 0.000000 0.000000 0.000000
# 3 -0.005548 -0.005548 0.006207 0.000000 0.000000 0.000000
# 4 0.000000 0.000000 0.000000 0.015068 0.000000 0.000000
# 5 0.000000 0.000000 0.000000 0.000000 0.015068 0.000000
# 6 0.000000 0.000000 0.000000 0.000000 0.000000 -0.051622
#
#
# Mechanical properties :
#
#
# Convention : Reuss Voigt Hill
#
# Bulk Modulus (GPa) = 10.63894 35.58435 23.11164
# Shear Modulus (GPa) = 41.25919 36.28266 38.77093
#
# Velocity S-wave (km/s) = 4.48717 4.20786 4.34976
# Velocity P-wave (km/s) = 5.66022 6.40105 6.04200
#
# Compressibility (1/GPa) = 0.09399433
#
# Stress axis : x y z
#
# Youngs Moduli (GPa) = 20.73401 20.73401 161.10551
#
# Poissons Ratio (x) = -0.14016 0.89385
# Poissons Ratio (y) = -0.14016 0.89385
# Poissons Ratio (z) = 0.11504 0.11504
#
# Static dielectric constant tensor:
#      x y z
#    x 1.691790 0.000000 0.000000 
#    y 0.000000 1.691790 0.000000 
#    z 0.000000 0.000000 1.826150 
# 
# From -- ./inp_files/7145.got.cif
#   From: 2010.05.17/outbox.cif.g08.bks.cpg/sg128_4_cif.got.tgz:7145.got - 2010.05.20 12:07:25.
