data_PCOD9565624
_publ_section_title
;
Structure prediction by ZEFSAII (Michael W. Deem and Ramdas Pophale) SiO2 
 PCOD9565624
Probable space group: P 4/N C C
;
_chemical_formula_sum "Si O2"
_cell_formula_units_Z 96
_cell_length_a 20.744307
_cell_length_b 20.744307
_cell_length_c 11.056905
_cell_angle_alpha 90.000000
_cell_angle_beta 90.000000
_cell_angle_gamma 90.000000
_cell_volume 4758.076719
_symmetry_space_group_name_H-M "P 4/N C C"
_symmetry_group_IT_number 130
_symmetry_cell_setting 'tetragonal'
loop_
_space_group_symop_operation_xyz
x,y,z
1/2-y,x,z
1/2-x,1/2-y,z
y,1/2-x,z
1/2+x,-y,1/2-z
-x,1/2+y,1/2-z
1/2+y,1/2+x,1/2-z
-y,-x,1/2-z
-x,-y,-z
1/2+y,-x,-z
1/2+x,1/2+y,-z
-y,1/2+x,-z
1/2-x,y,1/2+z
x,1/2-y,1/2+z
1/2-y,1/2-x,1/2+z
y,x,1/2+z
loop_
_atom_site_type_symbol
_atom_site_label
_atom_site_fract_x
_atom_site_fract_y
_atom_site_fract_z
Si Si1 0.060479 0.541251 0.383780
Si Si2 0.802856 0.524395 0.330902
Si Si3 0.208420 0.873371 0.156528
Si Si4 0.670212 0.117371 0.970674
Si Si5 0.706938 0.980651 0.053988
Si Si6 0.428349 0.077912 0.034843
O O1 0.066575 0.566575 0.250000
O O2 0.090400 0.598253 0.460411
O O3 0.093277 0.474607 0.420662
O O4 0.983852 0.537839 0.403482
O O5 0.816609 0.447032 0.331680
O O6 0.778998 0.538042 0.193586
O O7 0.754550 0.535850 0.443236
O O8 0.865124 0.566154 0.368508
O O9 0.173229 0.826772 0.250000
O O10 0.285643 0.877869 0.148399
O O11 0.186084 0.841005 0.030704
O O12 0.702650 0.059160 0.048258
O O13 0.639947 0.946617 0.014000
#
# Coordination Sequence:
#
# PCOD9565624 Si02
#       6
#    16  16  16  16  16  16
#     4  10  20  34  57  88 122 151 208 271 327 384
#     4  11  22  40  68  90 132 169 211 272 327 401
#     4  11  22  39  61  76 120 171 222 270 328 374
#     4  10  22  38  54  86 115 165 225 270 320 379
#     4  10  23  39  63  97 125 168 214 261 329 393
#     4  10  21  37  61  93 122 161 205 264 333 400
#
# _framework density 20.176219
#
# number of rings (size 3 to 8) (size 9 to 14) (size 15 to 20)
#    0.000    1.667    3.333    1.000    0.000    7.667 
#    0.000    0.833    0.000    0.500    0.000    2.333 
#    0.000    0.000    0.000    0.000    0.000    0.000 
#
# Total GULP energy -534575.192127 kJ/mol
# GULP energy per Si atom -5568.491585 kJ/mol
# Density = 2.013030 g / cm^3
# Si number density = 20.176219 Si / 1000 Ang^3
#
#
#
# Elastic Constant Matrix: (Units=GPa)
#
#
# Indices 1 2 3 4 5 6 
#
# 1 36.2797 59.6979 26.1430 0.0000 0.0000 0.0000
# 2 59.6979 36.2808 26.1399 0.0000 0.0000 0.0000
# 3 26.1430 26.1399 107.3746 0.0000 0.0000 0.0000
# 4 0.0000 0.0000 0.0000 24.4039 0.0000 0.0000
# 5 0.0000 0.0000 0.0000 0.0000 24.4036 0.0000
# 6 0.0000 0.0000 0.0000 0.0000 0.0000 23.5947
#
#
#
# Elastic Compliance Matrix: (Units=1/GPa)
#
#
# Indices 1 2 3 4 5 6 
#
# 1 -0.015346 0.027357 -0.002924 0.000000 0.000000 0.000000
# 2 0.027357 -0.015345 -0.002925 0.000000 0.000000 0.000000
# 3 -0.002924 -0.002925 0.010737 0.000000 0.000000 0.000000
# 4 0.000000 0.000000 0.000000 0.040977 0.000000 0.000000
# 5 0.000000 0.000000 0.000000 0.000000 0.040978 0.000000
# 6 0.000000 0.000000 0.000000 0.000000 0.000000 0.042382
#
#
# Mechanical properties :
#
#
# Convention : Reuss Voigt Hill
#
# Bulk Modulus (GPa) = 43.35855 44.87741 44.11798
# Shear Modulus (GPa) = 72.40663 19.01071 45.70867
#
# Velocity S-wave (km/s) = 5.99708 3.07291 4.76486
# Velocity P-wave (km/s) = 8.33606 5.90605 7.22397
#
# Compressibility (1/GPa) = 0.02306350
#
# Stress axis : x y z
#
# Youngs Moduli (GPa) = -65.16343 -65.16915 93.13437
#
# Poissons Ratio (x) = 1.78286 0.27230
# Poissons Ratio (y) = 1.78271 0.27244
# Poissons Ratio (z) = -0.19052 -0.19064
#
# Static dielectric constant tensor:
#      x y z
#    x 2.073310 0.000000 0.000000 
#    y 0.000000 2.073310 0.000000 
#    z 0.000000 0.000000 1.838000 
# 
# From -- ./inp_files/1792.got.cif
#   From: 2010.05.17/outbox.cif.g08.bks.cpg/sg130_1_cif.got.tgz:1792.got - 2010.05.20 12:17:35.
