data_PCOD9565134
_publ_section_title
;
Structure prediction by ZEFSAII (Michael W. Deem and Ramdas Pophale) SiO2 
 PCOD9565134
Probable space group: P 4/N M M
;
_chemical_formula_sum "Si O2"
_cell_formula_units_Z 112
_cell_length_a 23.463061
_cell_length_b 23.463061
_cell_length_c 12.683242
_cell_angle_alpha 90.000000
_cell_angle_beta 90.000000
_cell_angle_gamma 90.000000
_cell_volume 6982.317906
_symmetry_space_group_name_H-M "P 4/N M M"
_symmetry_group_IT_number 129
_symmetry_cell_setting 'tetragonal'
loop_
_space_group_symop_operation_xyz
x,y,z
1/2-y,x,z
1/2-x,1/2-y,z
y,1/2-x,z
1/2+x,-y,-z
-x,1/2+y,-z
1/2+y,1/2+x,-z
-y,-x,-z
-x,-y,-z
1/2+y,-x,-z
1/2+x,1/2+y,-z
-y,1/2+x,-z
1/2-x,y,z
x,1/2-y,z
1/2-y,1/2-x,z
y,x,z
loop_
_atom_site_type_symbol
_atom_site_label
_atom_site_fract_x
_atom_site_fract_y
_atom_site_fract_z
Si Si1 0.685229 0.906027 0.233996
Si Si2 0.314674 0.026020 0.972805
Si Si3 0.496915 0.315482 0.379436
Si Si4 0.910711 0.815688 0.813769
Si Si5 0.440335 0.535674 0.328151
Si Si6 0.029267 0.123396 0.587705
Si Si7 0.427215 0.517264 0.897866
O O1 0.750000 0.903871 0.270235
O O2 0.652427 0.847574 0.251292
O O3 0.684902 0.922353 0.111028
O O4 0.651764 0.953553 0.301436
O O5 0.250000 0.003797 0.977776
O O6 0.360788 0.983752 0.924133
O O7 0.331679 0.048047 0.088326
O O8 0.520058 0.250000 0.372059
O O9 0.445555 0.318156 0.295070
O O10 0.532312 0.373235 0.352167
O O11 0.478003 0.329170 0.498649
O O12 0.893529 0.750000 0.832247
O O13 0.858151 0.858151 0.811478
O O14 0.475609 0.475609 0.343147
O O15 0.474410 0.583016 0.395865
O O16 0.450273 0.553900 0.206962
O O17 0.080948 0.080948 0.558403
O O18 0.453103 0.453103 0.885488
O O19 0.456586 0.543415 0.000000
#
# Coordination Sequence:
#
# PCOD9565134 Si02
#       7
#    16  16  16  16  16  16  16
#     4  10  19  31  48  70  99 133 167 203 243 289
#     4  10  19  32  49  70 100 131 164 204 251 304
#     4  11  22  34  48  70 100 130 163 202 252 309
#     4  10  20  32  47  66  93 133 174 211 248 287
#     4  10  19  32  52  77 101 129 165 208 257 308
#     4  10  19  33  53  73  97 128 167 212 255 297
#     4  10  18  29  49  75 102 130 163 203 251 305
#
# _framework density 16.040517999999999
#
# number of rings (size 3 to 8) (size 9 to 14) (size 15 to 20)
#    0.000    1.857    1.429    4.286    0.000    2.571 
#    0.000    0.000    0.000    2.571    0.000    2.000 
#    0.000   17.429    0.000    0.000    0.000    0.000 
#
# Total GULP energy -624191.200582 kJ/mol
# GULP energy per Si atom -5573.135719 kJ/mol
# Density = 1.600401 g / cm^3
# Si number density = 16.040518 Si / 1000 Ang^3
#
#
#
# Elastic Constant Matrix: (Units=GPa)
#
#
# Indices 1 2 3 4 5 6 
#
# 1 77.3649 30.1874 14.2879 0.0000 0.0000 0.0000
# 2 30.1874 77.3674 14.2871 0.0000 0.0000 0.0000
# 3 14.2879 14.2871 87.1608 0.0000 0.0000 0.0000
# 4 0.0000 0.0000 0.0000 23.1443 0.0000 0.0000
# 5 0.0000 0.0000 0.0000 0.0000 23.1440 0.0000
# 6 0.0000 0.0000 0.0000 0.0000 0.0000 15.1696
#
#
#
# Elastic Compliance Matrix: (Units=1/GPa)
#
#
# Indices 1 2 3 4 5 6 
#
# 1 0.015459 -0.005737 -0.001594 0.000000 0.000000 0.000000
# 2 -0.005737 0.015458 -0.001593 0.000000 0.000000 0.000000
# 3 -0.001594 -0.001593 0.011995 0.000000 0.000000 0.000000
# 4 0.000000 0.000000 0.000000 0.043207 0.000000 0.000000
# 5 0.000000 0.000000 0.000000 0.000000 0.043208 0.000000
# 6 0.000000 0.000000 0.000000 0.000000 0.000000 0.065921
#
#
# Mechanical properties :
#
#
# Convention : Reuss Voigt Hill
#
# Bulk Modulus (GPa) = 39.89848 39.93534 39.91691
# Shear Modulus (GPa) = 22.57824 24.50029 23.53926
#
# Velocity S-wave (km/s) = 3.75584 3.91244 3.83494
# Velocity P-wave (km/s) = 6.61332 6.73499 6.67443
#
# Compressibility (1/GPa) = 0.02506361
#
# Stress axis : x y z
#
# Youngs Moduli (GPa) = 64.68805 64.69045 83.36484
#
# Poissons Ratio (x) = 0.37116 0.13285
# Poissons Ratio (y) = 0.37115 0.13283
# Poissons Ratio (z) = 0.10309 0.10307
#
# Static dielectric constant tensor:
#      x y z
#    x 1.539000 0.000000 0.000000 
#    y 0.000000 1.539000 0.000000 
#    z 0.000000 0.000000 1.565220 
# 
# From -- ./inp_files/4119.got.cif
#   From: 2010.05.17/outbox.cif.g08.bks.cpg/sg129_3_cif.got.tgz:4119.got - 2010.05.20 12:12:06.
