data_PCOD9565859
_publ_section_title
;
Structure prediction by ZEFSAII (Michael W. Deem and Ramdas Pophale) SiO2 
 PCOD9565859
Probable space group: P 4/N C C
;
_chemical_formula_sum "Si O2"
_cell_formula_units_Z 64
_cell_length_a 11.202678
_cell_length_b 11.202678
_cell_length_c 19.497032
_cell_angle_alpha 90.000000
_cell_angle_beta 90.000000
_cell_angle_gamma 90.000000
_cell_volume 2446.877406
_symmetry_space_group_name_H-M "P 4/N C C"
_symmetry_group_IT_number 130
_symmetry_cell_setting 'tetragonal'
loop_
_space_group_symop_operation_xyz
x,y,z
1/2-y,x,z
1/2-x,1/2-y,z
y,1/2-x,z
1/2+x,-y,1/2-z
-x,1/2+y,1/2-z
1/2+y,1/2+x,1/2-z
-y,-x,1/2-z
-x,-y,-z
1/2+y,-x,-z
1/2+x,1/2+y,-z
-y,1/2+x,-z
1/2-x,y,1/2+z
x,1/2-y,1/2+z
1/2-y,1/2-x,1/2+z
y,x,1/2+z
loop_
_atom_site_type_symbol
_atom_site_label
_atom_site_fract_x
_atom_site_fract_y
_atom_site_fract_z
Si Si1 0.453880 0.466179 0.110382
Si Si2 0.308933 0.439331 0.243732
Si Si3 0.416232 0.152127 0.472994
Si Si4 0.126222 0.796764 0.673448
O O1 0.351035 0.477648 0.167890
O O2 0.423838 0.363871 0.054723
O O3 0.583458 0.428914 0.141072
O O4 0.476492 0.581998 0.062703
O O5 0.175032 0.392187 0.251428
O O6 0.309556 0.534168 0.305298
O O7 0.407415 0.289770 0.453014
O O8 0.250000 0.750000 0.640258
O O9 0.162516 0.837485 0.750000
#
# Coordination Sequence:
#
# PCOD9565859 Si02
#       4
#    16  16  16  16
#     4  11  24  49  77 111 153 206 266 327 394 484
#     4  11  24  47  74 107 153 211 256 309 392 481
#     4  10  24  48  78 112 149 203 266 333 401 467
#     4  11  26  45  70 115 160 203 253 326 397 474
#
# _framework density 26.155783
#
# number of rings (size 3 to 8) (size 9 to 14) (size 15 to 20)
#    0.000    1.250    2.500    1.500    0.000   12.000 
#    4.500    2.500    0.000    0.000    0.000    0.000 
#    0.000    0.000    0.000    0.000    0.000    0.000 
#
# Total GULP energy -358023.132878 kJ/mol
# GULP energy per Si atom -5594.111451 kJ/mol
# Density = 2.609625 g / cm^3
# Si number density = 26.155783 Si / 1000 Ang^3
#
#
#
# Elastic Constant Matrix: (Units=GPa)
#
#
# Indices 1 2 3 4 5 6 
#
# 1 98.3724 59.3203 37.4948 0.0000 0.0000 0.0000
# 2 59.3203 98.3722 37.4947 0.0000 0.0000 0.0000
# 3 37.4948 37.4947 83.9726 0.0000 0.0000 0.0000
# 4 0.0000 0.0000 0.0000 46.6587 0.0000 0.0000
# 5 0.0000 0.0000 0.0000 0.0000 46.6586 0.0000
# 6 0.0000 0.0000 0.0000 0.0000 0.0000 41.4935
#
#
#
# Elastic Compliance Matrix: (Units=1/GPa)
#
#
# Indices 1 2 3 4 5 6 
#
# 1 0.016829 -0.008778 -0.003595 0.000000 0.000000 0.000000
# 2 -0.008778 0.016829 -0.003595 0.000000 0.000000 0.000000
# 3 -0.003595 -0.003595 0.015119 0.000000 0.000000 0.000000
# 4 0.000000 0.000000 0.000000 0.021432 0.000000 0.000000
# 5 0.000000 0.000000 0.000000 0.000000 0.021432 0.000000
# 6 0.000000 0.000000 0.000000 0.000000 0.000000 0.024100
#
#
# Mechanical properties :
#
#
# Convention : Reuss Voigt Hill
#
# Bulk Modulus (GPa) = 59.37729 61.03742 60.20735
# Shear Modulus (GPa) = 32.61778 36.72264 34.67021
#
# Velocity S-wave (km/s) = 3.53520 3.75106 3.64473
# Velocity P-wave (km/s) = 6.27807 6.49210 6.38598
#
# Compressibility (1/GPa) = 0.01684146
#
# Stress axis : x y z
#
# Youngs Moduli (GPa) = 59.42157 59.42142 66.14223
#
# Poissons Ratio (x) = 0.52160 0.23777
# Poissons Ratio (y) = 0.52160 0.23777
# Poissons Ratio (z) = 0.21361 0.21361
#
# Static dielectric constant tensor:
#      x y z
#    x 2.142990 0.000000 0.000000 
#    y 0.000000 2.143000 0.000000 
#    z 0.000000 0.000000 2.045480 
# 
# From -- ./inp_files/3502.got.cif
#   From: 2010.05.17/outbox.cif.g08.bks.cpg/sg130_2_cif.got.tgz:3502.got - 2010.05.20 12:17:35.
