data_PCOD9565939
_publ_section_title
;
Structure prediction by ZEFSAII (Michael W. Deem and Ramdas Pophale) SiO2 
 PCOD9565939
Probable space group: P 4/N C C
;
_chemical_formula_sum "Si O2"
_cell_formula_units_Z 56
_cell_length_a 13.808208
_cell_length_b 13.808208
_cell_length_c 12.185043
_cell_angle_alpha 90.000000
_cell_angle_beta 90.000000
_cell_angle_gamma 90.000000
_cell_volume 2323.280819
_symmetry_space_group_name_H-M "P 4/N C C"
_symmetry_group_IT_number 130
_symmetry_cell_setting 'tetragonal'
loop_
_space_group_symop_operation_xyz
x,y,z
1/2-y,x,z
1/2-x,1/2-y,z
y,1/2-x,z
1/2+x,-y,1/2-z
-x,1/2+y,1/2-z
1/2+y,1/2+x,1/2-z
-y,-x,1/2-z
-x,-y,-z
1/2+y,-x,-z
1/2+x,1/2+y,-z
-y,1/2+x,-z
1/2-x,y,1/2+z
x,1/2-y,1/2+z
1/2-y,1/2-x,1/2+z
y,x,1/2+z
loop_
_atom_site_type_symbol
_atom_site_label
_atom_site_fract_x
_atom_site_fract_y
_atom_site_fract_z
Si Si1 0.353781 0.804359 0.871193
Si Si2 0.887214 0.835677 0.142640
Si Si3 0.004026 0.504026 0.750000
Si Si4 0.135600 0.526354 0.050001
O O1 0.250000 0.750000 0.887459
O O2 0.345218 0.845218 0.750000
O O3 0.440780 0.729622 0.883135
O O4 0.371262 0.888381 0.959211
O O5 0.779869 0.879402 0.157467
O O6 0.959830 0.889777 0.225641
O O7 0.928842 0.853468 0.019790
O O8 0.949803 0.473328 0.862414
#
# Coordination Sequence:
#
# PCOD9565939 Si02
#       4
#    16  16   8  16
#     4  11  23  41  74 124 168 207 262 348 424 492
#     4  11  29  53  76 112 163 220 277 342 425 514
#     4  12  28  48  83 119 154 214 288 342 418 510
#     4  12  24  45  78 116 161 211 273 346 424 503
#
# _framework density 24.103845
#
# number of rings (size 3 to 8) (size 9 to 14) (size 15 to 20)
#    0.000    0.571    2.857    4.286    6.000    2.286 
#    0.000    2.857    0.000    0.000    0.000    0.000 
#    0.000    0.000    0.000    0.000    0.000    0.000 
#
# Total GULP energy -313513.484412 kJ/mol
# GULP energy per Si atom -5598.455079 kJ/mol
# Density = 2.404898 g / cm^3
# Si number density = 24.103845 Si / 1000 Ang^3
#
#
#
# Elastic Constant Matrix: (Units=GPa)
#
#
# Indices 1 2 3 4 5 6 
#
# 1 153.4680 97.9527 64.0741 0.0000 0.0000 0.0000
# 2 97.9527 153.4680 64.0741 0.0000 0.0000 0.0000
# 3 64.0741 64.0741 119.7678 0.0000 0.0000 0.0000
# 4 0.0000 0.0000 0.0000 49.1713 0.0000 0.0000
# 5 0.0000 0.0000 0.0000 0.0000 49.1713 0.0000
# 6 0.0000 0.0000 0.0000 0.0000 0.0000 32.3490
#
#
#
# Elastic Compliance Matrix: (Units=1/GPa)
#
#
# Indices 1 2 3 4 5 6 
#
# 1 0.011741 -0.006272 -0.002926 0.000000 0.000000 0.000000
# 2 -0.006272 0.011741 -0.002926 0.000000 0.000000 0.000000
# 3 -0.002926 -0.002926 0.011480 0.000000 0.000000 0.000000
# 4 0.000000 0.000000 0.000000 0.020337 0.000000 0.000000
# 5 0.000000 0.000000 0.000000 0.000000 0.020337 0.000000
# 6 0.000000 0.000000 0.000000 0.000000 0.000000 0.030913
#
#
# Mechanical properties :
#
#
# Convention : Reuss Voigt Hill
#
# Bulk Modulus (GPa) = 93.33133 97.65617 95.49375
# Shear Modulus (GPa) = 37.21156 39.51184 38.36170
#
# Velocity S-wave (km/s) = 3.93339 4.05314 3.99371
# Velocity P-wave (km/s) = 7.70930 7.90611 7.80833
#
# Compressibility (1/GPa) = 0.01071452
#
# Stress axis : x y z
#
# Youngs Moduli (GPa) = 85.17301 85.17301 87.10953
#
# Poissons Ratio (x) = 0.53423 0.25485
# Poissons Ratio (y) = 0.53423 0.25485
# Poissons Ratio (z) = 0.24918 0.24918
#
# Static dielectric constant tensor:
#      x y z
#    x 1.969960 0.000000 0.000000 
#    y 0.000000 1.969960 0.000000 
#    z 0.000000 0.000000 1.903330 
# 
# From -- ./inp_files/1434.got.cif
#   From: 2010.05.17/outbox.cif.g08.bks.cpg/sg130_1_cif.got.tgz:1434.got - 2010.05.20 12:17:35.
