data_PCOD9565464
_publ_section_title
;
Structure prediction by ZEFSAII (Michael W. Deem and Ramdas Pophale) SiO2 
 PCOD9565464
Probable space group: P 4/N M M
;
_chemical_formula_sum "Si O2"
_cell_formula_units_Z 80
_cell_length_a 13.427921
_cell_length_b 13.427921
_cell_length_c 26.187234
_cell_angle_alpha 90.000000
_cell_angle_beta 90.000000
_cell_angle_gamma 90.000000
_cell_volume 4721.795609
_symmetry_space_group_name_H-M "P 4/N M M"
_symmetry_group_IT_number 129
_symmetry_cell_setting 'tetragonal'
loop_
_space_group_symop_operation_xyz
x,y,z
1/2-y,x,z
1/2-x,1/2-y,z
y,1/2-x,z
1/2+x,-y,-z
-x,1/2+y,-z
1/2+y,1/2+x,-z
-y,-x,-z
-x,-y,-z
1/2+y,-x,-z
1/2+x,1/2+y,-z
-y,1/2+x,-z
1/2-x,y,z
x,1/2-y,z
1/2-y,1/2-x,z
y,x,z
loop_
_atom_site_type_symbol
_atom_site_label
_atom_site_fract_x
_atom_site_fract_y
_atom_site_fract_z
Si Si1 0.132589 0.967333 0.339419
Si Si2 0.631800 0.033359 0.049261
Si Si3 0.867021 0.032307 0.244749
Si Si4 0.635388 0.469456 0.544415
Si Si5 0.967080 0.132075 0.147505
O O1 0.250000 0.982341 0.330780
O O2 0.087051 0.893379 0.297761
O O3 0.118565 0.930942 0.397797
O O4 0.069990 0.069990 0.334575
O O5 0.750000 0.019169 0.048651
O O6 0.596780 0.093096 0.099445
O O7 0.570328 0.929673 0.048982
O O8 0.594945 0.094945 0.000000
O O9 0.750000 0.016631 0.239166
O O10 0.909676 0.099715 0.198824
O O11 0.929976 0.929976 0.243280
O O12 0.606861 0.393140 0.500000
O O13 0.750000 0.498291 0.540615
O O14 0.564475 0.564475 0.537778
O O15 0.981464 0.250000 0.145319
O O16 0.070554 0.070554 0.146556
#
# Coordination Sequence:
#
# PCOD9565464 Si02
#       5
#    16  16  16  16  16
#     4   9  18  32  50  73  99 127 160 198 242 292
#     4  10  21  36  54  78 106 136 173 214 255 302
#     4  10  21  36  53  74 100 130 166 206 246 291
#     4   9  18  32  49  70  97 127 160 200 243 288
#     4  10  21  36  54  78 106 135 169 207 248 297
#
# _framework density 16.942706000000001
#
# number of rings (size 3 to 8) (size 9 to 14) (size 15 to 20)
#    0.000    2.400    0.000    1.800    0.000    5.800 
#    0.000    4.000    0.000   10.800    0.000    5.600 
#    0.000    0.000    0.000    0.000    0.000    0.000 
#
# Total GULP energy -446230.931742 kJ/mol
# GULP energy per Si atom -5577.886647 kJ/mol
# Density = 1.690414 g / cm^3
# Si number density = 16.942706 Si / 1000 Ang^3
#
#
#
# Elastic Constant Matrix: (Units=GPa)
#
#
# Indices 1 2 3 4 5 6 
#
# 1 119.9942 78.9509 61.5674 0.0000 0.0000 0.0000
# 2 78.9509 119.9955 61.5677 0.0000 0.0000 0.0000
# 3 61.5674 61.5677 119.8456 0.0000 0.0000 0.0000
# 4 0.0000 0.0000 0.0000 16.6971 0.0000 0.0000
# 5 0.0000 0.0000 0.0000 0.0000 16.6970 0.0000
# 6 0.0000 0.0000 0.0000 0.0000 0.0000 3.2427
#
#
#
# Elastic Compliance Matrix: (Units=1/GPa)
#
#
# Indices 1 2 3 4 5 6 
#
# 1 0.015867 -0.008497 -0.003786 0.000000 0.000000 0.000000
# 2 -0.008497 0.015867 -0.003786 0.000000 0.000000 0.000000
# 3 -0.003786 -0.003786 0.012234 0.000000 0.000000 0.000000
# 4 0.000000 0.000000 0.000000 0.059891 0.000000 0.000000
# 5 0.000000 0.000000 0.000000 0.000000 0.059891 0.000000
# 6 0.000000 0.000000 0.000000 0.000000 0.000000 0.308382
#
#
# Mechanical properties :
#
#
# Convention : Reuss Voigt Hill
#
# Bulk Modulus (GPa) = 84.53460 84.88970 84.71215
# Shear Modulus (GPa) = 9.83839 17.84399 13.84119
#
# Velocity S-wave (km/s) = 2.41236 3.24882 2.86132
# Velocity P-wave (km/s) = 7.60013 8.01785 7.81178
#
# Compressibility (1/GPa) = 0.01182948
#
# Stress axis : x y z
#
# Youngs Moduli (GPa) = 63.02358 63.02423 81.73914
#
# Poissons Ratio (x) = 0.53553 0.30947
# Poissons Ratio (y) = 0.53552 0.30947
# Poissons Ratio (z) = 0.23861 0.23861
#
# Static dielectric constant tensor:
#      x y z
#    x 1.540480 0.000000 0.000000 
#    y 0.000000 1.540480 0.000000 
#    z 0.000000 0.000000 1.589250 
# 
# From -- ./inp_files/7688.got.cif
#   From: 2010.05.17/outbox.cif.g08.bks.cpg/sg129_4_cif.got.tgz:7688.got - 2010.05.20 12:12:06.
