data_PCOD9565190
_publ_section_title
;
Structure prediction by ZEFSAII (Michael W. Deem and Ramdas Pophale) SiO2 
 PCOD9565190
Probable space group: P 4/N M M
;
_chemical_formula_sum "Si O2"
_cell_formula_units_Z 80
_cell_length_a 13.690362
_cell_length_b 13.690362
_cell_length_c 26.382746
_cell_angle_alpha 90.000000
_cell_angle_beta 90.000000
_cell_angle_gamma 90.000000
_cell_volume 4944.812860
_symmetry_space_group_name_H-M "P 4/N M M"
_symmetry_group_IT_number 129
_symmetry_cell_setting 'tetragonal'
loop_
_space_group_symop_operation_xyz
x,y,z
1/2-y,x,z
1/2-x,1/2-y,z
y,1/2-x,z
1/2+x,-y,-z
-x,1/2+y,-z
1/2+y,1/2+x,-z
-y,-x,-z
-x,-y,-z
1/2+y,-x,-z
1/2+x,1/2+y,-z
-y,1/2+x,-z
1/2-x,y,z
x,1/2-y,z
1/2-y,1/2-x,z
y,x,z
loop_
_atom_site_type_symbol
_atom_site_label
_atom_site_fract_x
_atom_site_fract_y
_atom_site_fract_z
Si Si1 0.366619 0.979596 0.655166
Si Si2 0.362633 0.630902 0.444367
Si Si3 0.366556 0.529120 0.953038
Si Si4 0.636059 0.365781 0.243214
Si Si5 0.366613 0.973607 0.138423
O O1 0.250000 0.984092 0.654030
O O2 0.399603 0.923798 0.604332
O O3 0.394602 0.922028 0.706197
O O4 0.415460 0.084541 0.656292
O O5 0.399843 0.600157 0.500000
O O6 0.250000 0.600205 0.438400
O O7 0.362515 0.750000 0.445638
O O8 0.250000 0.516660 0.955371
O O9 0.427100 0.427100 0.954003
O O10 0.400154 0.587081 0.902735
O O11 0.407109 0.592892 0.000000
O O12 0.750000 0.389961 0.232298
O O13 0.631943 0.250000 0.253447
O O14 0.570748 0.385674 0.194147
O O15 0.250000 0.982806 0.131341
O O16 0.424607 0.075394 0.132722
#
# Coordination Sequence:
#
# PCOD9565190 Si02
#       5
#    16  16  16  16  16
#     4  10  19  29  42  61  87 118 148 178 214 260
#     4   8  14  26  44  64  84 105 134 178 227 266
#     4  10  21  36  54  77 103 131 165 203 242 285
#     4   9  17  30  49  70  89 112 147 192 238 277
#     4  10  20  33  50  73 100 129 161 196 235 281
#
# _framework density 16.178570000000001
#
# number of rings (size 3 to 8) (size 9 to 14) (size 15 to 20)
#    0.000    2.600    0.000    3.000    0.000    5.600 
#    0.000    0.000    0.000    3.600    0.000    2.800 
#    0.000    3.600    0.000    0.800    0.000    0.000 
#
# Total GULP energy -445778.063398 kJ/mol
# GULP energy per Si atom -5572.225792 kJ/mol
# Density = 1.614175 g / cm^3
# Si number density = 16.178570 Si / 1000 Ang^3
#
#
#
# Elastic Constant Matrix: (Units=GPa)
#
#
# Indices 1 2 3 4 5 6 
#
# 1 78.5466 52.8298 51.5186 0.0000 0.0000 0.0000
# 2 52.8298 78.5466 51.5186 0.0000 0.0000 0.0000
# 3 51.5186 51.5186 126.3507 0.0000 0.0000 0.0000
# 4 0.0000 0.0000 0.0000 9.5333 0.0000 0.0000
# 5 0.0000 0.0000 0.0000 0.0000 9.5323 0.0000
# 6 0.0000 0.0000 0.0000 0.0000 0.0000 17.8979
#
#
#
# Elastic Compliance Matrix: (Units=1/GPa)
#
#
# Indices 1 2 3 4 5 6 
#
# 1 0.025038 -0.013847 -0.004563 0.000000 0.000000 0.000000
# 2 -0.013847 0.025038 -0.004563 0.000000 0.000000 0.000000
# 3 -0.004563 -0.004563 0.011635 0.000000 0.000000 0.000000
# 4 0.000000 0.000000 0.000000 0.104895 0.000000 0.000000
# 5 0.000000 0.000000 0.000000 0.000000 0.104907 0.000000
# 6 0.000000 0.000000 0.000000 0.000000 0.000000 0.055873
#
#
# Mechanical properties :
#
#
# Convention : Reuss Voigt Hill
#
# Bulk Modulus (GPa) = 63.43228 66.13085 64.78157
# Shear Modulus (GPa) = 13.20704 15.89782 14.55243
#
# Velocity S-wave (km/s) = 2.86025 3.13812 3.00240
# Velocity P-wave (km/s) = 7.08525 7.35491 7.22134
#
# Compressibility (1/GPa) = 0.01576484
#
# Stress axis : x y z
#
# Youngs Moduli (GPa) = 39.93984 39.93984 85.94525
#
# Poissons Ratio (x) = 0.55306 0.39214
# Poissons Ratio (y) = 0.55306 0.39215
# Poissons Ratio (z) = 0.18223 0.18223
#
# Static dielectric constant tensor:
#      x y z
#    x 1.518980 0.000000 0.000000 
#    y 0.000000 1.518980 0.000000 
#    z 0.000000 0.000000 1.557680 
# 
# From -- ./inp_files/7693.got.cif
#   From: 2010.05.17/outbox.cif.g08.bks.cpg/sg129_4_cif.got.tgz:7693.got - 2010.05.20 12:12:06.
