data_PCOD9565373
_publ_section_title
;
Structure prediction by ZEFSAII (Michael W. Deem and Ramdas Pophale) SiO2 
 PCOD9565373
Probable space group: P 4/N M M
;
_chemical_formula_sum "Si O2"
_cell_formula_units_Z 64
_cell_length_a 14.061324
_cell_length_b 14.061324
_cell_length_c 20.898068
_cell_angle_alpha 90.000000
_cell_angle_beta 90.000000
_cell_angle_gamma 90.000000
_cell_volume 4131.983405
_symmetry_space_group_name_H-M "P 4/N M M"
_symmetry_group_IT_number 129
_symmetry_cell_setting 'tetragonal'
loop_
_space_group_symop_operation_xyz
x,y,z
1/2-y,x,z
1/2-x,1/2-y,z
y,1/2-x,z
1/2+x,-y,-z
-x,1/2+y,-z
1/2+y,1/2+x,-z
-y,-x,-z
-x,-y,-z
1/2+y,-x,-z
1/2+x,1/2+y,-z
-y,1/2+x,-z
1/2-x,y,z
x,1/2-y,z
1/2-y,1/2-x,z
y,x,z
loop_
_atom_site_type_symbol
_atom_site_label
_atom_site_fract_x
_atom_site_fract_y
_atom_site_fract_z
Si Si1 0.636769 0.359493 0.179459
Si Si2 0.479010 0.864251 0.053045
Si Si3 0.362360 0.979459 0.449558
Si Si4 0.638533 0.017548 0.695830
O O1 0.750000 0.360563 0.187863
O O2 0.609360 0.250000 0.163115
O O3 0.614297 0.430289 0.121610
O O4 0.587989 0.385386 0.246386
O O5 0.488829 0.750000 0.046300
O O6 0.577820 0.922181 0.047814
O O7 0.407990 0.907990 0.000000
O O8 0.405658 0.905658 0.500000
O O9 0.250000 0.994039 0.458924
O O10 0.377781 0.944775 0.376277
O O11 0.423304 0.076697 0.456254
O O12 0.750000 0.995495 0.700312
O O13 0.576009 0.923992 0.703050
#
# Coordination Sequence:
#
# PCOD9565373 Si02
#       4
#    16  16  16  16
#     4   9  17  29  46  68  92 118 150 186 222 263
#     4  10  20  33  50  71  94 122 155 190 229 271
#     4   9  18  31  46  66  91 119 152 189 229 273
#     4   9  17  29  45  65  90 118 147 181 221 266
#
# _framework density 15.488929000000001
#
# number of rings (size 3 to 8) (size 9 to 14) (size 15 to 20)
#    0.000    2.750    0.000    1.500    0.000    3.250 
#    0.000    5.000    0.000    0.000    0.000    3.500 
#    0.000    6.000    0.000    0.000    0.000    0.000 
#
# Total GULP energy -356371.202879 kJ/mol
# GULP energy per Si atom -5568.300045 kJ/mol
# Density = 1.545368 g / cm^3
# Si number density = 15.488929 Si / 1000 Ang^3
#
#
#
# Elastic Constant Matrix: (Units=GPa)
#
#
# Indices 1 2 3 4 5 6 
#
# 1 74.9748 49.0000 63.8852 0.0000 0.0000 0.0000
# 2 49.0000 74.9748 63.8852 0.0000 0.0000 0.0000
# 3 63.8852 63.8852 123.1097 0.0000 0.0000 0.0000
# 4 0.0000 0.0000 0.0000 26.5648 0.0000 0.0000
# 5 0.0000 0.0000 0.0000 0.0000 26.5648 0.0000
# 6 0.0000 0.0000 0.0000 0.0000 0.0000 16.3552
#
#
#
# Elastic Compliance Matrix: (Units=1/GPa)
#
#
# Indices 1 2 3 4 5 6 
#
# 1 0.027919 -0.010580 -0.008998 0.000000 0.000000 0.000000
# 2 -0.010580 0.027919 -0.008998 0.000000 0.000000 0.000000
# 3 -0.008998 -0.008998 0.017462 0.000000 0.000000 0.000000
# 4 0.000000 0.000000 0.000000 0.037644 0.000000 0.000000
# 5 0.000000 0.000000 0.000000 0.000000 0.037644 0.000000
# 6 0.000000 0.000000 0.000000 0.000000 0.000000 0.061143
#
#
# Mechanical properties :
#
#
# Convention : Reuss Voigt Hill
#
# Bulk Modulus (GPa) = 61.92460 69.62225 65.77342
# Shear Modulus (GPa) = 18.36450 20.31624 19.34037
#
# Velocity S-wave (km/s) = 3.44707 3.62562 3.53747
# Velocity P-wave (km/s) = 7.47728 7.91038 7.69688
#
# Compressibility (1/GPa) = 0.01614867
#
# Stress axis : x y z
#
# Youngs Moduli (GPa) = 35.81758 35.81758 57.26860
#
# Poissons Ratio (x) = 0.37893 0.51531
# Poissons Ratio (y) = 0.37893 0.51531
# Poissons Ratio (z) = 0.32229 0.32229
#
# Static dielectric constant tensor:
#      x y z
#    x 1.497550 0.000000 0.000000 
#    y 0.000000 1.497550 0.000000 
#    z 0.000000 0.000000 1.527660 
# 
# From -- ./inp_files/4452.got.cif
#   From: 2010.05.17/outbox.cif.g08.bks.cpg/sg129_3_cif.got.tgz:4452.got - 2010.05.20 12:12:06.
