data_PCOD9565207
_publ_section_title
;
Structure prediction by ZEFSAII (Michael W. Deem and Ramdas Pophale) SiO2 
 PCOD9565207
Probable space group: P 4/N M M
;
_chemical_formula_sum "Si O2"
_cell_formula_units_Z 72
_cell_length_a 14.363813
_cell_length_b 14.363813
_cell_length_c 22.999924
_cell_angle_alpha 90.000000
_cell_angle_beta 90.000000
_cell_angle_gamma 90.000000
_cell_volume 4745.324169
_symmetry_space_group_name_H-M "P 4/N M M"
_symmetry_group_IT_number 129
_symmetry_cell_setting 'tetragonal'
loop_
_space_group_symop_operation_xyz
x,y,z
1/2-y,x,z
1/2-x,1/2-y,z
y,1/2-x,z
1/2+x,-y,-z
-x,1/2+y,-z
1/2+y,1/2+x,-z
-y,-x,-z
-x,-y,-z
1/2+y,-x,-z
1/2+x,1/2+y,-z
-y,1/2+x,-z
1/2-x,y,z
x,1/2-y,z
1/2-y,1/2-x,z
y,x,z
loop_
_atom_site_type_symbol
_atom_site_label
_atom_site_fract_x
_atom_site_fract_y
_atom_site_fract_z
Si Si1 0.144527 0.862821 0.779231
Si Si2 0.639403 0.485519 0.887350
Si Si3 0.358131 0.858131 0.000000
Si Si4 0.486849 0.640725 0.538766
Si Si5 0.487830 0.641028 0.675299
O O1 0.250000 0.898181 0.783745
O O2 0.149354 0.750000 0.781014
O O3 0.094492 0.887378 0.718791
O O4 0.079267 0.889801 0.833063
O O5 0.750000 0.504836 0.882074
O O6 0.577895 0.577895 0.888050
O O7 0.625136 0.426399 0.946225
O O8 0.368816 0.750000 0.018737
O O9 0.408075 0.591926 0.500000
O O10 0.497637 0.750000 0.525903
O O11 0.581662 0.581662 0.529399
O O12 0.462958 0.631387 0.607302
O O13 0.508937 0.750000 0.685792
O O14 0.577043 0.577043 0.686813
#
# Coordination Sequence:
#
# PCOD9565207 Si02
#       5
#    16  16   8  16  16
#     4   9  17  29  44  62  85 113 145 180 216 254
#     4  10  19  30  45  65  90 118 147 181 220 264
#     4   9  17  30  48  68  89 115 148 184 220 257
#     4   9  18  31  46  66  92 121 154 191 230 275
#     4   9  17  29  45  66  92 119 146 178 218 267
#
# _framework density 15.172829999999999
#
# number of rings (size 3 to 8) (size 9 to 14) (size 15 to 20)
#    0.000    2.778    0.000    1.667    0.000    4.444 
#    0.000    4.444    0.000    4.000    0.000    0.000 
#    0.000   19.556    0.000    0.000    0.000    0.222 
#
# Total GULP energy -401060.989817 kJ/mol
# GULP energy per Si atom -5570.291525 kJ/mol
# Density = 1.513830 g / cm^3
# Si number density = 15.172830 Si / 1000 Ang^3
#
#
#
# Elastic Constant Matrix: (Units=GPa)
#
#
# Indices 1 2 3 4 5 6 
#
# 1 95.7508 62.9910 61.5052 0.0000 0.0000 0.0000
# 2 62.9910 95.7514 61.5049 0.0000 0.0000 0.0000
# 3 61.5052 61.5049 76.3465 0.0000 0.0000 0.0000
# 4 0.0000 0.0000 0.0000 20.9330 0.0000 0.0000
# 5 0.0000 0.0000 0.0000 0.0000 20.9328 0.0000
# 6 0.0000 0.0000 0.0000 0.0000 0.0000 19.7278
#
#
#
# Elastic Compliance Matrix: (Units=1/GPa)
#
#
# Indices 1 2 3 4 5 6 
#
# 1 0.023646 -0.006879 -0.013507 0.000000 0.000000 0.000000
# 2 -0.006879 0.023645 -0.013506 0.000000 0.000000 0.000000
# 3 -0.013507 -0.013506 0.034860 0.000000 0.000000 0.000000
# 4 0.000000 0.000000 0.000000 0.047771 0.000000 0.000000
# 5 0.000000 0.000000 0.000000 0.000000 0.047772 0.000000
# 6 0.000000 0.000000 0.000000 0.000000 0.000000 0.050690
#
#
# Mechanical properties :
#
#
# Convention : Reuss Voigt Hill
#
# Bulk Modulus (GPa) = 69.61201 71.09456 70.35328
# Shear Modulus (GPa) = 16.61357 17.77524 17.19440
#
# Velocity S-wave (km/s) = 3.31260 3.42646 3.37001
# Velocity P-wave (km/s) = 7.78525 7.91280 7.84928
#
# Compressibility (1/GPa) = 0.01436534
#
# Stress axis : x y z
#
# Youngs Moduli (GPa) = 42.29091 42.29192 28.68588
#
# Poissons Ratio (x) = 0.29095 0.38746
# Poissons Ratio (y) = 0.29094 0.38744
# Poissons Ratio (z) = 0.57122 0.57121
#
# Static dielectric constant tensor:
#      x y z
#    x 1.486050 0.000000 0.000000 
#    y 0.000000 1.486050 0.000000 
#    z 0.000000 0.000000 1.509920 
# 
# From -- ./inp_files/6312.got.cif
#   From: 2010.05.17/outbox.cif.g08.bks.cpg/sg129_4_cif.got.tgz:6312.got - 2010.05.20 12:12:06.
