data_PCOD9565577
_publ_section_title
;
Structure prediction by ZEFSAII (Michael W. Deem and Ramdas Pophale) SiO2 
 PCOD9565577
Probable space group: P 4/N C C
;
_chemical_formula_sum "Si O2"
_cell_formula_units_Z 112
_cell_length_a 16.433698
_cell_length_b 16.433698
_cell_length_c 21.221410
_cell_angle_alpha 90.000000
_cell_angle_beta 90.000000
_cell_angle_gamma 90.000000
_cell_volume 5731.190437
_symmetry_space_group_name_H-M "P 4/N C C"
_symmetry_group_IT_number 130
_symmetry_cell_setting 'tetragonal'
loop_
_space_group_symop_operation_xyz
x,y,z
1/2-y,x,z
1/2-x,1/2-y,z
y,1/2-x,z
1/2+x,-y,1/2-z
-x,1/2+y,1/2-z
1/2+y,1/2+x,1/2-z
-y,-x,1/2-z
-x,-y,-z
1/2+y,-x,-z
1/2+x,1/2+y,-z
-y,1/2+x,-z
1/2-x,y,1/2+z
x,1/2-y,1/2+z
1/2-y,1/2-x,1/2+z
y,x,1/2+z
loop_
_atom_site_type_symbol
_atom_site_label
_atom_site_fract_x
_atom_site_fract_y
_atom_site_fract_z
Si Si1 0.649310 0.661330 0.198701
Si Si2 0.854749 0.305507 0.031084
Si Si3 0.431116 0.354362 0.932255
Si Si4 0.386194 0.243050 0.141619
Si Si5 0.330020 0.997318 0.733269
Si Si6 0.542884 0.808599 0.991999
Si Si7 0.411206 0.863632 0.646686
O O1 0.742011 0.640307 0.211538
O O2 0.631625 0.648147 0.125601
O O3 0.575533 0.622440 0.237896
O O4 0.833589 0.338823 0.100971
O O5 0.844652 0.209153 0.018261
O O6 0.948108 0.326937 0.018246
O O7 0.447508 0.263916 0.957602
O O8 0.388682 0.409360 0.985126
O O9 0.515526 0.383502 0.901328
O O10 0.332279 0.323347 0.151109
O O11 0.463140 0.237297 0.187858
O O12 0.418702 0.228883 0.071318
O O13 0.381756 0.941042 0.686698
O O14 0.306581 0.947065 0.796804
#
# Coordination Sequence:
#
# PCOD9565577 Si02
#       7
#    16  16  16  16  16  16  16
#     4  10  19  33  58  90 126 172 219 260 318 407
#     4  11  24  45  70  94 121 166 226 282 345 393
#     4  11  22  37  62  96 134 173 216 271 345 398
#     4  11  22  36  59  97 144 186 220 259 325 411
#     4  10  21  38  59  85 127 173 223 261 324 384
#     4  12  22  38  63 101 137 173 218 277 336 411
#     4  10  22  42  63  89 122 173 220 281 331 390
#
# _framework density 19.542189
#
# number of rings (size 3 to 8) (size 9 to 14) (size 15 to 20)
#    0.000    1.286    5.714    0.857    0.000    2.000 
#    2.571    0.000    0.000    6.857    0.000    0.000 
#    0.000    0.000    0.000    0.000    0.000    0.000 
#
# Total GULP energy -624161.639853 kJ/mol
# GULP energy per Si atom -5572.871784 kJ/mol
# Density = 1.949771 g / cm^3
# Si number density = 19.542189 Si / 1000 Ang^3
#
#
#
# Elastic Constant Matrix: (Units=GPa)
#
#
# Indices 1 2 3 4 5 6 
#
# 1 68.3113 27.2630 38.7612 0.0000 0.0000 0.0000
# 2 27.2630 68.3113 38.7612 0.0000 0.0000 0.0000
# 3 38.7612 38.7612 121.4992 0.0000 0.0000 0.0000
# 4 0.0000 0.0000 0.0000 39.4150 0.0000 0.0000
# 5 0.0000 0.0000 0.0000 0.0000 39.4150 0.0000
# 6 0.0000 0.0000 0.0000 0.0000 0.0000 16.9119
#
#
#
# Elastic Compliance Matrix: (Units=1/GPa)
#
#
# Indices 1 2 3 4 5 6 
#
# 1 0.019239 -0.005123 -0.004503 0.000000 0.000000 0.000000
# 2 -0.005123 0.019239 -0.004503 0.000000 0.000000 0.000000
# 3 -0.004503 -0.004503 0.011104 0.000000 0.000000 0.000000
# 4 0.000000 0.000000 0.000000 0.025371 0.000000 0.000000
# 5 0.000000 0.000000 0.000000 0.000000 0.025371 0.000000
# 6 0.000000 0.000000 0.000000 0.000000 0.000000 0.059130
#
#
# Mechanical properties :
#
#
# Convention : Reuss Voigt Hill
#
# Bulk Modulus (GPa) = 46.89938 51.96586 49.43262
# Shear Modulus (GPa) = 25.66477 29.37079 27.51778
#
# Velocity S-wave (km/s) = 3.62788 3.88099 3.75657
# Velocity P-wave (km/s) = 6.44979 6.83609 6.64575
#
# Compressibility (1/GPa) = 0.02132224
#
# Stress axis : x y z
#
# Youngs Moduli (GPa) = 51.97869 51.97869 90.05917
#
# Poissons Ratio (x) = 0.26628 0.40556
# Poissons Ratio (y) = 0.26628 0.40556
# Poissons Ratio (z) = 0.23407 0.23407
#
# Static dielectric constant tensor:
#      x y z
#    x 1.696530 0.000000 0.000000 
#    y 0.000000 1.696530 0.000000 
#    z 0.000000 0.000000 1.743610 
# 
# From -- ./inp_files/3941.got.cif
#   From: 2010.05.17/outbox.cif.g08.bks.cpg/sg130_2_cif.got.tgz:3941.got - 2010.05.20 12:17:35.
