data_PCOD9565778
_publ_section_title
;
Structure prediction by ZEFSAII (Michael W. Deem and Ramdas Pophale) SiO2 
 PCOD9565778
Probable space group: P 4/N C C
;
_chemical_formula_sum "Si O2"
_cell_formula_units_Z 72
_cell_length_a 18.070143
_cell_length_b 18.070143
_cell_length_c 8.987057
_cell_angle_alpha 90.000000
_cell_angle_beta 90.000000
_cell_angle_gamma 90.000000
_cell_volume 2934.544334
_symmetry_space_group_name_H-M "P 4/N C C"
_symmetry_group_IT_number 130
_symmetry_cell_setting 'tetragonal'
loop_
_space_group_symop_operation_xyz
x,y,z
1/2-y,x,z
1/2-x,1/2-y,z
y,1/2-x,z
1/2+x,-y,1/2-z
-x,1/2+y,1/2-z
1/2+y,1/2+x,1/2-z
-y,-x,1/2-z
-x,-y,-z
1/2+y,-x,-z
1/2+x,1/2+y,-z
-y,1/2+x,-z
1/2-x,y,1/2+z
x,1/2-y,1/2+z
1/2-y,1/2-x,1/2+z
y,x,1/2+z
loop_
_atom_site_type_symbol
_atom_site_label
_atom_site_fract_x
_atom_site_fract_y
_atom_site_fract_z
Si Si1 0.022203 0.522203 0.750000
Si Si2 0.125499 0.577470 0.501839
Si Si3 0.933656 0.785569 0.554184
Si Si4 0.645648 0.902751 0.229432
Si Si5 0.178180 0.678180 0.750000
Si Si6 0.161415 0.661415 0.250000
O O1 0.055638 0.550175 0.592853
O O2 0.065343 0.443568 0.755161
O O3 0.173883 0.512907 0.429477
O O4 0.173194 0.614532 0.630752
O O5 0.106915 0.639410 0.381122
O O6 0.909836 0.810629 0.386557
O O7 0.874968 0.822288 0.667726
O O8 0.938229 0.699955 0.603355
O O9 0.164353 0.757586 0.677109
#
# Coordination Sequence:
#
# PCOD9565778 Si02
#       6
#     8  16  16  16   8   8
#     4   9  24  44  68  98 150 181 243 293 366 442
#     4  10  23  37  62  96 133 191 233 297 356 435
#     4  11  26  45  75 105 146 189 247 306 377 442
#     4  11  25  48  74 111 146 195 246 313 375 446
#     4  10  22  39  52  95 136 186 239 299 353 429
#     4  11  22  33  62  90 136 186 242 292 353 431
#
# _framework density 24.535323000000002
#
# number of rings (size 3 to 8) (size 9 to 14) (size 15 to 20)
#    0.000    1.556    0.000    2.667   12.444    8.444 
#    0.000    2.222    0.000    0.000    0.000    0.000 
#    0.000    0.000    0.000    0.000    0.000    0.000 
#
# Total GULP energy -401278.369430 kJ/mol
# GULP energy per Si atom -5573.310687 kJ/mol
# Density = 2.447948 g / cm^3
# Si number density = 24.535323 Si / 1000 Ang^3
#
#
#
# Elastic Constant Matrix: (Units=GPa)
#
#
# Indices 1 2 3 4 5 6 
#
# 1 59.6446 42.7873 40.0977 0.0000 0.0000 0.0000
# 2 42.7873 59.6446 40.0977 0.0000 0.0000 0.0000
# 3 40.0977 40.0977 75.1536 0.0000 0.0000 0.0000
# 4 0.0000 0.0000 0.0000 31.9277 0.0000 0.0000
# 5 0.0000 0.0000 0.0000 0.0000 31.9277 0.0000
# 6 0.0000 0.0000 0.0000 0.0000 0.0000 27.7029
#
#
#
# Elastic Compliance Matrix: (Units=1/GPa)
#
#
# Indices 1 2 3 4 5 6 
#
# 1 0.038044 -0.021278 -0.008945 0.000000 0.000000 0.000000
# 2 -0.021278 0.038044 -0.008945 0.000000 0.000000 0.000000
# 3 -0.008945 -0.008945 0.022852 0.000000 0.000000 0.000000
# 4 0.000000 0.000000 0.000000 0.031321 0.000000 0.000000
# 5 0.000000 0.000000 0.000000 0.000000 0.031321 0.000000
# 6 0.000000 0.000000 0.000000 0.000000 0.000000 0.036097
#
#
# Mechanical properties :
#
#
# Convention : Reuss Voigt Hill
#
# Bulk Modulus (GPa) = 48.53881 48.93426 48.73654
# Shear Modulus (GPa) = 17.67516 23.07564 20.37540
#
# Velocity S-wave (km/s) = 2.68693 3.07010 2.88488
# Velocity P-wave (km/s) = 5.42700 5.70570 5.56809
#
# Compressibility (1/GPa) = 0.02060207
#
# Stress axis : x y z
#
# Youngs Moduli (GPa) = 26.28545 26.28545 43.76047
#
# Poissons Ratio (x) = 0.55929 0.39146
# Poissons Ratio (y) = 0.55929 0.39146
# Poissons Ratio (z) = 0.23514 0.23514
#
# Static dielectric constant tensor:
#      x y z
#    x 1.985810 0.000000 0.000000 
#    y 0.000000 1.985810 0.000000 
#    z 0.000000 0.000000 1.877450 
# 
# From -- ./inp_files/818.got.cif
#   From: 2010.05.17/outbox.cif.g08.bks.cpg/sg130_1_cif.got.tgz:818.got - 2010.05.20 12:17:35.
