data_PCOD9565452
_publ_section_title
;
Structure prediction by ZEFSAII (Michael W. Deem and Ramdas Pophale) SiO2 
 PCOD9565452
Probable space group: P 4/N M M
;
_chemical_formula_sum "Si O2"
_cell_formula_units_Z 80
_cell_length_a 23.145819
_cell_length_b 23.145819
_cell_length_c 8.105415
_cell_angle_alpha 90.000000
_cell_angle_beta 90.000000
_cell_angle_gamma 90.000000
_cell_volume 4342.305363
_symmetry_space_group_name_H-M "P 4/N M M"
_symmetry_group_IT_number 129
_symmetry_cell_setting 'tetragonal'
loop_
_space_group_symop_operation_xyz
x,y,z
1/2-y,x,z
1/2-x,1/2-y,z
y,1/2-x,z
1/2+x,-y,-z
-x,1/2+y,-z
1/2+y,1/2+x,-z
-y,-x,-z
-x,-y,-z
1/2+y,-x,-z
1/2+x,1/2+y,-z
-y,1/2+x,-z
1/2-x,y,z
x,1/2-y,z
1/2-y,1/2-x,z
y,x,z
loop_
_atom_site_type_symbol
_atom_site_label
_atom_site_fract_x
_atom_site_fract_y
_atom_site_fract_z
Si Si1 0.127132 0.627132 0.000000
Si Si2 0.346907 0.250000 0.184264
Si Si3 0.750000 0.921114 0.486719
Si Si4 0.750000 0.534593 0.010048
Si Si5 0.375285 0.564024 0.654448
Si Si6 0.250000 0.560233 0.508542
Si Si7 0.441821 0.148932 0.749508
Si Si8 0.250000 0.910980 0.137175
O O1 0.091390 0.611568 0.166427
O O2 0.193153 0.615094 0.052437
O O3 0.305680 0.305680 0.164819
O O4 0.378594 0.250000 0.360370
O O5 0.400966 0.250000 0.061415
O O6 0.692521 0.911918 0.379121
O O7 0.750000 0.990435 0.523295
O O8 0.807774 0.530452 0.118310
O O9 0.750000 0.480162 0.891166
O O10 0.409718 0.590283 0.500000
O O11 0.307581 0.573580 0.611161
O O12 0.383567 0.495143 0.665029
O O13 0.250000 0.594452 0.335709
O O14 0.395656 0.104345 0.818938
#
# Coordination Sequence:
#
# PCOD9565452 Si02
#       8
#     8   8   8   8  16   8  16   8
#     4  12  24  41  65  96 126 158 206 256 311 373
#     4  11  22  34  54  91 129 159 208 268 312 358
#     4   9  19  35  59  82 113 160 212 243 304 357
#     4  11  21  39  62  86 117 171 206 246 311 378
#     4  11  22  38  63  90 123 162 203 255 311 370
#     4  10  20  39  63  89 112 166 211 242 296 378
#     4  10  21  38  60  87 119 159 211 256 299 371
#     4  12  22  40  68  88 123 160 203 249 315 372
#
# _framework density 18.423393999999998
#
# number of rings (size 3 to 8) (size 9 to 14) (size 15 to 20)
#    0.000    1.300    5.000    2.400    0.000    0.600 
#    0.000    0.500    0.000    5.100    0.000    0.000 
#    0.000    0.000    0.000    0.000    0.000    0.000 
#
# Total GULP energy -446324.024591 kJ/mol
# GULP energy per Si atom -5579.050307 kJ/mol
# Density = 1.838146 g / cm^3
# Si number density = 18.423394 Si / 1000 Ang^3
#
#
#
# Elastic Constant Matrix: (Units=GPa)
#
#
# Indices 1 2 3 4 5 6 
#
# 1 74.4010 34.5379 24.1164 0.0000 0.0000 0.0000
# 2 34.5379 74.4006 24.1160 0.0000 0.0000 0.0000
# 3 24.1164 24.1160 98.9560 0.0000 0.0000 0.0000
# 4 0.0000 0.0000 0.0000 46.6226 0.0000 0.0000
# 5 0.0000 0.0000 0.0000 0.0000 46.6227 0.0000
# 6 0.0000 0.0000 0.0000 0.0000 0.0000 14.0195
#
#
#
# Elastic Compliance Matrix: (Units=1/GPa)
#
#
# Indices 1 2 3 4 5 6 
#
# 1 0.017688 -0.007398 -0.002508 0.000000 0.000000 0.000000
# 2 -0.007398 0.017688 -0.002508 0.000000 0.000000 0.000000
# 3 -0.002508 -0.002508 0.011328 0.000000 0.000000 0.000000
# 4 0.000000 0.000000 0.000000 0.021449 0.000000 0.000000
# 5 0.000000 0.000000 0.000000 0.000000 0.021449 0.000000
# 6 0.000000 0.000000 0.000000 0.000000 0.000000 0.071329
#
#
# Mechanical properties :
#
#
# Convention : Reuss Voigt Hill
#
# Bulk Modulus (GPa) = 45.71104 45.92203 45.81654
# Shear Modulus (GPa) = 25.90011 32.45212 29.17611
#
# Velocity S-wave (km/s) = 3.75350 4.20153 3.98382
# Velocity P-wave (km/s) = 6.60684 6.96543 6.78850
#
# Compressibility (1/GPa) = 0.02187655
#
# Stress axis : x y z
#
# Youngs Moduli (GPa) = 56.53601 56.53589 88.27863
#
# Poissons Ratio (x) = 0.41826 0.22138
# Poissons Ratio (y) = 0.41826 0.22137
# Poissons Ratio (z) = 0.14178 0.14177
#
# Static dielectric constant tensor:
#      x y z
#    x 1.619690 0.000000 0.000000 
#    y 0.000000 1.619690 0.000000 
#    z 0.000000 0.000000 1.666030 
# 
# From -- ./inp_files/2584.got.cif
#   From: 2010.05.17/outbox.cif.g08.bks.cpg/sg129_2_cif.got.tgz:2584.got - 2010.05.20 12:12:06.
