data_PCOD9565476
_publ_section_title
;
Structure prediction by ZEFSAII (Michael W. Deem and Ramdas Pophale) SiO2 
 PCOD9565476
Probable space group: P 4/N M M
;
_chemical_formula_sum "Si O2"
_cell_formula_units_Z 120
_cell_length_a 19.764718
_cell_length_b 19.764718
_cell_length_c 15.116597
_cell_angle_alpha 90.000000
_cell_angle_beta 90.000000
_cell_angle_gamma 90.000000
_cell_volume 5905.209092
_symmetry_space_group_name_H-M "P 4/N M M"
_symmetry_group_IT_number 129
_symmetry_cell_setting 'tetragonal'
loop_
_space_group_symop_operation_xyz
x,y,z
1/2-y,x,z
1/2-x,1/2-y,z
y,1/2-x,z
1/2+x,-y,-z
-x,1/2+y,-z
1/2+y,1/2+x,-z
-y,-x,-z
-x,-y,-z
1/2+y,-x,-z
1/2+x,1/2+y,-z
-y,1/2+x,-z
1/2-x,y,z
x,1/2-y,z
1/2-y,1/2-x,z
y,x,z
loop_
_atom_site_type_symbol
_atom_site_label
_atom_site_fract_x
_atom_site_fract_y
_atom_site_fract_z
Si Si1 0.062934 0.172122 0.960022
Si Si2 0.675032 0.408743 0.273280
Si Si3 0.979700 0.131392 0.497260
Si Si4 0.250000 0.633515 0.515479
Si Si5 0.328442 0.913256 0.930323
Si Si6 0.670024 0.455620 0.685236
Si Si7 0.329513 0.438861 0.664889
Si Si8 0.436715 0.173076 0.173163
O O1 0.073031 0.250000 0.931640
O O2 0.124113 0.124113 0.933346
O O3 0.990498 0.146810 0.927384
O O4 0.057571 0.171092 0.067072
O O5 0.750000 0.388880 0.309731
O O6 0.671552 0.387697 0.170326
O O7 0.614264 0.370345 0.319494
O O8 0.667883 0.489789 0.281013
O O9 0.940271 0.059729 0.500000
O O10 0.926410 0.190717 0.518350
O O11 0.001021 0.145316 0.396145
O O12 0.037572 0.142948 0.569075
O O13 0.190582 0.690582 0.500000
O O14 0.250000 0.915571 0.959958
O O15 0.370344 0.870344 0.000000
O O16 0.750000 0.441608 0.677311
O O17 0.656960 0.493517 0.777350
O O18 0.250000 0.419289 0.662228
O O19 0.379332 0.379332 0.697787
O O20 0.418857 0.250000 0.198192
O O21 0.379564 0.120436 0.199740
#
# Coordination Sequence:
#
# PCOD9565476 Si02
#       8
#    16  16  16   8  16  16  16  16
#     4   9  18  34  56  82 109 141 179 227 287 344
#     4  10  23  40  57  84 118 154 195 239 289 343
#     4  11  20  37  58  85 117 153 191 230 285 347
#     4   9  18  30  54  86 115 146 182 226 281 336
#     4  10  21  38  60  83 115 156 194 236 283 341
#     4  11  21  36  56  85 118 152 192 234 279 338
#     4  11  24  43  64  86 117 154 200 254 302 352
#     4   9  19  34  54  80 112 145 182 229 279 336
#
# _framework density 20.321043
#
# number of rings (size 3 to 8) (size 9 to 14) (size 15 to 20)
#    0.000    1.933    2.667    0.800    0.000    4.533 
#    1.200    2.667    0.000    0.000    0.000    5.600 
#    0.000    0.000    0.000    0.000    0.000    0.000 
#
# Total GULP energy -668154.780020 kJ/mol
# GULP energy per Si atom -5567.956500 kJ/mol
# Density = 2.027479 g / cm^3
# Si number density = 20.321043 Si / 1000 Ang^3
#
#
#
# Elastic Constant Matrix: (Units=GPa)
#
#
# Indices 1 2 3 4 5 6 
#
# 1 44.8260 43.8424 1.2138 0.0000 0.0000 0.0000
# 2 43.8424 44.8262 1.2138 0.0000 0.0000 0.0000
# 3 1.2138 1.2138 30.0055 0.0000 0.0000 0.0000
# 4 0.0000 0.0000 0.0000 16.5807 0.0000 0.0000
# 5 0.0000 0.0000 0.0000 0.0000 16.5805 0.0000
# 6 0.0000 0.0000 0.0000 0.0000 0.0000 43.7544
#
#
#
# Elastic Compliance Matrix: (Units=1/GPa)
#
#
# Indices 1 2 3 4 5 6 
#
# 1 0.513910 -0.502619 -0.000457 0.000000 0.000000 0.000000
# 2 -0.502619 0.513908 -0.000456 0.000000 0.000000 0.000000
# 3 -0.000457 -0.000456 0.033364 0.000000 0.000000 0.000000
# 4 0.000000 0.000000 0.000000 0.060311 0.000000 0.000000
# 5 0.000000 0.000000 0.000000 0.000000 0.060312 0.000000
# 6 0.000000 0.000000 0.000000 0.000000 0.000000 0.022855
#
#
# Mechanical properties :
#
#
# Convention : Reuss Voigt Hill
#
# Bulk Modulus (GPa) = 18.47807 23.57752 21.02779
# Shear Modulus (GPa) = 2.24239 20.27562 11.25901
#
# Velocity S-wave (km/s) = 1.05161 3.16217 2.35639
# Velocity P-wave (km/s) = 3.25382 4.99601 4.21589
#
# Compressibility (1/GPa) = 0.05411822
#
# Stress axis : x y z
#
# Youngs Moduli (GPa) = 1.94586 1.94587 29.97223
#
# Poissons Ratio (x) = 0.97803 0.01371
# Poissons Ratio (y) = 0.97803 0.01367
# Poissons Ratio (z) = 0.00089 0.00089
#
# Static dielectric constant tensor:
#      x y z
#    x 1.697280 0.000000 0.000000 
#    y 0.000000 1.697280 0.000000 
#    z 0.000000 0.000000 1.752090 
# 
# From -- ./inp_files/5138.got.cif
#   From: 2010.05.17/outbox.cif.g08.bks.cpg/sg129_3_cif.got.tgz:5138.got - 2010.05.20 12:12:06.
