data_PCOD9565776
_publ_section_title
;
Structure prediction by ZEFSAII (Michael W. Deem and Ramdas Pophale) SiO2 
 PCOD9565776
Probable space group: P 4/N C C
;
_chemical_formula_sum "Si O2"
_cell_formula_units_Z 96
_cell_length_a 15.464641
_cell_length_b 15.464641
_cell_length_c 19.806020
_cell_angle_alpha 90.000000
_cell_angle_beta 90.000000
_cell_angle_gamma 90.000000
_cell_volume 4736.711115
_symmetry_space_group_name_H-M "P 4/N C C"
_symmetry_group_IT_number 130
_symmetry_cell_setting 'tetragonal'
loop_
_space_group_symop_operation_xyz
x,y,z
1/2-y,x,z
1/2-x,1/2-y,z
y,1/2-x,z
1/2+x,-y,1/2-z
-x,1/2+y,1/2-z
1/2+y,1/2+x,1/2-z
-y,-x,1/2-z
-x,-y,-z
1/2+y,-x,-z
1/2+x,1/2+y,-z
-y,1/2+x,-z
1/2-x,y,1/2+z
x,1/2-y,1/2+z
1/2-y,1/2-x,1/2+z
y,x,1/2+z
loop_
_atom_site_type_symbol
_atom_site_label
_atom_site_fract_x
_atom_site_fract_y
_atom_site_fract_z
Si Si1 0.573657 0.196204 0.935091
Si Si2 0.937257 0.917382 0.499786
Si Si3 0.745656 0.355683 0.417611
Si Si4 0.007640 0.877435 0.360019
Si Si5 0.817223 0.623027 0.247754
Si Si6 0.016388 0.150482 0.881220
O O1 0.643720 0.128267 0.907888
O O2 0.554793 0.273965 0.884655
O O3 0.484163 0.151736 0.952624
O O4 0.615593 0.228295 0.006149
O O5 0.854968 0.949088 0.541461
O O6 0.941829 0.881675 0.424141
O O7 0.000000 0.000000 0.500000
O O8 0.750000 0.250000 0.408126
O O9 0.804563 0.418443 0.372913
O O10 0.951648 0.856096 0.295011
O O11 0.062528 0.966469 0.360844
O O12 0.862889 0.715072 0.259931
O O13 0.830119 0.591254 0.171161
#
# Coordination Sequence:
#
# PCOD9565776 Si02
#       6
#    16  16  16  16  16  16
#     4  11  18  31  59  88 125 161 193 248 320 390
#     4   9  20  34  56  95 125 157 200 250 310 379
#     4  11  17  32  57  93 128 157 188 243 328 391
#     4  10  22  38  64  93 128 161 203 270 319 385
#     4  11  26  47  64  80 117 179 231 268 320 377
#     4  11  21  39  62  92 126 161 208 261 323 386
#
# _framework density 20.267226000000001
#
# number of rings (size 3 to 8) (size 9 to 14) (size 15 to 20)
#    0.000    1.500    3.333    3.500    0.000    5.333 
#    0.000    2.500    0.000    2.000    0.000    0.000 
#    0.000    0.000    0.000    0.000    0.000    0.000 
#
# Total GULP energy -535165.780352 kJ/mol
# GULP energy per Si atom -5574.643545 kJ/mol
# Density = 2.022110 g / cm^3
# Si number density = 20.267226 Si / 1000 Ang^3
#
#
#
# Elastic Constant Matrix: (Units=GPa)
#
#
# Indices 1 2 3 4 5 6 
#
# 1 63.1624 17.2094 11.3440 0.0000 0.0000 0.0000
# 2 17.2094 63.1624 11.3440 0.0000 0.0000 0.0000
# 3 11.3440 11.3440 52.9031 0.0000 0.0000 0.0000
# 4 0.0000 0.0000 0.0000 26.1850 0.0000 0.0000
# 5 0.0000 0.0000 0.0000 0.0000 26.1850 0.0000
# 6 0.0000 0.0000 0.0000 0.0000 0.0000 26.3356
#
#
#
# Elastic Compliance Matrix: (Units=1/GPa)
#
#
# Indices 1 2 3 4 5 6 
#
# 1 0.017503 -0.004259 -0.002840 0.000000 0.000000 0.000000
# 2 -0.004259 0.017503 -0.002840 0.000000 0.000000 0.000000
# 3 -0.002840 -0.002840 0.020120 0.000000 0.000000 0.000000
# 4 0.000000 0.000000 0.000000 0.038190 0.000000 0.000000
# 5 0.000000 0.000000 0.000000 0.000000 0.038190 0.000000
# 6 0.000000 0.000000 0.000000 0.000000 0.000000 0.037971
#
#
# Mechanical properties :
#
#
# Convention : Reuss Voigt Hill
#
# Bulk Modulus (GPa) = 28.36995 28.78031 28.57513
# Shear Modulus (GPa) = 24.86286 25.02982 24.94634
#
# Velocity S-wave (km/s) = 3.50630 3.51806 3.51218
# Velocity P-wave (km/s) = 5.51548 5.54378 5.52965
#
# Compressibility (1/GPa) = 0.03524856
#
# Stress axis : x y z
#
# Youngs Moduli (GPa) = 57.13439 57.13439 49.70082
#
# Poissons Ratio (x) = 0.24332 0.14114
# Poissons Ratio (y) = 0.24332 0.14114
# Poissons Ratio (z) = 0.16225 0.16225
#
# Static dielectric constant tensor:
#      x y z
#    x 1.883300 0.000000 0.000000 
#    y 0.000000 1.883300 0.000000 
#    z 0.000000 0.000000 1.706920 
# 
# From -- ./inp_files/3807.got.cif
#   From: 2010.05.17/outbox.cif.g08.bks.cpg/sg130_2_cif.got.tgz:3807.got - 2010.05.20 12:17:35.
