data_PCOD9565894
_publ_section_title
;
Structure prediction by ZEFSAII (Michael W. Deem and Ramdas Pophale) SiO2 
 PCOD9565894
Probable space group: P 4/N C C
;
_chemical_formula_sum "Si O2"
_cell_formula_units_Z 112
_cell_length_a 14.528654
_cell_length_b 14.528654
_cell_length_c 22.816050
_cell_angle_alpha 90.000000
_cell_angle_beta 90.000000
_cell_angle_gamma 90.000000
_cell_volume 4816.052607
_symmetry_space_group_name_H-M "P 4/N C C"
_symmetry_group_IT_number 130
_symmetry_cell_setting 'tetragonal'
loop_
_space_group_symop_operation_xyz
x,y,z
1/2-y,x,z
1/2-x,1/2-y,z
y,1/2-x,z
1/2+x,-y,1/2-z
-x,1/2+y,1/2-z
1/2+y,1/2+x,1/2-z
-y,-x,1/2-z
-x,-y,-z
1/2+y,-x,-z
1/2+x,1/2+y,-z
-y,1/2+x,-z
1/2-x,y,1/2+z
x,1/2-y,1/2+z
1/2-y,1/2-x,1/2+z
y,x,1/2+z
loop_
_atom_site_type_symbol
_atom_site_label
_atom_site_fract_x
_atom_site_fract_y
_atom_site_fract_z
Si Si1 0.645757 0.638381 0.133983
Si Si2 0.508461 0.699390 0.903586
Si Si3 0.940851 0.143226 0.374941
Si Si4 0.793518 0.103861 0.998422
Si Si5 0.130762 0.156241 0.003900
Si Si6 0.098850 0.249362 0.212782
Si Si7 0.251141 0.897974 0.769601
O O1 0.755073 0.626591 0.148669
O O2 0.607444 0.538175 0.151133
O O3 0.618951 0.642013 0.064771
O O4 0.432132 0.638697 0.870405
O O5 0.454504 0.777413 0.940122
O O6 0.554884 0.627171 0.949684
O O7 0.578864 0.740448 0.856754
O O8 0.947642 0.169346 0.443926
O O9 0.910587 0.233717 0.338941
O O10 0.691751 0.142610 0.012700
O O11 0.234283 0.127728 0.015552
O O12 0.161321 0.160315 0.227612
O O13 0.999224 0.252829 0.242116
O O14 0.340044 0.840044 0.750000
O O15 0.163651 0.836350 0.750000
#
# Coordination Sequence:
#
# PCOD9565894 Si02
#       7
#    16  16  16  16  16  16  16
#     4   9  19  37  59  87 130 182 226 275 348 425
#     4  11  21  38  64  99 144 182 229 290 349 436
#     4  11  23  40  65 100 136 175 237 303 355 433
#     4   9  20  34  59  93 137 181 220 272 346 426
#     4   9  17  32  56  85 127 182 226 260 326 415
#     4  11  26  49  76 107 144 188 242 304 369 437
#     4  11  26  49  78 104 138 190 252 313 377 443
#
# _framework density 23.255561
#
# number of rings (size 3 to 8) (size 9 to 14) (size 15 to 20)
#    0.000    1.857    1.429    3.429    2.000    4.571 
#    2.571    4.286    0.000    0.000    0.000    0.000 
#    0.000    0.000    0.000    0.000    0.000    0.000 
#
# Total GULP energy -625100.801020 kJ/mol
# GULP energy per Si atom -5581.257152 kJ/mol
# Density = 2.320263 g / cm^3
# Si number density = 23.255561 Si / 1000 Ang^3
#
#
#
# Elastic Constant Matrix: (Units=GPa)
#
#
# Indices 1 2 3 4 5 6 
#
# 1 108.4942 39.3813 22.2851 0.0000 0.0000 0.0000
# 2 39.3813 108.4935 22.2851 0.0000 0.0000 0.0000
# 3 22.2851 22.2851 74.5881 0.0000 0.0000 0.0000
# 4 0.0000 0.0000 0.0000 33.9235 0.0000 0.0000
# 5 0.0000 0.0000 0.0000 0.0000 33.9236 0.0000
# 6 0.0000 0.0000 0.0000 0.0000 0.0000 11.3294
#
#
#
# Elastic Compliance Matrix: (Units=1/GPa)
#
#
# Indices 1 2 3 4 5 6 
#
# 1 0.010950 -0.003519 -0.002220 0.000000 0.000000 0.000000
# 2 -0.003519 0.010950 -0.002220 0.000000 0.000000 0.000000
# 3 -0.002220 -0.002220 0.014734 0.000000 0.000000 0.000000
# 4 0.000000 0.000000 0.000000 0.029478 0.000000 0.000000
# 5 0.000000 0.000000 0.000000 0.000000 0.029478 0.000000
# 6 0.000000 0.000000 0.000000 0.000000 0.000000 0.088266
#
#
# Mechanical properties :
#
#
# Convention : Reuss Voigt Hill
#
# Bulk Modulus (GPa) = 48.27295 51.05320 49.66307
# Shear Modulus (GPa) = 24.19188 29.67693 26.93441
#
# Velocity S-wave (km/s) = 3.22881 3.57616 3.40691
# Velocity P-wave (km/s) = 5.89092 6.24921 6.07271
#
# Compressibility (1/GPa) = 0.02071554
#
# Stress axis : x y z
#
# Youngs Moduli (GPa) = 91.32097 91.32033 67.87131
#
# Poissons Ratio (x) = 0.32133 0.15070
# Poissons Ratio (y) = 0.32133 0.15070
# Poissons Ratio (z) = 0.20277 0.20277
#
# Static dielectric constant tensor:
#      x y z
#    x 1.880450 0.000000 0.000000 
#    y 0.000000 1.880450 0.000000 
#    z 0.000000 0.000000 1.954580 
# 
# From -- ./inp_files/4305.got.cif
#   From: 2010.05.17/outbox.cif.g08.bks.cpg/sg130_3_cif.got.tgz:4305.got - 2010.05.20 12:17:35.
