data_PCOD9565899
_publ_section_title
;
Structure prediction by ZEFSAII (Michael W. Deem and Ramdas Pophale) SiO2 
 PCOD9565899
Probable space group: P 4/N C C
;
_chemical_formula_sum "Si O2"
_cell_formula_units_Z 128
_cell_length_a 22.180415
_cell_length_b 22.180415
_cell_length_c 12.838360
_cell_angle_alpha 90.000000
_cell_angle_beta 90.000000
_cell_angle_gamma 90.000000
_cell_volume 6316.098363
_symmetry_space_group_name_H-M "P 4/N C C"
_symmetry_group_IT_number 130
_symmetry_cell_setting 'tetragonal'
loop_
_space_group_symop_operation_xyz
x,y,z
1/2-y,x,z
1/2-x,1/2-y,z
y,1/2-x,z
1/2+x,-y,1/2-z
-x,1/2+y,1/2-z
1/2+y,1/2+x,1/2-z
-y,-x,1/2-z
-x,-y,-z
1/2+y,-x,-z
1/2+x,1/2+y,-z
-y,1/2+x,-z
1/2-x,y,1/2+z
x,1/2-y,1/2+z
1/2-y,1/2-x,1/2+z
y,x,1/2+z
loop_
_atom_site_type_symbol
_atom_site_label
_atom_site_fract_x
_atom_site_fract_y
_atom_site_fract_z
Si Si1 0.398466 0.374520 0.276440
Si Si2 0.711497 0.561842 0.651908
Si Si3 0.835803 0.805121 0.881811
Si Si4 0.325533 0.089861 0.476574
Si Si5 0.651000 0.023727 0.982347
Si Si6 0.899478 0.424390 0.372092
Si Si7 0.491642 0.723842 0.363092
Si Si8 0.961318 0.523627 0.845165
O O1 0.329318 0.386243 0.301434
O O2 0.390648 0.319551 0.197054
O O3 0.434229 0.369018 0.384605
O O4 0.420294 0.431407 0.213883
O O5 0.765538 0.594657 0.592470
O O6 0.671533 0.523692 0.570663
O O7 0.729091 0.515333 0.744369
O O8 0.766245 0.828054 0.876601
O O9 0.852062 0.847985 0.979917
O O10 0.305117 0.045687 0.567455
O O11 0.711105 0.028056 0.909759
O O12 0.592692 0.002005 0.916066
O O13 0.628589 0.081673 0.048644
O O14 0.911365 0.411365 0.250000
O O15 0.829281 0.442453 0.376518
O O16 0.946343 0.479851 0.397672
O O17 0.979823 0.479823 0.750000
#
# Coordination Sequence:
#
# PCOD9565899 Si02
#       8
#    16  16  16  16  16  16  16  16
#     4  12  23  38  59  85 120 170 207 279 325 392
#     4  11  21  39  59  89 124 170 220 263 337 391
#     4  11  24  40  56  80 115 167 230 280 321 372
#     4  11  24  36  62  84 121 165 219 272 329 382
#     4  11  25  39  69  96 131 178 215 272 339 401
#     4  11  21  44  66  96 135 174 218 270 332 405
#     4  11  23  43  64  97 130 171 220 271 332 415
#     4  11  24  40  63  99 137 169 218 274 338 402
#
# _framework density 20.265675000000002
#
# number of rings (size 3 to 8) (size 9 to 14) (size 15 to 20)
#    0.000    0.875    3.750    3.375    8.750    0.000 
#    0.000    1.250    0.000    0.375    0.000    0.875 
#    0.000    0.000    0.000    0.000    0.000    0.000 
#
# Total GULP energy -713492.204318 kJ/mol
# GULP energy per Si atom -5574.157846 kJ/mol
# Density = 2.021955 g / cm^3
# Si number density = 20.265675 Si / 1000 Ang^3
#
#
#
# Elastic Constant Matrix: (Units=GPa)
#
#
# Indices 1 2 3 4 5 6 
#
# 1 80.5198 33.9868 45.7322 0.0000 0.0000 0.0000
# 2 33.9868 80.5198 45.7322 0.0000 0.0000 0.0000
# 3 45.7322 45.7322 112.4005 0.0000 0.0000 0.0000
# 4 0.0000 0.0000 0.0000 34.3306 0.0000 0.0000
# 5 0.0000 0.0000 0.0000 0.0000 34.3306 0.0000
# 6 0.0000 0.0000 0.0000 0.0000 0.0000 34.2889
#
#
#
# Elastic Compliance Matrix: (Units=1/GPa)
#
#
# Indices 1 2 3 4 5 6 
#
# 1 0.017214 -0.004276 -0.005264 0.000000 0.000000 0.000000
# 2 -0.004276 0.017214 -0.005264 0.000000 0.000000 0.000000
# 3 -0.005264 -0.005264 0.013180 0.000000 0.000000 0.000000
# 4 0.000000 0.000000 0.000000 0.029129 0.000000 0.000000
# 5 0.000000 0.000000 0.000000 0.000000 0.029129 0.000000
# 6 0.000000 0.000000 0.000000 0.000000 0.000000 0.029164
#
#
# Mechanical properties :
#
#
# Convention : Reuss Voigt Hill
#
# Bulk Modulus (GPa) = 55.55568 58.26027 56.90798
# Shear Modulus (GPa) = 29.30188 30.45595 29.87891
#
# Velocity S-wave (km/s) = 3.80661 3.88085 3.84391
# Velocity P-wave (km/s) = 6.84058 6.99228 6.91685
#
# Compressibility (1/GPa) = 0.01799996
#
# Stress axis : x y z
#
# Youngs Moduli (GPa) = 58.09225 58.09225 75.87101
#
# Poissons Ratio (x) = 0.24841 0.39938
# Poissons Ratio (y) = 0.24841 0.39938
# Poissons Ratio (z) = 0.30580 0.30580
#
# Static dielectric constant tensor:
#      x y z
#    x 1.744200 0.000000 0.000000 
#    y 0.000000 1.744200 0.000000 
#    z 0.000000 0.000000 1.836300 
# 
# From -- ./inp_files/1886.got.cif
#   From: 2010.05.17/outbox.cif.g08.bks.cpg/sg130_1_cif.got.tgz:1886.got - 2010.05.20 12:17:35.
