data_PCOD9565765
_publ_section_title
;
Structure prediction by ZEFSAII (Michael W. Deem and Ramdas Pophale) SiO2 
 PCOD9565765
Probable space group: P 4/N C C
;
_chemical_formula_sum "Si O2"
_cell_formula_units_Z 92
_cell_length_a 23.216155
_cell_length_b 23.216155
_cell_length_c 9.484431
_cell_angle_alpha 90.000000
_cell_angle_beta 90.000000
_cell_angle_gamma 90.000000
_cell_volume 5112.012070
_symmetry_space_group_name_H-M "P 4/N C C"
_symmetry_group_IT_number 130
_symmetry_cell_setting 'tetragonal'
loop_
_space_group_symop_operation_xyz
x,y,z
1/2-y,x,z
1/2-x,1/2-y,z
y,1/2-x,z
1/2+x,-y,1/2-z
-x,1/2+y,1/2-z
1/2+y,1/2+x,1/2-z
-y,-x,1/2-z
-x,-y,-z
1/2+y,-x,-z
1/2+x,1/2+y,-z
-y,1/2+x,-z
1/2-x,y,1/2+z
x,1/2-y,1/2+z
1/2-y,1/2-x,1/2+z
y,x,1/2+z
loop_
_atom_site_type_symbol
_atom_site_label
_atom_site_fract_x
_atom_site_fract_y
_atom_site_fract_z
Si Si1 0.322087 0.555190 0.661235
Si Si2 0.387915 0.019899 0.576225
Si Si3 0.540098 0.219127 0.976383
Si Si4 0.521730 0.572049 0.743153
Si Si5 0.903939 0.096062 0.750000
Si Si6 0.750000 0.250000 0.000000
Si Si7 0.660723 0.343263 0.533638
O O1 0.288867 0.546117 0.808892
O O2 0.281851 0.530836 0.538135
O O3 0.381287 0.520403 0.682996
O O4 0.331872 0.621535 0.612433
O O5 0.417266 0.066645 0.677724
O O6 0.414739 0.027120 0.421663
O O7 0.320937 0.010293 0.540799
O O8 0.403383 0.959482 0.651857
O O9 0.602390 0.194604 0.029525
O O10 0.487715 0.512286 0.750000
O O11 0.850092 0.106148 0.646200
O O12 0.801820 0.213912 0.928247
#
# Coordination Sequence:
#
# PCOD9565765 Si02
#       7
#    16  16  16  16   8   4  16
#     4  11  23  38  56  77 111 146 189 241 298 348
#     4  10  22  35  57  81 108 136 186 229 294 368
#     4  10  23  39  53  78 108 149 188 234 296 354
#     4  11  21  36  56  87 108 140 184 243 297 358
#     4  10  22  37  52  76 104 142 184 239 312 354
#     4  12  24  38  48  80 102 148 230 260 282 340
#     4  11  23  37  52  74 104 148 202 258 294 332
#
# _framework density 17.996828000000001
#
# number of rings (size 3 to 8) (size 9 to 14) (size 15 to 20)
#    0.000    1.391    2.609    4.174    7.304    0.348 
#    3.130    0.000    0.000    0.000    0.000    0.000 
#    0.000    0.696    0.000    7.652    0.000    5.565 
#
# Total GULP energy -512609.825762 kJ/mol
# GULP energy per Si atom -5571.845932 kJ/mol
# Density = 1.795587 g / cm^3
# Si number density = 17.996828 Si / 1000 Ang^3
#
#
#
# Elastic Constant Matrix: (Units=GPa)
#
#
# Indices 1 2 3 4 5 6 
#
# 1 50.4262 35.8145 37.2363 0.0000 0.0000 0.0000
# 2 35.8145 50.4254 37.2366 0.0000 0.0000 0.0000
# 3 37.2363 37.2366 97.4123 0.0000 0.0000 0.0000
# 4 0.0000 0.0000 0.0000 -1.8920 0.0000 0.0000
# 5 0.0000 0.0000 0.0000 0.0000 -1.9004 0.0000
# 6 0.0000 0.0000 0.0000 0.0000 0.0000 40.7143
#
#
#
# Elastic Compliance Matrix: (Units=1/GPa)
#
#
# Indices 1 2 3 4 5 6 
#
# 1 0.042874 -0.025566 -0.006616 0.000000 0.000000 0.000000
# 2 -0.025566 0.042875 -0.006617 0.000000 0.000000 0.000000
# 3 -0.006616 -0.006617 0.015324 0.000000 0.000000 0.000000
# 4 0.000000 0.000000 0.000000 -0.528528 0.000000 0.000000
# 5 0.000000 0.000000 0.000000 0.000000 -0.526197 0.000000
# 6 0.000000 0.000000 0.000000 0.000000 0.000000 0.024561
#
#
# Mechanical properties :
#
#
# Convention : Reuss Voigt Hill
#
# Bulk Modulus (GPa) = 42.59612 46.53763 44.56688
# Shear Modulus (GPa) = -5.92651 13.24946 3.66148
#
# Velocity S-wave (km/s) = -1.81665 2.71626 1.42791
# Velocity P-wave (km/s) = 4.39542 5.97933 5.24748
#
# Compressibility (1/GPa) = 0.02347632
#
# Stress axis : x y z
#
# Youngs Moduli (GPa) = 23.32402 23.32338 65.25674
#
# Poissons Ratio (x) = 0.59628 0.43176
# Poissons Ratio (y) = 0.59629 0.43180
# Poissons Ratio (z) = 0.15432 0.15433
#
# Static dielectric constant tensor:
#      x y z
#    x 1.642770 0.000000 0.000000 
#    y 0.000000 1.642760 0.000000 
#    z 0.000000 0.000000 1.716170 
# 
# From -- ./inp_files/961.got.cif
#   From: 2010.05.17/outbox.cif.g08.bks.cpg/sg130_1_cif.got.tgz:961.got - 2010.05.20 12:17:35.
