data_PCOD9565951
_publ_section_title
;
Structure prediction by ZEFSAII (Michael W. Deem and Ramdas Pophale) SiO2 
 PCOD9565951
Probable space group: P 4/N C C
;
_chemical_formula_sum "Si O2"
_cell_formula_units_Z 92
_cell_length_a 13.518256
_cell_length_b 13.518256
_cell_length_c 22.178192
_cell_angle_alpha 90.000000
_cell_angle_beta 90.000000
_cell_angle_gamma 90.000000
_cell_volume 4052.914781
_symmetry_space_group_name_H-M "P 4/N C C"
_symmetry_group_IT_number 130
_symmetry_cell_setting 'tetragonal'
loop_
_space_group_symop_operation_xyz
x,y,z
1/2-y,x,z
1/2-x,1/2-y,z
y,1/2-x,z
1/2+x,-y,1/2-z
-x,1/2+y,1/2-z
1/2+y,1/2+x,1/2-z
-y,-x,1/2-z
-x,-y,-z
1/2+y,-x,-z
1/2+x,1/2+y,-z
-y,1/2+x,-z
1/2-x,y,1/2+z
x,1/2-y,1/2+z
1/2-y,1/2-x,1/2+z
y,x,1/2+z
loop_
_atom_site_type_symbol
_atom_site_label
_atom_site_fract_x
_atom_site_fract_y
_atom_site_fract_z
Si Si1 0.688504 0.601010 0.583349
Si Si2 0.488431 0.737934 0.386359
Si Si3 0.490939 0.990939 0.250000
Si Si4 0.057748 0.413274 0.537283
Si Si5 0.867339 0.083283 0.662797
Si Si6 0.029617 0.265011 0.750617
Si Si7 0.750000 0.750000 0.216777
O O1 0.801160 0.626502 0.600147
O O2 0.665582 0.593230 0.512710
O O3 0.657645 0.499007 0.613268
O O4 0.490446 0.844208 0.419340
O O5 0.541330 0.651725 0.426479
O O6 0.382805 0.689434 0.367592
O O7 0.539140 0.754222 0.321452
O O8 0.509692 0.878305 0.236558
O O9 0.552511 0.027768 0.307612
O O10 0.000000 0.500000 0.500000
O O11 0.792435 0.061335 0.717461
O O12 0.131145 0.224477 0.777705
#
# Coordination Sequence:
#
# PCOD9565951 Si02
#       7
#    16  16   8  16  16  16   4
#     4  11  24  42  69 106 143 190 243 312 382 447
#     4  12  25  45  75 105 148 191 246 321 383 463
#     4  12  24  44  69 109 148 198 252 316 392 464
#     4  12  25  45  74 107 143 190 254 314 381 449
#     4  12  23  45  70 102 152 193 247 314 387 479
#     4  12  25  42  73 110 150 195 250 318 398 464
#     4  12  20  40  68 112 142 192 256 308 360 458
#
# _framework density 22.699712000000002
#
# number of rings (size 3 to 8) (size 9 to 14) (size 15 to 20)
#    0.000    0.174    6.957    3.130    0.000    0.348 
#    0.000    1.739    3.826    0.000    0.000    0.000 
#    0.000    0.000    0.000    0.000    0.000    0.000 
#
# Total GULP energy -513032.973658 kJ/mol
# GULP energy per Si atom -5576.445366 kJ/mol
# Density = 2.264805 g / cm^3
# Si number density = 22.699712 Si / 1000 Ang^3
#
#
#
# Elastic Constant Matrix: (Units=GPa)
#
#
# Indices 1 2 3 4 5 6 
#
# 1 120.4513 11.6139 17.6204 0.0000 0.0000 0.0000
# 2 11.6139 120.4513 17.6204 0.0000 0.0000 0.0000
# 3 17.6204 17.6204 119.7811 0.0000 0.0000 0.0000
# 4 0.0000 0.0000 0.0000 39.0310 0.0000 0.0000
# 5 0.0000 0.0000 0.0000 0.0000 39.0310 0.0000
# 6 0.0000 0.0000 0.0000 0.0000 0.0000 23.9897
#
#
#
# Elastic Compliance Matrix: (Units=1/GPa)
#
#
# Indices 1 2 3 4 5 6 
#
# 1 0.008535 -0.000653 -0.001159 0.000000 0.000000 0.000000
# 2 -0.000653 0.008535 -0.001159 0.000000 0.000000 0.000000
# 3 -0.001159 -0.001159 0.008690 0.000000 0.000000 0.000000
# 4 0.000000 0.000000 0.000000 0.025621 0.000000 0.000000
# 5 0.000000 0.000000 0.000000 0.000000 0.025621 0.000000
# 6 0.000000 0.000000 0.000000 0.000000 0.000000 0.041685
#
#
# Mechanical properties :
#
#
# Convention : Reuss Voigt Hill
#
# Bulk Modulus (GPa) = 50.46713 50.48815 50.47764
# Shear Modulus (GPa) = 38.09982 41.33226 39.71604
#
# Velocity S-wave (km/s) = 4.10131 4.27175 4.18739
# Velocity P-wave (km/s) = 6.68643 6.82792 6.75755
#
# Compressibility (1/GPa) = 0.01981488
#
# Stress axis : x y z
#
# Youngs Moduli (GPa) = 117.16868 117.16868 115.07923
#
# Poissons Ratio (x) = 0.07655 0.13342
# Poissons Ratio (y) = 0.07655 0.13342
# Poissons Ratio (z) = 0.13584 0.13584
#
# Static dielectric constant tensor:
#      x y z
#    x 1.896390 0.000000 0.000000 
#    y 0.000000 1.896390 0.000000 
#    z 0.000000 0.000000 1.932370 
# 
# From -- ./inp_files/3822.got.cif
#   From: 2010.05.17/outbox.cif.g08.bks.cpg/sg130_2_cif.got.tgz:3822.got - 2010.05.20 12:17:35.
