data_PCOD9565805
_publ_section_title
;
Structure prediction by ZEFSAII (Michael W. Deem and Ramdas Pophale) SiO2 
 PCOD9565805
Probable space group: P 4/N C C
;
_chemical_formula_sum "Si O2"
_cell_formula_units_Z 48
_cell_length_a 14.878339
_cell_length_b 14.878339
_cell_length_c 9.209225
_cell_angle_alpha 90.000000
_cell_angle_beta 90.000000
_cell_angle_gamma 90.000000
_cell_volume 2038.599829
_symmetry_space_group_name_H-M "P 4/N C C"
_symmetry_group_IT_number 130
_symmetry_cell_setting 'tetragonal'
loop_
_space_group_symop_operation_xyz
x,y,z
1/2-y,x,z
1/2-x,1/2-y,z
y,1/2-x,z
1/2+x,-y,1/2-z
-x,1/2+y,1/2-z
1/2+y,1/2+x,1/2-z
-y,-x,1/2-z
-x,-y,-z
1/2+y,-x,-z
1/2+x,1/2+y,-z
-y,1/2+x,-z
1/2-x,y,1/2+z
x,1/2-y,1/2+z
1/2-y,1/2-x,1/2+z
y,x,1/2+z
loop_
_atom_site_type_symbol
_atom_site_label
_atom_site_fract_x
_atom_site_fract_y
_atom_site_fract_z
Si Si1 0.684919 0.535059 0.278022
Si Si2 0.863112 0.550787 0.097099
Si Si3 0.625162 0.174504 0.526179
O O1 0.777575 0.562375 0.202452
O O2 0.606024 0.556200 0.165198
O O3 0.664003 0.581584 0.433955
O O4 0.686565 0.431864 0.327761
O O5 0.879904 0.444215 0.075982
O O6 0.635026 0.276235 0.467740
#
# Coordination Sequence:
#
# PCOD9565805 Si02
#       3
#    16  16  16
#     4  10  22  42  72 104 143 187 238 297 361 428
#     4  10  22  42  72 104 143 187 238 297 361 428
#     4   9  22  44  74 107 148 191 235 293 368 442
#
# _framework density 23.545573000000001
#
# number of rings (size 3 to 8) (size 9 to 14) (size 15 to 20)
#    2.000    0.333    0.000    2.000    0.000    3.333 
#    0.000   16.667    0.000    0.000    0.000    0.000 
#    0.000    0.000    0.000    0.000    0.000    0.000 
#
# Total GULP energy -267975.551491 kJ/mol
# GULP energy per Si atom -5582.823989 kJ/mol
# Density = 2.349198 g / cm^3
# Si number density = 23.545573 Si / 1000 Ang^3
#
#
#
# Elastic Constant Matrix: (Units=GPa)
#
#
# Indices 1 2 3 4 5 6 
#
# 1 63.0123 26.0146 28.5907 0.0000 0.0000 0.0000
# 2 26.0146 63.0123 28.5907 0.0000 0.0000 0.0000
# 3 28.5907 28.5907 157.0009 0.0000 0.0000 0.0000
# 4 0.0000 0.0000 0.0000 37.4100 0.0000 0.0000
# 5 0.0000 0.0000 0.0000 0.0000 37.4100 0.0000
# 6 0.0000 0.0000 0.0000 0.0000 0.0000 25.0479
#
#
#
# Elastic Compliance Matrix: (Units=1/GPa)
#
#
# Indices 1 2 3 4 5 6 
#
# 1 0.019875 -0.007154 -0.002316 0.000000 0.000000 0.000000
# 2 -0.007154 0.019875 -0.002316 0.000000 0.000000 0.000000
# 3 -0.002316 -0.002316 0.007213 0.000000 0.000000 0.000000
# 4 0.000000 0.000000 0.000000 0.026731 0.000000 0.000000
# 5 0.000000 0.000000 0.000000 0.000000 0.026731 0.000000
# 6 0.000000 0.000000 0.000000 0.000000 0.000000 0.039923
#
#
# Mechanical properties :
#
#
# Convention : Reuss Voigt Hill
#
# Bulk Modulus (GPa) = 42.75689 49.93530 46.34609
# Shear Modulus (GPa) = 29.11761 33.29554 31.20658
#
# Velocity S-wave (km/s) = 3.52042 3.76452 3.64451
# Velocity P-wave (km/s) = 5.89263 6.33636 6.11852
#
# Compressibility (1/GPa) = 0.02338805
#
# Stress axis : x y z
#
# Youngs Moduli (GPa) = 50.31561 50.31561 138.63723
#
# Poissons Ratio (x) = 0.35997 0.32115
# Poissons Ratio (y) = 0.35997 0.32115
# Poissons Ratio (z) = 0.11655 0.11655
#
# Static dielectric constant tensor:
#      x y z
#    x 1.869790 0.000000 0.000000 
#    y 0.000000 1.869790 0.000000 
#    z 0.000000 0.000000 1.934800 
# 
# From -- ./inp_files/493.got.cif
#   From: 2010.05.17/outbox.cif.g08.bks.cpg/sg130_1_cif.got.tgz:493.got - 2010.05.20 12:17:35.
