data_PCOD9565013
_publ_section_title
;
Structure prediction by ZEFSAII (Michael W. Deem and Ramdas Pophale) SiO2 
 PCOD9565013
Probable space group: P 4/M N C
;
_chemical_formula_sum "Si O2"
_cell_formula_units_Z 52
_cell_length_a 17.334063
_cell_length_b 17.334063
_cell_length_c 8.300282
_cell_angle_alpha 90.000000
_cell_angle_beta 90.000000
_cell_angle_gamma 90.000000
_cell_volume 2493.983575
_symmetry_space_group_name_H-M "P 4/M N C"
_symmetry_group_IT_number 128
_symmetry_cell_setting 'tetragonal'
loop_
_space_group_symop_operation_xyz
x,y,z
-y,x,z
-x,-y,z
y,-x,z
1/2+x,1/2-y,1/2-z
1/2-x,1/2+y,1/2-z
1/2+y,1/2+x,1/2-z
1/2-y,1/2-x,1/2-z
-x,-y,-z
y,-x,-z
x,y,-z
-y,x,-z
1/2-x,1/2+y,1/2+z
1/2+x,1/2-y,1/2+z
1/2-y,1/2-x,1/2+z
1/2+y,1/2+x,1/2+z
loop_
_atom_site_type_symbol
_atom_site_label
_atom_site_fract_x
_atom_site_fract_y
_atom_site_fract_z
Si Si1 0.368571 0.390585 0.811045
Si Si2 0.068388 0.307757 0.691860
Si Si3 0.098459 0.721889 0.810705
Si Si4 0.000000 0.000000 0.201546
O O1 0.278146 0.399182 0.774508
O O2 0.303334 0.605508 0.780311
O O3 0.419317 0.450246 0.710596
O O4 0.381691 0.410581 0.000000
O O5 0.128353 0.371648 0.750000
O O6 0.057913 0.314141 0.500000
O O7 0.985390 0.313434 0.775133
O O8 0.164188 0.664188 0.750000
O O9 0.107985 0.735932 0.000000
#
# Coordination Sequence:
#
# PCOD9565013 Si02
#       4
#    16  16  16   4
#     4  11  22  41  69 100 136 175 216 264 325 391
#     4  11  24  43  68  97 132 174 221 271 328 390
#     4  12  26  44  67  96 132 173 222 273 327 388
#     4  12  21  40  73 106 137 176 213 258 325 392
#
# _framework density 20.850179000000001
#
# number of rings (size 3 to 8) (size 9 to 14) (size 15 to 20)
#    0.000    0.615    3.077    6.000    0.000    5.538 
#    0.000    3.846    0.000    0.000    0.000    0.000 
#    0.000    0.000    0.000    0.000    0.000    0.000 
#
# Total GULP energy -290178.469995 kJ/mol
# GULP energy per Si atom -5580.355192 kJ/mol
# Density = 2.080272 g / cm^3
# Si number density = 20.850179 Si / 1000 Ang^3
#
#
#
# Elastic Constant Matrix: (Units=GPa)
#
#
# Indices 1 2 3 4 5 6 
#
# 1 54.0835 25.9070 3.0451 0.0000 0.0000 0.0000
# 2 25.9070 54.0748 3.0369 0.0000 0.0000 0.0000
# 3 3.0451 3.0369 43.0390 0.0000 0.0000 0.0000
# 4 0.0000 0.0000 0.0000 -73.1793 0.0000 0.0000
# 5 0.0000 0.0000 0.0000 0.0000 -73.2467 0.0000
# 6 0.0000 0.0000 0.0000 0.0000 0.0000 17.2811
#
#
#
# Elastic Compliance Matrix: (Units=1/GPa)
#
#
# Indices 1 2 3 4 5 6 
#
# 1 0.024031 -0.011463 -0.000891 0.000000 0.000000 0.000000
# 2 -0.011463 0.024035 -0.000885 0.000000 0.000000 0.000000
# 3 -0.000891 -0.000885 0.023360 0.000000 0.000000 0.000000
# 4 0.000000 0.000000 0.000000 -0.013665 0.000000 0.000000
# 5 0.000000 0.000000 0.000000 0.000000 -0.013652 0.000000
# 6 0.000000 0.000000 0.000000 0.000000 0.000000 0.057867
#
#
# Mechanical properties :
#
#
# Convention : Reuss Voigt Hill
#
# Bulk Modulus (GPa) = 22.24838 23.90837 23.07838
# Shear Modulus (GPa) = 34.85864 -17.88177 8.48844
#
# Velocity S-wave (km/s) = 4.09328 -2.93171 2.01990
# Velocity P-wave (km/s) = 5.74749 0.17813 4.06604
#
# Compressibility (1/GPa) = 0.04494709
#
# Stress axis : x y z
#
# Youngs Moduli (GPa) = 41.61259 41.60678 42.80781
#
# Poissons Ratio (x) = 0.47695 0.03816
# Poissons Ratio (y) = 0.47701 0.03788
# Poissons Ratio (z) = 0.03709 0.03682
#
# Static dielectric constant tensor:
#      x y z
#    x 1.702310 0.000000 0.000000 
#    y 0.000000 1.702310 0.000000 
#    z 0.000000 0.000000 1.785180 
# 
# From -- ./inp_files/734.got.cif
#   From: 2010.05.17/outbox.cif.g08.bks.cpg/sg128_1_cif.got.tgz:734.got - 2010.05.20 12:07:25.
