data_PCOD9565900
_publ_section_title
;
Structure prediction by ZEFSAII (Michael W. Deem and Ramdas Pophale) SiO2 
 PCOD9565900
Probable space group: P 4/N C C
;
_chemical_formula_sum "Si O2"
_cell_formula_units_Z 96
_cell_length_a 13.636306
_cell_length_b 13.636306
_cell_length_c 23.989626
_cell_angle_alpha 90.000000
_cell_angle_beta 90.000000
_cell_angle_gamma 90.000000
_cell_volume 4460.843159
_symmetry_space_group_name_H-M "P 4/N C C"
_symmetry_group_IT_number 130
_symmetry_cell_setting 'tetragonal'
loop_
_space_group_symop_operation_xyz
x,y,z
1/2-y,x,z
1/2-x,1/2-y,z
y,1/2-x,z
1/2+x,-y,1/2-z
-x,1/2+y,1/2-z
1/2+y,1/2+x,1/2-z
-y,-x,1/2-z
-x,-y,-z
1/2+y,-x,-z
1/2+x,1/2+y,-z
-y,1/2+x,-z
1/2-x,y,1/2+z
x,1/2-y,1/2+z
1/2-y,1/2-x,1/2+z
y,x,1/2+z
loop_
_atom_site_type_symbol
_atom_site_label
_atom_site_fract_x
_atom_site_fract_y
_atom_site_fract_z
Si Si1 0.105652 0.759398 0.777903
Si Si2 0.834965 0.469350 0.890085
Si Si3 0.087694 0.271975 0.283882
Si Si4 0.121891 0.490493 0.588692
Si Si5 0.634432 0.496727 0.041024
Si Si6 0.491853 0.335085 0.902446
O O1 0.178926 0.678926 0.750000
O O2 0.138859 0.861142 0.750000
O O3 0.101403 0.793379 0.841881
O O4 0.997624 0.724881 0.761401
O O5 0.736958 0.525367 0.907440
O O6 0.893162 0.405806 0.935849
O O7 0.915225 0.553897 0.877212
O O8 0.143737 0.168918 0.278836
O O9 0.039221 0.284916 0.344725
O O10 0.102925 0.485345 0.522364
O O11 0.089140 0.600001 0.605949
O O12 0.587660 0.584635 0.077571
O O13 0.750620 0.497744 0.051644
#
# Coordination Sequence:
#
# PCOD9565900 Si02
#       6
#    16  16  16  16  16  16
#     4  11  26  46  69  98 133 176 229 281 345 413
#     4  11  25  44  65  97 136 179 223 285 343 410
#     4  11  24  42  66  99 129 173 229 279 332 398
#     4  11  24  42  66  99 137 182 227 275 350 417
#     4  11  22  41  67 101 139 177 227 282 339 415
#     4  11  21  39  66  95 132 175 226 278 336 399
#
# _framework density 21.520593999999999
#
# number of rings (size 3 to 8) (size 9 to 14) (size 15 to 20)
#    0.000    1.000    1.667    6.000    4.667    3.333 
#    0.000    3.333    0.000    0.000    0.000    0.000 
#    0.000    0.000    0.000    0.000    0.000    0.000 
#
# Total GULP energy -535794.250370 kJ/mol
# GULP energy per Si atom -5581.190108 kJ/mol
# Density = 2.147161 g / cm^3
# Si number density = 21.520594 Si / 1000 Ang^3
#
#
#
# Elastic Constant Matrix: (Units=GPa)
#
#
# Indices 1 2 3 4 5 6 
#
# 1 98.5340 41.5259 7.5753 0.0000 0.0000 0.0000
# 2 41.5259 98.5303 7.5732 0.0000 0.0000 0.0000
# 3 7.5753 7.5732 52.0419 0.0000 0.0000 0.0000
# 4 0.0000 0.0000 0.0000 21.0841 0.0000 0.0000
# 5 0.0000 0.0000 0.0000 0.0000 21.0856 0.0000
# 6 0.0000 0.0000 0.0000 0.0000 0.0000 16.6284
#
#
#
# Elastic Compliance Matrix: (Units=1/GPa)
#
#
# Indices 1 2 3 4 5 6 
#
# 1 0.012398 -0.005144 -0.001056 0.000000 0.000000 0.000000
# 2 -0.005144 0.012398 -0.001055 0.000000 0.000000 0.000000
# 3 -0.001056 -0.001055 0.019523 0.000000 0.000000 0.000000
# 4 0.000000 0.000000 0.000000 0.047429 0.000000 0.000000
# 5 0.000000 0.000000 0.000000 0.000000 0.047426 0.000000
# 6 0.000000 0.000000 0.000000 0.000000 0.000000 0.060138
#
#
# Mechanical properties :
#
#
# Convention : Reuss Voigt Hill
#
# Bulk Modulus (GPa) = 33.54839 40.27278 36.91058
# Shear Modulus (GPa) = 22.34550 24.58839 23.46695
#
# Velocity S-wave (km/s) = 3.22581 3.38383 3.30577
# Velocity P-wave (km/s) = 5.43114 5.83278 5.63554
#
# Compressibility (1/GPa) = 0.02980769
#
# Stress axis : x y z
#
# Youngs Moduli (GPa) = 80.65943 80.65685 51.22270
#
# Poissons Ratio (x) = 0.41489 0.05410
# Poissons Ratio (y) = 0.41491 0.05406
# Poissons Ratio (z) = 0.08518 0.08513
#
# Static dielectric constant tensor:
#      x y z
#    x 1.789170 0.000000 0.000000 
#    y 0.000000 1.789170 0.000000 
#    z 0.000000 0.000000 1.837760 
# 
# From -- ./inp_files/3811.got.cif
#   From: 2010.05.17/outbox.cif.g08.bks.cpg/sg130_2_cif.got.tgz:3811.got - 2010.05.20 12:17:35.
