data_PCOD9565550
_publ_section_title
;
Structure prediction by ZEFSAII (Michael W. Deem and Ramdas Pophale) SiO2 
 PCOD9565550
Probable space group: P 4/N C C
;
_chemical_formula_sum "Si O2"
_cell_formula_units_Z 112
_cell_length_a 24.877957
_cell_length_b 24.877957
_cell_length_c 10.418309
_cell_angle_alpha 90.000000
_cell_angle_beta 90.000000
_cell_angle_gamma 90.000000
_cell_volume 6448.024216
_symmetry_space_group_name_H-M "P 4/N C C"
_symmetry_group_IT_number 130
_symmetry_cell_setting 'tetragonal'
loop_
_space_group_symop_operation_xyz
x,y,z
1/2-y,x,z
1/2-x,1/2-y,z
y,1/2-x,z
1/2+x,-y,1/2-z
-x,1/2+y,1/2-z
1/2+y,1/2+x,1/2-z
-y,-x,1/2-z
-x,-y,-z
1/2+y,-x,-z
1/2+x,1/2+y,-z
-y,1/2+x,-z
1/2-x,y,1/2+z
x,1/2-y,1/2+z
1/2-y,1/2-x,1/2+z
y,x,1/2+z
loop_
_atom_site_type_symbol
_atom_site_label
_atom_site_fract_x
_atom_site_fract_y
_atom_site_fract_z
Si Si1 0.251427 0.092417 0.129718
Si Si2 0.566323 0.975347 0.059299
Si Si3 0.533237 0.401174 0.356632
Si Si4 0.453713 0.362644 0.164875
Si Si5 0.557768 0.097853 0.131037
Si Si6 0.161228 0.264058 0.879917
Si Si7 0.057948 0.138489 0.727020
O O1 0.303379 0.054960 0.110393
O O2 0.267963 0.135940 0.238364
O O3 0.200322 0.064280 0.195196
O O4 0.233241 0.118686 0.995595
O O5 0.512710 0.942530 0.090035
O O6 0.617203 0.947339 0.128248
O O7 0.557069 0.033589 0.115973
O O8 0.588812 0.980239 0.916893
O O9 0.571914 0.428087 0.250000
O O10 0.493290 0.358637 0.287480
O O11 0.565959 0.382576 0.483605
O O12 0.394908 0.389729 0.182410
O O13 0.600908 0.100908 0.250000
O O14 0.498533 0.119459 0.165765
O O15 0.190610 0.206570 0.893419
#
# Coordination Sequence:
#
# PCOD9565550 Si02
#       7
#    16  16  16  16  16  16  16
#     4  12  25  37  53  74  98 131 171 217 274 319
#     4  10  18  33  48  74  97 123 154 203 251 305
#     4  11  19  30  52  76  98 122 156 201 250 305
#     4  11  21  32  51  71 100 128 164 212 256 307
#     4  10  19  32  52  74 100 123 155 202 248 306
#     4  11  23  40  56  68  86 122 178 236 277 309
#     4  10  21  33  49  69  97 130 165 208 257 304
#
# _framework density 17.369662000000002
#
# number of rings (size 3 to 8) (size 9 to 14) (size 15 to 20)
#    0.000    1.286    2.857    6.000    2.000    2.286 
#    0.000    0.000    0.000    0.000    0.000    0.000 
#    0.000    0.000    0.000    0.000    0.000   15.714 
#
# Total GULP energy -623479.724161 kJ/mol
# GULP energy per Si atom -5566.783251 kJ/mol
# Density = 1.733013 g / cm^3
# Si number density = 17.369662 Si / 1000 Ang^3
#
#
#
# Elastic Constant Matrix: (Units=GPa)
#
#
# Indices 1 2 3 4 5 6 
#
# 1 36.6150 29.5606 0.5400 0.0000 0.0000 0.0000
# 2 29.5606 36.6166 0.5409 0.0000 0.0000 0.0000
# 3 0.5400 0.5409 70.8316 0.0000 0.0000 0.0000
# 4 0.0000 0.0000 0.0000 21.7057 0.0000 0.0000
# 5 0.0000 0.0000 0.0000 0.0000 21.7058 0.0000
# 6 0.0000 0.0000 0.0000 0.0000 0.0000 9.6322
#
#
#
# Elastic Compliance Matrix: (Units=1/GPa)
#
#
# Indices 1 2 3 4 5 6 
#
# 1 0.078428 -0.063313 -0.000114 0.000000 0.000000 0.000000
# 2 -0.063313 0.078425 -0.000116 0.000000 0.000000 0.000000
# 3 -0.000114 -0.000116 0.014120 0.000000 0.000000 0.000000
# 4 0.000000 0.000000 0.000000 0.046071 0.000000 0.000000
# 5 0.000000 0.000000 0.000000 0.000000 0.046071 0.000000
# 6 0.000000 0.000000 0.000000 0.000000 0.000000 0.103818
#
#
# Mechanical properties :
#
#
# Convention : Reuss Voigt Hill
#
# Bulk Modulus (GPa) = 22.78707 22.81624 22.80165
# Shear Modulus (GPa) = 9.82999 18.17020 14.00009
#
# Velocity S-wave (km/s) = 2.38151 3.23784 2.84211
# Velocity P-wave (km/s) = 4.55077 5.20983 4.89141
#
# Compressibility (1/GPa) = 0.04388454
#
# Stress axis : x y z
#
# Youngs Moduli (GPa) = 12.75057 12.75109 70.82279
#
# Poissons Ratio (x) = 0.80731 0.00810
# Poissons Ratio (y) = 0.80728 0.00823
# Poissons Ratio (z) = 0.00146 0.00148
#
# Static dielectric constant tensor:
#      x y z
#    x 1.606720 0.000000 0.000000 
#    y 0.000000 1.606720 0.000000 
#    z 0.000000 0.000000 1.763430 
# 
# From -- ./inp_files/1850.got.cif
#   From: 2010.05.17/outbox.cif.g08.bks.cpg/sg130_1_cif.got.tgz:1850.got - 2010.05.20 12:17:35.
