data_PCOD9565521
_publ_section_title
;
Structure prediction by ZEFSAII (Michael W. Deem and Ramdas Pophale) SiO2 
 PCOD9565521
Probable space group: P 4/N M M
;
_chemical_formula_sum "Si O2"
_cell_formula_units_Z 104
_cell_length_a 21.000000
_cell_length_b 21.000000
_cell_length_c 15.000000
_cell_angle_alpha 90.000000
_cell_angle_beta 90.000000
_cell_angle_gamma 90.000000
_cell_volume 6615.000000
_symmetry_space_group_name_H-M "P 4/N M M"
_symmetry_group_IT_number 129
_symmetry_cell_setting 'tetragonal'
loop_
_space_group_symop_operation_xyz
x,y,z
1/2-y,x,z
1/2-x,1/2-y,z
y,1/2-x,z
1/2+x,-y,-z
-x,1/2+y,-z
1/2+y,1/2+x,-z
-y,-x,-z
-x,-y,-z
1/2+y,-x,-z
1/2+x,1/2+y,-z
-y,1/2+x,-z
1/2-x,y,z
x,1/2-y,z
1/2-y,1/2-x,z
y,x,z
loop_
_atom_site_type_symbol
_atom_site_label
_atom_site_fract_x
_atom_site_fract_y
_atom_site_fract_z
Si Si1 0.822793 0.322793 0.500000
Si Si2 0.967501 0.423653 0.745965
Si Si3 0.068887 0.322766 0.449284
Si Si4 0.864290 0.527371 0.742194
Si Si5 0.510819 0.401456 0.945748
Si Si6 0.321025 0.428966 0.070786
Si Si7 0.823193 0.041806 0.407682
O O1 0.827359 0.250000 0.462101
O O2 0.884106 0.328902 0.563804
O O3 0.900386 0.460389 0.737662
O O4 0.973542 0.372244 0.669497
O O5 0.023350 0.476651 0.738699
O O6 0.972238 0.392533 0.843262
O O7 0.090699 0.250000 0.466562
O O8 0.124738 0.375263 0.462281
O O9 0.044475 0.327528 0.347558
O O10 0.007454 0.335918 0.511337
O O11 0.920990 0.579011 0.748110
O O12 0.826246 0.536860 0.833195
O O13 0.457246 0.457246 0.948166
O O14 0.570234 0.429767 0.000000
O O15 0.479242 0.342858 0.996351
O O16 0.250000 0.405838 0.055928
O O17 0.371128 0.371128 0.069981
O O18 0.750000 0.031538 0.380262
#
# Coordination Sequence:
#
# PCOD9565521 Si02
#       7
#     8  16  16  16  16  16  16
#     4   9  18  34  53  70  94 130 163 194 244 307
#     4  10  18  30  51  73  97 127 158 200 252 296
#     4  10  20  33  48  69 101 136 171 209 246 291
#     4   9  17  29  47  70  93 123 161 201 246 295
#     4   9  16  30  50  69  91 122 160 201 241 284
#     4  10  19  31  48  72 101 131 164 200 242 294
#     4  10  20  32  48  72  98 125 161 207 247 289
#
# _framework density 15.721844000000001
#
# number of rings (size 3 to 8) (size 9 to 14) (size 15 to 20)
#    0.000    2.385    1.538    1.846    0.000    0.923 
#    0.000    3.846    0.000    2.769    0.000    0.000 
#    0.000    4.000    0.000    0.000    0.000    0.000 
#
# Total GULP energy -579090.590239 kJ/mol
# GULP energy per Si atom -5568.178752 kJ/mol
# Density = 1.568606 g / cm^3
# Si number density = 15.721844 Si / 1000 Ang^3
#
#
#
# Elastic Constant Matrix: (Units=GPa)
#
#
# Indices 1 2 3 4 5 6 
#
# 1 68.6510 46.7253 45.9648 0.0000 0.0000 0.0000
# 2 46.7253 68.6508 45.9652 0.0000 0.0000 0.0000
# 3 45.9648 45.9652 76.2652 0.0000 0.0000 0.0000
# 4 0.0000 0.0000 0.0000 14.2065 0.0000 0.0000
# 5 0.0000 0.0000 0.0000 0.0000 14.2067 0.0000
# 6 0.0000 0.0000 0.0000 0.0000 0.0000 14.2952
#
#
#
# Elastic Compliance Matrix: (Units=1/GPa)
#
#
# Indices 1 2 3 4 5 6 
#
# 1 0.031142 -0.014467 -0.010050 0.000000 0.000000 0.000000
# 2 -0.014467 0.031142 -0.010050 0.000000 0.000000 0.000000
# 3 -0.010050 -0.010050 0.025226 0.000000 0.000000 0.000000
# 4 0.000000 0.000000 0.000000 0.070391 0.000000 0.000000
# 5 0.000000 0.000000 0.000000 0.000000 0.070389 0.000000
# 6 0.000000 0.000000 0.000000 0.000000 0.000000 0.069953
#
#
# Mechanical properties :
#
#
# Convention : Reuss Voigt Hill
#
# Bulk Modulus (GPa) = 54.41774 54.54195 54.47985
# Shear Modulus (GPa) = 13.38680 13.53581 13.46130
#
# Velocity S-wave (km/s) = 2.92117 2.93739 2.92929
# Velocity P-wave (km/s) = 6.78717 6.80231 6.79474
#
# Compressibility (1/GPa) = 0.01837636
#
# Stress axis : x y z
#
# Youngs Moduli (GPa) = 32.11146 32.11088 39.64103
#
# Poissons Ratio (x) = 0.46454 0.39838
# Poissons Ratio (y) = 0.46455 0.39840
# Poissons Ratio (z) = 0.32271 0.32272
#
# Static dielectric constant tensor:
#      x y z
#    x 1.520480 0.000000 0.000000 
#    y 0.000000 1.520480 0.000000 
#    z 0.000000 0.000000 1.518780 
# 
# From -- ./inp_files/4984.got.cif
#   From: 2010.05.17/outbox.ucp.g08.bks.cvg/sg129_3_cif.got.tgz:4984.got - 2010.06.11 11:38:03.
