data_PCOD9565362
_publ_section_title
;
Structure prediction by ZEFSAII (Michael W. Deem and Ramdas Pophale) SiO2 
 PCOD9565362
Probable space group: P 4/N M M
;
_chemical_formula_sum "Si O2"
_cell_formula_units_Z 112
_cell_length_a 18.069745
_cell_length_b 18.069745
_cell_length_c 21.407829
_cell_angle_alpha 90.000000
_cell_angle_beta 90.000000
_cell_angle_gamma 90.000000
_cell_volume 6989.991937
_symmetry_space_group_name_H-M "P 4/N M M"
_symmetry_group_IT_number 129
_symmetry_cell_setting 'tetragonal'
loop_
_space_group_symop_operation_xyz
x,y,z
1/2-y,x,z
1/2-x,1/2-y,z
y,1/2-x,z
1/2+x,-y,-z
-x,1/2+y,-z
1/2+y,1/2+x,-z
-y,-x,-z
-x,-y,-z
1/2+y,-x,-z
1/2+x,1/2+y,-z
-y,1/2+x,-z
1/2-x,y,z
x,1/2-y,z
1/2-y,1/2-x,z
y,x,z
loop_
_atom_site_type_symbol
_atom_site_label
_atom_site_fract_x
_atom_site_fract_y
_atom_site_fract_z
Si Si1 0.336492 0.459689 0.112399
Si Si2 0.109013 0.832484 0.565710
Si Si3 0.665901 0.950923 0.503611
Si Si4 0.474980 0.838175 0.372837
Si Si5 0.042455 0.335899 0.961875
Si Si6 0.921402 0.452563 0.133567
Si Si7 0.959892 0.661587 0.237207
O O1 0.250000 0.451262 0.130460
O O2 0.389331 0.389331 0.129892
O O3 0.374550 0.536060 0.135824
O O4 0.339099 0.464195 0.036707
O O5 0.150670 0.849331 0.500000
O O6 0.127888 0.750000 0.586605
O O7 0.126477 0.895165 0.615636
O O8 0.023264 0.836275 0.546447
O O9 0.750000 0.923912 0.500070
O O10 0.610935 0.889066 0.526650
O O11 0.643098 0.977166 0.434087
O O12 0.464244 0.750000 0.375353
O O13 0.514181 0.855171 0.307921
O O14 0.050410 0.250000 0.943183
O O15 0.114187 0.385814 0.944470
O O16 0.972358 0.373727 0.928030
O O17 0.869412 0.476856 0.190914
O O18 0.988893 0.511108 0.132713
O O19 0.950094 0.750000 0.230356
O O20 0.885337 0.614664 0.224270
#
# Coordination Sequence:
#
# PCOD9565362 Si02
#       7
#    16  16  16  16  16  16  16
#     4   9  17  29  47  70  93 117 146 183 228 275
#     4   9  17  28  44  66  88 111 142 180 221 265
#     4   9  17  28  42  62  87 114 145 180 218 261
#     4   9  18  30  43  63  90 117 146 178 213 256
#     4   9  16  26  43  67  93 121 152 187 226 267
#     4   9  17  30  46  64  89 121 155 186 218 262
#     4  10  20  33  49  68  91 120 152 186 221 257
#
# _framework density 16.022908000000001
#
# number of rings (size 3 to 8) (size 9 to 14) (size 15 to 20)
#    0.000    2.857    0.000    2.571    0.000    6.429 
#    0.000    2.143    0.000    7.714    0.000    4.000 
#    0.000    0.000    0.000    4.286    0.000    0.429 
#
# Total GULP energy -623563.367591 kJ/mol
# GULP energy per Si atom -5567.530068 kJ/mol
# Density = 1.598644 g / cm^3
# Si number density = 16.022908 Si / 1000 Ang^3
#
#
#
# Elastic Constant Matrix: (Units=GPa)
#
#
# Indices 1 2 3 4 5 6 
#
# 1 86.5597 66.6427 15.9400 0.0000 0.0000 0.0000
# 2 66.6427 86.5598 15.9397 0.0000 0.0000 0.0000
# 3 15.9400 15.9397 28.7496 0.0000 0.0000 0.0000
# 4 0.0000 0.0000 0.0000 16.0861 0.0000 0.0000
# 5 0.0000 0.0000 0.0000 0.0000 16.0860 0.0000
# 6 0.0000 0.0000 0.0000 0.0000 0.0000 30.1937
#
#
#
# Elastic Compliance Matrix: (Units=1/GPa)
#
#
# Indices 1 2 3 4 5 6 
#
# 1 0.028794 -0.021415 -0.004091 0.000000 0.000000 0.000000
# 2 -0.021415 0.028793 -0.004091 0.000000 0.000000 0.000000
# 3 -0.004091 -0.004091 0.039320 0.000000 0.000000 0.000000
# 4 0.000000 0.000000 0.000000 0.062166 0.000000 0.000000
# 5 0.000000 0.000000 0.000000 0.000000 0.062166 0.000000
# 6 0.000000 0.000000 0.000000 0.000000 0.000000 0.033120
#
#
# Mechanical properties :
#
#
# Convention : Reuss Voigt Hill
#
# Bulk Modulus (GPa) = 26.51618 44.32377 35.41997
# Shear Modulus (GPa) = 15.33170 19.36293 17.34731
#
# Velocity S-wave (km/s) = 3.09667 3.48005 3.29395
# Velocity P-wave (km/s) = 5.41947 6.62348 6.05149
#
# Compressibility (1/GPa) = 0.03771283
#
# Stress axis : x y z
#
# Youngs Moduli (GPa) = 34.73000 34.73024 25.43266
#
# Poissons Ratio (x) = 0.74374 0.10405
# Poissons Ratio (y) = 0.74374 0.10404
# Poissons Ratio (z) = 0.14209 0.14207
#
# Static dielectric constant tensor:
#      x y z
#    x 1.543470 0.000000 0.000000 
#    y 0.000000 1.543470 0.000000 
#    z 0.000000 0.000000 1.541850 
# 
# From -- ./inp_files/6675.got.cif
#   From: 2010.05.17/outbox.cif.g08.bks.cpg/sg129_4_cif.got.tgz:6675.got - 2010.05.20 12:12:06.
