data_PCOD9565095
_publ_section_title
;
Structure prediction by ZEFSAII (Michael W. Deem and Ramdas Pophale) SiO2 
 PCOD9565095
Probable space group: P 4/M N C
;
_chemical_formula_sum "Si O2"
_cell_formula_units_Z 104
_cell_length_a 27.000000
_cell_length_b 27.000000
_cell_length_c 9.000000
_cell_angle_alpha 90.000000
_cell_angle_beta 90.000000
_cell_angle_gamma 90.000000
_cell_volume 6561.000000
_symmetry_space_group_name_H-M "P 4/M N C"
_symmetry_group_IT_number 128
_symmetry_cell_setting 'tetragonal'
loop_
_space_group_symop_operation_xyz
x,y,z
-y,x,z
-x,-y,z
y,-x,z
1/2+x,1/2-y,1/2-z
1/2-x,1/2+y,1/2-z
1/2+y,1/2+x,1/2-z
1/2-y,1/2-x,1/2-z
-x,-y,-z
y,-x,-z
x,y,-z
-y,x,-z
1/2-x,1/2+y,1/2+z
1/2+x,1/2-y,1/2+z
1/2-y,1/2-x,1/2+z
1/2+y,1/2+x,1/2+z
loop_
_atom_site_type_symbol
_atom_site_label
_atom_site_fract_x
_atom_site_fract_y
_atom_site_fract_z
Si Si1 0.872050 0.072418 0.682681
Si Si2 0.499302 0.923717 0.179973
Si Si3 0.039594 0.073251 0.000000
Si Si4 0.993618 0.791676 0.176128
Si Si5 0.362809 0.212430 0.678162
Si Si6 0.179698 0.526077 0.678356
Si Si7 0.323975 0.607924 0.322575
O O1 0.884411 0.064981 0.500000
O O2 0.903138 0.052600 0.834021
O O3 0.820131 0.044789 0.717774
O O4 0.873847 0.131050 0.719564
O O5 0.451320 0.951320 0.250000
O O6 0.504369 0.867013 0.233629
O O7 0.545480 0.954521 0.250000
O O8 0.499346 0.927617 0.000000
O O9 0.980382 0.065853 0.000000
O O10 0.999396 0.732777 0.204438
O O11 0.048727 0.815026 0.195260
O O12 0.980592 0.798250 0.000000
O O13 0.318255 0.181746 0.750000
O O14 0.358994 0.209156 0.500000
O O15 0.416055 0.188318 0.719114
O O16 0.366594 0.271084 0.713410
O O17 0.170348 0.523818 0.500000
O O18 0.334767 0.616055 0.500000
#
# Coordination Sequence:
#
# PCOD9565095 Si02
#       7
#    16  16   8  16  16  16  16
#     4  12  23  35  57  83 107 142 188 230 271 329
#     4  11  21  33  50  73 105 143 181 220 265 320
#     4  11  24  40  56  76 110 148 178 223 282 328
#     4   9  18  35  57  77 104 141 177 219 270 325
#     4   9  18  31  51  78 108 140 172 214 267 325
#     4   9  18  33  53  78 106 139 177 217 269 322
#     4   9  18  35  55  75 104 143 180 215 269 325
#
# _framework density 15.851241999999999
#
# number of rings (size 3 to 8) (size 9 to 14) (size 15 to 20)
#    0.000    2.077    1.538    5.077    0.000    5.538 
#    0.000    3.846    0.000    0.923    0.000    4.308 
#    0.000    0.000    0.000    0.000    0.000    0.000 
#
# Total GULP energy -579083.652830 kJ/mol
# GULP energy per Si atom -5568.112046 kJ/mol
# Density = 1.581516 g / cm^3
# Si number density = 15.851242 Si / 1000 Ang^3
#
#
#
# Elastic Constant Matrix: (Units=GPa)
#
#
# Indices 1 2 3 4 5 6 
#
# 1 100.0847 47.5856 49.7695 0.0000 0.0000 0.0000
# 2 47.5856 100.0832 49.7692 0.0000 0.0000 0.0000
# 3 49.7695 49.7692 113.3919 0.0000 0.0000 0.0000
# 4 0.0000 0.0000 0.0000 29.9345 0.0000 0.0000
# 5 0.0000 0.0000 0.0000 0.0000 29.9348 0.0000
# 6 0.0000 0.0000 0.0000 0.0000 0.0000 29.9039
#
#
#
# Elastic Compliance Matrix: (Units=1/GPa)
#
#
# Indices 1 2 3 4 5 6 
#
# 1 0.014333 -0.004716 -0.004221 0.000000 0.000000 0.000000
# 2 -0.004716 0.014333 -0.004221 0.000000 0.000000 0.000000
# 3 -0.004221 -0.004221 0.012524 0.000000 0.000000 0.000000
# 4 0.000000 0.000000 0.000000 0.033406 0.000000 0.000000
# 5 0.000000 0.000000 0.000000 0.000000 0.033406 0.000000
# 6 0.000000 0.000000 0.000000 0.000000 0.000000 0.033440
#
#
# Mechanical properties :
#
#
# Convention : Reuss Voigt Hill
#
# Bulk Modulus (GPa) = 67.23018 67.53428 67.38223
# Shear Modulus (GPa) = 28.94925 29.05034 28.99979
#
# Velocity S-wave (km/s) = 4.27817 4.28563 4.28190
# Velocity P-wave (km/s) = 8.17979 8.19673 8.18826
#
# Compressibility (1/GPa) = 0.01487427
#
# Stress axis : x y z
#
# Youngs Moduli (GPa) = 69.77108 69.76998 79.84411
#
# Poissons Ratio (x) = 0.32900 0.33703
# Poissons Ratio (y) = 0.32901 0.33703
# Poissons Ratio (z) = 0.29451 0.29451
#
# Static dielectric constant tensor:
#      x y z
#    x 1.540840 0.000000 0.000000 
#    y 0.000000 1.540840 0.000000 
#    z 0.000000 0.000000 1.551470 
# 
# From -- ./inp_files/1713.got.cif
#   From: 2010.05.17/outbox.ucp.g08.bks.cvg/sg128_1_cif.got.tgz:1713.got - 2010.06.11 11:37:33.
