data_PCOD9565847
_publ_section_title
;
Structure prediction by ZEFSAII (Michael W. Deem and Ramdas Pophale) SiO2 
 PCOD9565847
Probable space group: P 4/N C C
;
_chemical_formula_sum "Si O2"
_cell_formula_units_Z 88
_cell_length_a 11.705217
_cell_length_b 11.705217
_cell_length_c 30.802716
_cell_angle_alpha 90.000000
_cell_angle_beta 90.000000
_cell_angle_gamma 90.000000
_cell_volume 4220.344959
_symmetry_space_group_name_H-M "P 4/N C C"
_symmetry_group_IT_number 130
_symmetry_cell_setting 'tetragonal'
loop_
_space_group_symop_operation_xyz
x,y,z
1/2-y,x,z
1/2-x,1/2-y,z
y,1/2-x,z
1/2+x,-y,1/2-z
-x,1/2+y,1/2-z
1/2+y,1/2+x,1/2-z
-y,-x,1/2-z
-x,-y,-z
1/2+y,-x,-z
1/2+x,1/2+y,-z
-y,1/2+x,-z
1/2-x,y,1/2+z
x,1/2-y,1/2+z
1/2-y,1/2-x,1/2+z
y,x,1/2+z
loop_
_atom_site_type_symbol
_atom_site_label
_atom_site_fract_x
_atom_site_fract_y
_atom_site_fract_z
Si Si1 0.250000 0.750000 0.112390
Si Si2 0.563454 0.694624 0.034248
Si Si3 0.687743 0.436534 0.446782
Si Si4 0.606740 0.093356 0.321459
Si Si5 0.938574 0.025925 0.908286
Si Si6 0.063140 0.200958 0.754168
O O1 0.170322 0.683181 0.077938
O O2 0.182672 0.830808 0.145912
O O3 0.676992 0.613649 0.029760
O O4 0.507389 0.639061 0.077036
O O5 0.463122 0.687160 0.997908
O O6 0.810114 0.469871 0.426877
O O7 0.584293 0.511285 0.430597
O O8 0.549151 0.010803 0.356716
O O9 0.516262 0.169730 0.295259
O O10 0.677322 0.018182 0.287188
O O11 0.171625 0.114705 0.754010
#
# Coordination Sequence:
#
# PCOD9565847 Si02
#       6
#     8  16  16  16  16  16
#     4  10  26  41  67 104 134 180 228 277 337 408
#     4  11  25  46  67  95 138 187 237 287 348 402
#     4  11  24  44  65  99 138 180 235 280 342 400
#     4  10  25  44  68  99 136 179 216 283 344 409
#     4  11  26  41  70 102 133 187 231 288 339 414
#     4  10  24  44  70 102 132 173 224 278 344 422
#
# _framework density 20.851375000000001
#
# number of rings (size 3 to 8) (size 9 to 14) (size 15 to 20)
#    0.000    1.455    1.818    0.545   12.727    3.273 
#    0.000    1.818    0.000    0.000    0.000    0.000 
#    0.000    0.000    0.000    0.000    0.000    0.000 
#
# Total GULP energy -490402.313661 kJ/mol
# GULP energy per Si atom -5572.753564 kJ/mol
# Density = 2.080392 g / cm^3
# Si number density = 20.851375 Si / 1000 Ang^3
#
#
#
# Elastic Constant Matrix: (Units=GPa)
#
#
# Indices 1 2 3 4 5 6 
#
# 1 80.3145 28.3594 16.3188 0.0000 0.0000 0.0000
# 2 28.3594 80.3145 16.3188 0.0000 0.0000 0.0000
# 3 16.3188 16.3188 104.7991 0.0000 0.0000 0.0000
# 4 0.0000 0.0000 0.0000 38.1883 0.0000 0.0000
# 5 0.0000 0.0000 0.0000 0.0000 38.1883 0.0000
# 6 0.0000 0.0000 0.0000 0.0000 0.0000 38.2656
#
#
#
# Elastic Compliance Matrix: (Units=1/GPa)
#
#
# Indices 1 2 3 4 5 6 
#
# 1 0.014450 -0.004797 -0.001503 0.000000 0.000000 0.000000
# 2 -0.004797 0.014450 -0.001503 0.000000 0.000000 0.000000
# 3 -0.001503 -0.001503 0.010010 0.000000 0.000000 0.000000
# 4 0.000000 0.000000 0.000000 0.026186 0.000000 0.000000
# 5 0.000000 0.000000 0.000000 0.000000 0.026186 0.000000
# 6 0.000000 0.000000 0.000000 0.000000 0.000000 0.026133
#
#
# Mechanical properties :
#
#
# Convention : Reuss Voigt Hill
#
# Bulk Modulus (GPa) = 42.91089 43.04690 42.97889
# Shear Modulus (GPa) = 35.51369 36.55720 36.03544
#
# Velocity S-wave (km/s) = 4.13144 4.19170 4.16168
# Velocity P-wave (km/s) = 6.58654 6.64203 6.61434
#
# Compressibility (1/GPa) = 0.02330411
#
# Stress axis : x y z
#
# Youngs Moduli (GPa) = 69.20257 69.20257 99.89814
#
# Poissons Ratio (x) = 0.33197 0.15016
# Poissons Ratio (y) = 0.33197 0.15016
# Poissons Ratio (z) = 0.10402 0.10402
#
# Static dielectric constant tensor:
#      x y z
#    x 1.846220 0.000000 0.000000 
#    y 0.000000 1.846220 0.000000 
#    z 0.000000 0.000000 1.721420 
# 
# From -- ./inp_files/4858.got.cif
#   From: 2010.05.17/outbox.cif.g08.bks.cpg/sg130_3_cif.got.tgz:4858.got - 2010.05.20 12:17:35.
