data_PCOD9565698
_publ_section_title
;
Structure prediction by ZEFSAII (Michael W. Deem and Ramdas Pophale) SiO2 
 PCOD9565698
Probable space group: P 4/N C C
;
_chemical_formula_sum "Si O2"
_cell_formula_units_Z 100
_cell_length_a 15.223115
_cell_length_b 15.223115
_cell_length_c 19.342287
_cell_angle_alpha 90.000000
_cell_angle_beta 90.000000
_cell_angle_gamma 90.000000
_cell_volume 4482.444071
_symmetry_space_group_name_H-M "P 4/N C C"
_symmetry_group_IT_number 130
_symmetry_cell_setting 'tetragonal'
loop_
_space_group_symop_operation_xyz
x,y,z
1/2-y,x,z
1/2-x,1/2-y,z
y,1/2-x,z
1/2+x,-y,1/2-z
-x,1/2+y,1/2-z
1/2+y,1/2+x,1/2-z
-y,-x,1/2-z
-x,-y,-z
1/2+y,-x,-z
1/2+x,1/2+y,-z
-y,1/2+x,-z
1/2-x,y,1/2+z
x,1/2-y,1/2+z
1/2-y,1/2-x,1/2+z
y,x,1/2+z
loop_
_atom_site_type_symbol
_atom_site_label
_atom_site_fract_x
_atom_site_fract_y
_atom_site_fract_z
Si Si1 0.250000 0.750000 0.000000
Si Si2 0.265663 0.395103 0.054168
Si Si3 0.334247 0.868320 0.832181
Si Si4 0.218369 0.916546 0.572128
Si Si5 0.422555 0.027516 0.807642
Si Si6 0.788579 0.888177 0.781870
Si Si7 0.631914 0.417490 0.171478
O O1 0.305890 0.834921 0.024560
O O2 0.174893 0.342821 0.036289
O O3 0.253950 0.496738 0.033861
O O4 0.283616 0.406704 0.136979
O O5 0.347998 0.847998 0.750000
O O6 0.369873 0.786400 0.875042
O O7 0.232230 0.890719 0.844249
O O8 0.396361 0.948523 0.857183
O O9 0.134472 0.935218 0.621190
O O10 0.329936 0.041150 0.767937
O O11 0.479113 0.108353 0.835687
O O12 0.486474 0.986474 0.750000
O O13 0.692155 0.854307 0.767140
O O14 0.614293 0.385708 0.250000
#
# Coordination Sequence:
#
# PCOD9565698 Si02
#       7
#     4  16  16  16  16  16  16
#     4  12  28  48  58  88 108 168 208 282 328 352
#     4   9  20  36  63  93 118 154 197 247 309 365
#     4  11  20  35  56  85 119 158 192 240 302 371
#     4  12  24  40  62  79 126 155 210 258 311 364
#     4  10  21  28  48  83 119 152 191 231 287 356
#     4   9  17  30  48  79 125 162 184 220 280 355
#     4  11  22  34  56  87 120 159 199 239 300 375
#
# _framework density 22.309258
#
# number of rings (size 3 to 8) (size 9 to 14) (size 15 to 20)
#    0.000    1.600    3.200    3.840   11.200    0.000 
#    0.000    0.800    0.000    0.000    0.000    0.000 
#    0.000    0.000    0.000    0.000    0.000    0.000 
#
# Total GULP energy -556675.080775 kJ/mol
# GULP energy per Si atom -5566.750808 kJ/mol
# Density = 2.225848 g / cm^3
# Si number density = 22.309258 Si / 1000 Ang^3
#
#
#
# Elastic Constant Matrix: (Units=GPa)
#
#
# Indices 1 2 3 4 5 6 
#
# 1 102.2446 10.9389 -3.6281 0.0000 0.0000 0.0000
# 2 10.9389 102.2445 -3.6281 0.0000 0.0000 0.0000
# 3 -3.6281 -3.6281 -15.9357 0.0000 0.0000 0.0000
# 4 0.0000 0.0000 0.0000 -113.3319 0.0000 0.0000
# 5 0.0000 0.0000 0.0000 0.0000 -113.4150 0.0000
# 6 0.0000 0.0000 0.0000 0.0000 0.0000 35.2877
#
#
#
# Elastic Compliance Matrix: (Units=1/GPa)
#
#
# Indices 1 2 3 4 5 6 
#
# 1 0.009830 -0.001122 -0.001983 0.000000 0.000000 0.000000
# 2 -0.001122 0.009830 -0.001983 0.000000 0.000000 0.000000
# 3 -0.001983 -0.001983 -0.061849 0.000000 0.000000 0.000000
# 4 0.000000 0.000000 0.000000 -0.008824 0.000000 0.000000
# 5 0.000000 0.000000 0.000000 0.000000 -0.008817 0.000000
# 6 0.000000 0.000000 0.000000 0.000000 0.000000 0.028338
#
#
# Mechanical properties :
#
#
# Convention : Reuss Voigt Hill
#
# Bulk Modulus (GPa) = -19.09730 21.76874 1.33572
# Shear Modulus (GPa) = -128.96110 -25.96712 -77.46411
#
# Velocity S-wave (km/s) = -7.61128 -3.41539 -5.89900
# Velocity P-wave (km/s) = 9.26396 2.40297 6.76739
#
# Compressibility (1/GPa) = -0.05236342
#
# Stress axis : x y z
#
# Youngs Moduli (GPa) = 101.72770 101.72761 -16.16832
#
# Poissons Ratio (x) = 0.11414 -0.03205
# Poissons Ratio (y) = 0.11414 -0.03206
# Poissons Ratio (z) = 0.20168 0.20168
#
# Static dielectric constant tensor:
#      x y z
#    x 1.855620 0.000000 0.000000 
#    y 0.000000 1.855620 0.000000 
#    z 0.000000 0.000000 1.890860 
# 
# From -- ./inp_files/4236.got.cif
#   From: 2010.05.17/outbox.cif.g08.bks.cpg/sg130_3_cif.got.tgz:4236.got - 2010.05.20 12:17:35.
