data_PCOD9565423
_publ_section_title
;
Structure prediction by ZEFSAII (Michael W. Deem and Ramdas Pophale) SiO2 
 PCOD9565423
Probable space group: P 4/N M M
;
_chemical_formula_sum "Si O2"
_cell_formula_units_Z 128
_cell_length_a 24.880792
_cell_length_b 24.880792
_cell_length_c 10.586501
_cell_angle_alpha 90.000000
_cell_angle_beta 90.000000
_cell_angle_gamma 90.000000
_cell_volume 6553.613784
_symmetry_space_group_name_H-M "P 4/N M M"
_symmetry_group_IT_number 129
_symmetry_cell_setting 'tetragonal'
loop_
_space_group_symop_operation_xyz
x,y,z
1/2-y,x,z
1/2-x,1/2-y,z
y,1/2-x,z
1/2+x,-y,-z
-x,1/2+y,-z
1/2+y,1/2+x,-z
-y,-x,-z
-x,-y,-z
1/2+y,-x,-z
1/2+x,1/2+y,-z
-y,1/2+x,-z
1/2-x,y,z
x,1/2-y,z
1/2-y,1/2-x,z
y,x,z
loop_
_atom_site_type_symbol
_atom_site_label
_atom_site_fract_x
_atom_site_fract_y
_atom_site_fract_z
Si Si1 0.869537 0.190966 0.147337
Si Si2 0.432944 0.347830 0.205016
Si Si3 0.015535 0.844634 0.456340
Si Si4 0.194463 0.884633 0.440808
Si Si5 0.429869 0.516298 0.336208
Si Si6 0.189741 0.100158 0.476147
Si Si7 0.483291 0.690578 0.988898
Si Si8 0.632099 0.070528 0.200365
O O1 0.847302 0.250000 0.098261
O O2 0.867567 0.195720 0.297409
O O3 0.849349 0.128237 0.138834
O O4 0.930988 0.189486 0.101439
O O5 0.381845 0.381845 0.158472
O O6 0.475321 0.390527 0.262735
O O7 0.414668 0.314032 0.326965
O O8 0.464151 0.317591 0.095057
O O9 0.051521 0.810398 0.552884
O O10 0.017658 0.903384 0.522915
O O11 0.047846 0.838537 0.325524
O O12 0.954647 0.825921 0.451481
O O13 0.142750 0.857251 0.500000
O O14 0.250000 0.866937 0.504917
O O15 0.488179 0.488179 0.338148
O O16 0.426623 0.571523 0.256182
O O17 0.250000 0.116682 0.507771
O O18 0.145742 0.145742 0.500450
O O19 0.483920 0.750000 0.049775
O O20 0.472434 0.644134 0.091066
#
# Coordination Sequence:
#
# PCOD9565423 Si02
#       8
#    16  16  16  16  16  16  16  16
#     4  10  20  37  57  77 107 151 198 245 293 346
#     4   9  18  35  58  85 116 150 191 234 280 339
#     4  11  20  36  55  82 117 153 190 237 293 353
#     4  11  20  34  56  80 107 145 191 243 300 351
#     4  10  20  34  56  84 116 151 184 228 288 354
#     4  10  21  38  63  92 122 156 193 236 288 351
#     4  11  23  37  57  82 113 154 200 241 286 349
#     4  12  22  36  56  81 114 150 198 247 292 350
#
# _framework density 19.531207999999999
#
# number of rings (size 3 to 8) (size 9 to 14) (size 15 to 20)
#    0.000    1.500    3.750    3.375    0.000    4.250 
#    0.000    1.250    0.000    0.375    0.000    3.500 
#    0.000    0.000    0.000    3.125    0.000    0.000 
#
# Total GULP energy -712801.490866 kJ/mol
# GULP energy per Si atom -5568.761647 kJ/mol
# Density = 1.948675 g / cm^3
# Si number density = 19.531208 Si / 1000 Ang^3
#
#
#
# Elastic Constant Matrix: (Units=GPa)
#
#
# Indices 1 2 3 4 5 6 
#
# 1 83.9454 36.0519 11.4730 0.0000 0.0000 0.0000
# 2 36.0519 83.9439 11.4726 0.0000 0.0000 0.0000
# 3 11.4730 11.4726 41.8242 0.0000 0.0000 0.0000
# 4 0.0000 0.0000 0.0000 12.3831 0.0000 0.0000
# 5 0.0000 0.0000 0.0000 0.0000 12.3831 0.0000
# 6 0.0000 0.0000 0.0000 0.0000 0.0000 3.1664
#
#
#
# Elastic Compliance Matrix: (Units=1/GPa)
#
#
# Indices 1 2 3 4 5 6 
#
# 1 0.014837 -0.006043 -0.002413 0.000000 0.000000 0.000000
# 2 -0.006043 0.014838 -0.002412 0.000000 0.000000 0.000000
# 3 -0.002413 -0.002412 0.025233 0.000000 0.000000 0.000000
# 4 0.000000 0.000000 0.000000 0.080755 0.000000 0.000000
# 5 0.000000 0.000000 0.000000 0.000000 0.080755 0.000000
# 6 0.000000 0.000000 0.000000 0.000000 0.000000 0.315814
#
#
# Mechanical properties :
#
#
# Convention : Reuss Voigt Hill
#
# Bulk Modulus (GPa) = 30.14511 36.41204 33.27857
# Shear Modulus (GPa) = 8.84916 15.63426 12.24171
#
# Velocity S-wave (km/s) = 2.13087 2.83234 2.50627
# Velocity P-wave (km/s) = 4.63918 5.42030 5.04488
#
# Compressibility (1/GPa) = 0.03317288
#
# Stress axis : x y z
#
# Youngs Moduli (GPa) = 67.39765 67.39658 39.63035
#
# Poissons Ratio (x) = 0.40725 0.09561
# Poissons Ratio (y) = 0.40725 0.09561
# Poissons Ratio (z) = 0.16260 0.16259
#
# Static dielectric constant tensor:
#      x y z
#    x 1.758920 0.000000 0.000000 
#    y 0.000000 1.758910 0.000000 
#    z 0.000000 0.000000 1.713010 
# 
# From -- ./inp_files/4233.got.cif
#   From: 2010.05.17/outbox.cif.g08.bks.cpg/sg129_3_cif.got.tgz:4233.got - 2010.05.20 12:12:06.
