data_PCOD9565309
_publ_section_title
;
Structure prediction by ZEFSAII (Michael W. Deem and Ramdas Pophale) SiO2 
 PCOD9565309
Probable space group: P 4/N M M
;
_chemical_formula_sum "Si O2"
_cell_formula_units_Z 96
_cell_length_a 22.495616
_cell_length_b 22.495616
_cell_length_c 8.797172
_cell_angle_alpha 90.000000
_cell_angle_beta 90.000000
_cell_angle_gamma 90.000000
_cell_volume 4451.832988
_symmetry_space_group_name_H-M "P 4/N M M"
_symmetry_group_IT_number 129
_symmetry_cell_setting 'tetragonal'
loop_
_space_group_symop_operation_xyz
x,y,z
1/2-y,x,z
1/2-x,1/2-y,z
y,1/2-x,z
1/2+x,-y,-z
-x,1/2+y,-z
1/2+y,1/2+x,-z
-y,-x,-z
-x,-y,-z
1/2+y,-x,-z
1/2+x,1/2+y,-z
-y,1/2+x,-z
1/2-x,y,z
x,1/2-y,z
1/2-y,1/2-x,z
y,x,z
loop_
_atom_site_type_symbol
_atom_site_label
_atom_site_fract_x
_atom_site_fract_y
_atom_site_fract_z
Si Si1 0.092909 0.183176 0.104480
Si Si2 0.819025 0.031010 0.462450
Si Si3 0.425782 0.815299 0.907811
Si Si4 0.137608 0.684139 0.233461
Si Si5 0.181540 0.082349 0.756890
Si Si6 0.494836 0.399062 0.265720
O O1 0.091905 0.250000 0.149800
O O2 0.159252 0.159252 0.088178
O O3 0.059358 0.144879 0.227957
O O4 0.065873 0.174464 0.935546
O O5 0.750000 0.027993 0.521680
O O6 0.824474 0.092575 0.371887
O O7 0.825335 0.975925 0.345457
O O8 0.872314 0.023386 0.582181
O O9 0.456092 0.750000 0.888093
O O10 0.369134 0.817389 0.795041
O O11 0.460364 0.876037 0.865677
O O12 0.402392 0.816579 0.079566
O O13 0.164775 0.750000 0.243976
O O14 0.250000 0.103736 0.740538
O O15 0.132938 0.132938 0.720559
O O16 0.465044 0.465044 0.267889
#
# Coordination Sequence:
#
# PCOD9565309 Si02
#       6
#    16  16  16  16  16  16
#     4   9  17  29  46  68  96 131 175 226 278 334
#     4  10  19  33  53  75 105 143 185 232 278 328
#     4  10  20  38  63  88 117 149 181 224 281 339
#     4   9  20  38  61  89 116 144 181 226 279 342
#     4   9  17  29  46  69  97 134 179 228 284 339
#     4  11  22  35  52  77 108 146 191 231 271 318
#
# _framework density 21.564152
#
# number of rings (size 3 to 8) (size 9 to 14) (size 15 to 20)
#    0.000    2.333    0.000    3.000    0.000    4.000 
#    0.000    8.333    0.000    0.000    0.000    4.667 
#    0.000    0.000    0.000    0.000    0.000    0.000 
#
# Total GULP energy -535115.276275 kJ/mol
# GULP energy per Si atom -5574.117461 kJ/mol
# Density = 2.151507 g / cm^3
# Si number density = 21.564152 Si / 1000 Ang^3
#
#
#
# Elastic Constant Matrix: (Units=GPa)
#
#
# Indices 1 2 3 4 5 6 
#
# 1 62.8188 27.6996 7.3306 0.0000 0.0000 0.0000
# 2 27.6996 62.8188 7.3306 0.0000 0.0000 0.0000
# 3 7.3306 7.3306 34.4403 0.0000 0.0000 0.0000
# 4 0.0000 0.0000 0.0000 17.9116 0.0000 0.0000
# 5 0.0000 0.0000 0.0000 0.0000 17.9116 0.0000
# 6 0.0000 0.0000 0.0000 0.0000 0.0000 30.1093
#
#
#
# Elastic Compliance Matrix: (Units=1/GPa)
#
#
# Indices 1 2 3 4 5 6 
#
# 1 0.019958 -0.008516 -0.002435 0.000000 0.000000 0.000000
# 2 -0.008516 0.019958 -0.002435 0.000000 0.000000 0.000000
# 3 -0.002435 -0.002435 0.030073 0.000000 0.000000 0.000000
# 4 0.000000 0.000000 0.000000 0.055830 0.000000 0.000000
# 5 0.000000 0.000000 0.000000 0.000000 0.055830 0.000000
# 6 0.000000 0.000000 0.000000 0.000000 0.000000 0.033212
#
#
# Mechanical properties :
#
#
# Convention : Reuss Voigt Hill
#
# Bulk Modulus (GPa) = 23.14027 27.19996 25.17012
# Shear Modulus (GPa) = 19.52821 21.03430 20.28125
#
# Velocity S-wave (km/s) = 3.01256 3.12657 3.07010
# Velocity P-wave (km/s) = 4.78068 5.06704 4.92594
#
# Compressibility (1/GPa) = 0.04321471
#
# Stress axis : x y z
#
# Youngs Moduli (GPa) = 50.10471 50.10471 33.25296
#
# Poissons Ratio (x) = 0.42670 0.08098
# Poissons Ratio (y) = 0.42670 0.08098
# Poissons Ratio (z) = 0.12203 0.12203
#
# Static dielectric constant tensor:
#      x y z
#    x 1.822470 0.000000 0.000000 
#    y 0.000000 1.822470 0.000000 
#    z 0.000000 0.000000 1.810490 
# 
# From -- ./inp_files/2666.got.cif
#   From: 2010.05.17/outbox.cif.g08.bks.cpg/sg129_2_cif.got.tgz:2666.got - 2010.05.20 12:12:06.
