data_PCOD9565884
_publ_section_title
;
Structure prediction by ZEFSAII (Michael W. Deem and Ramdas Pophale) SiO2 
 PCOD9565884
Probable space group: P 4/N C C
;
_chemical_formula_sum "Si O2"
_cell_formula_units_Z 88
_cell_length_a 12.014689
_cell_length_b 12.014689
_cell_length_c 27.816143
_cell_angle_alpha 90.000000
_cell_angle_beta 90.000000
_cell_angle_gamma 90.000000
_cell_volume 4015.336786
_symmetry_space_group_name_H-M "P 4/N C C"
_symmetry_group_IT_number 130
_symmetry_cell_setting 'tetragonal'
loop_
_space_group_symop_operation_xyz
x,y,z
1/2-y,x,z
1/2-x,1/2-y,z
y,1/2-x,z
1/2+x,-y,1/2-z
-x,1/2+y,1/2-z
1/2+y,1/2+x,1/2-z
-y,-x,1/2-z
-x,-y,-z
1/2+y,-x,-z
1/2+x,1/2+y,-z
-y,1/2+x,-z
1/2-x,y,1/2+z
x,1/2-y,1/2+z
1/2-y,1/2-x,1/2+z
y,x,1/2+z
loop_
_atom_site_type_symbol
_atom_site_label
_atom_site_fract_x
_atom_site_fract_y
_atom_site_fract_z
Si Si1 0.154945 0.599827 0.123875
Si Si2 0.591564 0.344965 0.849997
Si Si3 0.839819 0.092725 0.487934
Si Si4 0.964950 0.464950 0.250000
Si Si5 0.159566 0.085107 0.432349
Si Si6 0.404618 0.149540 0.691501
O O1 0.289031 0.611927 0.130346
O O2 0.104755 0.710733 0.147857
O O3 0.128692 0.590013 0.067767
O O4 0.114373 0.489885 0.150634
O O5 0.571415 0.395153 0.796991
O O6 0.491179 0.370587 0.886642
O O7 0.705884 0.109334 0.490383
O O8 0.868721 0.986011 0.519966
O O9 0.948056 0.595543 0.259679
O O10 0.293168 0.105490 0.431728
O O11 0.396134 0.280804 0.688124
#
# Coordination Sequence:
#
# PCOD9565884 Si02
#       6
#    16  16  16   8  16  16
#     4  11  23  44  77 108 144 182 243 303 356 430
#     4  11  24  46  72 107 138 190 248 296 353 434
#     4  11  20  42  74 107 139 182 231 291 354 434
#     4  12  28  45  76 103 142 198 246 302 376 427
#     4  11  26  44  66 106 149 186 233 290 358 437
#     4  11  27  48  69 106 149 185 240 305 369 433
#
# _framework density 21.915969
#
# number of rings (size 3 to 8) (size 9 to 14) (size 15 to 20)
#    0.000    0.909    5.455    1.091    5.091    3.636 
#    0.000    3.636    0.000    0.000    0.000    0.000 
#    0.000    0.000    0.000    0.000    0.000    0.000 
#
# Total GULP energy -492304.699294 kJ/mol
# GULP energy per Si atom -5594.371583 kJ/mol
# Density = 2.186609 g / cm^3
# Si number density = 21.915969 Si / 1000 Ang^3
#
#
#
# Elastic Constant Matrix: (Units=GPa)
#
#
# Indices 1 2 3 4 5 6 
#
# 1 130.7018 22.5548 53.9239 0.0000 0.0000 0.0000
# 2 22.5548 130.7018 53.9239 0.0000 0.0000 0.0000
# 3 53.9239 53.9239 153.1111 0.0000 0.0000 0.0000
# 4 0.0000 0.0000 0.0000 -11.3230 0.0000 0.0000
# 5 0.0000 0.0000 0.0000 0.0000 -11.3230 0.0000
# 6 0.0000 0.0000 0.0000 0.0000 0.0000 -0.3866
#
#
#
# Elastic Compliance Matrix: (Units=1/GPa)
#
#
# Indices 1 2 3 4 5 6 
#
# 1 0.008961 -0.000286 -0.003055 0.000000 0.000000 0.000000
# 2 -0.000286 0.008961 -0.003055 0.000000 0.000000 0.000000
# 3 -0.003055 -0.003055 0.008683 0.000000 0.000000 0.000000
# 4 0.000000 0.000000 0.000000 -0.088316 0.000000 0.000000
# 5 0.000000 0.000000 0.000000 0.000000 -0.088316 0.000000
# 6 0.000000 0.000000 0.000000 0.000000 0.000000 -2.586715
#
#
# Mechanical properties :
#
#
# Convention : Reuss Voigt Hill
#
# Bulk Modulus (GPa) = 72.39922 75.03555 73.71739
# Shear Modulus (GPa) = -1.83868 14.33431 6.24781
#
# Velocity S-wave (km/s) = -0.91695 2.56023 1.69026
# Velocity P-wave (km/s) = 5.65558 6.56139 6.12525
#
# Compressibility (1/GPa) = 0.01381230
#
# Stress axis : x y z
#
# Youngs Moduli (GPa) = 111.59679 111.59679 115.16452
#
# Poissons Ratio (x) = 0.03190 0.35185
# Poissons Ratio (y) = 0.03190 0.35185
# Poissons Ratio (z) = 0.34095 0.34095
#
# Static dielectric constant tensor:
#      x y z
#    x 1.824310 0.000000 0.000000 
#    y 0.000000 1.824310 0.000000 
#    z 0.000000 0.000000 1.766480 
# 
# From -- ./inp_files/4876.got.cif
#   From: 2010.05.17/outbox.cif.g08.bks.cpg/sg130_3_cif.got.tgz:4876.got - 2010.05.20 12:17:35.
