data_PCOD9565843
_publ_section_title
;
Structure prediction by ZEFSAII (Michael W. Deem and Ramdas Pophale) SiO2 
 PCOD9565843
Probable space group: P 4/N C C
;
_chemical_formula_sum "Si O2"
_cell_formula_units_Z 56
_cell_length_a 16.163780
_cell_length_b 16.163780
_cell_length_c 9.596661
_cell_angle_alpha 90.000000
_cell_angle_beta 90.000000
_cell_angle_gamma 90.000000
_cell_volume 2507.298352
_symmetry_space_group_name_H-M "P 4/N C C"
_symmetry_group_IT_number 130
_symmetry_cell_setting 'tetragonal'
loop_
_space_group_symop_operation_xyz
x,y,z
1/2-y,x,z
1/2-x,1/2-y,z
y,1/2-x,z
1/2+x,-y,1/2-z
-x,1/2+y,1/2-z
1/2+y,1/2+x,1/2-z
-y,-x,1/2-z
-x,-y,-z
1/2+y,-x,-z
1/2+x,1/2+y,-z
-y,1/2+x,-z
1/2-x,y,1/2+z
x,1/2-y,1/2+z
1/2-y,1/2-x,1/2+z
y,x,1/2+z
loop_
_atom_site_type_symbol
_atom_site_label
_atom_site_fract_x
_atom_site_fract_y
_atom_site_fract_z
Si Si1 0.273726 0.504556 0.968640
Si Si2 0.944649 0.101308 0.000239
Si Si3 0.612220 0.754538 0.281400
Si Si4 0.500160 0.000160 0.250000
O O1 0.361121 0.547532 0.996624
O O2 0.265688 0.467218 0.815680
O O3 0.198728 0.567409 0.996682
O O4 0.256539 0.424970 0.065050
O O5 0.993684 0.075425 0.859596
O O6 0.994202 0.074840 0.139795
O O7 0.668264 0.673291 0.257753
#
# Coordination Sequence:
#
# PCOD9565843 Si02
#       4
#    16  16  16   8
#     4  12  26  42  72  98 138 182 220 288 328 412
#     4  11  26  43  68 102 132 183 223 278 340 394
#     4  11  26  44  66 101 140 180 220 279 352 406
#     4  10  24  42  68  96 134 174 232 274 318 400
#
# _framework density 22.334796999999998
#
# number of rings (size 3 to 8) (size 9 to 14) (size 15 to 20)
#    0.000    0.857    0.000    5.143   24.000    2.857 
#    0.000    0.000    0.000    6.857    0.000    0.000 
#    0.000    0.000    0.000    0.000    0.000    0.000 
#
# Total GULP energy -313206.022996 kJ/mol
# GULP energy per Si atom -5592.964696 kJ/mol
# Density = 2.228396 g / cm^3
# Si number density = 22.334797 Si / 1000 Ang^3
#
#
#
# Elastic Constant Matrix: (Units=GPa)
#
#
# Indices 1 2 3 4 5 6 
#
# 1 94.5295 55.0607 17.8490 0.0000 0.0000 0.0000
# 2 55.0607 94.5295 17.8490 0.0000 0.0000 0.0000
# 3 17.8490 17.8490 122.7763 0.0000 0.0000 0.0000
# 4 0.0000 0.0000 0.0000 -9.8095 0.0000 0.0000
# 5 0.0000 0.0000 0.0000 0.0000 -9.8095 0.0000
# 6 0.0000 0.0000 0.0000 0.0000 0.0000 37.0278
#
#
#
# Elastic Compliance Matrix: (Units=1/GPa)
#
#
# Indices 1 2 3 4 5 6 
#
# 1 0.016131 -0.009206 -0.001007 0.000000 0.000000 0.000000
# 2 -0.009206 0.016131 -0.001007 0.000000 0.000000 0.000000
# 3 -0.001007 -0.001007 0.008438 0.000000 0.000000 0.000000
# 4 0.000000 0.000000 0.000000 -0.101942 0.000000 0.000000
# 5 0.000000 0.000000 0.000000 0.000000 -0.101942 0.000000
# 6 0.000000 0.000000 0.000000 0.000000 0.000000 0.027007
#
#
# Mechanical properties :
#
#
# Convention : Reuss Voigt Hill
#
# Bulk Modulus (GPa) = 54.76181 54.81698 54.78939
# Shear Modulus (GPa) = -46.44576 18.22020 -14.11278
#
# Velocity S-wave (km/s) = -4.56513 2.85928 -2.51644
# Velocity P-wave (km/s) = 1.79314 5.95795 4.01758
#
# Compressibility (1/GPa) = 0.01826090
#
# Stress axis : x y z
#
# Youngs Moduli (GPa) = 61.99313 61.99313 118.51679
#
# Poissons Ratio (x) = 0.57069 0.11932
# Poissons Ratio (y) = 0.57069 0.11932
# Poissons Ratio (z) = 0.06241 0.06241
#
# Static dielectric constant tensor:
#      x y z
#    x 1.811050 0.000000 0.000000 
#    y 0.000000 1.811050 0.000000 
#    z 0.000000 0.000000 1.787060 
# 
# From -- ./inp_files/596.got.cif
#   From: 2010.05.17/outbox.cif.g08.bks.cpg/sg130_1_cif.got.tgz:596.got - 2010.05.20 12:17:35.
