data_PCOD9565815
_publ_section_title
;
Structure prediction by ZEFSAII (Michael W. Deem and Ramdas Pophale) SiO2 
 PCOD9565815
Probable space group: P 4/N C C
;
_chemical_formula_sum "Si O2"
_cell_formula_units_Z 92
_cell_length_a 20.903540
_cell_length_b 20.903540
_cell_length_c 7.938723
_cell_angle_alpha 90.000000
_cell_angle_beta 90.000000
_cell_angle_gamma 90.000000
_cell_volume 3468.888402
_symmetry_space_group_name_H-M "P 4/N C C"
_symmetry_group_IT_number 130
_symmetry_cell_setting 'tetragonal'
loop_
_space_group_symop_operation_xyz
x,y,z
1/2-y,x,z
1/2-x,1/2-y,z
y,1/2-x,z
1/2+x,-y,1/2-z
-x,1/2+y,1/2-z
1/2+y,1/2+x,1/2-z
-y,-x,1/2-z
-x,-y,-z
1/2+y,-x,-z
1/2+x,1/2+y,-z
-y,1/2+x,-z
1/2-x,y,1/2+z
x,1/2-y,1/2+z
1/2-y,1/2-x,1/2+z
y,x,1/2+z
loop_
_atom_site_type_symbol
_atom_site_label
_atom_site_fract_x
_atom_site_fract_y
_atom_site_fract_z
Si Si1 0.344166 0.300486 0.111169
Si Si2 0.384134 0.615867 0.250000
Si Si3 0.357515 0.013952 0.543232
Si Si4 0.309887 0.876316 0.100709
Si Si5 0.983165 0.789165 0.912720
Si Si6 0.883841 0.918015 0.629857
Si Si7 0.250000 0.750000 0.000000
O O1 0.274107 0.329455 0.128350
O O2 0.417042 0.299763 0.188320
O O3 0.363730 0.334053 0.931734
O O4 0.449164 0.623523 0.361253
O O5 0.333161 0.618902 0.405366
O O6 0.372165 0.070338 0.676099
O O7 0.403926 0.041250 0.398861
O O8 0.282022 0.018212 0.507229
O O9 0.358467 0.858467 0.250000
O O10 0.287469 0.945981 0.160220
O O11 0.259889 0.817516 0.095907
O O12 0.978747 0.850886 0.036559
#
# Coordination Sequence:
#
# PCOD9565815 Si02
#       7
#    16   8  16  16  16  16   4
#     4   9  17  39  68 105 148 195 254 315 381 466
#     4  12  28  53  80 116 158 202 272 331 410 494
#     4  12  25  47  74 109 153 204 263 331 396 496
#     4  12  29  52  83 118 157 210 263 342 424 495
#     4  10  22  47  72 105 153 201 261 320 405 477
#     4  10  23  43  71 106 148 201 252 317 393 465
#     4  12  30  52  78 126 160 198 274 344 414 514
#
# _framework density 26.521463000000001
#
# number of rings (size 3 to 8) (size 9 to 14) (size 15 to 20)
#    1.043    0.174    3.478    1.304    4.870    6.261 
#    1.565    0.000    3.826    0.000    0.000    0.000 
#    0.000    0.000    0.000    0.000    0.000    0.000 
#
# Total GULP energy -512358.338626 kJ/mol
# GULP energy per Si atom -5569.112376 kJ/mol
# Density = 2.646110 g / cm^3
# Si number density = 26.521463 Si / 1000 Ang^3
#
#
#
# Elastic Constant Matrix: (Units=GPa)
#
#
# Indices 1 2 3 4 5 6 
#
# 1 144.5676 61.3891 21.1742 0.0000 0.0000 0.0000
# 2 61.3891 144.5679 21.1745 0.0000 0.0000 0.0000
# 3 21.1742 21.1745 76.3583 0.0000 0.0000 0.0000
# 4 0.0000 0.0000 0.0000 2.0804 0.0000 0.0000
# 5 0.0000 0.0000 0.0000 0.0000 2.0804 0.0000
# 6 0.0000 0.0000 0.0000 0.0000 0.0000 41.5911
#
#
#
# Elastic Compliance Matrix: (Units=1/GPa)
#
#
# Indices 1 2 3 4 5 6 
#
# 1 0.008586 -0.003437 -0.001428 0.000000 0.000000 0.000000
# 2 -0.003437 0.008586 -0.001428 0.000000 0.000000 0.000000
# 3 -0.001428 -0.001428 0.013888 0.000000 0.000000 0.000000
# 4 0.000000 0.000000 0.000000 0.480685 0.000000 0.000000
# 5 0.000000 0.000000 0.000000 0.000000 0.480681 0.000000
# 6 0.000000 0.000000 0.000000 0.000000 0.000000 0.024044
#
#
# Mechanical properties :
#
#
# Convention : Reuss Voigt Hill
#
# Bulk Modulus (GPa) = 54.12813 63.66326 58.89569
# Shear Modulus (GPa) = 4.82993 26.60077 15.71535
#
# Velocity S-wave (km/s) = 1.35096 3.17044 2.43688
# Velocity P-wave (km/s) = 4.78403 6.12036 5.49298
#
# Compressibility (1/GPa) = 0.01847468
#
# Stress axis : x y z
#
# Youngs Moduli (GPa) = 116.47341 116.47349 72.00446
#
# Poissons Ratio (x) = 0.40028 0.10281
# Poissons Ratio (y) = 0.40028 0.10281
# Poissons Ratio (z) = 0.16630 0.16631
#
# Static dielectric constant tensor:
#      x y z
#    x 2.183180 0.000000 0.000000 
#    y 0.000000 2.183180 0.000000 
#    z 0.000000 0.000000 2.246120 
# 
# From -- ./inp_files/949.got.cif
#   From: 2010.05.17/outbox.cif.g08.bks.cpg/sg130_1_cif.got.tgz:949.got - 2010.05.20 12:17:35.
