data_PCOD9565506
_publ_section_title
;
Structure prediction by ZEFSAII (Michael W. Deem and Ramdas Pophale) SiO2 
 PCOD9565506
Probable space group: P 4/N M M
;
_chemical_formula_sum "Si O2"
_cell_formula_units_Z 52
_cell_length_a 14.643473
_cell_length_b 14.643473
_cell_length_c 12.135716
_cell_angle_alpha 90.000000
_cell_angle_beta 90.000000
_cell_angle_gamma 90.000000
_cell_volume 2602.277377
_symmetry_space_group_name_H-M "P 4/N M M"
_symmetry_group_IT_number 129
_symmetry_cell_setting 'tetragonal'
loop_
_space_group_symop_operation_xyz
x,y,z
1/2-y,x,z
1/2-x,1/2-y,z
y,1/2-x,z
1/2+x,-y,-z
-x,1/2+y,-z
1/2+y,1/2+x,-z
-y,-x,-z
-x,-y,-z
1/2+y,-x,-z
1/2+x,1/2+y,-z
-y,1/2+x,-z
1/2-x,y,z
x,1/2-y,z
1/2-y,1/2-x,z
y,x,z
loop_
_atom_site_type_symbol
_atom_site_label
_atom_site_fract_x
_atom_site_fract_y
_atom_site_fract_z
Si Si1 0.047674 0.750000 0.913347
Si Si2 0.901391 0.750000 0.104672
Si Si3 0.450783 0.599237 0.734278
Si Si4 0.250000 0.750000 0.000000
Si Si5 0.544645 0.250000 0.437545
Si Si6 0.750000 0.027500 0.304203
Si Si7 0.250000 0.750000 0.500000
O O1 0.027216 0.839200 0.840310
O O2 0.155751 0.750000 0.933694
O O3 0.988688 0.750000 0.024247
O O4 0.838238 0.838238 0.084455
O O5 0.937256 0.750000 0.229762
O O6 0.505011 0.505011 0.737475
O O7 0.481976 0.659720 0.629454
O O8 0.342793 0.580806 0.725845
O O9 0.514475 0.250000 0.563933
O O10 0.655484 0.250000 0.434858
#
# Coordination Sequence:
#
# PCOD9565506 Si02
#       7
#     8   8  16   2   8   8   2
#     4  11  23  42  63  90 122 157 202 264 306 362
#     4  11  25  43  62  84 117 165 209 245 298 361
#     4  11  23  39  63  92 122 161 207 250 302 363
#     4  12  24  38  64  96 126 152 198 248 340 382
#     4  11  22  37  63  89 126 162 195 249 308 358
#     4  12  22  37  59  90 123 158 190 250 303 364
#     4  12  16  42  60  92 126 156 198 260 304 362
#
# _framework density 19.982498
#
# number of rings (size 3 to 8) (size 9 to 14) (size 15 to 20)
#    0.000    0.769    3.077    4.615    0.000    6.154 
#    0.000    4.615    0.000    4.154    0.000    0.000 
#    0.000    0.000    0.000    0.000    0.000    0.000 
#
# Total GULP energy -290665.976872 kJ/mol
# GULP energy per Si atom -5589.730324 kJ/mol
# Density = 1.993702 g / cm^3
# Si number density = 19.982498 Si / 1000 Ang^3
#
#
#
# Elastic Constant Matrix: (Units=GPa)
#
#
# Indices 1 2 3 4 5 6 
#
# 1 95.5982 50.6783 44.4147 0.0000 0.0000 0.0000
# 2 50.6783 95.5982 44.4147 0.0000 0.0000 0.0000
# 3 44.4147 44.4147 109.4823 0.0000 0.0000 0.0000
# 4 0.0000 0.0000 0.0000 11.0928 0.0000 0.0000
# 5 0.0000 0.0000 0.0000 0.0000 11.0928 0.0000
# 6 0.0000 0.0000 0.0000 0.0000 0.0000 14.2696
#
#
#
# Elastic Compliance Matrix: (Units=1/GPa)
#
#
# Indices 1 2 3 4 5 6 
#
# 1 0.015666 -0.006595 -0.003680 0.000000 0.000000 0.000000
# 2 -0.006595 0.015666 -0.003680 0.000000 0.000000 0.000000
# 3 -0.003680 -0.003680 0.012120 0.000000 0.000000 0.000000
# 4 0.000000 0.000000 0.000000 0.090149 0.000000 0.000000
# 5 0.000000 0.000000 0.000000 0.000000 0.090149 0.000000
# 6 0.000000 0.000000 0.000000 0.000000 0.000000 0.070079
#
#
# Mechanical properties :
#
#
# Convention : Reuss Voigt Hill
#
# Bulk Modulus (GPa) = 64.34166 64.41046 64.37606
# Shear Modulus (GPa) = 15.29425 18.03576 16.66501
#
# Velocity S-wave (km/s) = 2.76956 3.00755 2.89100
# Velocity P-wave (km/s) = 6.51891 6.66062 6.59015
#
# Compressibility (1/GPa) = 0.01554203
#
# Stress axis : x y z
#
# Youngs Moduli (GPa) = 63.83055 63.83055 82.51052
#
# Poissons Ratio (x) = 0.42099 0.30364
# Poissons Ratio (y) = 0.42099 0.30364
# Poissons Ratio (z) = 0.23489 0.23489
#
# Static dielectric constant tensor:
#      x y z
#    x 1.699470 0.000000 0.000000 
#    y 0.000000 1.699470 0.000000 
#    z 0.000000 0.000000 1.702910 
# 
# From -- ./inp_files/3305.got.cif
#   From: 2010.05.17/outbox.cif.g08.bks.cpg/sg129_2_cif.got.tgz:3305.got - 2010.05.20 12:12:06.
