data_PCOD9565442
_publ_section_title
;
Structure prediction by ZEFSAII (Michael W. Deem and Ramdas Pophale) SiO2 
 PCOD9565442
Probable space group: P 4/N M M
;
_chemical_formula_sum "Si O2"
_cell_formula_units_Z 96
_cell_length_a 20.442189
_cell_length_b 20.442189
_cell_length_c 12.016933
_cell_angle_alpha 90.000000
_cell_angle_beta 90.000000
_cell_angle_gamma 90.000000
_cell_volume 5021.673108
_symmetry_space_group_name_H-M "P 4/N M M"
_symmetry_group_IT_number 129
_symmetry_cell_setting 'tetragonal'
loop_
_space_group_symop_operation_xyz
x,y,z
1/2-y,x,z
1/2-x,1/2-y,z
y,1/2-x,z
1/2+x,-y,-z
-x,1/2+y,-z
1/2+y,1/2+x,-z
-y,-x,-z
-x,-y,-z
1/2+y,-x,-z
1/2+x,1/2+y,-z
-y,1/2+x,-z
1/2-x,y,z
x,1/2-y,z
1/2-y,1/2-x,z
y,x,z
loop_
_atom_site_type_symbol
_atom_site_label
_atom_site_fract_x
_atom_site_fract_y
_atom_site_fract_z
Si Si1 0.674512 0.064253 0.496420
Si Si2 0.139186 0.463312 0.111555
Si Si3 0.385964 0.827369 0.889109
Si Si4 0.324425 0.071580 0.872336
Si Si5 0.565867 0.674162 0.635385
Si Si6 0.325476 0.940520 0.761506
O O1 0.624406 0.124406 0.500000
O O2 0.750000 0.083318 0.522019
O O3 0.672491 0.042168 0.367808
O O4 0.657173 0.002956 0.575231
O O5 0.065242 0.434759 0.110205
O O6 0.149500 0.539806 0.094021
O O7 0.168038 0.444818 0.231631
O O8 0.173958 0.429920 0.006298
O O9 0.383752 0.750000 0.867571
O O10 0.359596 0.872329 0.789430
O O11 0.345355 0.845355 0.000000
O O12 0.250000 0.077639 0.832839
O O13 0.370193 0.129808 0.832566
O O14 0.351943 0.001807 0.831035
O O15 0.580915 0.750000 0.607890
O O16 0.623276 0.623276 0.604617
O O17 0.250000 0.932332 0.796379
#
# Coordination Sequence:
#
# PCOD9565442 Si02
#       6
#    16  16  16  16  16  16
#     4  10  22  40  61  84 113 152 197 243 295 352
#     4  10  21  37  59  85 117 156 195 236 289 350
#     4  12  23  36  58  86 120 157 197 242 293 350
#     4  10  20  36  58  84 115 152 193 237 290 349
#     4  10  21  38  61  89 120 156 199 247 298 352
#     4  10  22  39  56  80 116 154 190 236 295 353
#
# _framework density 19.117135000000001
#
# number of rings (size 3 to 8) (size 9 to 14) (size 15 to 20)
#    0.000    1.667    1.667    3.000    0.000    5.667 
#    0.000    1.667    0.000    3.000    0.000    4.667 
#    0.000    0.000    0.000    0.000    0.000    0.000 
#
# Total GULP energy -535664.086622 kJ/mol
# GULP energy per Si atom -5579.834236 kJ/mol
# Density = 1.907362 g / cm^3
# Si number density = 19.117135 Si / 1000 Ang^3
#
#
#
# Elastic Constant Matrix: (Units=GPa)
#
#
# Indices 1 2 3 4 5 6 
#
# 1 101.7400 97.9753 22.4878 0.0000 0.0000 0.0000
# 2 97.9753 101.7400 22.4878 0.0000 0.0000 0.0000
# 3 22.4878 22.4878 50.4485 0.0000 0.0000 0.0000
# 4 0.0000 0.0000 0.0000 20.1412 0.0000 0.0000
# 5 0.0000 0.0000 0.0000 0.0000 20.1412 0.0000
# 6 0.0000 0.0000 0.0000 0.0000 0.0000 19.0640
#
#
#
# Elastic Compliance Matrix: (Units=1/GPa)
#
#
# Indices 1 2 3 4 5 6 
#
# 1 0.135596 -0.130030 -0.002481 0.000000 0.000000 0.000000
# 2 -0.130030 0.135596 -0.002481 0.000000 0.000000 0.000000
# 3 -0.002481 -0.002481 0.022034 0.000000 0.000000 0.000000
# 4 0.000000 0.000000 0.000000 0.049650 0.000000 0.000000
# 5 0.000000 0.000000 0.000000 0.000000 0.049650 0.000000
# 6 0.000000 0.000000 0.000000 0.000000 0.000000 0.052455
#
#
# Mechanical properties :
#
#
# Convention : Reuss Voigt Hill
#
# Bulk Modulus (GPa) = 43.02617 59.98115 51.50366
# Shear Modulus (GPa) = 6.91839 19.26777 13.09308
#
# Velocity S-wave (km/s) = 1.90442 3.17816 2.61987
# Velocity P-wave (km/s) = 5.23366 6.70159 6.01259
#
# Compressibility (1/GPa) = 0.02324167
#
# Stress axis : x y z
#
# Youngs Moduli (GPa) = 7.37485 7.37485 45.38427
#
# Poissons Ratio (x) = 0.95895 0.11260
# Poissons Ratio (y) = 0.95895 0.11260
# Poissons Ratio (z) = 0.01830 0.01830
#
# Static dielectric constant tensor:
#      x y z
#    x 1.667240 0.000000 0.000000 
#    y 0.000000 1.667240 0.000000 
#    z 0.000000 0.000000 1.683630 
# 
# From -- ./inp_files/3826.got.cif
#   From: 2010.05.17/outbox.cif.g08.bks.cpg/sg129_2_cif.got.tgz:3826.got - 2010.05.20 12:12:06.
