data_PCOD9565311
_publ_section_title
;
Structure prediction by ZEFSAII (Michael W. Deem and Ramdas Pophale) SiO2 
 PCOD9565311
Probable space group: P 4/N M M
;
_chemical_formula_sum "Si O2"
_cell_formula_units_Z 128
_cell_length_a 19.830240
_cell_length_b 19.830240
_cell_length_c 20.507904
_cell_angle_alpha 90.000000
_cell_angle_beta 90.000000
_cell_angle_gamma 90.000000
_cell_volume 8064.495735
_symmetry_space_group_name_H-M "P 4/N M M"
_symmetry_group_IT_number 129
_symmetry_cell_setting 'tetragonal'
loop_
_space_group_symop_operation_xyz
x,y,z
1/2-y,x,z
1/2-x,1/2-y,z
y,1/2-x,z
1/2+x,-y,-z
-x,1/2+y,-z
1/2+y,1/2+x,-z
-y,-x,-z
-x,-y,-z
1/2+y,-x,-z
1/2+x,1/2+y,-z
-y,1/2+x,-z
1/2-x,y,z
x,1/2-y,z
1/2-y,1/2-x,z
y,x,z
loop_
_atom_site_type_symbol
_atom_site_label
_atom_site_fract_x
_atom_site_fract_y
_atom_site_fract_z
Si Si1 0.396600 0.508237 0.540347
Si Si2 0.670753 0.445592 0.929655
Si Si3 0.170335 0.561139 0.672013
Si Si4 0.504697 0.888896 0.806404
Si Si5 0.388238 0.003387 0.798488
Si Si6 0.435982 0.828150 0.078559
Si Si7 0.327366 0.942812 0.316186
Si Si8 0.170113 0.058815 0.418686
O O1 0.429587 0.570413 0.500000
O O2 0.459208 0.459208 0.558360
O O3 0.356670 0.530125 0.604372
O O4 0.348889 0.467752 0.490569
O O5 0.750000 0.435091 0.919059
O O6 0.641829 0.498867 0.878298
O O7 0.628733 0.377073 0.916665
O O8 0.660575 0.464261 0.005505
O O9 0.250000 0.574942 0.669415
O O10 0.153682 0.512595 0.733360
O O11 0.123704 0.627010 0.682705
O O12 0.481076 0.836028 0.752465
O O13 0.576152 0.923849 0.793440
O O14 0.448819 0.948264 0.800526
O O15 0.424310 0.075690 0.797674
O O16 0.346827 0.987497 0.864026
O O17 0.416416 0.750000 0.083969
O O18 0.250000 0.925450 0.328345
O O19 0.349473 0.997650 0.370124
O O20 0.250000 0.071390 0.412145
O O21 0.123766 0.123766 0.404988
#
# Coordination Sequence:
#
# PCOD9565311 Si02
#       8
#    16  16  16  16  16  16  16  16
#     4  10  19  33  54  76  99 130 168 207 247 295
#     4   9  17  28  43  65  95 129 162 198 241 290
#     4  11  21  33  51  74 101 129 163 207 248 291
#     4   9  17  29  46  66  88 118 159 202 243 285
#     4   9  18  31  47  67  91 122 159 200 248 295
#     4   9  17  29  44  65  95 129 164 199 237 287
#     4  10  20  33  49  69  97 132 167 199 238 293
#     4  10  20  34  53  76 101 131 167 208 253 298
#
# _framework density 15.87204
#
# number of rings (size 3 to 8) (size 9 to 14) (size 15 to 20)
#    0.000    2.375    1.250    1.875    0.000    2.125 
#    0.000    3.750    0.000    4.500    0.000    0.000 
#    0.000   13.250    0.000   11.000    0.000    1.000 
#
# Total GULP energy -713142.783250 kJ/mol
# GULP energy per Si atom -5571.427994 kJ/mol
# Density = 1.583591 g / cm^3
# Si number density = 15.872040 Si / 1000 Ang^3
#
#
#
# Elastic Constant Matrix: (Units=GPa)
#
#
# Indices 1 2 3 4 5 6 
#
# 1 67.3982 47.7499 40.6405 0.0000 0.0000 0.0000
# 2 47.7499 67.3981 40.6403 0.0000 0.0000 0.0000
# 3 40.6405 40.6403 99.6779 0.0000 0.0000 0.0000
# 4 0.0000 0.0000 0.0000 20.0896 0.0000 0.0000
# 5 0.0000 0.0000 0.0000 0.0000 20.0896 0.0000
# 6 0.0000 0.0000 0.0000 0.0000 0.0000 16.9893
#
#
#
# Elastic Compliance Matrix: (Units=1/GPa)
#
#
# Indices 1 2 3 4 5 6 
#
# 1 0.031545 -0.019351 -0.004972 0.000000 0.000000 0.000000
# 2 -0.019351 0.031545 -0.004972 0.000000 0.000000 0.000000
# 3 -0.004972 -0.004972 0.014086 0.000000 0.000000 0.000000
# 4 0.000000 0.000000 0.000000 0.049777 0.000000 0.000000
# 5 0.000000 0.000000 0.000000 0.000000 0.049777 0.000000
# 6 0.000000 0.000000 0.000000 0.000000 0.000000 0.058861
#
#
# Mechanical properties :
#
#
# Convention : Reuss Voigt Hill
#
# Bulk Modulus (GPa) = 53.79962 54.72620 54.26291
# Shear Modulus (GPa) = 16.64591 18.46325 17.55458
#
# Velocity S-wave (km/s) = 3.24197 3.41435 3.32928
# Velocity P-wave (km/s) = 6.92699 7.07801 7.00291
#
# Compressibility (1/GPa) = 0.01858749
#
# Stress axis : x y z
#
# Youngs Moduli (GPa) = 31.70118 31.70123 70.99061
#
# Poissons Ratio (x) = 0.61344 0.35295
# Poissons Ratio (y) = 0.61344 0.35294
# Poissons Ratio (z) = 0.15761 0.15761
#
# Static dielectric constant tensor:
#      x y z
#    x 1.512740 0.000000 0.000000 
#    y 0.000000 1.512740 0.000000 
#    z 0.000000 0.000000 1.550100 
# 
# From -- ./inp_files/6129.got.cif
#   From: 2010.05.17/outbox.cif.g08.bks.cpg/sg129_4_cif.got.tgz:6129.got - 2010.05.20 12:12:06.
