data_PCOD9565331
_publ_section_title
;
Structure prediction by ZEFSAII (Michael W. Deem and Ramdas Pophale) SiO2 
 PCOD9565331
Probable space group: P 4/N M M
;
_chemical_formula_sum "Si O2"
_cell_formula_units_Z 56
_cell_length_a 18.836455
_cell_length_b 18.836455
_cell_length_c 7.581022
_cell_angle_alpha 90.000000
_cell_angle_beta 90.000000
_cell_angle_gamma 90.000000
_cell_volume 2689.837858
_symmetry_space_group_name_H-M "P 4/N M M"
_symmetry_group_IT_number 129
_symmetry_cell_setting 'tetragonal'
loop_
_space_group_symop_operation_xyz
x,y,z
1/2-y,x,z
1/2-x,1/2-y,z
y,1/2-x,z
1/2+x,-y,-z
-x,1/2+y,-z
1/2+y,1/2+x,-z
-y,-x,-z
-x,-y,-z
1/2+y,-x,-z
1/2+x,1/2+y,-z
-y,1/2+x,-z
1/2-x,y,z
x,1/2-y,z
1/2-y,1/2-x,z
y,x,z
loop_
_atom_site_type_symbol
_atom_site_label
_atom_site_fract_x
_atom_site_fract_y
_atom_site_fract_z
Si Si1 0.943493 0.669627 0.433791
Si Si2 0.058423 0.331531 0.993047
Si Si3 0.831348 0.402184 0.357798
Si Si4 0.088589 0.588589 0.000000
O O1 0.934088 0.750000 0.501209
O O2 0.886301 0.613700 0.502301
O O3 0.936064 0.672488 0.220461
O O4 0.024811 0.644905 0.455194
O O5 0.047324 0.250000 0.054790
O O6 0.130092 0.369909 0.057902
O O7 0.992701 0.385379 0.025547
O O8 0.841409 0.341409 0.500000
O O9 0.750000 0.414386 0.310155
O O10 0.872505 0.388356 0.178634
#
# Coordination Sequence:
#
# PCOD9565331 Si02
#       4
#    16  16  16   8
#     4   8  15  29  49  76 109 141 176 218 263 316
#     4   9  17  30  51  79 111 148 187 229 278 329
#     4  10  22  38  56  80 109 140 178 224 271 324
#     4  10  19  36  60  83 110 145 184 226 275 326
#
# _framework density 20.819099000000001
#
# number of rings (size 3 to 8) (size 9 to 14) (size 15 to 20)
#    0.000    2.857    0.000    3.000    0.000    4.857 
#    0.000    2.857    0.000    3.857    0.000    0.000 
#    0.000    4.571    0.000    0.857    0.000    0.000 
#
# Total GULP energy -312011.489492 kJ/mol
# GULP energy per Si atom -5571.633741 kJ/mol
# Density = 2.077171 g / cm^3
# Si number density = 20.819099 Si / 1000 Ang^3
#
#
#
# Elastic Constant Matrix: (Units=GPa)
#
#
# Indices 1 2 3 4 5 6 
#
# 1 109.3534 47.2510 11.1042 0.0000 0.0000 0.0000
# 2 47.2510 109.3534 11.1042 0.0000 0.0000 0.0000
# 3 11.1042 11.1042 54.2375 0.0000 0.0000 0.0000
# 4 0.0000 0.0000 0.0000 10.8578 0.0000 0.0000
# 5 0.0000 0.0000 0.0000 0.0000 10.8578 0.0000
# 6 0.0000 0.0000 0.0000 0.0000 0.0000 27.2486
#
#
#
# Elastic Compliance Matrix: (Units=1/GPa)
#
#
# Indices 1 2 3 4 5 6 
#
# 1 0.011339 -0.004763 -0.001346 0.000000 0.000000 0.000000
# 2 -0.004763 0.011339 -0.001346 0.000000 0.000000 0.000000
# 3 -0.001346 -0.001346 0.018989 0.000000 0.000000 0.000000
# 4 0.000000 0.000000 0.000000 0.092099 0.000000 0.000000
# 5 0.000000 0.000000 0.000000 0.000000 0.092099 0.000000
# 6 0.000000 0.000000 0.000000 0.000000 0.000000 0.036699
#
#
# Mechanical properties :
#
#
# Convention : Reuss Voigt Hill
#
# Bulk Modulus (GPa) = 37.37482 45.76256 41.56869
# Shear Modulus (GPa) = 17.45836 23.35853 20.40845
#
# Velocity S-wave (km/s) = 2.89896 3.35322 3.13433
# Velocity P-wave (km/s) = 5.40337 6.08448 5.75401
#
# Compressibility (1/GPa) = 0.02675598
#
# Stress axis : x y z
#
# Youngs Moduli (GPa) = 88.18777 88.18777 52.66283
#
# Poissons Ratio (x) = 0.42004 0.07091
# Poissons Ratio (y) = 0.42004 0.07091
# Poissons Ratio (z) = 0.11874 0.11874
#
# Static dielectric constant tensor:
#      x y z
#    x 1.764120 0.000000 0.000000 
#    y 0.000000 1.764120 0.000000 
#    z 0.000000 0.000000 1.742460 
# 
# From -- ./inp_files/1739.got.cif
#   From: 2010.05.17/outbox.cif.g08.bks.cpg/sg129_1_cif.got.tgz:1739.got - 2010.05.20 12:12:06.
