data_PCOD9565731
_publ_section_title
;
Structure prediction by ZEFSAII (Michael W. Deem and Ramdas Pophale) SiO2 
 PCOD9565731
Probable space group: P 4/N C C
;
_chemical_formula_sum "Si O2"
_cell_formula_units_Z 72
_cell_length_a 14.078464
_cell_length_b 14.078464
_cell_length_c 17.351319
_cell_angle_alpha 90.000000
_cell_angle_beta 90.000000
_cell_angle_gamma 90.000000
_cell_volume 3439.086058
_symmetry_space_group_name_H-M "P 4/N C C"
_symmetry_group_IT_number 130
_symmetry_cell_setting 'tetragonal'
loop_
_space_group_symop_operation_xyz
x,y,z
1/2-y,x,z
1/2-x,1/2-y,z
y,1/2-x,z
1/2+x,-y,1/2-z
-x,1/2+y,1/2-z
1/2+y,1/2+x,1/2-z
-y,-x,1/2-z
-x,-y,-z
1/2+y,-x,-z
1/2+x,1/2+y,-z
-y,1/2+x,-z
1/2-x,y,1/2+z
x,1/2-y,1/2+z
1/2-y,1/2-x,1/2+z
y,x,1/2+z
loop_
_atom_site_type_symbol
_atom_site_label
_atom_site_fract_x
_atom_site_fract_y
_atom_site_fract_z
Si Si1 0.055176 0.151257 0.962207
Si Si2 0.672879 0.511723 0.140593
Si Si3 0.750000 0.250000 0.000000
Si Si4 0.077870 0.831003 0.906813
Si Si5 0.750000 0.750000 0.487707
Si Si6 0.767528 0.591950 0.805226
O O1 0.007302 0.240929 0.919822
O O2 0.093731 0.080360 0.897041
O O3 0.149569 0.190152 0.004246
O O4 0.979738 0.115872 0.024612
O O5 0.626736 0.408708 0.147789
O O6 0.715313 0.556311 0.218149
O O7 0.841375 0.232142 0.053655
O O8 0.998325 0.774028 0.860297
O O9 0.850470 0.670174 0.817617
#
# Coordination Sequence:
#
# PCOD9565731 Si02
#       6
#    16  16   4  16   4  16
#     4  10  21  37  72 100 134 182 236 290 351 412
#     4  11  21  44  68 100 143 187 226 289 363 416
#     4  12  28  52  66  96 148 188 230 292 360 416
#     4  12  26  44  70 103 140 187 245 284 341 434
#     4   8  20  32  60 106 136 164 220 290 364 368
#     4  11  26  45  72 108 146 180 235 304 359 417
#
# _framework density 20.935794000000001
#
# number of rings (size 3 to 8) (size 9 to 14) (size 15 to 20)
#    0.000    1.111    4.444    1.333    6.222    1.778 
#    0.000    2.222    0.000    0.000    0.000    0.000 
#    0.000    0.000    0.000    0.000    0.000    0.000 
#
# Total GULP energy -401376.437369 kJ/mol
# GULP energy per Si atom -5574.672741 kJ/mol
# Density = 2.088814 g / cm^3
# Si number density = 20.935794 Si / 1000 Ang^3
#
#
#
# Elastic Constant Matrix: (Units=GPa)
#
#
# Indices 1 2 3 4 5 6 
#
# 1 110.7728 21.9652 35.9380 0.0000 0.0000 0.0000
# 2 21.9652 110.7728 35.9380 0.0000 0.0000 0.0000
# 3 35.9380 35.9380 89.1548 0.0000 0.0000 0.0000
# 4 0.0000 0.0000 0.0000 32.7296 0.0000 0.0000
# 5 0.0000 0.0000 0.0000 0.0000 32.7296 0.0000
# 6 0.0000 0.0000 0.0000 0.0000 0.0000 24.8212
#
#
#
# Elastic Compliance Matrix: (Units=1/GPa)
#
#
# Indices 1 2 3 4 5 6 
#
# 1 0.010449 -0.000812 -0.003885 0.000000 0.000000 0.000000
# 2 -0.000812 0.010449 -0.003885 0.000000 0.000000 0.000000
# 3 -0.003885 -0.003885 0.014348 0.000000 0.000000 0.000000
# 4 0.000000 0.000000 0.000000 0.030553 0.000000 0.000000
# 5 0.000000 0.000000 0.000000 0.000000 0.030553 0.000000
# 6 0.000000 0.000000 0.000000 0.000000 0.000000 0.040288
#
#
# Mechanical properties :
#
#
# Convention : Reuss Voigt Hill
#
# Bulk Modulus (GPa) = 55.29825 55.37589 55.33707
# Shear Modulus (GPa) = 31.28313 32.51336 31.89824
#
# Velocity S-wave (km/s) = 3.86974 3.94509 3.90760
# Velocity P-wave (km/s) = 6.81447 6.87455 6.84458
#
# Compressibility (1/GPa) = 0.01808376
#
# Stress axis : x y z
#
# Youngs Moduli (GPa) = 95.70542 95.70542 69.69480
#
# Poissons Ratio (x) = 0.07767 0.27074
# Poissons Ratio (y) = 0.07767 0.27074
# Poissons Ratio (z) = 0.37179 0.37179
#
# Static dielectric constant tensor:
#      x y z
#    x 1.726000 0.000000 0.000000 
#    y 0.000000 1.726000 0.000000 
#    z 0.000000 0.000000 1.792610 
# 
# From -- ./inp_files/2977.got.cif
#   From: 2010.05.17/outbox.cif.g08.bks.cpg/sg130_2_cif.got.tgz:2977.got - 2010.05.20 12:17:35.
