data_PCOD9565655
_publ_section_title
;
Structure prediction by ZEFSAII (Michael W. Deem and Ramdas Pophale) SiO2 
 PCOD9565655
Probable space group: P 4/N C C
;
_chemical_formula_sum "Si O2"
_cell_formula_units_Z 112
_cell_length_a 29.535732
_cell_length_b 29.535732
_cell_length_c 5.619288
_cell_angle_alpha 90.000000
_cell_angle_beta 90.000000
_cell_angle_gamma 90.000000
_cell_volume 4902.039072
_symmetry_space_group_name_H-M "P 4/N C C"
_symmetry_group_IT_number 130
_symmetry_cell_setting 'tetragonal'
loop_
_space_group_symop_operation_xyz
x,y,z
1/2-y,x,z
1/2-x,1/2-y,z
y,1/2-x,z
1/2+x,-y,1/2-z
-x,1/2+y,1/2-z
1/2+y,1/2+x,1/2-z
-y,-x,1/2-z
-x,-y,-z
1/2+y,-x,-z
1/2+x,1/2+y,-z
-y,1/2+x,-z
1/2-x,y,1/2+z
x,1/2-y,1/2+z
1/2-y,1/2-x,1/2+z
y,x,1/2+z
loop_
_atom_site_type_symbol
_atom_site_label
_atom_site_fract_x
_atom_site_fract_y
_atom_site_fract_z
Si Si1 0.044703 0.807938 0.034290
Si Si2 0.900497 0.152959 0.574509
Si Si3 0.724696 0.557257 0.498792
Si Si4 0.461815 0.601438 0.707019
Si Si5 0.555410 0.585667 0.483985
Si Si6 0.132722 0.758026 0.564513
Si Si7 0.133544 0.349329 0.513325
O O1 0.056164 0.825584 0.297357
O O2 0.996621 0.784494 0.003470
O O3 0.041761 0.853915 0.875844
O O4 0.086872 0.772112 0.015535
O O5 0.860933 0.139068 0.750000
O O6 0.918826 0.107634 0.465790
O O7 0.881227 0.189972 0.400219
O O8 0.750748 0.567749 0.251041
O O9 0.679130 0.587095 0.491975
O O10 0.452372 0.547629 0.750000
O O11 0.508661 0.606622 0.569129
O O12 0.553080 0.567473 0.211851
O O13 0.597163 0.620904 0.481922
O O14 0.156173 0.743297 0.806994
O O15 0.158252 0.340659 0.764439
#
# Coordination Sequence:
#
# PCOD9565655 Si02
#       7
#    16  16  16  16  16  16  16
#     4  11  23  39  58  90 129 170 208 283 345 405
#     4  11  23  38  59  87 126 163 217 272 331 390
#     4  12  26  41  67 103 135 172 228 280 344 411
#     4  12  25  40  63  89 126 174 233 280 319 382
#     4  10  24  42  61  84 114 172 222 270 313 368
#     4  10  20  37  57  83 120 158 198 252 332 405
#     4  10  21  41  64  92 131 180 216 264 328 400
#
# _framework density 22.847636999999999
#
# number of rings (size 3 to 8) (size 9 to 14) (size 15 to 20)
#    0.000    1.143    2.857    4.286    8.000    0.571 
#    0.000    0.000    0.000    0.000    0.000    0.000 
#    0.000   57.143    0.000    0.000    0.000    0.000 
#
# Total GULP energy -623706.308092 kJ/mol
# GULP energy per Si atom -5568.806322 kJ/mol
# Density = 2.279563 g / cm^3
# Si number density = 22.847637 Si / 1000 Ang^3
#
#
#
# Elastic Constant Matrix: (Units=GPa)
#
#
# Indices 1 2 3 4 5 6 
#
# 1 34.4699 14.1823 13.5664 0.0000 0.0000 0.0000
# 2 14.1823 34.4824 13.5644 0.0000 0.0000 0.0000
# 3 13.5664 13.5644 130.0456 0.0000 0.0000 0.0000
# 4 0.0000 0.0000 0.0000 19.7805 0.0000 0.0000
# 5 0.0000 0.0000 0.0000 0.0000 19.7742 0.0000
# 6 0.0000 0.0000 0.0000 0.0000 0.0000 14.4906
#
#
#
# Elastic Compliance Matrix: (Units=1/GPa)
#
#
# Indices 1 2 3 4 5 6 
#
# 1 0.035555 -0.013728 -0.002277 0.000000 0.000000 0.000000
# 2 -0.013728 0.035541 -0.002275 0.000000 0.000000 0.000000
# 3 -0.002277 -0.002275 0.008164 0.000000 0.000000 0.000000
# 4 0.000000 0.000000 0.000000 0.050555 0.000000 0.000000
# 5 0.000000 0.000000 0.000000 0.000000 0.050571 0.000000
# 6 0.000000 0.000000 0.000000 0.000000 0.000000 0.069010
#
#
# Mechanical properties :
#
#
# Convention : Reuss Voigt Hill
#
# Bulk Modulus (GPa) = 23.41871 31.29158 27.35514
# Shear Modulus (GPa) = 16.65607 21.32138 18.98873
#
# Velocity S-wave (km/s) = 2.70294 3.05814 2.88601
# Velocity P-wave (km/s) = 4.47363 5.11812 4.80669
#
# Compressibility (1/GPa) = 0.04270090
#
# Stress axis : x y z
#
# Youngs Moduli (GPa) = 28.12530 28.13628 122.48186
#
# Poissons Ratio (x) = 0.38625 0.27892
# Poissons Ratio (y) = 0.38610 0.27865
# Poissons Ratio (z) = 0.06405 0.06401
#
# Static dielectric constant tensor:
#      x y z
#    x 1.295830 0.000000 0.000000 
#    y 0.000000 1.295960 0.000000 
#    z 0.000000 0.000000 2.078450 
# 
# From -- ./inp_files/260.got.cif
#   From: 2010.05.17/outbox.cif.g08.bks.cpg/sg130_1_cif.got.tgz:260.got - 2010.05.20 12:17:35.
