data_PCOD9565036
_publ_section_title
;
Structure prediction by ZEFSAII (Michael W. Deem and Ramdas Pophale) SiO2 
 PCOD9565036
Probable space group: P 4/M N C
;
_chemical_formula_sum "Si O2"
_cell_formula_units_Z 52
_cell_length_a 13.119414
_cell_length_b 13.119414
_cell_length_c 13.998085
_cell_angle_alpha 90.000000
_cell_angle_beta 90.000000
_cell_angle_gamma 90.000000
_cell_volume 2409.336724
_symmetry_space_group_name_H-M "P 4/M N C"
_symmetry_group_IT_number 128
_symmetry_cell_setting 'tetragonal'
loop_
_space_group_symop_operation_xyz
x,y,z
-y,x,z
-x,-y,z
y,-x,z
1/2+x,1/2-y,1/2-z
1/2-x,1/2+y,1/2-z
1/2+y,1/2+x,1/2-z
1/2-y,1/2-x,1/2-z
-x,-y,-z
y,-x,-z
x,y,-z
-y,x,-z
1/2-x,1/2+y,1/2+z
1/2+x,1/2-y,1/2+z
1/2-y,1/2-x,1/2+z
1/2+y,1/2+x,1/2+z
loop_
_atom_site_type_symbol
_atom_site_label
_atom_site_fract_x
_atom_site_fract_y
_atom_site_fract_z
Si Si1 0.768360 0.467841 0.195617
Si Si2 0.500000 0.000000 0.250000
Si Si3 0.301611 0.345736 0.706129
Si Si4 0.663471 0.444168 0.000000
Si Si5 0.085878 0.149516 0.000000
O O1 0.688198 0.556463 0.226116
O O2 0.739281 0.386890 0.277713
O O3 0.888528 0.496322 0.197391
O O4 0.732230 0.426765 0.093607
O O5 0.200807 0.299194 0.750000
O O6 0.296381 0.379094 0.596881
O O7 0.625082 0.562085 0.000000
O O8 0.964266 0.133534 0.000000
#
# Coordination Sequence:
#
# PCOD9565036 Si02
#       5
#    16   4  16   8   8
#     4  12  25  46  72 105 147 195 244 299 364 441
#     4  12  28  50  68 104 152 194 236 310 364 440
#     4  12  25  45  73 106 153 192 241 301 368 438
#     4  11  24  41  74 114 144 189 244 305 370 430
#     4  11  24  42  76 112 140 185 248 310 366 421
#
# _framework density 21.582702000000001
#
# number of rings (size 3 to 8) (size 9 to 14) (size 15 to 20)
#    0.000    0.308    9.231    0.000    0.000    3.692 
#    0.000    3.077    0.000    0.000    0.000    0.000 
#    0.000    0.000    0.000    0.000    0.000    0.000 
#
# Total GULP energy -289867.860077 kJ/mol
# GULP energy per Si atom -5574.381925 kJ/mol
# Density = 2.153358 g / cm^3
# Si number density = 21.582702 Si / 1000 Ang^3
#
#
#
# Elastic Constant Matrix: (Units=GPa)
#
#
# Indices 1 2 3 4 5 6 
#
# 1 551.7054 -469.2690 13.3999 0.0000 0.0000 0.0000
# 2 -469.2690 551.6650 13.4645 0.0000 0.0000 0.0000
# 3 13.3999 13.4645 147.5808 0.0000 0.0000 0.0000
# 4 0.0000 0.0000 0.0000 21.5007 0.0000 0.0000
# 5 0.0000 0.0000 0.0000 0.0000 21.5076 0.0000
# 6 0.0000 0.0000 0.0000 0.0000 0.0000 36.9718
#
#
#
# Elastic Compliance Matrix: (Units=1/GPa)
#
#
# Indices 1 2 3 4 5 6 
#
# 1 0.006742 0.005763 -0.001138 0.000000 0.000000 0.000000
# 2 0.005763 0.006742 -0.001138 0.000000 0.000000 0.000000
# 3 -0.001138 -0.001138 0.006983 0.000000 0.000000 0.000000
# 4 0.000000 0.000000 0.000000 0.046510 0.000000 0.000000
# 5 0.000000 0.000000 0.000000 0.000000 0.046495 0.000000
# 6 0.000000 0.000000 0.000000 0.000000 0.000000 0.027048
#
#
# Mechanical properties :
#
#
# Convention : Reuss Voigt Hill
#
# Bulk Modulus (GPa) = 36.44351 40.68243 38.56297
# Shear Modulus (GPa) = 35.04001 128.88641 81.96321
#
# Velocity S-wave (km/s) = 4.03367 7.73609 6.16918
# Velocity P-wave (km/s) = 6.21419 9.93411 8.28561
#
# Compressibility (1/GPa) = 0.02743973
#
# Stress axis : x y z
#
# Youngs Moduli (GPa) = 148.33095 148.31691 143.20247
#
# Poissons Ratio (x) = -0.85468 0.16295
# Poissons Ratio (y) = -0.85476 0.16301
# Poissons Ratio (z) = 0.16878 0.16884
#
# Static dielectric constant tensor:
#      x y z
#    x 1.926720 0.000000 0.000000 
#    y 0.000000 1.926730 0.000000 
#    z 0.000000 0.000000 1.711550 
# 
# From -- ./inp_files/2346.got.cif
#   From: 2010.05.17/outbox.cif.g08.bks.cpg/sg128_2_cif.got.tgz:2346.got - 2010.05.20 12:07:25.
