data_PCOD9565304
_publ_section_title
;
Structure prediction by ZEFSAII (Michael W. Deem and Ramdas Pophale) SiO2 
 PCOD9565304
Probable space group: P 4/N M M
;
_chemical_formula_sum "Si O2"
_cell_formula_units_Z 128
_cell_length_a 23.442578
_cell_length_b 23.442578
_cell_length_c 13.955926
_cell_angle_alpha 90.000000
_cell_angle_beta 90.000000
_cell_angle_gamma 90.000000
_cell_volume 7669.541423
_symmetry_space_group_name_H-M "P 4/N M M"
_symmetry_group_IT_number 129
_symmetry_cell_setting 'tetragonal'
loop_
_space_group_symop_operation_xyz
x,y,z
1/2-y,x,z
1/2-x,1/2-y,z
y,1/2-x,z
1/2+x,-y,-z
-x,1/2+y,-z
1/2+y,1/2+x,-z
-y,-x,-z
-x,-y,-z
1/2+y,-x,-z
1/2+x,1/2+y,-z
-y,1/2+x,-z
1/2-x,y,z
x,1/2-y,z
1/2-y,1/2-x,z
y,x,z
loop_
_atom_site_type_symbol
_atom_site_label
_atom_site_fract_x
_atom_site_fract_y
_atom_site_fract_z
Si Si1 0.813994 0.134335 0.409297
Si Si2 0.399374 0.007505 0.797261
Si Si3 0.928972 0.313882 0.908902
Si Si4 0.502491 0.094350 0.462825
Si Si5 0.502210 0.317027 0.626256
Si Si6 0.043371 0.687489 0.871900
Si Si7 0.087777 0.505455 0.246385
Si Si8 0.163819 0.813302 0.791540
O O1 0.853884 0.146117 0.500000
O O2 0.750000 0.139661 0.448242
O O3 0.820079 0.175315 0.318167
O O4 0.820214 0.071150 0.365627
O O5 0.438034 0.061967 0.826188
O O6 0.355956 0.022571 0.711316
O O7 0.360556 0.974175 0.873599
O O8 0.444301 0.958970 0.764185
O O9 0.950029 0.250000 0.885127
O O10 0.867171 0.318746 0.857822
O O11 0.927890 0.319319 0.023695
O O12 0.555550 0.055550 0.500000
O O13 0.490976 0.148968 0.528368
O O14 0.512314 0.112191 0.353169
O O15 0.448808 0.051193 0.466973
O O16 0.486374 0.250000 0.627562
O O17 0.015200 0.750000 0.870765
O O18 0.007075 0.634279 0.837230
O O19 0.095675 0.687397 0.798181
O O20 0.052777 0.447224 0.242261
O O21 0.183491 0.750000 0.823063
#
# Coordination Sequence:
#
# PCOD9565304 Si02
#       8
#    16  16  16  16  16  16  16  16
#     4  11  23  35  48  69  98 135 176 221 264 300
#     4  11  21  35  56  78 102 136 178 224 274 324
#     4  11  22  38  56  76 104 137 178 229 275 314
#     4  10  19  33  52  75 104 138 177 218 258 310
#     4  11  21  32  50  77 107 138 173 215 264 320
#     4  10  22  37  53  74 106 139 173 222 271 317
#     4  10  20  34  56  79 101 136 180 221 265 319
#     4  11  22  36  53  71  99 141 183 223 266 312
#
# _framework density 16.689394
#
# number of rings (size 3 to 8) (size 9 to 14) (size 15 to 20)
#    0.000    1.375    3.750    2.250    1.750    2.625 
#    0.000    1.875    0.000    4.500    0.000    0.000 
#    0.000   12.000    0.000   11.000    0.000    4.000 
#
# Total GULP energy -713813.488133 kJ/mol
# GULP energy per Si atom -5576.667876 kJ/mol
# Density = 1.665141 g / cm^3
# Si number density = 16.689394 Si / 1000 Ang^3
#
#
#
# Elastic Constant Matrix: (Units=GPa)
#
#
# Indices 1 2 3 4 5 6 
#
# 1 75.8881 35.5235 28.5486 0.0000 0.0000 0.0000
# 2 35.5235 75.8885 28.5489 0.0000 0.0000 0.0000
# 3 28.5486 28.5489 57.7632 0.0000 0.0000 0.0000
# 4 0.0000 0.0000 0.0000 18.0861 0.0000 0.0000
# 5 0.0000 0.0000 0.0000 0.0000 18.0858 0.0000
# 6 0.0000 0.0000 0.0000 0.0000 0.0000 13.9641
#
#
#
# Elastic Compliance Matrix: (Units=1/GPa)
#
#
# Indices 1 2 3 4 5 6 
#
# 1 0.018397 -0.006377 -0.005941 0.000000 0.000000 0.000000
# 2 -0.006377 0.018397 -0.005941 0.000000 0.000000 0.000000
# 3 -0.005941 -0.005941 0.023185 0.000000 0.000000 0.000000
# 4 0.000000 0.000000 0.000000 0.055291 0.000000 0.000000
# 5 0.000000 0.000000 0.000000 0.000000 0.055292 0.000000
# 6 0.000000 0.000000 0.000000 0.000000 0.000000 0.071612
#
#
# Mechanical properties :
#
#
# Convention : Reuss Voigt Hill
#
# Bulk Modulus (GPa) = 42.62288 43.86465 43.24377
# Shear Modulus (GPa) = 17.45125 17.82177 17.63651
#
# Velocity S-wave (km/s) = 3.23716 3.27134 3.25430
# Velocity P-wave (km/s) = 6.29020 6.37251 6.33149
#
# Compressibility (1/GPa) = 0.02346158
#
# Stress axis : x y z
#
# Youngs Moduli (GPa) = 54.35604 54.35608 43.13220
#
# Poissons Ratio (x) = 0.34662 0.25624
# Poissons Ratio (y) = 0.34662 0.25625
# Poissons Ratio (z) = 0.32292 0.32293
#
# Static dielectric constant tensor:
#      x y z
#    x 1.579070 0.000000 0.000000 
#    y 0.000000 1.579070 0.000000 
#    z 0.000000 0.000000 1.592480 
# 
# From -- ./inp_files/4173.got.cif
#   From: 2010.05.17/outbox.cif.g08.bks.cpg/sg129_3_cif.got.tgz:4173.got - 2010.05.20 12:12:06.
