data_PCOD9565244
_publ_section_title
;
Structure prediction by ZEFSAII (Michael W. Deem and Ramdas Pophale) SiO2 
 PCOD9565244
Probable space group: P 4/N M M
;
_chemical_formula_sum "Si O2"
_cell_formula_units_Z 128
_cell_length_a 23.885728
_cell_length_b 23.885728
_cell_length_c 13.186381
_cell_angle_alpha 90.000000
_cell_angle_beta 90.000000
_cell_angle_gamma 90.000000
_cell_volume 7523.199607
_symmetry_space_group_name_H-M "P 4/N M M"
_symmetry_group_IT_number 129
_symmetry_cell_setting 'tetragonal'
loop_
_space_group_symop_operation_xyz
x,y,z
1/2-y,x,z
1/2-x,1/2-y,z
y,1/2-x,z
1/2+x,-y,-z
-x,1/2+y,-z
1/2+y,1/2+x,-z
-y,-x,-z
-x,-y,-z
1/2+y,-x,-z
1/2+x,1/2+y,-z
-y,1/2+x,-z
1/2-x,y,z
x,1/2-y,z
1/2-y,1/2-x,z
y,x,z
loop_
_atom_site_type_symbol
_atom_site_label
_atom_site_fract_x
_atom_site_fract_y
_atom_site_fract_z
Si Si1 0.610125 0.105277 0.745071
Si Si2 0.093314 0.186144 0.387703
Si Si3 0.186236 0.685667 0.378421
Si Si4 0.875919 0.188649 0.928036
Si Si5 0.998088 0.815689 0.788238
Si Si6 0.814515 0.997400 0.016960
Si Si7 0.090912 0.316053 0.618952
Si Si8 0.520300 0.614198 0.219937
O O1 0.639771 0.142202 0.658504
O O2 0.622449 0.141659 0.844390
O O3 0.642230 0.047153 0.757496
O O4 0.542800 0.100645 0.743150
O O5 0.114135 0.250000 0.385885
O O6 0.142976 0.142976 0.372471
O O7 0.070203 0.177102 0.502276
O O8 0.048672 0.179862 0.298344
O O9 0.186306 0.686306 0.500000
O O10 0.250000 0.670634 0.344564
O O11 0.175363 0.750000 0.345587
O O12 0.873322 0.250000 0.882457
O O13 0.824351 0.175650 0.000000
O O14 0.934772 0.184634 0.987394
O O15 0.016627 0.750000 0.791118
O O16 0.977602 0.828854 0.903168
O O17 0.750000 0.980897 0.040390
O O18 0.855145 0.981338 0.109766
O O19 0.098123 0.250000 0.638223
O O20 0.148862 0.351139 0.625905
O O21 0.048811 0.343829 0.699154
O O22 0.559212 0.559212 0.214459
#
# Coordination Sequence:
#
# PCOD9565244 Si02
#       8
#    16  16  16  16  16  16  16  16
#     4  11  21  34  53  73 102 140 180 215 262 314
#     4   9  19  35  56  82 107 133 166 207 262 322
#     4   9  19  35  53  76 105 135 175 226 270 316
#     4  10  19  31  47  70  99 128 164 212 262 309
#     4  10  20  34  53  76 104 138 175 219 260 305
#     4   9  18  34  54  72  98 136 175 215 262 313
#     4   9  18  35  57  81 110 136 166 213 263 319
#     4  10  22  36  52  77 106 139 181 225 266 308
#
# _framework density 17.014037999999999
#
# number of rings (size 3 to 8) (size 9 to 14) (size 15 to 20)
#    0.000    2.375    1.250    1.500    0.000    4.375 
#    0.000    4.375    0.000    2.625    0.000    0.000 
#    0.000    3.000    0.000    0.000    0.000    0.000 
#
# Total GULP energy -713038.041721 kJ/mol
# GULP energy per Si atom -5570.609701 kJ/mol
# Density = 1.697531 g / cm^3
# Si number density = 17.014038 Si / 1000 Ang^3
#
#
#
# Elastic Constant Matrix: (Units=GPa)
#
#
# Indices 1 2 3 4 5 6 
#
# 1 94.0531 73.3117 59.5912 0.0000 0.0000 0.0000
# 2 73.3117 94.0516 59.5897 0.0000 0.0000 0.0000
# 3 59.5912 59.5897 99.4913 0.0000 0.0000 0.0000
# 4 0.0000 0.0000 0.0000 28.1257 0.0000 0.0000
# 5 0.0000 0.0000 0.0000 0.0000 28.1270 0.0000
# 6 0.0000 0.0000 0.0000 0.0000 0.0000 23.2862
#
#
#
# Elastic Compliance Matrix: (Units=1/GPa)
#
#
# Indices 1 2 3 4 5 6 
#
# 1 0.029317 -0.018898 -0.006241 0.000000 0.000000 0.000000
# 2 -0.018898 0.029317 -0.006240 0.000000 0.000000 0.000000
# 3 -0.006241 -0.006240 0.017526 0.000000 0.000000 0.000000
# 4 0.000000 0.000000 0.000000 0.035555 0.000000 0.000000
# 5 0.000000 0.000000 0.000000 0.000000 0.035553 0.000000
# 6 0.000000 0.000000 0.000000 0.000000 0.000000 0.042944
#
#
# Mechanical properties :
#
#
# Convention : Reuss Voigt Hill
#
# Bulk Modulus (GPa) = 74.61215 74.73125 74.67170
# Shear Modulus (GPa) = 19.42229 22.24800 20.83515
#
# Velocity S-wave (km/s) = 3.38234 3.62003 3.50320
# Velocity P-wave (km/s) = 7.69429 7.84165 7.76832
#
# Compressibility (1/GPa) = 0.01340264
#
# Stress axis : x y z
#
# Youngs Moduli (GPa) = 34.11022 34.11031 57.05663
#
# Poissons Ratio (x) = 0.64461 0.35607
# Poissons Ratio (y) = 0.64461 0.35603
# Poissons Ratio (z) = 0.21287 0.21285
#
# Static dielectric constant tensor:
#      x y z
#    x 1.565870 0.000000 0.000000 
#    y 0.000000 1.565870 0.000000 
#    z 0.000000 0.000000 1.604720 
# 
# From -- ./inp_files/4223.got.cif
#   From: 2010.05.17/outbox.cif.g08.bks.cpg/sg129_3_cif.got.tgz:4223.got - 2010.05.20 12:12:06.
