data_PCOD9565576
_publ_section_title
;
Structure prediction by ZEFSAII (Michael W. Deem and Ramdas Pophale) SiO2 
 PCOD9565576
Probable space group: P 4/N C C
;
_chemical_formula_sum "Si O2"
_cell_formula_units_Z 84
_cell_length_a 13.924723
_cell_length_b 13.924723
_cell_length_c 21.279677
_cell_angle_alpha 90.000000
_cell_angle_beta 90.000000
_cell_angle_gamma 90.000000
_cell_volume 4126.084909
_symmetry_space_group_name_H-M "P 4/N C C"
_symmetry_group_IT_number 130
_symmetry_cell_setting 'tetragonal'
loop_
_space_group_symop_operation_xyz
x,y,z
1/2-y,x,z
1/2-x,1/2-y,z
y,1/2-x,z
1/2+x,-y,1/2-z
-x,1/2+y,1/2-z
1/2+y,1/2+x,1/2-z
-y,-x,1/2-z
-x,-y,-z
1/2+y,-x,-z
1/2+x,1/2+y,-z
-y,1/2+x,-z
1/2-x,y,1/2+z
x,1/2-y,1/2+z
1/2-y,1/2-x,1/2+z
y,x,1/2+z
loop_
_atom_site_type_symbol
_atom_site_label
_atom_site_fract_x
_atom_site_fract_y
_atom_site_fract_z
Si Si1 0.250000 0.250000 0.727757
Si Si2 0.836704 0.477219 0.872029
Si Si3 0.822375 0.537588 0.737183
Si Si4 0.019307 0.620974 0.691381
Si Si5 0.836371 0.373727 0.522301
Si Si6 0.001943 0.618268 0.913233
O O1 0.281199 0.364082 0.732276
O O2 0.847946 0.472707 0.797314
O O3 0.862876 0.379771 0.908734
O O4 0.727207 0.503220 0.888635
O O5 0.905968 0.559651 0.899296
O O6 0.915638 0.569644 0.698646
O O7 0.734852 0.494311 0.697467
O O8 0.082527 0.582527 0.750000
O O9 0.067596 0.584126 0.628195
O O10 0.871248 0.278160 0.484739
O O11 0.876788 0.465568 0.485460
#
# Coordination Sequence:
#
# PCOD9565576 Si02
#       6
#     4  16  16  16  16  16
#     4   8  16  32  52  80 106 144 192 232 284 322
#     4  11  20  35  59  82 111 144 192 237 283 331
#     4  10  19  33  57  82 114 153 188 235 282 343
#     4  11  20  36  55  85 120 148 191 230 286 343
#     4   9  21  40  59  82 111 150 190 232 286 345
#     4  11  22  37  59  84 115 150 191 239 284 343
#
# _framework density 20.358281000000002
#
# number of rings (size 3 to 8) (size 9 to 14) (size 15 to 20)
#    0.000    1.714    3.810    1.714    0.000    1.905 
#    0.000    0.000    0.000    0.571    0.000    8.000 
#    0.000    0.000    0.000    0.000    0.000    0.000 
#
# Total GULP energy -468378.325121 kJ/mol
# GULP energy per Si atom -5575.932442 kJ/mol
# Density = 2.031194 g / cm^3
# Si number density = 20.358281 Si / 1000 Ang^3
#
#
#
# Elastic Constant Matrix: (Units=GPa)
#
#
# Indices 1 2 3 4 5 6 
#
# 1 103.0388 15.8941 34.8396 0.0000 0.0000 0.0000
# 2 15.8941 103.0388 34.8396 0.0000 0.0000 0.0000
# 3 34.8396 34.8396 52.1420 0.0000 0.0000 0.0000
# 4 0.0000 0.0000 0.0000 15.6589 0.0000 0.0000
# 5 0.0000 0.0000 0.0000 0.0000 15.6589 0.0000
# 6 0.0000 0.0000 0.0000 0.0000 0.0000 31.6474
#
#
#
# Elastic Compliance Matrix: (Units=1/GPa)
#
#
# Indices 1 2 3 4 5 6 
#
# 1 0.012646 0.001171 -0.009232 0.000000 0.000000 0.000000
# 2 0.001171 0.012646 -0.009232 0.000000 0.000000 0.000000
# 3 -0.009232 -0.009232 0.031515 0.000000 0.000000 0.000000
# 4 0.000000 0.000000 0.000000 0.063861 0.000000 0.000000
# 5 0.000000 0.000000 0.000000 0.000000 0.063861 0.000000
# 6 0.000000 0.000000 0.000000 0.000000 0.000000 0.031598
#
#
# Mechanical properties :
#
#
# Convention : Reuss Voigt Hill
#
# Bulk Modulus (GPa) = 45.00200 47.70732 46.35466
# Shear Modulus (GPa) = 19.37072 24.10280 21.73676
#
# Velocity S-wave (km/s) = 3.08797 3.44456 3.27113
# Velocity P-wave (km/s) = 5.90484 6.26935 6.08982
#
# Compressibility (1/GPa) = 0.02222123
#
# Stress axis : x y z
#
# Youngs Moduli (GPa) = 79.07640 79.07640 31.73053
#
# Poissons Ratio (x) = -0.09258 0.29293
# Poissons Ratio (y) = -0.09258 0.29293
# Poissons Ratio (z) = 0.73003 0.73003
#
# Static dielectric constant tensor:
#      x y z
#    x 1.727610 0.000000 0.000000 
#    y 0.000000 1.727610 0.000000 
#    z 0.000000 0.000000 1.714520 
# 
# From -- ./inp_files/3716.got.cif
#   From: 2010.05.17/outbox.cif.g08.bks.cpg/sg130_2_cif.got.tgz:3716.got - 2010.05.20 12:17:35.
