data_PCOD9565263
_publ_section_title
;
Structure prediction by ZEFSAII (Michael W. Deem and Ramdas Pophale) SiO2 
 PCOD9565263
Probable space group: P 4/N M M
;
_chemical_formula_sum "Si O2"
_cell_formula_units_Z 96
_cell_length_a 21.673235
_cell_length_b 21.673235
_cell_length_c 10.067489
_cell_angle_alpha 90.000000
_cell_angle_beta 90.000000
_cell_angle_gamma 90.000000
_cell_volume 4728.992702
_symmetry_space_group_name_H-M "P 4/N M M"
_symmetry_group_IT_number 129
_symmetry_cell_setting 'tetragonal'
loop_
_space_group_symop_operation_xyz
x,y,z
1/2-y,x,z
1/2-x,1/2-y,z
y,1/2-x,z
1/2+x,-y,-z
-x,1/2+y,-z
1/2+y,1/2+x,-z
-y,-x,-z
-x,-y,-z
1/2+y,-x,-z
1/2+x,1/2+y,-z
-y,1/2+x,-z
1/2-x,y,z
x,1/2-y,z
1/2-y,1/2-x,z
y,x,z
loop_
_atom_site_type_symbol
_atom_site_label
_atom_site_fract_x
_atom_site_fract_y
_atom_site_fract_z
Si Si1 0.424398 0.324027 0.681709
Si Si2 0.818776 0.434119 0.270398
Si Si3 0.822174 0.404577 0.685557
Si Si4 0.822591 0.964620 0.611213
Si Si5 0.081192 0.176661 0.098392
Si Si6 0.646997 0.051162 0.982235
O O1 0.416253 0.250000 0.715143
O O2 0.370477 0.370477 0.730685
O O3 0.495298 0.342934 0.716668
O O4 0.426242 0.330231 0.521451
O O5 0.750000 0.436388 0.326328
O O6 0.853935 0.375509 0.330355
O O7 0.818341 0.423485 0.111341
O O8 0.750000 0.388381 0.657691
O O9 0.845134 0.464980 0.604849
O O10 0.825947 0.425664 0.841613
O O11 0.750000 0.973928 0.628002
O O12 0.841028 0.933362 0.748588
O O13 0.084623 0.250000 0.085754
O O14 0.143140 0.143140 0.056585
O O15 0.022158 0.152605 0.018979
O O16 0.578285 0.078285 0.000000
#
# Coordination Sequence:
#
# PCOD9565263 Si02
#       6
#    16  16  16  16  16  16
#     4  10  21  37  56  76 101 134 171 214 261 307
#     4  10  20  33  50  75 107 139 169 206 253 300
#     4   9  17  32  55  78 102 135 170 206 250 302
#     4   8  16  33  53  73  99 130 166 210 260 304
#     4  10  19  31  50  74 101 133 166 206 255 305
#     4   9  18  34  54  74  98 131 171 214 259 301
#
# _framework density 20.300308000000001
#
# number of rings (size 3 to 8) (size 9 to 14) (size 15 to 20)
#    0.000    2.667    0.000    3.000    0.000    2.333 
#    0.000    8.333    0.000    6.000    0.000    7.000 
#    0.000    0.000    0.000    0.000    0.000    0.000 
#
# Total GULP energy -534626.066583 kJ/mol
# GULP energy per Si atom -5569.021527 kJ/mol
# Density = 2.025410 g / cm^3
# Si number density = 20.300308 Si / 1000 Ang^3
#
#
#
# Elastic Constant Matrix: (Units=GPa)
#
#
# Indices 1 2 3 4 5 6 
#
# 1 121.2795 91.7972 -0.2472 0.0000 0.0000 0.0000
# 2 91.7972 121.2795 -0.2472 0.0000 0.0000 0.0000
# 3 -0.2472 -0.2472 46.6660 0.0000 0.0000 0.0000
# 4 0.0000 0.0000 0.0000 13.0079 0.0000 0.0000
# 5 0.0000 0.0000 0.0000 0.0000 13.0079 0.0000
# 6 0.0000 0.0000 0.0000 0.0000 0.0000 35.8488
#
#
#
# Elastic Compliance Matrix: (Units=1/GPa)
#
#
# Indices 1 2 3 4 5 6 
#
# 1 0.019306 -0.014613 0.000025 0.000000 0.000000 0.000000
# 2 -0.014613 0.019306 0.000025 0.000000 0.000000 0.000000
# 3 0.000025 0.000025 0.021429 0.000000 0.000000 0.000000
# 4 0.000000 0.000000 0.000000 0.076877 0.000000 0.000000
# 5 0.000000 0.000000 0.000000 0.000000 0.076877 0.000000
# 6 0.000000 0.000000 0.000000 0.000000 0.000000 0.027895
#
#
# Mechanical properties :
#
#
# Convention : Reuss Voigt Hill
#
# Bulk Modulus (GPa) = 32.34676 52.42562 42.38619
# Shear Modulus (GPa) = 17.78599 25.56770 21.67684
#
# Velocity S-wave (km/s) = 2.96318 3.55276 3.27128
# Velocity P-wave (km/s) = 5.26080 6.53533 5.93239
#
# Compressibility (1/GPa) = 0.03091500
#
# Stress axis : x y z
#
# Youngs Moduli (GPa) = 51.79758 51.79758 46.66540
#
# Poissons Ratio (x) = 0.75690 -0.00116
# Poissons Ratio (y) = 0.75690 -0.00116
# Poissons Ratio (z) = -0.00129 -0.00129
#
# Static dielectric constant tensor:
#      x y z
#    x 1.728210 0.000000 0.000000 
#    y 0.000000 1.728210 0.000000 
#    z 0.000000 0.000000 1.811090 
# 
# From -- ./inp_files/3854.got.cif
#   From: 2010.05.17/outbox.cif.g08.bks.cpg/sg129_2_cif.got.tgz:3854.got - 2010.05.20 12:12:06.
