data_PCOD9565741
_publ_section_title
;
Structure prediction by ZEFSAII (Michael W. Deem and Ramdas Pophale) SiO2 
 PCOD9565741
Probable space group: P 4/N C C
;
_chemical_formula_sum "Si O2"
_cell_formula_units_Z 100
_cell_length_a 14.862274
_cell_length_b 14.862274
_cell_length_c 19.082770
_cell_angle_alpha 90.000000
_cell_angle_beta 90.000000
_cell_angle_gamma 90.000000
_cell_volume 4215.139413
_symmetry_space_group_name_H-M "P 4/N C C"
_symmetry_group_IT_number 130
_symmetry_cell_setting 'tetragonal'
loop_
_space_group_symop_operation_xyz
x,y,z
1/2-y,x,z
1/2-x,1/2-y,z
y,1/2-x,z
1/2+x,-y,1/2-z
-x,1/2+y,1/2-z
1/2+y,1/2+x,1/2-z
-y,-x,1/2-z
-x,-y,-z
1/2+y,-x,-z
1/2+x,1/2+y,-z
-y,1/2+x,-z
1/2-x,y,1/2+z
x,1/2-y,1/2+z
1/2-y,1/2-x,1/2+z
y,x,1/2+z
loop_
_atom_site_type_symbol
_atom_site_label
_atom_site_fract_x
_atom_site_fract_y
_atom_site_fract_z
Si Si1 0.396786 0.385682 0.058070
Si Si2 0.857284 0.570720 0.103900
Si Si3 0.600934 0.376459 0.563781
Si Si4 0.250000 0.250000 0.596375
Si Si5 0.325927 0.596620 0.591409
Si Si6 0.370827 0.528436 0.803675
Si Si7 0.247592 0.107752 0.766960
O O1 0.396832 0.494016 0.060576
O O2 0.306558 0.345224 0.090011
O O3 0.489858 0.350212 0.091321
O O4 0.397112 0.358330 0.975762
O O5 0.853684 0.462391 0.100283
O O6 0.775413 0.608571 0.150158
O O7 0.948702 0.597611 0.144459
O O8 0.612685 0.279575 0.597868
O O9 0.639159 0.371826 0.484839
O O10 0.384029 0.644773 0.650571
O O11 0.449974 0.550027 0.750000
O O12 0.284914 0.493365 0.759443
O O13 0.333040 0.163250 0.740445
#
# Coordination Sequence:
#
# PCOD9565741 Si02
#       7
#    16  16  16   4  16  16  16
#     4  11  21  36  61  98 130 163 211 272 336 384
#     4  10  21  39  65  93 130 167 212 267 334 378
#     4  11  22  40  61  92 131 170 213 271 328 404
#     4  12  24  28  68 104 126 164 200 280 336 378
#     4  11  23  40  61  89 130 171 216 260 330 394
#     4  11  23  42  63  91 132 177 210 256 328 396
#     4   9  21  39  67  97 121 154 221 284 313 357
#
# _framework density 23.724007
#
# number of rings (size 3 to 8) (size 9 to 14) (size 15 to 20)
#    0.000    1.440    4.800    0.960    8.960    0.320 
#    5.760    0.000    0.000    0.960    0.000    0.000 
#    0.000    0.000    0.000    0.000    0.000    0.000 
#
# Total GULP energy -557911.283609 kJ/mol
# GULP energy per Si atom -5579.112836 kJ/mol
# Density = 2.367001 g / cm^3
# Si number density = 23.724007 Si / 1000 Ang^3
#
#
#
# Elastic Constant Matrix: (Units=GPa)
#
#
# Indices 1 2 3 4 5 6 
#
# 1 82.8401 48.2631 23.9111 0.0000 0.0000 0.0000
# 2 48.2631 82.8411 23.9101 0.0000 0.0000 0.0000
# 3 23.9111 23.9101 79.5101 0.0000 0.0000 0.0000
# 4 0.0000 0.0000 0.0000 -3.9078 0.0000 0.0000
# 5 0.0000 0.0000 0.0000 0.0000 -3.9098 0.0000
# 6 0.0000 0.0000 0.0000 0.0000 0.0000 -21.0280
#
#
#
# Elastic Compliance Matrix: (Units=1/GPa)
#
#
# Indices 1 2 3 4 5 6 
#
# 1 0.018744 -0.010177 -0.002577 0.000000 0.000000 0.000000
# 2 -0.010177 0.018744 -0.002576 0.000000 0.000000 0.000000
# 3 -0.002577 -0.002576 0.014127 0.000000 0.000000 0.000000
# 4 0.000000 0.000000 0.000000 -0.255899 0.000000 0.000000
# 5 0.000000 0.000000 0.000000 0.000000 -0.255768 0.000000
# 6 0.000000 0.000000 0.000000 0.000000 0.000000 -0.047556
#
#
# Mechanical properties :
#
#
# Convention : Reuss Voigt Hill
#
# Bulk Modulus (GPa) = 47.71990 48.59556 48.15773
# Shear Modulus (GPa) = -10.63910 4.17135 -3.23387
#
# Velocity S-wave (km/s) = -2.11997 1.32744 -1.16880
# Velocity P-wave (km/s) = 3.76376 4.78306 4.30369
#
# Compressibility (1/GPa) = 0.02095562
#
# Stress axis : x y z
#
# Youngs Moduli (GPa) = 53.35009 53.35123 70.78853
#
# Poissons Ratio (x) = 0.54293 0.18240
# Poissons Ratio (y) = 0.54292 0.18236
# Poissons Ratio (z) = 0.13746 0.13744
#
# Static dielectric constant tensor:
#      x y z
#    x 1.935870 0.000000 0.000000 
#    y 0.000000 1.935870 0.000000 
#    z 0.000000 0.000000 1.958990 
# 
# From -- ./inp_files/4239.got.cif
#   From: 2010.05.17/outbox.cif.g08.bks.cpg/sg130_3_cif.got.tgz:4239.got - 2010.05.20 12:17:35.
