data_PCOD9565641
_publ_section_title
;
Structure prediction by ZEFSAII (Michael W. Deem and Ramdas Pophale) SiO2 
 PCOD9565641
Probable space group: P 4/N C C
;
_chemical_formula_sum "Si O2"
_cell_formula_units_Z 108
_cell_length_a 19.552306
_cell_length_b 19.552306
_cell_length_c 14.343321
_cell_angle_alpha 90.000000
_cell_angle_beta 90.000000
_cell_angle_gamma 90.000000
_cell_volume 5483.346481
_symmetry_space_group_name_H-M "P 4/N C C"
_symmetry_group_IT_number 130
_symmetry_cell_setting 'tetragonal'
loop_
_space_group_symop_operation_xyz
x,y,z
1/2-y,x,z
1/2-x,1/2-y,z
y,1/2-x,z
1/2+x,-y,1/2-z
-x,1/2+y,1/2-z
1/2+y,1/2+x,1/2-z
-y,-x,1/2-z
-x,-y,-z
1/2+y,-x,-z
1/2+x,1/2+y,-z
-y,1/2+x,-z
1/2-x,y,1/2+z
x,1/2-y,1/2+z
1/2-y,1/2-x,1/2+z
y,x,1/2+z
loop_
_atom_site_type_symbol
_atom_site_label
_atom_site_fract_x
_atom_site_fract_y
_atom_site_fract_z
Si Si1 0.656818 0.067359 0.979001
Si Si2 0.944088 0.026338 0.925292
Si Si3 0.928875 0.671063 0.978021
Si Si4 0.670468 0.518795 0.184191
Si Si5 0.569930 0.818830 0.385292
Si Si6 0.715995 0.391150 0.082407
Si Si7 0.479979 0.979979 0.250000
Si Si8 0.250000 0.750000 0.500000
O O1 0.608396 0.054462 0.068369
O O2 0.736005 0.072688 0.005590
O O3 0.627966 0.137222 0.936172
O O4 0.649086 0.003806 0.911251
O O5 0.870297 0.997548 0.951651
O O6 0.964039 0.994512 0.828098
O O7 0.000000 0.000000 0.000000
O O8 0.924239 0.745718 0.934513
O O9 0.868271 0.626093 0.931851
O O10 0.935319 0.673650 0.090456
O O11 0.689928 0.564297 0.273875
O O12 0.713413 0.448223 0.164755
O O13 0.593327 0.492684 0.203383
O O14 0.749936 0.315215 0.070369
#
# Coordination Sequence:
#
# PCOD9565641 Si02
#       8
#    16  16  16  16  16  16   8   4
#     4  11  19  40  63  98 138 180 218 281 337 408
#     4  12  20  38  65  95 135 166 222 279 339 397
#     4  12  26  46  66 102 134 178 226 294 350 407
#     4  12  22  40  70 101 134 178 231 281 351 414
#     4  12  26  43  71  96 138 179 232 288 350 426
#     4  10  20  35  65  97 137 184 223 269 344 408
#     4  12  22  36  68 105 122 179 220 284 342 408
#     4   8  20  36  60  98 140 192 222 264 340 414
#
# _framework density 19.696000999999999
#
# number of rings (size 3 to 8) (size 9 to 14) (size 15 to 20)
#    0.000    0.593    7.407    0.889    0.000    2.667 
#    0.000    0.000    0.000   27.111    0.000    0.000 
#    0.000    0.000    0.000    0.000    0.000    0.000 
#
# Total GULP energy -601713.034037 kJ/mol
# GULP energy per Si atom -5571.416982 kJ/mol
# Density = 1.965117 g / cm^3
# Si number density = 19.696001 Si / 1000 Ang^3
#
#
#
# Elastic Constant Matrix: (Units=GPa)
#
#
# Indices 1 2 3 4 5 6 
#
# 1 102.3576 28.7596 48.4928 0.0000 0.0000 0.0000
# 2 28.7596 102.3576 48.4928 0.0000 0.0000 0.0000
# 3 48.4928 48.4928 145.1632 0.0000 0.0000 0.0000
# 4 0.0000 0.0000 0.0000 27.8563 0.0000 0.0000
# 5 0.0000 0.0000 0.0000 0.0000 27.8563 0.0000
# 6 0.0000 0.0000 0.0000 0.0000 0.0000 22.8052
#
#
#
# Elastic Compliance Matrix: (Units=1/GPa)
#
#
# Indices 1 2 3 4 5 6 
#
# 1 0.011859 -0.001729 -0.003384 0.000000 0.000000 0.000000
# 2 -0.001729 0.011859 -0.003384 0.000000 0.000000 0.000000
# 3 -0.003384 -0.003384 0.009150 0.000000 0.000000 0.000000
# 4 0.000000 0.000000 0.000000 0.035899 0.000000 0.000000
# 5 0.000000 0.000000 0.000000 0.000000 0.035899 0.000000
# 6 0.000000 0.000000 0.000000 0.000000 0.000000 0.043850
#
#
# Mechanical properties :
#
#
# Convention : Reuss Voigt Hill
#
# Bulk Modulus (GPa) = 62.99794 66.81877 64.90835
# Shear Modulus (GPa) = 29.27433 30.64574 29.96004
#
# Velocity S-wave (km/s) = 3.85945 3.94882 3.90439
# Velocity P-wave (km/s) = 7.20521 7.40200 7.30427
#
# Compressibility (1/GPa) = 0.01587354
#
# Stress axis : x y z
#
# Youngs Moduli (GPa) = 84.32713 84.32713 109.29370
#
# Poissons Ratio (x) = 0.14578 0.36984
# Poissons Ratio (y) = 0.14578 0.36984
# Poissons Ratio (z) = 0.28536 0.28536
#
# Static dielectric constant tensor:
#      x y z
#    x 1.717880 0.000000 0.000000 
#    y 0.000000 1.717880 0.000000 
#    z 0.000000 0.000000 1.714430 
# 
# From -- ./inp_files/2539.got.cif
#   From: 2010.05.17/outbox.cif.g08.bks.cpg/sg130_2_cif.got.tgz:2539.got - 2010.05.20 12:17:35.
