data_PCOD9565988
_publ_section_title
;
Structure prediction by ZEFSAII (Michael W. Deem and Ramdas Pophale) SiO2 
 PCOD9565988
Probable space group: P 4/N C C
;
_chemical_formula_sum "Si O2"
_cell_formula_units_Z 36
_cell_length_a 12.733922
_cell_length_b 12.733922
_cell_length_c 9.689593
_cell_angle_alpha 90.000000
_cell_angle_beta 90.000000
_cell_angle_gamma 90.000000
_cell_volume 1571.194340
_symmetry_space_group_name_H-M "P 4/N C C"
_symmetry_group_IT_number 130
_symmetry_cell_setting 'tetragonal'
loop_
_space_group_symop_operation_xyz
x,y,z
1/2-y,x,z
1/2-x,1/2-y,z
y,1/2-x,z
1/2+x,-y,1/2-z
-x,1/2+y,1/2-z
1/2+y,1/2+x,1/2-z
-y,-x,1/2-z
-x,-y,-z
1/2+y,-x,-z
1/2+x,1/2+y,-z
-y,1/2+x,-z
1/2-x,y,1/2+z
x,1/2-y,1/2+z
1/2-y,1/2-x,1/2+z
y,x,1/2+z
loop_
_atom_site_type_symbol
_atom_site_label
_atom_site_fract_x
_atom_site_fract_y
_atom_site_fract_z
Si Si1 0.420970 0.292640 0.579828
Si Si2 0.780178 0.059853 0.182787
Si Si3 0.250000 0.750000 0.000000
O O1 0.324506 0.372214 0.591189
O O2 0.474676 0.310120 0.432298
O O3 0.504663 0.291940 0.703256
O O4 0.880480 0.119521 0.250000
O O5 0.724377 0.151838 0.095994
#
# Coordination Sequence:
#
# PCOD9565988 Si02
#       3
#    16  16   4
#     4  11  26  50  76 109 151 196 248 310 376 446
#     4  12  25  45  75 105 146 196 244 304 371 437
#     4  12  26  48  66 104 158 188 242 324 374 424
#
# _framework density 22.912507999999999
#
# number of rings (size 3 to 8) (size 9 to 14) (size 15 to 20)
#    0.000    0.444    4.444    3.333    0.000    5.333 
#    8.000    0.000    0.000    0.000    0.000    0.000 
#    0.000    0.000    0.000    0.000    0.000    0.000 
#
# Total GULP energy -201572.864624 kJ/mol
# GULP energy per Si atom -5599.246240 kJ/mol
# Density = 2.286036 g / cm^3
# Si number density = 22.912508 Si / 1000 Ang^3
#
#
#
# Elastic Constant Matrix: (Units=GPa)
#
#
# Indices 1 2 3 4 5 6 
#
# 1 102.9395 30.1001 51.6809 0.0000 0.0000 0.0000
# 2 30.1001 102.9392 51.6813 0.0000 0.0000 0.0000
# 3 51.6809 51.6813 165.4483 0.0000 0.0000 0.0000
# 4 0.0000 0.0000 0.0000 28.8786 0.0000 0.0000
# 5 0.0000 0.0000 0.0000 0.0000 28.8797 0.0000
# 6 0.0000 0.0000 0.0000 0.0000 0.0000 20.0310
#
#
#
# Elastic Compliance Matrix: (Units=1/GPa)
#
#
# Indices 1 2 3 4 5 6 
#
# 1 0.011827 -0.001902 -0.003100 0.000000 0.000000 0.000000
# 2 -0.001902 0.011827 -0.003100 0.000000 0.000000 0.000000
# 3 -0.003100 -0.003100 0.007981 0.000000 0.000000 0.000000
# 4 0.000000 0.000000 0.000000 0.034628 0.000000 0.000000
# 5 0.000000 0.000000 0.000000 0.000000 0.034626 0.000000
# 6 0.000000 0.000000 0.000000 0.000000 0.000000 0.049923
#
#
# Mechanical properties :
#
#
# Convention : Reuss Voigt Hill
#
# Bulk Modulus (GPa) = 64.80763 70.91684 67.86223
# Shear Modulus (GPa) = 29.04268 31.41552 30.22910
#
# Velocity S-wave (km/s) = 3.56413 3.70686 3.63620
# Velocity P-wave (km/s) = 6.72930 7.02421 6.87834
#
# Compressibility (1/GPa) = 0.01543028
#
# Stress axis : x y z
#
# Youngs Moduli (GPa) = 84.55181 84.55133 125.29575
#
# Poissons Ratio (x) = 0.16080 0.38846
# Poissons Ratio (y) = 0.16080 0.38847
# Poissons Ratio (z) = 0.26214 0.26214
#
# Static dielectric constant tensor:
#      x y z
#    x 1.881810 0.000000 0.000000 
#    y 0.000000 1.881810 0.000000 
#    z 0.000000 0.000000 1.853980 
# 
# From -- ./inp_files/332.got.cif
#   From: 2010.05.17/outbox.cif.g08.bks.cpg/sg130_1_cif.got.tgz:332.got - 2010.05.20 12:17:35.
