data_PCOD9565174
_publ_section_title
;
Structure prediction by ZEFSAII (Michael W. Deem and Ramdas Pophale) SiO2 
 PCOD9565174
Probable space group: P 4/N M M
;
_chemical_formula_sum "Si O2"
_cell_formula_units_Z 120
_cell_length_a 27.840965
_cell_length_b 27.840965
_cell_length_c 9.463240
_cell_angle_alpha 90.000000
_cell_angle_beta 90.000000
_cell_angle_gamma 90.000000
_cell_volume 7335.140269
_symmetry_space_group_name_H-M "P 4/N M M"
_symmetry_group_IT_number 129
_symmetry_cell_setting 'tetragonal'
loop_
_space_group_symop_operation_xyz
x,y,z
1/2-y,x,z
1/2-x,1/2-y,z
y,1/2-x,z
1/2+x,-y,-z
-x,1/2+y,-z
1/2+y,1/2+x,-z
-y,-x,-z
-x,-y,-z
1/2+y,-x,-z
1/2+x,1/2+y,-z
-y,1/2+x,-z
1/2-x,y,z
x,1/2-y,z
1/2-y,1/2-x,z
y,x,z
loop_
_atom_site_type_symbol
_atom_site_label
_atom_site_fract_x
_atom_site_fract_y
_atom_site_fract_z
Si Si1 0.031641 0.304558 0.569443
Si Si2 0.093880 0.550426 0.222918
Si Si3 0.614499 0.385502 0.500000
Si Si4 0.570948 0.650660 0.153511
Si Si5 0.629376 0.038695 0.079006
Si Si6 0.195739 0.923080 0.687935
Si Si7 0.115600 0.193931 0.111788
Si Si8 0.449399 0.372485 0.311001
O O1 0.046152 0.250000 0.535846
O O2 0.064441 0.326981 0.692001
O O3 0.032374 0.338522 0.434854
O O4 0.977524 0.303449 0.628758
O O5 0.106960 0.576633 0.370543
O O6 0.047436 0.578373 0.160439
O O7 0.096072 0.493646 0.251802
O O8 0.127938 0.554687 0.084171
O O9 0.665351 0.392857 0.424427
O O10 0.601708 0.601708 0.155195
O O11 0.517228 0.642092 0.094164
O O12 0.598949 0.686682 0.049858
O O13 0.666645 0.071300 0.166305
O O14 0.250000 0.906413 0.707025
O O15 0.116575 0.250000 0.150007
O O16 0.166208 0.166208 0.131957
O O17 0.076527 0.162498 0.198573
O O18 0.408930 0.408930 0.364038
#
# Coordination Sequence:
#
# PCOD9565174 Si02
#       8
#    16  16   8  16  16  16  16  16
#     4  10  19  33  50  71  99 133 171 213 261 309
#     4  10  19  34  50  74 105 147 177 211 255 306
#     4  10  18  34  55  73 114 138 174 216 254 296
#     4  10  19  33  51  75 100 133 175 217 263 313
#     4   9  19  33  51  71 107 143 176 213 254 307
#     4   9  18  32  52  77 102 136 174 210 252 298
#     4  10  21  36  54  75 100 131 171 224 277 327
#     4  11  21  34  50  74 103 134 175 217 261 316
#
# _framework density 16.359605999999999
#
# number of rings (size 3 to 8) (size 9 to 14) (size 15 to 20)
#    0.000    2.133    2.667    1.200    0.000    1.200 
#    0.000    2.333    0.000    0.200    0.000    0.000 
#    0.000    9.600    0.000    0.000    0.000    0.000 
#
# Total GULP energy -668047.479921 kJ/mol
# GULP energy per Si atom -5567.062333 kJ/mol
# Density = 1.632237 g / cm^3
# Si number density = 16.359606 Si / 1000 Ang^3
#
#
#
# Elastic Constant Matrix: (Units=GPa)
#
#
# Indices 1 2 3 4 5 6 
#
# 1 64.3055 34.3443 15.5820 0.0000 0.0000 0.0000
# 2 34.3443 64.3049 15.5817 0.0000 0.0000 0.0000
# 3 15.5820 15.5817 76.8796 0.0000 0.0000 0.0000
# 4 0.0000 0.0000 0.0000 14.8830 0.0000 0.0000
# 5 0.0000 0.0000 0.0000 0.0000 14.8834 0.0000
# 6 0.0000 0.0000 0.0000 0.0000 0.0000 11.0290
#
#
#
# Elastic Compliance Matrix: (Units=1/GPa)
#
#
# Indices 1 2 3 4 5 6 
#
# 1 0.022104 -0.011273 -0.002195 0.000000 0.000000 0.000000
# 2 -0.011273 0.022104 -0.002195 0.000000 0.000000 0.000000
# 3 -0.002195 -0.002195 0.013897 0.000000 0.000000 0.000000
# 4 0.000000 0.000000 0.000000 0.067191 0.000000 0.000000
# 5 0.000000 0.000000 0.000000 0.000000 0.067189 0.000000
# 6 0.000000 0.000000 0.000000 0.000000 0.000000 0.090670
#
#
# Mechanical properties :
#
#
# Convention : Reuss Voigt Hill
#
# Bulk Modulus (GPa) = 37.34479 37.38956 37.36718
# Shear Modulus (GPa) = 15.46040 17.49120 16.47580
#
# Velocity S-wave (km/s) = 3.07748 3.27336 3.17693
# Velocity P-wave (km/s) = 5.95859 6.09844 6.02892
#
# Compressibility (1/GPa) = 0.02677750
#
# Stress axis : x y z
#
# Youngs Moduli (GPa) = 45.24168 45.24129 71.95725
#
# Poissons Ratio (x) = 0.51002 0.15795
# Poissons Ratio (y) = 0.51002 0.15795
# Poissons Ratio (z) = 0.09931 0.09931
#
# Static dielectric constant tensor:
#      x y z
#    x 1.546480 0.000000 0.000000 
#    y 0.000000 1.546480 0.000000 
#    z 0.000000 0.000000 1.563040 
# 
# From -- ./inp_files/2896.got.cif
#   From: 2010.05.17/outbox.cif.g08.bks.cpg/sg129_2_cif.got.tgz:2896.got - 2010.05.20 12:12:06.
