data_PCOD9565764
_publ_section_title
;
Structure prediction by ZEFSAII (Michael W. Deem and Ramdas Pophale) SiO2 
 PCOD9565764
Probable space group: P 4/N C C
;
_chemical_formula_sum "Si O2"
_cell_formula_units_Z 128
_cell_length_a 18.137289
_cell_length_b 18.137289
_cell_length_c 23.743947
_cell_angle_alpha 90.000000
_cell_angle_beta 90.000000
_cell_angle_gamma 90.000000
_cell_volume 7810.838539
_symmetry_space_group_name_H-M "P 4/N C C"
_symmetry_group_IT_number 130
_symmetry_cell_setting 'tetragonal'
loop_
_space_group_symop_operation_xyz
x,y,z
1/2-y,x,z
1/2-x,1/2-y,z
y,1/2-x,z
1/2+x,-y,1/2-z
-x,1/2+y,1/2-z
1/2+y,1/2+x,1/2-z
-y,-x,1/2-z
-x,-y,-z
1/2+y,-x,-z
1/2+x,1/2+y,-z
-y,1/2+x,-z
1/2-x,y,1/2+z
x,1/2-y,1/2+z
1/2-y,1/2-x,1/2+z
y,x,1/2+z
loop_
_atom_site_type_symbol
_atom_site_label
_atom_site_fract_x
_atom_site_fract_y
_atom_site_fract_z
Si Si1 0.180350 0.446728 0.002892
Si Si2 0.007720 0.389554 0.765594
Si Si3 0.921463 0.018453 0.662851
Si Si4 0.774081 0.629893 0.108593
Si Si5 0.561933 0.452432 0.531439
Si Si6 0.025303 0.223585 0.787498
Si Si7 0.161101 0.056684 0.054380
Si Si8 0.124469 0.053959 0.184798
O O1 0.209638 0.428052 0.940427
O O2 0.137094 0.524890 0.000421
O O3 0.252406 0.442561 0.041572
O O4 0.120711 0.384574 0.021775
O O5 0.048140 0.440851 0.812429
O O6 0.995752 0.306320 0.784561
O O7 0.064496 0.391350 0.712780
O O8 0.933648 0.433648 0.750000
O O9 0.927463 0.020482 0.595661
O O10 0.975736 0.081414 0.685685
O O11 0.838871 0.027420 0.685681
O O12 0.833526 0.694452 0.101950
O O13 0.777418 0.594019 0.169814
O O14 0.500000 0.500000 0.500000
O O15 0.523162 0.372708 0.536126
O O16 0.048725 0.193627 0.726386
O O17 0.144835 0.068748 0.120506
#
# Coordination Sequence:
#
# PCOD9565764 Si02
#       8
#    16  16  16  16  16  16  16  16
#     4  11  20  35  56  79 110 144 185 227 274 326
#     4   9  19  33  53  79 106 134 180 228 272 316
#     4   9  17  35  53  74 105 144 174 223 269 324
#     4  11  21  32  48  76 112 141 173 216 274 337
#     4   9  19  35  55  80 106 141 192 227 266 324
#     4  11  19  30  56  77 103 139 177 223 270 323
#     4  10  22  35  57  78 110 149 181 229 275 332
#     4   9  20  36  51  73 108 143 184 213 268 324
#
# _framework density 16.387485000000002
#
# number of rings (size 3 to 8) (size 9 to 14) (size 15 to 20)
#    0.000    2.125    2.500    2.625    1.750    0.250 
#    0.000    0.000    0.000    1.875    0.000    3.500 
#    0.000    0.000    0.000    0.000    0.000    0.000 
#
# Total GULP energy -712963.606653 kJ/mol
# GULP energy per Si atom -5570.028177 kJ/mol
# Density = 1.635019 g / cm^3
# Si number density = 16.387485 Si / 1000 Ang^3
#
#
#
# Elastic Constant Matrix: (Units=GPa)
#
#
# Indices 1 2 3 4 5 6 
#
# 1 86.2153 40.0040 28.7706 0.0000 0.0000 0.0000
# 2 40.0040 86.2153 28.7706 0.0000 0.0000 0.0000
# 3 28.7706 28.7706 68.2356 0.0000 0.0000 0.0000
# 4 0.0000 0.0000 0.0000 23.0815 0.0000 0.0000
# 5 0.0000 0.0000 0.0000 0.0000 23.0815 0.0000
# 6 0.0000 0.0000 0.0000 0.0000 0.0000 -10.9905
#
#
#
# Elastic Compliance Matrix: (Units=1/GPa)
#
#
# Indices 1 2 3 4 5 6 
#
# 1 0.015724 -0.005916 -0.004135 0.000000 0.000000 0.000000
# 2 -0.005916 0.015724 -0.004135 0.000000 0.000000 0.000000
# 3 -0.004135 -0.004135 0.018142 0.000000 0.000000 0.000000
# 4 0.000000 0.000000 0.000000 0.043325 0.000000 0.000000
# 5 0.000000 0.000000 0.000000 0.000000 0.043325 0.000000
# 6 0.000000 0.000000 0.000000 0.000000 0.000000 -0.090988
#
#
# Mechanical properties :
#
#
# Convention : Reuss Voigt Hill
#
# Bulk Modulus (GPa) = 47.13261 48.41740 47.77501
# Shear Modulus (GPa) = 61.95983 16.57591 39.26787
#
# Velocity S-wave (km/s) = 6.15559 3.18386 4.90042
# Velocity P-wave (km/s) = 8.90761 6.56699 7.82531
#
# Compressibility (1/GPa) = 0.02121673
#
# Stress axis : x y z
#
# Youngs Moduli (GPa) = 63.59768 63.59768 55.11958
#
# Poissons Ratio (x) = 0.37624 0.22794
# Poissons Ratio (y) = 0.37624 0.22794
# Poissons Ratio (z) = 0.26300 0.26300
#
# Static dielectric constant tensor:
#      x y z
#    x 1.555830 0.000000 0.000000 
#    y 0.000000 1.555830 0.000000 
#    z 0.000000 0.000000 1.580970 
# 
# From -- ./inp_files/4398.got.cif
#   From: 2010.05.17/outbox.cif.g08.bks.cpg/sg130_3_cif.got.tgz:4398.got - 2010.05.20 12:17:35.
