data_PCOD9565830
_publ_section_title
;
Structure prediction by ZEFSAII (Michael W. Deem and Ramdas Pophale) SiO2 
 PCOD9565830
Probable space group: P 4/N C C
;
_chemical_formula_sum "Si O2"
_cell_formula_units_Z 100
_cell_length_a 14.403200
_cell_length_b 14.403200
_cell_length_c 27.203871
_cell_angle_alpha 90.000000
_cell_angle_beta 90.000000
_cell_angle_gamma 90.000000
_cell_volume 5643.502078
_symmetry_space_group_name_H-M "P 4/N C C"
_symmetry_group_IT_number 130
_symmetry_cell_setting 'tetragonal'
loop_
_space_group_symop_operation_xyz
x,y,z
1/2-y,x,z
1/2-x,1/2-y,z
y,1/2-x,z
1/2+x,-y,1/2-z
-x,1/2+y,1/2-z
1/2+y,1/2+x,1/2-z
-y,-x,1/2-z
-x,-y,-z
1/2+y,-x,-z
1/2+x,1/2+y,-z
-y,1/2+x,-z
1/2-x,y,1/2+z
x,1/2-y,1/2+z
1/2-y,1/2-x,1/2+z
y,x,1/2+z
loop_
_atom_site_type_symbol
_atom_site_label
_atom_site_fract_x
_atom_site_fract_y
_atom_site_fract_z
Si Si1 0.608129 0.804535 0.968209
Si Si2 0.896567 0.795063 0.585790
Si Si3 0.125741 0.844354 0.000602
Si Si4 0.086487 0.564905 0.397001
Si Si5 0.250000 0.750000 0.750000
Si Si6 0.854977 0.249692 0.154148
Si Si7 0.049956 0.595000 0.907521
O O1 0.634094 0.698740 0.956871
O O2 0.525096 0.843774 0.936876
O O3 0.592014 0.806107 0.026761
O O4 0.808846 0.862267 0.597854
O O5 0.992924 0.828197 0.608912
O O6 0.086106 0.895885 0.952921
O O7 0.233887 0.873021 0.006073
O O8 0.072692 0.874256 0.050050
O O9 0.096908 0.655221 0.363289
O O10 0.995372 0.503169 0.389073
O O11 0.163828 0.749233 0.787569
O O12 0.750000 0.250000 0.131582
O O13 0.905613 0.340219 0.133829
#
# Coordination Sequence:
#
# PCOD9565830 Si02
#       7
#    16  16  16  16   4  16  16
#     4   9  18  31  44  67 115 168 201 228 271 331
#     4   9  20  33  47  74 121 172 208 238 280 336
#     4  11  23  35  50  82 130 178 206 241 281 344
#     4  12  23  33  60  89 122 162 206 249 290 361
#     4   8  24  48  76  74 116 156 180 276 340 374
#     4  10  23  46  64  86 110 155 199 247 326 369
#     4  12  22  32  55  89 121 154 203 250 287 352
#
# _framework density 17.719494999999998
#
# number of rings (size 3 to 8) (size 9 to 14) (size 15 to 20)
#    0.480    1.120    3.200    3.360    4.480    0.000 
#    0.000    0.800    0.000    0.000    0.000    0.000 
#    0.000    0.000    0.000    0.000    0.000    0.000 
#
# Total GULP energy -558592.988660 kJ/mol
# GULP energy per Si atom -5585.929887 kJ/mol
# Density = 1.767916 g / cm^3
# Si number density = 17.719495 Si / 1000 Ang^3
#
#
#
# Elastic Constant Matrix: (Units=GPa)
#
#
# Indices 1 2 3 4 5 6 
#
# 1 77.2195 47.8011 28.8605 0.0000 0.0000 0.0000
# 2 47.8011 77.2195 28.8605 0.0000 0.0000 0.0000
# 3 28.8605 28.8605 71.0609 0.0000 0.0000 0.0000
# 4 0.0000 0.0000 0.0000 9.9938 0.0000 0.0000
# 5 0.0000 0.0000 0.0000 0.0000 9.9938 0.0000
# 6 0.0000 0.0000 0.0000 0.0000 0.0000 38.1652
#
#
#
# Elastic Compliance Matrix: (Units=1/GPa)
#
#
# Indices 1 2 3 4 5 6 
#
# 1 0.021918 -0.012074 -0.003998 0.000000 0.000000 0.000000
# 2 -0.012074 0.021918 -0.003998 0.000000 0.000000 0.000000
# 3 -0.003998 -0.003998 0.017320 0.000000 0.000000 0.000000
# 4 0.000000 0.000000 0.000000 0.100062 0.000000 0.000000
# 5 0.000000 0.000000 0.000000 0.000000 0.100062 0.000000
# 6 0.000000 0.000000 0.000000 0.000000 0.000000 0.026202
#
#
# Mechanical properties :
#
#
# Convention : Reuss Voigt Hill
#
# Bulk Modulus (GPa) = 47.58205 48.50488 48.04346
# Shear Modulus (GPa) = 14.94188 19.62907 17.28548
#
# Velocity S-wave (km/s) = 2.90702 3.33192 3.12670
# Velocity P-wave (km/s) = 6.17891 6.49888 6.34091
#
# Compressibility (1/GPa) = 0.02101633
#
# Stress axis : x y z
#
# Youngs Moduli (GPa) = 45.62356 45.62356 57.73624
#
# Poissons Ratio (x) = 0.55085 0.23085
# Poissons Ratio (y) = 0.55085 0.23085
# Poissons Ratio (z) = 0.18242 0.18242
#
# Static dielectric constant tensor:
#      x y z
#    x 1.649840 0.000000 0.000000 
#    y 0.000000 1.649840 0.000000 
#    z 0.000000 0.000000 1.562910 
# 
# From -- ./inp_files/4580.got.cif
#   From: 2010.05.17/outbox.cif.g08.bks.cpg/sg130_3_cif.got.tgz:4580.got - 2010.05.20 12:17:35.
