data_PCOD9565929
_publ_section_title
;
Structure prediction by ZEFSAII (Michael W. Deem and Ramdas Pophale) SiO2 
 PCOD9565929
Probable space group: P 4/N C C
;
_chemical_formula_sum "Si O2"
_cell_formula_units_Z 84
_cell_length_a 11.814207
_cell_length_b 11.814207
_cell_length_c 29.803433
_cell_angle_alpha 90.000000
_cell_angle_beta 90.000000
_cell_angle_gamma 90.000000
_cell_volume 4159.828676
_symmetry_space_group_name_H-M "P 4/N C C"
_symmetry_group_IT_number 130
_symmetry_cell_setting 'tetragonal'
loop_
_space_group_symop_operation_xyz
x,y,z
1/2-y,x,z
1/2-x,1/2-y,z
y,1/2-x,z
1/2+x,-y,1/2-z
-x,1/2+y,1/2-z
1/2+y,1/2+x,1/2-z
-y,-x,1/2-z
-x,-y,-z
1/2+y,-x,-z
1/2+x,1/2+y,-z
-y,1/2+x,-z
1/2-x,y,1/2+z
x,1/2-y,1/2+z
1/2-y,1/2-x,1/2+z
y,x,1/2+z
loop_
_atom_site_type_symbol
_atom_site_label
_atom_site_fract_x
_atom_site_fract_y
_atom_site_fract_z
Si Si1 0.250000 0.250000 0.026561
Si Si2 0.632035 0.993462 0.987941
Si Si3 0.680892 0.362851 0.160546
Si Si4 0.293849 0.428726 0.667104
Si Si5 0.290492 0.070430 0.275479
Si Si6 0.880129 0.283903 0.937263
O O1 0.324816 0.130679 0.024434
O O2 0.712069 0.043858 0.028018
O O3 0.500000 0.000000 0.000000
O O4 0.629994 0.084025 0.948225
O O5 0.750000 0.250000 0.172448
O O6 0.552217 0.325957 0.151154
O O7 0.685441 0.454025 0.199926
O O8 0.731858 0.414041 0.114550
O O9 0.169962 0.382119 0.653685
O O10 0.293536 0.436718 0.721515
O O11 0.381333 0.166892 0.288113
O O12 0.750000 0.250000 0.942060
#
# Coordination Sequence:
#
# PCOD9565929 Si02
#       6
#     4  16  16  16  16  16
#     4  12  24  40  68 108 112 164 238 252 328 420
#     4  12  22  43  70  94 128 168 218 270 324 402
#     4  11  25  38  61  98 124 162 215 263 319 379
#     4   9  20  42  64  87 126 172 212 259 319 377
#     4   9  20  40  63  88 126 170 207 258 323 378
#     4  11  22  44  65  87 131 173 201 266 341 374
#
# _framework density 20.193138000000001
#
# number of rings (size 3 to 8) (size 9 to 14) (size 15 to 20)
#    0.000    1.524    3.810    1.714    2.667    3.048 
#    6.857    0.000    0.000    0.000    0.000    0.000 
#    0.000    0.000    0.000    0.000    0.000    0.000 
#
# Total GULP energy -467788.632337 kJ/mol
# GULP energy per Si atom -5568.912290 kJ/mol
# Density = 2.014718 g / cm^3
# Si number density = 20.193138 Si / 1000 Ang^3
#
#
#
# Elastic Constant Matrix: (Units=GPa)
#
#
# Indices 1 2 3 4 5 6 
#
# 1 108.8745 57.7213 15.3368 0.0000 0.0000 0.0000
# 2 57.7213 108.8745 15.3368 0.0000 0.0000 0.0000
# 3 15.3368 15.3368 29.9513 0.0000 0.0000 0.0000
# 4 0.0000 0.0000 0.0000 -53.4481 0.0000 0.0000
# 5 0.0000 0.0000 0.0000 0.0000 -53.4481 0.0000
# 6 0.0000 0.0000 0.0000 0.0000 0.0000 27.0308
#
#
#
# Elastic Compliance Matrix: (Units=1/GPa)
#
#
# Indices 1 2 3 4 5 6 
#
# 1 0.013088 -0.006461 -0.003394 0.000000 0.000000 0.000000
# 2 -0.006461 0.013088 -0.003394 0.000000 0.000000 0.000000
# 3 -0.003394 -0.003394 0.036863 0.000000 0.000000 0.000000
# 4 0.000000 0.000000 0.000000 -0.018710 0.000000 0.000000
# 5 0.000000 0.000000 0.000000 0.000000 -0.018710 0.000000
# 6 0.000000 0.000000 0.000000 0.000000 0.000000 0.036995
#
#
# Mechanical properties :
#
#
# Convention : Reuss Voigt Hill
#
# Bulk Modulus (GPa) = 27.36479 47.16555 37.26517
# Shear Modulus (GPa) = 49.36223 -5.35271 22.00476
#
# Velocity S-wave (km/s) = 4.94956 -1.62988 3.30466
# Velocity P-wave (km/s) = 6.80038 4.45712 5.74939
#
# Compressibility (1/GPa) = 0.03654331
#
# Stress axis : x y z
#
# Youngs Moduli (GPa) = 76.40442 76.40442 27.12751
#
# Poissons Ratio (x) = 0.49364 0.09206
# Poissons Ratio (y) = 0.49364 0.09206
# Poissons Ratio (z) = 0.25929 0.25929
#
# Static dielectric constant tensor:
#      x y z
#    x 1.725000 0.000000 0.000000 
#    y 0.000000 1.725000 0.000000 
#    z 0.000000 0.000000 1.721520 
# 
# From -- ./inp_files/4872.got.cif
#   From: 2010.05.17/outbox.cif.g08.bks.cpg/sg130_3_cif.got.tgz:4872.got - 2010.05.20 12:17:35.
