data_PCOD9565284
_publ_section_title
;
Structure prediction by ZEFSAII (Michael W. Deem and Ramdas Pophale) SiO2 
 PCOD9565284
Probable space group: P 4/N M M
;
_chemical_formula_sum "Si O2"
_cell_formula_units_Z 80
_cell_length_a 19.315915
_cell_length_b 19.315915
_cell_length_c 12.675016
_cell_angle_alpha 90.000000
_cell_angle_beta 90.000000
_cell_angle_gamma 90.000000
_cell_volume 4729.106423
_symmetry_space_group_name_H-M "P 4/N M M"
_symmetry_group_IT_number 129
_symmetry_cell_setting 'tetragonal'
loop_
_space_group_symop_operation_xyz
x,y,z
1/2-y,x,z
1/2-x,1/2-y,z
y,1/2-x,z
1/2+x,-y,-z
-x,1/2+y,-z
1/2+y,1/2+x,-z
-y,-x,-z
-x,-y,-z
1/2+y,-x,-z
1/2+x,1/2+y,-z
-y,1/2+x,-z
1/2-x,y,z
x,1/2-y,z
1/2-y,1/2-x,z
y,x,z
loop_
_atom_site_type_symbol
_atom_site_label
_atom_site_fract_x
_atom_site_fract_y
_atom_site_fract_z
Si Si1 0.942428 0.829519 0.006203
Si Si2 0.443797 0.331255 0.347765
Si Si3 0.328356 0.965201 0.793074
Si Si4 0.670229 0.555560 0.407777
Si Si5 0.911197 0.024942 0.832043
O O1 0.936067 0.750000 0.972422
O O2 0.871512 0.871512 0.996215
O O3 0.970540 0.830787 0.125414
O O4 0.997856 0.869712 0.933692
O O5 0.439487 0.250000 0.323894
O O6 0.369997 0.369997 0.336859
O O7 0.465577 0.339505 0.470127
O O8 0.494928 0.370404 0.268726
O O9 0.250000 0.936046 0.800650
O O10 0.392953 0.918058 0.824678
O O11 0.339869 0.994300 0.675605
O O12 0.750000 0.579214 0.397012
O O13 0.616812 0.616812 0.384828
O O14 0.986313 0.986313 0.834390
#
# Coordination Sequence:
#
# PCOD9565284 Si02
#       5
#    16  16  16  16  16
#     4  10  20  33  51  75 101 129 159 192 234 285
#     4   9  18  31  48  72 100 130 162 196 237 285
#     4  10  20  33  49  70  96 125 161 204 243 281
#     4   9  17  29  45  68  98 128 159 195 236 285
#     4  10  19  32  51  72  96 128 164 200 240 284
#
# _framework density 16.916516000000001
#
# number of rings (size 3 to 8) (size 9 to 14) (size 15 to 20)
#    0.000    2.400    0.000    3.000    0.000    3.000 
#    0.000    5.000    0.000    9.600    0.000    5.600 
#    0.000    9.600    0.000    0.200    0.000    0.000 
#
# Total GULP energy -446056.019560 kJ/mol
# GULP energy per Si atom -5575.700245 kJ/mol
# Density = 1.687801 g / cm^3
# Si number density = 16.916516 Si / 1000 Ang^3
#
#
#
# Elastic Constant Matrix: (Units=GPa)
#
#
# Indices 1 2 3 4 5 6 
#
# 1 81.6912 31.2021 18.8393 0.0000 0.0000 0.0000
# 2 31.2021 81.6912 18.8393 0.0000 0.0000 0.0000
# 3 18.8393 18.8393 52.0107 0.0000 0.0000 0.0000
# 4 0.0000 0.0000 0.0000 17.6705 0.0000 0.0000
# 5 0.0000 0.0000 0.0000 0.0000 17.6705 0.0000
# 6 0.0000 0.0000 0.0000 0.0000 0.0000 -52.1368
#
#
#
# Elastic Compliance Matrix: (Units=1/GPa)
#
#
# Indices 1 2 3 4 5 6 
#
# 1 0.014941 -0.004865 -0.003650 0.000000 0.000000 0.000000
# 2 -0.004865 0.014941 -0.003650 0.000000 0.000000 0.000000
# 3 -0.003650 -0.003650 0.021871 0.000000 0.000000 0.000000
# 4 0.000000 0.000000 0.000000 0.056592 0.000000 0.000000
# 5 0.000000 0.000000 0.000000 0.000000 0.056592 0.000000
# 6 0.000000 0.000000 0.000000 0.000000 0.000000 -0.019180
#
#
# Mechanical properties :
#
#
# Convention : Reuss Voigt Hill
#
# Bulk Modulus (GPa) = 36.46447 39.23937 37.85192
# Shear Modulus (GPa) = 27.89767 6.40832 17.15300
#
# Velocity S-wave (km/s) = 4.06536 1.94844 3.18776
# Velocity P-wave (km/s) = 6.60595 5.32054 5.99778
#
# Compressibility (1/GPa) = 0.02742396
#
# Stress axis : x y z
#
# Youngs Moduli (GPa) = 66.92932 66.92932 45.72303
#
# Poissons Ratio (x) = 0.32562 0.16688
# Poissons Ratio (y) = 0.32562 0.16688
# Poissons Ratio (z) = 0.24427 0.24427
#
# Static dielectric constant tensor:
#      x y z
#    x 1.553770 0.000000 0.000000 
#    y 0.000000 1.553770 0.000000 
#    z 0.000000 0.000000 1.598270 
# 
# From -- ./inp_files/4590.got.cif
#   From: 2010.05.17/outbox.cif.g08.bks.cpg/sg129_3_cif.got.tgz:4590.got - 2010.05.20 12:12:06.
