data_PCOD9565483
_publ_section_title
;
Structure prediction by ZEFSAII (Michael W. Deem and Ramdas Pophale) SiO2 
 PCOD9565483
Probable space group: P 4/N M M
;
_chemical_formula_sum "Si O2"
_cell_formula_units_Z 96
_cell_length_a 30.267848
_cell_length_b 30.267848
_cell_length_c 5.330366
_cell_angle_alpha 90.000000
_cell_angle_beta 90.000000
_cell_angle_gamma 90.000000
_cell_volume 4883.375486
_symmetry_space_group_name_H-M "P 4/N M M"
_symmetry_group_IT_number 129
_symmetry_cell_setting 'tetragonal'
loop_
_space_group_symop_operation_xyz
x,y,z
1/2-y,x,z
1/2-x,1/2-y,z
y,1/2-x,z
1/2+x,-y,-z
-x,1/2+y,-z
1/2+y,1/2+x,-z
-y,-x,-z
-x,-y,-z
1/2+y,-x,-z
1/2+x,1/2+y,-z
-y,1/2+x,-z
1/2-x,y,z
x,1/2-y,z
1/2-y,1/2-x,z
y,x,z
loop_
_atom_site_type_symbol
_atom_site_label
_atom_site_fract_x
_atom_site_fract_y
_atom_site_fract_z
Si Si1 0.158898 0.158898 0.460454
Si Si2 0.060393 0.370335 0.809529
Si Si3 0.699656 0.500587 0.487759
Si Si4 0.630136 0.063457 0.449579
Si Si5 0.698370 0.698370 0.044506
Si Si6 0.918923 0.698901 0.805296
Si Si7 0.089325 0.977404 0.050493
O O1 0.175774 0.175774 0.721779
O O2 0.109019 0.176389 0.417903
O O3 0.182741 0.182741 0.226247
O O4 0.094165 0.405836 0.689129
O O5 0.027095 0.338550 0.659562
O O6 0.027766 0.398961 0.989112
O O7 0.087769 0.335352 0.973116
O O8 0.750000 0.503765 0.388947
O O9 0.680527 0.451308 0.495695
O O10 0.699950 0.528732 0.744660
O O11 0.612942 0.112942 0.500000
O O12 0.615948 0.050312 0.165968
O O13 0.603831 0.035391 0.666757
O O14 0.750000 0.690143 0.065913
O O15 0.905759 0.750000 0.843927
O O16 0.039534 0.960467 0.000000
#
# Coordination Sequence:
#
# PCOD9565483 Si02
#       7
#     8  16  16  16   8  16  16
#     4  12  26  41  58  82 102 133 170 219 278 331
#     4  11  22  36  54  78 109 144 187 230 276 334
#     4  10  22  38  56  80 112 148 187 230 282 334
#     4   9  17  34  58  82 111 145 184 227 272 324
#     4  11  24  44  64  80  98 123 164 221 286 351
#     4  11  23  37  55  77 104 138 178 227 277 333
#     4   9  18  34  55  80 111 145 181 224 269 321
#
# _framework density 19.658534
#
# number of rings (size 3 to 8) (size 9 to 14) (size 15 to 20)
#    0.000    1.750    2.500    2.000    3.500    1.000 
#    0.000    0.000    0.000    5.500    0.000    0.000 
#    0.000    0.333    0.000    0.000    0.000   21.833 
#
# Total GULP energy -534868.534886 kJ/mol
# GULP energy per Si atom -5571.547238 kJ/mol
# Density = 1.961379 g / cm^3
# Si number density = 19.658534 Si / 1000 Ang^3
#
#
#
# Elastic Constant Matrix: (Units=GPa)
#
#
# Indices 1 2 3 4 5 6 
#
# 1 74.2202 58.1026 13.6884 0.0000 0.0000 0.0000
# 2 58.1026 74.2180 13.6880 0.0000 0.0000 0.0000
# 3 13.6884 13.6880 77.9584 0.0000 0.0000 0.0000
# 4 0.0000 0.0000 0.0000 20.9613 0.0000 0.0000
# 5 0.0000 0.0000 0.0000 0.0000 20.9614 0.0000
# 6 0.0000 0.0000 0.0000 0.0000 0.0000 32.9144
#
#
#
# Elastic Compliance Matrix: (Units=1/GPa)
#
#
# Indices 1 2 3 4 5 6 
#
# 1 0.034945 -0.027103 -0.001377 0.000000 0.000000 0.000000
# 2 -0.027103 0.034946 -0.001377 0.000000 0.000000 0.000000
# 3 -0.001377 -0.001377 0.013311 0.000000 0.000000 0.000000
# 4 0.000000 0.000000 0.000000 0.047707 0.000000 0.000000
# 5 0.000000 0.000000 0.000000 0.000000 0.047707 0.000000
# 6 0.000000 0.000000 0.000000 0.000000 0.000000 0.030382
#
#
# Mechanical properties :
#
#
# Convention : Reuss Voigt Hill
#
# Bulk Modulus (GPa) = 42.57586 44.15051 43.36319
# Shear Modulus (GPa) = 18.08058 24.36193 21.22125
#
# Velocity S-wave (km/s) = 3.03600 3.52412 3.28913
# Velocity P-wave (km/s) = 5.83047 6.25034 6.04405
#
# Compressibility (1/GPa) = 0.02348749
#
# Stress axis : x y z
#
# Youngs Moduli (GPa) = 28.61664 28.61581 75.12643
#
# Poissons Ratio (x) = 0.77557 0.10345
# Poissons Ratio (y) = 0.77560 0.10344
# Poissons Ratio (z) = 0.03941 0.03940
#
# Static dielectric constant tensor:
#      x y z
#    x 1.756340 0.000000 0.000000 
#    y 0.000000 1.756340 0.000000 
#    z 0.000000 0.000000 1.760150 
# 
# From -- ./inp_files/1127.got.cif
#   From: 2010.05.17/outbox.cif.g08.bks.cpg/sg129_1_cif.got.tgz:1127.got - 2010.05.20 12:12:06.
