data_PCOD9565067
_publ_section_title
;
Structure prediction by ZEFSAII (Michael W. Deem and Ramdas Pophale) SiO2 
 PCOD9565067
Probable space group: P 4/M N C
;
_chemical_formula_sum "Si O2"
_cell_formula_units_Z 72
_cell_length_a 11.373326
_cell_length_b 11.373326
_cell_length_c 30.990586
_cell_angle_alpha 90.000000
_cell_angle_beta 90.000000
_cell_angle_gamma 90.000000
_cell_volume 4008.711149
_symmetry_space_group_name_H-M "P 4/M N C"
_symmetry_group_IT_number 128
_symmetry_cell_setting 'tetragonal'
loop_
_space_group_symop_operation_xyz
x,y,z
-y,x,z
-x,-y,z
y,-x,z
1/2+x,1/2-y,1/2-z
1/2-x,1/2+y,1/2-z
1/2+y,1/2+x,1/2-z
1/2-y,1/2-x,1/2-z
-x,-y,-z
y,-x,-z
x,y,-z
-y,x,-z
1/2-x,1/2+y,1/2+z
1/2+x,1/2-y,1/2+z
1/2-y,1/2-x,1/2+z
1/2+y,1/2+x,1/2+z
loop_
_atom_site_type_symbol
_atom_site_label
_atom_site_fract_x
_atom_site_fract_y
_atom_site_fract_z
Si Si1 0.816225 0.944527 0.338573
Si Si2 0.685748 0.451301 0.734618
Si Si3 0.698015 0.516387 0.500000
Si Si4 0.438130 0.123038 0.664282
Si Si5 0.515777 0.300992 0.404881
O O1 0.803761 0.946549 0.286271
O O2 0.690644 0.903353 0.355236
O O3 0.923775 0.858065 0.350214
O O4 0.638693 0.581352 0.722980
O O5 0.800853 0.425467 0.707643
O O6 0.602538 0.621030 0.500000
O O7 0.755421 0.521005 0.452900
O O8 0.512604 0.202546 0.631420
O O9 0.500000 0.000000 0.673389
O O10 0.620917 0.396103 0.400670
#
# Coordination Sequence:
#
# PCOD9565067 Si02
#       5
#    16  16   8  16  16
#     4   9  21  39  53  66  94 141 181 212 253 300
#     4   9  19  37  56  71  93 130 175 223 271 302
#     4   7  12  28  55  82 102 129 164 198 250 315
#     4  12  24  31  48  81 107 131 168 213 256 305
#     4   9  18  34  57  81 107 134 163 206 260 308
#
# _framework density 17.960884
#
# number of rings (size 3 to 8) (size 9 to 14) (size 15 to 20)
#    0.000    2.556    0.000    4.667    6.222    3.556 
#    0.000    0.556    0.000    0.000    0.000    0.000 
#    0.000    1.778    0.000    0.000    0.000    0.000 
#
# Total GULP energy -401511.754440 kJ/mol
# GULP energy per Si atom -5576.552145 kJ/mol
# Density = 1.792000 g / cm^3
# Si number density = 17.960884 Si / 1000 Ang^3
#
#
#
# Elastic Constant Matrix: (Units=GPa)
#
#
# Indices 1 2 3 4 5 6 
#
# 1 56.3194 10.9017 -7.8428 0.0000 0.0000 0.0000
# 2 10.9017 56.3194 -7.8428 0.0000 0.0000 0.0000
# 3 -7.8428 -7.8428 28.5334 0.0000 0.0000 0.0000
# 4 0.0000 0.0000 0.0000 7.1898 0.0000 0.0000
# 5 0.0000 0.0000 0.0000 0.0000 7.1898 0.0000
# 6 0.0000 0.0000 0.0000 0.0000 0.0000 7.7627
#
#
#
# Elastic Compliance Matrix: (Units=1/GPa)
#
#
# Indices 1 2 3 4 5 6 
#
# 1 0.018957 -0.003061 0.004369 0.000000 0.000000 0.000000
# 2 -0.003061 0.018957 0.004369 0.000000 0.000000 0.000000
# 3 0.004369 0.004369 0.037449 0.000000 0.000000 0.000000
# 4 0.000000 0.000000 0.000000 0.139085 0.000000 0.000000
# 5 0.000000 0.000000 0.000000 0.000000 0.139085 0.000000
# 6 0.000000 0.000000 0.000000 0.000000 0.000000 0.128822
#
#
# Mechanical properties :
#
#
# Convention : Reuss Voigt Hill
#
# Bulk Modulus (GPa) = 11.53180 14.62273 13.07726
# Shear Modulus (GPa) = 10.00190 14.15887 12.08039
#
# Velocity S-wave (km/s) = 2.36237 2.81074 2.59626
# Velocity P-wave (km/s) = 3.72498 4.32352 4.03536
#
# Compressibility (1/GPa) = 0.08671676
#
# Stress axis : x y z
#
# Youngs Moduli (GPa) = 52.75145 52.75145 26.70333
#
# Poissons Ratio (x) = 0.16147 -0.11667
# Poissons Ratio (y) = 0.16147 -0.11667
# Poissons Ratio (z) = -0.23048 -0.23048
#
# Static dielectric constant tensor:
#      x y z
#    x 1.623180 0.000000 0.000000 
#    y 0.000000 1.623180 0.000000 
#    z 0.000000 0.000000 1.646460 
# 
# From -- ./inp_files/7108.got.cif
#   From: 2010.05.17/outbox.cif.g08.bks.cpg/sg128_4_cif.got.tgz:7108.got - 2010.05.20 12:07:25.
