data_PCOD9565880
_publ_section_title
;
Structure prediction by ZEFSAII (Michael W. Deem and Ramdas Pophale) SiO2 
 PCOD9565880
Probable space group: P 4/N C C
;
_chemical_formula_sum "Si O2"
_cell_formula_units_Z 96
_cell_length_a 19.457208
_cell_length_b 19.457208
_cell_length_c 13.048374
_cell_angle_alpha 90.000000
_cell_angle_beta 90.000000
_cell_angle_gamma 90.000000
_cell_volume 4939.891832
_symmetry_space_group_name_H-M "P 4/N C C"
_symmetry_group_IT_number 130
_symmetry_cell_setting 'tetragonal'
loop_
_space_group_symop_operation_xyz
x,y,z
1/2-y,x,z
1/2-x,1/2-y,z
y,1/2-x,z
1/2+x,-y,1/2-z
-x,1/2+y,1/2-z
1/2+y,1/2+x,1/2-z
-y,-x,1/2-z
-x,-y,-z
1/2+y,-x,-z
1/2+x,1/2+y,-z
-y,1/2+x,-z
1/2-x,y,1/2+z
x,1/2-y,1/2+z
1/2-y,1/2-x,1/2+z
y,x,1/2+z
loop_
_atom_site_type_symbol
_atom_site_label
_atom_site_fract_x
_atom_site_fract_y
_atom_site_fract_z
Si Si1 0.374779 0.011828 0.472860
Si Si2 0.886482 0.437304 0.846171
Si Si3 0.270402 0.010425 0.050998
Si Si4 0.258824 0.362386 0.198778
Si Si5 0.930971 0.533594 0.300069
Si Si6 0.405907 0.157129 0.374001
O O1 0.297858 0.986954 0.493415
O O2 0.371848 0.085910 0.415235
O O3 0.416529 0.952087 0.415082
O O4 0.409009 0.022417 0.583765
O O5 0.886390 0.386390 0.750000
O O6 0.815360 0.448920 0.902993
O O7 0.905502 0.512878 0.801996
O O8 0.247790 0.066787 0.136591
O O9 0.317162 0.049467 0.968294
O O10 0.188959 0.321433 0.170537
O O11 0.276316 0.369622 0.320832
O O12 0.969104 0.469104 0.250000
O O13 0.869800 0.552271 0.224471
#
# Coordination Sequence:
#
# PCOD9565880 Si02
#       6
#    16  16  16  16  16  16
#     4  12  23  40  64  94 132 174 217 282 341 398
#     4  11  23  40  66  95 128 164 223 283 342 390
#     4  12  25  39  63  94 131 171 220 272 338 403
#     4  11  24  41  59  88 135 186 228 257 312 405
#     4  11  20  38  63  92 127 163 218 283 338 381
#     4  12  22  39  63  94 128 175 221 275 330 385
#
# _framework density 19.433623999999998
#
# number of rings (size 3 to 8) (size 9 to 14) (size 15 to 20)
#    0.000    0.500    6.667    4.500    2.333    0.000 
#    0.000    1.667    0.000    0.500    0.000    1.167 
#    0.000    0.000    0.000    0.000    0.000    0.000 
#
# Total GULP energy -535517.617687 kJ/mol
# GULP energy per Si atom -5578.308518 kJ/mol
# Density = 1.938939 g / cm^3
# Si number density = 19.433624 Si / 1000 Ang^3
#
#
#
# Elastic Constant Matrix: (Units=GPa)
#
#
# Indices 1 2 3 4 5 6 
#
# 1 61.6025 26.1953 29.4209 0.0000 0.0000 0.0000
# 2 26.1953 61.6025 29.4209 0.0000 0.0000 0.0000
# 3 29.4209 29.4209 111.5087 0.0000 0.0000 0.0000
# 4 0.0000 0.0000 0.0000 31.2340 0.0000 0.0000
# 5 0.0000 0.0000 0.0000 0.0000 31.2340 0.0000
# 6 0.0000 0.0000 0.0000 0.0000 0.0000 19.3759
#
#
#
# Elastic Compliance Matrix: (Units=1/GPa)
#
#
# Indices 1 2 3 4 5 6 
#
# 1 0.021040 -0.007203 -0.003651 0.000000 0.000000 0.000000
# 2 -0.007203 0.021040 -0.003651 0.000000 0.000000 0.000000
# 3 -0.003651 -0.003651 0.010894 0.000000 0.000000 0.000000
# 4 0.000000 0.000000 0.000000 0.032016 0.000000 0.000000
# 5 0.000000 0.000000 0.000000 0.000000 0.032016 0.000000
# 6 0.000000 0.000000 0.000000 0.000000 0.000000 0.051611
#
#
# Mechanical properties :
#
#
# Convention : Reuss Voigt Hill
#
# Bulk Modulus (GPa) = 41.72823 44.97642 43.35232
# Shear Modulus (GPa) = 24.31737 26.34721 25.33229
#
# Velocity S-wave (km/s) = 3.54122 3.68605 3.61436
# Velocity P-wave (km/s) = 6.18377 6.42727 6.30670
#
# Compressibility (1/GPa) = 0.02396459
#
# Stress axis : x y z
#
# Youngs Moduli (GPa) = 47.52924 47.52924 91.79093
#
# Poissons Ratio (x) = 0.34236 0.33510
# Poissons Ratio (y) = 0.34236 0.33510
# Poissons Ratio (z) = 0.17351 0.17351
#
# Static dielectric constant tensor:
#      x y z
#    x 1.721800 0.000000 0.000000 
#    y 0.000000 1.721800 0.000000 
#    z 0.000000 0.000000 1.730720 
# 
# From -- ./inp_files/1784.got.cif
#   From: 2010.05.17/outbox.cif.g08.bks.cpg/sg130_1_cif.got.tgz:1784.got - 2010.05.20 12:17:35.
