data_PCOD9565169
_publ_section_title
;
Structure prediction by ZEFSAII (Michael W. Deem and Ramdas Pophale) SiO2 
 PCOD9565169
Probable space group: P 4/N M M
;
_chemical_formula_sum "Si O2"
_cell_formula_units_Z 120
_cell_length_a 26.984040
_cell_length_b 26.984040
_cell_length_c 9.313613
_cell_angle_alpha 90.000000
_cell_angle_beta 90.000000
_cell_angle_gamma 90.000000
_cell_volume 6781.599405
_symmetry_space_group_name_H-M "P 4/N M M"
_symmetry_group_IT_number 129
_symmetry_cell_setting 'tetragonal'
loop_
_space_group_symop_operation_xyz
x,y,z
1/2-y,x,z
1/2-x,1/2-y,z
y,1/2-x,z
1/2+x,-y,-z
-x,1/2+y,-z
1/2+y,1/2+x,-z
-y,-x,-z
-x,-y,-z
1/2+y,-x,-z
1/2+x,1/2+y,-z
-y,1/2+x,-z
1/2-x,y,z
x,1/2-y,z
1/2-y,1/2-x,z
y,x,z
loop_
_atom_site_type_symbol
_atom_site_label
_atom_site_fract_x
_atom_site_fract_y
_atom_site_fract_z
Si Si1 0.578585 0.192173 0.478675
Si Si2 0.191605 0.808396 0.000000
Si Si3 0.563608 0.055268 0.838024
Si Si4 0.967492 0.807478 0.454534
Si Si5 0.378108 0.462278 0.113959
Si Si6 0.889676 0.970803 0.213581
Si Si7 0.191141 0.392824 0.288704
Si Si8 0.143065 0.870091 0.746081
O O1 0.588742 0.250000 0.464731
O O2 0.519740 0.184228 0.463939
O O3 0.596059 0.174669 0.636867
O O4 0.610023 0.163734 0.359390
O O5 0.174276 0.838587 0.859577
O O6 0.250000 0.816684 0.023816
O O7 0.514955 0.071322 0.750712
O O8 0.596342 0.104496 0.832614
O O9 0.598309 0.008773 0.800129
O O10 0.545056 0.045056 0.000000
O O11 0.967664 0.750000 0.407751
O O12 0.967993 0.845110 0.323602
O O13 0.920532 0.814932 0.558186
O O14 0.421468 0.421468 0.113451
O O15 0.330906 0.434068 0.178962
O O16 0.370271 0.478946 0.949178
O O17 0.920139 0.920139 0.215966
O O18 0.250000 0.383318 0.266256
O O19 0.156024 0.343977 0.280528
#
# Coordination Sequence:
#
# PCOD9565169 Si02
#       8
#    16   8  16  16  16  16  16  16
#     4  10  21  35  52  74 103 140 178 216 270 327
#     4  11  24  40  56  76 101 134 182 236 283 320
#     4  10  18  32  53  79 110 142 177 216 261 323
#     4  10  20  35  53  79 112 145 180 224 272 327
#     4   9  19  34  53  79 112 145 179 218 267 326
#     4  10  19  33  55  82 111 147 183 220 268 324
#     4  10  21  38  58  80 110 145 185 234 283 334
#     4  11  20  35  55  75 102 135 175 227 270 317
#
# _framework density 17.694941
#
# number of rings (size 3 to 8) (size 9 to 14) (size 15 to 20)
#    0.000    1.933    2.000    2.400    0.000    2.267 
#    0.000    0.667    0.000    6.400    0.000    0.000 
#    0.000    3.200    0.000    0.000    0.000    0.000 
#
# Total GULP energy -668911.624140 kJ/mol
# GULP energy per Si atom -5574.263535 kJ/mol
# Density = 1.765467 g / cm^3
# Si number density = 17.694941 Si / 1000 Ang^3
#
#
#
# Elastic Constant Matrix: (Units=GPa)
#
#
# Indices 1 2 3 4 5 6 
#
# 1 93.3682 44.6245 26.6299 0.0000 0.0000 0.0000
# 2 44.6245 93.3681 26.6303 0.0000 0.0000 0.0000
# 3 26.6299 26.6303 48.6159 0.0000 0.0000 0.0000
# 4 0.0000 0.0000 0.0000 22.2727 0.0000 0.0000
# 5 0.0000 0.0000 0.0000 0.0000 22.2719 0.0000
# 6 0.0000 0.0000 0.0000 0.0000 0.0000 27.3089
#
#
#
# Elastic Compliance Matrix: (Units=1/GPa)
#
#
# Indices 1 2 3 4 5 6 
#
# 1 0.014852 -0.005663 -0.005034 0.000000 0.000000 0.000000
# 2 -0.005663 0.014853 -0.005034 0.000000 0.000000 0.000000
# 3 -0.005034 -0.005034 0.026084 0.000000 0.000000 0.000000
# 4 0.000000 0.000000 0.000000 0.044898 0.000000 0.000000
# 5 0.000000 0.000000 0.000000 0.000000 0.044900 0.000000
# 6 0.000000 0.000000 0.000000 0.000000 0.000000 0.036618
#
#
# Mechanical properties :
#
#
# Convention : Reuss Voigt Hill
#
# Bulk Modulus (GPa) = 41.10449 47.90240 44.50344
# Shear Modulus (GPa) = 22.54538 23.53522 23.04030
#
# Velocity S-wave (km/s) = 3.57335 3.65095 3.61235
# Velocity P-wave (km/s) = 6.34862 6.70094 6.52716
#
# Compressibility (1/GPa) = 0.02432825
#
# Stress axis : x y z
#
# Youngs Moduli (GPa) = 67.32876 67.32830 38.33765
#
# Poissons Ratio (x) = 0.38128 0.19298
# Poissons Ratio (y) = 0.38128 0.19299
# Poissons Ratio (z) = 0.33891 0.33892
#
# Static dielectric constant tensor:
#      x y z
#    x 1.602120 0.000000 0.000000 
#    y 0.000000 1.602120 0.000000 
#    z 0.000000 0.000000 1.613670 
# 
# From -- ./inp_files/2901.got.cif
#   From: 2010.05.17/outbox.cif.g08.bks.cpg/sg129_2_cif.got.tgz:2901.got - 2010.05.20 12:12:06.
