data_PCOD9565386
_publ_section_title
;
Structure prediction by ZEFSAII (Michael W. Deem and Ramdas Pophale) SiO2 
 PCOD9565386
Probable space group: P 4/N M M
;
_chemical_formula_sum "Si O2"
_cell_formula_units_Z 88
_cell_length_a 13.574775
_cell_length_b 13.574775
_cell_length_c 28.781114
_cell_angle_alpha 90.000000
_cell_angle_beta 90.000000
_cell_angle_gamma 90.000000
_cell_volume 5303.625861
_symmetry_space_group_name_H-M "P 4/N M M"
_symmetry_group_IT_number 129
_symmetry_cell_setting 'tetragonal'
loop_
_space_group_symop_operation_xyz
x,y,z
1/2-y,x,z
1/2-x,1/2-y,z
y,1/2-x,z
1/2+x,-y,-z
-x,1/2+y,-z
1/2+y,1/2+x,-z
-y,-x,-z
-x,-y,-z
1/2+y,-x,-z
1/2+x,1/2+y,-z
-y,1/2+x,-z
1/2-x,y,z
x,1/2-y,z
1/2-y,1/2-x,z
y,x,z
loop_
_atom_site_type_symbol
_atom_site_label
_atom_site_fract_x
_atom_site_fract_y
_atom_site_fract_z
Si Si1 0.972944 0.132954 0.403539
Si Si2 0.134437 0.865563 0.500000
Si Si3 0.866308 0.469877 0.319036
Si Si4 0.867729 0.471625 0.766612
Si Si5 0.130700 0.862394 0.137956
Si Si6 0.528745 0.367556 0.042540
O O1 0.982386 0.250000 0.397832
O O2 0.929964 0.112340 0.454792
O O3 0.899314 0.088874 0.365123
O O4 0.075449 0.075449 0.397606
O O5 0.250000 0.879202 0.511660
O O6 0.750000 0.485454 0.317854
O O7 0.902875 0.405997 0.275072
O O8 0.929062 0.570939 0.318239
O O9 0.750000 0.482939 0.764617
O O10 0.896021 0.421035 0.815529
O O11 0.925339 0.574661 0.762488
O O12 0.250000 0.857900 0.137826
O O13 0.093767 0.750000 0.138576
O O14 0.103193 0.918644 0.090889
O O15 0.516150 0.250000 0.041616
O O16 0.426443 0.426443 0.038994
O O17 0.596669 0.403332 0.000000
#
# Coordination Sequence:
#
# PCOD9565386 Si02
#       6
#    16   8  16  16  16  16
#     4  10  20  33  50  73 101 133 168 205 245 291
#     4   9  17  30  50  74  97 125 164 208 251 293
#     4  10  21  36  54  76 100 127 162 204 250 300
#     4  10  20  33  50  74 103 135 171 208 247 292
#     4   9  17  30  49  71  95 126 164 205 247 289
#     4  10  20  33  50  73 100 131 168 208 251 301
#
# _framework density 16.592421999999999
#
# number of rings (size 3 to 8) (size 9 to 14) (size 15 to 20)
#    0.000    2.273    0.000    3.000    0.000    4.545 
#    0.000    0.000    0.000    6.545    0.000    2.545 
#    0.000   13.091    0.000    0.000    0.000    0.000 
#
# Total GULP energy -490886.744172 kJ/mol
# GULP energy per Si atom -5578.258457 kJ/mol
# Density = 1.655466 g / cm^3
# Si number density = 16.592422 Si / 1000 Ang^3
#
#
#
# Elastic Constant Matrix: (Units=GPa)
#
#
# Indices 1 2 3 4 5 6 
#
# 1 121.0811 60.7740 56.5475 0.0000 0.0000 0.0000
# 2 60.7740 121.0707 56.5455 0.0000 0.0000 0.0000
# 3 56.5475 56.5455 123.5080 0.0000 0.0000 0.0000
# 4 0.0000 0.0000 0.0000 23.4550 0.0000 0.0000
# 5 0.0000 0.0000 0.0000 0.0000 23.4550 0.0000
# 6 0.0000 0.0000 0.0000 0.0000 0.0000 8.8340
#
#
#
# Elastic Compliance Matrix: (Units=1/GPa)
#
#
# Indices 1 2 3 4 5 6 
#
# 1 0.012135 -0.004448 -0.003520 0.000000 0.000000 0.000000
# 2 -0.004448 0.012136 -0.003520 0.000000 0.000000 0.000000
# 3 -0.003520 -0.003520 0.011320 0.000000 0.000000 0.000000
# 4 0.000000 0.000000 0.000000 0.042635 0.000000 0.000000
# 5 0.000000 0.000000 0.000000 0.000000 0.042635 0.000000
# 6 0.000000 0.000000 0.000000 0.000000 0.000000 0.113200
#
#
# Mechanical properties :
#
#
# Convention : Reuss Voigt Hill
#
# Bulk Modulus (GPa) = 79.26243 79.26596 79.26419
# Shear Modulus (GPa) = 19.13947 23.93498 21.53723
#
# Velocity S-wave (km/s) = 3.40002 3.80218 3.60671
# Velocity P-wave (km/s) = 7.95534 8.19460 8.07586
#
# Compressibility (1/GPa) = 0.01261632
#
# Stress axis : x y z
#
# Youngs Moduli (GPa) = 82.40559 82.39822 88.34157
#
# Poissons Ratio (x) = 0.36647 0.31094
# Poissons Ratio (y) = 0.36651 0.31096
# Poissons Ratio (z) = 0.29005 0.29004
#
# Static dielectric constant tensor:
#      x y z
#    x 1.536700 0.000000 0.000000 
#    y 0.000000 1.536700 0.000000 
#    z 0.000000 0.000000 1.557210 
# 
# From -- ./inp_files/7776.got.cif
#   From: 2010.05.17/outbox.cif.g08.bks.cpg/sg129_4_cif.got.tgz:7776.got - 2010.05.20 12:12:06.
