data_PCOD9565965
_publ_section_title
;
Structure prediction by ZEFSAII (Michael W. Deem and Ramdas Pophale) SiO2 
 PCOD9565965
Probable space group: P 4/N C C
;
_chemical_formula_sum "Si O2"
_cell_formula_units_Z 52
_cell_length_a 10.894523
_cell_length_b 10.894523
_cell_length_c 18.027935
_cell_angle_alpha 90.000000
_cell_angle_beta 90.000000
_cell_angle_gamma 90.000000
_cell_volume 2139.746988
_symmetry_space_group_name_H-M "P 4/N C C"
_symmetry_group_IT_number 130
_symmetry_cell_setting 'tetragonal'
loop_
_space_group_symop_operation_xyz
x,y,z
1/2-y,x,z
1/2-x,1/2-y,z
y,1/2-x,z
1/2+x,-y,1/2-z
-x,1/2+y,1/2-z
1/2+y,1/2+x,1/2-z
-y,-x,1/2-z
-x,-y,-z
1/2+y,-x,-z
1/2+x,1/2+y,-z
-y,1/2+x,-z
1/2-x,y,1/2+z
x,1/2-y,1/2+z
1/2-y,1/2-x,1/2+z
y,x,1/2+z
loop_
_atom_site_type_symbol
_atom_site_label
_atom_site_fract_x
_atom_site_fract_y
_atom_site_fract_z
Si Si1 0.750000 0.750000 0.705855
Si Si2 0.485834 0.415102 0.818531
Si Si3 0.143746 0.420938 0.117748
Si Si4 0.823435 0.065157 0.522184
O O1 0.855457 0.641024 0.701917
O O2 0.580436 0.419565 0.750000
O O3 0.480469 0.559833 0.841312
O O4 0.535637 0.349693 0.892693
O O5 0.088955 0.287090 0.135707
O O6 0.140328 0.452006 0.030517
O O7 0.683478 0.100278 0.504685
#
# Coordination Sequence:
#
# PCOD9565965 Si02
#       4
#     4  16  16  16
#     4  12  32  52  88 118 168 216 276 346 428 504
#     4  12  29  50  80 123 166 219 282 349 424 500
#     4  11  25  46  79 116 167 221 274 340 419 504
#     4  11  24  48  77 115 164 222 287 350 418 507
#
# _framework density 24.301939000000001
#
# number of rings (size 3 to 8) (size 9 to 14) (size 15 to 20)
#    0.000    0.615    3.077    2.769    8.615    0.000 
#    0.000    3.077    0.000    0.000    0.000    0.000 
#    0.000    0.000    0.000    0.000    0.000    0.000 
#
# Total GULP energy -290119.196919 kJ/mol
# GULP energy per Si atom -5579.215325 kJ/mol
# Density = 2.424663 g / cm^3
# Si number density = 24.301939 Si / 1000 Ang^3
#
#
#
# Elastic Constant Matrix: (Units=GPa)
#
#
# Indices 1 2 3 4 5 6 
#
# 1 146.8394 74.5679 40.8047 0.0000 0.0000 0.0000
# 2 74.5679 146.8402 40.8057 0.0000 0.0000 0.0000
# 3 40.8047 40.8057 160.7416 0.0000 0.0000 0.0000
# 4 0.0000 0.0000 0.0000 24.5189 0.0000 0.0000
# 5 0.0000 0.0000 0.0000 0.0000 24.5188 0.0000
# 6 0.0000 0.0000 0.0000 0.0000 0.0000 58.3970
#
#
#
# Elastic Compliance Matrix: (Units=1/GPa)
#
#
# Indices 1 2 3 4 5 6 
#
# 1 0.009410 -0.004427 -0.001265 0.000000 0.000000 0.000000
# 2 -0.004427 0.009410 -0.001265 0.000000 0.000000 0.000000
# 3 -0.001265 -0.001265 0.006863 0.000000 0.000000 0.000000
# 4 0.000000 0.000000 0.000000 0.040785 0.000000 0.000000
# 5 0.000000 0.000000 0.000000 0.000000 0.040785 0.000000
# 6 0.000000 0.000000 0.000000 0.000000 0.000000 0.017124
#
#
# Mechanical properties :
#
#
# Convention : Reuss Voigt Hill
#
# Bulk Modulus (GPa) = 84.96664 85.19752 85.08208
# Shear Modulus (GPa) = 35.15839 41.36978 38.26409
#
# Velocity S-wave (km/s) = 3.80772 4.13040 3.97234
# Velocity P-wave (km/s) = 7.37363 7.60795 7.49171
#
# Compressibility (1/GPa) = 0.01176933
#
# Stress axis : x y z
#
# Youngs Moduli (GPa) = 106.27303 106.27326 145.70086
#
# Poissons Ratio (x) = 0.47046 0.18429
# Poissons Ratio (y) = 0.47046 0.18430
# Poissons Ratio (z) = 0.13442 0.13443
#
# Static dielectric constant tensor:
#      x y z
#    x 1.928200 0.000000 0.000000 
#    y 0.000000 1.928200 0.000000 
#    z 0.000000 0.000000 2.012770 
# 
# From -- ./inp_files/3442.got.cif
#   From: 2010.05.17/outbox.cif.g08.bks.cpg/sg130_2_cif.got.tgz:3442.got - 2010.05.20 12:17:35.
