data_PCOD9565200
_publ_section_title
;
Structure prediction by ZEFSAII (Michael W. Deem and Ramdas Pophale) SiO2 
 PCOD9565200
Probable space group: P 4/N M M
;
_chemical_formula_sum "Si O2"
_cell_formula_units_Z 96
_cell_length_a 25.349119
_cell_length_b 25.349119
_cell_length_c 9.198077
_cell_angle_alpha 90.000000
_cell_angle_beta 90.000000
_cell_angle_gamma 90.000000
_cell_volume 5910.480396
_symmetry_space_group_name_H-M "P 4/N M M"
_symmetry_group_IT_number 129
_symmetry_cell_setting 'tetragonal'
loop_
_space_group_symop_operation_xyz
x,y,z
1/2-y,x,z
1/2-x,1/2-y,z
y,1/2-x,z
1/2+x,-y,-z
-x,1/2+y,-z
1/2+y,1/2+x,-z
-y,-x,-z
-x,-y,-z
1/2+y,-x,-z
1/2+x,1/2+y,-z
-y,1/2+x,-z
1/2-x,y,z
x,1/2-y,z
1/2-y,1/2-x,z
y,x,z
loop_
_atom_site_type_symbol
_atom_site_label
_atom_site_fract_x
_atom_site_fract_y
_atom_site_fract_z
Si Si1 0.311289 0.504632 0.958691
Si Si2 0.626184 0.540604 0.465843
Si Si3 0.099320 0.188551 0.778090
Si Si4 0.849099 0.463785 0.727077
Si Si5 0.611570 0.191118 0.506527
Si Si6 0.388569 0.945466 0.728622
O O1 0.250000 0.518356 0.925850
O O2 0.318205 0.444001 0.906289
O O3 0.353259 0.538727 0.866408
O O4 0.323441 0.514669 0.126866
O O5 0.585735 0.585735 0.509191
O O6 0.671912 0.567229 0.368024
O O7 0.645769 0.509139 0.605837
O O8 0.597465 0.498869 0.357921
O O9 0.114998 0.250000 0.772521
O O10 0.148032 0.148032 0.793083
O O11 0.815724 0.417673 0.647895
O O12 0.906440 0.437170 0.756998
O O13 0.671532 0.171532 0.500000
O O14 0.605456 0.250000 0.559185
O O15 0.584008 0.150288 0.615827
#
# Coordination Sequence:
#
# PCOD9565200 Si02
#       6
#    16  16  16  16  16  16
#     4  10  19  31  48  68  94 126 158 195 236 276
#     4   9  18  32  49  70  96 124 153 185 228 282
#     4   9  19  35  53  73  96 123 155 190 229 274
#     4  10  19  29  46  71  95 121 156 195 233 277
#     4   9  17  29  44  63  87 116 154 196 236 278
#     4   9  18  31  46  65  92 126 159 191 228 275
#
# _framework density 16.242335000000001
#
# number of rings (size 3 to 8) (size 9 to 14) (size 15 to 20)
#    0.000    2.667    0.000    3.000    0.000    7.000 
#    0.000    0.000    0.000    5.000    0.000    0.000 
#    0.000   14.667    0.000    0.000    0.000    0.000 
#
# Total GULP energy -534646.717049 kJ/mol
# GULP energy per Si atom -5569.236636 kJ/mol
# Density = 1.620537 g / cm^3
# Si number density = 16.242335 Si / 1000 Ang^3
#
#
#
# Elastic Constant Matrix: (Units=GPa)
#
#
# Indices 1 2 3 4 5 6 
#
# 1 67.1601 41.4416 30.4495 0.0000 0.0000 0.0000
# 2 41.4416 67.1601 30.4495 0.0000 0.0000 0.0000
# 3 30.4495 30.4495 90.6239 0.0000 0.0000 0.0000
# 4 0.0000 0.0000 0.0000 14.9145 0.0000 0.0000
# 5 0.0000 0.0000 0.0000 0.0000 14.9145 0.0000
# 6 0.0000 0.0000 0.0000 0.0000 0.0000 14.1137
#
#
#
# Elastic Compliance Matrix: (Units=1/GPa)
#
#
# Indices 1 2 3 4 5 6 
#
# 1 0.025114 -0.013768 -0.003812 0.000000 0.000000 0.000000
# 2 -0.013768 0.025114 -0.003812 0.000000 0.000000 0.000000
# 3 -0.003812 -0.003812 0.013596 0.000000 0.000000 0.000000
# 4 0.000000 0.000000 0.000000 0.067049 0.000000 0.000000
# 5 0.000000 0.000000 0.000000 0.000000 0.067049 0.000000
# 6 0.000000 0.000000 0.000000 0.000000 0.000000 0.070853
#
#
# Mechanical properties :
#
#
# Convention : Reuss Voigt Hill
#
# Bulk Modulus (GPa) = 47.53047 47.73616 47.63332
# Shear Modulus (GPa) = 15.69498 16.96212 16.32855
#
# Velocity S-wave (km/s) = 3.11191 3.23509 3.17410
# Velocity P-wave (km/s) = 6.49914 6.58849 6.54397
#
# Compressibility (1/GPa) = 0.02103913
#
# Stress axis : x y z
#
# Youngs Moduli (GPa) = 39.81838 39.81838 73.54915
#
# Poissons Ratio (x) = 0.54824 0.28038
# Poissons Ratio (y) = 0.54824 0.28038
# Poissons Ratio (z) = 0.15179 0.15179
#
# Static dielectric constant tensor:
#      x y z
#    x 1.555070 0.000000 0.000000 
#    y 0.000000 1.555070 0.000000 
#    z 0.000000 0.000000 1.537750 
# 
# From -- ./inp_files/2604.got.cif
#   From: 2010.05.17/outbox.cif.g08.bks.cpg/sg129_2_cif.got.tgz:2604.got - 2010.05.20 12:12:06.
