data_PCOD9565495
_publ_section_title
;
Structure prediction by ZEFSAII (Michael W. Deem and Ramdas Pophale) SiO2 
 PCOD9565495
Probable space group: P 4/N M M
;
_chemical_formula_sum "Si O2"
_cell_formula_units_Z 96
_cell_length_a 26.000486
_cell_length_b 26.000486
_cell_length_c 8.655694
_cell_angle_alpha 90.000000
_cell_angle_beta 90.000000
_cell_angle_gamma 90.000000
_cell_volume 5851.467893
_symmetry_space_group_name_H-M "P 4/N M M"
_symmetry_group_IT_number 129
_symmetry_cell_setting 'tetragonal'
loop_
_space_group_symop_operation_xyz
x,y,z
1/2-y,x,z
1/2-x,1/2-y,z
y,1/2-x,z
1/2+x,-y,-z
-x,1/2+y,-z
1/2+y,1/2+x,-z
-y,-x,-z
-x,-y,-z
1/2+y,-x,-z
1/2+x,1/2+y,-z
-y,1/2+x,-z
1/2-x,y,z
x,1/2-y,z
1/2-y,1/2-x,z
y,x,z
loop_
_atom_site_type_symbol
_atom_site_label
_atom_site_fract_x
_atom_site_fract_y
_atom_site_fract_z
Si Si1 0.307515 0.863799 0.621772
Si Si2 0.918604 0.001952 0.932789
Si Si3 0.997735 0.418688 0.440632
Si Si4 0.693068 0.474387 0.541594
Si Si5 0.142450 0.693331 0.873468
Si Si6 0.972714 0.193380 0.082954
O O1 0.318855 0.818855 0.500000
O O2 0.250000 0.860175 0.685986
O O3 0.312039 0.917936 0.534218
O O4 0.349422 0.852123 0.751953
O O5 0.919744 0.004368 0.745970
O O6 0.858371 0.000445 0.975716
O O7 0.948495 0.051506 0.000000
O O8 0.952469 0.952469 0.980815
O O9 0.945673 0.445673 0.500000
O O10 0.002923 0.360069 0.496944
O O11 0.044729 0.455272 0.490656
O O12 0.750000 0.494359 0.495394
O O13 0.693465 0.472201 0.728865
O O14 0.144327 0.750000 0.799971
O O15 0.087534 0.689135 0.955654
O O16 0.186148 0.686148 0.000000
O O17 0.991704 0.250000 0.032538
#
# Coordination Sequence:
#
# PCOD9565495 Si02
#       6
#    16  16  16  16  16  16
#     4  11  20  30  43  56  71 100 139 177 212 247
#     4   9  17  29  46  67  86 108 139 174 210 248
#     4   9  17  28  45  66  86 109 137 172 213 254
#     4   9  17  29  45  62  81 105 136 173 208 248
#     4  11  22  33  42  55  77 106 138 177 222 254
#     4   9  17  30  45  61  82 109 137 168 209 253
#
# _framework density 16.406139
#
# number of rings (size 3 to 8) (size 9 to 14) (size 15 to 20)
#    0.000    2.333    1.667    2.000    2.333    2.000 
#    0.000    0.000    0.000    0.000    0.000    0.000 
#    0.000    0.667    0.000    9.333    0.000    0.000 
#
# Total GULP energy -534554.287443 kJ/mol
# GULP energy per Si atom -5568.273828 kJ/mol
# Density = 1.636880 g / cm^3
# Si number density = 16.406139 Si / 1000 Ang^3
#
#
#
# Elastic Constant Matrix: (Units=GPa)
#
#
# Indices 1 2 3 4 5 6 
#
# 1 96.7653 47.4420 6.5342 0.0000 0.0000 0.0000
# 2 47.4420 96.7648 6.5340 0.0000 0.0000 0.0000
# 3 6.5342 6.5340 8.5971 0.0000 0.0000 0.0000
# 4 0.0000 0.0000 0.0000 13.4003 0.0000 0.0000
# 5 0.0000 0.0000 0.0000 0.0000 13.4004 0.0000
# 6 0.0000 0.0000 0.0000 0.0000 0.0000 21.4066
#
#
#
# Elastic Compliance Matrix: (Units=1/GPa)
#
#
# Indices 1 2 3 4 5 6 
#
# 1 0.013861 -0.006414 -0.005661 0.000000 0.000000 0.000000
# 2 -0.006414 0.013861 -0.005660 0.000000 0.000000 0.000000
# 3 -0.005661 -0.005660 0.124923 0.000000 0.000000 0.000000
# 4 0.000000 0.000000 0.000000 0.074625 0.000000 0.000000
# 5 0.000000 0.000000 0.000000 0.000000 0.074625 0.000000
# 6 0.000000 0.000000 0.000000 0.000000 0.000000 0.046715
#
#
# Mechanical properties :
#
#
# Convention : Reuss Voigt Hill
#
# Bulk Modulus (GPa) = 8.53414 35.90528 22.21971
# Shear Modulus (GPa) = 11.81652 19.08259 15.44956
#
# Velocity S-wave (km/s) = 2.68666 3.41418 3.07203
# Velocity P-wave (km/s) = 3.85192 6.12168 5.11430
#
# Compressibility (1/GPa) = 0.11717648
#
# Stress axis : x y z
#
# Youngs Moduli (GPa) = 72.14521 72.14504 8.00493
#
# Poissons Ratio (x) = 0.46270 0.04531
# Poissons Ratio (y) = 0.46271 0.04531
# Poissons Ratio (z) = 0.40838 0.40835
#
# Static dielectric constant tensor:
#      x y z
#    x 1.569970 0.000000 0.000000 
#    y 0.000000 1.569970 0.000000 
#    z 0.000000 0.000000 1.611780 
# 
# From -- ./inp_files/2802.got.cif
#   From: 2010.05.17/outbox.cif.g08.bks.cpg/sg129_2_cif.got.tgz:2802.got - 2010.05.20 12:12:06.
