data_PCOD9565156
_publ_section_title
;
Structure prediction by ZEFSAII (Michael W. Deem and Ramdas Pophale) SiO2 
 PCOD9565156
Probable space group: P 4/N M M
;
_chemical_formula_sum "Si O2"
_cell_formula_units_Z 128
_cell_length_a 20.054324
_cell_length_b 20.054324
_cell_length_c 20.243887
_cell_angle_alpha 90.000000
_cell_angle_beta 90.000000
_cell_angle_gamma 90.000000
_cell_volume 8141.603698
_symmetry_space_group_name_H-M "P 4/N M M"
_symmetry_group_IT_number 129
_symmetry_cell_setting 'tetragonal'
loop_
_space_group_symop_operation_xyz
x,y,z
1/2-y,x,z
1/2-x,1/2-y,z
y,1/2-x,z
1/2+x,-y,-z
-x,1/2+y,-z
1/2+y,1/2+x,-z
-y,-x,-z
-x,-y,-z
1/2+y,-x,-z
1/2+x,1/2+y,-z
-y,1/2+x,-z
1/2-x,y,z
x,1/2-y,z
1/2-y,1/2-x,z
y,x,z
loop_
_atom_site_type_symbol
_atom_site_label
_atom_site_fract_x
_atom_site_fract_y
_atom_site_fract_z
Si Si1 0.173692 0.439147 0.414508
Si Si2 0.601213 0.490119 0.859968
Si Si3 0.982512 0.092589 0.645036
Si Si4 0.120125 0.010868 0.885778
Si Si5 0.502718 0.615978 0.713114
Si Si6 0.438081 0.827008 0.988066
Si Si7 0.566257 0.826269 0.247427
Si Si8 0.438714 0.829560 0.484121
O O1 0.250000 0.417526 0.426909
O O2 0.119229 0.380772 0.425406
O O3 0.166072 0.464368 0.338885
O O4 0.159373 0.503017 0.461260
O O5 0.557691 0.557691 0.868854
O O6 0.547062 0.430042 0.860454
O O7 0.636939 0.490520 0.788584
O O8 0.648069 0.475613 0.922133
O O9 0.030895 0.030895 0.624175
O O10 0.021349 0.133291 0.700963
O O11 0.916359 0.061626 0.678081
O O12 0.966098 0.139984 0.584121
O O13 0.072049 0.072049 0.905372
O O14 0.164604 0.034037 0.824719
O O15 0.159943 0.984529 0.948437
O O16 0.554189 0.554189 0.719337
O O17 0.420134 0.750000 0.982685
O O18 0.374099 0.874099 0.000000
O O19 0.570820 0.750000 0.266320
O O20 0.637353 0.862648 0.245996
O O21 0.372763 0.872763 0.500000
O O22 0.426559 0.750000 0.480403
#
# Coordination Sequence:
#
# PCOD9565156 Si02
#       8
#    16  16  16  16  16  16  16  16
#     4  10  21  35  53  78 105 135 169 205 249 297
#     4   9  16  29  49  73  96 116 148 201 254 290
#     4  10  18  31  52  75  99 126 160 205 249 292
#     4   9  16  29  48  70  93 118 155 203 248 285
#     4   9  16  29  51  76  99 123 156 201 249 293
#     4  10  20  31  45  66  92 127 162 194 237 287
#     4  10  19  30  46  69  98 131 164 200 242 292
#     4  11  22  35  53  77 103 134 170 209 252 297
#
# _framework density 15.721717999999999
#
# number of rings (size 3 to 8) (size 9 to 14) (size 15 to 20)
#    0.000    2.250    2.500    1.500    0.000    3.000 
#    0.000    0.000    0.000    0.000    0.000    1.750 
#    0.000    2.250    0.000    0.500    0.000    0.000 
#
# Total GULP energy -713316.211180 kJ/mol
# GULP energy per Si atom -5572.782900 kJ/mol
# Density = 1.568594 g / cm^3
# Si number density = 15.721718 Si / 1000 Ang^3
#
#
#
# Elastic Constant Matrix: (Units=GPa)
#
#
# Indices 1 2 3 4 5 6 
#
# 1 77.7294 36.6165 35.3503 0.0000 0.0000 0.0000
# 2 36.6165 77.7294 35.3503 0.0000 0.0000 0.0000
# 3 35.3503 35.3503 100.7801 0.0000 0.0000 0.0000
# 4 0.0000 0.0000 0.0000 13.5914 0.0000 0.0000
# 5 0.0000 0.0000 0.0000 0.0000 13.5914 0.0000
# 6 0.0000 0.0000 0.0000 0.0000 0.0000 10.1472
#
#
#
# Elastic Compliance Matrix: (Units=1/GPa)
#
#
# Indices 1 2 3 4 5 6 
#
# 1 0.017745 -0.006578 -0.003917 0.000000 0.000000 0.000000
# 2 -0.006578 0.017745 -0.003917 0.000000 0.000000 0.000000
# 3 -0.003917 -0.003917 0.012671 0.000000 0.000000 0.000000
# 4 0.000000 0.000000 0.000000 0.073576 0.000000 0.000000
# 5 0.000000 0.000000 0.000000 0.000000 0.073576 0.000000
# 6 0.000000 0.000000 0.000000 0.000000 0.000000 0.098550
#
#
# Mechanical properties :
#
#
# Convention : Reuss Voigt Hill
#
# Bulk Modulus (GPa) = 51.71490 52.31923 52.01706
# Shear Modulus (GPa) = 15.19142 17.39410 16.29276
#
# Velocity S-wave (km/s) = 3.11186 3.32983 3.22269
# Velocity P-wave (km/s) = 6.77325 6.93788 6.85606
#
# Compressibility (1/GPa) = 0.01933679
#
# Stress axis : x y z
#
# Youngs Moduli (GPa) = 56.35285 56.35285 78.92278
#
# Poissons Ratio (x) = 0.37069 0.30915
# Poissons Ratio (y) = 0.37069 0.30915
# Poissons Ratio (z) = 0.22074 0.22074
#
# Static dielectric constant tensor:
#      x y z
#    x 1.509120 0.000000 0.000000 
#    y 0.000000 1.509120 0.000000 
#    z 0.000000 0.000000 1.530430 
# 
# From -- ./inp_files/6135.got.cif
#   From: 2010.05.17/outbox.cif.g08.bks.cpg/sg129_4_cif.got.tgz:6135.got - 2010.05.20 12:12:06.
