data_PCOD9565403
_publ_section_title
;
Structure prediction by ZEFSAII (Michael W. Deem and Ramdas Pophale) SiO2 
 PCOD9565403
Probable space group: P 4/N M M
;
_chemical_formula_sum "Si O2"
_cell_formula_units_Z 64
_cell_length_a 23.211803
_cell_length_b 23.211803
_cell_length_c 7.133866
_cell_angle_alpha 90.000000
_cell_angle_beta 90.000000
_cell_angle_gamma 90.000000
_cell_volume 3843.639957
_symmetry_space_group_name_H-M "P 4/N M M"
_symmetry_group_IT_number 129
_symmetry_cell_setting 'tetragonal'
loop_
_space_group_symop_operation_xyz
x,y,z
1/2-y,x,z
1/2-x,1/2-y,z
y,1/2-x,z
1/2+x,-y,-z
-x,1/2+y,-z
1/2+y,1/2+x,-z
-y,-x,-z
-x,-y,-z
1/2+y,-x,-z
1/2+x,1/2+y,-z
-y,1/2+x,-z
1/2-x,y,z
x,1/2-y,z
1/2-y,1/2-x,z
y,x,z
loop_
_atom_site_type_symbol
_atom_site_label
_atom_site_fract_x
_atom_site_fract_y
_atom_site_fract_z
Si Si1 0.904944 0.502156 0.962386
Si Si2 0.834330 0.186224 0.277505
Si Si3 0.685205 0.031899 0.667904
Si Si4 0.313798 0.945426 0.773737
O O1 0.858184 0.483681 0.114320
O O2 0.936960 0.563041 0.980228
O O3 0.954193 0.454193 0.000000
O O4 0.869102 0.497668 0.767890
O O5 0.818488 0.181513 0.500000
O O6 0.814177 0.250000 0.213078
O O7 0.903008 0.186379 0.254566
O O8 0.816467 0.124092 0.196036
O O9 0.750000 0.007007 0.697276
O O10 0.677205 0.041841 0.446255
O O11 0.250000 0.963578 0.827332
#
# Coordination Sequence:
#
# PCOD9565403 Si02
#       4
#    16  16  16  16
#     4  11  22  34  50  71  99 135 174 214 249 292
#     4   9  16  27  45  69  96 129 170 210 248 287
#     4   9  18  34  53  71  97 132 168 211 254 293
#     4  10  20  34  53  73  99 133 169 214 258 294
#
# _framework density 16.650881999999999
#
# number of rings (size 3 to 8) (size 9 to 14) (size 15 to 20)
#    0.000    2.250    2.500    3.000    0.000    2.750 
#    0.000    2.500    0.000    0.000    0.000    0.000 
#    0.000    8.000    0.000   22.000    0.000    0.000 
#
# Total GULP energy -356574.204858 kJ/mol
# GULP energy per Si atom -5571.471951 kJ/mol
# Density = 1.661298 g / cm^3
# Si number density = 16.650882 Si / 1000 Ang^3
#
#
#
# Elastic Constant Matrix: (Units=GPa)
#
#
# Indices 1 2 3 4 5 6 
#
# 1 105.4908 73.1147 39.6946 0.0000 0.0000 0.0000
# 2 73.1147 105.4906 39.6948 0.0000 0.0000 0.0000
# 3 39.6946 39.6948 62.4744 0.0000 0.0000 0.0000
# 4 0.0000 0.0000 0.0000 12.7503 0.0000 0.0000
# 5 0.0000 0.0000 0.0000 0.0000 12.7498 0.0000
# 6 0.0000 0.0000 0.0000 0.0000 0.0000 11.2604
#
#
#
# Elastic Compliance Matrix: (Units=1/GPa)
#
#
# Indices 1 2 3 4 5 6 
#
# 1 0.019345 -0.011542 -0.004957 0.000000 0.000000 0.000000
# 2 -0.011542 0.019345 -0.004958 0.000000 0.000000 0.000000
# 3 -0.004957 -0.004958 0.022306 0.000000 0.000000 0.000000
# 4 0.000000 0.000000 0.000000 0.078430 0.000000 0.000000
# 5 0.000000 0.000000 0.000000 0.000000 0.078433 0.000000
# 6 0.000000 0.000000 0.000000 0.000000 0.000000 0.088807
#
#
# Mechanical properties :
#
#
# Convention : Reuss Voigt Hill
#
# Bulk Modulus (GPa) = 55.30582 64.27377 59.78980
# Shear Modulus (GPa) = 14.06045 15.41553 14.73799
#
# Velocity S-wave (km/s) = 2.90905 3.04601 2.97832
# Velocity P-wave (km/s) = 6.67612 7.14532 6.91470
#
# Compressibility (1/GPa) = 0.01808128
#
# Stress axis : x y z
#
# Youngs Moduli (GPa) = 51.69350 51.69331 44.83023
#
# Poissons Ratio (x) = 0.59666 0.22225
# Poissons Ratio (y) = 0.59666 0.22225
# Poissons Ratio (z) = 0.25627 0.25627
#
# Static dielectric constant tensor:
#      x y z
#    x 1.550950 0.000000 0.000000 
#    y 0.000000 1.550950 0.000000 
#    z 0.000000 0.000000 1.643730 
# 
# From -- ./inp_files/2072.got.cif
#   From: 2010.05.17/outbox.cif.g08.bks.cpg/sg129_2_cif.got.tgz:2072.got - 2010.05.20 12:12:06.
