data_PCOD9565770
_publ_section_title
;
Structure prediction by ZEFSAII (Michael W. Deem and Ramdas Pophale) SiO2 
 PCOD9565770
Probable space group: P 4/N C C
;
_chemical_formula_sum "Si O2"
_cell_formula_units_Z 96
_cell_length_a 15.477214
_cell_length_b 15.477214
_cell_length_c 19.333071
_cell_angle_alpha 90.000000
_cell_angle_beta 90.000000
_cell_angle_gamma 90.000000
_cell_volume 4631.124121
_symmetry_space_group_name_H-M "P 4/N C C"
_symmetry_group_IT_number 130
_symmetry_cell_setting 'tetragonal'
loop_
_space_group_symop_operation_xyz
x,y,z
1/2-y,x,z
1/2-x,1/2-y,z
y,1/2-x,z
1/2+x,-y,1/2-z
-x,1/2+y,1/2-z
1/2+y,1/2+x,1/2-z
-y,-x,1/2-z
-x,-y,-z
1/2+y,-x,-z
1/2+x,1/2+y,-z
-y,1/2+x,-z
1/2-x,y,1/2+z
x,1/2-y,1/2+z
1/2-y,1/2-x,1/2+z
y,x,1/2+z
loop_
_atom_site_type_symbol
_atom_site_label
_atom_site_fract_x
_atom_site_fract_y
_atom_site_fract_z
Si Si1 0.986080 0.580730 0.150290
Si Si2 0.637046 0.841590 0.034378
Si Si3 0.357423 0.681350 0.027522
Si Si4 0.864722 0.987034 0.435991
Si Si5 0.868621 0.131380 0.250000
Si Si6 0.422503 0.775016 0.848153
Si Si7 0.066898 0.566898 0.750000
O O1 0.921509 0.627631 0.098159
O O2 0.937411 0.510347 0.195612
O O3 0.056554 0.529080 0.105165
O O4 0.041487 0.635323 0.206581
O O5 0.633333 0.738323 0.035808
O O6 0.609848 0.892952 0.964564
O O7 0.325514 0.634056 0.095419
O O8 0.285164 0.651377 0.970731
O O9 0.451213 0.653835 0.002094
O O10 0.780204 0.002608 0.387409
O O11 0.866147 0.205251 0.193234
O O12 0.446854 0.845239 0.791770
#
# Coordination Sequence:
#
# PCOD9565770 Si02
#       7
#    16  16  16  16   8  16   8
#     4  10  23  42  64  92 125 163 219 256 322 386
#     4  11  26  42  66  96 123 167 221 280 322 371
#     4   9  19  34  58  99 127 159 200 255 325 386
#     4  10  22  40  67  91 128 165 206 276 329 379
#     4   9  22  41  60  90 128 173 200 253 308 394
#     4  10  22  37  61  92 130 168 202 251 316 387
#     4  11  24  37  62  96 122 171 210 249 318 398
#
# _framework density 20.729309000000001
#
# number of rings (size 3 to 8) (size 9 to 14) (size 15 to 20)
#    0.000    2.000    0.000    1.500    9.333    7.000 
#    0.000    0.000    0.000    0.000    0.000    0.000 
#    0.000    0.000    0.000    0.000    0.000    0.000 
#
# Total GULP energy -536141.471921 kJ/mol
# GULP energy per Si atom -5584.806999 kJ/mol
# Density = 2.068213 g / cm^3
# Si number density = 20.729309 Si / 1000 Ang^3
#
#
#
# Elastic Constant Matrix: (Units=GPa)
#
#
# Indices 1 2 3 4 5 6 
#
# 1 88.3000 -0.1570 38.3540 0.0000 0.0000 0.0000
# 2 -0.1570 88.2985 38.3539 0.0000 0.0000 0.0000
# 3 38.3540 38.3539 95.8756 0.0000 0.0000 0.0000
# 4 0.0000 0.0000 0.0000 7.5644 0.0000 0.0000
# 5 0.0000 0.0000 0.0000 0.0000 7.5648 0.0000
# 6 0.0000 0.0000 0.0000 0.0000 0.0000 16.7576
#
#
#
# Elastic Compliance Matrix: (Units=1/GPa)
#
#
# Indices 1 2 3 4 5 6 
#
# 1 0.014355 0.003050 -0.006962 0.000000 0.000000 0.000000
# 2 0.003050 0.014355 -0.006963 0.000000 0.000000 0.000000
# 3 -0.006962 -0.006963 0.016001 0.000000 0.000000 0.000000
# 4 0.000000 0.000000 0.000000 0.132199 0.000000 0.000000
# 5 0.000000 0.000000 0.000000 0.000000 0.132191 0.000000
# 6 0.000000 0.000000 0.000000 0.000000 0.000000 0.059674
#
#
# Mechanical properties :
#
#
# Convention : Reuss Voigt Hill
#
# Bulk Modulus (GPa) = 43.55426 47.28621 45.42024
# Shear Modulus (GPa) = 12.55718 19.43889 15.99804
#
# Velocity S-wave (km/s) = 2.46391 3.06559 2.78107
# Velocity P-wave (km/s) = 5.39917 5.94906 5.68077
#
# Compressibility (1/GPa) = 0.02295987
#
# Stress axis : x y z
#
# Youngs Moduli (GPa) = 69.66369 69.66244 62.49715
#
# Poissons Ratio (x) = -0.21245 0.43513
# Poissons Ratio (y) = -0.21246 0.43514
# Poissons Ratio (z) = 0.48503 0.48503
#
# Static dielectric constant tensor:
#      x y z
#    x 1.801530 0.000000 0.000000 
#    y 0.000000 1.801530 0.000000 
#    z 0.000000 0.000000 1.566730 
# 
# From -- ./inp_files/3824.got.cif
#   From: 2010.05.17/outbox.cif.g08.bks.cpg/sg130_2_cif.got.tgz:3824.got - 2010.05.20 12:17:35.
