data_PCOD9565079
_publ_section_title
;
Structure prediction by ZEFSAII (Michael W. Deem and Ramdas Pophale) SiO2 
 PCOD9565079
Probable space group: P 4/M N C
;
_chemical_formula_sum "Si O2"
_cell_formula_units_Z 116
_cell_length_a 27.000000
_cell_length_b 27.000000
_cell_length_c 9.000000
_cell_angle_alpha 90.000000
_cell_angle_beta 90.000000
_cell_angle_gamma 90.000000
_cell_volume 6561.000000
_symmetry_space_group_name_H-M "P 4/M N C"
_symmetry_group_IT_number 128
_symmetry_cell_setting 'tetragonal'
loop_
_space_group_symop_operation_xyz
x,y,z
-y,x,z
-x,-y,z
y,-x,z
1/2+x,1/2-y,1/2-z
1/2-x,1/2+y,1/2-z
1/2+y,1/2+x,1/2-z
1/2-y,1/2-x,1/2-z
-x,-y,-z
y,-x,-z
x,y,-z
-y,x,-z
1/2-x,1/2+y,1/2+z
1/2+x,1/2-y,1/2+z
1/2-y,1/2-x,1/2+z
1/2+y,1/2+x,1/2+z
loop_
_atom_site_type_symbol
_atom_site_label
_atom_site_fract_x
_atom_site_fract_y
_atom_site_fract_z
Si Si1 0.623877 0.723372 0.677408
Si Si2 0.183123 0.861438 0.320721
Si Si3 0.050849 0.104470 0.323462
Si Si4 0.165815 0.590491 0.677947
Si Si5 0.983859 0.707736 0.822049
Si Si6 0.000000 0.000000 0.243376
Si Si7 0.976986 0.194987 0.324899
Si Si8 0.206893 0.371128 0.678565
O O1 0.631029 0.719345 0.500000
O O2 0.664921 0.692431 0.765476
O O3 0.617350 0.781651 0.715656
O O4 0.572109 0.698612 0.726851
O O5 0.187562 0.864077 0.500000
O O6 0.138991 0.901303 0.279079
O O7 0.237226 0.869857 0.247057
O O8 0.057122 0.092968 0.500000
O O9 0.034923 0.051935 0.250826
O O10 0.005933 0.143673 0.307016
O O11 0.120366 0.620366 0.750000
O O12 0.160349 0.592592 0.500000
O O13 0.174024 0.532035 0.717302
O O14 0.990200 0.758737 0.730887
O O15 0.928096 0.688295 0.796443
O O16 0.988313 0.718232 0.000000
O O17 0.965155 0.200733 0.500000
O O18 0.169878 0.330123 0.750000
O O19 0.209699 0.363224 0.500000
#
# Coordination Sequence:
#
# PCOD9565079 Si02
#       8
#    16  16  16  16  16   4  16  16
#     4  10  21  36  52  77 112 150 190 236 291 345
#     4  11  22  38  57  83 115 152 200 252 304 363
#     4  10  20  32  51  77 111 148 195 253 303 352
#     4   9  19  35  56  83 113 144 183 223 268 330
#     4   9  19  37  59  84 115 150 183 225 284 346
#     4  12  21  32  48  76 117 162 205 256 317 354
#     4  10  18  32  55  82 108 144 194 246 293 345
#     4  11  23  40  63  89 117 151 189 236 294 356
#
# _framework density 17.680232
#
# number of rings (size 3 to 8) (size 9 to 14) (size 15 to 20)
#    0.000    1.931    1.379    3.931    0.000    6.069 
#    0.000    1.379    0.000    0.414    0.000   10.621 
#    0.000    0.000    0.000    0.000    0.000    0.000 
#
# Total GULP energy -645865.978145 kJ/mol
# GULP energy per Si atom -5567.810156 kJ/mol
# Density = 1.763999 g / cm^3
# Si number density = 17.680232 Si / 1000 Ang^3
#
#
#
# Elastic Constant Matrix: (Units=GPa)
#
#
# Indices 1 2 3 4 5 6 
#
# 1 104.0956 66.7539 30.7563 0.0000 0.0000 0.0000
# 2 66.7539 104.0980 30.7576 0.0000 0.0000 0.0000
# 3 30.7563 30.7576 52.2172 0.0000 0.0000 0.0000
# 4 0.0000 0.0000 0.0000 23.2291 0.0000 0.0000
# 5 0.0000 0.0000 0.0000 0.0000 23.2289 0.0000
# 6 0.0000 0.0000 0.0000 0.0000 0.0000 38.1348
#
#
#
# Elastic Compliance Matrix: (Units=1/GPa)
#
#
# Indices 1 2 3 4 5 6 
#
# 1 0.017104 -0.009675 -0.004375 0.000000 0.000000 0.000000
# 2 -0.009675 0.017104 -0.004376 0.000000 0.000000 0.000000
# 3 -0.004375 -0.004376 0.024305 0.000000 0.000000 0.000000
# 4 0.000000 0.000000 0.000000 0.043049 0.000000 0.000000
# 5 0.000000 0.000000 0.000000 0.000000 0.043050 0.000000
# 6 0.000000 0.000000 0.000000 0.000000 0.000000 0.026223
#
#
# Mechanical properties :
#
#
# Convention : Reuss Voigt Hill
#
# Bulk Modulus (GPa) = 46.16770 57.43850 51.80310
# Shear Modulus (GPa) = 23.26587 25.72809 24.49698
#
# Velocity S-wave (km/s) = 3.63150 3.81883 3.72635
# Velocity P-wave (km/s) = 6.61461 7.21128 6.91938
#
# Compressibility (1/GPa) = 0.02166017
#
# Stress axis : x y z
#
# Youngs Moduli (GPa) = 58.46681 58.46741 41.14333
#
# Poissons Ratio (x) = 0.56568 0.18001
# Poissons Ratio (y) = 0.56568 0.18003
# Poissons Ratio (z) = 0.25580 0.25584
#
# Static dielectric constant tensor:
#      x y z
#    x 1.620890 0.000000 0.000000 
#    y 0.000000 1.620890 0.000000 
#    z 0.000000 0.000000 1.600800 
# 
# From -- ./inp_files/1815.got.cif
#   From: 2010.05.17/outbox.ucp.g08.bks.cvg/sg128_1_cif.got.tgz:1815.got - 2010.06.11 11:37:33.
