data_PCOD9565050
_publ_section_title
;
Structure prediction by ZEFSAII (Michael W. Deem and Ramdas Pophale) SiO2 
 PCOD9565050
Probable space group: P 4/M N C
;
_chemical_formula_sum "Si O2"
_cell_formula_units_Z 56
_cell_length_a 15.208999
_cell_length_b 15.208999
_cell_length_c 11.410577
_cell_angle_alpha 90.000000
_cell_angle_beta 90.000000
_cell_angle_gamma 90.000000
_cell_volume 2639.422221
_symmetry_space_group_name_H-M "P 4/M N C"
_symmetry_group_IT_number 128
_symmetry_cell_setting 'tetragonal'
loop_
_space_group_symop_operation_xyz
x,y,z
-y,x,z
-x,-y,z
y,-x,z
1/2+x,1/2-y,1/2-z
1/2-x,1/2+y,1/2-z
1/2+y,1/2+x,1/2-z
1/2-y,1/2-x,1/2-z
-x,-y,-z
y,-x,-z
x,y,-z
-y,x,-z
1/2-x,1/2+y,1/2+z
1/2+x,1/2-y,1/2+z
1/2-y,1/2-x,1/2+z
1/2+y,1/2+x,1/2+z
loop_
_atom_site_type_symbol
_atom_site_label
_atom_site_fract_x
_atom_site_fract_y
_atom_site_fract_z
Si Si1 0.228482 0.973605 0.132263
Si Si2 0.372369 0.579620 0.000000
Si Si3 0.155942 0.806128 0.741390
Si Si4 0.906045 0.454281 0.372843
O O1 0.191553 0.900823 0.217646
O O2 0.212650 0.073366 0.173464
O O3 0.333821 0.969559 0.131766
O O4 0.195237 0.960251 0.000000
O O5 0.382977 0.473213 0.000000
O O6 0.320451 0.615114 0.113032
O O7 0.233732 0.733732 0.750000
O O8 0.902054 0.402054 0.250000
O O9 0.893134 0.407669 0.500000
O O10 0.000000 0.500000 0.375706
#
# Coordination Sequence:
#
# PCOD9565050 Si02
#       4
#    16   8  16  16
#     4  11  25  46  68 102 139 188 239 296 362 440
#     4  11  24  52  80 106 146 195 254 318 376 435
#     4  12  27  47  73 107 146 188 242 303 369 438
#     4   9  19  38  62  92 131 176 229 285 349 429
#
# _framework density 21.216764999999999
#
# number of rings (size 3 to 8) (size 9 to 14) (size 15 to 20)
#    0.000    1.286    2.857    1.714    8.000    0.571 
#    5.143    1.429    0.000    0.000    0.000    0.000 
#    0.000    0.000    0.000    0.000    0.000    0.000 
#
# Total GULP energy -312517.725019 kJ/mol
# GULP energy per Si atom -5580.673661 kJ/mol
# Density = 2.116848 g / cm^3
# Si number density = 21.216765 Si / 1000 Ang^3
#
#
#
# Elastic Constant Matrix: (Units=GPa)
#
#
# Indices 1 2 3 4 5 6 
#
# 1 76.7944 22.6216 -0.7019 0.0000 0.0000 0.0000
# 2 22.6216 76.7944 -0.7019 0.0000 0.0000 0.0000
# 3 -0.7019 -0.7019 158.7494 0.0000 0.0000 0.0000
# 4 0.0000 0.0000 0.0000 20.3754 0.0000 0.0000
# 5 0.0000 0.0000 0.0000 0.0000 20.3754 0.0000
# 6 0.0000 0.0000 0.0000 0.0000 0.0000 31.4957
#
#
#
# Elastic Compliance Matrix: (Units=1/GPa)
#
#
# Indices 1 2 3 4 5 6 
#
# 1 0.014259 -0.004200 0.000044 0.000000 0.000000 0.000000
# 2 -0.004200 0.014259 0.000044 0.000000 0.000000 0.000000
# 3 0.000044 0.000044 0.006300 0.000000 0.000000 0.000000
# 4 0.000000 0.000000 0.000000 0.049079 0.000000 0.000000
# 5 0.000000 0.000000 0.000000 0.000000 0.049079 0.000000
# 6 0.000000 0.000000 0.000000 0.000000 0.000000 0.031750
#
#
# Mechanical properties :
#
#
# Convention : Reuss Voigt Hill
#
# Bulk Modulus (GPa) = 37.59924 39.41931 38.50927
# Shear Modulus (GPa) = 27.50059 33.85730 30.67895
#
# Velocity S-wave (km/s) = 3.60415 3.99906 3.80673
# Velocity P-wave (km/s) = 5.92282 6.32004 6.12465
#
# Compressibility (1/GPa) = 0.02659628
#
# Stress axis : x y z
#
# Youngs Moduli (GPa) = 70.12911 70.12911 158.73950
#
# Poissons Ratio (x) = 0.29455 -0.00706
# Poissons Ratio (y) = 0.29455 -0.00706
# Poissons Ratio (z) = -0.00312 -0.00312
#
# Static dielectric constant tensor:
#      x y z
#    x 1.781220 0.000000 0.000000 
#    y 0.000000 1.781220 0.000000 
#    z 0.000000 0.000000 1.803100 
# 
# From -- ./inp_files/2303.got.cif
#   From: 2010.05.17/outbox.cif.g08.bks.cpg/sg128_2_cif.got.tgz:2303.got - 2010.05.20 12:07:25.
