data_PCOD9565779
_publ_section_title
;
Structure prediction by ZEFSAII (Michael W. Deem and Ramdas Pophale) SiO2 
 PCOD9565779
Probable space group: P 4/N C C
;
_chemical_formula_sum "Si O2"
_cell_formula_units_Z 80
_cell_length_a 10.821141
_cell_length_b 10.821141
_cell_length_c 27.070630
_cell_angle_alpha 90.000000
_cell_angle_beta 90.000000
_cell_angle_gamma 90.000000
_cell_volume 3169.892066
_symmetry_space_group_name_H-M "P 4/N C C"
_symmetry_group_IT_number 130
_symmetry_cell_setting 'tetragonal'
loop_
_space_group_symop_operation_xyz
x,y,z
1/2-y,x,z
1/2-x,1/2-y,z
y,1/2-x,z
1/2+x,-y,1/2-z
-x,1/2+y,1/2-z
1/2+y,1/2+x,1/2-z
-y,-x,1/2-z
-x,-y,-z
1/2+y,-x,-z
1/2+x,1/2+y,-z
-y,1/2+x,-z
1/2-x,y,1/2+z
x,1/2-y,1/2+z
1/2-y,1/2-x,1/2+z
y,x,1/2+z
loop_
_atom_site_type_symbol
_atom_site_label
_atom_site_fract_x
_atom_site_fract_y
_atom_site_fract_z
Si Si1 0.799575 0.388663 0.879167
Si Si2 0.150983 0.080712 0.302610
Si Si3 0.561480 0.197584 0.018587
Si Si4 0.467633 0.084120 0.706264
Si Si5 0.672613 0.565371 0.073973
O O1 0.750000 0.250000 0.866426
O O2 0.716129 0.445811 0.923022
O O3 0.822986 0.484687 0.834747
O O4 0.935062 0.368786 0.903883
O O5 0.291358 0.086037 0.318305
O O6 0.150325 0.087694 0.242126
O O7 0.056487 0.972781 0.315659
O O8 0.606526 0.325784 0.993704
O O9 0.446463 0.159250 0.985673
O O10 0.572972 0.072972 0.750000
O O11 0.814573 0.594168 0.087726
#
# Coordination Sequence:
#
# PCOD9565779 Si02
#       5
#    16  16  16  16  16
#     4  11  20  39  58  86 118 156 197 236 297 354
#     4   8  16  38  60  75 111 157 191 237 293 343
#     4   9  16  35  59  80 112 152 189 230 285 358
#     4   8  21  36  52  89 109 146 199 238 283 344
#     4  10  22  39  60  91 120 149 195 249 298 349
#
# _framework density 25.237452000000001
#
# number of rings (size 3 to 8) (size 9 to 14) (size 15 to 20)
#    1.200    1.400    4.000    0.000    0.000    5.200 
#   10.800    2.000    0.000    2.400    0.000    0.000 
#    0.000    0.000    0.000    0.000    0.000    0.000 
#
# Total GULP energy -446392.195842 kJ/mol
# GULP energy per Si atom -5579.902448 kJ/mol
# Density = 2.518001 g / cm^3
# Si number density = 25.237452 Si / 1000 Ang^3
#
#
#
# Elastic Constant Matrix: (Units=GPa)
#
#
# Indices 1 2 3 4 5 6 
#
# 1 45.1288 14.7926 8.1426 0.0000 0.0000 0.0000
# 2 14.7926 45.1288 8.1426 0.0000 0.0000 0.0000
# 3 8.1426 8.1426 125.2997 0.0000 0.0000 0.0000
# 4 0.0000 0.0000 0.0000 42.5474 0.0000 0.0000
# 5 0.0000 0.0000 0.0000 0.0000 42.5474 0.0000
# 6 0.0000 0.0000 0.0000 0.0000 0.0000 18.6428
#
#
#
# Elastic Compliance Matrix: (Units=1/GPa)
#
#
# Indices 1 2 3 4 5 6 
#
# 1 0.024976 -0.007988 -0.001104 0.000000 0.000000 0.000000
# 2 -0.007988 0.024976 -0.001104 0.000000 0.000000 0.000000
# 3 -0.001104 -0.001104 0.008124 0.000000 0.000000 0.000000
# 4 0.000000 0.000000 0.000000 0.023503 0.000000 0.000000
# 5 0.000000 0.000000 0.000000 0.000000 0.023503 0.000000
# 6 0.000000 0.000000 0.000000 0.000000 0.000000 0.053640
#
#
# Mechanical properties :
#
#
# Convention : Reuss Voigt Hill
#
# Bulk Modulus (GPa) = 26.53543 30.85699 28.69621
# Shear Modulus (GPa) = 26.08564 33.04616 29.56590
#
# Velocity S-wave (km/s) = 3.21847 3.62250 3.42644
# Velocity P-wave (km/s) = 4.93442 5.45435 5.20088
#
# Compressibility (1/GPa) = 0.03768547
#
# Stress axis : x y z
#
# Youngs Moduli (GPa) = 40.03809 40.03809 123.08678
#
# Poissons Ratio (x) = 0.31981 0.13589
# Poissons Ratio (y) = 0.31981 0.13589
# Poissons Ratio (z) = 0.04420 0.04420
#
# Static dielectric constant tensor:
#      x y z
#    x 2.008560 0.000000 0.000000 
#    y 0.000000 2.008560 0.000000 
#    z 0.000000 0.000000 2.159160 
# 
# From -- ./inp_files/4782.got.cif
#   From: 2010.05.17/outbox.cif.g08.bks.cpg/sg130_3_cif.got.tgz:4782.got - 2010.05.20 12:17:35.
