data_PCOD9565773
_publ_section_title
;
Structure prediction by ZEFSAII (Michael W. Deem and Ramdas Pophale) SiO2 
 PCOD9565773
Probable space group: P 4/N C C
;
_chemical_formula_sum "Si O2"
_cell_formula_units_Z 96
_cell_length_a 22.087939
_cell_length_b 22.087939
_cell_length_c 11.166795
_cell_angle_alpha 90.000000
_cell_angle_beta 90.000000
_cell_angle_gamma 90.000000
_cell_volume 5448.022994
_symmetry_space_group_name_H-M "P 4/N C C"
_symmetry_group_IT_number 130
_symmetry_cell_setting 'tetragonal'
loop_
_space_group_symop_operation_xyz
x,y,z
1/2-y,x,z
1/2-x,1/2-y,z
y,1/2-x,z
1/2+x,-y,1/2-z
-x,1/2+y,1/2-z
1/2+y,1/2+x,1/2-z
-y,-x,1/2-z
-x,-y,-z
1/2+y,-x,-z
1/2+x,1/2+y,-z
-y,1/2+x,-z
1/2-x,y,1/2+z
x,1/2-y,1/2+z
1/2-y,1/2-x,1/2+z
y,x,1/2+z
loop_
_atom_site_type_symbol
_atom_site_label
_atom_site_fract_x
_atom_site_fract_y
_atom_site_fract_z
Si Si1 0.655424 0.242173 0.542286
Si Si2 0.158865 0.658865 0.250000
Si Si3 0.828073 0.474896 0.677930
Si Si4 0.505406 0.410885 0.529654
Si Si5 0.455412 0.797934 0.601142
Si Si6 0.504388 0.897688 0.424182
Si Si7 0.597086 0.097086 0.250000
O O1 0.690456 0.303866 0.521876
O O2 0.656299 0.220459 0.677553
O O3 0.588252 0.236370 0.492976
O O4 0.159191 0.597558 0.325649
O O5 0.852917 0.501496 0.554299
O O6 0.755683 0.484931 0.678729
O O7 0.864778 0.497215 0.795626
O O8 0.549466 0.454212 0.448623
O O9 0.439073 0.436635 0.559103
O O10 0.543358 0.405786 0.652000
O O11 0.495516 0.845592 0.525027
O O12 0.413271 0.840018 0.683309
#
# Coordination Sequence:
#
# PCOD9565773 Si02
#       7
#    16   8  16  16  16  16   8
#     4  11  24  35  46  68 101 151 201 238 274 323
#     4  12  20  36  52  68 101 144 197 236 280 328
#     4  12  22  37  60  76 112 149 189 245 298 347
#     4  10  22  38  60  78 109 149 199 241 297 350
#     4  11  24  36  55  81 114 147 194 241 294 345
#     4  10  22  38  57  83 107 146 196 240 290 355
#     4  10  24  37  54  85 113 152 193 249 284 351
#
# _framework density 17.621072000000002
#
# number of rings (size 3 to 8) (size 9 to 14) (size 15 to 20)
#    0.000    1.167    5.000    1.000   11.667    1.333 
#    0.000    0.000    0.000    0.000    0.000    0.000 
#    0.000    0.667    2.000    0.000    0.000    0.000 
#
# Total GULP energy -535406.755348 kJ/mol
# GULP energy per Si atom -5577.153702 kJ/mol
# Density = 1.758097 g / cm^3
# Si number density = 17.621072 Si / 1000 Ang^3
#
#
#
# Elastic Constant Matrix: (Units=GPa)
#
#
# Indices 1 2 3 4 5 6 
#
# 1 71.5275 37.6713 35.7947 0.0000 0.0000 0.0000
# 2 37.6713 71.5275 35.7947 0.0000 0.0000 0.0000
# 3 35.7947 35.7947 92.4232 0.0000 0.0000 0.0000
# 4 0.0000 0.0000 0.0000 18.4363 0.0000 0.0000
# 5 0.0000 0.0000 0.0000 0.0000 18.4363 0.0000
# 6 0.0000 0.0000 0.0000 0.0000 0.0000 7.0368
#
#
#
# Elastic Compliance Matrix: (Units=1/GPa)
#
#
# Indices 1 2 3 4 5 6 
#
# 1 0.020905 -0.008631 -0.004754 0.000000 0.000000 0.000000
# 2 -0.008631 0.020905 -0.004754 0.000000 0.000000 0.000000
# 3 -0.004754 -0.004754 0.014502 0.000000 0.000000 0.000000
# 4 0.000000 0.000000 0.000000 0.054241 0.000000 0.000000
# 5 0.000000 0.000000 0.000000 0.000000 0.054241 0.000000
# 6 0.000000 0.000000 0.000000 0.000000 0.000000 0.142111
#
#
# Mechanical properties :
#
#
# Convention : Reuss Voigt Hill
#
# Bulk Modulus (GPa) = 49.91160 50.44442 50.17801
# Shear Modulus (GPa) = 14.29138 17.19634 15.74386
#
# Velocity S-wave (km/s) = 2.85096 3.12732 2.99234
# Velocity P-wave (km/s) = 6.26289 6.45985 6.36213
#
# Compressibility (1/GPa) = 0.02003542
#
# Stress axis : x y z
#
# Youngs Moduli (GPa) = 47.83452 47.83452 68.95653
#
# Poissons Ratio (x) = 0.41288 0.32779
# Poissons Ratio (y) = 0.41288 0.32779
# Poissons Ratio (z) = 0.22739 0.22739
#
# Static dielectric constant tensor:
#      x y z
#    x 1.631370 0.000000 0.000000 
#    y 0.000000 1.631370 0.000000 
#    z 0.000000 0.000000 1.696520 
# 
# From -- ./inp_files/1800.got.cif
#   From: 2010.05.17/outbox.cif.g08.bks.cpg/sg130_1_cif.got.tgz:1800.got - 2010.05.20 12:17:35.
