data_PCOD9565608
_publ_section_title
;
Structure prediction by ZEFSAII (Michael W. Deem and Ramdas Pophale) SiO2 
 PCOD9565608
Probable space group: P 4/N C C
;
_chemical_formula_sum "Si O2"
_cell_formula_units_Z 76
_cell_length_a 17.146888
_cell_length_b 17.146888
_cell_length_c 14.604919
_cell_angle_alpha 90.000000
_cell_angle_beta 90.000000
_cell_angle_gamma 90.000000
_cell_volume 4294.076478
_symmetry_space_group_name_H-M "P 4/N C C"
_symmetry_group_IT_number 130
_symmetry_cell_setting 'tetragonal'
loop_
_space_group_symop_operation_xyz
x,y,z
1/2-y,x,z
1/2-x,1/2-y,z
y,1/2-x,z
1/2+x,-y,1/2-z
-x,1/2+y,1/2-z
1/2+y,1/2+x,1/2-z
-y,-x,1/2-z
-x,-y,-z
1/2+y,-x,-z
1/2+x,1/2+y,-z
-y,1/2+x,-z
1/2-x,y,1/2+z
x,1/2-y,1/2+z
1/2-y,1/2-x,1/2+z
y,x,1/2+z
loop_
_atom_site_type_symbol
_atom_site_label
_atom_site_fract_x
_atom_site_fract_y
_atom_site_fract_z
Si Si1 0.250000 0.750000 0.250000
Si Si2 0.924128 0.254984 0.715884
Si Si3 0.557469 0.174467 0.412991
Si Si4 0.436476 0.936476 0.250000
Si Si5 0.461091 0.680737 0.459665
Si Si6 0.057599 0.457373 0.429633
O O1 0.169106 0.748398 0.306706
O O2 0.930548 0.211066 0.812745
O O3 0.944972 0.346062 0.720483
O O4 0.977594 0.211833 0.641969
O O5 0.619853 0.108862 0.441881
O O6 0.565220 0.244623 0.483453
O O7 0.474428 0.129752 0.417499
O O8 0.495641 0.948204 0.165886
O O9 0.528026 0.640007 0.520455
O O10 0.000000 0.500000 0.500000
#
# Coordination Sequence:
#
# PCOD9565608 Si02
#       6
#     4  16  16   8  16  16
#     4  10  20  30  50  84 124 152 184 222 296 366
#     4  11  21  35  55  86 121 157 191 243 303 356
#     4  11  23  37  58  88 120 163 198 247 301 359
#     4  11  22  40  58  90 124 154 202 245 292 372
#     4  11  22  38  56  86 119 157 202 240 304 359
#     4  10  23  38  58  83 119 165 204 244 292 359
#
# _framework density 17.698799999999999
#
# number of rings (size 3 to 8) (size 9 to 14) (size 15 to 20)
#    0.000    1.263    4.211    2.526    8.842    0.421 
#    0.000    0.000    0.000    0.632    0.000    0.000 
#    0.000    0.000    0.000    0.000    0.000    0.000 
#
# Total GULP energy -423667.844658 kJ/mol
# GULP energy per Si atom -5574.576903 kJ/mol
# Density = 1.765852 g / cm^3
# Si number density = 17.698800 Si / 1000 Ang^3
#
#
#
# Elastic Constant Matrix: (Units=GPa)
#
#
# Indices 1 2 3 4 5 6 
#
# 1 33.2956 33.5038 25.5285 0.0000 0.0000 0.0000
# 2 33.5038 33.2956 25.5285 0.0000 0.0000 0.0000
# 3 25.5285 25.5285 105.8640 0.0000 0.0000 0.0000
# 4 0.0000 0.0000 0.0000 -64.1275 0.0000 0.0000
# 5 0.0000 0.0000 0.0000 0.0000 -64.1275 0.0000
# 6 0.0000 0.0000 0.0000 0.0000 0.0000 1.5741
#
#
#
# Elastic Compliance Matrix: (Units=1/GPa)
#
#
# Indices 1 2 3 4 5 6 
#
# 1 -2.392752 2.411105 -0.004426 0.000000 0.000000 0.000000
# 2 2.411105 -2.392752 -0.004426 0.000000 0.000000 0.000000
# 3 -0.004426 -0.004426 0.011581 0.000000 0.000000 0.000000
# 4 0.000000 0.000000 0.000000 -0.015594 0.000000 0.000000
# 5 0.000000 0.000000 0.000000 0.000000 -0.015594 0.000000
# 6 0.000000 0.000000 0.000000 0.000000 0.000000 0.635272
#
#
# Mechanical properties :
#
#
# Convention : Reuss Voigt Hill
#
# Bulk Modulus (GPa) = 32.69729 37.95297 35.32513
# Shear Modulus (GPa) = -0.55778 -19.47656 -10.01717
#
# Velocity S-wave (km/s) = -0.56199 -3.32089 -2.38161
# Velocity P-wave (km/s) = 4.25362 2.60498 3.52698
#
# Compressibility (1/GPa) = 0.03058357
#
# Stress axis : x y z
#
# Youngs Moduli (GPa) = -0.41793 -0.41793 86.35173
#
# Poissons Ratio (x) = 1.00767 0.38217
# Poissons Ratio (y) = 1.00767 0.38217
# Poissons Ratio (z) = -0.00185 -0.00185
#
# Static dielectric constant tensor:
#      x y z
#    x 1.629060 0.000000 0.000000 
#    y 0.000000 1.629060 0.000000 
#    z 0.000000 0.000000 1.608390 
# 
# From -- ./inp_files/2347.got.cif
#   From: 2010.05.17/outbox.cif.g08.bks.cpg/sg130_2_cif.got.tgz:2347.got - 2010.05.20 12:17:35.
