data_PCOD9565508
_publ_section_title
;
Structure prediction by ZEFSAII (Michael W. Deem and Ramdas Pophale) SiO2 
 PCOD9565508
Probable space group: P 4/N M M
;
_chemical_formula_sum "Si O2"
_cell_formula_units_Z 52
_cell_length_a 15.462360
_cell_length_b 15.462360
_cell_length_c 9.448580
_cell_angle_alpha 90.000000
_cell_angle_beta 90.000000
_cell_angle_gamma 90.000000
_cell_volume 2259.009750
_symmetry_space_group_name_H-M "P 4/N M M"
_symmetry_group_IT_number 129
_symmetry_cell_setting 'tetragonal'
loop_
_space_group_symop_operation_xyz
x,y,z
1/2-y,x,z
1/2-x,1/2-y,z
y,1/2-x,z
1/2+x,-y,-z
-x,1/2+y,-z
1/2+y,1/2+x,-z
-y,-x,-z
-x,-y,-z
1/2+y,-x,-z
1/2+x,1/2+y,-z
-y,1/2+x,-z
1/2-x,y,z
x,1/2-y,z
1/2-y,1/2-x,z
y,x,z
loop_
_atom_site_type_symbol
_atom_site_label
_atom_site_fract_x
_atom_site_fract_y
_atom_site_fract_z
Si Si1 0.750000 0.891361 0.391756
Si Si2 0.250000 0.250000 0.276278
Si Si3 0.392723 0.250000 0.946543
Si Si4 0.250000 0.750000 0.500000
Si Si5 0.250000 0.037611 0.232807
Si Si6 0.250000 0.572843 0.668897
Si Si7 0.938281 0.078536 0.329010
O O1 0.666935 0.833066 0.428743
O O2 0.750000 0.989725 0.437138
O O3 0.750000 0.904097 0.221539
O O4 0.250000 0.140537 0.272993
O O5 0.332808 0.332808 0.977521
O O6 0.466921 0.250000 0.061009
O O7 0.250000 0.664082 0.591139
O O8 0.336110 0.989611 0.285400
O O9 0.156290 0.570852 0.741442
O O10 0.924011 0.075990 0.500000
O O11 0.995596 0.995596 0.292517
#
# Coordination Sequence:
#
# PCOD9565508 Si02
#       7
#     8   2   8   2   8   8  16
#     4   9  20  38  67  97 129 160 196 252 323 381
#     4  12  20  36  68 100 128 146 208 284 324 352
#     4   9  15  32  62  98 126 155 196 256 321 375
#     4  12  24  40  64  80 106 172 224 260 294 360
#     4  12  20  39  64  97 125 160 204 265 324 363
#     4  12  22  43  58  86 119 171 215 253 301 374
#     4  11  23  37  60  87 123 165 208 260 315 372
#
# _framework density 23.018934999999999
#
# number of rings (size 3 to 8) (size 9 to 14) (size 15 to 20)
#    0.000    1.231    4.615    3.692    0.000    0.000 
#    0.000    1.538    0.000    7.385    0.000    0.000 
#    0.000    0.000    0.000    0.000    0.000    0.000 
#
# Total GULP energy -290248.881241 kJ/mol
# GULP energy per Si atom -5581.709255 kJ/mol
# Density = 2.296654 g / cm^3
# Si number density = 23.018935 Si / 1000 Ang^3
#
#
#
# Elastic Constant Matrix: (Units=GPa)
#
#
# Indices 1 2 3 4 5 6 
#
# 1 199.3262 74.1046 7.1773 0.0000 0.0000 0.0000
# 2 74.1046 199.3260 7.1774 0.0000 0.0000 0.0000
# 3 7.1773 7.1774 72.9716 0.0000 0.0000 0.0000
# 4 0.0000 0.0000 0.0000 13.1849 0.0000 0.0000
# 5 0.0000 0.0000 0.0000 0.0000 13.1851 0.0000
# 6 0.0000 0.0000 0.0000 0.0000 0.0000 50.9948
#
#
#
# Elastic Compliance Matrix: (Units=1/GPa)
#
#
# Indices 1 2 3 4 5 6 
#
# 1 0.005831 -0.002155 -0.000362 0.000000 0.000000 0.000000
# 2 -0.002155 0.005831 -0.000362 0.000000 0.000000 0.000000
# 3 -0.000362 -0.000362 0.013775 0.000000 0.000000 0.000000
# 4 0.000000 0.000000 0.000000 0.075844 0.000000 0.000000
# 5 0.000000 0.000000 0.000000 0.000000 0.075843 0.000000
# 6 0.000000 0.000000 0.000000 0.000000 0.000000 0.019610
#
#
# Mechanical properties :
#
#
# Convention : Reuss Voigt Hill
#
# Bulk Modulus (GPa) = 50.80995 72.06027 61.43511
# Shear Modulus (GPa) = 23.91765 41.01727 32.46746
#
# Velocity S-wave (km/s) = 3.22691 4.22583 3.75969
# Velocity P-wave (km/s) = 6.00042 7.42852 6.75233
#
# Compressibility (1/GPa) = 0.01968118
#
# Stress axis : x y z
#
# Youngs Moduli (GPa) = 171.49626 171.49608 72.59477
#
# Poissons Ratio (x) = 0.36954 0.02625
# Poissons Ratio (y) = 0.36954 0.02625
# Poissons Ratio (z) = 0.06201 0.06201
#
# Static dielectric constant tensor:
#      x y z
#    x 1.903930 0.000000 0.000000 
#    y 0.000000 1.903940 0.000000 
#    z 0.000000 0.000000 1.977320 
# 
# From -- ./inp_files/3310.got.cif
#   From: 2010.05.17/outbox.cif.g08.bks.cpg/sg129_2_cif.got.tgz:3310.got - 2010.05.20 12:12:06.
