data_PCOD9565405
_publ_section_title
;
Structure prediction by ZEFSAII (Michael W. Deem and Ramdas Pophale) SiO2 
 PCOD9565405
Probable space group: P 4/N M M
;
_chemical_formula_sum "Si O2"
_cell_formula_units_Z 96
_cell_length_a 23.697456
_cell_length_b 23.697456
_cell_length_c 10.106796
_cell_angle_alpha 90.000000
_cell_angle_beta 90.000000
_cell_angle_gamma 90.000000
_cell_volume 5675.667577
_symmetry_space_group_name_H-M "P 4/N M M"
_symmetry_group_IT_number 129
_symmetry_cell_setting 'tetragonal'
loop_
_space_group_symop_operation_xyz
x,y,z
1/2-y,x,z
1/2-x,1/2-y,z
y,1/2-x,z
1/2+x,-y,-z
-x,1/2+y,-z
1/2+y,1/2+x,-z
-y,-x,-z
-x,-y,-z
1/2+y,-x,-z
1/2+x,1/2+y,-z
-y,1/2+x,-z
1/2-x,y,z
x,1/2-y,z
1/2-y,1/2-x,z
y,x,z
loop_
_atom_site_type_symbol
_atom_site_label
_atom_site_fract_x
_atom_site_fract_y
_atom_site_fract_z
Si Si1 0.683662 0.506546 0.735685
Si Si2 0.313513 0.632053 0.879478
Si Si3 0.886912 0.399188 0.650473
Si Si4 0.886816 0.519579 0.294335
Si Si5 0.001147 0.684448 0.041757
Si Si6 0.590432 0.816215 0.502883
O O1 0.750000 0.488976 0.727269
O O2 0.643307 0.458719 0.675609
O O3 0.677737 0.562482 0.647835
O O4 0.670590 0.513989 0.890746
O O5 0.250000 0.638245 0.831142
O O6 0.356517 0.637792 0.759089
O O7 0.319781 0.568875 0.939461
O O8 0.326727 0.673274 0.000000
O O9 0.879262 0.379262 0.500000
O O10 0.954433 0.400673 0.675156
O O11 0.942617 0.557384 0.299554
O O12 0.856973 0.523814 0.151474
O O13 0.843226 0.545412 0.400833
O O14 0.985679 0.750000 0.067595
O O15 0.598795 0.750000 0.476045
O O16 0.647014 0.852987 0.492585
#
# Coordination Sequence:
#
# PCOD9565405 Si02
#       6
#    16  16  16  16  16  16
#     4  10  20  35  55  78 107 144 185 225 267 323
#     4  10  20  34  53  76 101 136 182 226 268 314
#     4  11  21  35  54  79 112 145 182 223 274 328
#     4  10  21  34  53  82 113 142 176 221 275 331
#     4   9  18  34  55  75 103 140 180 221 264 320
#     4  10  21  37  57  82 110 142 181 221 268 325
#
# _framework density 16.91431
#
# number of rings (size 3 to 8) (size 9 to 14) (size 15 to 20)
#    0.000    2.000    3.333    0.500    0.000    3.333 
#    0.000    0.833    0.000    0.000    0.000    1.167 
#    0.000    4.000    0.000    0.000    0.000    0.000 
#
# Total GULP energy -535496.864014 kJ/mol
# GULP energy per Si atom -5578.092333 kJ/mol
# Density = 1.687581 g / cm^3
# Si number density = 16.914310 Si / 1000 Ang^3
#
#
#
# Elastic Constant Matrix: (Units=GPa)
#
#
# Indices 1 2 3 4 5 6 
#
# 1 63.0213 37.7201 21.9008 0.0000 0.0000 0.0000
# 2 37.7201 63.0179 21.8986 0.0000 0.0000 0.0000
# 3 21.9008 21.8986 97.5932 0.0000 0.0000 0.0000
# 4 0.0000 0.0000 0.0000 21.9572 0.0000 0.0000
# 5 0.0000 0.0000 0.0000 0.0000 21.9573 0.0000
# 6 0.0000 0.0000 0.0000 0.0000 0.0000 8.7718
#
#
#
# Elastic Compliance Matrix: (Units=1/GPa)
#
#
# Indices 1 2 3 4 5 6 
#
# 1 0.025263 -0.014263 -0.002469 0.000000 0.000000 0.000000
# 2 -0.014263 0.025264 -0.002468 0.000000 0.000000 0.000000
# 3 -0.002469 -0.002468 0.011354 0.000000 0.000000 0.000000
# 4 0.000000 0.000000 0.000000 0.045543 0.000000 0.000000
# 5 0.000000 0.000000 0.000000 0.000000 0.045543 0.000000
# 6 0.000000 0.000000 0.000000 0.000000 0.000000 0.114001
#
#
# Mechanical properties :
#
#
# Convention : Reuss Voigt Hill
#
# Bulk Modulus (GPa) = 42.58836 42.96350 42.77593
# Shear Modulus (GPa) = 15.96450 20.01145 17.98798
#
# Velocity S-wave (km/s) = 3.07554 3.44336 3.26464
# Velocity P-wave (km/s) = 6.15187 6.42377 6.28929
#
# Compressibility (1/GPa) = 0.02348060
#
# Stress axis : x y z
#
# Youngs Moduli (GPa) = 39.58427 39.58266 88.07166
#
# Poissons Ratio (x) = 0.56458 0.21742
# Poissons Ratio (y) = 0.56460 0.21736
# Poissons Ratio (z) = 0.09772 0.09769
#
# Static dielectric constant tensor:
#      x y z
#    x 1.553180 0.000000 0.000000 
#    y 0.000000 1.553180 0.000000 
#    z 0.000000 0.000000 1.568670 
# 
# From -- ./inp_files/2607.got.cif
#   From: 2010.05.17/outbox.cif.g08.bks.cpg/sg129_2_cif.got.tgz:2607.got - 2010.05.20 12:12:06.
