data_PCOD9565757
_publ_section_title
;
Structure prediction by ZEFSAII (Michael W. Deem and Ramdas Pophale) SiO2 
 PCOD9565757
Probable space group: P 4/N C C
;
_chemical_formula_sum "Si O2"
_cell_formula_units_Z 56
_cell_length_a 16.107663
_cell_length_b 16.107663
_cell_length_c 8.292900
_cell_angle_alpha 90.000000
_cell_angle_beta 90.000000
_cell_angle_gamma 90.000000
_cell_volume 2151.649357
_symmetry_space_group_name_H-M "P 4/N C C"
_symmetry_group_IT_number 130
_symmetry_cell_setting 'tetragonal'
loop_
_space_group_symop_operation_xyz
x,y,z
1/2-y,x,z
1/2-x,1/2-y,z
y,1/2-x,z
1/2+x,-y,1/2-z
-x,1/2+y,1/2-z
1/2+y,1/2+x,1/2-z
-y,-x,1/2-z
-x,-y,-z
1/2+y,-x,-z
1/2+x,1/2+y,-z
-y,1/2+x,-z
1/2-x,y,1/2+z
x,1/2-y,1/2+z
1/2-y,1/2-x,1/2+z
y,x,1/2+z
loop_
_atom_site_type_symbol
_atom_site_label
_atom_site_fract_x
_atom_site_fract_y
_atom_site_fract_z
Si Si1 0.374950 0.783912 0.500473
Si Si2 0.396094 0.126382 0.287000
Si Si3 0.425943 0.574058 0.250000
Si Si4 0.268477 0.053638 0.515107
O O1 0.331102 0.703216 0.581453
O O2 0.407566 0.856241 0.617055
O O3 0.458968 0.745876 0.423467
O O4 0.477037 0.083212 0.210347
O O5 0.331280 0.061380 0.361777
O O6 0.419438 0.180599 0.443990
O O7 0.384486 0.198438 0.153066
#
# Coordination Sequence:
#
# PCOD9565757 Si02
#       4
#    16  16   8  16
#     4  10  21  42  69 106 152 189 252 303 390 460
#     4  11  24  46  70 107 147 193 259 303 394 452
#     4  10  22  43  66 106 152 193 244 310 384 470
#     4  11  24  46  72 106 146 202 246 322 375 473
#
# _framework density 26.026547000000001
#
# number of rings (size 3 to 8) (size 9 to 14) (size 15 to 20)
#    0.000    1.429    2.857    1.714    0.000    4.000 
#    5.143    2.857    0.000    0.000    0.000    0.000 
#    0.000    0.000    0.000    0.000    0.000    0.000 
#
# Total GULP energy -311863.429882 kJ/mol
# GULP energy per Si atom -5568.989819 kJ/mol
# Density = 2.596731 g / cm^3
# Si number density = 26.026547 Si / 1000 Ang^3
#
#
#
# Elastic Constant Matrix: (Units=GPa)
#
#
# Indices 1 2 3 4 5 6 
#
# 1 98.1403 69.1483 6.9096 0.0000 0.0000 0.0000
# 2 69.1483 98.1393 6.9091 0.0000 0.0000 0.0000
# 3 6.9096 6.9091 26.4947 0.0000 0.0000 0.0000
# 4 0.0000 0.0000 0.0000 31.5917 0.0000 0.0000
# 5 0.0000 0.0000 0.0000 0.0000 31.5925 0.0000
# 6 0.0000 0.0000 0.0000 0.0000 0.0000 44.4498
#
#
#
# Elastic Compliance Matrix: (Units=1/GPa)
#
#
# Indices 1 2 3 4 5 6 
#
# 1 0.020301 -0.014192 -0.001593 0.000000 0.000000 0.000000
# 2 -0.014192 0.020301 -0.001593 0.000000 0.000000 0.000000
# 3 -0.001593 -0.001593 0.038574 0.000000 0.000000 0.000000
# 4 0.000000 0.000000 0.000000 0.031654 0.000000 0.000000
# 5 0.000000 0.000000 0.000000 0.000000 0.031653 0.000000
# 6 0.000000 0.000000 0.000000 0.000000 0.000000 0.022497
#
#
# Mechanical properties :
#
#
# Convention : Reuss Voigt Hill
#
# Bulk Modulus (GPa) = 22.51227 43.18981 32.85104
# Shear Modulus (GPa) = 23.30524 30.84728 27.07626
#
# Velocity S-wave (km/s) = 2.99564 3.44644 3.22892
# Velocity P-wave (km/s) = 4.54243 5.69806 5.15274
#
# Compressibility (1/GPa) = 0.04442022
#
# Stress axis : x y z
#
# Youngs Moduli (GPa) = 49.25857 49.25820 25.92392
#
# Poissons Ratio (x) = 0.69906 0.04131
# Poissons Ratio (y) = 0.69907 0.04129
# Poissons Ratio (z) = 0.07849 0.07846
#
# Static dielectric constant tensor:
#      x y z
#    x 2.098920 0.000000 0.000000 
#    y 0.000000 2.098920 0.000000 
#    z 0.000000 0.000000 2.125280 
# 
# From -- ./inp_files/591.got.cif
#   From: 2010.05.17/outbox.cif.g08.bks.cpg/sg130_1_cif.got.tgz:591.got - 2010.05.20 12:17:35.
