data_PCOD9565639
_publ_section_title
;
Structure prediction by ZEFSAII (Michael W. Deem and Ramdas Pophale) SiO2 
 PCOD9565639
Probable space group: P 4/N C C
;
_chemical_formula_sum "Si O2"
_cell_formula_units_Z 96
_cell_length_a 22.950069
_cell_length_b 22.950069
_cell_length_c 8.236608
_cell_angle_alpha 90.000000
_cell_angle_beta 90.000000
_cell_angle_gamma 90.000000
_cell_volume 4338.268111
_symmetry_space_group_name_H-M "P 4/N C C"
_symmetry_group_IT_number 130
_symmetry_cell_setting 'tetragonal'
loop_
_space_group_symop_operation_xyz
x,y,z
1/2-y,x,z
1/2-x,1/2-y,z
y,1/2-x,z
1/2+x,-y,1/2-z
-x,1/2+y,1/2-z
1/2+y,1/2+x,1/2-z
-y,-x,1/2-z
-x,-y,-z
1/2+y,-x,-z
1/2+x,1/2+y,-z
-y,1/2+x,-z
1/2-x,y,1/2+z
x,1/2-y,1/2+z
1/2-y,1/2-x,1/2+z
y,x,1/2+z
loop_
_atom_site_type_symbol
_atom_site_label
_atom_site_fract_x
_atom_site_fract_y
_atom_site_fract_z
Si Si1 0.622809 0.708849 0.025675
Si Si2 0.131473 0.713740 0.844404
Si Si3 0.915903 0.175547 0.320695
Si Si4 0.672211 0.597358 0.862844
Si Si5 0.750000 0.750000 0.123399
Si Si6 0.524694 0.475307 0.750000
Si Si7 0.750000 0.250000 0.500000
Si Si8 0.093563 0.492285 0.442209
O O1 0.587394 0.678041 0.170273
O O2 0.679930 0.736163 0.112231
O O3 0.646939 0.662130 0.897004
O O4 0.592502 0.762824 0.937264
O O5 0.159779 0.659779 0.750000
O O6 0.090526 0.760949 0.758855
O O7 0.189682 0.748458 0.902597
O O8 0.097579 0.688023 0.993529
O O9 0.865841 0.134160 0.250000
O O10 0.974300 0.137854 0.322226
O O11 0.629817 0.556353 0.963690
O O12 0.530143 0.433124 0.593377
O O13 0.528936 0.539632 0.668106
#
# Coordination Sequence:
#
# PCOD9565639 Si02
#       8
#    16  16  16  16   4   8   4  16
#     4  10  20  35  60  93 134 171 206 262 328 404
#     4  12  22  37  63  97 140 181 212 271 344 416
#     4  12  23  41  63  98 132 175 233 280 328 410
#     4  11  22  38  62  96 132 172 217 271 336 404
#     4   8  16  30  52  86 120 166 204 214 292 410
#     4  10  24  50  72  90 119 181 232 294 348 408
#     4  12  18  32  62  88 130 172 226 228 338 432
#     4  11  25  45  71  96 124 172 240 288 344 401
#
# _framework density 22.128646
#
# number of rings (size 3 to 8) (size 9 to 14) (size 15 to 20)
#    0.000    1.000    4.167    3.250    1.167    4.000 
#    0.000    0.000    0.000    0.000    0.000    0.000 
#    0.000    0.000    0.000    0.000    0.000    0.000 
#
# Total GULP energy -535237.000605 kJ/mol
# GULP energy per Si atom -5575.385423 kJ/mol
# Density = 2.207828 g / cm^3
# Si number density = 22.128646 Si / 1000 Ang^3
#
#
#
# Elastic Constant Matrix: (Units=GPa)
#
#
# Indices 1 2 3 4 5 6 
#
# 1 27.1432 44.7856 3.2713 0.0000 0.0000 0.0000
# 2 44.7856 27.1442 3.2709 0.0000 0.0000 0.0000
# 3 3.2713 3.2709 59.0041 0.0000 0.0000 0.0000
# 4 0.0000 0.0000 0.0000 20.8237 0.0000 0.0000
# 5 0.0000 0.0000 0.0000 0.0000 20.8265 0.0000
# 6 0.0000 0.0000 0.0000 0.0000 0.0000 34.2571
#
#
#
# Elastic Compliance Matrix: (Units=1/GPa)
#
#
# Indices 1 2 3 4 5 6 
#
# 1 -0.021355 0.035328 -0.000774 0.000000 0.000000 0.000000
# 2 0.035328 -0.021355 -0.000775 0.000000 0.000000 0.000000
# 3 -0.000774 -0.000775 0.017034 0.000000 0.000000 0.000000
# 4 0.000000 0.000000 0.000000 0.048022 0.000000 0.000000
# 5 0.000000 0.000000 0.000000 0.000000 0.048016 0.000000
# 6 0.000000 0.000000 0.000000 0.000000 0.000000 0.029191
#
#
# Mechanical properties :
#
#
# Convention : Reuss Voigt Hill
#
# Bulk Modulus (GPa) = 23.87704 23.99415 23.93559
# Shear Modulus (GPa) = 108.80048 19.31236 64.05642
#
# Velocity S-wave (km/s) = 7.01954 2.95741 5.38610
# Velocity P-wave (km/s) = 8.74712 4.74639 7.03706
#
# Compressibility (1/GPa) = 0.04188124
#
# Stress axis : x y z
#
# Youngs Moduli (GPa) = -46.82642 -46.82813 58.70659
#
# Poissons Ratio (x) = 1.65435 0.04547
# Poissons Ratio (y) = 1.65429 0.04549
# Poissons Ratio (z) = -0.03626 -0.03628
#
# Static dielectric constant tensor:
#      x y z
#    x 1.832350 0.000000 0.000000 
#    y 0.000000 1.832360 0.000000 
#    z 0.000000 0.000000 1.834300 
# 
# From -- ./inp_files/983.got.cif
#   From: 2010.05.17/outbox.cif.g08.bks.cpg/sg130_1_cif.got.tgz:983.got - 2010.05.20 12:17:35.
