data_PCOD9565650
_publ_section_title
;
Structure prediction by ZEFSAII (Michael W. Deem and Ramdas Pophale) SiO2 
 PCOD9565650
Probable space group: P 4/N C C
;
_chemical_formula_sum "Si O2"
_cell_formula_units_Z 96
_cell_length_a 22.891958
_cell_length_b 22.891958
_cell_length_c 8.848777
_cell_angle_alpha 90.000000
_cell_angle_beta 90.000000
_cell_angle_gamma 90.000000
_cell_volume 4637.128505
_symmetry_space_group_name_H-M "P 4/N C C"
_symmetry_group_IT_number 130
_symmetry_cell_setting 'tetragonal'
loop_
_space_group_symop_operation_xyz
x,y,z
1/2-y,x,z
1/2-x,1/2-y,z
y,1/2-x,z
1/2+x,-y,1/2-z
-x,1/2+y,1/2-z
1/2+y,1/2+x,1/2-z
-y,-x,1/2-z
-x,-y,-z
1/2+y,-x,-z
1/2+x,1/2+y,-z
-y,1/2+x,-z
1/2-x,y,1/2+z
x,1/2-y,1/2+z
1/2-y,1/2-x,1/2+z
y,x,1/2+z
loop_
_atom_site_type_symbol
_atom_site_label
_atom_site_fract_x
_atom_site_fract_y
_atom_site_fract_z
Si Si1 0.422552 0.741444 0.233620
Si Si2 0.948247 0.621074 0.089848
Si Si3 0.549859 0.457132 0.931929
Si Si4 0.135282 0.027199 0.556652
Si Si5 0.507359 0.727194 0.480801
Si Si6 0.783487 0.158071 0.492955
O O1 0.473648 0.711042 0.327624
O O2 0.457998 0.777840 0.110251
O O3 0.383636 0.779680 0.348104
O O4 0.379244 0.700418 0.139815
O O5 0.959566 0.620126 0.268543
O O6 0.939293 0.686796 0.030124
O O7 0.896834 0.577161 0.042503
O O8 0.007940 0.604194 0.000103
O O9 0.546540 0.453461 0.750000
O O10 0.500000 0.500000 0.000000
O O11 0.533327 0.395080 0.004531
O O12 0.204600 0.023945 0.534744
O O13 0.716474 0.179276 0.522492
#
# Coordination Sequence:
#
# PCOD9565650 Si02
#       6
#    16  16  16  16  16  16
#     4  10  22  39  54  86 122 157 206 260 314 368
#     4  11  23  41  66  92 126 166 210 258 317 389
#     4  10  20  36  60  90 124 161 206 253 308 375
#     4  11  23  41  66  92 126 166 210 258 317 389
#     4  11  24  43  60  88 130 161 202 265 322 384
#     4  10  20  39  62  82 118 167 220 266 312 374
#
# _framework density 20.702466999999999
#
# number of rings (size 3 to 8) (size 9 to 14) (size 15 to 20)
#    0.000    1.500    1.667    5.500    4.667    1.333 
#   18.000    0.000    0.000    0.500    0.000    2.333 
#    0.000    0.000    0.000    0.000    0.000    0.000 
#
# Total GULP energy -535968.576693 kJ/mol
# GULP energy per Si atom -5583.006007 kJ/mol
# Density = 2.065535 g / cm^3
# Si number density = 20.702467 Si / 1000 Ang^3
#
#
#
# Elastic Constant Matrix: (Units=GPa)
#
#
# Indices 1 2 3 4 5 6 
#
# 1 86.7136 28.6279 30.3676 0.0000 0.0000 0.0000
# 2 28.6279 86.7136 30.3675 0.0000 0.0000 0.0000
# 3 30.3676 30.3675 157.1847 0.0000 0.0000 0.0000
# 4 0.0000 0.0000 0.0000 23.8265 0.0000 0.0000
# 5 0.0000 0.0000 0.0000 0.0000 23.8267 0.0000
# 6 0.0000 0.0000 0.0000 0.0000 0.0000 11.5817
#
#
#
# Elastic Compliance Matrix: (Units=1/GPa)
#
#
# Indices 1 2 3 4 5 6 
#
# 1 0.013434 -0.003782 -0.001865 0.000000 0.000000 0.000000
# 2 -0.003782 0.013434 -0.001865 0.000000 0.000000 0.000000
# 3 -0.001865 -0.001865 0.007082 0.000000 0.000000 0.000000
# 4 0.000000 0.000000 0.000000 0.041970 0.000000 0.000000
# 5 0.000000 0.000000 0.000000 0.000000 0.041970 0.000000
# 6 0.000000 0.000000 0.000000 0.000000 0.000000 0.086343
#
#
# Mechanical properties :
#
#
# Convention : Reuss Voigt Hill
#
# Bulk Modulus (GPa) = 52.83386 56.59311 54.71348
# Shear Modulus (GPa) = 22.16653 27.93024 25.04838
#
# Velocity S-wave (km/s) = 3.27573 3.67703 3.48217
# Velocity P-wave (km/s) = 6.31532 6.73967 6.53094
#
# Compressibility (1/GPa) = 0.01892726
#
# Stress axis : x y z
#
# Youngs Moduli (GPa) = 74.43871 74.43869 141.19419
#
# Poissons Ratio (x) = 0.28153 0.26328
# Poissons Ratio (y) = 0.28153 0.26328
# Poissons Ratio (z) = 0.13881 0.13881
#
# Static dielectric constant tensor:
#      x y z
#    x 1.837060 0.000000 0.000000 
#    y 0.000000 1.837060 0.000000 
#    z 0.000000 0.000000 1.785790 
# 
# From -- ./inp_files/921.got.cif
#   From: 2010.05.17/outbox.cif.g08.bks.cpg/sg130_1_cif.got.tgz:921.got - 2010.05.20 12:17:35.
