data_PCOD9565058
_publ_section_title
;
Structure prediction by ZEFSAII (Michael W. Deem and Ramdas Pophale) SiO2 
 PCOD9565058
Probable space group: P 4/M N C
;
_chemical_formula_sum "Si O2"
_cell_formula_units_Z 88
_cell_length_a 11.840702
_cell_length_b 11.840702
_cell_length_c 29.521843
_cell_angle_alpha 90.000000
_cell_angle_beta 90.000000
_cell_angle_gamma 90.000000
_cell_volume 4139.028041
_symmetry_space_group_name_H-M "P 4/M N C"
_symmetry_group_IT_number 128
_symmetry_cell_setting 'tetragonal'
loop_
_space_group_symop_operation_xyz
x,y,z
-y,x,z
-x,-y,z
y,-x,z
1/2+x,1/2-y,1/2-z
1/2-x,1/2+y,1/2-z
1/2+y,1/2+x,1/2-z
1/2-y,1/2-x,1/2-z
-x,-y,-z
y,-x,-z
x,y,-z
-y,x,-z
1/2-x,1/2+y,1/2+z
1/2+x,1/2-y,1/2+z
1/2-y,1/2-x,1/2+z
1/2+y,1/2+x,1/2+z
loop_
_atom_site_type_symbol
_atom_site_label
_atom_site_fract_x
_atom_site_fract_y
_atom_site_fract_z
Si Si1 0.698641 0.152048 0.090739
Si Si2 0.079205 0.174857 0.000000
Si Si3 0.093681 0.161323 0.178654
Si Si4 0.668123 0.917680 0.297749
Si Si5 0.157617 0.342384 0.750000
Si Si6 0.000000 0.500000 0.870236
Si Si7 0.645276 0.377419 0.133864
O O1 0.752320 0.113396 0.043792
O O2 0.783395 0.117078 0.130593
O O3 0.692235 0.288360 0.097228
O O4 0.579903 0.086678 0.101606
O O5 0.945798 0.144281 0.000000
O O6 0.140730 0.237002 0.218262
O O7 0.960552 0.147844 0.183145
O O8 0.637519 0.862482 0.250000
O O9 0.573958 0.917329 0.337652
O O10 0.781809 0.866419 0.319730
O O11 0.664348 0.049876 0.283790
O O12 0.651207 0.512761 0.130804
#
# Coordination Sequence:
#
# PCOD9565058 Si02
#       7
#    16   8  16  16   8   8  16
#     4  12  26  48  80 107 147 193 244 323 385 464
#     4  11  28  51  80 119 150 187 244 318 411 479
#     4  11  26  45  67  99 141 194 250 304 376 446
#     4  12  23  44  68 104 152 201 259 304 360 428
#     4  12  23  44  64 101 148 200 240 310 350 433
#     4  12  23  47  72 114 140 202 258 302 366 450
#     4  11  26  48  74 106 150 205 253 308 375 451
#
# _framework density 21.261030000000002
#
# number of rings (size 3 to 8) (size 9 to 14) (size 15 to 20)
#    0.000    0.455    5.455    1.091    7.636    4.727 
#    6.545    4.545    0.000    1.091    0.000    0.000 
#    0.000    0.000    0.000    0.000    0.000    0.000 
#
# Total GULP energy -491921.563581 kJ/mol
# GULP energy per Si atom -5590.017768 kJ/mol
# Density = 2.121264 g / cm^3
# Si number density = 21.261030 Si / 1000 Ang^3
#
#
#
# Elastic Constant Matrix: (Units=GPa)
#
#
# Indices 1 2 3 4 5 6 
#
# 1 297.8350 -113.9568 59.4409 0.0000 0.0000 0.0000
# 2 -113.9568 297.8447 59.4350 0.0000 0.0000 0.0000
# 3 59.4409 59.4350 139.2297 0.0000 0.0000 0.0000
# 4 0.0000 0.0000 0.0000 15.2901 0.0000 0.0000
# 5 0.0000 0.0000 0.0000 0.0000 15.2850 0.0000
# 6 0.0000 0.0000 0.0000 0.0000 0.0000 120.6385
#
#
#
# Elastic Compliance Matrix: (Units=1/GPa)
#
#
# Indices 1 2 3 4 5 6 
#
# 1 0.004970 0.002541 -0.003207 0.000000 0.000000 0.000000
# 2 0.002541 0.004970 -0.003206 0.000000 0.000000 0.000000
# 3 -0.003207 -0.003206 0.009920 0.000000 0.000000 0.000000
# 4 0.000000 0.000000 0.000000 0.065402 0.000000 0.000000
# 5 0.000000 0.000000 0.000000 0.000000 0.065424 0.000000
# 6 0.000000 0.000000 0.000000 0.000000 0.000000 0.008289
#
#
# Mechanical properties :
#
#
# Convention : Reuss Voigt Hill
#
# Bulk Modulus (GPa) = 82.53345 82.74973 82.64159
# Shear Modulus (GPa) = 29.28147 78.90876 54.09512
#
# Velocity S-wave (km/s) = 3.71514 6.09876 5.04961
# Velocity P-wave (km/s) = 7.57010 9.41268 8.54122
#
# Compressibility (1/GPa) = 0.01211630
#
# Stress axis : x y z
#
# Youngs Moduli (GPa) = 201.21000 201.22092 100.80459
#
# Poissons Ratio (x) = -0.51139 0.32325
# Poissons Ratio (y) = -0.51136 0.32323
# Poissons Ratio (z) = 0.64522 0.64521
#
# Static dielectric constant tensor:
#      x y z
#    x 1.844830 0.000000 0.000000 
#    y 0.000000 1.844840 0.000000 
#    z 0.000000 0.000000 2.058090 
# 
# From -- ./inp_files/7326.got.cif
#   From: 2010.05.17/outbox.cif.g08.bks.cpg/sg128_4_cif.got.tgz:7326.got - 2010.05.20 12:07:25.
