data_PCOD9565528
_publ_section_title
;
Structure prediction by ZEFSAII (Michael W. Deem and Ramdas Pophale) SiO2 
 PCOD9565528
Probable space group: P 4/N M M
;
_chemical_formula_sum "Si O2"
_cell_formula_units_Z 128
_cell_length_a 24.000000
_cell_length_b 24.000000
_cell_length_c 12.000000
_cell_angle_alpha 90.000000
_cell_angle_beta 90.000000
_cell_angle_gamma 90.000000
_cell_volume 6912.000000
_symmetry_space_group_name_H-M "P 4/N M M"
_symmetry_group_IT_number 129
_symmetry_cell_setting 'tetragonal'
loop_
_space_group_symop_operation_xyz
x,y,z
1/2-y,x,z
1/2-x,1/2-y,z
y,1/2-x,z
1/2+x,-y,-z
-x,1/2+y,-z
1/2+y,1/2+x,-z
-y,-x,-z
-x,-y,-z
1/2+y,-x,-z
1/2+x,1/2+y,-z
-y,1/2+x,-z
1/2-x,y,z
x,1/2-y,z
1/2-y,1/2-x,z
y,x,z
loop_
_atom_site_type_symbol
_atom_site_label
_atom_site_fract_x
_atom_site_fract_y
_atom_site_fract_z
Si Si1 0.395012 0.812189 0.812680
Si Si2 0.576262 0.069046 0.130299
Si Si3 0.524688 0.317747 0.536835
Si Si4 0.814794 0.592744 0.043376
Si Si5 0.869532 0.963523 0.250893
Si Si6 0.811285 0.529612 0.819350
Si Si7 0.489810 0.400570 0.333699
Si Si8 0.652383 0.187022 0.617734
O O1 0.378345 0.750000 0.856137
O O2 0.389824 0.872184 0.873584
O O3 0.462449 0.808577 0.803694
O O4 0.359855 0.822837 0.699777
O O5 0.530497 0.078032 0.231705
O O6 0.610516 0.017292 0.179471
O O7 0.558114 0.058114 0.000000
O O8 0.517390 0.250000 0.510718
O O9 0.483803 0.338987 0.636129
O O10 0.516771 0.361797 0.432671
O O11 0.587377 0.323389 0.586486
O O12 0.750000 0.608037 0.038097
O O13 0.855868 0.644133 0.021521
O O14 0.824931 0.546689 0.946061
O O15 0.829378 0.568759 0.165003
O O16 0.922542 0.922542 0.273485
O O17 0.750000 0.552020 0.794109
O O18 0.857293 0.549254 0.733051
O O19 0.453160 0.453160 0.375266
O O20 0.683353 0.183353 0.500000
O O21 0.657320 0.250000 0.664350
#
# Coordination Sequence:
#
# PCOD9565528 Si02
#       8
#    16  16  16  16  16  16  16  16
#     4  10  20  37  58  83 117 158 206 256 301 356
#     4  11  23  40  61  87 123 163 204 251 312 376
#     4  11  24  41  61  85 120 164 210 255 309 375
#     4  10  21  38  63  93 125 160 203 253 305 370
#     4  11  22  38  61  90 126 162 202 253 311 376
#     4   9  18  34  57  83 115 158 202 248 300 362
#     4  11  22  36  58  86 120 158 200 253 312 368
#     4  11  22  37  58  82 112 153 202 258 312 363
#
# _framework density 18.518519000000001
#
# number of rings (size 3 to 8) (size 9 to 14) (size 15 to 20)
#    0.000    1.500    1.250    5.250    0.000    6.500 
#    0.000    2.500    0.000    0.000    0.000    0.000 
#    0.000   10.250    0.000    0.000    0.000    0.000 
#
# Total GULP energy -712941.816432 kJ/mol
# GULP energy per Si atom -5569.857941 kJ/mol
# Density = 1.847637 g / cm^3
# Si number density = 18.518519 Si / 1000 Ang^3
#
#
#
# Elastic Constant Matrix: (Units=GPa)
#
#
# Indices 1 2 3 4 5 6 
#
# 1 99.8308 39.3375 35.6289 0.0000 0.0000 0.0000
# 2 39.3375 99.8308 35.6289 0.0000 0.0000 0.0000
# 3 35.6289 35.6289 102.8120 0.0000 0.0000 0.0000
# 4 0.0000 0.0000 0.0000 29.4729 0.0000 0.0000
# 5 0.0000 0.0000 0.0000 0.0000 29.4729 0.0000
# 6 0.0000 0.0000 0.0000 0.0000 0.0000 -19.7131
#
#
#
# Elastic Compliance Matrix: (Units=1/GPa)
#
#
# Indices 1 2 3 4 5 6 
#
# 1 0.012633 -0.003898 -0.003027 0.000000 0.000000 0.000000
# 2 -0.003898 0.012633 -0.003027 0.000000 0.000000 0.000000
# 3 -0.003027 -0.003027 0.011825 0.000000 0.000000 0.000000
# 4 0.000000 0.000000 0.000000 0.033929 0.000000 0.000000
# 5 0.000000 0.000000 0.000000 0.000000 0.033929 0.000000
# 6 0.000000 0.000000 0.000000 0.000000 0.000000 -0.050728
#
#
# Mechanical properties :
#
#
# Convention : Reuss Voigt Hill
#
# Bulk Modulus (GPa) = 58.18433 58.18491 58.18462
# Shear Modulus (GPa) = 62.61318 20.63843 41.62581
#
# Velocity S-wave (km/s) = 5.82104 3.34200 4.74623
# Velocity P-wave (km/s) = 8.75598 6.81029 7.84369
#
# Compressibility (1/GPa) = 0.01718676
#
# Stress axis : x y z
#
# Youngs Moduli (GPa) = 79.15670 79.15670 84.56909
#
# Poissons Ratio (x) = 0.30852 0.25601
# Poissons Ratio (y) = 0.30852 0.25601
# Poissons Ratio (z) = 0.23963 0.23963
#
# Static dielectric constant tensor:
#      x y z
#    x 1.686800 0.000000 0.000000 
#    y 0.000000 1.686800 0.000000 
#    z 0.000000 0.000000 1.651240 
# 
# From -- ./inp_files/4215.got.cif
#   From: 2010.05.17/outbox.ucp.g08.bks.cvg/sg129_3_cif.got.tgz:4215.got - 2010.06.11 11:38:03.
