data_PCOD9565104
_publ_section_title
;
Structure prediction by ZEFSAII (Michael W. Deem and Ramdas Pophale) SiO2 
 PCOD9565104
Probable space group: P 4/N M M
;
_chemical_formula_sum "Si O2"
_cell_formula_units_Z 128
_cell_length_a 24.354530
_cell_length_b 24.354530
_cell_length_c 12.332501
_cell_angle_alpha 90.000000
_cell_angle_beta 90.000000
_cell_angle_gamma 90.000000
_cell_volume 7314.938263
_symmetry_space_group_name_H-M "P 4/N M M"
_symmetry_group_IT_number 129
_symmetry_cell_setting 'tetragonal'
loop_
_space_group_symop_operation_xyz
x,y,z
1/2-y,x,z
1/2-x,1/2-y,z
y,1/2-x,z
1/2+x,-y,-z
-x,1/2+y,-z
1/2+y,1/2+x,-z
-y,-x,-z
-x,-y,-z
1/2+y,-x,-z
1/2+x,1/2+y,-z
-y,1/2+x,-z
1/2-x,y,z
x,1/2-y,z
1/2-y,1/2-x,z
y,x,z
loop_
_atom_site_type_symbol
_atom_site_label
_atom_site_fract_x
_atom_site_fract_y
_atom_site_fract_z
Si Si1 0.093919 0.313941 0.789056
Si Si2 0.125461 0.461122 0.599370
Si Si3 0.994109 0.312376 0.958162
Si Si4 0.815395 0.367608 0.109163
Si Si5 0.938706 0.310964 0.510355
Si Si6 0.623138 0.136870 0.332994
Si Si7 0.040731 0.958385 0.691048
Si Si8 0.992194 0.079464 0.071454
O O1 0.110589 0.250000 0.794165
O O2 0.143354 0.356647 0.811690
O O3 0.070034 0.329253 0.670559
O O4 0.043181 0.321549 0.872634
O O5 0.084344 0.415657 0.549723
O O6 0.150718 0.507254 0.521373
O O7 0.088004 0.495508 0.685014
O O8 0.997637 0.250000 0.997637
O O9 0.933858 0.319085 0.904585
O O10 0.999142 0.356642 0.053102
O O11 0.750000 0.354588 0.124571
O O12 0.854029 0.352946 0.212578
O O13 0.838324 0.338324 0.000000
O O14 0.958292 0.250000 0.531366
O O15 0.902577 0.313613 0.400795
O O16 0.895362 0.329326 0.602570
O O17 0.572152 0.094713 0.348660
O O18 0.021748 0.940221 0.809162
O O19 0.988100 0.988100 0.636276
O O20 0.941711 0.058290 0.000000
O O21 0.045722 0.045722 0.033233
#
# Coordination Sequence:
#
# PCOD9565104 Si02
#       8
#    16  16  16  16  16  16  16  16
#     4  10  19  30  46  69 100 138 176 214 255 302
#     4   9  17  30  49  74 100 126 159 198 247 308
#     4  10  19  30  46  68  95 129 171 214 253 301
#     4  11  23  38  56  76 101 134 171 214 264 315
#     4  10  20  34  53  75  99 131 168 208 254 300
#     4  10  20  34  53  74 100 131 167 210 251 303
#     4   9  17  28  45  71 100 127 154 191 246 307
#     4  10  17  26  44  68  95 124 156 199 247 295
#
# _framework density 17.498439000000001
#
# number of rings (size 3 to 8) (size 9 to 14) (size 15 to 20)
#    0.000    2.125    0.000    5.250    0.000    4.250 
#    0.000    3.125    0.000    6.000    0.000    0.000 
#    0.000    0.000    0.000    0.000    0.000    8.625 
#
# Total GULP energy -712583.863659 kJ/mol
# GULP energy per Si atom -5567.061435 kJ/mol
# Density = 1.745861 g / cm^3
# Si number density = 17.498439 Si / 1000 Ang^3
#
#
#
# Elastic Constant Matrix: (Units=GPa)
#
#
# Indices 1 2 3 4 5 6 
#
# 1 103.4366 45.0542 42.3352 0.0000 0.0000 0.0000
# 2 45.0542 103.4368 42.3355 0.0000 0.0000 0.0000
# 3 42.3352 42.3355 57.2273 0.0000 0.0000 0.0000
# 4 0.0000 0.0000 0.0000 19.2702 0.0000 0.0000
# 5 0.0000 0.0000 0.0000 0.0000 19.2698 0.0000
# 6 0.0000 0.0000 0.0000 0.0000 0.0000 18.0138
#
#
#
# Elastic Compliance Matrix: (Units=1/GPa)
#
#
# Indices 1 2 3 4 5 6 
#
# 1 0.014388 -0.002740 -0.008617 0.000000 0.000000 0.000000
# 2 -0.002740 0.014388 -0.008617 0.000000 0.000000 0.000000
# 3 -0.008617 -0.008617 0.030223 0.000000 0.000000 0.000000
# 4 0.000000 0.000000 0.000000 0.051894 0.000000 0.000000
# 5 0.000000 0.000000 0.000000 0.000000 0.051895 0.000000
# 6 0.000000 0.000000 0.000000 0.000000 0.000000 0.055513
#
#
# Mechanical properties :
#
#
# Convention : Reuss Voigt Hill
#
# Bulk Modulus (GPa) = 52.48885 58.17228 55.33057
# Shear Modulus (GPa) = 18.89655 20.26915 19.58285
#
# Velocity S-wave (km/s) = 3.28975 3.40713 3.34895
# Velocity P-wave (km/s) = 6.67018 6.98531 6.82956
#
# Compressibility (1/GPa) = 0.01905166
#
# Stress axis : x y z
#
# Youngs Moduli (GPa) = 69.50212 69.50191 33.08737
#
# Poissons Ratio (x) = 0.19046 0.28510
# Poissons Ratio (y) = 0.19046 0.28511
# Poissons Ratio (z) = 0.59888 0.59888
#
# Static dielectric constant tensor:
#      x y z
#    x 1.625620 0.000000 0.000000 
#    y 0.000000 1.625620 0.000000 
#    z 0.000000 0.000000 1.606940 
# 
# From -- ./inp_files/4169.got.cif
#   From: 2010.05.17/outbox.cif.g08.bks.cpg/sg129_3_cif.got.tgz:4169.got - 2010.05.20 12:12:06.
