data_PCOD9565243
_publ_section_title
;
Structure prediction by ZEFSAII (Michael W. Deem and Ramdas Pophale) SiO2 
 PCOD9565243
Probable space group: P 4/N M M
;
_chemical_formula_sum "Si O2"
_cell_formula_units_Z 128
_cell_length_a 20.521816
_cell_length_b 20.521816
_cell_length_c 18.303321
_cell_angle_alpha 90.000000
_cell_angle_beta 90.000000
_cell_angle_gamma 90.000000
_cell_volume 7708.350877
_symmetry_space_group_name_H-M "P 4/N M M"
_symmetry_group_IT_number 129
_symmetry_cell_setting 'tetragonal'
loop_
_space_group_symop_operation_xyz
x,y,z
1/2-y,x,z
1/2-x,1/2-y,z
y,1/2-x,z
1/2+x,-y,-z
-x,1/2+y,-z
1/2+y,1/2+x,-z
-y,-x,-z
-x,-y,-z
1/2+y,-x,-z
1/2+x,1/2+y,-z
-y,1/2+x,-z
1/2-x,y,z
x,1/2-y,z
1/2-y,1/2-x,z
y,x,z
loop_
_atom_site_type_symbol
_atom_site_label
_atom_site_fract_x
_atom_site_fract_y
_atom_site_fract_z
Si Si1 0.327662 0.961367 0.628375
Si Si2 0.672882 0.934605 0.490098
Si Si3 0.073727 0.676623 0.923798
Si Si4 0.675155 0.932839 0.661480
Si Si5 0.548216 0.357902 0.229563
Si Si6 0.676577 0.326727 0.681862
Si Si7 0.603527 0.497382 0.221795
Si Si8 0.558764 0.326320 0.915352
O O1 0.250000 0.965900 0.630202
O O2 0.342562 0.883871 0.628261
O O3 0.349476 0.005265 0.560513
O O4 0.355188 0.989711 0.704185
O O5 0.750000 0.921928 0.476862
O O6 0.628274 0.871727 0.474494
O O7 0.665988 0.950161 0.575959
O O8 0.099600 0.750000 0.928200
O O9 0.032160 0.668940 0.850489
O O10 0.132147 0.625361 0.914262
O O11 0.036580 0.664658 0.000280
O O12 0.750000 0.911112 0.670347
O O13 0.624036 0.875965 0.679481
O O14 0.662984 0.995754 0.711131
O O15 0.620207 0.332323 0.253857
O O16 0.554405 0.435748 0.224875
O O17 0.750000 0.333878 0.652098
O O18 0.669546 0.250000 0.704359
O O19 0.563522 0.563522 0.220172
O O20 0.645600 0.486321 0.148646
O O21 0.569710 0.250000 0.902346
#
# Coordination Sequence:
#
# PCOD9565243 Si02
#       8
#    16  16  16  16  16  16  16  16
#     4   9  17  30  49  71  95 124 155 189 231 275
#     4   9  18  32  50  72  96 121 151 190 237 287
#     4   9  17  29  46  68  94 123 153 188 230 276
#     4  10  20  34  52  72  94 120 152 193 241 290
#     4  10  19  32  49  69  93 124 158 193 232 277
#     4   9  17  29  47  71  96 123 158 195 228 268
#     4  10  19  31  47  67  93 125 160 193 227 273
#     4   9  18  31  45  66  95 123 154 193 234 275
#
# _framework density 16.605369
#
# number of rings (size 3 to 8) (size 9 to 14) (size 15 to 20)
#    0.000    2.625    0.000    2.250    0.000    3.500 
#    0.000   10.625    0.000    9.000    0.000    5.250 
#    0.000    2.250    0.000    0.000    0.000    1.875 
#
# Total GULP energy -712683.255493 kJ/mol
# GULP energy per Si atom -5567.837934 kJ/mol
# Density = 1.656757 g / cm^3
# Si number density = 16.605369 Si / 1000 Ang^3
#
#
#
# Elastic Constant Matrix: (Units=GPa)
#
#
# Indices 1 2 3 4 5 6 
#
# 1 55.2088 31.6323 47.1399 0.0000 0.0000 0.0000
# 2 31.6323 55.2088 47.1399 0.0000 0.0000 0.0000
# 3 47.1399 47.1399 92.5948 0.0000 0.0000 0.0000
# 4 0.0000 0.0000 0.0000 18.4319 0.0000 0.0000
# 5 0.0000 0.0000 0.0000 0.0000 18.4319 0.0000
# 6 0.0000 0.0000 0.0000 0.0000 0.0000 15.3832
#
#
#
# Elastic Compliance Matrix: (Units=1/GPa)
#
#
# Indices 1 2 3 4 5 6 
#
# 1 0.034080 -0.008335 -0.013106 0.000000 0.000000 0.000000
# 2 -0.008335 0.034080 -0.013106 0.000000 0.000000 0.000000
# 3 -0.013106 -0.013106 0.024145 0.000000 0.000000 0.000000
# 4 0.000000 0.000000 0.000000 0.054254 0.000000 0.000000
# 5 0.000000 0.000000 0.000000 0.000000 0.054254 0.000000
# 6 0.000000 0.000000 0.000000 0.000000 0.000000 0.065006
#
#
# Mechanical properties :
#
#
# Convention : Reuss Voigt Hill
#
# Bulk Modulus (GPa) = 43.08905 50.53738 46.81322
# Shear Modulus (GPa) = 14.59215 15.58943 15.09079
#
# Velocity S-wave (km/s) = 2.96761 3.06734 3.01788
# Velocity P-wave (km/s) = 6.14390 6.56088 6.35581
#
# Compressibility (1/GPa) = 0.02320775
#
# Stress axis : x y z
#
# Youngs Moduli (GPa) = 29.34291 29.34291 41.41695
#
# Poissons Ratio (x) = 0.24458 0.54283
# Poissons Ratio (y) = 0.24458 0.54283
# Poissons Ratio (z) = 0.38458 0.38458
#
# Static dielectric constant tensor:
#      x y z
#    x 1.556980 0.000000 0.000000 
#    y 0.000000 1.556980 0.000000 
#    z 0.000000 0.000000 1.588800 
# 
# From -- ./inp_files/6130.got.cif
#   From: 2010.05.17/outbox.cif.g08.bks.cpg/sg129_4_cif.got.tgz:6130.got - 2010.05.20 12:12:06.
