data_PCOD9565428
_publ_section_title
;
Structure prediction by ZEFSAII (Michael W. Deem and Ramdas Pophale) SiO2 
 PCOD9565428
Probable space group: P 4/N M M
;
_chemical_formula_sum "Si O2"
_cell_formula_units_Z 112
_cell_length_a 33.283950
_cell_length_b 33.283950
_cell_length_c 5.218507
_cell_angle_alpha 90.000000
_cell_angle_beta 90.000000
_cell_angle_gamma 90.000000
_cell_volume 5781.173353
_symmetry_space_group_name_H-M "P 4/N M M"
_symmetry_group_IT_number 129
_symmetry_cell_setting 'tetragonal'
loop_
_space_group_symop_operation_xyz
x,y,z
1/2-y,x,z
1/2-x,1/2-y,z
y,1/2-x,z
1/2+x,-y,-z
-x,1/2+y,-z
1/2+y,1/2+x,-z
-y,-x,-z
-x,-y,-z
1/2+y,-x,-z
1/2+x,1/2+y,-z
-y,1/2+x,-z
1/2-x,y,z
x,1/2-y,z
1/2-y,1/2-x,z
y,x,z
loop_
_atom_site_type_symbol
_atom_site_label
_atom_site_fract_x
_atom_site_fract_y
_atom_site_fract_z
Si Si1 0.168158 0.885447 0.652044
Si Si2 0.447988 0.897616 0.321771
Si Si3 0.845018 0.910107 0.213588
Si Si4 0.703204 0.077913 0.863437
Si Si5 0.906829 0.527259 0.043459
Si Si6 0.928015 0.796791 0.699932
Si Si7 0.158492 0.504734 0.304185
O O1 0.154648 0.845353 0.500000
O O2 0.125711 0.906595 0.738610
O O3 0.192662 0.907672 0.424584
O O4 0.192605 0.889517 0.916526
O O5 0.434127 0.934127 0.500000
O O6 0.481147 0.913406 0.125392
O O7 0.471170 0.862410 0.470849
O O8 0.870948 0.870948 0.150068
O O9 0.877881 0.946336 0.229250
O O10 0.821778 0.905608 0.479623
O O11 0.814679 0.919845 0.981922
O O12 0.750000 0.067691 0.881893
O O13 0.675334 0.038080 0.894826
O O14 0.946865 0.553136 0.003276
O O15 0.877658 0.522517 0.802081
O O16 0.918930 0.750000 0.690320
O O17 0.974984 0.805300 0.635116
#
# Coordination Sequence:
#
# PCOD9565428 Si02
#       7
#    16  16  16  16  16  16  16
#     4  10  21  37  57  80 115 153 184 227 284 337
#     4  10  20  35  52  71 101 145 197 244 284 328
#     4  10  21  37  57  80 116 154 184 226 283 336
#     4  11  21  35  58  85 114 145 188 231 282 345
#     4  10  20  35  52  72 101 147 198 242 283 328
#     4  11  21  35  58  86 114 144 188 232 281 343
#     4  10  21  36  50  77 111 147 184 243 303 333
#
# _framework density 19.37323
#
# number of rings (size 3 to 8) (size 9 to 14) (size 15 to 20)
#    0.000    1.714    2.857    2.143    0.000    2.000 
#    0.000    5.000    0.000    0.000    0.000    0.000 
#    0.000   40.000    0.000    0.000    0.000    0.000 
#
# Total GULP energy -623866.641206 kJ/mol
# GULP energy per Si atom -5570.237868 kJ/mol
# Density = 1.932914 g / cm^3
# Si number density = 19.373230 Si / 1000 Ang^3
#
#
#
# Elastic Constant Matrix: (Units=GPa)
#
#
# Indices 1 2 3 4 5 6 
#
# 1 43.6948 11.4119 14.8539 0.0000 0.0000 0.0000
# 2 11.4119 43.6982 14.8531 0.0000 0.0000 0.0000
# 3 14.8539 14.8531 78.1597 0.0000 0.0000 0.0000
# 4 0.0000 0.0000 0.0000 23.2072 0.0000 0.0000
# 5 0.0000 0.0000 0.0000 0.0000 23.2071 0.0000
# 6 0.0000 0.0000 0.0000 0.0000 0.0000 13.4463
#
#
#
# Elastic Compliance Matrix: (Units=1/GPa)
#
#
# Indices 1 2 3 4 5 6 
#
# 1 0.025597 -0.005379 -0.003842 0.000000 0.000000 0.000000
# 2 -0.005379 0.025595 -0.003842 0.000000 0.000000 0.000000
# 3 -0.003842 -0.003842 0.014255 0.000000 0.000000 0.000000
# 4 0.000000 0.000000 0.000000 0.043090 0.000000 0.000000
# 5 0.000000 0.000000 0.000000 0.000000 0.043090 0.000000
# 6 0.000000 0.000000 0.000000 0.000000 0.000000 0.074370
#
#
# Mechanical properties :
#
#
# Convention : Reuss Voigt Hill
#
# Bulk Modulus (GPa) = 25.43193 27.53230 26.48211
# Shear Modulus (GPa) = 18.85161 20.26769 19.55965
#
# Velocity S-wave (km/s) = 3.12280 3.23796 3.18090
# Velocity P-wave (km/s) = 5.11452 5.31240 5.21440
#
# Compressibility (1/GPa) = 0.03932065
#
# Stress axis : x y z
#
# Youngs Moduli (GPa) = 39.06706 39.07058 70.15271
#
# Poissons Ratio (x) = 0.21015 0.26956
# Poissons Ratio (y) = 0.21013 0.26951
# Poissons Ratio (z) = 0.15011 0.15010
#
# Static dielectric constant tensor:
#      x y z
#    x 1.602980 0.000000 0.000000 
#    y 0.000000 1.602960 0.000000 
#    z 0.000000 0.000000 1.747990 
# 
# From -- ./inp_files/1168.got.cif
#   From: 2010.05.17/outbox.cif.g08.bks.cpg/sg129_1_cif.got.tgz:1168.got - 2010.05.20 12:12:06.
