data_PCOD9565204
_publ_section_title
;
Structure prediction by ZEFSAII (Michael W. Deem and Ramdas Pophale) SiO2 
 PCOD9565204
Probable space group: P 4/N M M
;
_chemical_formula_sum "Si O2"
_cell_formula_units_Z 104
_cell_length_a 18.786841
_cell_length_b 18.786841
_cell_length_c 16.889919
_cell_angle_alpha 90.000000
_cell_angle_beta 90.000000
_cell_angle_gamma 90.000000
_cell_volume 5961.219129
_symmetry_space_group_name_H-M "P 4/N M M"
_symmetry_group_IT_number 129
_symmetry_cell_setting 'tetragonal'
loop_
_space_group_symop_operation_xyz
x,y,z
1/2-y,x,z
1/2-x,1/2-y,z
y,1/2-x,z
1/2+x,-y,-z
-x,1/2+y,-z
1/2+y,1/2+x,-z
-y,-x,-z
-x,-y,-z
1/2+y,-x,-z
1/2+x,1/2+y,-z
-y,1/2+x,-z
1/2-x,y,z
x,1/2-y,z
1/2-y,1/2-x,z
y,x,z
loop_
_atom_site_type_symbol
_atom_site_label
_atom_site_fract_x
_atom_site_fract_y
_atom_site_fract_z
Si Si1 0.088419 0.526804 0.103539
Si Si2 0.664451 0.950654 0.750271
Si Si3 0.671556 0.558596 0.211851
Si Si4 0.664658 0.335343 0.500000
Si Si5 0.944565 0.668313 0.020508
Si Si6 0.831747 0.100160 0.198939
Si Si7 0.166076 0.589779 0.340472
O O1 0.136766 0.482097 0.165999
O O2 0.097608 0.607922 0.131170
O O3 0.009381 0.490620 0.109354
O O4 0.121577 0.506588 0.018929
O O5 0.750000 0.943680 0.750164
O O6 0.622348 0.877653 0.735921
O O7 0.640828 0.011896 0.687668
O O8 0.750000 0.586489 0.231727
O O9 0.609801 0.609801 0.239744
O O10 0.668064 0.553291 0.115771
O O11 0.664679 0.477852 0.239034
O O12 0.750000 0.345525 0.489322
O O13 0.623413 0.361237 0.421796
O O14 0.948018 0.750000 0.994517
O O15 0.871623 0.628378 0.997069
O O16 0.750000 0.111286 0.172424
O O17 0.857108 0.153339 0.266839
O O18 0.250000 0.582537 0.351346
#
# Coordination Sequence:
#
# PCOD9565204 Si02
#       7
#    16  16  16   8  16  16  16
#     4   9  17  29  45  63  86 118 151 186 231 273
#     4   9  17  29  45  66  92 122 154 186 222 266
#     4   9  18  31  47  68  91 115 147 187 229 271
#     4   9  16  28  49  74  96 118 145 178 218 265
#     4   9  17  29  45  65  88 114 146 186 231 274
#     4  10  19  30  45  65  89 118 151 183 214 258
#     4   9  18  32  49  70  96 121 145 179 224 269
#
# _framework density 17.446096000000001
#
# number of rings (size 3 to 8) (size 9 to 14) (size 15 to 20)
#    0.000    2.846    0.000    1.385    0.000    3.231 
#    0.000    4.231    0.000    3.692    0.000    2.154 
#    0.000    0.000    0.000    8.000    0.000    0.154 
#
# Total GULP energy -579398.265473 kJ/mol
# GULP energy per Si atom -5571.137168 kJ/mol
# Density = 1.740639 g / cm^3
# Si number density = 17.446096 Si / 1000 Ang^3
#
#
#
# Elastic Constant Matrix: (Units=GPa)
#
#
# Indices 1 2 3 4 5 6 
#
# 1 68.1617 15.0608 3.7584 0.0000 0.0000 0.0000
# 2 15.0608 68.1610 3.7583 0.0000 0.0000 0.0000
# 3 3.7584 3.7583 47.2175 0.0000 0.0000 0.0000
# 4 0.0000 0.0000 0.0000 17.5790 0.0000 0.0000
# 5 0.0000 0.0000 0.0000 0.0000 17.5790 0.0000
# 6 0.0000 0.0000 0.0000 0.0000 0.0000 18.9636
#
#
#
# Elastic Compliance Matrix: (Units=1/GPa)
#
#
# Indices 1 2 3 4 5 6 
#
# 1 0.015468 -0.003365 -0.000963 0.000000 0.000000 0.000000
# 2 -0.003365 0.015468 -0.000963 0.000000 0.000000 0.000000
# 3 -0.000963 -0.000963 0.021332 0.000000 0.000000 0.000000
# 4 0.000000 0.000000 0.000000 0.056886 0.000000 0.000000
# 5 0.000000 0.000000 0.000000 0.000000 0.056886 0.000000
# 6 0.000000 0.000000 0.000000 0.000000 0.000000 0.052733
#
#
# Mechanical properties :
#
#
# Convention : Reuss Voigt Hill
#
# Bulk Modulus (GPa) = 23.98969 25.41059 24.70014
# Shear Modulus (GPa) = 20.55503 21.55516 21.05509
#
# Velocity S-wave (km/s) = 3.43622 3.51882 3.47777
# Velocity P-wave (km/s) = 5.43361 5.57730 5.50592
#
# Compressibility (1/GPa) = 0.04168458
#
# Stress axis : x y z
#
# Youngs Moduli (GPa) = 64.65149 64.65083 46.87806
#
# Poissons Ratio (x) = 0.21752 0.04516
# Poissons Ratio (y) = 0.21753 0.04516
# Poissons Ratio (z) = 0.06228 0.06228
#
# Static dielectric constant tensor:
#      x y z
#    x 1.620490 0.000000 0.000000 
#    y 0.000000 1.620490 0.000000 
#    z 0.000000 0.000000 1.615770 
# 
# From -- ./inp_files/5812.got.cif
#   From: 2010.05.17/outbox.cif.g08.bks.cpg/sg129_3_cif.got.tgz:5812.got - 2010.05.20 12:12:06.
