data_PCOD9565070
_publ_section_title
;
Structure prediction by ZEFSAII (Michael W. Deem and Ramdas Pophale) SiO2 
 PCOD9565070
Probable space group: P 4/M N C
;
_chemical_formula_sum "Si O2"
_cell_formula_units_Z 52
_cell_length_a 12.966608
_cell_length_b 12.966608
_cell_length_c 13.720349
_cell_angle_alpha 90.000000
_cell_angle_beta 90.000000
_cell_angle_gamma 90.000000
_cell_volume 2306.842382
_symmetry_space_group_name_H-M "P 4/M N C"
_symmetry_group_IT_number 128
_symmetry_cell_setting 'tetragonal'
loop_
_space_group_symop_operation_xyz
x,y,z
-y,x,z
-x,-y,z
y,-x,z
1/2+x,1/2-y,1/2-z
1/2-x,1/2+y,1/2-z
1/2+y,1/2+x,1/2-z
1/2-y,1/2-x,1/2-z
-x,-y,-z
y,-x,-z
x,y,-z
-y,x,-z
1/2-x,1/2+y,1/2+z
1/2+x,1/2-y,1/2+z
1/2-y,1/2-x,1/2+z
1/2+y,1/2+x,1/2+z
loop_
_atom_site_type_symbol
_atom_site_label
_atom_site_fract_x
_atom_site_fract_y
_atom_site_fract_z
Si Si1 0.422808 0.344900 0.396757
Si Si2 0.500000 0.000000 0.750000
Si Si3 0.182138 0.823291 0.301847
Si Si4 0.798337 0.487917 0.887496
O O1 0.544214 0.366562 0.398445
O O2 0.397180 0.291573 0.500000
O O3 0.393835 0.306877 0.290799
O O4 0.497672 0.100914 0.819493
O O5 0.286609 0.786609 0.250000
O O6 0.127063 0.748915 0.378693
O O7 0.209486 0.932030 0.350328
O O8 0.823023 0.511967 0.000000
#
# Coordination Sequence:
#
# PCOD9565070 Si02
#       4
#    16   4  16  16
#     4   9  18  35  62  93 126 167 216 272 333 390
#     4  12  26  56  72  98 144 184 250 312 340 450
#     4  12  24  44  68 104 147 181 242 293 355 439
#     4  12  27  48  75 106 143 192 239 301 371 431
#
# _framework density 22.541636
#
# number of rings (size 3 to 8) (size 9 to 14) (size 15 to 20)
#    0.000    0.923    6.154    2.308    0.000    3.077 
#    0.000    1.538    0.000    0.000    0.000    0.000 
#    0.000    0.000    0.000    0.000    0.000    0.000 
#
# Total GULP energy -289781.239790 kJ/mol
# GULP energy per Si atom -5572.716150 kJ/mol
# Density = 2.249033 g / cm^3
# Si number density = 22.541636 Si / 1000 Ang^3
#
#
#
# Elastic Constant Matrix: (Units=GPa)
#
#
# Indices 1 2 3 4 5 6 
#
# 1 70.0015 15.6134 26.2488 0.0000 0.0000 0.0000
# 2 15.6134 70.0015 26.2488 0.0000 0.0000 0.0000
# 3 26.2488 26.2488 162.4469 0.0000 0.0000 0.0000
# 4 0.0000 0.0000 0.0000 23.1402 0.0000 0.0000
# 5 0.0000 0.0000 0.0000 0.0000 23.1402 0.0000
# 6 0.0000 0.0000 0.0000 0.0000 0.0000 34.2364
#
#
#
# Elastic Compliance Matrix: (Units=1/GPa)
#
#
# Indices 1 2 3 4 5 6 
#
# 1 0.015676 -0.002711 -0.002095 0.000000 0.000000 0.000000
# 2 -0.002711 0.015676 -0.002095 0.000000 0.000000 0.000000
# 3 -0.002095 -0.002095 0.006833 0.000000 0.000000 0.000000
# 4 0.000000 0.000000 0.000000 0.043215 0.000000 0.000000
# 5 0.000000 0.000000 0.000000 0.000000 0.043215 0.000000
# 6 0.000000 0.000000 0.000000 0.000000 0.000000 0.029209
#
#
# Mechanical properties :
#
#
# Convention : Reuss Voigt Hill
#
# Bulk Modulus (GPa) = 41.01250 48.74130 44.87690
# Shear Modulus (GPa) = 28.44932 31.72595 30.08763
#
# Velocity S-wave (km/s) = 3.55643 3.75565 3.65740
# Velocity P-wave (km/s) = 5.92434 6.36210 6.14712
#
# Compressibility (1/GPa) = 0.02438281
#
# Stress axis : x y z
#
# Youngs Moduli (GPa) = 63.79349 63.79349 146.35160
#
# Poissons Ratio (x) = 0.17293 0.30659
# Poissons Ratio (y) = 0.17293 0.30659
# Poissons Ratio (z) = 0.13364 0.13364
#
# Static dielectric constant tensor:
#      x y z
#    x 1.847430 0.000000 0.000000 
#    y 0.000000 1.847430 0.000000 
#    z 0.000000 0.000000 1.931350 
# 
# From -- ./inp_files/2327.got.cif
#   From: 2010.05.17/outbox.cif.g08.bks.cpg/sg128_2_cif.got.tgz:2327.got - 2010.05.20 12:07:25.
