data_PCOD9565359
_publ_section_title
;
Structure prediction by ZEFSAII (Michael W. Deem and Ramdas Pophale) SiO2 
 PCOD9565359
Probable space group: P 4/N M M
;
_chemical_formula_sum "Si O2"
_cell_formula_units_Z 96
_cell_length_a 19.629187
_cell_length_b 19.629187
_cell_length_c 13.039634
_cell_angle_alpha 90.000000
_cell_angle_beta 90.000000
_cell_angle_gamma 90.000000
_cell_volume 5024.235947
_symmetry_space_group_name_H-M "P 4/N M M"
_symmetry_group_IT_number 129
_symmetry_cell_setting 'tetragonal'
loop_
_space_group_symop_operation_xyz
x,y,z
1/2-y,x,z
1/2-x,1/2-y,z
y,1/2-x,z
1/2+x,-y,-z
-x,1/2+y,-z
1/2+y,1/2+x,-z
-y,-x,-z
-x,-y,-z
1/2+y,-x,-z
1/2+x,1/2+y,-z
-y,1/2+x,-z
1/2-x,y,z
x,1/2-y,z
1/2-y,1/2-x,z
y,x,z
loop_
_atom_site_type_symbol
_atom_site_label
_atom_site_fract_x
_atom_site_fract_y
_atom_site_fract_z
Si Si1 0.994704 0.879266 0.779801
Si Si2 0.054394 0.169439 0.431989
Si Si3 0.522907 0.332095 0.643364
Si Si4 0.326841 0.058684 0.012806
Si Si5 0.827853 0.323059 0.376870
Si Si6 0.515659 0.403518 0.847873
O O1 0.944044 0.944044 0.767424
O O2 0.991739 0.844437 0.668747
O O3 0.962914 0.833067 0.868719
O O4 0.064118 0.910651 0.825846
O O5 0.071172 0.250000 0.435730
O O6 0.121106 0.121106 0.425915
O O7 0.013031 0.151317 0.535706
O O8 0.521058 0.250000 0.653080
O O9 0.601928 0.355062 0.644336
O O10 0.491433 0.367672 0.742763
O O11 0.250000 0.077022 0.986771
O O12 0.378427 0.121574 0.996308
O O13 0.352204 0.996466 0.941108
O O14 0.822544 0.322544 0.500000
O O15 0.750000 0.322433 0.336459
O O16 0.860198 0.250000 0.346341
O O17 0.466825 0.466825 0.872895
#
# Coordination Sequence:
#
# PCOD9565359 Si02
#       6
#    16  16  16  16  16  16
#     4   9  19  35  54  76 101 134 177 223 274 326
#     4  10  21  36  54  79 112 148 188 234 282 334
#     4  10  20  32  50  78 110 143 180 222 268 322
#     4  10  20  36  58  82 109 139 176 223 271 325
#     4   8  15  28  44  64  95 133 171 213 261 314
#     4  10  20  34  54  77 105 143 181 220 268 320
#
# _framework density 19.107382000000001
#
# number of rings (size 3 to 8) (size 9 to 14) (size 15 to 20)
#    0.000    2.500    0.000    2.500    2.333    2.333 
#    0.000    3.333    0.000    3.000    0.000    2.333 
#    0.000    4.000    0.000    0.000    0.000    0.000 
#
# Total GULP energy -534640.384067 kJ/mol
# GULP energy per Si atom -5569.170667 kJ/mol
# Density = 1.906389 g / cm^3
# Si number density = 19.107382 Si / 1000 Ang^3
#
#
#
# Elastic Constant Matrix: (Units=GPa)
#
#
# Indices 1 2 3 4 5 6 
#
# 1 68.8899 27.8314 8.9923 0.0000 0.0000 0.0000
# 2 27.8314 68.8899 8.9923 0.0000 0.0000 0.0000
# 3 8.9923 8.9923 62.6186 0.0000 0.0000 0.0000
# 4 0.0000 0.0000 0.0000 17.4582 0.0000 0.0000
# 5 0.0000 0.0000 0.0000 0.0000 17.4582 0.0000
# 6 0.0000 0.0000 0.0000 0.0000 0.0000 13.0042
#
#
#
# Elastic Compliance Matrix: (Units=1/GPa)
#
#
# Indices 1 2 3 4 5 6 
#
# 1 0.017489 -0.006866 -0.001525 0.000000 0.000000 0.000000
# 2 -0.006866 0.017489 -0.001525 0.000000 0.000000 0.000000
# 3 -0.001525 -0.001525 0.016408 0.000000 0.000000 0.000000
# 4 0.000000 0.000000 0.000000 0.057280 0.000000 0.000000
# 5 0.000000 0.000000 0.000000 0.000000 0.057280 0.000000
# 6 0.000000 0.000000 0.000000 0.000000 0.000000 0.076898
#
#
# Mechanical properties :
#
#
# Convention : Reuss Voigt Hill
#
# Bulk Modulus (GPa) = 31.69442 32.44779 32.07111
# Shear Modulus (GPa) = 18.30197 19.88965 19.09581
#
# Velocity S-wave (km/s) = 3.09827 3.22986 3.16475
# Velocity P-wave (km/s) = 5.42426 5.56130 5.49320
#
# Compressibility (1/GPa) = 0.03155129
#
# Stress axis : x y z
#
# Youngs Moduli (GPa) = 57.17863 57.17863 60.94653
#
# Poissons Ratio (x) = 0.39261 0.09297
# Poissons Ratio (y) = 0.39261 0.09297
# Poissons Ratio (z) = 0.08722 0.08722
#
# Static dielectric constant tensor:
#      x y z
#    x 1.692580 0.000000 0.000000 
#    y 0.000000 1.692580 0.000000 
#    z 0.000000 0.000000 1.667010 
# 
# From -- ./inp_files/3888.got.cif
#   From: 2010.05.17/outbox.cif.g08.bks.cpg/sg129_2_cif.got.tgz:3888.got - 2010.05.20 12:12:06.
