data_PCOD9565033
_publ_section_title
;
Structure prediction by ZEFSAII (Michael W. Deem and Ramdas Pophale) SiO2 
 PCOD9565033
Probable space group: P 4/M N C
;
_chemical_formula_sum "Si O2"
_cell_formula_units_Z 88
_cell_length_a 11.445850
_cell_length_b 11.445850
_cell_length_c 32.445998
_cell_angle_alpha 90.000000
_cell_angle_beta 90.000000
_cell_angle_gamma 90.000000
_cell_volume 4250.668506
_symmetry_space_group_name_H-M "P 4/M N C"
_symmetry_group_IT_number 128
_symmetry_cell_setting 'tetragonal'
loop_
_space_group_symop_operation_xyz
x,y,z
-y,x,z
-x,-y,z
y,-x,z
1/2+x,1/2-y,1/2-z
1/2-x,1/2+y,1/2-z
1/2+y,1/2+x,1/2-z
1/2-y,1/2-x,1/2-z
-x,-y,-z
y,-x,-z
x,y,-z
-y,x,-z
1/2-x,1/2+y,1/2+z
1/2+x,1/2-y,1/2+z
1/2-y,1/2-x,1/2+z
1/2+y,1/2+x,1/2+z
loop_
_atom_site_type_symbol
_atom_site_label
_atom_site_fract_x
_atom_site_fract_y
_atom_site_fract_z
Si Si1 0.522083 0.304047 0.208947
Si Si2 0.160176 0.547590 0.500000
Si Si3 0.155329 0.375020 0.859703
Si Si4 0.225621 0.280303 0.000000
Si Si5 0.000000 0.500000 0.572750
Si Si6 0.650501 0.627691 0.917707
Si Si7 0.034871 0.193132 0.802777
O O1 0.624394 0.401679 0.204292
O O2 0.537801 0.205322 0.174958
O O3 0.535428 0.260061 0.255847
O O4 0.262846 0.640325 0.500000
O O5 0.188325 0.410483 0.500000
O O6 0.084674 0.567865 0.541225
O O7 0.087185 0.432712 0.897411
O O8 0.270747 0.320057 0.881009
O O9 0.069369 0.287569 0.836313
O O10 0.292469 0.331573 0.039586
O O11 0.513807 0.657549 0.914621
O O12 0.909940 0.130717 0.807009
#
# Coordination Sequence:
#
# PCOD9565033 Si02
#       7
#    16   8  16   8   8  16  16
#     4   9  19  38  62  90 126 167 214 269 321 381
#     4  11  26  49  70  92 132 177 212 256 333 394
#     4  12  22  38  64  94 128 168 209 267 329 389
#     4  12  24  46  72  96 126 173 218 267 326 401
#     4  11  26  46  61  96 140 164 199 272 340 381
#     4  11  24  41  65  99 131 167 217 275 334 400
#     4   9  21  41  60  84 125 175 224 264 314 381
#
# _framework density 20.702625000000001
#
# number of rings (size 3 to 8) (size 9 to 14) (size 15 to 20)
#    0.000    1.455    1.818    4.364    2.545    6.727 
#    0.000    3.636    0.000    0.000    0.000    0.000 
#    0.000    0.000    0.000    0.000    0.000    0.000 
#
# Total GULP energy -491873.421221 kJ/mol
# GULP energy per Si atom -5589.470696 kJ/mol
# Density = 2.065550 g / cm^3
# Si number density = 20.702625 Si / 1000 Ang^3
#
#
#
# Elastic Constant Matrix: (Units=GPa)
#
#
# Indices 1 2 3 4 5 6 
#
# 1 47.9812 12.1682 41.0906 0.0000 0.0000 0.0000
# 2 12.1682 47.9812 41.0906 0.0000 0.0000 0.0000
# 3 41.0906 41.0906 153.7302 0.0000 0.0000 0.0000
# 4 0.0000 0.0000 0.0000 20.3386 0.0000 0.0000
# 5 0.0000 0.0000 0.0000 0.0000 20.3386 0.0000
# 6 0.0000 0.0000 0.0000 0.0000 0.0000 11.6216
#
#
#
# Elastic Compliance Matrix: (Units=1/GPa)
#
#
# Indices 1 2 3 4 5 6 
#
# 1 0.027056 -0.000867 -0.007000 0.000000 0.000000 0.000000
# 2 -0.000867 0.027056 -0.007000 0.000000 0.000000 0.000000
# 3 -0.007000 -0.007000 0.010247 0.000000 0.000000 0.000000
# 4 0.000000 0.000000 0.000000 0.049167 0.000000 0.000000
# 5 0.000000 0.000000 0.000000 0.000000 0.049167 0.000000
# 6 0.000000 0.000000 0.000000 0.000000 0.000000 0.086047
#
#
# Mechanical properties :
#
#
# Convention : Reuss Voigt Hill
#
# Bulk Modulus (GPa) = 28.88062 48.71015 38.79539
# Shear Modulus (GPa) = 17.24036 20.81599 19.02818
#
# Velocity S-wave (km/s) = 2.88889 3.17436 3.03499
# Velocity P-wave (km/s) = 5.01080 6.08400 5.57329
#
# Compressibility (1/GPa) = 0.03462529
#
# Stress axis : x y z
#
# Youngs Moduli (GPa) = 36.96017 36.96017 97.58893
#
# Poissons Ratio (x) = 0.03203 0.68314
# Poissons Ratio (y) = 0.03203 0.68314
# Poissons Ratio (z) = 0.25873 0.25873
#
# Static dielectric constant tensor:
#      x y z
#    x 1.748950 0.000000 0.000000 
#    y 0.000000 1.748950 0.000000 
#    z 0.000000 0.000000 1.732840 
# 
# From -- ./inp_files/7299.got.cif
#   From: 2010.05.17/outbox.cif.g08.bks.cpg/sg128_4_cif.got.tgz:7299.got - 2010.05.20 12:07:25.
