data_PCOD9565854
_publ_section_title
;
Structure prediction by ZEFSAII (Michael W. Deem and Ramdas Pophale) SiO2 
 PCOD9565854
Probable space group: P 4/N C C
;
_chemical_formula_sum "Si O2"
_cell_formula_units_Z 28
_cell_length_a 10.522141
_cell_length_b 10.522141
_cell_length_c 9.210524
_cell_angle_alpha 90.000000
_cell_angle_beta 90.000000
_cell_angle_gamma 90.000000
_cell_volume 1019.747321
_symmetry_space_group_name_H-M "P 4/N C C"
_symmetry_group_IT_number 130
_symmetry_cell_setting 'tetragonal'
loop_
_space_group_symop_operation_xyz
x,y,z
1/2-y,x,z
1/2-x,1/2-y,z
y,1/2-x,z
1/2+x,-y,1/2-z
-x,1/2+y,1/2-z
1/2+y,1/2+x,1/2-z
-y,-x,1/2-z
-x,-y,-z
1/2+y,-x,-z
1/2+x,1/2+y,-z
-y,1/2+x,-z
1/2-x,y,1/2+z
x,1/2-y,1/2+z
1/2-y,1/2-x,1/2+z
y,x,1/2+z
loop_
_atom_site_type_symbol
_atom_site_label
_atom_site_fract_x
_atom_site_fract_y
_atom_site_fract_z
Si Si1 0.611523 0.904165 0.050615
Si Si2 0.250000 0.750000 0.000000
Si Si3 0.400987 0.599013 0.250000
O O1 0.579269 0.759669 0.015033
O O2 0.615466 0.948149 0.220940
O O3 0.500000 0.000000 0.000000
O O4 0.164597 0.668967 0.887414
#
# Coordination Sequence:
#
# PCOD9565854 Si02
#       3
#    16   4   8
#     4  11  27  50  80 122 171 224 286 357 432 513
#     4  10  24  46  80 126 176 234 284 354 448 522
#     4  11  24  48  80 119 172 230 292 355 434 531
#
# _framework density 27.45778
#
# number of rings (size 3 to 8) (size 9 to 14) (size 15 to 20)
#    0.000    1.143    0.000    3.429    0.000   19.429 
#    0.000   11.429    0.000    0.000    0.000    0.000 
#    0.000    0.000    0.000    0.000    0.000    0.000 
#
# Total GULP energy -156059.596782 kJ/mol
# GULP energy per Si atom -5573.557028 kJ/mol
# Density = 2.739528 g / cm^3
# Si number density = 27.457780 Si / 1000 Ang^3
#
#
#
# Elastic Constant Matrix: (Units=GPa)
#
#
# Indices 1 2 3 4 5 6 
#
# 1 258.1620 147.4723 70.6781 0.0000 0.0000 0.0000
# 2 147.4723 258.1620 70.6781 0.0000 0.0000 0.0000
# 3 70.6781 70.6781 141.6259 0.0000 0.0000 0.0000
# 4 0.0000 0.0000 0.0000 43.4786 0.0000 0.0000
# 5 0.0000 0.0000 0.0000 0.0000 43.4786 0.0000
# 6 0.0000 0.0000 0.0000 0.0000 0.0000 50.4056
#
#
#
# Elastic Compliance Matrix: (Units=1/GPa)
#
#
# Indices 1 2 3 4 5 6 
#
# 1 0.006009 -0.003025 -0.001489 0.000000 0.000000 0.000000
# 2 -0.003025 0.006009 -0.001489 0.000000 0.000000 0.000000
# 3 -0.001489 -0.001489 0.008547 0.000000 0.000000 0.000000
# 4 0.000000 0.000000 0.000000 0.023000 0.000000 0.000000
# 5 0.000000 0.000000 0.000000 0.000000 0.023000 0.000000
# 6 0.000000 0.000000 0.000000 0.000000 0.000000 0.019839
#
#
# Mechanical properties :
#
#
# Convention : Reuss Voigt Hill
#
# Bulk Modulus (GPa) = 116.84047 137.28965 127.06506
# Shear Modulus (GPa) = 49.37561 52.08067 50.72814
#
# Velocity S-wave (km/s) = 4.24516 4.35990 4.30291
# Velocity P-wave (km/s) = 8.16540 8.68641 8.42993
#
# Compressibility (1/GPa) = 0.00855868
#
# Stress axis : x y z
#
# Youngs Moduli (GPa) = 166.40969 166.40969 116.99586
#
# Poissons Ratio (x) = 0.50339 0.17424
# Poissons Ratio (y) = 0.50339 0.17424
# Poissons Ratio (z) = 0.24783 0.24783
#
# Static dielectric constant tensor:
#      x y z
#    x 2.206320 0.000000 0.000000 
#    y 0.000000 2.206320 0.000000 
#    z 0.000000 0.000000 2.684330 
# 
# From -- ./inp_files/287.got.cif
#   From: 2010.05.17/outbox.cif.g08.bks.cpg/sg130_1_cif.got.tgz:287.got - 2010.05.20 12:17:35.
