data_PCOD9565571
_publ_section_title
;
Structure prediction by ZEFSAII (Michael W. Deem and Ramdas Pophale) SiO2 
 PCOD9565571
Probable space group: P 4/N C C
;
_chemical_formula_sum "Si O2"
_cell_formula_units_Z 128
_cell_length_a 19.620862
_cell_length_b 19.620862
_cell_length_c 17.520733
_cell_angle_alpha 90.000000
_cell_angle_beta 90.000000
_cell_angle_gamma 90.000000
_cell_volume 6745.100702
_symmetry_space_group_name_H-M "P 4/N C C"
_symmetry_group_IT_number 130
_symmetry_cell_setting 'tetragonal'
loop_
_space_group_symop_operation_xyz
x,y,z
1/2-y,x,z
1/2-x,1/2-y,z
y,1/2-x,z
1/2+x,-y,1/2-z
-x,1/2+y,1/2-z
1/2+y,1/2+x,1/2-z
-y,-x,1/2-z
-x,-y,-z
1/2+y,-x,-z
1/2+x,1/2+y,-z
-y,1/2+x,-z
1/2-x,y,1/2+z
x,1/2-y,1/2+z
1/2-y,1/2-x,1/2+z
y,x,1/2+z
loop_
_atom_site_type_symbol
_atom_site_label
_atom_site_fract_x
_atom_site_fract_y
_atom_site_fract_z
Si Si1 0.136052 0.273563 0.673978
Si Si2 0.636509 0.063983 0.360919
Si Si3 0.635133 0.912286 0.691543
Si Si4 0.329199 0.330435 0.956082
Si Si5 0.648156 0.013092 0.196160
Si Si6 0.560188 0.809590 0.944297
Si Si7 0.981647 0.211989 0.398989
Si Si8 0.145326 0.706018 0.998102
O O1 0.174386 0.200112 0.674151
O O2 0.095667 0.305991 0.744893
O O3 0.082484 0.254258 0.607754
O O4 0.562069 0.096383 0.349803
O O5 0.678464 0.110691 0.420228
O O6 0.664812 0.051984 0.275424
O O7 0.641421 0.989892 0.398490
O O8 0.649366 0.856757 0.625551
O O9 0.558266 0.890959 0.714901
O O10 0.650765 0.984385 0.650180
O O11 0.248369 0.340674 0.963761
O O12 0.354633 0.376623 0.024874
O O13 0.717413 0.007192 0.146879
O O14 0.522392 0.785220 0.020979
O O15 0.905201 0.200080 0.429163
O O16 0.164708 0.785167 0.989110
#
# Coordination Sequence:
#
# PCOD9565571 Si02
#       8
#    16  16  16  16  16  16  16  16
#     4  11  21  33  54  87 124 168 218 266 314 365
#     4  10  22  40  66  89 122 169 208 254 328 399
#     4  11  21  35  59  84 123 170 216 257 311 379
#     4  10  19  32  51  80 119 161 210 262 308 363
#     4  11  22  41  64  87 127 172 212 258 318 385
#     4  10  20  34  54  86 121 160 208 259 317 374
#     4  10  21  38  63  92 127 166 216 263 318 378
#     4  10  20  41  73 101 124 155 206 275 337 384
#
# _framework density 18.976737
#
# number of rings (size 3 to 8) (size 9 to 14) (size 15 to 20)
#    0.000    1.625    1.250    5.250    0.000    3.000 
#    0.000    6.250   22.000    0.000    0.000    0.000 
#    0.000    0.000    0.000    0.000    0.000    0.000 
#
# Total GULP energy -712685.368579 kJ/mol
# GULP energy per Si atom -5567.854442 kJ/mol
# Density = 1.893354 g / cm^3
# Si number density = 18.976737 Si / 1000 Ang^3
#
#
#
# Elastic Constant Matrix: (Units=GPa)
#
#
# Indices 1 2 3 4 5 6 
#
# 1 68.5533 16.2402 24.9204 0.0000 0.0000 0.0000
# 2 16.2402 68.5533 24.9204 0.0000 0.0000 0.0000
# 3 24.9204 24.9204 89.9261 0.0000 0.0000 0.0000
# 4 0.0000 0.0000 0.0000 17.2265 0.0000 0.0000
# 5 0.0000 0.0000 0.0000 0.0000 17.2265 0.0000
# 6 0.0000 0.0000 0.0000 0.0000 0.0000 -10.4005
#
#
#
# Elastic Compliance Matrix: (Units=1/GPa)
#
#
# Indices 1 2 3 4 5 6 
#
# 1 0.016602 -0.002514 -0.003904 0.000000 0.000000 0.000000
# 2 -0.002514 0.016602 -0.003904 0.000000 0.000000 0.000000
# 3 -0.003904 -0.003904 0.013284 0.000000 0.000000 0.000000
# 4 0.000000 0.000000 0.000000 0.058050 0.000000 0.000000
# 5 0.000000 0.000000 0.000000 0.000000 0.058050 0.000000
# 6 0.000000 0.000000 0.000000 0.000000 0.000000 -0.096149
#
#
# Mechanical properties :
#
#
# Convention : Reuss Voigt Hill
#
# Bulk Modulus (GPa) = 38.69384 39.91051 39.30218
# Shear Modulus (GPa) = 52.24772 15.54061 33.89416
#
# Velocity S-wave (km/s) = 5.25284 2.86480 4.23080
# Velocity P-wave (km/s) = 7.56466 5.65860 6.67996
#
# Compressibility (1/GPa) = 0.02584390
#
# Stress axis : x y z
#
# Youngs Moduli (GPa) = 60.23406 60.23406 75.27818
#
# Poissons Ratio (x) = 0.15141 0.29389
# Poissons Ratio (y) = 0.15141 0.29389
# Poissons Ratio (z) = 0.23516 0.23516
#
# Static dielectric constant tensor:
#      x y z
#    x 1.697630 0.000000 0.000000 
#    y 0.000000 1.697630 0.000000 
#    z 0.000000 0.000000 1.695780 
# 
# From -- ./inp_files/3305.got.cif
#   From: 2010.05.17/outbox.cif.g08.bks.cpg/sg130_2_cif.got.tgz:3305.got - 2010.05.20 12:17:35.
