data_PCOD9565431
_publ_section_title
;
Structure prediction by ZEFSAII (Michael W. Deem and Ramdas Pophale) SiO2 
 PCOD9565431
Probable space group: P 4/N M M
;
_chemical_formula_sum "Si O2"
_cell_formula_units_Z 96
_cell_length_a 23.105654
_cell_length_b 23.105654
_cell_length_c 10.025218
_cell_angle_alpha 90.000000
_cell_angle_beta 90.000000
_cell_angle_gamma 90.000000
_cell_volume 5352.175633
_symmetry_space_group_name_H-M "P 4/N M M"
_symmetry_group_IT_number 129
_symmetry_cell_setting 'tetragonal'
loop_
_space_group_symop_operation_xyz
x,y,z
1/2-y,x,z
1/2-x,1/2-y,z
y,1/2-x,z
1/2+x,-y,-z
-x,1/2+y,-z
1/2+y,1/2+x,-z
-y,-x,-z
-x,-y,-z
1/2+y,-x,-z
1/2+x,1/2+y,-z
-y,1/2+x,-z
1/2-x,y,z
x,1/2-y,z
1/2-y,1/2-x,z
y,x,z
loop_
_atom_site_type_symbol
_atom_site_label
_atom_site_fract_x
_atom_site_fract_y
_atom_site_fract_z
Si Si1 0.584284 0.818400 0.504257
Si Si2 0.815768 0.314099 0.161570
Si Si3 0.816416 0.973215 0.215486
Si Si4 0.519434 0.617136 0.731675
Si Si5 0.418970 0.899207 0.159086
Si Si6 0.910975 0.683579 0.940119
O O1 0.594700 0.750000 0.530332
O O2 0.641645 0.858356 0.520482
O O3 0.559431 0.824329 0.354958
O O4 0.535558 0.844351 0.603468
O O5 0.750000 0.323075 0.208463
O O6 0.835356 0.250000 0.204183
O O7 0.857867 0.365517 0.196838
O O8 0.813681 0.313681 0.000000
O O9 0.750000 0.996993 0.211253
O O10 0.863796 0.022780 0.190170
O O11 0.820576 0.927718 0.094773
O O12 0.564445 0.564445 0.731213
O O13 0.456757 0.590309 0.754558
O O14 0.535577 0.657593 0.857320
O O15 0.414530 0.914530 0.000000
O O16 0.901348 0.750000 0.904163
O O17 0.855729 0.644272 0.909375
#
# Coordination Sequence:
#
# PCOD9565431 Si02
#       6
#    16  16  16  16  16  16
#     4  10  22  41  62  85 115 150 189 238 294 347
#     4   8  15  27  44  71 106 137 173 226 275 318
#     4  10  21  37  57  83 116 150 190 241 287 334
#     4  10  22  37  54  80 112 145 186 235 279 333
#     4  11  20  33  55  83 109 154 195 228 280 349
#     4  10  20  35  55  80 110 142 181 233 288 341
#
# _framework density 17.936630999999998
#
# number of rings (size 3 to 8) (size 9 to 14) (size 15 to 20)
#    0.000    2.167    1.667    2.000    0.000    4.667 
#    0.000    1.667    0.000    6.000    0.000    0.000 
#    0.000    4.000    0.000    0.000    0.000    0.000 
#
# Total GULP energy -535317.506996 kJ/mol
# GULP energy per Si atom -5576.224031 kJ/mol
# Density = 1.789581 g / cm^3
# Si number density = 17.936631 Si / 1000 Ang^3
#
#
#
# Elastic Constant Matrix: (Units=GPa)
#
#
# Indices 1 2 3 4 5 6 
#
# 1 86.2758 50.4935 3.7991 0.0000 0.0000 0.0000
# 2 50.4935 86.2758 3.7991 0.0000 0.0000 0.0000
# 3 3.7991 3.7991 57.0009 0.0000 0.0000 0.0000
# 4 0.0000 0.0000 0.0000 21.3124 0.0000 0.0000
# 5 0.0000 0.0000 0.0000 0.0000 21.3124 0.0000
# 6 0.0000 0.0000 0.0000 0.0000 0.0000 24.0779
#
#
#
# Elastic Compliance Matrix: (Units=1/GPa)
#
#
# Indices 1 2 3 4 5 6 
#
# 1 0.017643 -0.010304 -0.000489 0.000000 0.000000 0.000000
# 2 -0.010304 0.017643 -0.000489 0.000000 0.000000 0.000000
# 3 -0.000489 -0.000489 0.017609 0.000000 0.000000 0.000000
# 4 0.000000 0.000000 0.000000 0.046921 0.000000 0.000000
# 5 0.000000 0.000000 0.000000 0.000000 0.046921 0.000000
# 6 0.000000 0.000000 0.000000 0.000000 0.000000 0.041532
#
#
# Mechanical properties :
#
#
# Convention : Reuss Voigt Hill
#
# Bulk Modulus (GPa) = 32.97090 38.41511 35.69301
# Shear Modulus (GPa) = 22.63029 24.77125 23.70077
#
# Velocity S-wave (km/s) = 3.55587 3.72027 3.63900
# Velocity P-wave (km/s) = 5.93976 6.31803 6.13181
#
# Compressibility (1/GPa) = 0.03032977
#
# Stress axis : x y z
#
# Youngs Moduli (GPa) = 56.68048 56.68048 56.78986
#
# Poissons Ratio (x) = 0.58404 0.02778
# Poissons Ratio (y) = 0.58404 0.02778
# Poissons Ratio (z) = 0.02772 0.02772
#
# Static dielectric constant tensor:
#      x y z
#    x 1.608580 0.000000 0.000000 
#    y 0.000000 1.608580 0.000000 
#    z 0.000000 0.000000 1.622640 
# 
# From -- ./inp_files/2614.got.cif
#   From: 2010.05.17/outbox.cif.g08.bks.cpg/sg129_2_cif.got.tgz:2614.got - 2010.05.20 12:12:06.
