data_PCOD9565053
_publ_section_title
;
Structure prediction by ZEFSAII (Michael W. Deem and Ramdas Pophale) SiO2 
 PCOD9565053
Probable space group: P 4/M N C
;
_chemical_formula_sum "Si O2"
_cell_formula_units_Z 48
_cell_length_a 8.750807
_cell_length_b 8.750807
_cell_length_c 27.648584
_cell_angle_alpha 90.000000
_cell_angle_beta 90.000000
_cell_angle_gamma 90.000000
_cell_volume 2117.235198
_symmetry_space_group_name_H-M "P 4/M N C"
_symmetry_group_IT_number 128
_symmetry_cell_setting 'tetragonal'
loop_
_space_group_symop_operation_xyz
x,y,z
-y,x,z
-x,-y,z
y,-x,z
1/2+x,1/2-y,1/2-z
1/2-x,1/2+y,1/2-z
1/2+y,1/2+x,1/2-z
1/2-y,1/2-x,1/2-z
-x,-y,-z
y,-x,-z
x,y,-z
-y,x,-z
1/2-x,1/2+y,1/2+z
1/2+x,1/2-y,1/2+z
1/2-y,1/2-x,1/2+z
1/2+y,1/2+x,1/2+z
loop_
_atom_site_type_symbol
_atom_site_label
_atom_site_fract_x
_atom_site_fract_y
_atom_site_fract_z
Si Si1 0.246370 0.074502 0.500000
Si Si2 0.332583 0.066510 0.818213
Si Si3 0.417230 0.266774 0.427061
Si Si4 0.715266 0.215266 0.250000
O O1 0.348227 0.120401 0.453663
O O2 0.095921 0.182315 0.500000
O O3 0.249992 0.078394 0.869199
O O4 0.326551 0.232824 0.793632
O O5 0.500000 0.000000 0.827245
O O6 0.268999 0.946259 0.778041
O O7 0.588922 0.311963 0.441065
#
# Coordination Sequence:
#
# PCOD9565053 Si02
#       4
#     8  16  16   8
#     4  11  28  51  74 106 147 186 232 299 376 444
#     4  12  25  43  68 106 143 189 241 292 359 418
#     4  11  25  44  75 109 139 183 243 298 357 429
#     4  12  22  44  66  98 146 188 234 296 344 422
#
# _framework density 22.671074999999998
#
# number of rings (size 3 to 8) (size 9 to 14) (size 15 to 20)
#    0.000    0.500    6.667    1.000    4.667    3.333 
#    0.000    0.000    0.000    0.000    0.000    0.000 
#    0.000    0.000    0.000    0.000    0.000    0.000 
#
# Total GULP energy -267933.318334 kJ/mol
# GULP energy per Si atom -5581.944132 kJ/mol
# Density = 2.261947 g / cm^3
# Si number density = 22.671075 Si / 1000 Ang^3
#
#
#
# Elastic Constant Matrix: (Units=GPa)
#
#
# Indices 1 2 3 4 5 6 
#
# 1 83.9168 50.3662 43.4229 0.0000 0.0000 0.0000
# 2 50.3662 83.9168 43.4229 0.0000 0.0000 0.0000
# 3 43.4229 43.4229 152.7572 0.0000 0.0000 0.0000
# 4 0.0000 0.0000 0.0000 40.1413 0.0000 0.0000
# 5 0.0000 0.0000 0.0000 0.0000 40.1413 0.0000
# 6 0.0000 0.0000 0.0000 0.0000 0.0000 47.6067
#
#
#
# Elastic Compliance Matrix: (Units=1/GPa)
#
#
# Indices 1 2 3 4 5 6 
#
# 1 0.019465 -0.010341 -0.002594 0.000000 0.000000 0.000000
# 2 -0.010341 0.019465 -0.002594 0.000000 0.000000 0.000000
# 3 -0.002594 -0.002594 0.008021 0.000000 0.000000 0.000000
# 4 0.000000 0.000000 0.000000 0.024912 0.000000 0.000000
# 5 0.000000 0.000000 0.000000 0.000000 0.024912 0.000000
# 6 0.000000 0.000000 0.000000 0.000000 0.000000 0.021005
#
#
# Mechanical properties :
#
#
# Convention : Reuss Voigt Hill
#
# Bulk Modulus (GPa) = 62.91330 66.11274 64.51302
# Shear Modulus (GPa) = 32.43912 37.80311 35.12112
#
# Velocity S-wave (km/s) = 3.78677 4.08788 3.94021
# Velocity P-wave (km/s) = 6.85057 7.17677 7.01557
#
# Compressibility (1/GPa) = 0.01589489
#
# Stress axis : x y z
#
# Youngs Moduli (GPa) = 51.37416 51.37416 124.67402
#
# Poissons Ratio (x) = 0.53124 0.32337
# Poissons Ratio (y) = 0.53124 0.32337
# Poissons Ratio (z) = 0.13325 0.13325
#
# Static dielectric constant tensor:
#      x y z
#    x 1.909200 0.000000 0.000000 
#    y 0.000000 1.909200 0.000000 
#    z 0.000000 0.000000 1.814170 
# 
# From -- ./inp_files/7026.got.cif
#   From: 2010.05.17/outbox.cif.g08.bks.cpg/sg128_4_cif.got.tgz:7026.got - 2010.05.20 12:07:25.
