data_PCOD9565406
_publ_section_title
;
Structure prediction by ZEFSAII (Michael W. Deem and Ramdas Pophale) SiO2 
 PCOD9565406
Probable space group: P 4/N M M
;
_chemical_formula_sum "Si O2"
_cell_formula_units_Z 112
_cell_length_a 18.700208
_cell_length_b 18.700208
_cell_length_c 18.216592
_cell_angle_alpha 90.000000
_cell_angle_beta 90.000000
_cell_angle_gamma 90.000000
_cell_volume 6370.301768
_symmetry_space_group_name_H-M "P 4/N M M"
_symmetry_group_IT_number 129
_symmetry_cell_setting 'tetragonal'
loop_
_space_group_symop_operation_xyz
x,y,z
1/2-y,x,z
1/2-x,1/2-y,z
y,1/2-x,z
1/2+x,-y,-z
-x,1/2+y,-z
1/2+y,1/2+x,-z
-y,-x,-z
-x,-y,-z
1/2+y,-x,-z
1/2+x,1/2+y,-z
-y,1/2+x,-z
1/2-x,y,z
x,1/2-y,z
1/2-y,1/2-x,z
y,x,z
loop_
_atom_site_type_symbol
_atom_site_label
_atom_site_fract_x
_atom_site_fract_y
_atom_site_fract_z
Si Si1 0.087536 0.669949 0.803790
Si Si2 0.552769 0.667688 0.074781
Si Si3 0.439343 0.559097 0.675387
Si Si4 0.334102 0.046729 0.595455
Si Si5 0.670860 0.943546 0.897564
Si Si6 0.666667 0.104143 0.073751
Si Si7 0.561847 0.333931 0.460492
O O1 0.089684 0.750000 0.771872
O O2 0.081172 0.608584 0.743719
O O3 0.152470 0.657351 0.859688
O O4 0.018521 0.664902 0.856896
O O5 0.565810 0.750000 0.095940
O O6 0.615180 0.615180 0.099025
O O7 0.474631 0.643434 0.100072
O O8 0.548394 0.665355 0.985633
O O9 0.508435 0.508435 0.687402
O O10 0.374569 0.506196 0.652286
O O11 0.452730 0.614501 0.608423
O O12 0.250000 0.057290 0.611965
O O13 0.380653 0.119348 0.592369
O O14 0.339050 0.003646 0.518274
O O15 0.750000 0.913894 0.882537
O O16 0.609972 0.890029 0.872415
O O17 0.750000 0.099455 0.055052
O O18 0.626464 0.126464 0.000000
O O19 0.631614 0.368387 0.500000
O O20 0.571753 0.250000 0.442243
#
# Coordination Sequence:
#
# PCOD9565406 Si02
#       7
#    16  16  16  16  16  16  16
#     4  11  22  35  51  74 102 132 169 214 261 310
#     4   9  18  32  51  75 100 127 161 203 251 305
#     4  10  20  34  53  76 105 141 178 213 255 306
#     4   9  18  33  54  79 106 136 171 212 255 302
#     4   9  17  30  47  69  97 126 160 201 245 296
#     4  11  22  37  54  73  97 129 170 215 265 322
#     4   9  17  31  52  79 110 144 180 216 254 300
#
# _framework density 17.581585
#
# number of rings (size 3 to 8) (size 9 to 14) (size 15 to 20)
#    0.000    2.286    1.429    1.714    0.000    5.286 
#    0.000    1.429    0.000    2.571    0.000    0.000 
#    0.000   12.571    0.000    0.000    0.000    0.000 
#
# Total GULP energy -624404.926374 kJ/mol
# GULP energy per Si atom -5575.043985 kJ/mol
# Density = 1.754157 g / cm^3
# Si number density = 17.581585 Si / 1000 Ang^3
#
#
#
# Elastic Constant Matrix: (Units=GPa)
#
#
# Indices 1 2 3 4 5 6 
#
# 1 101.3224 57.3214 18.7466 0.0000 0.0000 0.0000
# 2 57.3214 101.3230 18.7465 0.0000 0.0000 0.0000
# 3 18.7466 18.7465 37.6508 0.0000 0.0000 0.0000
# 4 0.0000 0.0000 0.0000 19.6628 0.0000 0.0000
# 5 0.0000 0.0000 0.0000 0.0000 19.6627 0.0000
# 6 0.0000 0.0000 0.0000 0.0000 0.0000 25.7952
#
#
#
# Elastic Compliance Matrix: (Units=1/GPa)
#
#
# Indices 1 2 3 4 5 6 
#
# 1 0.014935 -0.007791 -0.003557 0.000000 0.000000 0.000000
# 2 -0.007791 0.014935 -0.003557 0.000000 0.000000 0.000000
# 3 -0.003557 -0.003557 0.030102 0.000000 0.000000 0.000000
# 4 0.000000 0.000000 0.000000 0.050857 0.000000 0.000000
# 5 0.000000 0.000000 0.000000 0.000000 0.050858 0.000000
# 6 0.000000 0.000000 0.000000 0.000000 0.000000 0.038767
#
#
# Mechanical properties :
#
#
# Convention : Reuss Voigt Hill
#
# Bulk Modulus (GPa) = 33.15440 47.76946 40.46193
# Shear Modulus (GPa) = 20.80563 22.72292 21.76428
#
# Velocity S-wave (km/s) = 3.44376 3.59893 3.52220
# Velocity P-wave (km/s) = 5.89160 6.67075 6.29325
#
# Compressibility (1/GPa) = 0.03016191
#
# Stress axis : x y z
#
# Youngs Moduli (GPa) = 66.95500 66.95559 33.22030
#
# Poissons Ratio (x) = 0.52167 0.11817
# Poissons Ratio (y) = 0.52166 0.11816
# Poissons Ratio (z) = 0.23817 0.23816
#
# Static dielectric constant tensor:
#      x y z
#    x 1.599910 0.000000 0.000000 
#    y 0.000000 1.599910 0.000000 
#    z 0.000000 0.000000 1.587610 
# 
# From -- ./inp_files/6698.got.cif
#   From: 2010.05.17/outbox.cif.g08.bks.cpg/sg129_4_cif.got.tgz:6698.got - 2010.05.20 12:12:06.
