data_PCOD9565380
_publ_section_title
;
Structure prediction by ZEFSAII (Michael W. Deem and Ramdas Pophale) SiO2 
 PCOD9565380
Probable space group: P 4/N M M
;
_chemical_formula_sum "Si O2"
_cell_formula_units_Z 80
_cell_length_a 13.677353
_cell_length_b 13.677353
_cell_length_c 26.439043
_cell_angle_alpha 90.000000
_cell_angle_beta 90.000000
_cell_angle_gamma 90.000000
_cell_volume 4945.951380
_symmetry_space_group_name_H-M "P 4/N M M"
_symmetry_group_IT_number 129
_symmetry_cell_setting 'tetragonal'
loop_
_space_group_symop_operation_xyz
x,y,z
1/2-y,x,z
1/2-x,1/2-y,z
y,1/2-x,z
1/2+x,-y,-z
-x,1/2+y,-z
1/2+y,1/2+x,-z
-y,-x,-z
-x,-y,-z
1/2+y,-x,-z
1/2+x,1/2+y,-z
-y,1/2+x,-z
1/2-x,y,z
x,1/2-y,z
1/2-y,1/2-x,z
y,x,z
loop_
_atom_site_type_symbol
_atom_site_label
_atom_site_fract_x
_atom_site_fract_y
_atom_site_fract_z
Si Si1 0.029545 0.633311 0.952925
Si Si2 0.365656 0.975609 0.343378
Si Si3 0.026246 0.632785 0.138673
Si Si4 0.862904 0.133272 0.758275
Si Si5 0.027769 0.864922 0.543721
O O1 0.016881 0.750000 0.955196
O O2 0.088156 0.599767 0.902891
O O3 0.927521 0.572480 0.953597
O O4 0.092921 0.592921 0.000000
O O5 0.250000 0.990688 0.340159
O O6 0.395189 0.912020 0.295015
O O7 0.385181 0.932540 0.399377
O O8 0.423431 0.076570 0.340942
O O9 0.018260 0.750000 0.133363
O O10 0.069876 0.609027 0.193997
O O11 0.923791 0.576210 0.131918
O O12 0.750000 0.102903 0.768164
O O13 0.863061 0.250000 0.753277
O O14 0.100529 0.899472 0.500000
O O15 0.007636 0.750000 0.539938
O O16 0.930013 0.930013 0.538180
#
# Coordination Sequence:
#
# PCOD9565380 Si02
#       5
#    16  16  16  16  16
#     4  10  21  36  54  77 103 131 164 200 239 284
#     4   9  17  29  45  65  90 118 147 182 224 271
#     4  10  20  33  50  72  97 127 163 201 241 283
#     4   9  17  29  46  68  92 119 153 191 231 276
#     4   9  18  31  46  66  91 119 152 189 230 276
#
# _framework density 16.174845000000001
#
# number of rings (size 3 to 8) (size 9 to 14) (size 15 to 20)
#    0.000    2.600    0.000    1.800    0.000    4.000 
#    0.000    4.000    0.000    3.600    0.000    2.800 
#    0.000    4.800    0.000    0.000    0.000    0.000 
#
# Total GULP energy -445598.456439 kJ/mol
# GULP energy per Si atom -5569.980705 kJ/mol
# Density = 1.613803 g / cm^3
# Si number density = 16.174845 Si / 1000 Ang^3
#
#
#
# Elastic Constant Matrix: (Units=GPa)
#
#
# Indices 1 2 3 4 5 6 
#
# 1 84.6320 45.3444 54.2241 0.0000 0.0000 0.0000
# 2 45.3444 84.6355 54.2254 0.0000 0.0000 0.0000
# 3 54.2241 54.2254 137.8637 0.0000 0.0000 0.0000
# 4 0.0000 0.0000 0.0000 24.5905 0.0000 0.0000
# 5 0.0000 0.0000 0.0000 0.0000 24.5904 0.0000
# 6 0.0000 0.0000 0.0000 0.0000 0.0000 13.2411
#
#
#
# Elastic Compliance Matrix: (Units=1/GPa)
#
#
# Indices 1 2 3 4 5 6 
#
# 1 0.018452 -0.007000 -0.004504 0.000000 0.000000 0.000000
# 2 -0.007000 0.018452 -0.004504 0.000000 0.000000 0.000000
# 3 -0.004504 -0.004504 0.010797 0.000000 0.000000 0.000000
# 4 0.000000 0.000000 0.000000 0.040666 0.000000 0.000000
# 5 0.000000 0.000000 0.000000 0.000000 0.040666 0.000000
# 6 0.000000 0.000000 0.000000 0.000000 0.000000 0.075522
#
#
# Mechanical properties :
#
#
# Convention : Reuss Voigt Hill
#
# Bulk Modulus (GPa) = 63.76168 68.30213 66.03191
# Shear Modulus (GPa) = 20.67819 22.70688 21.69254
#
# Velocity S-wave (km/s) = 3.57937 3.75085 3.66611
# Velocity P-wave (km/s) = 7.52253 7.81521 7.67027
#
# Compressibility (1/GPa) = 0.01568340
#
# Stress axis : x y z
#
# Youngs Moduli (GPa) = 54.19357 54.19578 92.62032
#
# Poissons Ratio (x) = 0.37938 0.41719
# Poissons Ratio (y) = 0.37937 0.41718
# Poissons Ratio (z) = 0.24410 0.24411
#
# Static dielectric constant tensor:
#      x y z
#    x 1.520880 0.000000 0.000000 
#    y 0.000000 1.520880 0.000000 
#    z 0.000000 0.000000 1.568300 
# 
# From -- ./inp_files/6338.got.cif
#   From: 2010.05.17/outbox.cif.g08.bks.cpg/sg129_4_cif.got.tgz:6338.got - 2010.05.20 12:12:06.
