data_PCOD9565007
_publ_section_title
;
Structure prediction by ZEFSAII (Michael W. Deem and Ramdas Pophale) SiO2 
 PCOD9565007
Probable space group: P 4/M N C
;
_chemical_formula_sum "Si O2"
_cell_formula_units_Z 96
_cell_length_a 23.949063
_cell_length_b 23.949063
_cell_length_c 8.616560
_cell_angle_alpha 90.000000
_cell_angle_beta 90.000000
_cell_angle_gamma 90.000000
_cell_volume 4942.093634
_symmetry_space_group_name_H-M "P 4/M N C"
_symmetry_group_IT_number 128
_symmetry_cell_setting 'tetragonal'
loop_
_space_group_symop_operation_xyz
x,y,z
-y,x,z
-x,-y,z
y,-x,z
1/2+x,1/2-y,1/2-z
1/2-x,1/2+y,1/2-z
1/2+y,1/2+x,1/2-z
1/2-y,1/2-x,1/2-z
-x,-y,-z
y,-x,-z
x,y,-z
-y,x,-z
1/2-x,1/2+y,1/2+z
1/2+x,1/2-y,1/2+z
1/2-y,1/2-x,1/2+z
1/2+y,1/2+x,1/2+z
loop_
_atom_site_type_symbol
_atom_site_label
_atom_site_fract_x
_atom_site_fract_y
_atom_site_fract_z
Si Si1 0.270857 0.012307 0.683867
Si Si2 0.138957 0.724349 0.814312
Si Si3 0.848203 0.999825 0.820297
Si Si4 0.813098 0.602025 0.314886
Si Si5 0.900841 0.098647 0.324484
Si Si6 0.329002 0.708918 0.177614
O O1 0.278408 0.015994 0.500000
O O2 0.208442 0.993033 0.726579
O O3 0.307142 0.961288 0.751838
O O4 0.275159 0.074831 0.754422
O O5 0.169267 0.669267 0.750000
O O6 0.177873 0.775775 0.753991
O O7 0.138515 0.725663 0.000000
O O8 0.895571 0.036676 0.739777
O O9 0.865866 0.936386 0.796004
O O10 0.840886 0.014559 0.000000
O O11 0.868234 0.631767 0.250000
O O12 0.812906 0.600678 0.500000
O O13 0.761589 0.642038 0.259794
O O14 0.923503 0.102379 0.500000
O O15 0.839361 0.124535 0.327525
O O16 0.314129 0.724698 0.000000
#
# Coordination Sequence:
#
# PCOD9565007 Si02
#       6
#    16  16  16  16  16  16
#     4  12  24  42  65  92 125 164 206 251 307 371
#     4  12  25  42  65  95 129 166 208 256 310 369
#     4  12  24  39  61  88 119 159 211 261 310 365
#     4  12  25  42  65  95 129 166 208 256 310 369
#     4  11  23  39  61  85 119 163 210 258 311 365
#     4  11  22  38  62  92 128 167 207 256 311 368
#
# _framework density 19.424966999999999
#
# number of rings (size 3 to 8) (size 9 to 14) (size 15 to 20)
#    0.000    0.333    3.333    7.500    0.000    1.667 
#    0.000    1.667    0.000    0.500    0.000    3.500 
#    0.000    0.000    0.000    0.000    0.000    0.000 
#
# Total GULP energy -536521.863797 kJ/mol
# GULP energy per Si atom -5588.769415 kJ/mol
# Density = 1.938075 g / cm^3
# Si number density = 19.424967 Si / 1000 Ang^3
#
#
#
# Elastic Constant Matrix: (Units=GPa)
#
#
# Indices 1 2 3 4 5 6 
#
# 1 88.2598 31.2356 42.1038 0.0000 0.0000 0.0000
# 2 31.2356 88.2616 42.1027 0.0000 0.0000 0.0000
# 3 42.1038 42.1027 180.7197 0.0000 0.0000 0.0000
# 4 0.0000 0.0000 0.0000 52.7914 0.0000 0.0000
# 5 0.0000 0.0000 0.0000 0.0000 52.7713 0.0000
# 6 0.0000 0.0000 0.0000 0.0000 0.0000 16.0790
#
#
#
# Elastic Compliance Matrix: (Units=1/GPa)
#
#
# Indices 1 2 3 4 5 6 
#
# 1 0.013774 -0.003762 -0.002333 0.000000 0.000000 0.000000
# 2 -0.003762 0.013774 -0.002332 0.000000 0.000000 0.000000
# 3 -0.002333 -0.002332 0.006620 0.000000 0.000000 0.000000
# 4 0.000000 0.000000 0.000000 0.018942 0.000000 0.000000
# 5 0.000000 0.000000 0.000000 0.000000 0.018950 0.000000
# 6 0.000000 0.000000 0.000000 0.000000 0.000000 0.062193
#
#
# Mechanical properties :
#
#
# Convention : Reuss Voigt Hill
#
# Bulk Modulus (GPa) = 57.75569 65.34725 61.55147
# Shear Modulus (GPa) = 31.87155 40.44825 36.15990
#
# Velocity S-wave (km/s) = 4.05501 4.56815 4.31921
# Velocity P-wave (km/s) = 7.19176 7.84461 7.52527
#
# Compressibility (1/GPa) = 0.01731431
#
# Stress axis : x y z
#
# Youngs Moduli (GPa) = 72.59860 72.60076 151.05043
#
# Poissons Ratio (x) = 0.27312 0.35235
# Poissons Ratio (y) = 0.27311 0.35232
# Poissons Ratio (z) = 0.16935 0.16934
#
# Static dielectric constant tensor:
#      x y z
#    x 1.711470 0.000000 0.000000 
#    y 0.000000 1.711470 0.000000 
#    z 0.000000 0.000000 1.662190 
# 
# From -- ./inp_files/1507.got.cif
#   From: 2010.05.17/outbox.cif.g08.bks.cpg/sg128_1_cif.got.tgz:1507.got - 2010.05.20 12:07:25.
