data_PCOD9565113
_publ_section_title
;
Structure prediction by ZEFSAII (Michael W. Deem and Ramdas Pophale) SiO2 
 PCOD9565113
Probable space group: P 4/N M M
;
_chemical_formula_sum "Si O2"
_cell_formula_units_Z 72
_cell_length_a 22.241081
_cell_length_b 22.241081
_cell_length_c 8.923461
_cell_angle_alpha 90.000000
_cell_angle_beta 90.000000
_cell_angle_gamma 90.000000
_cell_volume 4414.129940
_symmetry_space_group_name_H-M "P 4/N M M"
_symmetry_group_IT_number 129
_symmetry_cell_setting 'tetragonal'
loop_
_space_group_symop_operation_xyz
x,y,z
1/2-y,x,z
1/2-x,1/2-y,z
y,1/2-x,z
1/2+x,-y,-z
-x,1/2+y,-z
1/2+y,1/2+x,-z
-y,-x,-z
-x,-y,-z
1/2+y,-x,-z
1/2+x,1/2+y,-z
-y,1/2+x,-z
1/2-x,y,z
x,1/2-y,z
1/2-y,1/2-x,z
y,x,z
loop_
_atom_site_type_symbol
_atom_site_label
_atom_site_fract_x
_atom_site_fract_y
_atom_site_fract_z
Si Si1 0.422584 0.822406 0.017202
Si Si2 0.680501 0.028675 0.684472
Si Si3 0.582527 0.820757 0.490261
Si Si4 0.577566 0.422435 0.500000
Si Si5 0.106797 0.488813 0.756387
O O1 0.415337 0.750000 0.048843
O O2 0.465373 0.857486 0.135753
O O3 0.359921 0.859921 0.000000
O O4 0.456460 0.827863 0.857632
O O5 0.750000 0.037288 0.647638
O O6 0.640622 0.071262 0.582167
O O7 0.664447 0.961638 0.629625
O O8 0.590334 0.750000 0.481349
O O9 0.644021 0.855979 0.507784
O O10 0.549879 0.845737 0.340974
O O11 0.528406 0.427161 0.630405
O O12 0.057964 0.442037 0.825052
#
# Coordination Sequence:
#
# PCOD9565113 Si02
#       5
#    16  16  16   8  16
#     4  11  22  38  55  77 106 143 182 223 269 315
#     4   9  19  34  51  73 103 136 172 213 261 312
#     4   9  18  33  53  77 106 140 174 213 260 312
#     4  10  17  34  52  75 104 136 166 213 264 316
#     4  10  20  33  53  81 106 135 172 216 268 321
#
# _framework density 16.311254999999999
#
# number of rings (size 3 to 8) (size 9 to 14) (size 15 to 20)
#    0.000    2.222    2.222    1.000    0.000    3.556 
#    0.000    0.000    0.000    0.333    0.000    0.000 
#    0.000    5.333    0.000    0.000    0.000    0.000 
#
# Total GULP energy -400875.037684 kJ/mol
# GULP energy per Si atom -5567.708857 kJ/mol
# Density = 1.627413 g / cm^3
# Si number density = 16.311255 Si / 1000 Ang^3
#
#
#
# Elastic Constant Matrix: (Units=GPa)
#
#
# Indices 1 2 3 4 5 6 
#
# 1 83.8175 76.6912 50.6161 0.0000 0.0000 0.0000
# 2 76.6912 83.8181 50.6162 0.0000 0.0000 0.0000
# 3 50.6161 50.6162 62.8169 0.0000 0.0000 0.0000
# 4 0.0000 0.0000 0.0000 19.4185 0.0000 0.0000
# 5 0.0000 0.0000 0.0000 0.0000 19.4186 0.0000
# 6 0.0000 0.0000 0.0000 0.0000 0.0000 25.4413
#
#
#
# Elastic Compliance Matrix: (Units=1/GPa)
#
#
# Indices 1 2 3 4 5 6 
#
# 1 0.076494 -0.063825 -0.010208 0.000000 0.000000 0.000000
# 2 -0.063825 0.076493 -0.010207 0.000000 0.000000 0.000000
# 3 -0.010208 -0.010207 0.032369 0.000000 0.000000 0.000000
# 4 0.000000 0.000000 0.000000 0.051497 0.000000 0.000000
# 5 0.000000 0.000000 0.000000 0.000000 0.051497 0.000000
# 6 0.000000 0.000000 0.000000 0.000000 0.000000 0.039306
#
#
# Mechanical properties :
#
#
# Convention : Reuss Voigt Hill
#
# Bulk Modulus (GPa) = 59.25904 65.14438 62.20171
# Shear Modulus (GPa) = 9.96488 16.35763 13.16125
#
# Velocity S-wave (km/s) = 2.47436 3.17021 2.84365
# Velocity P-wave (km/s) = 6.67625 7.30926 6.99991
#
# Compressibility (1/GPa) = 0.01687506
#
# Stress axis : x y z
#
# Youngs Moduli (GPa) = 13.07294 13.07310 30.89357
#
# Poissons Ratio (x) = 0.83440 0.31536
# Poissons Ratio (y) = 0.83439 0.31534
# Poissons Ratio (z) = 0.13345 0.13344
#
# Static dielectric constant tensor:
#      x y z
#    x 1.552200 0.000000 0.000000 
#    y 0.000000 1.552200 0.000000 
#    z 0.000000 0.000000 1.546940 
# 
# From -- ./inp_files/2265.got.cif
#   From: 2010.05.17/outbox.cif.g08.bks.cpg/sg129_2_cif.got.tgz:2265.got - 2010.05.20 12:12:06.
