data_PCOD9565697
_publ_section_title
;
Structure prediction by ZEFSAII (Michael W. Deem and Ramdas Pophale) SiO2 
 PCOD9565697
Probable space group: P 4/N C C
;
_chemical_formula_sum "Si O2"
_cell_formula_units_Z 80
_cell_length_a 16.379027
_cell_length_b 16.379027
_cell_length_c 13.989200
_cell_angle_alpha 90.000000
_cell_angle_beta 90.000000
_cell_angle_gamma 90.000000
_cell_volume 3752.918013
_symmetry_space_group_name_H-M "P 4/N C C"
_symmetry_group_IT_number 130
_symmetry_cell_setting 'tetragonal'
loop_
_space_group_symop_operation_xyz
x,y,z
1/2-y,x,z
1/2-x,1/2-y,z
y,1/2-x,z
1/2+x,-y,1/2-z
-x,1/2+y,1/2-z
1/2+y,1/2+x,1/2-z
-y,-x,1/2-z
-x,-y,-z
1/2+y,-x,-z
1/2+x,1/2+y,-z
-y,1/2+x,-z
1/2-x,y,1/2+z
x,1/2-y,1/2+z
1/2-y,1/2-x,1/2+z
y,x,1/2+z
loop_
_atom_site_type_symbol
_atom_site_label
_atom_site_fract_x
_atom_site_fract_y
_atom_site_fract_z
Si Si1 0.948774 0.505318 0.650584
Si Si2 0.978660 0.756885 0.409177
Si Si3 0.786377 0.081547 0.224369
Si Si4 0.875032 0.277071 0.463077
Si Si5 0.074093 0.099464 0.031826
O O1 0.000474 0.500474 0.750000
O O2 0.857672 0.474355 0.676697
O O3 0.939338 0.584382 0.582212
O O4 0.995675 0.439580 0.584880
O O5 0.909072 0.688480 0.422002
O O6 0.953773 0.847323 0.437042
O O7 0.029620 0.749681 0.311352
O O8 0.038562 0.720029 0.488804
O O9 0.836959 0.163042 0.250000
O O10 0.719304 0.111616 0.149274
O O11 0.839537 0.188437 0.492345
#
# Coordination Sequence:
#
# PCOD9565697 Si02
#       5
#    16  16  16  16  16
#     4  10  20  42  70  95 127 182 227 280 329 415
#     4  12  25  43  66 100 134 180 227 289 341 417
#     4  11  20  43  67  92 138 169 222 285 342 409
#     4  11  23  40  63  95 136 174 218 279 355 415
#     4  11  24  41  69  97 136 176 230 279 350 407
#
# _framework density 21.316745999999998
#
# number of rings (size 3 to 8) (size 9 to 14) (size 15 to 20)
#    0.000    1.000    8.000    0.000    2.800    2.800 
#    0.000    0.000    0.000    0.000    0.000    0.000 
#    0.000    0.000    0.000    0.000    0.000    0.000 
#
# Total GULP energy -446305.692652 kJ/mol
# GULP energy per Si atom -5578.821158 kJ/mol
# Density = 2.126823 g / cm^3
# Si number density = 21.316746 Si / 1000 Ang^3
#
#
#
# Elastic Constant Matrix: (Units=GPa)
#
#
# Indices 1 2 3 4 5 6 
#
# 1 32.5300 13.0603 14.1537 0.0000 0.0000 0.0000
# 2 13.0603 32.5307 14.1550 0.0000 0.0000 0.0000
# 3 14.1537 14.1550 137.3127 0.0000 0.0000 0.0000
# 4 0.0000 0.0000 0.0000 31.6389 0.0000 0.0000
# 5 0.0000 0.0000 0.0000 0.0000 31.6387 0.0000
# 6 0.0000 0.0000 0.0000 0.0000 0.0000 5.5041
#
#
#
# Elastic Compliance Matrix: (Units=1/GPa)
#
#
# Indices 1 2 3 4 5 6 
#
# 1 0.037398 -0.013963 -0.002415 0.000000 0.000000 0.000000
# 2 -0.013963 0.037397 -0.002416 0.000000 0.000000 0.000000
# 3 -0.002415 -0.002416 0.007781 0.000000 0.000000 0.000000
# 4 0.000000 0.000000 0.000000 0.031607 0.000000 0.000000
# 5 0.000000 0.000000 0.000000 0.000000 0.031607 0.000000
# 6 0.000000 0.000000 0.000000 0.000000 0.000000 0.181683
#
#
# Mechanical properties :
#
#
# Convention : Reuss Voigt Hill
#
# Bulk Modulus (GPa) = 22.22879 31.67904 26.95391
# Shear Modulus (GPa) = 13.15591 24.48997 18.82294
#
# Velocity S-wave (km/s) = 2.48697 3.39316 2.97478
# Velocity P-wave (km/s) = 4.32403 5.49952 4.94682
#
# Compressibility (1/GPa) = 0.04498670
#
# Stress axis : x y z
#
# Youngs Moduli (GPa) = 26.73950 26.73986 128.52379
#
# Poissons Ratio (x) = 0.37338 0.31044
# Poissons Ratio (y) = 0.37337 0.31049
# Poissons Ratio (z) = 0.06459 0.06460
#
# Static dielectric constant tensor:
#      x y z
#    x 1.899410 0.000000 0.000000 
#    y 0.000000 1.899410 0.000000 
#    z 0.000000 0.000000 1.810310 
# 
# From -- ./inp_files/2320.got.cif
#   From: 2010.05.17/outbox.cif.g08.bks.cpg/sg130_2_cif.got.tgz:2320.got - 2010.05.20 12:17:35.
