data_PCOD9565703
_publ_section_title
;
Structure prediction by ZEFSAII (Michael W. Deem and Ramdas Pophale) SiO2 
 PCOD9565703
Probable space group: P 4/N C C
;
_chemical_formula_sum "Si O2"
_cell_formula_units_Z 96
_cell_length_a 25.763886
_cell_length_b 25.763886
_cell_length_c 8.875196
_cell_angle_alpha 90.000000
_cell_angle_beta 90.000000
_cell_angle_gamma 90.000000
_cell_volume 5891.158269
_symmetry_space_group_name_H-M "P 4/N C C"
_symmetry_group_IT_number 130
_symmetry_cell_setting 'tetragonal'
loop_
_space_group_symop_operation_xyz
x,y,z
1/2-y,x,z
1/2-x,1/2-y,z
y,1/2-x,z
1/2+x,-y,1/2-z
-x,1/2+y,1/2-z
1/2+y,1/2+x,1/2-z
-y,-x,1/2-z
-x,-y,-z
1/2+y,-x,-z
1/2+x,1/2+y,-z
-y,1/2+x,-z
1/2-x,y,1/2+z
x,1/2-y,1/2+z
1/2-y,1/2-x,1/2+z
y,x,1/2+z
loop_
_atom_site_type_symbol
_atom_site_label
_atom_site_fract_x
_atom_site_fract_y
_atom_site_fract_z
Si Si1 0.580866 0.500952 0.941026
Si Si2 0.640844 0.193722 0.375455
Si Si3 0.417224 0.497127 0.421638
Si Si4 0.695180 0.027412 0.461435
Si Si5 0.861301 0.308360 0.874970
Si Si6 0.803278 0.475657 0.096987
O O1 0.579888 0.504983 0.759794
O O2 0.549610 0.447287 0.974331
O O3 0.640253 0.499753 0.994373
O O4 0.548974 0.548524 0.010321
O O5 0.650157 0.150157 0.250000
O O6 0.683006 0.183180 0.501896
O O7 0.644043 0.250967 0.306652
O O8 0.584465 0.189523 0.449245
O O9 0.355923 0.496463 0.455541
O O10 0.689770 0.084422 0.536423
O O11 0.699927 0.027466 0.279544
O O12 0.748742 0.005211 0.529787
O O13 0.851877 0.351877 0.750000
#
# Coordination Sequence:
#
# PCOD9565703 Si02
#       6
#    16  16  16  16  16  16
#     4   9  18  34  51  76 100 128 165 206 250 297
#     4  11  21  35  47  60  86 119 159 205 253 291
#     4   9  18  33  53  74 100 130 162 206 254 290
#     4  10  21  36  50  72  97 127 164 199 246 301
#     4  11  23  33  46  65  83 118 163 206 251 293
#     4  10  21  34  53  69  97 131 159 200 249 296
#
# _framework density 16.295608000000001
#
# number of rings (size 3 to 8) (size 9 to 14) (size 15 to 20)
#    0.000    2.000    1.667    2.000    9.333    3.333 
#    6.000    0.000    0.000    0.000    0.000    0.000 
#    0.000    0.667    0.000    7.333    0.000    5.333 
#
# Total GULP energy -535026.438387 kJ/mol
# GULP energy per Si atom -5573.192067 kJ/mol
# Density = 1.625852 g / cm^3
# Si number density = 16.295608 Si / 1000 Ang^3
#
#
#
# Elastic Constant Matrix: (Units=GPa)
#
#
# Indices 1 2 3 4 5 6 
#
# 1 99.5078 49.7996 23.9676 0.0000 0.0000 0.0000
# 2 49.7996 99.5078 23.9676 0.0000 0.0000 0.0000
# 3 23.9676 23.9676 28.7464 0.0000 0.0000 0.0000
# 4 0.0000 0.0000 0.0000 23.7475 0.0000 0.0000
# 5 0.0000 0.0000 0.0000 0.0000 23.7475 0.0000
# 6 0.0000 0.0000 0.0000 0.0000 0.0000 21.6787
#
#
#
# Elastic Compliance Matrix: (Units=1/GPa)
#
#
# Indices 1 2 3 4 5 6 
#
# 1 0.014632 -0.005486 -0.007625 0.000000 0.000000 0.000000
# 2 -0.005486 0.014632 -0.007625 0.000000 0.000000 0.000000
# 3 -0.007625 -0.007625 0.047502 0.000000 0.000000 0.000000
# 4 0.000000 0.000000 0.000000 0.042110 0.000000 0.000000
# 5 0.000000 0.000000 0.000000 0.000000 0.042110 0.000000
# 6 0.000000 0.000000 0.000000 0.000000 0.000000 0.046128
#
#
# Mechanical properties :
#
#
# Convention : Reuss Voigt Hill
#
# Bulk Modulus (GPa) = 28.33463 47.02572 37.68017
# Shear Modulus (GPa) = 19.20490 22.50322 20.85406
#
# Velocity S-wave (km/s) = 3.43670 3.72013 3.58122
# Velocity P-wave (km/s) = 5.75965 6.88281 6.34612
#
# Compressibility (1/GPa) = 0.03529250
#
# Stress axis : x y z
#
# Youngs Moduli (GPa) = 68.34537 68.34537 21.05158
#
# Poissons Ratio (x) = 0.37493 0.16052
# Poissons Ratio (y) = 0.37493 0.16052
# Poissons Ratio (z) = 0.52116 0.52116
#
# Static dielectric constant tensor:
#      x y z
#    x 1.552950 0.000000 0.000000 
#    y 0.000000 1.552950 0.000000 
#    z 0.000000 0.000000 1.593630 
# 
# From -- ./inp_files/1000.got.cif
#   From: 2010.05.17/outbox.cif.g08.bks.cpg/sg130_1_cif.got.tgz:1000.got - 2010.05.20 12:17:35.
