data_PCOD9565730
_publ_section_title
;
Structure prediction by ZEFSAII (Michael W. Deem and Ramdas Pophale) SiO2 
 PCOD9565730
Probable space group: P 4/N C C
;
_chemical_formula_sum "Si O2"
_cell_formula_units_Z 96
_cell_length_a 15.087461
_cell_length_b 15.087461
_cell_length_c 22.531153
_cell_angle_alpha 90.000000
_cell_angle_beta 90.000000
_cell_angle_gamma 90.000000
_cell_volume 5128.799691
_symmetry_space_group_name_H-M "P 4/N C C"
_symmetry_group_IT_number 130
_symmetry_cell_setting 'tetragonal'
loop_
_space_group_symop_operation_xyz
x,y,z
1/2-y,x,z
1/2-x,1/2-y,z
y,1/2-x,z
1/2+x,-y,1/2-z
-x,1/2+y,1/2-z
1/2+y,1/2+x,1/2-z
-y,-x,1/2-z
-x,-y,-z
1/2+y,-x,-z
1/2+x,1/2+y,-z
-y,1/2+x,-z
1/2-x,y,1/2+z
x,1/2-y,1/2+z
1/2-y,1/2-x,1/2+z
y,x,1/2+z
loop_
_atom_site_type_symbol
_atom_site_label
_atom_site_fract_x
_atom_site_fract_y
_atom_site_fract_z
Si Si1 0.526429 0.858122 0.849419
Si Si2 0.101944 0.018127 0.374126
Si Si3 0.294832 0.569144 0.268312
Si Si4 0.821872 0.883701 0.511720
Si Si5 0.098174 0.546674 0.308606
Si Si6 0.664016 0.975607 0.888549
O O1 0.471259 0.938792 0.879578
O O2 0.492057 0.831172 0.784775
O O3 0.626353 0.894157 0.849171
O O4 0.514792 0.768682 0.885441
O O5 0.168799 0.971638 0.329092
O O6 0.147942 0.059907 0.431100
O O7 0.046632 0.095991 0.342019
O O8 0.336391 0.663610 0.250000
O O9 0.190796 0.570448 0.278776
O O10 0.715114 0.865869 0.510638
O O11 0.853490 0.942339 0.455342
O O12 0.036380 0.536380 0.250000
O O13 0.060216 0.617473 0.356607
#
# Coordination Sequence:
#
# PCOD9565730 Si02
#       6
#    16  16  16  16  16  16
#     4  10  21  37  63  89 124 160 204 260 314 378
#     4  10  22  40  59  91 123 166 208 251 321 373
#     4  10  21  39  61  92 127 161 204 256 314 378
#     4  11  23  41  65  90 125 165 212 265 316 379
#     4  11  21  37  63  90 123 160 203 259 311 377
#     4  11  21  39  61  92 121 161 213 254 317 369
#
# _framework density 18.717828999999998
#
# number of rings (size 3 to 8) (size 9 to 14) (size 15 to 20)
#    0.000    1.500    3.333    3.500    0.000    3.333 
#    3.000    0.000    0.000    0.000    0.000    0.000 
#    0.000    0.000    0.000    0.000    0.000    0.000 
#
# Total GULP energy -534541.776808 kJ/mol
# GULP energy per Si atom -5568.143508 kJ/mol
# Density = 1.867523 g / cm^3
# Si number density = 18.717829 Si / 1000 Ang^3
#
#
#
# Elastic Constant Matrix: (Units=GPa)
#
#
# Indices 1 2 3 4 5 6 
#
# 1 84.2861 26.7261 46.1471 0.0000 0.0000 0.0000
# 2 26.7261 84.2858 46.1475 0.0000 0.0000 0.0000
# 3 46.1471 46.1475 123.8710 0.0000 0.0000 0.0000
# 4 0.0000 0.0000 0.0000 32.7362 0.0000 0.0000
# 5 0.0000 0.0000 0.0000 0.0000 32.7368 0.0000
# 6 0.0000 0.0000 0.0000 0.0000 0.0000 16.5690
#
#
#
# Elastic Compliance Matrix: (Units=1/GPa)
#
#
# Indices 1 2 3 4 5 6 
#
# 1 0.015212 -0.002162 -0.004862 0.000000 0.000000 0.000000
# 2 -0.002162 0.015212 -0.004862 0.000000 0.000000 0.000000
# 3 -0.004862 -0.004862 0.011695 0.000000 0.000000 0.000000
# 4 0.000000 0.000000 0.000000 0.030547 0.000000 0.000000
# 5 0.000000 0.000000 0.000000 0.000000 0.030547 0.000000
# 6 0.000000 0.000000 0.000000 0.000000 0.000000 0.060354
#
#
# Mechanical properties :
#
#
# Convention : Reuss Voigt Hill
#
# Bulk Modulus (GPa) = 54.50025 58.94270 56.72148
# Shear Modulus (GPa) = 25.84619 27.96989 26.90804
#
# Velocity S-wave (km/s) = 3.71999 3.86980 3.79563
# Velocity P-wave (km/s) = 6.90152 7.17814 7.04119
#
# Compressibility (1/GPa) = 0.01834854
#
# Stress axis : x y z
#
# Youngs Moduli (GPa) = 65.73956 65.73894 85.50444
#
# Poissons Ratio (x) = 0.14210 0.41569
# Poissons Ratio (y) = 0.14210 0.41570
# Poissons Ratio (z) = 0.31960 0.31961
#
# Static dielectric constant tensor:
#      x y z
#    x 1.704300 0.000000 0.000000 
#    y 0.000000 1.704300 0.000000 
#    z 0.000000 0.000000 1.672500 
# 
# From -- ./inp_files/3761.got.cif
#   From: 2010.05.17/outbox.cif.g08.bks.cpg/sg130_2_cif.got.tgz:3761.got - 2010.05.20 12:17:35.
