data_PCOD9565198
_publ_section_title
;
Structure prediction by ZEFSAII (Michael W. Deem and Ramdas Pophale) SiO2 
 PCOD9565198
Probable space group: P 4/N M M
;
_chemical_formula_sum "Si O2"
_cell_formula_units_Z 88
_cell_length_a 18.727304
_cell_length_b 18.727304
_cell_length_c 16.332758
_cell_angle_alpha 90.000000
_cell_angle_beta 90.000000
_cell_angle_gamma 90.000000
_cell_volume 5728.092837
_symmetry_space_group_name_H-M "P 4/N M M"
_symmetry_group_IT_number 129
_symmetry_cell_setting 'tetragonal'
loop_
_space_group_symop_operation_xyz
x,y,z
1/2-y,x,z
1/2-x,1/2-y,z
y,1/2-x,z
1/2+x,-y,-z
-x,1/2+y,-z
1/2+y,1/2+x,-z
-y,-x,-z
-x,-y,-z
1/2+y,-x,-z
1/2+x,1/2+y,-z
-y,1/2+x,-z
1/2-x,y,z
x,1/2-y,z
1/2-y,1/2-x,z
y,x,z
loop_
_atom_site_type_symbol
_atom_site_label
_atom_site_fract_x
_atom_site_fract_y
_atom_site_fract_z
Si Si1 0.665361 0.464752 0.081045
Si Si2 0.048408 0.333674 0.083641
Si Si3 0.165228 0.834773 0.500000
Si Si4 0.833444 0.951108 0.249313
Si Si5 0.335252 0.897357 0.674101
Si Si6 0.332574 0.595139 0.166125
O O1 0.750000 0.451564 0.075051
O O2 0.653396 0.516893 0.158434
O O3 0.629345 0.389742 0.103735
O O4 0.643848 0.505492 0.998701
O O5 0.067823 0.250000 0.074696
O O6 0.115735 0.384266 0.095120
O O7 0.990026 0.339897 0.155658
O O8 0.250000 0.845926 0.487737
O O9 0.125438 0.856209 0.416978
O O10 0.750000 0.930885 0.254504
O O11 0.886210 0.886210 0.265343
O O12 0.846085 0.018870 0.308345
O O13 0.250000 0.883264 0.684155
O O14 0.376230 0.853743 0.744475
O O15 0.250000 0.613051 0.146928
#
# Coordination Sequence:
#
# PCOD9565198 Si02
#       6
#    16  16   8  16  16  16
#     4   9  18  31  46  66  92 122 155 189 224 264
#     4  10  21  35  49  66  87 114 154 198 235 270
#     4   9  16  28  49  72  92 118 149 178 212 259
#     4   9  17  29  45  65  90 120 154 192 233 274
#     4   9  18  31  47  69  96 123 150 181 219 265
#     4  10  19  29  44  68  96 124 152 180 214 265
#
# _framework density 15.362879
#
# number of rings (size 3 to 8) (size 9 to 14) (size 15 to 20)
#    0.000    2.636    0.000    3.273    0.000    6.909 
#    0.000    1.364    0.000    9.818    0.000    0.000 
#    0.000    0.000    0.000    9.455    0.000    0.000 
#
# Total GULP energy -490480.082927 kJ/mol
# GULP energy per Si atom -5573.637306 kJ/mol
# Density = 1.532791 g / cm^3
# Si number density = 15.362879 Si / 1000 Ang^3
#
#
#
# Elastic Constant Matrix: (Units=GPa)
#
#
# Indices 1 2 3 4 5 6 
#
# 1 82.9557 71.0600 43.9090 0.0000 0.0000 0.0000
# 2 71.0600 82.9554 43.9090 0.0000 0.0000 0.0000
# 3 43.9090 43.9090 95.9233 0.0000 0.0000 0.0000
# 4 0.0000 0.0000 0.0000 13.7157 0.0000 0.0000
# 5 0.0000 0.0000 0.0000 0.0000 13.7157 0.0000
# 6 0.0000 0.0000 0.0000 0.0000 0.0000 32.9255
#
#
#
# Elastic Compliance Matrix: (Units=1/GPa)
#
#
# Indices 1 2 3 4 5 6 
#
# 1 0.046425 -0.037639 -0.004022 0.000000 0.000000 0.000000
# 2 -0.037639 0.046426 -0.004022 0.000000 0.000000 0.000000
# 3 -0.004022 -0.004022 0.014107 0.000000 0.000000 0.000000
# 4 0.000000 0.000000 0.000000 0.072909 0.000000 0.000000
# 5 0.000000 0.000000 0.000000 0.000000 0.072909 0.000000
# 6 0.000000 0.000000 0.000000 0.000000 0.000000 0.030372
#
#
# Mechanical properties :
#
#
# Convention : Reuss Voigt Hill
#
# Bulk Modulus (GPa) = 64.13631 64.39893 64.26762
# Shear Modulus (GPa) = 13.16789 18.93513 16.05151
#
# Velocity S-wave (km/s) = 2.93084 3.51454 3.23588
# Velocity P-wave (km/s) = 7.30009 7.64715 7.47563
#
# Compressibility (1/GPa) = 0.01559179
#
# Stress axis : x y z
#
# Youngs Moduli (GPa) = 21.53996 21.53982 70.88683
#
# Poissons Ratio (x) = 0.81075 0.28509
# Poissons Ratio (y) = 0.81075 0.28510
# Poissons Ratio (z) = 0.08663 0.08663
#
# Static dielectric constant tensor:
#      x y z
#    x 1.505880 0.000000 0.000000 
#    y 0.000000 1.505890 0.000000 
#    z 0.000000 0.000000 1.512930 
# 
# From -- ./inp_files/4786.got.cif
#   From: 2010.05.17/outbox.cif.g08.bks.cpg/sg129_3_cif.got.tgz:4786.got - 2010.05.20 12:12:06.
