data_PCOD9565962
_publ_section_title
;
Structure prediction by ZEFSAII (Michael W. Deem and Ramdas Pophale) SiO2 
 PCOD9565962
Probable space group: P 4/N C C
;
_chemical_formula_sum "Si O2"
_cell_formula_units_Z 56
_cell_length_a 14.217473
_cell_length_b 14.217473
_cell_length_c 13.271454
_cell_angle_alpha 90.000000
_cell_angle_beta 90.000000
_cell_angle_gamma 90.000000
_cell_volume 2682.645772
_symmetry_space_group_name_H-M "P 4/N C C"
_symmetry_group_IT_number 130
_symmetry_cell_setting 'tetragonal'
loop_
_space_group_symop_operation_xyz
x,y,z
1/2-y,x,z
1/2-x,1/2-y,z
y,1/2-x,z
1/2+x,-y,1/2-z
-x,1/2+y,1/2-z
1/2+y,1/2+x,1/2-z
-y,-x,1/2-z
-x,-y,-z
1/2+y,-x,-z
1/2+x,1/2+y,-z
-y,1/2+x,-z
1/2-x,y,1/2+z
x,1/2-y,1/2+z
1/2-y,1/2-x,1/2+z
y,x,1/2+z
loop_
_atom_site_type_symbol
_atom_site_label
_atom_site_fract_x
_atom_site_fract_y
_atom_site_fract_z
Si Si1 0.081284 0.561706 0.362823
Si Si2 0.250000 0.250000 0.994710
Si Si3 0.610699 0.201829 0.347652
Si Si4 0.441242 0.132060 0.473634
Si Si5 0.750000 0.250000 0.500000
O O1 0.042750 0.542750 0.250000
O O2 0.184569 0.605907 0.344455
O O3 0.092630 0.469347 0.432438
O O4 0.005523 0.621927 0.426067
O O5 0.145258 0.200019 0.992118
O O6 0.650000 0.150000 0.250000
O O7 0.510062 0.168105 0.385201
O O8 0.687831 0.181216 0.432999
#
# Coordination Sequence:
#
# PCOD9565962 Si02
#       5
#    16   4  16  16   4
#     4  11  24  46  71 104 146 195 248 317 389 451
#     4  12  24  52  78 104 148 218 256 308 374 460
#     4  12  24  41  72 109 147 193 249 318 395 458
#     4  11  25  47  74 103 154 198 255 314 378 466
#     4  12  22  40  64 106 144 184 246 316 388 450
#
# _framework density 20.874915000000001
#
# number of rings (size 3 to 8) (size 9 to 14) (size 15 to 20)
#    0.000    0.571    5.714    3.000    0.000    0.000 
#    5.143    1.429    0.000    0.000    0.000    0.000 
#    0.000    0.000    0.000    0.000    0.000    0.000 
#
# Total GULP energy -311782.514289 kJ/mol
# GULP energy per Si atom -5567.544898 kJ/mol
# Density = 2.082740 g / cm^3
# Si number density = 20.874915 Si / 1000 Ang^3
#
#
#
# Elastic Constant Matrix: (Units=GPa)
#
#
# Indices 1 2 3 4 5 6 
#
# 1 148.5392 73.8651 57.7534 0.0000 0.0000 0.0000
# 2 73.8651 148.5392 57.7534 0.0000 0.0000 0.0000
# 3 57.7534 57.7534 131.2357 0.0000 0.0000 0.0000
# 4 0.0000 0.0000 0.0000 13.2032 0.0000 0.0000
# 5 0.0000 0.0000 0.0000 0.0000 13.2032 0.0000
# 6 0.0000 0.0000 0.0000 0.0000 0.0000 55.0103
#
#
#
# Elastic Compliance Matrix: (Units=1/GPa)
#
#
# Indices 1 2 3 4 5 6 
#
# 1 0.009610 -0.003782 -0.002565 0.000000 0.000000 0.000000
# 2 -0.003782 0.009610 -0.002565 0.000000 0.000000 0.000000
# 3 -0.002565 -0.002565 0.009877 0.000000 0.000000 0.000000
# 4 0.000000 0.000000 0.000000 0.075739 0.000000 0.000000
# 5 0.000000 0.000000 0.000000 0.000000 0.075739 0.000000
# 6 0.000000 0.000000 0.000000 0.000000 0.000000 0.018178
#
#
# Mechanical properties :
#
#
# Convention : Reuss Voigt Hill
#
# Bulk Modulus (GPa) = 88.69570 89.67311 89.18441
# Shear Modulus (GPa) = 22.69271 32.21282 27.45277
#
# Velocity S-wave (km/s) = 3.30067 3.93254 3.63038
# Velocity P-wave (km/s) = 7.55693 7.97937 7.77103
#
# Compressibility (1/GPa) = 0.01127450
#
# Stress axis : x y z
#
# Youngs Moduli (GPa) = 104.05851 104.05851 101.24115
#
# Poissons Ratio (x) = 0.39350 0.25968
# Poissons Ratio (y) = 0.39350 0.25968
# Poissons Ratio (z) = 0.26690 0.26690
#
# Static dielectric constant tensor:
#      x y z
#    x 1.763160 0.000000 0.000000 
#    y 0.000000 1.763160 0.000000 
#    z 0.000000 0.000000 1.808070 
# 
# From -- ./inp_files/1445.got.cif
#   From: 2010.05.17/outbox.cif.g08.bks.cpg/sg130_1_cif.got.tgz:1445.got - 2010.05.20 12:17:35.
