data_PCOD9565118
_publ_section_title
;
Structure prediction by ZEFSAII (Michael W. Deem and Ramdas Pophale) SiO2 
 PCOD9565118
Probable space group: P 4/N M M
;
_chemical_formula_sum "Si O2"
_cell_formula_units_Z 112
_cell_length_a 18.709603
_cell_length_b 18.709603
_cell_length_c 22.096337
_cell_angle_alpha 90.000000
_cell_angle_beta 90.000000
_cell_angle_gamma 90.000000
_cell_volume 7734.806071
_symmetry_space_group_name_H-M "P 4/N M M"
_symmetry_group_IT_number 129
_symmetry_cell_setting 'tetragonal'
loop_
_space_group_symop_operation_xyz
x,y,z
1/2-y,x,z
1/2-x,1/2-y,z
y,1/2-x,z
1/2+x,-y,-z
-x,1/2+y,-z
1/2+y,1/2+x,-z
-y,-x,-z
-x,-y,-z
1/2+y,-x,-z
1/2+x,1/2+y,-z
-y,1/2+x,-z
1/2-x,y,z
x,1/2-y,z
1/2-y,1/2-x,z
y,x,z
loop_
_atom_site_type_symbol
_atom_site_label
_atom_site_fract_x
_atom_site_fract_y
_atom_site_fract_z
Si Si1 0.334594 0.546508 0.997477
Si Si2 0.664952 0.396441 0.693691
Si Si3 0.667428 0.336815 0.433879
Si Si4 0.832463 0.093713 0.189352
Si Si5 0.467485 0.834776 0.869043
Si Si6 0.047825 0.166795 0.878693
Si Si7 0.334026 0.050578 0.250400
O O1 0.250000 0.563771 0.994290
O O2 0.349071 0.509465 0.062394
O O3 0.383115 0.616886 0.000000
O O4 0.350610 0.496386 0.940250
O O5 0.750000 0.379597 0.701545
O O6 0.643476 0.376285 0.625709
O O7 0.620279 0.352715 0.743615
O O8 0.656600 0.480190 0.708280
O O9 0.639812 0.360189 0.500000
O O10 0.750000 0.359433 0.426131
O O11 0.667791 0.250000 0.436858
O O12 0.750000 0.112676 0.175312
O O13 0.891075 0.130581 0.146289
O O14 0.839957 0.009499 0.175755
O O15 0.457609 0.750000 0.862427
O O16 0.522995 0.855133 0.816862
O O17 0.069670 0.250000 0.882622
O O18 0.113239 0.113239 0.872109
O O19 0.250000 0.069492 0.250315
O O20 0.384519 0.115482 0.268288
#
# Coordination Sequence:
#
# PCOD9565118 Si02
#       7
#    16  16  16  16  16  16  16
#     4  10  19  33  47  66  92 115 143 175 213 263
#     4   9  17  28  42  64  94 125 149 173 209 252
#     4   8  13  22  39  64  92 123 157 181 195 225
#     4  10  18  28  42  64  90 115 146 177 205 248
#     4   9  18  30  44  63  89 116 140 169 209 261
#     4  10  22  37  50  65  83 106 143 188 229 269
#     4   9  18  31  45  62  82 107 143 183 223 267
#
# _framework density 14.480001
#
# number of rings (size 3 to 8) (size 9 to 14) (size 15 to 20)
#    0.000    2.714    1.429    2.143    0.000    5.286 
#    0.000    1.429    0.000    0.429    0.000    4.000 
#    0.000    0.000    0.000    0.000    0.000   18.000 
#
# Total GULP energy -623493.820966 kJ/mol
# GULP energy per Si atom -5566.909116 kJ/mol
# Density = 1.444704 g / cm^3
# Si number density = 14.480001 Si / 1000 Ang^3
#
#
#
# Elastic Constant Matrix: (Units=GPa)
#
#
# Indices 1 2 3 4 5 6 
#
# 1 55.7040 49.7944 36.4061 0.0000 0.0000 0.0000
# 2 49.7944 55.7006 36.4071 0.0000 0.0000 0.0000
# 3 36.4061 36.4071 110.8230 0.0000 0.0000 0.0000
# 4 0.0000 0.0000 0.0000 9.3745 0.0000 0.0000
# 5 0.0000 0.0000 0.0000 0.0000 9.3748 0.0000
# 6 0.0000 0.0000 0.0000 0.0000 0.0000 26.3610
#
#
#
# Elastic Compliance Matrix: (Units=1/GPa)
#
#
# Indices 1 2 3 4 5 6 
#
# 1 0.090757 -0.078503 -0.004025 0.000000 0.000000 0.000000
# 2 -0.078503 0.090765 -0.004029 0.000000 0.000000 0.000000
# 3 -0.004025 -0.004029 0.011669 0.000000 0.000000 0.000000
# 4 0.000000 0.000000 0.000000 0.106672 0.000000 0.000000
# 5 0.000000 0.000000 0.000000 0.000000 0.106669 0.000000
# 6 0.000000 0.000000 0.000000 0.000000 0.000000 0.037935
#
#
# Mechanical properties :
#
#
# Convention : Reuss Voigt Hill
#
# Bulk Modulus (GPa) = 49.80587 51.93808 50.87197
# Shear Modulus (GPa) = 8.00930 15.66339 11.83635
#
# Velocity S-wave (km/s) = 2.35442 3.29253 2.86217
# Velocity P-wave (km/s) = 6.47009 7.09937 6.79202
#
# Compressibility (1/GPa) = 0.02007796
#
# Stress axis : x y z
#
# Youngs Moduli (GPa) = 11.01844 11.01741 85.69539
#
# Poissons Ratio (x) = 0.86490 0.34491
# Poissons Ratio (y) = 0.86498 0.34528
# Poissons Ratio (z) = 0.04435 0.04439
#
# Static dielectric constant tensor:
#      x y z
#    x 1.466800 0.000000 0.000000 
#    y 0.000000 1.466800 0.000000 
#    z 0.000000 0.000000 1.505190 
# 
# From -- ./inp_files/7229.got.cif
#   From: 2010.05.17/outbox.cif.g08.bks.cpg/sg129_4_cif.got.tgz:7229.got - 2010.05.20 12:12:06.
