data_PCOD9565496
_publ_section_title
;
Structure prediction by ZEFSAII (Michael W. Deem and Ramdas Pophale) SiO2 
 PCOD9565496
Probable space group: P 4/N M M
;
_chemical_formula_sum "Si O2"
_cell_formula_units_Z 128
_cell_length_a 18.783695
_cell_length_b 18.783695
_cell_length_c 22.338899
_cell_angle_alpha 90.000000
_cell_angle_beta 90.000000
_cell_angle_gamma 90.000000
_cell_volume 7881.771137
_symmetry_space_group_name_H-M "P 4/N M M"
_symmetry_group_IT_number 129
_symmetry_cell_setting 'tetragonal'
loop_
_space_group_symop_operation_xyz
x,y,z
1/2-y,x,z
1/2-x,1/2-y,z
y,1/2-x,z
1/2+x,-y,-z
-x,1/2+y,-z
1/2+y,1/2+x,-z
-y,-x,-z
-x,-y,-z
1/2+y,-x,-z
1/2+x,1/2+y,-z
-y,1/2+x,-z
1/2-x,y,z
x,1/2-y,z
1/2-y,1/2-x,z
y,x,z
loop_
_atom_site_type_symbol
_atom_site_label
_atom_site_fract_x
_atom_site_fract_y
_atom_site_fract_z
Si Si1 0.167201 0.049613 0.876371
Si Si2 0.171765 0.663917 0.181829
Si Si3 0.940428 0.055039 0.349609
Si Si4 0.599543 0.164878 0.941525
Si Si5 0.405995 0.830091 0.449825
Si Si6 0.443118 0.328596 0.483673
Si Si7 0.667764 0.946607 0.660971
Si Si8 0.471353 0.833744 0.250049
O O1 0.250000 0.070459 0.882830
O O2 0.112960 0.112960 0.888323
O O3 0.154628 0.981446 0.919209
O O4 0.157807 0.021136 0.808159
O O5 0.250000 0.636901 0.197723
O O6 0.174145 0.750000 0.180352
O O7 0.148393 0.642716 0.114978
O O8 0.108332 0.648099 0.227160
O O9 0.889804 0.090623 0.398998
O O10 0.887971 0.015352 0.303569
O O11 0.988386 0.116992 0.319570
O O12 0.997829 0.997829 0.374433
O O13 0.609709 0.250000 0.951462
O O14 0.622214 0.122214 0.000000
O O15 0.347704 0.847704 0.500000
O O16 0.397250 0.750000 0.425864
O O17 0.481367 0.834609 0.484277
O O18 0.413477 0.250000 0.497105
O O19 0.390277 0.390277 0.503301
O O20 0.451462 0.332869 0.411817
O O21 0.750000 0.949391 0.680344
O O22 0.626578 0.873423 0.676764
O O23 0.474014 0.750000 0.267535
#
# Coordination Sequence:
#
# PCOD9565496 Si02
#       8
#    16  16  16  16  16  16  16  16
#     4   9  18  32  48  66  92 124 161 206 246 281
#     4   8  14  25  41  62  90 125 160 190 222 262
#     4  11  21  32  51  71  90 118 150 184 226 275
#     4   9  16  25  41  67  97 128 161 196 234 279
#     4  11  22  35  50  67  89 115 144 179 218 266
#     4   9  17  30  47  66  88 111 136 169 209 254
#     4   9  18  31  47  68  90 113 142 176 216 262
#     4   9  18  32  47  67  94 123 158 195 232 273
#
# _framework density 16.240003999999999
#
# number of rings (size 3 to 8) (size 9 to 14) (size 15 to 20)
#    0.000    2.625    1.250    3.000    0.000    2.375 
#    0.000    1.250    0.000    2.250    0.000    0.000 
#    0.000    9.000    0.000    0.000    0.000   36.500 
#
# Total GULP energy -712974.383166 kJ/mol
# GULP energy per Si atom -5570.112368 kJ/mol
# Density = 1.620304 g / cm^3
# Si number density = 16.240004 Si / 1000 Ang^3
#
#
#
# Elastic Constant Matrix: (Units=GPa)
#
#
# Indices 1 2 3 4 5 6 
#
# 1 71.2072 41.9884 7.3763 0.0000 0.0000 0.0000
# 2 41.9884 71.2072 7.3763 0.0000 0.0000 0.0000
# 3 7.3763 7.3763 22.9740 0.0000 0.0000 0.0000
# 4 0.0000 0.0000 0.0000 15.4734 0.0000 0.0000
# 5 0.0000 0.0000 0.0000 0.0000 15.4734 0.0000
# 6 0.0000 0.0000 0.0000 0.0000 0.0000 22.4497
#
#
#
# Elastic Compliance Matrix: (Units=1/GPa)
#
#
# Indices 1 2 3 4 5 6 
#
# 1 0.021722 -0.012502 -0.002960 0.000000 0.000000 0.000000
# 2 -0.012502 0.021722 -0.002960 0.000000 0.000000 0.000000
# 3 -0.002960 -0.002960 0.045428 0.000000 0.000000 0.000000
# 4 0.000000 0.000000 0.000000 0.064627 0.000000 0.000000
# 5 0.000000 0.000000 0.000000 0.000000 0.064627 0.000000
# 6 0.000000 0.000000 0.000000 0.000000 0.000000 0.044544
#
#
# Mechanical properties :
#
#
# Convention : Reuss Voigt Hill
#
# Bulk Modulus (GPa) = 19.22065 30.98558 25.10311
# Shear Modulus (GPa) = 15.77989 17.92248 16.85118
#
# Velocity S-wave (km/s) = 3.12054 3.32565 3.22473
# Velocity P-wave (km/s) = 4.98445 5.81961 5.41814
#
# Compressibility (1/GPa) = 0.05202739
#
# Stress axis : x y z
#
# Youngs Moduli (GPa) = 46.03559 46.03559 22.01264
#
# Poissons Ratio (x) = 0.57555 0.06516
# Poissons Ratio (y) = 0.57555 0.06516
# Poissons Ratio (z) = 0.13628 0.13628
#
# Static dielectric constant tensor:
#      x y z
#    x 1.547500 0.000000 0.000000 
#    y 0.000000 1.547500 0.000000 
#    z 0.000000 0.000000 1.539290 
# 
# From -- ./inp_files/7343.got.cif
#   From: 2010.05.17/outbox.cif.g08.bks.cpg/sg129_4_cif.got.tgz:7343.got - 2010.05.20 12:12:06.
