data_PCOD9565388
_publ_section_title
;
Structure prediction by ZEFSAII (Michael W. Deem and Ramdas Pophale) SiO2 
 PCOD9565388
Probable space group: P 4/N M M
;
_chemical_formula_sum "Si O2"
_cell_formula_units_Z 80
_cell_length_a 13.431820
_cell_length_b 13.431820
_cell_length_c 26.307951
_cell_angle_alpha 90.000000
_cell_angle_beta 90.000000
_cell_angle_gamma 90.000000
_cell_volume 4746.317108
_symmetry_space_group_name_H-M "P 4/N M M"
_symmetry_group_IT_number 129
_symmetry_cell_setting 'tetragonal'
loop_
_space_group_symop_operation_xyz
x,y,z
1/2-y,x,z
1/2-x,1/2-y,z
y,1/2-x,z
1/2+x,-y,-z
-x,1/2+y,-z
1/2+y,1/2+x,-z
-y,-x,-z
-x,-y,-z
1/2+y,-x,-z
1/2+x,1/2+y,-z
-y,1/2+x,-z
1/2-x,y,z
x,1/2-y,z
1/2-y,1/2-x,z
y,x,z
loop_
_atom_site_type_symbol
_atom_site_label
_atom_site_fract_x
_atom_site_fract_y
_atom_site_fract_z
Si Si1 0.466778 0.631892 0.548963
Si Si2 0.368203 0.969417 0.047102
Si Si3 0.363389 0.629336 0.847928
Si Si4 0.530423 0.131059 0.257455
Si Si5 0.132279 0.533193 0.646678
O O1 0.405065 0.594936 0.500000
O O2 0.481151 0.750000 0.548227
O O3 0.570327 0.570327 0.548685
O O4 0.407097 0.597313 0.599001
O O5 0.250000 0.983491 0.047483
O O6 0.399547 0.917647 0.100041
O O7 0.427857 0.072144 0.042009
O O8 0.400566 0.900566 0.000000
O O9 0.250000 0.592225 0.846396
O O10 0.359369 0.750000 0.848433
O O11 0.422690 0.602751 0.797042
O O12 0.520273 0.250000 0.260155
O O13 0.601562 0.091399 0.302144
O O14 0.425958 0.074043 0.263496
O O15 0.250000 0.517928 0.643792
O O16 0.069525 0.430476 0.646029
#
# Coordination Sequence:
#
# PCOD9565388 Si02
#       5
#    16  16  16  16  16
#     4  10  21  36  54  78 106 136 172 211 252 301
#     4  10  20  33  50  73 100 131 168 208 251 301
#     4   9  17  30  49  71  95 126 164 205 248 292
#     4  10  20  33  50  74 103 135 172 211 252 300
#     4  10  21  36  54  77 103 132 169 211 255 305
#
# _framework density 16.855173000000001
#
# number of rings (size 3 to 8) (size 9 to 14) (size 15 to 20)
#    0.000    2.200    0.000    3.000    0.000    5.200 
#    0.000    0.000    0.000   10.800    0.000    0.000 
#    0.000   14.400    0.000    0.000    0.000    0.000 
#
# Total GULP energy -446359.971317 kJ/mol
# GULP energy per Si atom -5579.499641 kJ/mol
# Density = 1.681681 g / cm^3
# Si number density = 16.855173 Si / 1000 Ang^3
#
#
#
# Elastic Constant Matrix: (Units=GPa)
#
#
# Indices 1 2 3 4 5 6 
#
# 1 114.6457 78.9729 51.0914 0.0000 0.0000 0.0000
# 2 78.9729 114.6482 51.0916 0.0000 0.0000 0.0000
# 3 51.0914 51.0916 146.6400 0.0000 0.0000 0.0000
# 4 0.0000 0.0000 0.0000 22.0647 0.0000 0.0000
# 5 0.0000 0.0000 0.0000 0.0000 22.0638 0.0000
# 6 0.0000 0.0000 0.0000 0.0000 0.0000 5.8034
#
#
#
# Elastic Compliance Matrix: (Units=1/GPa)
#
#
# Indices 1 2 3 4 5 6 
#
# 1 0.017180 -0.010852 -0.002205 0.000000 0.000000 0.000000
# 2 -0.010852 0.017180 -0.002205 0.000000 0.000000 0.000000
# 3 -0.002205 -0.002205 0.008356 0.000000 0.000000 0.000000
# 4 0.000000 0.000000 0.000000 0.045321 0.000000 0.000000
# 5 0.000000 0.000000 0.000000 0.000000 0.045323 0.000000
# 6 0.000000 0.000000 0.000000 0.000000 0.000000 0.172312
#
#
# Mechanical properties :
#
#
# Convention : Reuss Voigt Hill
#
# Bulk Modulus (GPa) = 82.01397 82.02727 82.02062
# Shear Modulus (GPa) = 14.69469 22.97159 18.83314
#
# Velocity S-wave (km/s) = 2.95586 3.69573 3.34631
# Velocity P-wave (km/s) = 7.77259 8.18430 7.98110
#
# Compressibility (1/GPa) = 0.01219304
#
# Stress axis : x y z
#
# Youngs Moduli (GPa) = 58.20662 58.20800 119.67644
#
# Poissons Ratio (x) = 0.63165 0.26388
# Poissons Ratio (y) = 0.63163 0.26387
# Poissons Ratio (z) = 0.12834 0.12834
#
# Static dielectric constant tensor:
#      x y z
#    x 1.545080 0.000000 0.000000 
#    y 0.000000 1.545080 0.000000 
#    z 0.000000 0.000000 1.571220 
# 
# From -- ./inp_files/7700.got.cif
#   From: 2010.05.17/outbox.cif.g08.bks.cpg/sg129_4_cif.got.tgz:7700.got - 2010.05.20 12:12:06.
