data_PCOD9565438
_publ_section_title
;
Structure prediction by ZEFSAII (Michael W. Deem and Ramdas Pophale) SiO2 
 PCOD9565438
Probable space group: P 4/N M M
;
_chemical_formula_sum "Si O2"
_cell_formula_units_Z 80
_cell_length_a 19.167383
_cell_length_b 19.167383
_cell_length_c 12.652122
_cell_angle_alpha 90.000000
_cell_angle_beta 90.000000
_cell_angle_gamma 90.000000
_cell_volume 4648.245023
_symmetry_space_group_name_H-M "P 4/N M M"
_symmetry_group_IT_number 129
_symmetry_cell_setting 'tetragonal'
loop_
_space_group_symop_operation_xyz
x,y,z
1/2-y,x,z
1/2-x,1/2-y,z
y,1/2-x,z
1/2+x,-y,-z
-x,1/2+y,-z
1/2+y,1/2+x,-z
-y,-x,-z
-x,-y,-z
1/2+y,-x,-z
1/2+x,1/2+y,-z
-y,1/2+x,-z
1/2-x,y,z
x,1/2-y,z
1/2-y,1/2-x,z
y,x,z
loop_
_atom_site_type_symbol
_atom_site_label
_atom_site_fract_x
_atom_site_fract_y
_atom_site_fract_z
Si Si1 0.168375 0.949232 0.835677
Si Si2 0.552546 0.668496 0.362465
Si Si3 0.442470 0.668294 0.541114
Si Si4 0.552197 0.831827 0.968525
Si Si5 0.668473 0.057758 0.790075
O O1 0.250000 0.928667 0.837769
O O2 0.118254 0.883069 0.828572
O O3 0.157398 0.997773 0.732849
O O4 0.154211 0.996665 0.938041
O O5 0.573064 0.750000 0.360257
O O6 0.617451 0.617451 0.350795
O O7 0.510760 0.654316 0.470807
O O8 0.380856 0.619145 0.500000
O O9 0.424603 0.750000 0.524698
O O10 0.454014 0.657124 0.665464
O O11 0.571499 0.750000 0.975221
O O12 0.617800 0.882201 0.978992
O O13 0.511292 0.844137 0.859035
O O14 0.750000 0.076904 0.805729
#
# Coordination Sequence:
#
# PCOD9565438 Si02
#       5
#    16  16  16  16  16
#     4  10  20  36  56  81 112 143 180 223 269 325
#     4  10  21  36  54  78 107 140 181 229 277 328
#     4  10  20  36  55  80 112 145 184 226 268 323
#     4  10  22  39  58  81 109 142 183 231 277 326
#     4  10  21  36  55  82 115 147 182 223 268 323
#
# _framework density 17.210795999999998
#
# number of rings (size 3 to 8) (size 9 to 14) (size 15 to 20)
#    0.000    2.000    2.000    1.200    0.000    4.600 
#    0.000    2.000    0.000    7.200    0.000    5.600 
#    0.000    0.000    0.000    0.000    0.000    0.000 
#
# Total GULP energy -446576.554293 kJ/mol
# GULP energy per Si atom -5582.206929 kJ/mol
# Density = 1.717162 g / cm^3
# Si number density = 17.210796 Si / 1000 Ang^3
#
#
#
# Elastic Constant Matrix: (Units=GPa)
#
#
# Indices 1 2 3 4 5 6 
#
# 1 66.9197 59.7061 37.4444 0.0000 0.0000 0.0000
# 2 59.7061 66.9151 37.4457 0.0000 0.0000 0.0000
# 3 37.4444 37.4457 97.3943 0.0000 0.0000 0.0000
# 4 0.0000 0.0000 0.0000 15.2113 0.0000 0.0000
# 5 0.0000 0.0000 0.0000 0.0000 15.2110 0.0000
# 6 0.0000 0.0000 0.0000 0.0000 0.0000 56.4934
#
#
#
# Elastic Compliance Matrix: (Units=1/GPa)
#
#
# Indices 1 2 3 4 5 6 
#
# 1 0.074443 -0.064225 -0.003928 0.000000 0.000000 0.000000
# 2 -0.064225 0.074451 -0.003932 0.000000 0.000000 0.000000
# 3 -0.003928 -0.003932 0.013289 0.000000 0.000000 0.000000
# 4 0.000000 0.000000 0.000000 0.065741 0.000000 0.000000
# 5 0.000000 0.000000 0.000000 0.000000 0.065742 0.000000
# 6 0.000000 0.000000 0.000000 0.000000 0.000000 0.017701
#
#
# Mechanical properties :
#
#
# Convention : Reuss Voigt Hill
#
# Bulk Modulus (GPa) = 55.51501 55.60241 55.55871
# Shear Modulus (GPa) = 10.83326 23.82533 17.32929
#
# Velocity S-wave (km/s) = 2.51160 3.72469 3.17659
# Velocity P-wave (km/s) = 6.38254 7.13264 6.76799
#
# Compressibility (1/GPa) = 0.01801315
#
# Stress axis : x y z
#
# Youngs Moduli (GPa) = 13.43309 13.43165 75.24782
#
# Poissons Ratio (x) = 0.86265 0.29554
# Poissons Ratio (y) = 0.86274 0.29590
# Poissons Ratio (z) = 0.05276 0.05282
#
# Static dielectric constant tensor:
#      x y z
#    x 1.553570 0.000000 0.000000 
#    y 0.000000 1.553570 0.000000 
#    z 0.000000 0.000000 1.599420 
# 
# From -- ./inp_files/4605.got.cif
#   From: 2010.05.17/outbox.cif.g08.bks.cpg/sg129_3_cif.got.tgz:4605.got - 2010.05.20 12:12:06.
