data_PCOD9565338
_publ_section_title
;
Structure prediction by ZEFSAII (Michael W. Deem and Ramdas Pophale) SiO2 
 PCOD9565338
Probable space group: P 4/N M M
;
_chemical_formula_sum "Si O2"
_cell_formula_units_Z 56
_cell_length_a 13.469134
_cell_length_b 13.469134
_cell_length_c 18.798415
_cell_angle_alpha 90.000000
_cell_angle_beta 90.000000
_cell_angle_gamma 90.000000
_cell_volume 3410.362782
_symmetry_space_group_name_H-M "P 4/N M M"
_symmetry_group_IT_number 129
_symmetry_cell_setting 'tetragonal'
loop_
_space_group_symop_operation_xyz
x,y,z
1/2-y,x,z
1/2-x,1/2-y,z
y,1/2-x,z
1/2+x,-y,-z
-x,1/2+y,-z
1/2+y,1/2+x,-z
-y,-x,-z
-x,-y,-z
1/2+y,-x,-z
1/2+x,1/2+y,-z
-y,1/2+x,-z
1/2-x,y,z
x,1/2-y,z
1/2-y,1/2-x,z
y,x,z
loop_
_atom_site_type_symbol
_atom_site_label
_atom_site_fract_x
_atom_site_fract_y
_atom_site_fract_z
Si Si1 0.532026 0.132952 0.567482
Si Si2 0.630939 0.369062 0.000000
Si Si3 0.471383 0.631510 0.699380
Si Si4 0.865031 0.129247 0.154343
O O1 0.595194 0.095194 0.500000
O O2 0.515810 0.250000 0.564233
O O3 0.591462 0.101883 0.638415
O O4 0.430154 0.069847 0.567158
O O5 0.594631 0.405075 0.077135
O O6 0.750000 0.384391 0.002671
O O7 0.480305 0.750000 0.695331
O O8 0.575327 0.575327 0.688569
O O9 0.427828 0.602919 0.776610
O O10 0.750000 0.097503 0.162739
O O11 0.863468 0.250000 0.151550
#
# Coordination Sequence:
#
# PCOD9565338 Si02
#       4
#    16   8  16  16
#     4  10  21  36  54  77 102 127 157 191 228 273
#     4   7  10  18  35  60  86 110 139 179 230 284
#     4  10  20  32  46  66  92 123 161 201 239 281
#     4   8  13  23  41  63  86 113 145 185 235 285
#
# _framework density 16.420541
#
# number of rings (size 3 to 8) (size 9 to 14) (size 15 to 20)
#    0.000    3.000    0.000    3.429    0.000    3.714 
#    0.000    0.714    0.000    5.143    0.000    0.000 
#    0.000    0.000    0.000   18.000    0.000    0.571 
#
# Total GULP energy -311743.697515 kJ/mol
# GULP energy per Si atom -5566.851741 kJ/mol
# Density = 1.638317 g / cm^3
# Si number density = 16.420541 Si / 1000 Ang^3
#
#
#
# Elastic Constant Matrix: (Units=GPa)
#
#
# Indices 1 2 3 4 5 6 
#
# 1 66.8735 65.0193 44.4411 0.0000 0.0000 0.0000
# 2 65.0193 66.8729 44.4411 0.0000 0.0000 0.0000
# 3 44.4411 44.4411 148.3230 0.0000 0.0000 0.0000
# 4 0.0000 0.0000 0.0000 -1.1979 0.0000 0.0000
# 5 0.0000 0.0000 0.0000 0.0000 -1.1998 0.0000
# 6 0.0000 0.0000 0.0000 0.0000 0.0000 5.9230
#
#
#
# Elastic Compliance Matrix: (Units=1/GPa)
#
#
# Indices 1 2 3 4 5 6 
#
# 1 0.274445 -0.264947 -0.002846 0.000000 0.000000 0.000000
# 2 -0.264947 0.274448 -0.002847 0.000000 0.000000 0.000000
# 3 -0.002846 -0.002847 0.008448 0.000000 0.000000 0.000000
# 4 0.000000 0.000000 0.000000 -0.834765 0.000000 0.000000
# 5 0.000000 0.000000 0.000000 0.000000 -0.833440 0.000000
# 6 0.000000 0.000000 0.000000 0.000000 0.000000 0.168833
#
#
# Mechanical properties :
#
#
# Convention : Reuss Voigt Hill
#
# Bulk Modulus (GPa) = 62.25787 65.54136 63.89962
# Shear Modulus (GPa) = -12.64556 9.24957 -1.69799
#
# Velocity S-wave (km/s) = -2.77809 2.37595 -1.01799
# Velocity P-wave (km/s) = 5.26370 6.89404 6.13328
#
# Compressibility (1/GPa) = 0.01606223
#
# Stress axis : x y z
#
# Youngs Moduli (GPa) = 3.64371 3.64367 118.37420
#
# Poissons Ratio (x) = 0.96538 0.33690
# Poissons Ratio (y) = 0.96539 0.33700
# Poissons Ratio (z) = 0.01037 0.01037
#
# Static dielectric constant tensor:
#      x y z
#    x 1.525630 0.000000 0.000000 
#    y 0.000000 1.525640 0.000000 
#    z 0.000000 0.000000 1.599790 
# 
# From -- ./inp_files/6192.got.cif
#   From: 2010.05.17/outbox.cif.g08.bks.cpg/sg129_4_cif.got.tgz:6192.got - 2010.05.20 12:12:06.
