data_PCOD9565114
_publ_section_title
;
Structure prediction by ZEFSAII (Michael W. Deem and Ramdas Pophale) SiO2 
 PCOD9565114
Probable space group: P 4/N M M
;
_chemical_formula_sum "Si O2"
_cell_formula_units_Z 128
_cell_length_a 23.682842
_cell_length_b 23.682842
_cell_length_c 12.755165
_cell_angle_alpha 90.000000
_cell_angle_beta 90.000000
_cell_angle_gamma 90.000000
_cell_volume 7154.078746
_symmetry_space_group_name_H-M "P 4/N M M"
_symmetry_group_IT_number 129
_symmetry_cell_setting 'tetragonal'
loop_
_space_group_symop_operation_xyz
x,y,z
1/2-y,x,z
1/2-x,1/2-y,z
y,1/2-x,z
1/2+x,-y,-z
-x,1/2+y,-z
1/2+y,1/2+x,-z
-y,-x,-z
-x,-y,-z
1/2+y,-x,-z
1/2+x,1/2+y,-z
-y,1/2+x,-z
1/2-x,y,z
x,1/2-y,z
1/2-y,1/2-x,z
y,x,z
loop_
_atom_site_type_symbol
_atom_site_label
_atom_site_fract_x
_atom_site_fract_y
_atom_site_fract_z
Si Si1 0.929134 0.186693 0.460945
Si Si2 0.093765 0.184432 0.972704
Si Si3 0.125017 0.464543 0.784827
Si Si4 0.593643 0.684320 0.781393
Si Si5 0.683343 0.595026 0.412553
Si Si6 0.530572 0.879990 0.601790
Si Si7 0.188067 0.686054 0.333961
Si Si8 0.068589 0.814069 0.286060
O O1 0.952442 0.250000 0.434560
O O2 0.866500 0.185697 0.413172
O O3 0.931608 0.182543 0.586816
O O4 0.965299 0.135124 0.414221
O O5 0.095240 0.250000 0.944129
O O6 0.154460 0.154460 0.959101
O O7 0.052199 0.150536 0.896922
O O8 0.078890 0.179712 0.095588
O O9 0.062454 0.437547 0.776591
O O10 0.161766 0.432513 0.695570
O O11 0.137663 0.529463 0.761134
O O12 0.594549 0.750000 0.752128
O O13 0.654517 0.654517 0.767359
O O14 0.551664 0.649194 0.708383
O O15 0.750000 0.592403 0.420718
O O16 0.657803 0.657803 0.417164
O O17 0.653876 0.560715 0.506614
O O18 0.556786 0.943215 0.598235
O O19 0.250000 0.683658 0.284057
O O20 0.183181 0.750000 0.381471
O O21 0.134455 0.680662 0.258649
O O22 0.048872 0.750000 0.258726
#
# Coordination Sequence:
#
# PCOD9565114 Si02
#       8
#    16  16  16  16  16  16  16  16
#     4  10  18  28  46  68  93 127 162 193 230 281
#     4   9  17  28  42  61  86 118 158 207 256 292
#     4  10  19  30  44  63  91 125 162 198 231 273
#     4   9  17  28  42  61  86 118 158 207 256 292
#     4  10  18  27  40  57  82 118 158 198 236 272
#     4  10  19  30  44  63  91 125 162 198 231 273
#     4   9  19  34  50  73 103 129 153 186 231 285
#     4  10  18  28  46  68  93 127 162 193 230 281
#
# _framework density 17.891891000000001
#
# number of rings (size 3 to 8) (size 9 to 14) (size 15 to 20)
#    0.000    2.375    1.250    2.625    0.000    1.875 
#    0.000    5.625    0.000    6.000    0.000    0.875 
#    0.000    7.000    0.000   13.250    0.000    0.750 
#
# Total GULP energy -713146.391288 kJ/mol
# GULP energy per Si atom -5571.456182 kJ/mol
# Density = 1.785117 g / cm^3
# Si number density = 17.891891 Si / 1000 Ang^3
#
#
#
# Elastic Constant Matrix: (Units=GPa)
#
#
# Indices 1 2 3 4 5 6 
#
# 1 94.3306 29.0450 8.6766 0.0000 0.0000 0.0000
# 2 29.0450 94.3306 8.6766 0.0000 0.0000 0.0000
# 3 8.6766 8.6766 29.2055 0.0000 0.0000 0.0000
# 4 0.0000 0.0000 0.0000 9.3362 0.0000 0.0000
# 5 0.0000 0.0000 0.0000 0.0000 9.3362 0.0000
# 6 0.0000 0.0000 0.0000 0.0000 0.0000 22.6051
#
#
#
# Elastic Compliance Matrix: (Units=1/GPa)
#
#
# Indices 1 2 3 4 5 6 
#
# 1 0.011888 -0.003429 -0.002513 0.000000 0.000000 0.000000
# 2 -0.003429 0.011888 -0.002513 0.000000 0.000000 0.000000
# 3 -0.002513 -0.002513 0.035733 0.000000 0.000000 0.000000
# 4 0.000000 0.000000 0.000000 0.107110 0.000000 0.000000
# 5 0.000000 0.000000 0.000000 0.000000 0.107110 0.000000
# 6 0.000000 0.000000 0.000000 0.000000 0.000000 0.044238
#
#
# Mechanical properties :
#
#
# Convention : Reuss Voigt Hill
#
# Bulk Modulus (GPa) = 23.47481 34.51812 28.99647
# Shear Modulus (GPa) = 14.32350 19.68675 17.00512
#
# Velocity S-wave (km/s) = 2.83248 3.32070 3.08626
# Velocity P-wave (km/s) = 4.88325 5.83414 5.37975
#
# Compressibility (1/GPa) = 0.04259886
#
# Stress axis : x y z
#
# Youngs Moduli (GPa) = 84.11813 84.11813 27.98509
#
# Poissons Ratio (x) = 0.28846 0.07033
# Poissons Ratio (y) = 0.28846 0.07033
# Poissons Ratio (z) = 0.21139 0.21139
#
# Static dielectric constant tensor:
#      x y z
#    x 1.656120 0.000000 0.000000 
#    y 0.000000 1.656120 0.000000 
#    z 0.000000 0.000000 1.591970 
# 
# From -- ./inp_files/4203.got.cif
#   From: 2010.05.17/outbox.cif.g08.bks.cpg/sg129_3_cif.got.tgz:4203.got - 2010.05.20 12:12:06.
