data_PCOD9565994
_publ_section_title
;
Structure prediction by ZEFSAII (Michael W. Deem and Ramdas Pophale) SiO2 
 PCOD9565994
Probable space group: P 4/N C C
;
_chemical_formula_sum "Si O2"
_cell_formula_units_Z 88
_cell_length_a 11.780579
_cell_length_b 11.780579
_cell_length_c 27.196185
_cell_angle_alpha 90.000000
_cell_angle_beta 90.000000
_cell_angle_gamma 90.000000
_cell_volume 3774.342077
_symmetry_space_group_name_H-M "P 4/N C C"
_symmetry_group_IT_number 130
_symmetry_cell_setting 'tetragonal'
loop_
_space_group_symop_operation_xyz
x,y,z
1/2-y,x,z
1/2-x,1/2-y,z
y,1/2-x,z
1/2+x,-y,1/2-z
-x,1/2+y,1/2-z
1/2+y,1/2+x,1/2-z
-y,-x,1/2-z
-x,-y,-z
1/2+y,-x,-z
1/2+x,1/2+y,-z
-y,1/2+x,-z
1/2-x,y,1/2+z
x,1/2-y,1/2+z
1/2-y,1/2-x,1/2+z
y,x,1/2+z
loop_
_atom_site_type_symbol
_atom_site_label
_atom_site_fract_x
_atom_site_fract_y
_atom_site_fract_z
Si Si1 0.067651 0.178345 0.169874
Si Si2 0.435143 0.288367 0.926087
Si Si3 0.272160 0.622532 0.588864
Si Si4 0.900794 0.087587 0.507606
Si Si5 0.001698 0.501698 0.750000
Si Si6 0.316263 0.069292 0.820497
O O1 0.188950 0.109219 0.169739
O O2 0.973619 0.180784 0.125796
O O3 0.006373 0.110541 0.215001
O O4 0.333090 0.378070 0.925043
O O5 0.500957 0.301893 0.975855
O O6 0.490936 0.315393 0.873555
O O7 0.250000 0.750000 0.609512
O O8 0.163014 0.583158 0.556597
O O9 0.359836 0.639127 0.543679
O O10 0.000000 0.000000 0.500000
O O11 0.117492 0.504531 0.781562
O O12 0.388455 0.187072 0.815893
#
# Coordination Sequence:
#
# PCOD9565994 Si02
#       6
#    16  16  16  16   8  16
#     4  11  28  55  81 116 163 218 271 334 423 514
#     4   9  20  37  63  98 132 178 243 312 386 473
#     4  12  26  48  70 114 160 205 265 336 399 482
#     4  12  23  40  69 102 151 202 255 318 402 468
#     4  12  24  42  77 109 140 200 260 332 400 485
#     4   9  20  40  65  97 138 183 241 311 387 474
#
# _framework density 23.315321000000001
#
# number of rings (size 3 to 8) (size 9 to 14) (size 15 to 20)
#    0.000    1.273    1.818    4.364    5.091    2.909 
#    3.273    1.818    0.000    0.000    0.000    0.000 
#    0.000    0.000    0.000    0.000    0.000    0.000 
#
# Total GULP energy -490120.576164 kJ/mol
# GULP energy per Si atom -5569.552002 kJ/mol
# Density = 2.326225 g / cm^3
# Si number density = 23.315321 Si / 1000 Ang^3
#
#
#
# Elastic Constant Matrix: (Units=GPa)
#
#
# Indices 1 2 3 4 5 6 
#
# 1 99.7569 27.9820 47.9310 0.0000 0.0000 0.0000
# 2 27.9820 99.7569 47.9310 0.0000 0.0000 0.0000
# 3 47.9310 47.9310 115.4943 0.0000 0.0000 0.0000
# 4 0.0000 0.0000 0.0000 36.3616 0.0000 0.0000
# 5 0.0000 0.0000 0.0000 0.0000 36.3616 0.0000
# 6 0.0000 0.0000 0.0000 0.0000 0.0000 43.2258
#
#
#
# Elastic Compliance Matrix: (Units=1/GPa)
#
#
# Indices 1 2 3 4 5 6 
#
# 1 0.012651 -0.001282 -0.004718 0.000000 0.000000 0.000000
# 2 -0.001282 0.012651 -0.004718 0.000000 0.000000 0.000000
# 3 -0.004718 -0.004718 0.012575 0.000000 0.000000 0.000000
# 4 0.000000 0.000000 0.000000 0.027502 0.000000 0.000000
# 5 0.000000 0.000000 0.000000 0.000000 0.027502 0.000000
# 6 0.000000 0.000000 0.000000 0.000000 0.000000 0.023134
#
#
# Mechanical properties :
#
#
# Convention : Reuss Voigt Hill
#
# Bulk Modulus (GPa) = 60.82716 62.52175 61.67445
# Shear Modulus (GPa) = 34.98201 35.93407 35.45804
#
# Velocity S-wave (km/s) = 3.87769 3.93010 3.90398
# Velocity P-wave (km/s) = 6.79663 6.88972 6.84333
#
# Compressibility (1/GPa) = 0.01644003
#
# Stress axis : x y z
#
# Youngs Moduli (GPa) = 79.04567 79.04567 79.52436
#
# Poissons Ratio (x) = 0.10130 0.37523
# Poissons Ratio (y) = 0.10130 0.37523
# Poissons Ratio (z) = 0.37297 0.37297
#
# Static dielectric constant tensor:
#      x y z
#    x 1.965390 0.000000 0.000000 
#    y 0.000000 1.965390 0.000000 
#    z 0.000000 0.000000 1.918910 
# 
# From -- ./inp_files/4866.got.cif
#   From: 2010.05.17/outbox.cif.g08.bks.cpg/sg130_3_cif.got.tgz:4866.got - 2010.05.20 12:17:35.
