data_PCOD9565689
_publ_section_title
;
Structure prediction by ZEFSAII (Michael W. Deem and Ramdas Pophale) SiO2 
 PCOD9565689
Probable space group: P 4/N C C
;
_chemical_formula_sum "Si O2"
_cell_formula_units_Z 104
_cell_length_a 16.830164
_cell_length_b 16.830164
_cell_length_c 17.912213
_cell_angle_alpha 90.000000
_cell_angle_beta 90.000000
_cell_angle_gamma 90.000000
_cell_volume 5073.713509
_symmetry_space_group_name_H-M "P 4/N C C"
_symmetry_group_IT_number 130
_symmetry_cell_setting 'tetragonal'
loop_
_space_group_symop_operation_xyz
x,y,z
1/2-y,x,z
1/2-x,1/2-y,z
y,1/2-x,z
1/2+x,-y,1/2-z
-x,1/2+y,1/2-z
1/2+y,1/2+x,1/2-z
-y,-x,1/2-z
-x,-y,-z
1/2+y,-x,-z
1/2+x,1/2+y,-z
-y,1/2+x,-z
1/2-x,y,1/2+z
x,1/2-y,1/2+z
1/2-y,1/2-x,1/2+z
y,x,1/2+z
loop_
_atom_site_type_symbol
_atom_site_label
_atom_site_fract_x
_atom_site_fract_y
_atom_site_fract_z
Si Si1 0.527898 0.913929 0.588252
Si Si2 0.734326 0.409430 0.430593
Si Si3 0.297315 0.125288 0.011583
Si Si4 0.250000 0.750000 0.500000
Si Si5 0.111134 0.134652 0.771147
Si Si6 0.943008 0.115705 0.489134
Si Si7 0.250000 0.250000 0.825168
Si Si8 0.954267 0.724492 0.327820
O O1 0.559859 0.839175 0.539969
O O2 0.542369 0.892939 0.673659
O O3 0.439693 0.938342 0.562975
O O4 0.582741 0.987620 0.562772
O O5 0.769231 0.321951 0.444478
O O6 0.641980 0.399320 0.450577
O O7 0.793499 0.456440 0.486755
O O8 0.737947 0.455781 0.353380
O O9 0.347644 0.206480 0.999006
O O10 0.298953 0.093880 0.096807
O O11 0.178687 0.182417 0.817491
O O12 0.081569 0.196182 0.708395
O O13 0.154714 0.061571 0.730862
#
# Coordination Sequence:
#
# PCOD9565689 Si02
#       8
#    16  16  16   4  16  16   4  16
#     4  11  24  40  59  99 128 163 210 262 297 374
#     4  10  20  40  68  87 116 156 210 272 332 363
#     4  11  22  33  60  94 131 170 208 233 288 380
#     4   8  20  40  64 100 102 140 224 302 316 352
#     4  10  23  35  58  89 140 168 197 235 301 382
#     4  10  23  41  67  92 119 154 220 273 314 363
#     4   8  20  36  52  86 132 168 192 218 272 384
#     4  11  20  38  60  91 129 174 193 237 314 388
#
# _framework density 20.497807999999999
#
# number of rings (size 3 to 8) (size 9 to 14) (size 15 to 20)
#    0.000    1.692    3.077    0.923    4.308    0.000 
#    0.000    3.077    0.000    1.846    0.000    0.000 
#    0.000    0.000    0.000    0.000    0.000    0.000 
#
# Total GULP energy -579189.239530 kJ/mol
# GULP energy per Si atom -5569.127303 kJ/mol
# Density = 2.045115 g / cm^3
# Si number density = 20.497808 Si / 1000 Ang^3
#
#
#
# Elastic Constant Matrix: (Units=GPa)
#
#
# Indices 1 2 3 4 5 6 
#
# 1 67.3915 9.3389 20.5008 0.0000 0.0000 0.0000
# 2 9.3389 67.3915 20.5008 0.0000 0.0000 0.0000
# 3 20.5008 20.5008 73.6433 0.0000 0.0000 0.0000
# 4 0.0000 0.0000 0.0000 17.2705 0.0000 0.0000
# 5 0.0000 0.0000 0.0000 0.0000 17.2705 0.0000
# 6 0.0000 0.0000 0.0000 0.0000 0.0000 26.4305
#
#
#
# Elastic Compliance Matrix: (Units=1/GPa)
#
#
# Indices 1 2 3 4 5 6 
#
# 1 0.016268 -0.000958 -0.004262 0.000000 0.000000 0.000000
# 2 -0.000958 0.016268 -0.004262 0.000000 0.000000 0.000000
# 3 -0.004262 -0.004262 0.015952 0.000000 0.000000 0.000000
# 4 0.000000 0.000000 0.000000 0.057902 0.000000 0.000000
# 5 0.000000 0.000000 0.000000 0.000000 0.057902 0.000000
# 6 0.000000 0.000000 0.000000 0.000000 0.000000 0.037835
#
#
# Mechanical properties :
#
#
# Convention : Reuss Voigt Hill
#
# Bulk Modulus (GPa) = 33.87074 34.34524 34.10799
# Shear Modulus (GPa) = 21.65136 22.73336 22.19236
#
# Velocity S-wave (km/s) = 3.25357 3.33387 3.29396
# Velocity P-wave (km/s) = 5.53843 5.62241 5.58058
#
# Compressibility (1/GPa) = 0.02952401
#
# Stress axis : x y z
#
# Youngs Moduli (GPa) = 61.47071 61.47071 62.68851
#
# Poissons Ratio (x) = 0.05888 0.26718
# Poissons Ratio (y) = 0.05888 0.26718
# Poissons Ratio (z) = 0.26199 0.26199
#
# Static dielectric constant tensor:
#      x y z
#    x 1.762530 0.000000 0.000000 
#    y 0.000000 1.762530 0.000000 
#    z 0.000000 0.000000 1.727550 
# 
# From -- ./inp_files/3194.got.cif
#   From: 2010.05.17/outbox.cif.g08.bks.cpg/sg130_2_cif.got.tgz:3194.got - 2010.05.20 12:17:35.
