data_PCOD9565837
_publ_section_title
;
Structure prediction by ZEFSAII (Michael W. Deem and Ramdas Pophale) SiO2 
 PCOD9565837
Probable space group: P 4/N C C
;
_chemical_formula_sum "Si O2"
_cell_formula_units_Z 44
_cell_length_a 15.025795
_cell_length_b 15.025795
_cell_length_c 10.199367
_cell_angle_alpha 90.000000
_cell_angle_beta 90.000000
_cell_angle_gamma 90.000000
_cell_volume 2302.757142
_symmetry_space_group_name_H-M "P 4/N C C"
_symmetry_group_IT_number 130
_symmetry_cell_setting 'tetragonal'
loop_
_space_group_symop_operation_xyz
x,y,z
1/2-y,x,z
1/2-x,1/2-y,z
y,1/2-x,z
1/2+x,-y,1/2-z
-x,1/2+y,1/2-z
1/2+y,1/2+x,1/2-z
-y,-x,1/2-z
-x,-y,-z
1/2+y,-x,-z
1/2+x,1/2+y,-z
-y,1/2+x,-z
1/2-x,y,1/2+z
x,1/2-y,1/2+z
1/2-y,1/2-x,1/2+z
y,x,1/2+z
loop_
_atom_site_type_symbol
_atom_site_label
_atom_site_fract_x
_atom_site_fract_y
_atom_site_fract_z
Si Si1 0.020663 0.979338 0.250000
Si Si2 0.566491 0.182035 0.414771
Si Si3 0.250000 0.750000 0.000000
Si Si4 0.328602 0.530973 0.713132
O O1 0.080517 0.948119 0.371408
O O2 0.914462 0.967684 0.267599
O O3 0.671435 0.203839 0.418006
O O4 0.532240 0.197195 0.561641
O O5 0.519521 0.246900 0.310821
O O6 0.373517 0.626484 0.750000
#
# Coordination Sequence:
#
# PCOD9565837 Si02
#       4
#     8  16   4  16
#     4  10  24  39  62  91 132 178 212 260 318 394
#     4  12  22  37  63  87 139 162 207 275 304 398
#     4  12  20  34  56 106 120 166 208 246 348 378
#     4  10  24  39  56  95 127 172 214 246 326 378
#
# _framework density 19.107527999999999
#
# number of rings (size 3 to 8) (size 9 to 14) (size 15 to 20)
#    1.091    0.000    3.636    3.273    0.000    1.455 
#    0.000    0.000    0.000    1.091    0.000   10.182 
#    0.000    0.000    0.000    0.000    0.000    0.000 
#
# Total GULP energy -245440.857912 kJ/mol
# GULP energy per Si atom -5578.201316 kJ/mol
# Density = 1.906404 g / cm^3
# Si number density = 19.107528 Si / 1000 Ang^3
#
#
#
# Elastic Constant Matrix: (Units=GPa)
#
#
# Indices 1 2 3 4 5 6 
#
# 1 81.4670 43.3847 36.7984 0.0000 0.0000 0.0000
# 2 43.3847 81.4682 36.7987 0.0000 0.0000 0.0000
# 3 36.7984 36.7987 153.3611 0.0000 0.0000 0.0000
# 4 0.0000 0.0000 0.0000 27.6492 0.0000 0.0000
# 5 0.0000 0.0000 0.0000 0.0000 27.6502 0.0000
# 6 0.0000 0.0000 0.0000 0.0000 0.0000 37.1630
#
#
#
# Elastic Compliance Matrix: (Units=1/GPa)
#
#
# Indices 1 2 3 4 5 6 
#
# 1 0.017794 -0.008465 -0.002238 0.000000 0.000000 0.000000
# 2 -0.008465 0.017794 -0.002238 0.000000 0.000000 0.000000
# 3 -0.002238 -0.002238 0.007595 0.000000 0.000000 0.000000
# 4 0.000000 0.000000 0.000000 0.036167 0.000000 0.000000
# 5 0.000000 0.000000 0.000000 0.000000 0.036166 0.000000
# 6 0.000000 0.000000 0.000000 0.000000 0.000000 0.026908
#
#
# Mechanical properties :
#
#
# Convention : Reuss Voigt Hill
#
# Bulk Modulus (GPa) = 57.80714 61.13997 59.47355
# Shear Modulus (GPa) = 28.72344 31.78013 30.25178
#
# Velocity S-wave (km/s) = 3.88139 4.08269 3.98331
# Velocity P-wave (km/s) = 7.09973 7.36830 7.23526
#
# Compressibility (1/GPa) = 0.01729890
#
# Stress axis : x y z
#
# Youngs Moduli (GPa) = 56.19914 56.19996 131.66933
#
# Poissons Ratio (x) = 0.47572 0.29474
# Poissons Ratio (y) = 0.47571 0.29474
# Poissons Ratio (z) = 0.12580 0.12580
#
# Static dielectric constant tensor:
#      x y z
#    x 1.684400 0.000000 0.000000 
#    y 0.000000 1.684400 0.000000 
#    z 0.000000 0.000000 1.698810 
# 
# From -- ./inp_files/500.got.cif
#   From: 2010.05.17/outbox.cif.g08.bks.cpg/sg130_1_cif.got.tgz:500.got - 2010.05.20 12:17:35.
