data_PCOD9565685
_publ_section_title
;
Structure prediction by ZEFSAII (Michael W. Deem and Ramdas Pophale) SiO2 
 PCOD9565685
Probable space group: P 4/N C C
;
_chemical_formula_sum "Si O2"
_cell_formula_units_Z 128
_cell_length_a 22.042306
_cell_length_b 22.042306
_cell_length_c 12.765720
_cell_angle_alpha 90.000000
_cell_angle_beta 90.000000
_cell_angle_gamma 90.000000
_cell_volume 6202.394256
_symmetry_space_group_name_H-M "P 4/N C C"
_symmetry_group_IT_number 130
_symmetry_cell_setting 'tetragonal'
loop_
_space_group_symop_operation_xyz
x,y,z
1/2-y,x,z
1/2-x,1/2-y,z
y,1/2-x,z
1/2+x,-y,1/2-z
-x,1/2+y,1/2-z
1/2+y,1/2+x,1/2-z
-y,-x,1/2-z
-x,-y,-z
1/2+y,-x,-z
1/2+x,1/2+y,-z
-y,1/2+x,-z
1/2-x,y,1/2+z
x,1/2-y,1/2+z
1/2-y,1/2-x,1/2+z
y,x,1/2+z
loop_
_atom_site_type_symbol
_atom_site_label
_atom_site_fract_x
_atom_site_fract_y
_atom_site_fract_z
Si Si1 0.933464 0.097514 0.995741
Si Si2 0.918581 0.492063 0.320232
Si Si3 0.572121 0.691423 0.269646
Si Si4 0.608707 0.988666 0.797063
Si Si5 0.596614 0.335496 0.338718
Si Si6 0.421765 0.208692 0.579922
Si Si7 0.777854 0.020878 0.594555
Si Si8 0.308473 0.165953 0.898095
O O1 0.953969 0.154056 0.923792
O O2 0.932582 0.034278 0.934325
O O3 0.870028 0.111679 0.053454
O O4 0.978338 0.093728 0.093542
O O5 0.853958 0.524256 0.321643
O O6 0.956732 0.546478 0.267021
O O7 0.933260 0.433260 0.250000
O O8 0.601507 0.733758 0.356724
O O9 0.528723 0.725739 0.186633
O O10 0.625779 0.666239 0.197002
O O11 0.660651 0.943168 0.834055
O O12 0.633392 0.036835 0.713849
O O13 0.648475 0.351526 0.250000
O O14 0.574231 0.268521 0.372756
O O15 0.480274 0.230830 0.511102
O O16 0.372421 0.179343 0.503155
O O17 0.331353 0.234689 0.893521
#
# Coordination Sequence:
#
# PCOD9565685 Si02
#       8
#    16  16  16  16  16  16  16  16
#     4  10  21  39  57  90 123 165 196 249 317 368
#     4  12  23  36  57  94 128 161 202 253 315 381
#     4  11  23  39  64  90 122 169 211 259 318 378
#     4  10  22  37  60  88 126 157 204 253 306 376
#     4  10  20  39  64  92 116 164 209 250 310 370
#     4  10  22  39  62  90 118 166 215 254 318 372
#     4  10  20  40  60  90 129 156 205 258 304 386
#     4  10  25  44  61  87 125 168 221 276 318 367
#
# _framework density 20.637191999999999
#
# number of rings (size 3 to 8) (size 9 to 14) (size 15 to 20)
#    0.000    1.625    2.500    2.250    3.500    0.000 
#    0.000    1.250    0.000    0.375    0.000    0.000 
#    0.000    0.000    0.000    0.000    0.000    0.000 
#
# Total GULP energy -713344.965035 kJ/mol
# GULP energy per Si atom -5573.007539 kJ/mol
# Density = 2.059022 g / cm^3
# Si number density = 20.637192 Si / 1000 Ang^3
#
#
#
# Elastic Constant Matrix: (Units=GPa)
#
#
# Indices 1 2 3 4 5 6 
#
# 1 42.1326 16.3694 16.7464 0.0000 0.0000 0.0000
# 2 16.3694 42.1336 16.7463 0.0000 0.0000 0.0000
# 3 16.7464 16.7463 63.6537 0.0000 0.0000 0.0000
# 4 0.0000 0.0000 0.0000 20.7966 0.0000 0.0000
# 5 0.0000 0.0000 0.0000 0.0000 20.7963 0.0000
# 6 0.0000 0.0000 0.0000 0.0000 0.0000 26.3317
#
#
#
# Elastic Compliance Matrix: (Units=1/GPa)
#
#
# Indices 1 2 3 4 5 6 
#
# 1 0.029470 -0.009345 -0.005295 0.000000 0.000000 0.000000
# 2 -0.009345 0.029469 -0.005294 0.000000 0.000000 0.000000
# 3 -0.005295 -0.005294 0.018496 0.000000 0.000000 0.000000
# 4 0.000000 0.000000 0.000000 0.048085 0.000000 0.000000
# 5 0.000000 0.000000 0.000000 0.000000 0.048085 0.000000
# 6 0.000000 0.000000 0.000000 0.000000 0.000000 0.037977
#
#
# Mechanical properties :
#
#
# Convention : Reuss Voigt Hill
#
# Bulk Modulus (GPa) = 26.61922 27.51597 27.06760
# Shear Modulus (GPa) = 18.94144 20.12211 19.53177
#
# Velocity S-wave (km/s) = 3.03286 3.12595 3.07976
# Velocity P-wave (km/s) = 5.01906 5.13721 5.07848
#
# Compressibility (1/GPa) = 0.03756684
#
# Stress axis : x y z
#
# Youngs Moduli (GPa) = 33.93313 33.93407 54.06642
#
# Poissons Ratio (x) = 0.31711 0.28626
# Poissons Ratio (y) = 0.31710 0.28624
# Poissons Ratio (z) = 0.17966 0.17966
#
# Static dielectric constant tensor:
#      x y z
#    x 1.782540 0.000000 0.000000 
#    y 0.000000 1.782540 0.000000 
#    z 0.000000 0.000000 1.749280 
# 
# From -- ./inp_files/1880.got.cif
#   From: 2010.05.17/outbox.cif.g08.bks.cpg/sg130_1_cif.got.tgz:1880.got - 2010.05.20 12:17:35.
