data_PCOD9565734
_publ_section_title
;
Structure prediction by ZEFSAII (Michael W. Deem and Ramdas Pophale) SiO2 
 PCOD9565734
Probable space group: P 4/N C C
;
_chemical_formula_sum "Si O2"
_cell_formula_units_Z 64
_cell_length_a 12.812377
_cell_length_b 12.812377
_cell_length_c 17.168581
_cell_angle_alpha 90.000000
_cell_angle_beta 90.000000
_cell_angle_gamma 90.000000
_cell_volume 2818.342827
_symmetry_space_group_name_H-M "P 4/N C C"
_symmetry_group_IT_number 130
_symmetry_cell_setting 'tetragonal'
loop_
_space_group_symop_operation_xyz
x,y,z
1/2-y,x,z
1/2-x,1/2-y,z
y,1/2-x,z
1/2+x,-y,1/2-z
-x,1/2+y,1/2-z
1/2+y,1/2+x,1/2-z
-y,-x,1/2-z
-x,-y,-z
1/2+y,-x,-z
1/2+x,1/2+y,-z
-y,1/2+x,-z
1/2-x,y,1/2+z
x,1/2-y,1/2+z
1/2-y,1/2-x,1/2+z
y,x,1/2+z
loop_
_atom_site_type_symbol
_atom_site_label
_atom_site_fract_x
_atom_site_fract_y
_atom_site_fract_z
Si Si1 0.667919 0.433823 0.816715
Si Si2 0.138418 0.384091 0.792220
Si Si3 0.074997 0.221903 0.082382
Si Si4 0.995794 0.398497 0.445067
O O1 0.655049 0.344952 0.750000
O O2 0.610532 0.532485 0.774197
O O3 0.773428 0.485229 0.851521
O O4 0.609170 0.395523 0.894240
O O5 0.110491 0.264010 0.786079
O O6 0.099440 0.419532 0.876420
O O7 0.167605 0.136322 0.087104
O O8 0.019430 0.199240 0.000541
O O9 0.000000 0.500000 0.500000
#
# Coordination Sequence:
#
# PCOD9565734 Si02
#       4
#    16  16  16  16
#     4  10  22  39  61  97 140 176 216 281 366 423
#     4  10  21  38  62  98 136 171 224 290 342 412
#     4  11  21  37  67 102 131 173 234 291 338 404
#     4  11  22  37  58  97 137 177 225 288 357 412
#
# _framework density 22.708379000000001
#
# number of rings (size 3 to 8) (size 9 to 14) (size 15 to 20)
#    0.000    1.500    2.500    3.000    0.000    4.000 
#    0.000    0.000    0.000    0.750    6.500    0.000 
#    0.000    0.000    0.000    0.000    0.000    0.000 
#
# Total GULP energy -356588.514000 kJ/mol
# GULP energy per Si atom -5571.695531 kJ/mol
# Density = 2.265669 g / cm^3
# Si number density = 22.708379 Si / 1000 Ang^3
#
#
#
# Elastic Constant Matrix: (Units=GPa)
#
#
# Indices 1 2 3 4 5 6 
#
# 1 46.5696 40.5850 34.4760 0.0000 0.0000 0.0000
# 2 40.5850 46.5705 34.4761 0.0000 0.0000 0.0000
# 3 34.4760 34.4761 167.4779 0.0000 0.0000 0.0000
# 4 0.0000 0.0000 0.0000 41.3830 0.0000 0.0000
# 5 0.0000 0.0000 0.0000 0.0000 41.3829 0.0000
# 6 0.0000 0.0000 0.0000 0.0000 0.0000 43.5753
#
#
#
# Elastic Compliance Matrix: (Units=1/GPa)
#
#
# Indices 1 2 3 4 5 6 
#
# 1 0.090396 -0.076689 -0.002822 0.000000 0.000000 0.000000
# 2 -0.076689 0.090394 -0.002821 0.000000 0.000000 0.000000
# 3 -0.002822 -0.002821 0.007133 0.000000 0.000000 0.000000
# 4 0.000000 0.000000 0.000000 0.024165 0.000000 0.000000
# 5 0.000000 0.000000 0.000000 0.000000 0.024165 0.000000
# 6 0.000000 0.000000 0.000000 0.000000 0.000000 0.022949
#
#
# Mechanical properties :
#
#
# Convention : Reuss Voigt Hill
#
# Bulk Modulus (GPa) = 42.99461 53.29913 48.14687
# Shear Modulus (GPa) = 11.58431 35.34030 23.46230
#
# Velocity S-wave (km/s) = 2.26106 3.94923 3.21783
# Velocity P-wave (km/s) = 5.07849 6.65713 5.92066
#
# Compressibility (1/GPa) = 0.02325873
#
# Stress axis : x y z
#
# Youngs Moduli (GPa) = 11.06240 11.06264 140.20243
#
# Poissons Ratio (x) = 0.84839 0.39559
# Poissons Ratio (y) = 0.84837 0.39555
# Poissons Ratio (z) = 0.03121 0.03121
#
# Static dielectric constant tensor:
#      x y z
#    x 1.905840 0.000000 0.000000 
#    y 0.000000 1.905840 0.000000 
#    z 0.000000 0.000000 1.875910 
# 
# From -- ./inp_files/2832.got.cif
#   From: 2010.05.17/outbox.cif.g08.bks.cpg/sg130_2_cif.got.tgz:2832.got - 2010.05.20 12:17:35.
