data_PCOD9565294
_publ_section_title
;
Structure prediction by ZEFSAII (Michael W. Deem and Ramdas Pophale) SiO2 
 PCOD9565294
Probable space group: P 4/N M M
;
_chemical_formula_sum "Si O2"
_cell_formula_units_Z 80
_cell_length_a 12.703956
_cell_length_b 12.703956
_cell_length_c 30.118038
_cell_angle_alpha 90.000000
_cell_angle_beta 90.000000
_cell_angle_gamma 90.000000
_cell_volume 4860.765153
_symmetry_space_group_name_H-M "P 4/N M M"
_symmetry_group_IT_number 129
_symmetry_cell_setting 'tetragonal'
loop_
_space_group_symop_operation_xyz
x,y,z
1/2-y,x,z
1/2-x,1/2-y,z
y,1/2-x,z
1/2+x,-y,-z
-x,1/2+y,-z
1/2+y,1/2+x,-z
-y,-x,-z
-x,-y,-z
1/2+y,-x,-z
1/2+x,1/2+y,-z
-y,1/2+x,-z
1/2-x,y,z
x,1/2-y,z
1/2-y,1/2-x,z
y,x,z
loop_
_atom_site_type_symbol
_atom_site_label
_atom_site_fract_x
_atom_site_fract_y
_atom_site_fract_z
Si Si1 0.874348 0.450991 0.641446
Si Si2 0.545589 0.128387 0.733089
Si Si3 0.868956 0.454923 0.543421
Si Si4 0.876121 0.448851 0.048825
Si Si5 0.377995 0.750000 0.788838
Si Si6 0.877423 0.250000 0.109579
O O1 0.750000 0.466298 0.648154
O O2 0.919428 0.382761 0.681694
O O3 0.889935 0.404335 0.591848
O O4 0.939703 0.560298 0.642376
O O5 0.523297 0.250000 0.743340
O O6 0.644860 0.091169 0.762492
O O7 0.446378 0.053623 0.740673
O O8 0.884306 0.384306 0.500000
O O9 0.750000 0.494033 0.544810
O O10 0.948822 0.551178 0.539020
O O11 0.750000 0.467954 0.051891
O O12 0.906690 0.356174 0.083280
O O13 0.947144 0.552857 0.055918
O O14 0.903835 0.403835 0.000000
O O15 0.250000 0.750000 0.788829
O O16 0.414700 0.750000 0.839650
O O17 0.750000 0.250000 0.110318
#
# Coordination Sequence:
#
# PCOD9565294 Si02
#       6
#    16  16  16  16   8   8
#     4   9  17  30  49  72  96 126 162 204 256 309
#     4  10  20  34  53  76 104 136 172 214 259 309
#     4   9  18  31  46  67  95 124 159 202 248 301
#     4  10  19  32  52  78 108 142 180 220 262 310
#     4   9  18  34  54  77 101 133 175 216 255 301
#     4   9  18  32  54  77 103 137 175 216 255 305
#
# _framework density 16.458314999999999
#
# number of rings (size 3 to 8) (size 9 to 14) (size 15 to 20)
#    0.000    2.600    2.000    0.000    0.000    2.600 
#    0.000    4.000    0.000    0.600    0.000   12.600 
#    0.000    0.000    0.000    0.000    0.000    0.000 
#
# Total GULP energy -445442.854729 kJ/mol
# GULP energy per Si atom -5568.035684 kJ/mol
# Density = 1.642085 g / cm^3
# Si number density = 16.458315 Si / 1000 Ang^3
#
#
#
# Elastic Constant Matrix: (Units=GPa)
#
#
# Indices 1 2 3 4 5 6 
#
# 1 84.9029 51.4486 42.4305 0.0000 0.0000 0.0000
# 2 51.4486 84.9029 42.4305 0.0000 0.0000 0.0000
# 3 42.4305 42.4305 121.1406 0.0000 0.0000 0.0000
# 4 0.0000 0.0000 0.0000 16.0873 0.0000 0.0000
# 5 0.0000 0.0000 0.0000 0.0000 16.0873 0.0000
# 6 0.0000 0.0000 0.0000 0.0000 0.0000 7.9899
#
#
#
# Elastic Compliance Matrix: (Units=1/GPa)
#
#
# Indices 1 2 3 4 5 6 
#
# 1 0.019635 -0.010257 -0.003285 0.000000 0.000000 0.000000
# 2 -0.010257 0.019635 -0.003285 0.000000 0.000000 0.000000
# 3 -0.003285 -0.003285 0.010556 0.000000 0.000000 0.000000
# 4 0.000000 0.000000 0.000000 0.062161 0.000000 0.000000
# 5 0.000000 0.000000 0.000000 0.000000 0.062161 0.000000
# 6 0.000000 0.000000 0.000000 0.000000 0.000000 0.125158
#
#
# Mechanical properties :
#
#
# Convention : Reuss Voigt Hill
#
# Bulk Modulus (GPa) = 61.83027 62.61838 62.22433
# Shear Modulus (GPa) = 14.77766 18.34204 16.55985
#
# Velocity S-wave (km/s) = 2.99972 3.34197 3.17546
# Velocity P-wave (km/s) = 7.04607 7.28155 7.16478
#
# Compressibility (1/GPa) = 0.01617331
#
# Stress axis : x y z
#
# Youngs Moduli (GPa) = 50.92960 50.92960 94.73317
#
# Poissons Ratio (x) = 0.52236 0.31118
# Poissons Ratio (y) = 0.52236 0.31118
# Poissons Ratio (z) = 0.16730 0.16730
#
# Static dielectric constant tensor:
#      x y z
#    x 1.529930 0.000000 0.000000 
#    y 0.000000 1.529930 0.000000 
#    z 0.000000 0.000000 1.586860 
# 
# From -- ./inp_files/7720.got.cif
#   From: 2010.05.17/outbox.cif.g08.bks.cpg/sg129_4_cif.got.tgz:7720.got - 2010.05.20 12:12:06.
