data_PCOD9565467
_publ_section_title
;
Structure prediction by ZEFSAII (Michael W. Deem and Ramdas Pophale) SiO2 
 PCOD9565467
Probable space group: P 4/N M M
;
_chemical_formula_sum "Si O2"
_cell_formula_units_Z 72
_cell_length_a 13.519334
_cell_length_b 13.519334
_cell_length_c 23.877721
_cell_angle_alpha 90.000000
_cell_angle_beta 90.000000
_cell_angle_gamma 90.000000
_cell_volume 4364.188178
_symmetry_space_group_name_H-M "P 4/N M M"
_symmetry_group_IT_number 129
_symmetry_cell_setting 'tetragonal'
loop_
_space_group_symop_operation_xyz
x,y,z
1/2-y,x,z
1/2-x,1/2-y,z
y,1/2-x,z
1/2+x,-y,-z
-x,1/2+y,-z
1/2+y,1/2+x,-z
-y,-x,-z
-x,-y,-z
1/2+y,-x,-z
1/2+x,1/2+y,-z
-y,1/2+x,-z
1/2-x,y,z
x,1/2-y,z
1/2-y,1/2-x,z
y,x,z
loop_
_atom_site_type_symbol
_atom_site_label
_atom_site_fract_x
_atom_site_fract_y
_atom_site_fract_z
Si Si1 0.867303 0.132698 0.000000
Si Si2 0.133171 0.968513 0.659380
Si Si3 0.367241 0.975413 0.111651
Si Si4 0.632301 0.468262 0.553295
Si Si5 0.867980 0.031728 0.762602
O O1 0.903749 0.084594 0.942297
O O2 0.750000 0.116299 0.003770
O O3 0.250000 0.983512 0.653893
O O4 0.090477 0.902660 0.608536
O O5 0.105615 0.911711 0.716647
O O6 0.070524 0.070524 0.658559
O O7 0.250000 0.983600 0.107444
O O8 0.387967 0.932567 0.173590
O O9 0.418684 0.081317 0.110264
O O10 0.594094 0.405907 0.500000
O O11 0.750000 0.481460 0.552159
O O12 0.571630 0.571630 0.552603
O O13 0.750000 0.018660 0.755952
O O14 0.929080 0.929080 0.755440
#
# Coordination Sequence:
#
# PCOD9565467 Si02
#       5
#     8  16  16  16  16
#     4   9  17  28  42  62  87 115 150 190 230 273
#     4  10  21  36  53  74  99 127 162 202 242 287
#     4   9  17  29  45  65  90 119 150 186 228 274
#     4  10  21  36  54  78 106 135 169 206 244 289
#     4   9  18  31  47  70  97 124 157 194 234 284
#
# _framework density 16.497914999999999
#
# number of rings (size 3 to 8) (size 9 to 14) (size 15 to 20)
#    0.000    2.556    0.000    1.667    0.000    4.667 
#    0.000    4.444    0.000    8.000    0.000    0.000 
#    0.000    5.333    0.000    0.000    0.000    0.000 
#
# Total GULP energy -401099.865186 kJ/mol
# GULP energy per Si atom -5570.831461 kJ/mol
# Density = 1.646036 g / cm^3
# Si number density = 16.497915 Si / 1000 Ang^3
#
#
#
# Elastic Constant Matrix: (Units=GPa)
#
#
# Indices 1 2 3 4 5 6 
#
# 1 99.0767 60.1968 58.5344 0.0000 0.0000 0.0000
# 2 60.1968 99.0760 58.5344 0.0000 0.0000 0.0000
# 3 58.5344 58.5344 145.0244 0.0000 0.0000 0.0000
# 4 0.0000 0.0000 0.0000 22.5881 0.0000 0.0000
# 5 0.0000 0.0000 0.0000 0.0000 22.5888 0.0000
# 6 0.0000 0.0000 0.0000 0.0000 0.0000 10.3902
#
#
#
# Elastic Compliance Matrix: (Units=1/GPa)
#
#
# Indices 1 2 3 4 5 6 
#
# 1 0.017324 -0.008397 -0.003603 0.000000 0.000000 0.000000
# 2 -0.008397 0.017324 -0.003603 0.000000 0.000000 0.000000
# 3 -0.003603 -0.003603 0.009804 0.000000 0.000000 0.000000
# 4 0.000000 0.000000 0.000000 0.044271 0.000000 0.000000
# 5 0.000000 0.000000 0.000000 0.000000 0.044270 0.000000
# 6 0.000000 0.000000 0.000000 0.000000 0.000000 0.096245
#
#
# Mechanical properties :
#
#
# Convention : Reuss Voigt Hill
#
# Bulk Modulus (GPa) = 75.49777 77.52314 76.51046
# Shear Modulus (GPa) = 18.87806 22.17417 20.52612
#
# Velocity S-wave (km/s) = 3.38638 3.67012 3.53110
# Velocity P-wave (km/s) = 7.81994 8.06544 7.94364
#
# Compressibility (1/GPa) = 0.01324542
#
# Stress axis : x y z
#
# Youngs Moduli (GPa) = 57.72487 57.72426 102.00049
#
# Poissons Ratio (x) = 0.48470 0.36751
# Poissons Ratio (y) = 0.48471 0.36751
# Poissons Ratio (z) = 0.20798 0.20798
#
# Static dielectric constant tensor:
#      x y z
#    x 1.530810 0.000000 0.000000 
#    y 0.000000 1.530810 0.000000 
#    z 0.000000 0.000000 1.591220 
# 
# From -- ./inp_files/7394.got.cif
#   From: 2010.05.17/outbox.cif.g08.bks.cpg/sg129_4_cif.got.tgz:7394.got - 2010.05.20 12:12:06.
