data_PCOD9565143
_publ_section_title
;
Structure prediction by ZEFSAII (Michael W. Deem and Ramdas Pophale) SiO2 
 PCOD9565143
Probable space group: P 4/N M M
;
_chemical_formula_sum "Si O2"
_cell_formula_units_Z 96
_cell_length_a 18.193232
_cell_length_b 18.193232
_cell_length_c 17.449090
_cell_angle_alpha 90.000000
_cell_angle_beta 90.000000
_cell_angle_gamma 90.000000
_cell_volume 5775.538697
_symmetry_space_group_name_H-M "P 4/N M M"
_symmetry_group_IT_number 129
_symmetry_cell_setting 'tetragonal'
loop_
_space_group_symop_operation_xyz
x,y,z
1/2-y,x,z
1/2-x,1/2-y,z
y,1/2-x,z
1/2+x,-y,-z
-x,1/2+y,-z
1/2+y,1/2+x,-z
-y,-x,-z
-x,-y,-z
1/2+y,-x,-z
1/2+x,1/2+y,-z
-y,1/2+x,-z
1/2-x,y,z
x,1/2-y,z
1/2-y,1/2-x,z
y,x,z
loop_
_atom_site_type_symbol
_atom_site_label
_atom_site_fract_x
_atom_site_fract_y
_atom_site_fract_z
Si Si1 0.563169 0.437034 0.412112
Si Si2 0.042350 0.664173 0.005702
Si Si3 0.042520 0.165331 0.679336
Si Si4 0.455803 0.164789 0.323063
Si Si5 0.014445 0.895475 0.166129
Si Si6 0.467291 0.665865 0.835320
O O1 0.580759 0.419242 0.500000
O O2 0.499795 0.499795 0.411819
O O3 0.630892 0.475190 0.369010
O O4 0.525997 0.369698 0.367045
O O5 0.056757 0.750000 0.016776
O O6 0.004559 0.654462 0.922524
O O7 0.117111 0.617111 0.000000
O O8 0.001576 0.633851 0.080516
O O9 0.055816 0.250000 0.661159
O O10 0.113484 0.113484 0.665823
O O11 0.019321 0.155122 0.768160
O O12 0.445266 0.250000 0.342664
O O13 0.385654 0.114347 0.341177
O O14 0.474078 0.159274 0.232507
O O15 0.101331 0.908167 0.177322
O O16 0.974082 0.974082 0.174949
O O17 0.438275 0.750000 0.832142
#
# Coordination Sequence:
#
# PCOD9565143 Si02
#       6
#    16  16  16  16  16  16
#     4   9  18  34  55  76  98 129 168 205 246 301
#     4   9  18  29  43  67  97 129 169 213 259 304
#     4  10  20  34  54  79 106 136 170 211 258 305
#     4  10  19  32  52  76 105 137 169 210 254 299
#     4  10  18  30  49  71  98 133 177 219 253 297
#     4   9  17  29  46  69  99 131 167 212 259 300
#
# _framework density 16.621825999999999
#
# number of rings (size 3 to 8) (size 9 to 14) (size 15 to 20)
#    0.000    2.500    1.667    1.000    0.000    4.833 
#    0.000    0.000    0.000    3.000    0.000    5.833 
#    0.000    4.000    0.000    0.000    0.000    0.000 
#
# Total GULP energy -534517.679571 kJ/mol
# GULP energy per Si atom -5567.892496 kJ/mol
# Density = 1.658399 g / cm^3
# Si number density = 16.621826 Si / 1000 Ang^3
#
#
#
# Elastic Constant Matrix: (Units=GPa)
#
#
# Indices 1 2 3 4 5 6 
#
# 1 93.3598 41.0121 38.4989 0.0000 0.0000 0.0000
# 2 41.0121 93.3598 38.4989 0.0000 0.0000 0.0000
# 3 38.4989 38.4989 89.6023 0.0000 0.0000 0.0000
# 4 0.0000 0.0000 0.0000 11.8704 0.0000 0.0000
# 5 0.0000 0.0000 0.0000 0.0000 11.8704 0.0000
# 6 0.0000 0.0000 0.0000 0.0000 0.0000 11.1793
#
#
#
# Elastic Compliance Matrix: (Units=1/GPa)
#
#
# Indices 1 2 3 4 5 6 
#
# 1 0.014488 -0.004615 -0.004242 0.000000 0.000000 0.000000
# 2 -0.004615 0.014488 -0.004242 0.000000 0.000000 0.000000
# 3 -0.004242 -0.004242 0.014806 0.000000 0.000000 0.000000
# 4 0.000000 0.000000 0.000000 0.084243 0.000000 0.000000
# 5 0.000000 0.000000 0.000000 0.000000 0.084243 0.000000
# 6 0.000000 0.000000 0.000000 0.000000 0.000000 0.089451
#
#
# Mechanical properties :
#
#
# Convention : Reuss Voigt Hill
#
# Bulk Modulus (GPa) = 56.87213 56.92688 56.89950
# Shear Modulus (GPa) = 14.98001 17.53815 16.25908
#
# Velocity S-wave (km/s) = 3.00530 3.25180 3.13097
# Velocity P-wave (km/s) = 6.80676 6.95856 6.88308
#
# Compressibility (1/GPa) = 0.01758331
#
# Stress axis : x y z
#
# Youngs Moduli (GPa) = 69.02307 69.02304 67.54163
#
# Poissons Ratio (x) = 0.31855 0.28651
# Poissons Ratio (y) = 0.31855 0.28651
# Poissons Ratio (z) = 0.29279 0.29279
#
# Static dielectric constant tensor:
#      x y z
#    x 1.547420 0.000000 0.000000 
#    y 0.000000 1.547420 0.000000 
#    z 0.000000 0.000000 1.598250 
# 
# From -- ./inp_files/5685.got.cif
#   From: 2010.05.17/outbox.cif.g08.bks.cpg/sg129_3_cif.got.tgz:5685.got - 2010.05.20 12:12:06.
