data_PCOD9565593
_publ_section_title
;
Structure prediction by ZEFSAII (Michael W. Deem and Ramdas Pophale) SiO2 
 PCOD9565593
Probable space group: P 4/N C C
;
_chemical_formula_sum "Si O2"
_cell_formula_units_Z 112
_cell_length_a 13.812113
_cell_length_b 13.812113
_cell_length_c 30.553066
_cell_angle_alpha 90.000000
_cell_angle_beta 90.000000
_cell_angle_gamma 90.000000
_cell_volume 5828.744836
_symmetry_space_group_name_H-M "P 4/N C C"
_symmetry_group_IT_number 130
_symmetry_cell_setting 'tetragonal'
loop_
_space_group_symop_operation_xyz
x,y,z
1/2-y,x,z
1/2-x,1/2-y,z
y,1/2-x,z
1/2+x,-y,1/2-z
-x,1/2+y,1/2-z
1/2+y,1/2+x,1/2-z
-y,-x,1/2-z
-x,-y,-z
1/2+y,-x,-z
1/2+x,1/2+y,-z
-y,1/2+x,-z
1/2-x,y,1/2+z
x,1/2-y,1/2+z
1/2-y,1/2-x,1/2+z
y,x,1/2+z
loop_
_atom_site_type_symbol
_atom_site_label
_atom_site_fract_x
_atom_site_fract_y
_atom_site_fract_z
Si Si1 0.850463 0.195366 0.135501
Si Si2 0.515794 0.835808 0.900848
Si Si3 0.532530 0.912228 0.621520
Si Si4 0.845341 0.869742 0.819443
Si Si5 0.267898 0.087077 0.506216
Si Si6 0.040919 0.544124 0.300799
Si Si7 0.016987 0.710128 0.082333
O O1 0.750000 0.250000 0.147791
O O2 0.933499 0.272042 0.123121
O O3 0.898410 0.123941 0.171623
O O4 0.826282 0.124304 0.094603
O O5 0.613144 0.839816 0.871645
O O6 0.476321 0.945445 0.899198
O O7 0.537169 0.788578 0.947313
O O8 0.503018 0.802754 0.612882
O O9 0.628216 0.940634 0.595621
O O10 0.553625 0.944810 0.671639
O O11 0.735569 0.880703 0.805114
O O12 0.925007 0.942888 0.803610
O O13 0.353141 0.167749 0.502699
O O14 0.267842 0.007286 0.467876
O O15 0.059907 0.559907 0.250000
#
# Coordination Sequence:
#
# PCOD9565593 Si02
#       7
#    16  16  16  16  16  16  16
#     4  11  23  43  66  94 132 172 217 255 336 400
#     4  11  22  40  61  95 130 170 213 274 320 380
#     4  10  23  41  65  86 128 178 208 265 336 376
#     4  10  19  37  65  92 128 165 195 259 339 379
#     4  11  24  38  62  97 126 170 232 267 308 387
#     4  10  23  44  66  98 128 165 220 271 320 396
#     4  11  22  42  64  91 129 175 214 261 325 385
#
# _framework density 19.215115000000001
#
# number of rings (size 3 to 8) (size 9 to 14) (size 15 to 20)
#    0.000    1.429    4.286    0.857    4.000    3.429 
#    5.143    0.000    0.000    0.000    0.000    0.000 
#    0.000    0.000    0.000    0.000    0.000    0.000 
#
# Total GULP energy -624235.496218 kJ/mol
# GULP energy per Si atom -5573.531216 kJ/mol
# Density = 1.917138 g / cm^3
# Si number density = 19.215115 Si / 1000 Ang^3
#
#
#
# Elastic Constant Matrix: (Units=GPa)
#
#
# Indices 1 2 3 4 5 6 
#
# 1 61.8608 1.3319 9.2524 0.0000 0.0000 0.0000
# 2 1.3319 61.8608 9.2524 0.0000 0.0000 0.0000
# 3 9.2524 9.2524 101.8475 0.0000 0.0000 0.0000
# 4 0.0000 0.0000 0.0000 11.8604 0.0000 0.0000
# 5 0.0000 0.0000 0.0000 0.0000 11.8604 0.0000
# 6 0.0000 0.0000 0.0000 0.0000 0.0000 21.9279
#
#
#
# Elastic Compliance Matrix: (Units=1/GPa)
#
#
# Indices 1 2 3 4 5 6 
#
# 1 0.016389 -0.000132 -0.001477 0.000000 0.000000 0.000000
# 2 -0.000132 0.016389 -0.001477 0.000000 0.000000 0.000000
# 3 -0.001477 -0.001477 0.010087 0.000000 0.000000 0.000000
# 4 0.000000 0.000000 0.000000 0.084314 0.000000 0.000000
# 5 0.000000 0.000000 0.000000 0.000000 0.084314 0.000000
# 6 0.000000 0.000000 0.000000 0.000000 0.000000 0.045604
#
#
# Mechanical properties :
#
#
# Convention : Reuss Voigt Hill
#
# Bulk Modulus (GPa) = 27.25275 29.47142 28.36208
# Shear Modulus (GPa) = 18.14885 22.84525 20.49705
#
# Velocity S-wave (km/s) = 3.07662 3.45181 3.26960
# Velocity P-wave (km/s) = 5.18021 5.59085 5.38944
#
# Compressibility (1/GPa) = 0.03669355
#
# Stress axis : x y z
#
# Youngs Moduli (GPa) = 61.01631 61.01631 99.13808
#
# Poissons Ratio (x) = 0.00805 0.14642
# Poissons Ratio (y) = 0.00805 0.14642
# Poissons Ratio (z) = 0.09011 0.09011
#
# Static dielectric constant tensor:
#      x y z
#    x 1.674890 0.000000 0.000000 
#    y 0.000000 1.674890 0.000000 
#    z 0.000000 0.000000 1.683800 
# 
# From -- ./inp_files/4597.got.cif
#   From: 2010.05.17/outbox.cif.g08.bks.cpg/sg130_3_cif.got.tgz:4597.got - 2010.05.20 12:17:35.
