data_PCOD9565368
_publ_section_title
;
Structure prediction by ZEFSAII (Michael W. Deem and Ramdas Pophale) SiO2 
 PCOD9565368
Probable space group: P 4/N M M
;
_chemical_formula_sum "Si O2"
_cell_formula_units_Z 80
_cell_length_a 14.017420
_cell_length_b 14.017420
_cell_length_c 25.389941
_cell_angle_alpha 90.000000
_cell_angle_beta 90.000000
_cell_angle_gamma 90.000000
_cell_volume 4988.820338
_symmetry_space_group_name_H-M "P 4/N M M"
_symmetry_group_IT_number 129
_symmetry_cell_setting 'tetragonal'
loop_
_space_group_symop_operation_xyz
x,y,z
1/2-y,x,z
1/2-x,1/2-y,z
y,1/2-x,z
1/2+x,-y,-z
-x,1/2+y,-z
1/2+y,1/2+x,-z
-y,-x,-z
-x,-y,-z
1/2+y,-x,-z
1/2+x,1/2+y,-z
-y,1/2+x,-z
1/2-x,y,z
x,1/2-y,z
1/2-y,1/2-x,z
y,x,z
loop_
_atom_site_type_symbol
_atom_site_label
_atom_site_fract_x
_atom_site_fract_y
_atom_site_fract_z
Si Si1 0.519132 0.361874 0.838045
Si Si2 0.018491 0.860730 0.038793
Si Si3 0.020082 0.637310 0.755248
Si Si4 0.136637 0.520847 0.543481
Si Si5 0.638852 0.138818 0.649611
O O1 0.507830 0.250000 0.826572
O O2 0.421214 0.421214 0.830280
O O3 0.545736 0.372048 0.899698
O O4 0.596692 0.410596 0.800540
O O5 0.000270 0.750000 0.029064
O O6 0.098229 0.901772 0.000000
O O7 0.924382 0.924382 0.030135
O O8 0.005278 0.750000 0.761014
O O9 0.071566 0.619543 0.699216
O O10 0.923147 0.576854 0.757750
O O11 0.091037 0.591037 0.500000
O O12 0.250000 0.508959 0.535493
O O13 0.121338 0.570391 0.600261
O O14 0.077524 0.422477 0.540894
O O15 0.750000 0.125644 0.633743
O O16 0.628260 0.250000 0.665482
#
# Coordination Sequence:
#
# PCOD9565368 Si02
#       5
#    16  16  16  16  16
#     4   9  18  32  50  72  96 122 153 191 236 284
#     4   9  18  32  49  70  96 124 155 192 233 278
#     4  10  20  33  49  69  95 127 162 199 236 275
#     4  10  20  33  50  72  98 128 161 197 237 281
#     4   9  17  30  50  74  96 120 154 195 237 282
#
# _framework density 16.035855999999999
#
# number of rings (size 3 to 8) (size 9 to 14) (size 15 to 20)
#    0.000    2.600    0.000    1.800    0.000    4.000 
#    0.000    4.000    0.000    0.000    0.000   11.200 
#    0.000    0.000    0.000    0.000    0.000    0.000 
#
# Total GULP energy -445991.493089 kJ/mol
# GULP energy per Si atom -5574.893664 kJ/mol
# Density = 1.599936 g / cm^3
# Si number density = 16.035856 Si / 1000 Ang^3
#
#
#
# Elastic Constant Matrix: (Units=GPa)
#
#
# Indices 1 2 3 4 5 6 
#
# 1 120.9793 73.7638 69.8230 0.0000 0.0000 0.0000
# 2 73.7638 120.9769 69.8212 0.0000 0.0000 0.0000
# 3 69.8230 69.8212 78.4371 0.0000 0.0000 0.0000
# 4 0.0000 0.0000 0.0000 25.5910 0.0000 0.0000
# 5 0.0000 0.0000 0.0000 0.0000 25.5909 0.0000
# 6 0.0000 0.0000 0.0000 0.0000 0.0000 11.2296
#
#
#
# Elastic Compliance Matrix: (Units=1/GPa)
#
#
# Indices 1 2 3 4 5 6 
#
# 1 0.017689 -0.003491 -0.012638 0.000000 0.000000 0.000000
# 2 -0.003491 0.017689 -0.012638 0.000000 0.000000 0.000000
# 3 -0.012638 -0.012638 0.035249 0.000000 0.000000 0.000000
# 4 0.000000 0.000000 0.000000 0.039076 0.000000 0.000000
# 5 0.000000 0.000000 0.000000 0.000000 0.039076 0.000000
# 6 0.000000 0.000000 0.000000 0.000000 0.000000 0.089050
#
#
# Mechanical properties :
#
#
# Convention : Reuss Voigt Hill
#
# Bulk Modulus (GPa) = 76.38480 83.02324 79.70402
# Shear Modulus (GPa) = 16.68176 19.61465 18.14821
#
# Velocity S-wave (km/s) = 3.22883 3.50119 3.36776
# Velocity P-wave (km/s) = 7.85097 8.26016 8.05816
#
# Compressibility (1/GPa) = 0.01309161
#
# Stress axis : x y z
#
# Youngs Moduli (GPa) = 56.53277 56.53354 28.36952
#
# Poissons Ratio (x) = 0.19738 0.35855
# Poissons Ratio (y) = 0.19737 0.35853
# Poissons Ratio (z) = 0.71449 0.71446
#
# Static dielectric constant tensor:
#      x y z
#    x 1.515230 0.000000 0.000000 
#    y 0.000000 1.515230 0.000000 
#    z 0.000000 0.000000 1.529050 
# 
# From -- ./inp_files/6299.got.cif
#   From: 2010.05.17/outbox.cif.g08.bks.cpg/sg129_4_cif.got.tgz:6299.got - 2010.05.20 12:12:06.
