data_PCOD9565153
_publ_section_title
;
Structure prediction by ZEFSAII (Michael W. Deem and Ramdas Pophale) SiO2 
 PCOD9565153
Probable space group: P 4/N M M
;
_chemical_formula_sum "Si O2"
_cell_formula_units_Z 96
_cell_length_a 22.849273
_cell_length_b 22.849273
_cell_length_c 10.299675
_cell_angle_alpha 90.000000
_cell_angle_beta 90.000000
_cell_angle_gamma 90.000000
_cell_volume 5377.349870
_symmetry_space_group_name_H-M "P 4/N M M"
_symmetry_group_IT_number 129
_symmetry_cell_setting 'tetragonal'
loop_
_space_group_symop_operation_xyz
x,y,z
1/2-y,x,z
1/2-x,1/2-y,z
y,1/2-x,z
1/2+x,-y,-z
-x,1/2+y,-z
1/2+y,1/2+x,-z
-y,-x,-z
-x,-y,-z
1/2+y,-x,-z
1/2+x,1/2+y,-z
-y,1/2+x,-z
1/2-x,y,z
x,1/2-y,z
1/2-y,1/2-x,z
y,x,z
loop_
_atom_site_type_symbol
_atom_site_label
_atom_site_fract_x
_atom_site_fract_y
_atom_site_fract_z
Si Si1 0.181756 0.921735 0.257719
Si Si2 0.912324 0.818638 0.081061
Si Si3 0.890933 0.319255 0.802675
Si Si4 0.182552 0.088265 0.605465
Si Si5 0.961236 0.179384 0.543370
Si Si6 0.379102 0.528881 0.017545
O O1 0.250000 0.936335 0.241696
O O2 0.168369 0.855806 0.211504
O O3 0.165497 0.930199 0.408329
O O4 0.141713 0.961100 0.164690
O O5 0.916160 0.750000 0.039788
O O6 0.850767 0.850767 0.050649
O O7 0.918510 0.818427 0.237833
O O8 0.964354 0.859427 0.025673
O O9 0.882913 0.250000 0.805177
O O10 0.927985 0.337132 0.674685
O O11 0.927708 0.340495 0.926426
O O12 0.250000 0.096837 0.566791
O O13 0.142673 0.142673 0.569590
O O14 0.158503 0.027956 0.546933
O O15 0.964545 0.250000 0.549943
O O16 0.444935 0.555066 0.000000
#
# Coordination Sequence:
#
# PCOD9565153 Si02
#       6
#    16  16  16  16  16  16
#     4  10  20  31  47  73 101 131 171 217 260 307
#     4  10  19  33  55  80 107 139 175 218 267 319
#     4  10  18  31  51  70  96 134 173 215 262 311
#     4   9  17  30  52  78 102 132 167 207 258 315
#     4   9  17  31  49  69  94 129 169 202 245 307
#     4  10  20  34  53  77 103 139 179 217 257 312
#
# _framework density 17.85266
#
# number of rings (size 3 to 8) (size 9 to 14) (size 15 to 20)
#    0.000    2.333    1.667    2.000    0.000    1.000 
#    0.000    2.500    0.000    9.000    0.000    0.000 
#    0.000    4.000    0.000    0.000    0.000    0.000 
#
# Total GULP energy -534780.018875 kJ/mol
# GULP energy per Si atom -5570.625197 kJ/mol
# Density = 1.781203 g / cm^3
# Si number density = 17.852660 Si / 1000 Ang^3
#
#
#
# Elastic Constant Matrix: (Units=GPa)
#
#
# Indices 1 2 3 4 5 6 
#
# 1 61.3109 36.7992 -2.9854 0.0000 0.0000 0.0000
# 2 36.7992 61.3124 -2.9853 0.0000 0.0000 0.0000
# 3 -2.9854 -2.9853 51.2621 0.0000 0.0000 0.0000
# 4 0.0000 0.0000 0.0000 18.4206 0.0000 0.0000
# 5 0.0000 0.0000 0.0000 0.0000 18.4204 0.0000
# 6 0.0000 0.0000 0.0000 0.0000 0.0000 23.5147
#
#
#
# Elastic Compliance Matrix: (Units=1/GPa)
#
#
# Indices 1 2 3 4 5 6 
#
# 1 0.025513 -0.015283 0.000596 0.000000 0.000000 0.000000
# 2 -0.015283 0.025512 0.000596 0.000000 0.000000 0.000000
# 3 0.000596 0.000596 0.019577 0.000000 0.000000 0.000000
# 4 0.000000 0.000000 0.000000 0.054287 0.000000 0.000000
# 5 0.000000 0.000000 0.000000 0.000000 0.054288 0.000000
# 6 0.000000 0.000000 0.000000 0.000000 0.000000 0.042527
#
#
# Mechanical properties :
#
#
# Convention : Reuss Voigt Hill
#
# Bulk Modulus (GPa) = 23.57527 26.17139 24.87333
# Shear Modulus (GPa) = 18.93754 21.60826 20.27290
#
# Velocity S-wave (km/s) = 3.26048 3.48281 3.37347
# Velocity P-wave (km/s) = 5.23530 5.55560 5.39783
#
# Compressibility (1/GPa) = 0.04241734
#
# Stress axis : x y z
#
# Youngs Moduli (GPa) = 39.19643 39.19741 51.08040
#
# Poissons Ratio (x) = 0.59907 -0.03043
# Poissons Ratio (y) = 0.59905 -0.03043
# Poissons Ratio (z) = -0.02335 -0.02335
#
# Static dielectric constant tensor:
#      x y z
#    x 1.618370 0.000000 0.000000 
#    y 0.000000 1.618370 0.000000 
#    z 0.000000 0.000000 1.598410 
# 
# From -- ./inp_files/2679.got.cif
#   From: 2010.05.17/outbox.cif.g08.bks.cpg/sg129_2_cif.got.tgz:2679.got - 2010.05.20 12:12:06.
