data_PCOD9565212
_publ_section_title
;
Structure prediction by ZEFSAII (Michael W. Deem and Ramdas Pophale) SiO2 
 PCOD9565212
Probable space group: P 4/N M M
;
_chemical_formula_sum "Si O2"
_cell_formula_units_Z 104
_cell_length_a 19.113233
_cell_length_b 19.113233
_cell_length_c 18.324429
_cell_angle_alpha 90.000000
_cell_angle_beta 90.000000
_cell_angle_gamma 90.000000
_cell_volume 6694.201162
_symmetry_space_group_name_H-M "P 4/N M M"
_symmetry_group_IT_number 129
_symmetry_cell_setting 'tetragonal'
loop_
_space_group_symop_operation_xyz
x,y,z
1/2-y,x,z
1/2-x,1/2-y,z
y,1/2-x,z
1/2+x,-y,-z
-x,1/2+y,-z
1/2+y,1/2+x,-z
-y,-x,-z
-x,-y,-z
1/2+y,-x,-z
1/2+x,1/2+y,-z
-y,1/2+x,-z
1/2-x,y,z
x,1/2-y,z
1/2-y,1/2-x,z
y,x,z
loop_
_atom_site_type_symbol
_atom_site_label
_atom_site_fract_x
_atom_site_fract_y
_atom_site_fract_z
Si Si1 0.167145 0.547440 0.129353
Si Si2 0.667127 0.950194 0.728911
Si Si3 0.670821 0.556755 0.169429
Si Si4 0.667226 0.332775 0.500000
Si Si5 0.946707 0.668083 0.996926
Si Si6 0.831245 0.098455 0.214339
Si Si7 0.166524 0.591658 0.349798
O O1 0.250000 0.562253 0.128054
O O2 0.155775 0.490262 0.193767
O O3 0.127832 0.617678 0.151836
O O4 0.146521 0.511713 0.053414
O O5 0.750000 0.932302 0.724309
O O6 0.615788 0.884213 0.723055
O O7 0.651041 0.010579 0.668880
O O8 0.750000 0.583451 0.178331
O O9 0.614243 0.614243 0.189576
O O10 0.662153 0.539447 0.083211
O O11 0.662921 0.485192 0.213052
O O12 0.750000 0.341956 0.482157
O O13 0.619485 0.349706 0.430320
O O14 0.932261 0.750000 0.980943
O O15 0.880476 0.619525 0.979788
O O16 0.750000 0.116960 0.202991
O O17 0.860466 0.129160 0.289655
O O18 0.250000 0.599743 0.338801
#
# Coordination Sequence:
#
# PCOD9565212 Si02
#       7
#    16  16  16   8  16  16  16
#     4   9  18  30  44  63  88 119 151 186 229 269
#     4   9  17  29  44  64  91 122 156 190 224 266
#     4   9  19  33  48  67  88 112 146 189 233 273
#     4   9  16  28  49  74  96 118 145 176 214 263
#     4   9  17  30  46  64  87 113 146 189 233 274
#     4  10  19  30  45  66  91 118 150 182 211 257
#     4   9  18  31  48  71  97 122 146 178 221 265
#
# _framework density 15.535835000000001
#
# number of rings (size 3 to 8) (size 9 to 14) (size 15 to 20)
#    0.000    2.846    0.000    2.308    0.000    6.000 
#    0.000    3.462    0.000    3.692    0.000    8.615 
#    0.000    0.000    0.000    8.000    0.000    0.154 
#
# Total GULP energy -579466.815713 kJ/mol
# GULP energy per Si atom -5571.796305 kJ/mol
# Density = 1.550047 g / cm^3
# Si number density = 15.535835 Si / 1000 Ang^3
#
#
#
# Elastic Constant Matrix: (Units=GPa)
#
#
# Indices 1 2 3 4 5 6 
#
# 1 80.7940 66.8361 29.1948 0.0000 0.0000 0.0000
# 2 66.8361 80.7938 29.1949 0.0000 0.0000 0.0000
# 3 29.1948 29.1949 31.4234 0.0000 0.0000 0.0000
# 4 0.0000 0.0000 0.0000 19.1501 0.0000 0.0000
# 5 0.0000 0.0000 0.0000 0.0000 19.1500 0.0000
# 6 0.0000 0.0000 0.0000 0.0000 0.0000 30.3797
#
#
#
# Elastic Compliance Matrix: (Units=1/GPa)
#
#
# Indices 1 2 3 4 5 6 
#
# 1 0.041176 -0.030468 -0.009949 0.000000 0.000000 0.000000
# 2 -0.030468 0.041177 -0.009950 0.000000 0.000000 0.000000
# 3 -0.009949 -0.009950 0.050311 0.000000 0.000000 0.000000
# 4 0.000000 0.000000 0.000000 0.052219 0.000000 0.000000
# 5 0.000000 0.000000 0.000000 0.000000 0.052219 0.000000
# 6 0.000000 0.000000 0.000000 0.000000 0.000000 0.032917
#
#
# Mechanical properties :
#
#
# Convention : Reuss Voigt Hill
#
# Bulk Modulus (GPa) = 31.31736 49.27364 40.29550
# Shear Modulus (GPa) = 13.10973 18.25498 15.68235
#
# Velocity S-wave (km/s) = 2.90804 3.43158 3.18060
# Velocity P-wave (km/s) = 5.61048 6.89101 6.28345
#
# Compressibility (1/GPa) = 0.03193117
#
# Stress axis : x y z
#
# Youngs Moduli (GPa) = 24.28572 24.28552 19.87638
#
# Poissons Ratio (x) = 0.73993 0.19775
# Poissons Ratio (y) = 0.73993 0.19776
# Poissons Ratio (z) = 0.24162 0.24163
#
# Static dielectric constant tensor:
#      x y z
#    x 1.509740 0.000000 0.000000 
#    y 0.000000 1.509740 0.000000 
#    z 0.000000 0.000000 1.516580 
# 
# From -- ./inp_files/5813.got.cif
#   From: 2010.05.17/outbox.cif.g08.bks.cpg/sg129_3_cif.got.tgz:5813.got - 2010.05.20 12:12:06.
