data_PCOD9565246
_publ_section_title
;
Structure prediction by ZEFSAII (Michael W. Deem and Ramdas Pophale) SiO2 
 PCOD9565246
Probable space group: P 4/N M M
;
_chemical_formula_sum "Si O2"
_cell_formula_units_Z 96
_cell_length_a 18.536176
_cell_length_b 18.536176
_cell_length_c 16.895248
_cell_angle_alpha 90.000000
_cell_angle_beta 90.000000
_cell_angle_gamma 90.000000
_cell_volume 5805.035231
_symmetry_space_group_name_H-M "P 4/N M M"
_symmetry_group_IT_number 129
_symmetry_cell_setting 'tetragonal'
loop_
_space_group_symop_operation_xyz
x,y,z
1/2-y,x,z
1/2-x,1/2-y,z
y,1/2-x,z
1/2+x,-y,-z
-x,1/2+y,-z
1/2+y,1/2+x,-z
-y,-x,-z
-x,-y,-z
1/2+y,-x,-z
1/2+x,1/2+y,-z
-y,1/2+x,-z
1/2-x,y,z
x,1/2-y,z
1/2-y,1/2-x,z
y,x,z
loop_
_atom_site_type_symbol
_atom_site_label
_atom_site_fract_x
_atom_site_fract_y
_atom_site_fract_z
Si Si1 0.046806 0.165653 0.996699
Si Si2 0.598423 0.331796 0.423645
Si Si3 0.666976 0.105514 0.920549
Si Si4 0.466849 0.835757 0.169195
Si Si5 0.668612 0.948031 0.485600
Si Si6 0.519915 0.404619 0.664180
O O1 0.067036 0.250000 0.003604
O O2 0.111328 0.111328 0.014393
O O3 0.018205 0.153329 0.907040
O O4 0.977207 0.153216 0.052697
O O5 0.647448 0.352553 0.500000
O O6 0.614510 0.250000 0.396944
O O7 0.516922 0.334075 0.457065
O O8 0.602397 0.396060 0.359987
O O9 0.750000 0.112641 0.896806
O O10 0.610425 0.132259 0.856299
O O11 0.651886 0.151886 0.000000
O O12 0.460996 0.750000 0.182138
O O13 0.492227 0.874793 0.248274
O O14 0.750000 0.920840 0.481916
O O15 0.612734 0.887267 0.510885
O O16 0.643595 0.977695 0.400179
O O17 0.484355 0.484355 0.656835
#
# Coordination Sequence:
#
# PCOD9565246 Si02
#       6
#    16  16  16  16  16  16
#     4   9  18  32  49  69  92 118 151 190 230 273
#     4   9  18  32  48  67  91 118 152 191 230 275
#     4   9  18  31  47  67  91 120 152 185 224 271
#     4  10  20  31  45  68  95 122 153 188 225 268
#     4   9  17  30  48  68  91 118 148 186 228 271
#     4  10  19  31  48  67  90 124 159 189 226 271
#
# _framework density 16.537368000000001
#
# number of rings (size 3 to 8) (size 9 to 14) (size 15 to 20)
#    0.000    2.667    0.000    3.000    0.000    8.667 
#    0.000    0.000    0.000    0.000    0.000    2.333 
#    0.000    0.000    0.000    8.667    0.000    0.667 
#
# Total GULP energy -535066.715450 kJ/mol
# GULP energy per Si atom -5573.611619 kJ/mol
# Density = 1.649973 g / cm^3
# Si number density = 16.537368 Si / 1000 Ang^3
#
#
#
# Elastic Constant Matrix: (Units=GPa)
#
#
# Indices 1 2 3 4 5 6 
#
# 1 72.8142 41.0550 -4.8018 0.0000 0.0000 0.0000
# 2 41.0550 72.8160 -4.8017 0.0000 0.0000 0.0000
# 3 -4.8018 -4.8017 19.6632 0.0000 0.0000 0.0000
# 4 0.0000 0.0000 0.0000 11.9239 0.0000 0.0000
# 5 0.0000 0.0000 0.0000 0.0000 11.9238 0.0000
# 6 0.0000 0.0000 0.0000 0.0000 0.0000 12.9306
#
#
#
# Elastic Compliance Matrix: (Units=1/GPa)
#
#
# Indices 1 2 3 4 5 6 
#
# 1 0.020227 -0.011260 0.002190 0.000000 0.000000 0.000000
# 2 -0.011260 0.020226 0.002189 0.000000 0.000000 0.000000
# 3 0.002190 0.002189 0.051926 0.000000 0.000000 0.000000
# 4 0.000000 0.000000 0.000000 0.083865 0.000000 0.000000
# 5 0.000000 0.000000 0.000000 0.000000 0.083866 0.000000
# 6 0.000000 0.000000 0.000000 0.000000 0.000000 0.077336
#
#
# Mechanical properties :
#
#
# Convention : Reuss Voigt Hill
#
# Bulk Modulus (GPa) = 12.71979 25.35515 19.03747
# Shear Modulus (GPa) = 13.24812 16.27846 14.76329
#
# Velocity S-wave (km/s) = 2.83345 3.14083 2.99109
# Velocity P-wave (km/s) = 4.29101 5.34026 4.84413
#
# Compressibility (1/GPa) = 0.07861767
#
# Stress axis : x y z
#
# Youngs Moduli (GPa) = 49.43984 49.44112 19.25823
#
# Poissons Ratio (x) = 0.55669 -0.04217
# Poissons Ratio (y) = 0.55668 -0.04217
# Poissons Ratio (z) = -0.10826 -0.10825
#
# Static dielectric constant tensor:
#      x y z
#    x 1.554170 0.000000 0.000000 
#    y 0.000000 1.554170 0.000000 
#    z 0.000000 0.000000 1.542950 
# 
# From -- ./inp_files/5647.got.cif
#   From: 2010.05.17/outbox.cif.g08.bks.cpg/sg129_3_cif.got.tgz:5647.got - 2010.05.20 12:12:06.
