data_PCOD9565742
_publ_section_title
;
Structure prediction by ZEFSAII (Michael W. Deem and Ramdas Pophale) SiO2 
 PCOD9565742
Probable space group: P 4/N C C
;
_chemical_formula_sum "Si O2"
_cell_formula_units_Z 48
_cell_length_a 13.126843
_cell_length_b 13.126843
_cell_length_c 12.084807
_cell_angle_alpha 90.000000
_cell_angle_beta 90.000000
_cell_angle_gamma 90.000000
_cell_volume 2082.381520
_symmetry_space_group_name_H-M "P 4/N C C"
_symmetry_group_IT_number 130
_symmetry_cell_setting 'tetragonal'
loop_
_space_group_symop_operation_xyz
x,y,z
1/2-y,x,z
1/2-x,1/2-y,z
y,1/2-x,z
1/2+x,-y,1/2-z
-x,1/2+y,1/2-z
1/2+y,1/2+x,1/2-z
-y,-x,1/2-z
-x,-y,-z
1/2+y,-x,-z
1/2+x,1/2+y,-z
-y,1/2+x,-z
1/2-x,y,1/2+z
x,1/2-y,1/2+z
1/2-y,1/2-x,1/2+z
y,x,1/2+z
loop_
_atom_site_type_symbol
_atom_site_label
_atom_site_fract_x
_atom_site_fract_y
_atom_site_fract_z
Si Si1 0.407380 0.724179 0.170157
Si Si2 0.055339 0.890706 0.511494
Si Si3 0.291772 0.085174 0.661537
O O1 0.319699 0.680302 0.250000
O O2 0.395175 0.657769 0.059807
O O3 0.510442 0.695425 0.234864
O O4 0.415875 0.841243 0.129642
O O5 0.978012 0.814327 0.449028
O O6 0.000000 0.000000 0.500000
O O7 0.369318 0.178978 0.664519
#
# Coordination Sequence:
#
# PCOD9565742 Si02
#       3
#    16  16  16
#     4  10  23  42  64  93 129 172 220 278 345 416
#     4  11  22  41  66  95 131 174 225 279 344 416
#     4  10  21  39  65  97 131 171 222 279 341 409
#
# _framework density 23.050529999999998
#
# number of rings (size 3 to 8) (size 9 to 14) (size 15 to 20)
#    0.000    1.667    0.000    4.000    0.000    0.667 
#    0.000   25.000    0.000    0.000    0.000    0.000 
#    0.000    0.000    0.000    0.000    0.000    0.000 
#
# Total GULP energy -268486.850463 kJ/mol
# GULP energy per Si atom -5593.476051 kJ/mol
# Density = 2.299807 g / cm^3
# Si number density = 23.050530 Si / 1000 Ang^3
#
#
#
# Elastic Constant Matrix: (Units=GPa)
#
#
# Indices 1 2 3 4 5 6 
#
# 1 134.0401 84.5468 63.2126 0.0000 0.0000 0.0000
# 2 84.5468 134.0387 63.2126 0.0000 0.0000 0.0000
# 3 63.2126 63.2126 113.7381 0.0000 0.0000 0.0000
# 4 0.0000 0.0000 0.0000 28.1397 0.0000 0.0000
# 5 0.0000 0.0000 0.0000 0.0000 28.1392 0.0000
# 6 0.0000 0.0000 0.0000 0.0000 0.0000 22.2381
#
#
#
# Elastic Compliance Matrix: (Units=1/GPa)
#
#
# Indices 1 2 3 4 5 6 
#
# 1 0.013473 -0.006731 -0.003747 0.000000 0.000000 0.000000
# 2 -0.006731 0.013474 -0.003747 0.000000 0.000000 0.000000
# 3 -0.003747 -0.003747 0.012957 0.000000 0.000000 0.000000
# 4 0.000000 0.000000 0.000000 0.035537 0.000000 0.000000
# 5 0.000000 0.000000 0.000000 0.000000 0.035538 0.000000
# 6 0.000000 0.000000 0.000000 0.000000 0.000000 0.044968
#
#
# Mechanical properties :
#
#
# Convention : Reuss Voigt Hill
#
# Bulk Modulus (GPa) = 87.31296 89.30676 88.30986
# Shear Modulus (GPa) = 26.56527 27.09306 26.82917
#
# Velocity S-wave (km/s) = 3.39850 3.43210 3.41534
# Velocity P-wave (km/s) = 7.30486 7.38470 7.34488
#
# Compressibility (1/GPa) = 0.01145305
#
# Stress axis : x y z
#
# Youngs Moduli (GPa) = 74.22000 74.21898 77.17735
#
# Poissons Ratio (x) = 0.49960 0.28918
# Poissons Ratio (y) = 0.49961 0.28919
# Poissons Ratio (z) = 0.27810 0.27811
#
# Static dielectric constant tensor:
#      x y z
#    x 1.874860 0.000000 0.000000 
#    y 0.000000 1.874860 0.000000 
#    z 0.000000 0.000000 1.885080 
# 
# From -- ./inp_files/1273.got.cif
#   From: 2010.05.17/outbox.cif.g08.bks.cpg/sg130_1_cif.got.tgz:1273.got - 2010.05.20 12:17:35.
