data_PCOD9565222
_publ_section_title
;
Structure prediction by ZEFSAII (Michael W. Deem and Ramdas Pophale) SiO2 
 PCOD9565222
Probable space group: P 4/N M M
;
_chemical_formula_sum "Si O2"
_cell_formula_units_Z 80
_cell_length_a 12.760331
_cell_length_b 12.760331
_cell_length_c 29.948363
_cell_angle_alpha 90.000000
_cell_angle_beta 90.000000
_cell_angle_gamma 90.000000
_cell_volume 4876.373568
_symmetry_space_group_name_H-M "P 4/N M M"
_symmetry_group_IT_number 129
_symmetry_cell_setting 'tetragonal'
loop_
_space_group_symop_operation_xyz
x,y,z
1/2-y,x,z
1/2-x,1/2-y,z
y,1/2-x,z
1/2+x,-y,-z
-x,1/2+y,-z
1/2+y,1/2+x,-z
-y,-x,-z
-x,-y,-z
1/2+y,-x,-z
1/2+x,1/2+y,-z
-y,1/2+x,-z
1/2-x,y,z
x,1/2-y,z
1/2-y,1/2-x,z
y,x,z
loop_
_atom_site_type_symbol
_atom_site_label
_atom_site_fract_x
_atom_site_fract_y
_atom_site_fract_z
Si Si1 0.122615 0.750000 0.788219
Si Si2 0.122667 0.630109 0.451567
Si Si3 0.625546 0.462208 0.644076
Si Si4 0.250000 0.623199 0.109638
Si Si5 0.050629 0.875932 0.049009
Si Si6 0.455826 0.871772 0.266770
O O1 0.250000 0.750000 0.788277
O O2 0.085945 0.750000 0.839308
O O3 0.092148 0.644927 0.761911
O O4 0.088061 0.588061 0.500000
O O5 0.250000 0.631803 0.454122
O O6 0.086558 0.750000 0.447051
O O7 0.096660 0.571438 0.406143
O O8 0.750000 0.460184 0.648210
O O9 0.575481 0.575481 0.652770
O O10 0.576408 0.386704 0.681402
O O11 0.250000 0.750000 0.110386
O O12 0.356257 0.594337 0.083442
O O13 0.031581 0.750000 0.051806
O O14 0.095479 0.904522 0.000000
O O15 0.947119 0.947119 0.056373
O O16 0.476592 0.750000 0.257400
O O17 0.554614 0.945387 0.257492
#
# Coordination Sequence:
#
# PCOD9565222 Si02
#       6
#     8  16  16   8  16  16
#     4   9  18  34  54  77 103 135 175 214 249 301
#     4   8  14  25  42  64  89 116 151 200 253 304
#     4  10  19  30  46  68  93 127 167 208 256 306
#     4   9  18  32  54  77 103 139 177 216 253 299
#     4  10  19  32  52  78 108 142 180 221 265 313
#     4  10  20  34  54  78 104 134 170 214 262 310
#
# _framework density 16.405633999999999
#
# number of rings (size 3 to 8) (size 9 to 14) (size 15 to 20)
#    0.000    2.600    2.000    1.200    0.000    2.600 
#    0.000    0.000    0.000    0.600    0.000    7.000 
#    0.000    4.800    0.000    0.000    0.000    0.000 
#
# Total GULP energy -445420.376472 kJ/mol
# GULP energy per Si atom -5567.754706 kJ/mol
# Density = 1.636829 g / cm^3
# Si number density = 16.405634 Si / 1000 Ang^3
#
#
#
# Elastic Constant Matrix: (Units=GPa)
#
#
# Indices 1 2 3 4 5 6 
#
# 1 76.1540 74.3309 35.0844 0.0000 0.0000 0.0000
# 2 74.3309 76.1546 35.0843 0.0000 0.0000 0.0000
# 3 35.0844 35.0843 111.1710 0.0000 0.0000 0.0000
# 4 0.0000 0.0000 0.0000 8.9865 0.0000 0.0000
# 5 0.0000 0.0000 0.0000 0.0000 8.9868 0.0000
# 6 0.0000 0.0000 0.0000 0.0000 0.0000 16.3604
#
#
#
# Elastic Compliance Matrix: (Units=1/GPa)
#
#
# Indices 1 2 3 4 5 6 
#
# 1 0.278107 -0.270314 -0.002460 0.000000 0.000000 0.000000
# 2 -0.270314 0.278105 -0.002458 0.000000 0.000000 0.000000
# 3 -0.002460 -0.002458 0.010547 0.000000 0.000000 0.000000
# 4 0.000000 0.000000 0.000000 0.111278 0.000000 0.000000
# 5 0.000000 0.000000 0.000000 0.000000 0.111275 0.000000
# 6 0.000000 0.000000 0.000000 0.000000 0.000000 0.061123
#
#
# Mechanical properties :
#
#
# Convention : Reuss Voigt Hill
#
# Bulk Modulus (GPa) = 61.36944 61.38654 61.37799
# Shear Modulus (GPa) = 3.55535 14.79873 9.17704
#
# Velocity S-wave (km/s) = 1.47372 3.00668 2.36770
# Velocity P-wave (km/s) = 6.35488 7.03937 6.70586
#
# Compressibility (1/GPa) = 0.01629476
#
# Stress axis : x y z
#
# Youngs Moduli (GPa) = 3.59573 3.59577 94.81172
#
# Poissons Ratio (x) = 0.97199 0.23320
# Poissons Ratio (y) = 0.97198 0.23308
# Poissons Ratio (z) = 0.00884 0.00884
#
# Static dielectric constant tensor:
#      x y z
#    x 1.536570 0.000000 0.000000 
#    y 0.000000 1.536570 0.000000 
#    z 0.000000 0.000000 1.572030 
# 
# From -- ./inp_files/7719.got.cif
#   From: 2010.05.17/outbox.cif.g08.bks.cpg/sg129_4_cif.got.tgz:7719.got - 2010.05.20 12:12:06.
