data_PCOD9565845
_publ_section_title
;
Structure prediction by ZEFSAII (Michael W. Deem and Ramdas Pophale) SiO2 
 PCOD9565845
Probable space group: P 4/N C C
;
_chemical_formula_sum "Si O2"
_cell_formula_units_Z 112
_cell_length_a 14.549780
_cell_length_b 14.549780
_cell_length_c 28.509044
_cell_angle_alpha 90.000000
_cell_angle_beta 90.000000
_cell_angle_gamma 90.000000
_cell_volume 6035.253374
_symmetry_space_group_name_H-M "P 4/N C C"
_symmetry_group_IT_number 130
_symmetry_cell_setting 'tetragonal'
loop_
_space_group_symop_operation_xyz
x,y,z
1/2-y,x,z
1/2-x,1/2-y,z
y,1/2-x,z
1/2+x,-y,1/2-z
-x,1/2+y,1/2-z
1/2+y,1/2+x,1/2-z
-y,-x,1/2-z
-x,-y,-z
1/2+y,-x,-z
1/2+x,1/2+y,-z
-y,1/2+x,-z
1/2-x,y,1/2+z
x,1/2-y,1/2+z
1/2-y,1/2-x,1/2+z
y,x,1/2+z
loop_
_atom_site_type_symbol
_atom_site_label
_atom_site_fract_x
_atom_site_fract_y
_atom_site_fract_z
Si Si1 0.172023 0.826131 0.694816
Si Si2 0.370977 0.342006 0.265465
Si Si3 0.293274 0.101067 0.440064
Si Si4 0.775703 0.596564 0.453024
Si Si5 0.863957 0.991859 0.149779
Si Si6 0.256350 0.500020 0.140707
Si Si7 0.924484 0.559325 0.822669
O O1 0.250000 0.750000 0.692827
O O2 0.154846 0.845155 0.750000
O O3 0.072976 0.803378 0.672945
O O4 0.212462 0.908384 0.662776
O O5 0.267047 0.373982 0.255994
O O6 0.400605 0.355008 0.318982
O O7 0.439651 0.399066 0.232312
O O8 0.359408 0.190090 0.434007
O O9 0.292068 0.064936 0.493506
O O10 0.328507 0.028796 0.402035
O O11 0.851560 0.677492 0.447682
O O12 0.777604 0.516896 0.414100
O O13 0.968806 0.026937 0.156858
O O14 0.175575 0.427872 0.153366
O O15 0.351455 0.483367 0.166746
#
# Coordination Sequence:
#
# PCOD9565845 Si02
#       7
#    16  16  16  16  16  16  16
#     4  10  24  44  61  79 115 168 211 239 278 354
#     4  11  22  35  56  87 118 151 190 252 317 359
#     4   9  19  37  61  90 120 153 193 246 314 367
#     4   9  17  32  62  95 120 149 184 243 317 365
#     4  11  22  38  57  82 121 157 201 242 287 365
#     4  11  20  36  62  86 118 148 198 251 307 351
#     4  11  22  35  54  86 118 153 193 247 301 356
#
# _framework density 18.55763
#
# number of rings (size 3 to 8) (size 9 to 14) (size 15 to 20)
#    0.000    1.714    2.857    3.857    0.000    3.714 
#    2.571    0.714    6.286    0.000    0.000    0.000 
#    0.000    0.000    0.000    0.000    0.000    0.000 
#
# Total GULP energy -623998.553532 kJ/mol
# GULP energy per Si atom -5571.415657 kJ/mol
# Density = 1.851539 g / cm^3
# Si number density = 18.557630 Si / 1000 Ang^3
#
#
#
# Elastic Constant Matrix: (Units=GPa)
#
#
# Indices 1 2 3 4 5 6 
#
# 1 51.4802 29.1330 38.8521 0.0000 0.0000 0.0000
# 2 29.1330 51.4806 38.8522 0.0000 0.0000 0.0000
# 3 38.8521 38.8522 156.9260 0.0000 0.0000 0.0000
# 4 0.0000 0.0000 0.0000 24.7168 0.0000 0.0000
# 5 0.0000 0.0000 0.0000 0.0000 24.7167 0.0000
# 6 0.0000 0.0000 0.0000 0.0000 0.0000 23.1673
#
#
#
# Elastic Compliance Matrix: (Units=1/GPa)
#
#
# Indices 1 2 3 4 5 6 
#
# 1 0.030521 -0.014227 -0.004034 0.000000 0.000000 0.000000
# 2 -0.014227 0.030520 -0.004034 0.000000 0.000000 0.000000
# 3 -0.004034 -0.004034 0.008370 0.000000 0.000000 0.000000
# 4 0.000000 0.000000 0.000000 0.040458 0.000000 0.000000
# 5 0.000000 0.000000 0.000000 0.000000 0.040459 0.000000
# 6 0.000000 0.000000 0.000000 0.000000 0.000000 0.043164
#
#
# Mechanical properties :
#
#
# Convention : Reuss Voigt Hill
#
# Bulk Modulus (GPa) = 40.28898 52.61793 46.45345
# Shear Modulus (GPa) = 20.29585 24.72347 22.50966
#
# Velocity S-wave (km/s) = 3.31065 3.65396 3.48654
# Velocity P-wave (km/s) = 6.03085 6.79833 6.42606
#
# Compressibility (1/GPa) = 0.02482068
#
# Stress axis : x y z
#
# Youngs Moduli (GPa) = 32.76470 32.76497 119.47588
#
# Poissons Ratio (x) = 0.46616 0.48196
# Poissons Ratio (y) = 0.46615 0.48196
# Poissons Ratio (z) = 0.13217 0.13217
#
# Static dielectric constant tensor:
#      x y z
#    x 1.657020 0.000000 0.000000 
#    y 0.000000 1.657020 0.000000 
#    z 0.000000 0.000000 1.671050 
# 
# From -- ./inp_files/4630.got.cif
#   From: 2010.05.17/outbox.cif.g08.bks.cpg/sg130_3_cif.got.tgz:4630.got - 2010.05.20 12:17:35.
