data_PCOD9565457
_publ_section_title
;
Structure prediction by ZEFSAII (Michael W. Deem and Ramdas Pophale) SiO2 
 PCOD9565457
Probable space group: P 4/N M M
;
_chemical_formula_sum "Si O2"
_cell_formula_units_Z 112
_cell_length_a 18.456656
_cell_length_b 18.456656
_cell_length_c 19.412676
_cell_angle_alpha 90.000000
_cell_angle_beta 90.000000
_cell_angle_gamma 90.000000
_cell_volume 6612.892180
_symmetry_space_group_name_H-M "P 4/N M M"
_symmetry_group_IT_number 129
_symmetry_cell_setting 'tetragonal'
loop_
_space_group_symop_operation_xyz
x,y,z
1/2-y,x,z
1/2-x,1/2-y,z
y,1/2-x,z
1/2+x,-y,-z
-x,1/2+y,-z
1/2+y,1/2+x,-z
-y,-x,-z
-x,-y,-z
1/2+y,-x,-z
1/2+x,1/2+y,-z
-y,1/2+x,-z
1/2-x,y,z
x,1/2-y,z
1/2-y,1/2-x,z
y,x,z
loop_
_atom_site_type_symbol
_atom_site_label
_atom_site_fract_x
_atom_site_fract_y
_atom_site_fract_z
Si Si1 0.110458 0.664814 0.790182
Si Si2 0.545571 0.664323 0.000792
Si Si3 0.334313 0.586236 0.659875
Si Si4 0.334932 0.044130 0.561728
Si Si5 0.666858 0.952282 0.837494
Si Si6 0.665292 0.103349 0.067165
Si Si7 0.579359 0.333899 0.451587
O O1 0.128560 0.750000 0.777318
O O2 0.149818 0.610713 0.737410
O O3 0.132255 0.641343 0.866770
O O4 0.023381 0.657590 0.790928
O O5 0.557872 0.750000 0.012956
O O6 0.615588 0.615588 0.014766
O O7 0.477125 0.638622 0.045957
O O8 0.528294 0.656921 0.918924
O O9 0.250000 0.607174 0.643165
O O10 0.340176 0.504066 0.631668
O O11 0.398040 0.626334 0.617643
O O12 0.250000 0.062903 0.552732
O O13 0.387917 0.112084 0.563177
O O14 0.356215 0.989603 0.498488
O O15 0.750000 0.927172 0.830808
O O16 0.609850 0.890151 0.820593
O O17 0.750000 0.096045 0.079622
O O18 0.651151 0.151151 0.000000
O O19 0.647892 0.352109 0.500000
O O20 0.571374 0.250000 0.437890
#
# Coordination Sequence:
#
# PCOD9565457 Si02
#       7
#    16  16  16  16  16  16  16
#     4  11  22  35  50  73 105 140 178 219 261 310
#     4   9  18  33  52  73  96 122 158 208 262 318
#     4  10  21  34  50  76 108 142 179 217 256 302
#     4   9  19  36  57  82 110 139 174 215 256 304
#     4   9  18  33  51  72  97 124 161 209 260 316
#     4  11  21  33  49  71  98 133 175 216 263 319
#     4   9  17  29  48  75 104 135 169 203 244 294
#
# _framework density 16.936613999999999
#
# number of rings (size 3 to 8) (size 9 to 14) (size 15 to 20)
#    0.000    2.286    1.429    2.571    0.000    7.857 
#    0.000    1.429    0.000    0.000    0.000    0.000 
#    0.000    9.143    0.000    0.000    0.000    0.000 
#
# Total GULP energy -623482.882739 kJ/mol
# GULP energy per Si atom -5566.811453 kJ/mol
# Density = 1.689807 g / cm^3
# Si number density = 16.936614 Si / 1000 Ang^3
#
#
#
# Elastic Constant Matrix: (Units=GPa)
#
#
# Indices 1 2 3 4 5 6 
#
# 1 86.3500 50.5560 25.9547 0.0000 0.0000 0.0000
# 2 50.5560 86.3520 25.9546 0.0000 0.0000 0.0000
# 3 25.9547 25.9546 59.8847 0.0000 0.0000 0.0000
# 4 0.0000 0.0000 0.0000 17.2971 0.0000 0.0000
# 5 0.0000 0.0000 0.0000 0.0000 17.2971 0.0000
# 6 0.0000 0.0000 0.0000 0.0000 0.0000 -46.5191
#
#
#
# Elastic Compliance Matrix: (Units=1/GPa)
#
#
# Indices 1 2 3 4 5 6 
#
# 1 0.018339 -0.009598 -0.003788 0.000000 0.000000 0.000000
# 2 -0.009598 0.018338 -0.003788 0.000000 0.000000 0.000000
# 3 -0.003788 -0.003788 0.019983 0.000000 0.000000 0.000000
# 4 0.000000 0.000000 0.000000 0.057813 0.000000 0.000000
# 5 0.000000 0.000000 0.000000 0.000000 0.057813 0.000000
# 6 0.000000 0.000000 0.000000 0.000000 0.000000 -0.021497
#
#
# Mechanical properties :
#
#
# Convention : Reuss Voigt Hill
#
# Bulk Modulus (GPa) = 44.82171 48.61304 46.71737
# Shear Modulus (GPa) = 25.96380 6.28978 16.12679
#
# Velocity S-wave (km/s) = 3.91960 1.92919 3.08910
# Velocity P-wave (km/s) = 6.85611 5.80755 6.35349
#
# Compressibility (1/GPa) = 0.02231062
#
# Stress axis : x y z
#
# Youngs Moduli (GPa) = 54.52866 54.53017 50.04377
#
# Poissons Ratio (x) = 0.52339 0.18958
# Poissons Ratio (y) = 0.52337 0.18957
# Poissons Ratio (z) = 0.20658 0.20657
#
# Static dielectric constant tensor:
#      x y z
#    x 1.577890 0.000000 0.000000 
#    y 0.000000 1.577880 0.000000 
#    z 0.000000 0.000000 1.617230 
# 
# From -- ./inp_files/6696.got.cif
#   From: 2010.05.17/outbox.cif.g08.bks.cpg/sg129_4_cif.got.tgz:6696.got - 2010.05.20 12:12:06.
