data_PCOD9565236
_publ_section_title
;
Structure prediction by ZEFSAII (Michael W. Deem and Ramdas Pophale) SiO2 
 PCOD9565236
Probable space group: P 4/N M M
;
_chemical_formula_sum "Si O2"
_cell_formula_units_Z 128
_cell_length_a 17.958623
_cell_length_b 17.958623
_cell_length_c 27.602200
_cell_angle_alpha 90.000000
_cell_angle_beta 90.000000
_cell_angle_gamma 90.000000
_cell_volume 8902.044592
_symmetry_space_group_name_H-M "P 4/N M M"
_symmetry_group_IT_number 129
_symmetry_cell_setting 'tetragonal'
loop_
_space_group_symop_operation_xyz
x,y,z
1/2-y,x,z
1/2-x,1/2-y,z
y,1/2-x,z
1/2+x,-y,-z
-x,1/2+y,-z
1/2+y,1/2+x,-z
-y,-x,-z
-x,-y,-z
1/2+y,-x,-z
1/2+x,1/2+y,-z
-y,1/2+x,-z
1/2-x,y,z
x,1/2-y,z
1/2-y,1/2-x,z
y,x,z
loop_
_atom_site_type_symbol
_atom_site_label
_atom_site_fract_x
_atom_site_fract_y
_atom_site_fract_z
Si Si1 0.043507 0.337305 0.299162
Si Si2 0.956475 0.662804 0.301256
Si Si3 0.542122 0.336797 0.599418
Si Si4 0.340365 0.836370 0.051714
Si Si5 0.839464 0.340437 0.839280
Si Si6 0.338349 0.459217 0.499825
Si Si7 0.438130 0.939778 0.766849
Si Si8 0.460072 0.836955 0.600582
O O1 0.044658 0.250000 0.287684
O O2 0.122725 0.377276 0.293427
O O3 0.985528 0.382074 0.265658
O O4 0.016278 0.346358 0.354640
O O5 0.955049 0.750000 0.289520
O O6 0.877330 0.622671 0.295845
O O7 0.984267 0.654235 0.356625
O O8 0.014186 0.618162 0.267472
O O9 0.563790 0.250000 0.597676
O O10 0.505998 0.356796 0.547884
O O11 0.611796 0.389176 0.609087
O O12 0.250000 0.837109 0.049014
O O13 0.363560 0.750000 0.052823
O O14 0.357931 0.865040 0.105276
O O15 0.368130 0.868130 0.000000
O O16 0.750000 0.352189 0.831196
O O17 0.850941 0.250000 0.834722
O O18 0.891814 0.388830 0.804317
O O19 0.250000 0.446441 0.499875
O O20 0.383319 0.383319 0.501026
O O21 0.357332 0.502682 0.450549
O O22 0.498748 0.001253 0.786067
O O23 0.439270 0.750000 0.598424
#
# Coordination Sequence:
#
# PCOD9565236 Si02
#       8
#    16  16  16  16  16  16  16  16
#     4  10  20  33  49  67  88 115 146 181 220 262
#     4  10  20  33  49  67  88 115 146 181 220 262
#     4  10  20  34  50  69  91 113 141 174 212 262
#     4   7  10  18  34  58  87 116 144 176 217 259
#     4   9  16  26  43  67  92 115 145 188 225 256
#     4  10  21  34  50  70  88 110 139 174 216 262
#     4  10  19  31  46  62  88 121 150 181 219 263
#     4  10  20  34  50  69  91 113 141 174 212 262
#
# _framework density 14.378719
#
# number of rings (size 3 to 8) (size 9 to 14) (size 15 to 20)
#    0.000    2.500    1.250    3.000    0.000    2.625 
#    0.000    0.000    0.000    7.125    0.000    0.000 
#    0.000    0.000    0.000    0.000    0.000    0.000 
#
# Total GULP energy -712667.654578 kJ/mol
# GULP energy per Si atom -5567.716051 kJ/mol
# Density = 1.434599 g / cm^3
# Si number density = 14.378719 Si / 1000 Ang^3
#
#
#
# Elastic Constant Matrix: (Units=GPa)
#
#
# Indices 1 2 3 4 5 6 
#
# 1 72.5326 52.5045 35.2500 0.0000 0.0000 0.0000
# 2 52.5045 72.5326 35.2500 0.0000 0.0000 0.0000
# 3 35.2500 35.2500 87.3633 0.0000 0.0000 0.0000
# 4 0.0000 0.0000 0.0000 8.9921 0.0000 0.0000
# 5 0.0000 0.0000 0.0000 0.0000 8.9921 0.0000
# 6 0.0000 0.0000 0.0000 0.0000 0.0000 32.0592
#
#
#
# Elastic Compliance Matrix: (Units=1/GPa)
#
#
# Indices 1 2 3 4 5 6 
#
# 1 0.030141 -0.019788 -0.004177 0.000000 0.000000 0.000000
# 2 -0.019788 0.030141 -0.004177 0.000000 0.000000 0.000000
# 3 -0.004177 -0.004177 0.014817 0.000000 0.000000 0.000000
# 4 0.000000 0.000000 0.000000 0.111209 0.000000 0.000000
# 5 0.000000 0.000000 0.000000 0.000000 0.111209 0.000000
# 6 0.000000 0.000000 0.000000 0.000000 0.000000 0.031192
#
#
# Mechanical properties :
#
#
# Convention : Reuss Voigt Hill
#
# Bulk Modulus (GPa) = 53.15153 53.15975 53.15564
# Shear Modulus (GPa) = 12.77899 17.30361 15.04130
#
# Velocity S-wave (km/s) = 2.98441 3.47280 3.23783
# Velocity P-wave (km/s) = 6.99438 7.28916 7.14329
#
# Compressibility (1/GPa) = 0.01881413
#
# Stress axis : x y z
#
# Youngs Moduli (GPa) = 33.17698 33.17698 67.48818
#
# Poissons Ratio (x) = 0.65652 0.28192
# Poissons Ratio (y) = 0.65652 0.28192
# Poissons Ratio (z) = 0.13859 0.13859
#
# Static dielectric constant tensor:
#      x y z
#    x 1.456960 0.000000 0.000000 
#    y 0.000000 1.456960 0.000000 
#    z 0.000000 0.000000 1.493990 
# 
# From -- ./inp_files/7322.got.cif
#   From: 2010.05.17/outbox.cif.g08.bks.cpg/sg129_4_cif.got.tgz:7322.got - 2010.05.20 12:12:06.
