data_PCOD9565525
_publ_section_title
;
Structure prediction by ZEFSAII (Michael W. Deem and Ramdas Pophale) SiO2 
 PCOD9565525
Probable space group: P 4/N M M
;
_chemical_formula_sum "Si O2"
_cell_formula_units_Z 112
_cell_length_a 30.000000
_cell_length_b 30.000000
_cell_length_c 6.000000
_cell_angle_alpha 90.000000
_cell_angle_beta 90.000000
_cell_angle_gamma 90.000000
_cell_volume 5400.000000
_symmetry_space_group_name_H-M "P 4/N M M"
_symmetry_group_IT_number 129
_symmetry_cell_setting 'tetragonal'
loop_
_space_group_symop_operation_xyz
x,y,z
1/2-y,x,z
1/2-x,1/2-y,z
y,1/2-x,z
1/2+x,-y,-z
-x,1/2+y,-z
1/2+y,1/2+x,-z
-y,-x,-z
-x,-y,-z
1/2+y,-x,-z
1/2+x,1/2+y,-z
-y,1/2+x,-z
1/2-x,y,z
x,1/2-y,z
1/2-y,1/2-x,z
y,x,z
loop_
_atom_site_type_symbol
_atom_site_label
_atom_site_fract_x
_atom_site_fract_y
_atom_site_fract_z
Si Si1 0.799712 0.061113 0.200357
Si Si2 0.701551 0.362459 0.527421
Si Si3 0.931773 0.636015 0.238422
Si Si4 0.362430 0.918965 0.170765
Si Si5 0.006803 0.860851 0.531171
Si Si6 0.199042 0.452450 0.141467
Si Si7 0.698820 0.628175 0.550367
O O1 0.750000 0.042698 0.219483
O O2 0.797767 0.111411 0.293663
O O3 0.834954 0.037177 0.356784
O O4 0.820357 0.060223 0.958469
O O5 0.688623 0.311378 0.500000
O O6 0.750000 0.369715 0.631689
O O7 0.662048 0.383823 0.671573
O O8 0.901279 0.598722 0.127046
O O9 0.899611 0.669112 0.375622
O O10 0.967570 0.614033 0.404144
O O11 0.957071 0.666914 0.066215
O O12 0.385262 0.958793 0.307256
O O13 0.395076 0.895076 0.000000
O O14 0.981313 0.821776 0.662600
O O15 0.250000 0.463481 0.097671
O O16 0.197126 0.401179 0.224955
O O17 0.750000 0.630747 0.478123
O O18 0.675467 0.675467 0.581137
#
# Coordination Sequence:
#
# PCOD9565525 Si02
#       7
#    16  16  16  16  16  16  16
#     4  10  20  35  55  80 112 142 174 223 275 319
#     4  10  20  35  54  78 108 145 186 222 258 304
#     4  10  20  35  53  75 107 143 177 219 273 331
#     4  11  21  36  57  79 107 142 181 220 270 324
#     4  10  22  34  53  83 108 138 176 222 273 330
#     4  10  19  33  53  79 108 138 177 222 273 328
#     4   9  18  31  48  73 105 144 187 226 264 310
#
# _framework density 20.740741
#
# number of rings (size 3 to 8) (size 9 to 14) (size 15 to 20)
#    0.000    2.000    1.429    2.571    0.000    5.429 
#    0.000    0.000    0.000    0.429    0.000    6.000 
#    0.000    0.000    0.000    0.000    0.000    0.000 
#
# Total GULP energy -623802.779305 kJ/mol
# GULP energy per Si atom -5569.667672 kJ/mol
# Density = 2.069353 g / cm^3
# Si number density = 20.740741 Si / 1000 Ang^3
#
#
#
# Elastic Constant Matrix: (Units=GPa)
#
#
# Indices 1 2 3 4 5 6 
#
# 1 61.5683 -3.8841 8.5278 0.0000 0.0000 0.0000
# 2 -3.8841 61.5773 8.5301 0.0000 0.0000 0.0000
# 3 8.5278 8.5301 45.7503 0.0000 0.0000 0.0000
# 4 0.0000 0.0000 0.0000 20.5906 0.0000 0.0000
# 5 0.0000 0.0000 0.0000 0.0000 20.5901 0.0000
# 6 0.0000 0.0000 0.0000 0.0000 0.0000 5.0990
#
#
#
# Elastic Compliance Matrix: (Units=1/GPa)
#
#
# Indices 1 2 3 4 5 6 
#
# 1 0.016813 0.001534 -0.003420 0.000000 0.000000 0.000000
# 2 0.001534 0.016810 -0.003420 0.000000 0.000000 0.000000
# 3 -0.003420 -0.003420 0.023133 0.000000 0.000000 0.000000
# 4 0.000000 0.000000 0.000000 0.048566 0.000000 0.000000
# 5 0.000000 0.000000 0.000000 0.000000 0.048567 0.000000
# 6 0.000000 0.000000 0.000000 0.000000 0.000000 0.196117
#
#
# Mechanical properties :
#
#
# Convention : Reuss Voigt Hill
#
# Bulk Modulus (GPa) = 21.67127 21.69372 21.68249
# Shear Modulus (GPa) = 13.29792 19.63742 16.46767
#
# Velocity S-wave (km/s) = 2.53484 3.08036 2.82082
# Velocity P-wave (km/s) = 4.36332 4.80974 4.59196
#
# Compressibility (1/GPa) = 0.04614404
#
# Stress axis : x y z
#
# Youngs Moduli (GPa) = 59.47919 59.48725 43.22834
#
# Poissons Ratio (x) = -0.09127 0.14784
# Poissons Ratio (y) = -0.09126 0.14785
# Poissons Ratio (z) = 0.20341 0.20346
#
# Static dielectric constant tensor:
#      x y z
#    x 1.729660 0.000000 0.000000 
#    y 0.000000 1.729650 0.000000 
#    z 0.000000 0.000000 1.869580 
# 
# From -- ./inp_files/1165.got.cif
#   From: 2010.05.17/outbox.ucp.g08.bks.cvg/sg129_1_cif.got.tgz:1165.got - 2010.06.11 11:38:03.
