data_PCOD9565000
_publ_section_title
;
Structure prediction by ZEFSAII (Michael W. Deem and Ramdas Pophale) SiO2 
 PCOD9565000
Probable space group: P 4/M N C
;
_chemical_formula_sum "Si O2"
_cell_formula_units_Z 112
_cell_length_a 14.209715
_cell_length_b 14.209715
_cell_length_c 29.211190
_cell_angle_alpha 90.000000
_cell_angle_beta 90.000000
_cell_angle_gamma 90.000000
_cell_volume 5898.206651
_symmetry_space_group_name_H-M "P 4/M N C"
_symmetry_group_IT_number 128
_symmetry_cell_setting 'tetragonal'
loop_
_space_group_symop_operation_xyz
x,y,z
-y,x,z
-x,-y,z
y,-x,z
1/2+x,1/2-y,1/2-z
1/2-x,1/2+y,1/2-z
1/2+y,1/2+x,1/2-z
1/2-y,1/2-x,1/2-z
-x,-y,-z
y,-x,-z
x,y,-z
-y,x,-z
1/2-x,1/2+y,1/2+z
1/2+x,1/2-y,1/2+z
1/2-y,1/2-x,1/2+z
1/2+y,1/2+x,1/2+z
loop_
_atom_site_type_symbol
_atom_site_label
_atom_site_fract_x
_atom_site_fract_y
_atom_site_fract_z
Si Si1 0.367168 0.591581 0.000000
Si Si2 0.552473 0.648664 0.823438
Si Si3 0.261654 0.416548 0.408635
Si Si4 0.941231 0.596310 0.553057
Si Si5 0.900142 0.264064 0.586477
Si Si6 0.867802 0.086463 0.000000
Si Si7 0.382530 0.266855 0.630305
Si Si8 0.651720 0.446551 0.279541
O O1 0.373609 0.476146 0.000000
O O2 0.309484 0.624388 0.045435
O O3 0.444965 0.615194 0.826305
O O4 0.575301 0.710785 0.866906
O O5 0.566541 0.688161 0.772325
O O6 0.150754 0.411013 0.415873
O O7 0.311398 0.384817 0.455328
O O8 0.292838 0.521974 0.396579
O O9 0.301931 0.345444 0.371750
O O10 0.912577 0.608622 0.500000
O O11 0.000000 0.500000 0.556004
O O12 0.010260 0.679102 0.567915
O O13 0.821153 0.338288 0.603181
O O14 0.973098 0.125096 0.000000
O O15 0.417164 0.270793 0.682959
O O16 0.614992 0.554901 0.284628
#
# Coordination Sequence:
#
# PCOD9565000 Si02
#       8
#     8  16  16  16  16   8  16  16
#     4  11  26  45  66  93 127 164 214 283 337 373
#     4   9  20  40  66  94 123 160 207 271 332 381
#     4  12  24  39  60  90 126 166 214 260 308 378
#     4  11  24  43  61  83 127 177 213 250 309 384
#     4  12  25  40  64  95 126 166 220 261 320 390
#     4  11  22  35  54  85 127 159 192 261 318 352
#     4  12  25  37  63  95 123 167 217 260 314 380
#     4   9  18  38  66  92 125 163 205 260 331 387
#
# _framework density 18.988824000000001
#
# number of rings (size 3 to 8) (size 9 to 14) (size 15 to 20)
#    0.000    1.143    5.714    1.714    4.000    3.143 
#    0.000    0.000    0.000    0.857    0.000    0.000 
#    0.000    0.000    0.000    0.000    0.000    0.000 
#
# Total GULP energy -624909.009228 kJ/mol
# GULP energy per Si atom -5579.544725 kJ/mol
# Density = 1.894560 g / cm^3
# Si number density = 18.988824 Si / 1000 Ang^3
#
#
#
# Elastic Constant Matrix: (Units=GPa)
#
#
# Indices 1 2 3 4 5 6 
#
# 1 55.0247 -4.3920 11.8491 0.0000 0.0000 0.0000
# 2 -4.3920 55.0247 11.8491 0.0000 0.0000 0.0000
# 3 11.8491 11.8491 106.3482 0.0000 0.0000 0.0000
# 4 0.0000 0.0000 0.0000 18.7474 0.0000 0.0000
# 5 0.0000 0.0000 0.0000 0.0000 18.7474 0.0000
# 6 0.0000 0.0000 0.0000 0.0000 0.0000 28.1656
#
#
#
# Elastic Compliance Matrix: (Units=1/GPa)
#
#
# Indices 1 2 3 4 5 6 
#
# 1 0.018833 0.002003 -0.002322 0.000000 0.000000 0.000000
# 2 0.002003 0.018833 -0.002322 0.000000 0.000000 0.000000
# 3 -0.002322 -0.002322 0.009920 0.000000 0.000000 0.000000
# 4 0.000000 0.000000 0.000000 0.053341 0.000000 0.000000
# 5 0.000000 0.000000 0.000000 0.000000 0.053341 0.000000
# 6 0.000000 0.000000 0.000000 0.000000 0.000000 0.035504
#
#
# Mechanical properties :
#
#
# Convention : Reuss Voigt Hill
#
# Bulk Modulus (GPa) = 23.63653 28.33447 25.98550
# Shear Modulus (GPa) = 23.90563 26.27150 25.08857
#
# Velocity S-wave (km/s) = 3.55199 3.72361 3.63881
# Velocity P-wave (km/s) = 5.41265 5.78283 5.60080
#
# Compressibility (1/GPa) = 0.04230740
#
# Stress axis : x y z
#
# Youngs Moduli (GPa) = 53.09696 53.09696 100.80234
#
# Poissons Ratio (x) = -0.10636 0.23402
# Poissons Ratio (y) = -0.10636 0.23402
# Poissons Ratio (z) = 0.12327 0.12327
#
# Static dielectric constant tensor:
#      x y z
#    x 1.666990 0.000000 0.000000 
#    y 0.000000 1.666990 0.000000 
#    z 0.000000 0.000000 1.677240 
# 
# From -- ./inp_files/6929.got.cif
#   From: 2010.05.17/outbox.cif.g08.bks.cpg/sg128_4_cif.got.tgz:6929.got - 2010.05.20 12:07:25.
