data_PCOD9565024
_publ_section_title
;
Structure prediction by ZEFSAII (Michael W. Deem and Ramdas Pophale) SiO2 
 PCOD9565024
Probable space group: P 4/M N C
;
_chemical_formula_sum "Si O2"
_cell_formula_units_Z 72
_cell_length_a 15.542208
_cell_length_b 15.542208
_cell_length_c 15.419557
_cell_angle_alpha 90.000000
_cell_angle_beta 90.000000
_cell_angle_gamma 90.000000
_cell_volume 3724.751728
_symmetry_space_group_name_H-M "P 4/M N C"
_symmetry_group_IT_number 128
_symmetry_cell_setting 'tetragonal'
loop_
_space_group_symop_operation_xyz
x,y,z
-y,x,z
-x,-y,z
y,-x,z
1/2+x,1/2-y,1/2-z
1/2-x,1/2+y,1/2-z
1/2+y,1/2+x,1/2-z
1/2-y,1/2-x,1/2-z
-x,-y,-z
y,-x,-z
x,y,-z
-y,x,-z
1/2-x,1/2+y,1/2+z
1/2+x,1/2-y,1/2+z
1/2-y,1/2-x,1/2+z
1/2+y,1/2+x,1/2+z
loop_
_atom_site_type_symbol
_atom_site_label
_atom_site_fract_x
_atom_site_fract_y
_atom_site_fract_z
Si Si1 0.254014 0.959627 0.329585
Si Si2 0.437788 0.081064 0.897103
Si Si3 0.417667 0.254262 0.671535
Si Si4 0.638173 0.457916 0.500000
Si Si5 0.468102 0.639450 0.000000
Si Si6 0.228228 0.271773 0.250000
O O1 0.192682 0.957546 0.412392
O O2 0.271235 0.861319 0.302307
O O3 0.338553 0.010196 0.360220
O O4 0.220023 0.017062 0.248963
O O5 0.347116 0.070796 0.848767
O O6 0.500000 0.000000 0.885887
O O7 0.421065 0.092734 0.000000
O O8 0.440518 0.306323 0.585440
O O9 0.317960 0.269912 0.696706
O O10 0.603641 0.555191 0.500000
O O11 0.400431 0.562678 0.000000
#
# Coordination Sequence:
#
# PCOD9565024 Si02
#       6
#    16  16  16   8   8   8
#     4  12  24  44  69 101 139 173 236 285 347 419
#     4  11  23  42  69  99 140 181 224 290 359 415
#     4  12  24  46  70 101 142 182 233 291 354 422
#     4  11  26  46  69 100 140 188 235 289 345 420
#     4  11  26  44  67  94 134 184 228 280 338 401
#     4  12  26  40  72 106 132 190 230 284 360 416
#
# _framework density 19.330145999999999
#
# number of rings (size 3 to 8) (size 9 to 14) (size 15 to 20)
#    0.000    0.444    4.444    4.000    0.000    1.778 
#    0.000    2.222    0.000    0.000    0.000    0.000 
#    0.000    0.000    0.000    0.000    0.000    0.000 
#
# Total GULP energy -402781.070573 kJ/mol
# GULP energy per Si atom -5594.181536 kJ/mol
# Density = 1.928615 g / cm^3
# Si number density = 19.330146 Si / 1000 Ang^3
#
#
#
# Elastic Constant Matrix: (Units=GPa)
#
#
# Indices 1 2 3 4 5 6 
#
# 1 105.4052 84.5998 92.5046 0.0000 0.0000 0.0000
# 2 84.5998 105.4030 92.5046 0.0000 0.0000 0.0000
# 3 92.5046 92.5046 165.9945 0.0000 0.0000 0.0000
# 4 0.0000 0.0000 0.0000 49.6776 0.0000 0.0000
# 5 0.0000 0.0000 0.0000 0.0000 49.6763 0.0000
# 6 0.0000 0.0000 0.0000 0.0000 0.0000 42.2606
#
#
#
# Elastic Compliance Matrix: (Units=1/GPa)
#
#
# Indices 1 2 3 4 5 6 
#
# 1 0.029786 -0.018280 -0.006412 0.000000 0.000000 0.000000
# 2 -0.018280 0.029788 -0.006413 0.000000 0.000000 0.000000
# 3 -0.006412 -0.006413 0.013171 0.000000 0.000000 0.000000
# 4 0.000000 0.000000 0.000000 0.020130 0.000000 0.000000
# 5 0.000000 0.000000 0.000000 0.000000 0.020130 0.000000
# 6 0.000000 0.000000 0.000000 0.000000 0.000000 0.023663
#
#
# Mechanical properties :
#
#
# Convention : Reuss Voigt Hill
#
# Bulk Modulus (GPa) = 94.91986 101.78009 98.34997
# Shear Modulus (GPa) = 24.70472 35.46916 30.08694
#
# Velocity S-wave (km/s) = 3.57885 4.28824 3.94950
# Velocity P-wave (km/s) = 8.14179 8.79127 8.47276
#
# Compressibility (1/GPa) = 0.01053520
#
# Stress axis : x y z
#
# Youngs Moduli (GPa) = 33.57234 33.57095 75.92153
#
# Poissons Ratio (x) = 0.61367 0.48683
# Poissons Ratio (y) = 0.61370 0.48688
# Poissons Ratio (z) = 0.21528 0.21529
#
# Static dielectric constant tensor:
#      x y z
#    x 1.647150 0.000000 0.000000 
#    y 0.000000 1.647150 0.000000 
#    z 0.000000 0.000000 1.678100 
# 
# From -- ./inp_files/4614.got.cif
#   From: 2010.05.17/outbox.cif.g08.bks.cpg/sg128_3_cif.got.tgz:4614.got - 2010.05.20 12:07:25.
