data_PCOD9565500
_publ_section_title
;
Structure prediction by ZEFSAII (Michael W. Deem and Ramdas Pophale) SiO2 
 PCOD9565500
Probable space group: P 4/N M M
;
_chemical_formula_sum "Si O2"
_cell_formula_units_Z 80
_cell_length_a 29.326225
_cell_length_b 29.326225
_cell_length_c 4.830466
_cell_angle_alpha 90.000000
_cell_angle_beta 90.000000
_cell_angle_gamma 90.000000
_cell_volume 4154.333466
_symmetry_space_group_name_H-M "P 4/N M M"
_symmetry_group_IT_number 129
_symmetry_cell_setting 'tetragonal'
loop_
_space_group_symop_operation_xyz
x,y,z
1/2-y,x,z
1/2-x,1/2-y,z
y,1/2-x,z
1/2+x,-y,-z
-x,1/2+y,-z
1/2+y,1/2+x,-z
-y,-x,-z
-x,-y,-z
1/2+y,-x,-z
1/2+x,1/2+y,-z
-y,1/2+x,-z
1/2-x,y,z
x,1/2-y,z
1/2-y,1/2-x,z
y,x,z
loop_
_atom_site_type_symbol
_atom_site_label
_atom_site_fract_x
_atom_site_fract_y
_atom_site_fract_z
Si Si1 0.454422 0.301655 0.913197
Si Si2 0.860625 0.932861 0.593281
Si Si3 0.697794 0.442972 0.850836
Si Si4 0.000693 0.568530 0.342037
Si Si5 0.638920 0.426416 0.323377
O O1 0.437698 0.250000 0.953260
O O2 0.431719 0.340438 0.101464
O O3 0.507338 0.301909 0.004204
O O4 0.446063 0.318675 0.603670
O O5 0.885829 0.885829 0.522264
O O6 0.899205 0.971548 0.546451
O O7 0.750000 0.428319 0.815849
O O8 0.672872 0.446116 0.556943
O O9 0.669137 0.411663 0.062838
O O10 0.033695 0.533695 0.500000
O O11 0.035514 0.603724 0.201422
O O12 0.963122 0.536879 0.186885
O O13 0.609822 0.390179 0.500000
#
# Coordination Sequence:
#
# PCOD9565500 Si02
#       5
#    16  16  16  16  16
#     4  11  21  36  54  76 106 142 179 215 270 317
#     4  11  21  36  54  78 107 139 185 223 257 303
#     4  11  21  36  54  76 106 142 179 215 270 317
#     4   9  18  32  49  70 104 148 187 220 252 291
#     4  11  21  36  54  78 107 139 185 223 257 303
#
# _framework density 19.257000999999999
#
# number of rings (size 3 to 8) (size 9 to 14) (size 15 to 20)
#    0.000    1.400    4.000    2.400    0.000    3.200 
#    0.000    2.000    0.000    9.600    0.000    0.000 
#    0.000   56.000    0.000    0.000    0.000    0.000 
#
# Total GULP energy -446506.176694 kJ/mol
# GULP energy per Si atom -5581.327209 kJ/mol
# Density = 1.921317 g / cm^3
# Si number density = 19.257001 Si / 1000 Ang^3
#
#
#
# Elastic Constant Matrix: (Units=GPa)
#
#
# Indices 1 2 3 4 5 6 
#
# 1 80.3999 32.9609 6.0099 0.0000 0.0000 0.0000
# 2 32.9609 80.3992 6.0097 0.0000 0.0000 0.0000
# 3 6.0099 6.0097 57.1433 0.0000 0.0000 0.0000
# 4 0.0000 0.0000 0.0000 17.9413 0.0000 0.0000
# 5 0.0000 0.0000 0.0000 0.0000 17.9408 0.0000
# 6 0.0000 0.0000 0.0000 0.0000 0.0000 10.7378
#
#
#
# Elastic Compliance Matrix: (Units=1/GPa)
#
#
# Indices 1 2 3 4 5 6 
#
# 1 0.015000 -0.006079 -0.000938 0.000000 0.000000 0.000000
# 2 -0.006079 0.015000 -0.000938 0.000000 0.000000 0.000000
# 3 -0.000938 -0.000938 0.017697 0.000000 0.000000 0.000000
# 4 0.000000 0.000000 0.000000 0.055737 0.000000 0.000000
# 5 0.000000 0.000000 0.000000 0.000000 0.055739 0.000000
# 6 0.000000 0.000000 0.000000 0.000000 0.000000 0.093129
#
#
# Mechanical properties :
#
#
# Convention : Reuss Voigt Hill
#
# Bulk Modulus (GPa) = 31.46028 34.21151 32.83590
# Shear Modulus (GPa) = 17.93333 20.85476 19.39405
#
# Velocity S-wave (km/s) = 3.05497 3.29442 3.17695
# Velocity P-wave (km/s) = 5.36808 5.68113 5.52683
#
# Compressibility (1/GPa) = 0.03178611
#
# Stress axis : x y z
#
# Youngs Moduli (GPa) = 66.66520 66.66464 56.50612
#
# Poissons Ratio (x) = 0.40529 0.05302
# Poissons Ratio (y) = 0.40529 0.05301
# Poissons Ratio (z) = 0.06255 0.06254
#
# Static dielectric constant tensor:
#      x y z
#    x 1.699480 0.000000 0.000000 
#    y 0.000000 1.699490 0.000000 
#    z 0.000000 0.000000 1.693650 
# 
# From -- ./inp_files/963.got.cif
#   From: 2010.05.17/outbox.cif.g08.bks.cpg/sg129_1_cif.got.tgz:963.got - 2010.05.20 12:12:06.
