data_PCOD9565618
_publ_section_title
;
Structure prediction by ZEFSAII (Michael W. Deem and Ramdas Pophale) SiO2 
 PCOD9565618
Probable space group: P 4/N C C
;
_chemical_formula_sum "Si O2"
_cell_formula_units_Z 84
_cell_length_a 10.244204
_cell_length_b 10.244204
_cell_length_c 31.850745
_cell_angle_alpha 90.000000
_cell_angle_beta 90.000000
_cell_angle_gamma 90.000000
_cell_volume 3342.535525
_symmetry_space_group_name_H-M "P 4/N C C"
_symmetry_group_IT_number 130
_symmetry_cell_setting 'tetragonal'
loop_
_space_group_symop_operation_xyz
x,y,z
1/2-y,x,z
1/2-x,1/2-y,z
y,1/2-x,z
1/2+x,-y,1/2-z
-x,1/2+y,1/2-z
1/2+y,1/2+x,1/2-z
-y,-x,1/2-z
-x,-y,-z
1/2+y,-x,-z
1/2+x,1/2+y,-z
-y,1/2+x,-z
1/2-x,y,1/2+z
x,1/2-y,1/2+z
1/2-y,1/2-x,1/2+z
y,x,1/2+z
loop_
_atom_site_type_symbol
_atom_site_label
_atom_site_fract_x
_atom_site_fract_y
_atom_site_fract_z
Si Si1 0.032265 0.239517 0.761712
Si Si2 0.250000 0.750000 0.500000
Si Si3 0.891314 0.584569 0.124079
Si Si4 0.572833 0.067832 0.038593
Si Si5 0.602616 0.145605 0.179932
Si Si6 0.732861 0.534050 0.894469
O O1 0.132083 0.117892 0.767665
O O2 0.907689 0.224948 0.792712
O O3 0.984579 0.218689 0.714131
O O4 0.215320 0.879085 0.473818
O O5 0.926717 0.734562 0.128653
O O6 0.922958 0.530352 0.077926
O O7 0.946872 0.491706 0.160192
O O8 0.508820 0.200441 0.058114
O O9 0.500000 0.000000 0.000000
O O10 0.590194 0.228135 0.136868
O O11 0.861129 0.617318 0.887289
#
# Coordination Sequence:
#
# PCOD9565618 Si02
#       6
#    16   4  16  16  16  16
#     4  10  20  36  58  82 112 152 196 243 302 371
#     4  12  24  40  64  96 128 162 208 260 316 368
#     4  10  21  38  60  84 113 154 201 246 299 365
#     4  11  23  40  61  88 124 160 200 251 310 371
#     4  10  20  33  57  85 111 144 193 250 299 355
#     4  10  21  38  60  84 113 154 201 246 299 365
#
# _framework density 25.130624999999998
#
# number of rings (size 3 to 8) (size 9 to 14) (size 15 to 20)
#    0.000    1.714    0.000    4.571    0.000    4.571 
#    0.000    1.905    0.000   45.714    0.000    0.000 
#    0.000    0.000    0.000    0.000    0.000    0.000 
#
# Total GULP energy -468798.844767 kJ/mol
# GULP energy per Si atom -5580.938628 kJ/mol
# Density = 2.507343 g / cm^3
# Si number density = 25.130625 Si / 1000 Ang^3
#
#
#
# Elastic Constant Matrix: (Units=GPa)
#
#
# Indices 1 2 3 4 5 6 
#
# 1 60.8027 38.6042 27.0648 0.0000 0.0000 0.0000
# 2 38.6042 60.8027 27.0648 0.0000 0.0000 0.0000
# 3 27.0648 27.0648 155.8899 0.0000 0.0000 0.0000
# 4 0.0000 0.0000 0.0000 37.1516 0.0000 0.0000
# 5 0.0000 0.0000 0.0000 0.0000 37.1516 0.0000
# 6 0.0000 0.0000 0.0000 0.0000 0.0000 29.0972
#
#
#
# Elastic Compliance Matrix: (Units=1/GPa)
#
#
# Indices 1 2 3 4 5 6 
#
# 1 0.028079 -0.016969 -0.001929 0.000000 0.000000 0.000000
# 2 -0.016969 0.028079 -0.001929 0.000000 0.000000 0.000000
# 3 -0.001929 -0.001929 0.007085 0.000000 0.000000 0.000000
# 4 0.000000 0.000000 0.000000 0.026917 0.000000 0.000000
# 5 0.000000 0.000000 0.000000 0.000000 0.026917 0.000000
# 6 0.000000 0.000000 0.000000 0.000000 0.000000 0.034368
#
#
# Mechanical properties :
#
#
# Convention : Reuss Voigt Hill
#
# Bulk Modulus (GPa) = 46.31972 51.44030 48.88001
# Shear Modulus (GPa) = 24.96333 32.99750 28.98042
#
# Velocity S-wave (km/s) = 3.15515 3.62752 3.39955
# Velocity P-wave (km/s) = 5.63426 6.16918 5.90778
#
# Compressibility (1/GPa) = 0.02158907
#
# Stress axis : x y z
#
# Youngs Moduli (GPa) = 35.61370 35.61370 141.15247
#
# Poissons Ratio (x) = 0.60433 0.27226
# Poissons Ratio (y) = 0.60433 0.27226
# Poissons Ratio (z) = 0.06869 0.06869
#
# Static dielectric constant tensor:
#      x y z
#    x 2.016950 0.000000 0.000000 
#    y 0.000000 2.016950 0.000000 
#    z 0.000000 0.000000 2.043890 
# 
# From -- ./inp_files/4883.got.cif
#   From: 2010.05.17/outbox.cif.g08.bks.cpg/sg130_3_cif.got.tgz:4883.got - 2010.05.20 12:17:35.
