data_PCOD9565160
_publ_section_title
;
Structure prediction by ZEFSAII (Michael W. Deem and Ramdas Pophale) SiO2 
 PCOD9565160
Probable space group: P 4/N M M
;
_chemical_formula_sum "Si O2"
_cell_formula_units_Z 96
_cell_length_a 18.971300
_cell_length_b 18.971300
_cell_length_c 15.976403
_cell_angle_alpha 90.000000
_cell_angle_beta 90.000000
_cell_angle_gamma 90.000000
_cell_volume 5750.070777
_symmetry_space_group_name_H-M "P 4/N M M"
_symmetry_group_IT_number 129
_symmetry_cell_setting 'tetragonal'
loop_
_space_group_symop_operation_xyz
x,y,z
1/2-y,x,z
1/2-x,1/2-y,z
y,1/2-x,z
1/2+x,-y,-z
-x,1/2+y,-z
1/2+y,1/2+x,-z
-y,-x,-z
-x,-y,-z
1/2+y,-x,-z
1/2+x,1/2+y,-z
-y,1/2+x,-z
1/2-x,y,z
x,1/2-y,z
1/2-y,1/2-x,z
y,x,z
loop_
_atom_site_type_symbol
_atom_site_label
_atom_site_fract_x
_atom_site_fract_y
_atom_site_fract_z
Si Si1 0.166423 0.750000 0.116509
Si Si2 0.750000 0.165354 0.312063
Si Si3 0.617794 0.075982 0.087699
Si Si4 0.485034 0.827641 0.835241
Si Si5 0.391210 0.664719 0.586100
Si Si6 0.056555 0.172588 0.981079
Si Si7 0.450490 0.167219 0.341843
O O1 0.250000 0.750000 0.106080
O O2 0.147127 0.750000 0.214663
O O3 0.130399 0.818445 0.078831
O O4 0.750000 0.250000 0.316773
O O5 0.675631 0.144100 0.354793
O O6 0.569082 0.107707 0.159747
O O7 0.575503 0.075503 0.000000
O O8 0.651011 0.999420 0.090064
O O9 0.449428 0.750000 0.823049
O O10 0.519951 0.825735 0.926933
O O11 0.538317 0.835802 0.758901
O O12 0.375955 0.624045 0.500000
O O13 0.386099 0.750000 0.572865
O O14 0.470391 0.652000 0.621606
O O15 0.083684 0.250000 0.964032
O O16 0.116563 0.116563 0.984605
O O17 0.433596 0.250000 0.362436
O O18 0.389867 0.110134 0.365378
#
# Coordination Sequence:
#
# PCOD9565160 Si02
#       7
#     8   8  16  16  16  16  16
#     4  11  20  28  44  68 101 137 167 202 238 294
#     4   9  18  30  48  76 102 135 169 202 245 298
#     4  10  20  30  45  67  98 131 166 204 252 305
#     4   9  18  33  50  71 100 131 165 207 250 307
#     4  10  18  31  53  77 104 135 167 203 245 301
#     4  10  20  34  49  67  91 125 174 221 261 301
#     4  10  21  35  52  76 105 137 173 210 251 297
#
# _framework density 16.695447000000001
#
# number of rings (size 3 to 8) (size 9 to 14) (size 15 to 20)
#    0.000    2.167    1.667    2.000    2.333    7.000 
#    0.000    0.000    0.000    3.000    0.000    0.000 
#    0.000    0.000    0.000    1.500    0.000    0.000 
#
# Total GULP energy -534422.678492 kJ/mol
# GULP energy per Si atom -5566.902901 kJ/mol
# Density = 1.665745 g / cm^3
# Si number density = 16.695447 Si / 1000 Ang^3
#
#
#
# Elastic Constant Matrix: (Units=GPa)
#
#
# Indices 1 2 3 4 5 6 
#
# 1 67.2588 51.8700 25.7413 0.0000 0.0000 0.0000
# 2 51.8700 67.2588 25.7413 0.0000 0.0000 0.0000
# 3 25.7413 25.7413 46.3997 0.0000 0.0000 0.0000
# 4 0.0000 0.0000 0.0000 11.7923 0.0000 0.0000
# 5 0.0000 0.0000 0.0000 0.0000 11.7923 0.0000
# 6 0.0000 0.0000 0.0000 0.0000 0.0000 28.8885
#
#
#
# Elastic Compliance Matrix: (Units=1/GPa)
#
#
# Indices 1 2 3 4 5 6 
#
# 1 0.038012 -0.026971 -0.006125 0.000000 0.000000 0.000000
# 2 -0.026971 0.038012 -0.006125 0.000000 0.000000 0.000000
# 3 -0.006125 -0.006125 0.028348 0.000000 0.000000 0.000000
# 4 0.000000 0.000000 0.000000 0.084801 0.000000 0.000000
# 5 0.000000 0.000000 0.000000 0.000000 0.084801 0.000000
# 6 0.000000 0.000000 0.000000 0.000000 0.000000 0.034616
#
#
# Mechanical properties :
#
#
# Convention : Reuss Voigt Hill
#
# Bulk Modulus (GPa) = 38.56641 43.06916 40.81779
# Shear Modulus (GPa) = 12.63660 15.66562 14.15111
#
# Velocity S-wave (km/s) = 2.75415 3.06652 2.91452
# Velocity P-wave (km/s) = 5.76748 6.19605 5.98560
#
# Compressibility (1/GPa) = 0.02592930
#
# Stress axis : x y z
#
# Youngs Moduli (GPa) = 26.30747 26.30747 35.27542
#
# Poissons Ratio (x) = 0.70953 0.21608
# Poissons Ratio (y) = 0.70953 0.21608
# Poissons Ratio (z) = 0.16115 0.16115
#
# Static dielectric constant tensor:
#      x y z
#    x 1.578780 0.000000 0.000000 
#    y 0.000000 1.578780 0.000000 
#    z 0.000000 0.000000 1.748430 
# 
# From -- ./inp_files/5731.got.cif
#   From: 2010.05.17/outbox.cif.g08.bks.cpg/sg129_3_cif.got.tgz:5731.got - 2010.05.20 12:12:06.
