data_PCOD9565154
_publ_section_title
;
Structure prediction by ZEFSAII (Michael W. Deem and Ramdas Pophale) SiO2 
 PCOD9565154
Probable space group: P 4/N M M
;
_chemical_formula_sum "Si O2"
_cell_formula_units_Z 128
_cell_length_a 21.621107
_cell_length_b 21.621107
_cell_length_c 17.626679
_cell_angle_alpha 90.000000
_cell_angle_beta 90.000000
_cell_angle_gamma 90.000000
_cell_volume 8239.983608
_symmetry_space_group_name_H-M "P 4/N M M"
_symmetry_group_IT_number 129
_symmetry_cell_setting 'tetragonal'
loop_
_space_group_symop_operation_xyz
x,y,z
1/2-y,x,z
1/2-x,1/2-y,z
y,1/2-x,z
1/2+x,-y,-z
-x,1/2+y,-z
1/2+y,1/2+x,-z
-y,-x,-z
-x,-y,-z
1/2+y,-x,-z
1/2+x,1/2+y,-z
-y,1/2+x,-z
1/2-x,y,z
x,1/2-y,z
1/2-y,1/2-x,z
y,x,z
loop_
_atom_site_type_symbol
_atom_site_label
_atom_site_fract_x
_atom_site_fract_y
_atom_site_fract_z
Si Si1 0.151412 0.819231 0.912192
Si Si2 0.822282 0.572629 0.571877
Si Si3 0.007386 0.598506 0.462561
Si Si4 0.181120 0.503541 0.111529
Si Si5 0.917925 0.021872 0.289980
Si Si6 0.099424 0.002027 0.976817
Si Si7 0.874821 0.522648 0.727293
Si Si8 0.321097 0.551846 0.842153
O O1 0.171958 0.750000 0.890987
O O2 0.077093 0.820929 0.904747
O O3 0.176141 0.874842 0.860743
O O4 0.169097 0.830904 0.000000
O O5 0.750000 0.587047 0.563278
O O6 0.867077 0.632923 0.566072
O O7 0.846125 0.522780 0.510042
O O8 0.835750 0.541788 0.653828
O O9 0.068864 0.568864 0.500000
O O10 0.016857 0.610908 0.373818
O O11 0.956211 0.543790 0.466626
O O12 0.250000 0.481094 0.095308
O O13 0.164163 0.492327 0.198406
O O14 0.132078 0.475539 0.053464
O O15 0.866506 0.033452 0.226323
O O16 0.965191 0.079867 0.290364
O O17 0.961310 0.961310 0.275747
O O18 0.150089 0.979902 0.917079
O O19 0.055141 0.944860 0.000000
O O20 0.054605 0.054605 0.944349
O O21 0.920066 0.579935 0.744529
O O22 0.250000 0.533978 0.829607
#
# Coordination Sequence:
#
# PCOD9565154 Si02
#       8
#    16  16  16  16  16  16  16  16
#     4  11  21  33  47  64  93 131 169 204 242 288
#     4  10  20  33  52  79 109 141 173 206 253 314
#     4   9  16  31  54  77  99 126 162 209 258 305
#     4  11  19  30  47  70  98 127 164 203 243 294
#     4  10  19  33  53  76 103 130 160 208 266 303
#     4  11  20  33  50  68  93 125 164 207 259 304
#     4  10  18  31  51  75 102 131 167 208 255 300
#     4  12  22  34  48  70 101 132 172 208 245 301
#
# _framework density 15.534012000000001
#
# number of rings (size 3 to 8) (size 9 to 14) (size 15 to 20)
#    0.000    1.500    5.000    1.875    0.000    3.500 
#    0.000    0.000    0.000    0.000    0.000    0.000 
#    0.000   20.000    0.000    0.000    0.000    0.000 
#
# Total GULP energy -713967.323753 kJ/mol
# GULP energy per Si atom -5577.869717 kJ/mol
# Density = 1.549866 g / cm^3
# Si number density = 15.534012 Si / 1000 Ang^3
#
#
#
# Elastic Constant Matrix: (Units=GPa)
#
#
# Indices 1 2 3 4 5 6 
#
# 1 78.4408 43.5117 42.9602 0.0000 0.0000 0.0000
# 2 43.5117 78.4417 42.9605 0.0000 0.0000 0.0000
# 3 42.9602 42.9605 100.6036 0.0000 0.0000 0.0000
# 4 0.0000 0.0000 0.0000 15.4389 0.0000 0.0000
# 5 0.0000 0.0000 0.0000 0.0000 15.4391 0.0000
# 6 0.0000 0.0000 0.0000 0.0000 0.0000 11.9678
#
#
#
# Elastic Compliance Matrix: (Units=1/GPa)
#
#
# Indices 1 2 3 4 5 6 
#
# 1 0.020179 -0.008450 -0.005008 0.000000 0.000000 0.000000
# 2 -0.008450 0.020179 -0.005008 0.000000 0.000000 0.000000
# 3 -0.005008 -0.005008 0.014217 0.000000 0.000000 0.000000
# 4 0.000000 0.000000 0.000000 0.064771 0.000000 0.000000
# 5 0.000000 0.000000 0.000000 0.000000 0.064771 0.000000
# 6 0.000000 0.000000 0.000000 0.000000 0.000000 0.083557
#
#
# Mechanical properties :
#
#
# Convention : Reuss Voigt Hill
#
# Bulk Modulus (GPa) = 56.68643 57.37231 57.02937
# Shear Modulus (GPa) = 16.10366 17.10609 16.60488
#
# Velocity S-wave (km/s) = 3.22323 3.32204 3.27301
# Velocity P-wave (km/s) = 7.10094 7.19223 7.14673
#
# Compressibility (1/GPa) = 0.01764091
#
# Stress axis : x y z
#
# Youngs Moduli (GPa) = 49.55680 49.55731 70.33634
#
# Poissons Ratio (x) = 0.41877 0.35227
# Poissons Ratio (y) = 0.41877 0.35227
# Poissons Ratio (z) = 0.24820 0.24820
#
# Static dielectric constant tensor:
#      x y z
#    x 1.518420 0.000000 0.000000 
#    y 0.000000 1.518420 0.000000 
#    z 0.000000 0.000000 1.514870 
# 
# From -- ./inp_files/6107.got.cif
#   From: 2010.05.17/outbox.cif.g08.bks.cpg/sg129_4_cif.got.tgz:6107.got - 2010.05.20 12:12:06.
