data_PCOD9565206
_publ_section_title
;
Structure prediction by ZEFSAII (Michael W. Deem and Ramdas Pophale) SiO2 
 PCOD9565206
Probable space group: P 4/N M M
;
_chemical_formula_sum "Si O2"
_cell_formula_units_Z 104
_cell_length_a 14.381870
_cell_length_b 14.381870
_cell_length_c 33.274976
_cell_angle_alpha 90.000000
_cell_angle_beta 90.000000
_cell_angle_gamma 90.000000
_cell_volume 6882.535632
_symmetry_space_group_name_H-M "P 4/N M M"
_symmetry_group_IT_number 129
_symmetry_cell_setting 'tetragonal'
loop_
_space_group_symop_operation_xyz
x,y,z
1/2-y,x,z
1/2-x,1/2-y,z
y,1/2-x,z
1/2+x,-y,-z
-x,1/2+y,-z
1/2+y,1/2+x,-z
-y,-x,-z
-x,-y,-z
1/2+y,-x,-z
1/2+x,1/2+y,-z
-y,1/2+x,-z
1/2-x,y,z
x,1/2-y,z
1/2-y,1/2-x,z
y,x,z
loop_
_atom_site_type_symbol
_atom_site_label
_atom_site_fract_x
_atom_site_fract_y
_atom_site_fract_z
Si Si1 0.358952 0.641049 0.500000
Si Si2 0.011818 0.641199 0.120994
Si Si3 0.640262 0.014131 0.577347
Si Si4 0.639284 0.014519 0.267339
Si Si5 0.859122 0.487234 0.026498
Si Si6 0.855379 0.137348 0.807446
Si Si7 0.358518 0.641679 0.654833
O O1 0.250000 0.628833 0.510705
O O2 0.423328 0.620397 0.538093
O O3 0.990685 0.750000 0.128399
O O4 0.036073 0.631818 0.073931
O O5 0.094615 0.612845 0.150775
O O6 0.922934 0.577067 0.129121
O O7 0.750000 0.991209 0.576800
O O8 0.622586 0.075798 0.617051
O O9 0.575713 0.924288 0.577452
O O10 0.750000 0.995547 0.264112
O O11 0.610621 0.079016 0.229664
O O12 0.623942 0.073999 0.307851
O O13 0.577953 0.922048 0.267745
O O14 0.750000 0.497757 0.017463
O O15 0.918099 0.581902 0.019883
O O16 0.908215 0.408215 0.000000
O O17 0.750000 0.102005 0.804239
O O18 0.850427 0.250000 0.806222
O O19 0.250000 0.631766 0.642987
O O20 0.371257 0.750000 0.667042
#
# Coordination Sequence:
#
# PCOD9565206 Si02
#       7
#     8  16  16  16  16  16  16
#     4   9  17  30  48  68  87 109 142 184 226 263
#     4   9  17  29  45  66  92 119 146 178 218 267
#     4  10  19  30  45  65  90 118 146 178 216 260
#     4  10  19  30  45  65  90 118 146 178 216 261
#     4   9  18  31  46  66  92 121 154 191 230 275
#     4   9  17  29  44  62  85 113 145 180 215 250
#     4   9  17  30  48  68  88 112 145 184 222 256
#
# _framework density 15.110711
#
# number of rings (size 3 to 8) (size 9 to 14) (size 15 to 20)
#    0.000    2.692    0.000    2.077    0.000    5.077 
#    0.000    3.077    0.000    2.769    0.000    0.000 
#    0.000   24.615    0.000    0.000    0.000    0.154 
#
# Total GULP energy -579474.251088 kJ/mol
# GULP energy per Si atom -5571.867799 kJ/mol
# Density = 1.507632 g / cm^3
# Si number density = 15.110711 Si / 1000 Ang^3
#
#
#
# Elastic Constant Matrix: (Units=GPa)
#
#
# Indices 1 2 3 4 5 6 
#
# 1 93.3077 66.9907 65.7689 0.0000 0.0000 0.0000
# 2 66.9907 93.3078 65.7689 0.0000 0.0000 0.0000
# 3 65.7689 65.7689 86.7668 0.0000 0.0000 0.0000
# 4 0.0000 0.0000 0.0000 19.0004 0.0000 0.0000
# 5 0.0000 0.0000 0.0000 0.0000 19.0003 0.0000
# 6 0.0000 0.0000 0.0000 0.0000 0.0000 24.1406
#
#
#
# Elastic Compliance Matrix: (Units=1/GPa)
#
#
# Indices 1 2 3 4 5 6 
#
# 1 0.027251 -0.010747 -0.012510 0.000000 0.000000 0.000000
# 2 -0.010747 0.027251 -0.012509 0.000000 0.000000 0.000000
# 3 -0.012510 -0.012509 0.030490 0.000000 0.000000 0.000000
# 4 0.000000 0.000000 0.000000 0.052631 0.000000 0.000000
# 5 0.000000 0.000000 0.000000 0.000000 0.052631 0.000000
# 6 0.000000 0.000000 0.000000 0.000000 0.000000 0.041424
#
#
# Mechanical properties :
#
#
# Convention : Reuss Voigt Hill
#
# Bulk Modulus (GPa) = 74.30399 74.49325 74.39862
# Shear Modulus (GPa) = 16.24984 17.41852 16.83418
#
# Velocity S-wave (km/s) = 3.28286 3.39887 3.34137
# Velocity P-wave (km/s) = 7.97806 8.05037 8.01429
#
# Compressibility (1/GPa) = 0.01345823
#
# Stress axis : x y z
#
# Youngs Moduli (GPa) = 36.69603 36.69629 32.79815
#
# Poissons Ratio (x) = 0.39439 0.41029
# Poissons Ratio (y) = 0.39438 0.41029
# Poissons Ratio (z) = 0.45905 0.45905
#
# Static dielectric constant tensor:
#      x y z
#    x 1.482480 0.000000 0.000000 
#    y 0.000000 1.482480 0.000000 
#    z 0.000000 0.000000 1.500430 
# 
# From -- ./inp_files/7921.got.cif
#   From: 2010.05.17/outbox.cif.g08.bks.cpg/sg129_4_cif.got.tgz:7921.got - 2010.05.20 12:12:06.
