data_PCOD9565800
_publ_section_title
;
Structure prediction by ZEFSAII (Michael W. Deem and Ramdas Pophale) SiO2 
 PCOD9565800
Probable space group: P 4/N C C
;
_chemical_formula_sum "Si O2"
_cell_formula_units_Z 48
_cell_length_a 12.712220
_cell_length_b 12.712220
_cell_length_c 11.090995
_cell_angle_alpha 90.000000
_cell_angle_beta 90.000000
_cell_angle_gamma 90.000000
_cell_volume 1792.310752
_symmetry_space_group_name_H-M "P 4/N C C"
_symmetry_group_IT_number 130
_symmetry_cell_setting 'tetragonal'
loop_
_space_group_symop_operation_xyz
x,y,z
1/2-y,x,z
1/2-x,1/2-y,z
y,1/2-x,z
1/2+x,-y,1/2-z
-x,1/2+y,1/2-z
1/2+y,1/2+x,1/2-z
-y,-x,1/2-z
-x,-y,-z
1/2+y,-x,-z
1/2+x,1/2+y,-z
-y,1/2+x,-z
1/2-x,y,1/2+z
x,1/2-y,1/2+z
1/2-y,1/2-x,1/2+z
y,x,1/2+z
loop_
_atom_site_type_symbol
_atom_site_label
_atom_site_fract_x
_atom_site_fract_y
_atom_site_fract_z
Si Si1 0.421153 0.238437 0.688370
Si Si2 0.867631 0.104073 0.880265
Si Si3 0.436845 0.837172 0.134446
O O1 0.356452 0.343908 0.658329
O O2 0.534690 0.261463 0.629530
O O3 0.451372 0.215407 0.828540
O O4 0.920990 0.079011 0.750000
O O5 0.865070 0.231277 0.878724
O O6 0.902594 0.068486 0.012023
O O7 0.405738 0.905738 0.250000
#
# Coordination Sequence:
#
# PCOD9565800 Si02
#       3
#    16  16  16
#     4  10  24  45  66  96 141 187 231 286 352 418
#     4  10  22  41  67  99 132 175 228 281 343 412
#     4  11  24  43  69 102 140 180 227 287 352 418
#
# _framework density 26.781072000000002
#
# number of rings (size 3 to 8) (size 9 to 14) (size 15 to 20)
#    0.000    1.667    0.000    4.000    0.000   21.333 
#    0.000   13.333    0.000    0.000    0.000    0.000 
#    0.000    0.000    0.000    0.000    0.000    0.000 
#
# Total GULP energy -267251.779041 kJ/mol
# GULP energy per Si atom -5567.745397 kJ/mol
# Density = 2.672012 g / cm^3
# Si number density = 26.781072 Si / 1000 Ang^3
#
#
#
# Elastic Constant Matrix: (Units=GPa)
#
#
# Indices 1 2 3 4 5 6 
#
# 1 91.2695 50.6523 33.4232 0.0000 0.0000 0.0000
# 2 50.6523 91.2704 33.4238 0.0000 0.0000 0.0000
# 3 33.4232 33.4238 226.9956 0.0000 0.0000 0.0000
# 4 0.0000 0.0000 0.0000 5.9270 0.0000 0.0000
# 5 0.0000 0.0000 0.0000 0.0000 5.9269 0.0000
# 6 0.0000 0.0000 0.0000 0.0000 0.0000 46.9536
#
#
#
# Elastic Compliance Matrix: (Units=1/GPa)
#
#
# Indices 1 2 3 4 5 6 
#
# 1 0.016096 -0.008524 -0.001115 0.000000 0.000000 0.000000
# 2 -0.008524 0.016095 -0.001115 0.000000 0.000000 0.000000
# 3 -0.001115 -0.001115 0.004734 0.000000 0.000000 0.000000
# 4 0.000000 0.000000 0.000000 0.168718 0.000000 0.000000
# 5 0.000000 0.000000 0.000000 0.000000 0.168723 0.000000
# 6 0.000000 0.000000 0.000000 0.000000 0.000000 0.021298
#
#
# Mechanical properties :
#
#
# Convention : Reuss Voigt Hill
#
# Bulk Modulus (GPa) = 64.86415 71.61490 68.23952
# Shear Modulus (GPa) = 11.83962 31.23059 21.53510
#
# Velocity S-wave (km/s) = 2.10487 3.41859 2.83877
# Velocity P-wave (km/s) = 5.49364 6.51009 6.02334
#
# Compressibility (1/GPa) = 0.01541684
#
# Stress axis : x y z
#
# Youngs Moduli (GPa) = 62.12880 62.12934 211.25276
#
# Poissons Ratio (x) = 0.52961 0.23550
# Poissons Ratio (y) = 0.52961 0.23551
# Poissons Ratio (z) = 0.06926 0.06926
#
# Static dielectric constant tensor:
#      x y z
#    x 2.168480 0.000000 0.000000 
#    y 0.000000 2.168480 0.000000 
#    z 0.000000 0.000000 2.245100 
# 
# From -- ./inp_files/1333.got.cif
#   From: 2010.05.17/outbox.cif.g08.bks.cpg/sg130_1_cif.got.tgz:1333.got - 2010.05.20 12:17:35.
