data_PCOD9565992
_publ_section_title
;
Structure prediction by ZEFSAII (Michael W. Deem and Ramdas Pophale) SiO2 
 PCOD9565992
Probable space group: P 4/N C C
;
_chemical_formula_sum "Si O2"
_cell_formula_units_Z 64
_cell_length_a 16.477998
_cell_length_b 16.477998
_cell_length_c 9.665415
_cell_angle_alpha 90.000000
_cell_angle_beta 90.000000
_cell_angle_gamma 90.000000
_cell_volume 2624.396183
_symmetry_space_group_name_H-M "P 4/N C C"
_symmetry_group_IT_number 130
_symmetry_cell_setting 'tetragonal'
loop_
_space_group_symop_operation_xyz
x,y,z
1/2-y,x,z
1/2-x,1/2-y,z
y,1/2-x,z
1/2+x,-y,1/2-z
-x,1/2+y,1/2-z
1/2+y,1/2+x,1/2-z
-y,-x,1/2-z
-x,-y,-z
1/2+y,-x,-z
1/2+x,1/2+y,-z
-y,1/2+x,-z
1/2-x,y,1/2+z
x,1/2-y,1/2+z
1/2-y,1/2-x,1/2+z
y,x,1/2+z
loop_
_atom_site_type_symbol
_atom_site_label
_atom_site_fract_x
_atom_site_fract_y
_atom_site_fract_z
Si Si1 0.479731 0.658007 0.770861
Si Si2 0.198156 0.377419 0.443718
Si Si3 0.912661 0.471605 0.051299
Si Si4 0.487654 0.671243 0.331583
O O1 0.415198 0.584803 0.750000
O O2 0.557874 0.668178 0.672122
O O3 0.446130 0.749270 0.768318
O O4 0.499968 0.647087 0.932822
O O5 0.149576 0.292511 0.432465
O O6 0.185807 0.428726 0.585807
O O7 0.887282 0.502524 0.201306
O O8 0.924990 0.375132 0.068406
O O9 0.000000 0.500000 0.000000
#
# Coordination Sequence:
#
# PCOD9565992 Si02
#       4
#    16  16  16  16
#     4  12  27  47  82 119 165 223 276 343 422 513
#     4  11  28  52  82 123 175 223 273 354 440 504
#     4  11  28  48  78 120 154 222 286 342 410 503
#     4  11  27  49  81 114 163 209 288 349 411 500
#
# _framework density 24.386562999999999
#
# number of rings (size 3 to 8) (size 9 to 14) (size 15 to 20)
#    0.000    0.750    2.500    1.500   14.000    0.000 
#    0.000    5.000    0.000    3.000    0.000    0.000 
#    0.000    0.000    0.000    0.000    0.000    0.000 
#
# Total GULP energy -357832.881263 kJ/mol
# GULP energy per Si atom -5591.138770 kJ/mol
# Density = 2.433106 g / cm^3
# Si number density = 24.386563 Si / 1000 Ang^3
#
#
#
# Elastic Constant Matrix: (Units=GPa)
#
#
# Indices 1 2 3 4 5 6 
#
# 1 167.0627 91.6055 67.9165 0.0000 0.0000 0.0000
# 2 91.6055 167.0656 67.9168 0.0000 0.0000 0.0000
# 3 67.9165 67.9168 169.6728 0.0000 0.0000 0.0000
# 4 0.0000 0.0000 0.0000 40.7687 0.0000 0.0000
# 5 0.0000 0.0000 0.0000 0.0000 40.7686 0.0000
# 6 0.0000 0.0000 0.0000 0.0000 0.0000 52.4845
#
#
#
# Elastic Compliance Matrix: (Units=1/GPa)
#
#
# Indices 1 2 3 4 5 6 
#
# 1 0.009074 -0.004179 -0.001959 0.000000 0.000000 0.000000
# 2 -0.004179 0.009073 -0.001959 0.000000 0.000000 0.000000
# 3 -0.001959 -0.001959 0.007462 0.000000 0.000000 0.000000
# 4 0.000000 0.000000 0.000000 0.024529 0.000000 0.000000
# 5 0.000000 0.000000 0.000000 0.000000 0.024529 0.000000
# 6 0.000000 0.000000 0.000000 0.000000 0.000000 0.019053
#
#
# Mechanical properties :
#
#
# Convention : Reuss Voigt Hill
#
# Bulk Modulus (GPa) = 106.21727 106.51986 106.36856
# Shear Modulus (GPa) = 44.22714 45.22851 44.72783
#
# Velocity S-wave (km/s) = 4.26324 4.31124 4.28731
# Velocity P-wave (km/s) = 8.23917 8.27991 8.25956
#
# Compressibility (1/GPa) = 0.00941467
#
# Stress axis : x y z
#
# Youngs Moduli (GPa) = 110.20946 110.21154 134.00816
#
# Poissons Ratio (x) = 0.46055 0.26256
# Poissons Ratio (y) = 0.46054 0.26256
# Poissons Ratio (z) = 0.21594 0.21593
#
# Static dielectric constant tensor:
#      x y z
#    x 1.725930 0.000000 0.000000 
#    y 0.000000 1.725980 0.000000 
#    z 0.000000 0.000000 2.052380 
# 
# From -- ./inp_files/1516.got.cif
#   From: 2010.05.17/outbox.cif.g08.bks.cpg/sg130_1_cif.got.tgz:1516.got - 2010.05.20 12:17:35.
