data_PCOD9565822
_publ_section_title
;
Structure prediction by ZEFSAII (Michael W. Deem and Ramdas Pophale) SiO2 
 PCOD9565822
Probable space group: P 4/N C C
;
_chemical_formula_sum "Si O2"
_cell_formula_units_Z 120
_cell_length_a 13.610738
_cell_length_b 13.610738
_cell_length_c 30.182626
_cell_angle_alpha 90.000000
_cell_angle_beta 90.000000
_cell_angle_gamma 90.000000
_cell_volume 5591.397533
_symmetry_space_group_name_H-M "P 4/N C C"
_symmetry_group_IT_number 130
_symmetry_cell_setting 'tetragonal'
loop_
_space_group_symop_operation_xyz
x,y,z
1/2-y,x,z
1/2-x,1/2-y,z
y,1/2-x,z
1/2+x,-y,1/2-z
-x,1/2+y,1/2-z
1/2+y,1/2+x,1/2-z
-y,-x,1/2-z
-x,-y,-z
1/2+y,-x,-z
1/2+x,1/2+y,-z
-y,1/2+x,-z
1/2-x,y,1/2+z
x,1/2-y,1/2+z
1/2-y,1/2-x,1/2+z
y,x,1/2+z
loop_
_atom_site_type_symbol
_atom_site_label
_atom_site_fract_x
_atom_site_fract_y
_atom_site_fract_z
Si Si1 0.470314 0.529687 0.750000
Si Si2 0.802493 0.011328 0.143450
Si Si3 0.398288 0.193320 0.775647
Si Si4 0.508952 0.221072 0.132120
Si Si5 0.161193 0.675286 0.699704
Si Si6 0.477742 0.425034 0.156906
Si Si7 0.756446 0.583087 0.956759
Si Si8 0.753147 0.915634 0.556846
O O1 0.357617 0.497502 0.757753
O O2 0.521237 0.513510 0.797100
O O3 0.731300 0.072423 0.175585
O O4 0.910888 0.059884 0.139661
O O5 0.814383 0.910186 0.171129
O O6 0.754102 0.993079 0.096187
O O7 0.373351 0.304425 0.762509
O O8 0.603249 0.202905 0.162046
O O9 0.456616 0.308551 0.159898
O O10 0.464473 0.112592 0.129611
O O11 0.498480 0.258943 0.081665
O O12 0.250000 0.750000 0.705604
O O13 0.138377 0.638377 0.750000
O O14 0.847192 0.659739 0.952449
O O15 0.756052 0.543436 0.006911
O O16 0.656863 0.846202 0.561200
#
# Coordination Sequence:
#
# PCOD9565822 Si02
#       8
#     8  16  16  16  16  16  16  16
#     4  10  26  42  58  94 132 174 222 278 340 416
#     4  11  23  43  63  96 132 171 227 285 336 414
#     4  10  23  41  65  93 128 169 221 288 345 394
#     4  12  24  43  66  99 131 178 220 283 339 407
#     4  11  27  45  68  89 134 191 237 272 335 415
#     4  11  27  40  65  92 132 170 228 273 338 401
#     4   9  18  39  66  98 135 173 219 275 345 425
#     4   9  19  37  70 102 131 172 220 281 351 411
#
# _framework density 21.461541
#
# number of rings (size 3 to 8) (size 9 to 14) (size 15 to 20)
#    0.000    1.600    2.667    1.600   12.133    1.333 
#    0.000    2.000    0.000    0.000    0.000    0.000 
#    0.000    0.000    0.000    0.000    0.000    0.000 
#
# Total GULP energy -668677.145980 kJ/mol
# GULP energy per Si atom -5572.309550 kJ/mol
# Density = 2.141269 g / cm^3
# Si number density = 21.461541 Si / 1000 Ang^3
#
#
#
# Elastic Constant Matrix: (Units=GPa)
#
#
# Indices 1 2 3 4 5 6 
#
# 1 68.1887 29.0788 47.6300 0.0000 0.0000 0.0000
# 2 29.0788 68.1899 47.6302 0.0000 0.0000 0.0000
# 3 47.6300 47.6302 175.7738 0.0000 0.0000 0.0000
# 4 0.0000 0.0000 0.0000 46.0083 0.0000 0.0000
# 5 0.0000 0.0000 0.0000 0.0000 46.0082 0.0000
# 6 0.0000 0.0000 0.0000 0.0000 0.0000 27.9740
#
#
#
# Elastic Compliance Matrix: (Units=1/GPa)
#
#
# Indices 1 2 3 4 5 6 
#
# 1 0.019782 -0.005787 -0.003792 0.000000 0.000000 0.000000
# 2 -0.005787 0.019781 -0.003792 0.000000 0.000000 0.000000
# 3 -0.003792 -0.003792 0.007744 0.000000 0.000000 0.000000
# 4 0.000000 0.000000 0.000000 0.021735 0.000000 0.000000
# 5 0.000000 0.000000 0.000000 0.000000 0.021735 0.000000
# 6 0.000000 0.000000 0.000000 0.000000 0.000000 0.035747
#
#
# Mechanical properties :
#
#
# Convention : Reuss Voigt Hill
#
# Bulk Modulus (GPa) = 48.62627 62.31450 55.47039
# Shear Modulus (GPa) = 31.22594 36.51900 33.87247
#
# Velocity S-wave (km/s) = 3.81855 4.12952 3.97708
# Velocity P-wave (km/s) = 6.49217 7.19970 6.85507
#
# Compressibility (1/GPa) = 0.02056501
#
# Stress axis : x y z
#
# Youngs Moduli (GPa) = 50.55130 50.55230 129.12699
#
# Poissons Ratio (x) = 0.29254 0.48968
# Poissons Ratio (y) = 0.29254 0.48967
# Poissons Ratio (z) = 0.19170 0.19170
#
# Static dielectric constant tensor:
#      x y z
#    x 1.838020 0.000000 0.000000 
#    y 0.000000 1.838020 0.000000 
#    z 0.000000 0.000000 1.830830 
# 
# From -- ./inp_files/5013.got.cif
#   From: 2010.05.17/outbox.cif.g08.bks.cpg/sg130_3_cif.got.tgz:5013.got - 2010.05.20 12:17:35.
