data_PCOD9565546
_publ_section_title
;
Structure prediction by ZEFSAII (Michael W. Deem and Ramdas Pophale) SiO2 
 PCOD9565546
Probable space group: P 4/N C C
;
_chemical_formula_sum "Si O2"
_cell_formula_units_Z 96
_cell_length_a 22.444048
_cell_length_b 22.444048
_cell_length_c 9.173461
_cell_angle_alpha 90.000000
_cell_angle_beta 90.000000
_cell_angle_gamma 90.000000
_cell_volume 4620.996043
_symmetry_space_group_name_H-M "P 4/N C C"
_symmetry_group_IT_number 130
_symmetry_cell_setting 'tetragonal'
loop_
_space_group_symop_operation_xyz
x,y,z
1/2-y,x,z
1/2-x,1/2-y,z
y,1/2-x,z
1/2+x,-y,1/2-z
-x,1/2+y,1/2-z
1/2+y,1/2+x,1/2-z
-y,-x,1/2-z
-x,-y,-z
1/2+y,-x,-z
1/2+x,1/2+y,-z
-y,1/2+x,-z
1/2-x,y,1/2+z
x,1/2-y,1/2+z
1/2-y,1/2-x,1/2+z
y,x,1/2+z
loop_
_atom_site_type_symbol
_atom_site_label
_atom_site_fract_x
_atom_site_fract_y
_atom_site_fract_z
Si Si1 0.905270 0.403089 0.586952
Si Si2 0.327555 0.193928 0.228873
Si Si3 0.700561 0.314724 0.086700
Si Si4 0.496149 0.306123 0.111937
Si Si5 0.876640 0.863013 0.018922
Si Si6 0.674156 0.994599 0.537282
O O1 0.923812 0.423812 0.750000
O O2 0.842472 0.369394 0.596707
O O3 0.880351 0.459619 0.498539
O O4 0.953206 0.351745 0.548226
O O5 0.330646 0.262591 0.265986
O O6 0.378058 0.159003 0.315314
O O7 0.333190 0.180273 0.059258
O O8 0.707498 0.292503 0.250000
O O9 0.763050 0.327998 0.011655
O O10 0.501052 0.308507 0.289329
O O11 0.434012 0.336935 0.063388
O O12 0.499750 0.237419 0.051704
O O13 0.858593 0.931534 0.016843
#
# Coordination Sequence:
#
# PCOD9565546 Si02
#       6
#    16  16  16  16  16  16
#     4   9  21  41  62  89 120 165 212 258 312 368
#     4  11  22  38  60  91 124 160 206 265 322 379
#     4  10  18  31  55  83 118 151 194 254 318 372
#     4  11  24  43  68  93 129 169 214 265 317 377
#     4  12  24  38  64  92 126 166 210 259 314 379
#     4  11  24  43  68  93 129 169 214 265 317 377
#
# _framework density 20.774743000000001
#
# number of rings (size 3 to 8) (size 9 to 14) (size 15 to 20)
#    0.000    1.333    1.667    5.000    2.333    2.000 
#    0.000    2.500    0.000    0.000    0.000    0.000 
#    0.000    0.000    0.000    0.000    0.000    0.000 
#
# Total GULP energy -534484.086327 kJ/mol
# GULP energy per Si atom -5567.542566 kJ/mol
# Density = 2.072746 g / cm^3
# Si number density = 20.774743 Si / 1000 Ang^3
#
#
#
# Elastic Constant Matrix: (Units=GPa)
#
#
# Indices 1 2 3 4 5 6 
#
# 1 132.2697 -48.7281 7.3991 0.0000 0.0000 0.0000
# 2 -48.7281 132.2690 7.3977 0.0000 0.0000 0.0000
# 3 7.3991 7.3977 66.4388 0.0000 0.0000 0.0000
# 4 0.0000 0.0000 0.0000 63.9334 0.0000 0.0000
# 5 0.0000 0.0000 0.0000 0.0000 63.9437 0.0000
# 6 0.0000 0.0000 0.0000 0.0000 0.0000 62.5084
#
#
#
# Elastic Compliance Matrix: (Units=1/GPa)
#
#
# Indices 1 2 3 4 5 6 
#
# 1 0.008868 0.003343 -0.001360 0.000000 0.000000 0.000000
# 2 0.003343 0.008868 -0.001360 0.000000 0.000000 0.000000
# 3 -0.001360 -0.001360 0.015354 0.000000 0.000000 0.000000
# 4 0.000000 0.000000 0.000000 0.015641 0.000000 0.000000
# 5 0.000000 0.000000 0.000000 0.000000 0.015639 0.000000
# 6 0.000000 0.000000 0.000000 0.000000 0.000000 0.015998
#
#
# Mechanical properties :
#
#
# Convention : Reuss Voigt Hill
#
# Bulk Modulus (GPa) = 29.12300 29.23501 29.17901
# Shear Modulus (GPa) = 55.20783 62.40435 58.80609
#
# Velocity S-wave (km/s) = 5.16064 5.48669 5.32616
# Velocity P-wave (km/s) = 7.03978 7.36487 7.20416
#
# Compressibility (1/GPa) = 0.03433712
#
# Stress axis : x y z
#
# Youngs Moduli (GPa) = 112.76566 112.76540 65.12841
#
# Poissons Ratio (x) = -0.37698 0.08856
# Poissons Ratio (y) = -0.37698 0.08856
# Poissons Ratio (z) = 0.15334 0.15333
#
# Static dielectric constant tensor:
#      x y z
#    x 1.603720 0.000000 0.000000 
#    y 0.000000 1.603760 0.000000 
#    z 0.000000 0.000000 1.752680 
# 
# From -- ./inp_files/932.got.cif
#   From: 2010.05.17/outbox.cif.g08.bks.cpg/sg130_1_cif.got.tgz:932.got - 2010.05.20 12:17:35.
