data_PCOD9565855
_publ_section_title
;
Structure prediction by ZEFSAII (Michael W. Deem and Ramdas Pophale) SiO2 
 PCOD9565855
Probable space group: P 4/N C C
;
_chemical_formula_sum "Si O2"
_cell_formula_units_Z 72
_cell_length_a 18.347789
_cell_length_b 18.347789
_cell_length_c 9.326299
_cell_angle_alpha 90.000000
_cell_angle_beta 90.000000
_cell_angle_gamma 90.000000
_cell_volume 3139.617990
_symmetry_space_group_name_H-M "P 4/N C C"
_symmetry_group_IT_number 130
_symmetry_cell_setting 'tetragonal'
loop_
_space_group_symop_operation_xyz
x,y,z
1/2-y,x,z
1/2-x,1/2-y,z
y,1/2-x,z
1/2+x,-y,1/2-z
-x,1/2+y,1/2-z
1/2+y,1/2+x,1/2-z
-y,-x,1/2-z
-x,-y,-z
1/2+y,-x,-z
1/2+x,1/2+y,-z
-y,1/2+x,-z
1/2-x,y,1/2+z
x,1/2-y,1/2+z
1/2-y,1/2-x,1/2+z
y,x,1/2+z
loop_
_atom_site_type_symbol
_atom_site_label
_atom_site_fract_x
_atom_site_fract_y
_atom_site_fract_z
Si Si1 0.644782 0.811978 0.082336
Si Si2 0.130703 0.073456 0.638665
Si Si3 0.571617 0.126560 0.489376
Si Si4 0.159181 0.659181 0.250000
Si Si5 0.518858 0.481143 0.750000
Si Si6 0.823162 0.176839 0.750000
O O1 0.654154 0.725978 0.062443
O O2 0.611699 0.820880 0.240280
O O3 0.603188 0.861819 0.966578
O O4 0.064107 0.038266 0.725117
O O5 0.161267 0.003094 0.552378
O O6 0.628889 0.112755 0.617026
O O7 0.545987 0.058464 0.394367
O O8 0.616784 0.171344 0.372992
O O9 0.159992 0.742319 0.308031
#
# Coordination Sequence:
#
# PCOD9565855 Si02
#       6
#    16  16  16   8   8   8
#     4  11  26  49  75 106 145 194 251 311 377 443
#     4  12  24  46  72 103 146 188 230 304 379 431
#     4  11  24  41  68 103 134 184 240 288 345 436
#     4  11  23  44  74  96 144 194 232 290 357 419
#     4  11  25  47  65  99 148 179 225 299 375 421
#     4  10  24  47  65 102 148 190 231 291 358 424
#
# _framework density 22.932727
#
# number of rings (size 3 to 8) (size 9 to 14) (size 15 to 20)
#    0.000    0.889    2.222    4.000    3.111    5.333 
#   12.000    0.000    0.000    0.000    0.000    0.000 
#    0.000    0.000    0.000    0.000    0.000    0.000 
#
# Total GULP energy -401697.269935 kJ/mol
# GULP energy per Si atom -5579.128749 kJ/mol
# Density = 2.288053 g / cm^3
# Si number density = 22.932727 Si / 1000 Ang^3
#
#
#
# Elastic Constant Matrix: (Units=GPa)
#
#
# Indices 1 2 3 4 5 6 
#
# 1 83.6519 31.9320 28.9405 0.0000 0.0000 0.0000
# 2 31.9320 83.6529 28.9397 0.0000 0.0000 0.0000
# 3 28.9405 28.9397 99.3869 0.0000 0.0000 0.0000
# 4 0.0000 0.0000 0.0000 32.8980 0.0000 0.0000
# 5 0.0000 0.0000 0.0000 0.0000 32.8988 0.0000
# 6 0.0000 0.0000 0.0000 0.0000 0.0000 22.0620
#
#
#
# Elastic Compliance Matrix: (Units=1/GPa)
#
#
# Indices 1 2 3 4 5 6 
#
# 1 0.014732 -0.004603 -0.002949 0.000000 0.000000 0.000000
# 2 -0.004603 0.014732 -0.002949 0.000000 0.000000 0.000000
# 3 -0.002949 -0.002949 0.011779 0.000000 0.000000 0.000000
# 4 0.000000 0.000000 0.000000 0.030397 0.000000 0.000000
# 5 0.000000 0.000000 0.000000 0.000000 0.030396 0.000000
# 6 0.000000 0.000000 0.000000 0.000000 0.000000 0.045327
#
#
# Mechanical properties :
#
#
# Convention : Reuss Voigt Hill
#
# Bulk Modulus (GPa) = 49.40899 49.59068 49.49983
# Shear Modulus (GPa) = 28.55308 29.36372 28.95840
#
# Velocity S-wave (km/s) = 3.53240 3.58219 3.55738
# Velocity P-wave (km/s) = 6.18297 6.22742 6.20523
#
# Compressibility (1/GPa) = 0.02023923
#
# Stress axis : x y z
#
# Youngs Moduli (GPa) = 67.88035 67.88169 84.89479
#
# Poissons Ratio (x) = 0.31246 0.25039
# Poissons Ratio (y) = 0.31246 0.25037
# Poissons Ratio (z) = 0.20021 0.20020
#
# Static dielectric constant tensor:
#      x y z
#    x 2.021230 0.000000 0.000000 
#    y 0.000000 2.021250 0.000000 
#    z 0.000000 0.000000 1.883080 
# 
# From -- ./inp_files/810.got.cif
#   From: 2010.05.17/outbox.cif.g08.bks.cpg/sg130_1_cif.got.tgz:810.got - 2010.05.20 12:17:35.
