data_PCOD9565763
_publ_section_title
;
Structure prediction by ZEFSAII (Michael W. Deem and Ramdas Pophale) SiO2 
 PCOD9565763
Probable space group: P 4/N C C
;
_chemical_formula_sum "Si O2"
_cell_formula_units_Z 112
_cell_length_a 18.744384
_cell_length_b 18.744384
_cell_length_c 18.736903
_cell_angle_alpha 90.000000
_cell_angle_beta 90.000000
_cell_angle_gamma 90.000000
_cell_volume 6583.247060
_symmetry_space_group_name_H-M "P 4/N C C"
_symmetry_group_IT_number 130
_symmetry_cell_setting 'tetragonal'
loop_
_space_group_symop_operation_xyz
x,y,z
1/2-y,x,z
1/2-x,1/2-y,z
y,1/2-x,z
1/2+x,-y,1/2-z
-x,1/2+y,1/2-z
1/2+y,1/2+x,1/2-z
-y,-x,1/2-z
-x,-y,-z
1/2+y,-x,-z
1/2+x,1/2+y,-z
-y,1/2+x,-z
1/2-x,y,1/2+z
x,1/2-y,1/2+z
1/2-y,1/2-x,1/2+z
y,x,1/2+z
loop_
_atom_site_type_symbol
_atom_site_label
_atom_site_fract_x
_atom_site_fract_y
_atom_site_fract_z
Si Si1 0.377856 0.502302 0.727011
Si Si2 0.552200 0.318604 0.941183
Si Si3 0.001153 0.414209 0.192507
Si Si4 0.100097 0.822757 0.894075
Si Si5 0.475471 0.036671 0.428250
Si Si6 0.127787 0.672985 0.829264
Si Si7 0.671818 0.473804 0.123690
O O1 0.439744 0.560257 0.750000
O O2 0.418747 0.426433 0.720572
O O3 0.343180 0.531228 0.654503
O O4 0.323742 0.505972 0.792987
O O5 0.493739 0.380561 0.933757
O O6 0.615339 0.339247 0.884904
O O7 0.517608 0.244448 0.918317
O O8 0.581088 0.315490 0.022363
O O9 0.947780 0.447780 0.250000
O O10 0.996695 0.470278 0.128631
O O11 0.958489 0.342822 0.173247
O O12 0.135075 0.751911 0.860992
O O13 0.151584 0.890474 0.884238
O O14 0.500000 0.000000 0.500000
O O15 0.395207 0.017120 0.407897
O O16 0.161362 0.661362 0.750000
#
# Coordination Sequence:
#
# PCOD9565763 Si02
#       7
#    16  16  16  16  16  16  16
#     4   9  16  32  53  77 101 147 189 227 280 326
#     4  11  23  35  54  86 113 150 191 235 292 339
#     4   9  15  31  53  75 101 140 184 233 269 313
#     4  11  20  35  53  79 117 153 187 228 275 344
#     4  11  19  35  57  79 107 144 192 237 279 334
#     4  10  22  35  53  81 116 152 190 230 276 345
#     4  11  21  36  57  78 113 151 188 234 287 349
#
# _framework density 17.012881
#
# number of rings (size 3 to 8) (size 9 to 14) (size 15 to 20)
#    0.000    1.714    5.714    1.714    2.000    0.571 
#    0.000    2.143    0.000    0.429    0.000    0.000 
#    0.000    0.571    0.000    0.000    0.000    0.000 
#
# Total GULP energy -624069.380174 kJ/mol
# GULP energy per Si atom -5572.048037 kJ/mol
# Density = 1.697416 g / cm^3
# Si number density = 17.012881 Si / 1000 Ang^3
#
#
#
# Elastic Constant Matrix: (Units=GPa)
#
#
# Indices 1 2 3 4 5 6 
#
# 1 70.1346 50.9943 31.6104 0.0000 0.0000 0.0000
# 2 50.9943 70.1346 31.6103 0.0000 0.0000 0.0000
# 3 31.6104 31.6103 134.1268 0.0000 0.0000 0.0000
# 4 0.0000 0.0000 0.0000 3.0669 0.0000 0.0000
# 5 0.0000 0.0000 0.0000 0.0000 3.0335 0.0000
# 6 0.0000 0.0000 0.0000 0.0000 0.0000 9.6671
#
#
#
# Elastic Compliance Matrix: (Units=1/GPa)
#
#
# Indices 1 2 3 4 5 6 
#
# 1 0.030830 -0.021416 -0.002219 0.000000 0.000000 0.000000
# 2 -0.021416 0.030830 -0.002219 0.000000 0.000000 0.000000
# 3 -0.002219 -0.002219 0.008501 0.000000 0.000000 0.000000
# 4 0.000000 0.000000 0.000000 0.326063 0.000000 0.000000
# 5 0.000000 0.000000 0.000000 0.000000 0.329656 0.000000
# 6 0.000000 0.000000 0.000000 0.000000 0.000000 0.103443
#
#
# Mechanical properties :
#
#
# Convention : Reuss Voigt Hill
#
# Bulk Modulus (GPa) = 54.18780 55.86955 55.02868
# Shear Modulus (GPa) = 5.63583 13.83223 9.73403
#
# Velocity S-wave (km/s) = 1.82205 2.85449 2.39457
# Velocity P-wave (km/s) = 6.02882 6.61627 6.32936
#
# Compressibility (1/GPa) = 0.01845434
#
# Stress axis : x y z
#
# Youngs Moduli (GPa) = 32.43624 32.43627 117.62847
#
# Poissons Ratio (x) = 0.69466 0.26097
# Poissons Ratio (y) = 0.69466 0.26096
# Poissons Ratio (z) = 0.07196 0.07196
#
# Static dielectric constant tensor:
#      x y z
#    x 1.626690 0.000000 0.000000 
#    y 0.000000 1.626690 0.000000 
#    z 0.000000 0.000000 1.620580 
# 
# From -- ./inp_files/3949.got.cif
#   From: 2010.05.17/outbox.cif.g08.bks.cpg/sg130_2_cif.got.tgz:3949.got - 2010.05.20 12:17:35.
