data_PCOD9565774
_publ_section_title
;
Structure prediction by ZEFSAII (Michael W. Deem and Ramdas Pophale) SiO2 
 PCOD9565774
Probable space group: P 4/N C C
;
_chemical_formula_sum "Si O2"
_cell_formula_units_Z 92
_cell_length_a 22.099557
_cell_length_b 22.099557
_cell_length_c 9.283079
_cell_angle_alpha 90.000000
_cell_angle_beta 90.000000
_cell_angle_gamma 90.000000
_cell_volume 4533.766848
_symmetry_space_group_name_H-M "P 4/N C C"
_symmetry_group_IT_number 130
_symmetry_cell_setting 'tetragonal'
loop_
_space_group_symop_operation_xyz
x,y,z
1/2-y,x,z
1/2-x,1/2-y,z
y,1/2-x,z
1/2+x,-y,1/2-z
-x,1/2+y,1/2-z
1/2+y,1/2+x,1/2-z
-y,-x,1/2-z
-x,-y,-z
1/2+y,-x,-z
1/2+x,1/2+y,-z
-y,1/2+x,-z
1/2-x,y,1/2+z
x,1/2-y,1/2+z
1/2-y,1/2-x,1/2+z
y,x,1/2+z
loop_
_atom_site_type_symbol
_atom_site_label
_atom_site_fract_x
_atom_site_fract_y
_atom_site_fract_z
Si Si1 0.899115 0.481302 0.319293
Si Si2 0.575279 0.935671 0.567873
Si Si3 0.261312 0.537722 0.106673
Si Si4 0.725318 0.379409 0.147551
Si Si5 0.853600 0.532005 0.820181
Si Si6 0.250000 0.750000 0.750000
Si Si7 0.600150 0.399851 0.250000
O O1 0.917377 0.417377 0.250000
O O2 0.929038 0.503505 0.470136
O O3 0.923058 0.525880 0.192402
O O4 0.828421 0.482621 0.353053
O O5 0.636038 0.939127 0.663309
O O6 0.569838 0.883729 0.448282
O O7 0.243679 0.597313 0.195954
O O8 0.214253 0.485491 0.143230
O O9 0.252054 0.564946 0.948714
O O10 0.746948 0.310383 0.150213
O O11 0.652320 0.384915 0.132720
O O12 0.888790 0.467135 0.807142
#
# Coordination Sequence:
#
# PCOD9565774 Si02
#       7
#    16  16  16  16  16   4   8
#     4  11  23  36  60  88 122 158 203 244 306 368
#     4  10  23  37  59  89 118 156 200 254 304 378
#     4  11  23  41  59  86 120 159 199 255 308 372
#     4  10  23  38  57  79 110 162 208 265 301 343
#     4  10  22  38  60  84 120 154 199 249 315 358
#     4  10  24  42  56  80 112 158 228 276 304 342
#     4   9  20  35  54  77 118 150 200 251 303 350
#
# _framework density 20.292178
#
# number of rings (size 3 to 8) (size 9 to 14) (size 15 to 20)
#    0.000    1.739    0.000    3.652   10.957    4.870 
#    0.000    0.000    0.000    0.000    0.000    0.000 
#    0.000   48.696    0.000    0.000    0.000    0.000 
#
# Total GULP energy -513023.428763 kJ/mol
# GULP energy per Si atom -5576.341617 kJ/mol
# Density = 2.024599 g / cm^3
# Si number density = 20.292178 Si / 1000 Ang^3
#
#
#
# Elastic Constant Matrix: (Units=GPa)
#
#
# Indices 1 2 3 4 5 6 
#
# 1 86.5472 44.1254 25.0208 0.0000 0.0000 0.0000
# 2 44.1254 86.5471 25.0207 0.0000 0.0000 0.0000
# 3 25.0208 25.0207 88.7910 0.0000 0.0000 0.0000
# 4 0.0000 0.0000 0.0000 22.7446 0.0000 0.0000
# 5 0.0000 0.0000 0.0000 0.0000 22.7445 0.0000
# 6 0.0000 0.0000 0.0000 0.0000 0.0000 27.2532
#
#
#
# Elastic Compliance Matrix: (Units=1/GPa)
#
#
# Indices 1 2 3 4 5 6 
#
# 1 0.016076 -0.007497 -0.002417 0.000000 0.000000 0.000000
# 2 -0.007497 0.016076 -0.002417 0.000000 0.000000 0.000000
# 3 -0.002417 -0.002417 0.012625 0.000000 0.000000 0.000000
# 4 0.000000 0.000000 0.000000 0.043967 0.000000 0.000000
# 5 0.000000 0.000000 0.000000 0.000000 0.043967 0.000000
# 6 0.000000 0.000000 0.000000 0.000000 0.000000 0.036693
#
#
# Mechanical properties :
#
#
# Convention : Reuss Voigt Hill
#
# Bulk Modulus (GPa) = 49.72087 50.02434 49.87260
# Shear Modulus (GPa) = 24.90412 25.72969 25.31690
#
# Velocity S-wave (km/s) = 3.50705 3.56471 3.53600
# Velocity P-wave (km/s) = 6.39960 6.45356 6.42664
#
# Compressibility (1/GPa) = 0.02011228
#
# Stress axis : x y z
#
# Youngs Moduli (GPa) = 62.20594 62.20590 79.20927
#
# Poissons Ratio (x) = 0.46637 0.19148
# Poissons Ratio (y) = 0.46637 0.19148
# Poissons Ratio (z) = 0.15037 0.15037
#
# Static dielectric constant tensor:
#      x y z
#    x 1.758730 0.000000 0.000000 
#    y 0.000000 1.758720 0.000000 
#    z 0.000000 0.000000 1.758660 
# 
# From -- ./inp_files/958.got.cif
#   From: 2010.05.17/outbox.cif.g08.bks.cpg/sg130_1_cif.got.tgz:958.got - 2010.05.20 12:17:35.
