data_PCOD9565247
_publ_section_title
;
Structure prediction by ZEFSAII (Michael W. Deem and Ramdas Pophale) SiO2 
 PCOD9565247
Probable space group: P 4/N M M
;
_chemical_formula_sum "Si O2"
_cell_formula_units_Z 96
_cell_length_a 18.243957
_cell_length_b 18.243957
_cell_length_c 18.237402
_cell_angle_alpha 90.000000
_cell_angle_beta 90.000000
_cell_angle_gamma 90.000000
_cell_volume 6070.172755
_symmetry_space_group_name_H-M "P 4/N M M"
_symmetry_group_IT_number 129
_symmetry_cell_setting 'tetragonal'
loop_
_space_group_symop_operation_xyz
x,y,z
1/2-y,x,z
1/2-x,1/2-y,z
y,1/2-x,z
1/2+x,-y,-z
-x,1/2+y,-z
1/2+y,1/2+x,-z
-y,-x,-z
-x,-y,-z
1/2+y,-x,-z
1/2+x,1/2+y,-z
-y,1/2+x,-z
1/2-x,y,z
x,1/2-y,z
1/2-y,1/2-x,z
y,x,z
loop_
_atom_site_type_symbol
_atom_site_label
_atom_site_fract_x
_atom_site_fract_y
_atom_site_fract_z
Si Si1 0.835929 0.052943 0.030741
Si Si2 0.834379 0.408779 0.562129
Si Si3 0.049981 0.927229 0.177514
Si Si4 0.539861 0.662837 0.884125
Si Si5 0.044314 0.335841 0.539287
Si Si6 0.163180 0.560562 0.675102
O O1 0.750000 0.061810 0.045767
O O2 0.881316 0.035309 0.103614
O O3 0.872721 0.127280 0.000000
O O4 0.844439 0.991658 0.967259
O O5 0.847166 0.347166 0.500000
O O6 0.750000 0.417241 0.579541
O O7 0.859245 0.482781 0.520322
O O8 0.878239 0.383269 0.632400
O O9 0.052315 0.872181 0.245580
O O10 0.123475 0.976399 0.164720
O O11 0.985305 0.985305 0.188751
O O12 0.548895 0.750000 0.868864
O O13 0.613506 0.613506 0.876690
O O14 0.058612 0.250000 0.528072
O O15 0.114985 0.385016 0.531891
O O16 0.008936 0.344017 0.620293
O O17 0.250000 0.578055 0.678556
#
# Coordination Sequence:
#
# PCOD9565247 Si02
#       6
#    16  16  16  16  16  16
#     4   9  17  30  48  69  94 123 155 190 229 277
#     4   9  18  31  47  67  91 120 153 188 228 275
#     4  10  19  31  48  68  93 126 158 189 227 271
#     4   9  18  32  49  69  91 117 153 194 235 278
#     4   9  18  32  49  70  95 123 157 194 231 272
#     4  10  20  31  46  71  98 123 153 188 227 273
#
# _framework density 15.815035999999999
#
# number of rings (size 3 to 8) (size 9 to 14) (size 15 to 20)
#    0.000    2.667    0.000    3.000    0.000    8.000 
#    0.000    0.000    0.000    3.000    0.000    0.000 
#    0.000   14.667    0.000    0.000    0.000    0.000 
#
# Total GULP energy -534606.514004 kJ/mol
# GULP energy per Si atom -5568.817854 kJ/mol
# Density = 1.577904 g / cm^3
# Si number density = 15.815036 Si / 1000 Ang^3
#
#
#
# Elastic Constant Matrix: (Units=GPa)
#
#
# Indices 1 2 3 4 5 6 
#
# 1 87.1607 62.1919 36.2776 0.0000 0.0000 0.0000
# 2 62.1919 87.1606 36.2779 0.0000 0.0000 0.0000
# 3 36.2776 36.2779 82.5288 0.0000 0.0000 0.0000
# 4 0.0000 0.0000 0.0000 14.8092 0.0000 0.0000
# 5 0.0000 0.0000 0.0000 0.0000 14.8095 0.0000
# 6 0.0000 0.0000 0.0000 0.0000 0.0000 14.8413
#
#
#
# Elastic Compliance Matrix: (Units=1/GPa)
#
#
# Indices 1 2 3 4 5 6 
#
# 1 0.024282 -0.015768 -0.003742 0.000000 0.000000 0.000000
# 2 -0.015768 0.024282 -0.003742 0.000000 0.000000 0.000000
# 3 -0.003742 -0.003742 0.015407 0.000000 0.000000 0.000000
# 4 0.000000 0.000000 0.000000 0.067525 0.000000 0.000000
# 5 0.000000 0.000000 0.000000 0.000000 0.067524 0.000000
# 6 0.000000 0.000000 0.000000 0.000000 0.000000 0.067380
#
#
# Mechanical properties :
#
#
# Convention : Reuss Voigt Hill
#
# Bulk Modulus (GPa) = 57.25803 58.48277 57.87040
# Shear Modulus (GPa) = 15.68737 17.03219 16.35978
#
# Velocity S-wave (km/s) = 3.15291 3.28527 3.21977
# Velocity P-wave (km/s) = 7.03831 7.17288 7.10591
#
# Compressibility (1/GPa) = 0.01746480
#
# Stress axis : x y z
#
# Youngs Moduli (GPa) = 41.18313 41.18293 64.90507
#
# Poissons Ratio (x) = 0.64938 0.24289
# Poissons Ratio (y) = 0.64939 0.24291
# Poissons Ratio (z) = 0.15412 0.15413
#
# Static dielectric constant tensor:
#      x y z
#    x 1.523770 0.000000 0.000000 
#    y 0.000000 1.523770 0.000000 
#    z 0.000000 0.000000 1.531420 
# 
# From -- ./inp_files/5659.got.cif
#   From: 2010.05.17/outbox.cif.g08.bks.cpg/sg129_3_cif.got.tgz:5659.got - 2010.05.20 12:12:06.
