data_PCOD9565162
_publ_section_title
;
Structure prediction by ZEFSAII (Michael W. Deem and Ramdas Pophale) SiO2 
 PCOD9565162
Probable space group: P 4/N M M
;
_chemical_formula_sum "Si O2"
_cell_formula_units_Z 128
_cell_length_a 20.131406
_cell_length_b 20.131406
_cell_length_c 18.131973
_cell_angle_alpha 90.000000
_cell_angle_beta 90.000000
_cell_angle_gamma 90.000000
_cell_volume 7348.408296
_symmetry_space_group_name_H-M "P 4/N M M"
_symmetry_group_IT_number 129
_symmetry_cell_setting 'tetragonal'
loop_
_space_group_symop_operation_xyz
x,y,z
1/2-y,x,z
1/2-x,1/2-y,z
y,1/2-x,z
1/2+x,-y,-z
-x,1/2+y,-z
1/2+y,1/2+x,-z
-y,-x,-z
-x,-y,-z
1/2+y,-x,-z
1/2+x,1/2+y,-z
-y,1/2+x,-z
1/2-x,y,z
x,1/2-y,z
1/2-y,1/2-x,z
y,x,z
loop_
_atom_site_type_symbol
_atom_site_label
_atom_site_fract_x
_atom_site_fract_y
_atom_site_fract_z
Si Si1 0.324433 0.823408 0.283305
Si Si2 0.894834 0.008068 0.037549
Si Si3 0.175835 0.064216 0.093345
Si Si4 0.996048 0.612960 0.628149
Si Si5 0.863315 0.047271 0.358572
Si Si6 0.507383 0.400471 0.799481
Si Si7 0.460552 0.854678 0.781827
Si Si8 0.560019 0.673317 0.479853
O O1 0.250000 0.828872 0.313786
O O2 0.331903 0.750000 0.249934
O O3 0.380281 0.831168 0.346299
O O4 0.333157 0.883521 0.225098
O O5 0.957341 0.957341 0.046015
O O6 0.867888 0.017014 0.120417
O O7 0.844593 0.973097 0.981918
O O8 0.926103 0.073898 0.000000
O O9 0.250000 0.092053 0.088687
O O10 0.120619 0.120619 0.107770
O O11 0.173746 0.008146 0.156701
O O12 0.934071 0.565930 0.645110
O O13 0.977761 0.653436 0.555436
O O14 0.060648 0.565433 0.619504
O O15 0.011209 0.656772 0.699965
O O16 0.860234 0.017337 0.275666
O O17 0.835004 0.994687 0.415444
O O18 0.437282 0.437282 0.795843
O O19 0.566225 0.455303 0.795439
O O20 0.582478 0.750000 0.482563
O O21 0.620506 0.620506 0.469978
#
# Coordination Sequence:
#
# PCOD9565162 Si02
#       8
#    16  16  16  16  16  16  16  16
#     4   9  18  32  49  73 107 141 171 207 258 325
#     4   9  16  29  51  75 102 130 165 214 268 319
#     4  11  22  35  53  78 109 146 189 234 279 328
#     4   9  18  32  52  78 106 132 166 216 275 328
#     4  10  19  32  55  81 106 135 174 218 269 328
#     4   9  15  27  51  79 106 132 162 213 272 318
#     4  10  18  31  54  80 104 138 182 219 260 322
#     4  11  23  38  55  76 105 142 185 235 283 328
#
# _framework density 17.418738000000001
#
# number of rings (size 3 to 8) (size 9 to 14) (size 15 to 20)
#    0.000    2.500    1.250    4.125    0.000    3.750 
#    0.000    3.125    0.000    0.750    0.000    8.750 
#    0.000    3.000    0.000    0.000    0.000    0.000 
#
# Total GULP energy -712712.403136 kJ/mol
# GULP energy per Si atom -5568.065650 kJ/mol
# Density = 1.737909 g / cm^3
# Si number density = 17.418738 Si / 1000 Ang^3
#
#
#
# Elastic Constant Matrix: (Units=GPa)
#
#
# Indices 1 2 3 4 5 6 
#
# 1 74.6942 49.2934 46.1625 0.0000 0.0000 0.0000
# 2 49.2934 74.6936 46.1624 0.0000 0.0000 0.0000
# 3 46.1625 46.1624 120.6897 0.0000 0.0000 0.0000
# 4 0.0000 0.0000 0.0000 10.9852 0.0000 0.0000
# 5 0.0000 0.0000 0.0000 0.0000 10.9854 0.0000
# 6 0.0000 0.0000 0.0000 0.0000 0.0000 15.1245
#
#
#
# Elastic Compliance Matrix: (Units=1/GPa)
#
#
# Indices 1 2 3 4 5 6 
#
# 1 0.025323 -0.014046 -0.004313 0.000000 0.000000 0.000000
# 2 -0.014046 0.025323 -0.004313 0.000000 0.000000 0.000000
# 3 -0.004313 -0.004313 0.011585 0.000000 0.000000 0.000000
# 4 0.000000 0.000000 0.000000 0.091032 0.000000 0.000000
# 5 0.000000 0.000000 0.000000 0.000000 0.091030 0.000000
# 6 0.000000 0.000000 0.000000 0.000000 0.000000 0.066118
#
#
# Mechanical properties :
#
#
# Convention : Reuss Voigt Hill
#
# Bulk Modulus (GPa) = 59.21997 61.47935 60.34966
# Shear Modulus (GPa) = 13.83562 15.98296 14.90929
#
# Velocity S-wave (km/s) = 2.82138 3.03243 2.92881
# Velocity P-wave (km/s) = 6.68470 6.90163 6.79403
#
# Compressibility (1/GPa) = 0.01688620
#
# Stress axis : x y z
#
# Youngs Moduli (GPa) = 39.48954 39.48919 86.31564
#
# Poissons Ratio (x) = 0.55467 0.37231
# Poissons Ratio (y) = 0.55467 0.37232
# Poissons Ratio (z) = 0.17033 0.17033
#
# Static dielectric constant tensor:
#      x y z
#    x 1.608120 0.000000 0.000000 
#    y 0.000000 1.608120 0.000000 
#    z 0.000000 0.000000 1.610320 
# 
# From -- ./inp_files/6150.got.cif
#   From: 2010.05.17/outbox.cif.g08.bks.cpg/sg129_4_cif.got.tgz:6150.got - 2010.05.20 12:12:06.
