data_PCOD9565886
_publ_section_title
;
Structure prediction by ZEFSAII (Michael W. Deem and Ramdas Pophale) SiO2 
 PCOD9565886
Probable space group: P 4/N C C
;
_chemical_formula_sum "Si O2"
_cell_formula_units_Z 112
_cell_length_a 14.317937
_cell_length_b 14.317937
_cell_length_c 29.504123
_cell_angle_alpha 90.000000
_cell_angle_beta 90.000000
_cell_angle_gamma 90.000000
_cell_volume 6048.443167
_symmetry_space_group_name_H-M "P 4/N C C"
_symmetry_group_IT_number 130
_symmetry_cell_setting 'tetragonal'
loop_
_space_group_symop_operation_xyz
x,y,z
1/2-y,x,z
1/2-x,1/2-y,z
y,1/2-x,z
1/2+x,-y,1/2-z
-x,1/2+y,1/2-z
1/2+y,1/2+x,1/2-z
-y,-x,1/2-z
-x,-y,-z
1/2+y,-x,-z
1/2+x,1/2+y,-z
-y,1/2+x,-z
1/2-x,y,1/2+z
x,1/2-y,1/2+z
1/2-y,1/2-x,1/2+z
y,x,1/2+z
loop_
_atom_site_type_symbol
_atom_site_label
_atom_site_fract_x
_atom_site_fract_y
_atom_site_fract_z
Si Si1 0.642886 0.142886 0.750000
Si Si2 0.094669 0.284262 0.093510
Si Si3 0.638085 0.138085 0.250000
Si Si4 0.903608 0.785697 0.506176
Si Si5 0.210615 0.404196 0.393201
Si Si6 0.639813 0.858999 0.748321
Si Si7 0.610814 0.510448 0.829629
Si Si8 0.994246 0.090650 0.325118
O O1 0.624134 0.251802 0.757152
O O2 0.598725 0.097641 0.794909
O O3 0.142819 0.182263 0.097492
O O4 0.022000 0.310455 0.132536
O O5 0.050815 0.295133 0.043136
O O6 0.574408 0.118530 0.206063
O O7 0.816637 0.857018 0.506075
O O8 0.946157 0.797160 0.556006
O O9 0.140657 0.314149 0.387772
O O10 0.177256 0.480201 0.357075
O O11 0.623094 0.749347 0.742007
O O12 0.602244 0.882288 0.797909
O O13 0.588321 0.923105 0.712226
O O14 0.507625 0.505985 0.850938
#
# Coordination Sequence:
#
# PCOD9565886 Si02
#       8
#     8  16   8  16  16  16  16  16
#     4  11  25  42  54  64  95 149 196 230 260 299
#     4   9  18  32  56  85 112 140 169 213 274 333
#     4  11  25  42  54  64  95 149 196 230 260 299
#     4   7  12  28  51  80 114 141 164 198 264 343
#     4   9  18  32  56  85 112 140 169 213 274 333
#     4  11  21  34  54  78 107 133 162 218 284 337
#     4  12  22  34  51  78 105 139 179 220 265 313
#     4  12  22  34  51  78 105 139 179 220 265 313
#
# _framework density 18.517161999999999
#
# number of rings (size 3 to 8) (size 9 to 14) (size 15 to 20)
#    0.000    1.857    2.857    4.286    4.000    2.286 
#    0.000    0.714    0.000    0.000    0.000    0.000 
#    0.000    2.286    0.000    0.000    0.000    0.000 
#
# Total GULP energy -624143.834691 kJ/mol
# GULP energy per Si atom -5572.712810 kJ/mol
# Density = 1.847502 g / cm^3
# Si number density = 18.517162 Si / 1000 Ang^3
#
#
#
# Elastic Constant Matrix: (Units=GPa)
#
#
# Indices 1 2 3 4 5 6 
#
# 1 39.9362 9.3366 5.7335 0.0000 0.0000 0.0000
# 2 9.3366 39.9362 5.7335 0.0000 0.0000 0.0000
# 3 5.7335 5.7335 104.5959 0.0000 0.0000 0.0000
# 4 0.0000 0.0000 0.0000 15.0563 0.0000 0.0000
# 5 0.0000 0.0000 0.0000 0.0000 15.0563 0.0000
# 6 0.0000 0.0000 0.0000 0.0000 0.0000 9.7402
#
#
#
# Elastic Compliance Matrix: (Units=1/GPa)
#
#
# Indices 1 2 3 4 5 6 
#
# 1 0.026619 -0.006061 -0.001127 0.000000 0.000000 0.000000
# 2 -0.006061 0.026619 -0.001127 0.000000 0.000000 0.000000
# 3 -0.001127 -0.001127 0.009684 0.000000 0.000000 0.000000
# 4 0.000000 0.000000 0.000000 0.066417 0.000000 0.000000
# 5 0.000000 0.000000 0.000000 0.000000 0.066417 0.000000
# 6 0.000000 0.000000 0.000000 0.000000 0.000000 0.102667
#
#
# Mechanical properties :
#
#
# Convention : Reuss Voigt Hill
#
# Bulk Modulus (GPa) = 21.60224 25.11951 23.36088
# Shear Modulus (GPa) = 15.12931 18.88153 17.00542
#
# Velocity S-wave (km/s) = 2.86150 3.19670 3.03373
# Velocity P-wave (km/s) = 4.75489 5.21730 4.99145
#
# Compressibility (1/GPa) = 0.04629149
#
# Stress axis : x y z
#
# Youngs Moduli (GPa) = 37.56745 37.56745 103.26154
#
# Poissons Ratio (x) = 0.22771 0.11636
# Poissons Ratio (y) = 0.22771 0.11636
# Poissons Ratio (z) = 0.04233 0.04233
#
# Static dielectric constant tensor:
#      x y z
#    x 1.676660 0.000000 0.000000 
#    y 0.000000 1.676660 0.000000 
#    z 0.000000 0.000000 1.681310 
# 
# From -- ./inp_files/4635.got.cif
#   From: 2010.05.17/outbox.cif.g08.bks.cpg/sg130_3_cif.got.tgz:4635.got - 2010.05.20 12:17:35.
