data_PCOD9565266
_publ_section_title
;
Structure prediction by ZEFSAII (Michael W. Deem and Ramdas Pophale) SiO2 
 PCOD9565266
Probable space group: P 4/N M M
;
_chemical_formula_sum "Si O2"
_cell_formula_units_Z 96
_cell_length_a 18.583308
_cell_length_b 18.583308
_cell_length_c 16.786397
_cell_angle_alpha 90.000000
_cell_angle_beta 90.000000
_cell_angle_gamma 90.000000
_cell_volume 5797.003198
_symmetry_space_group_name_H-M "P 4/N M M"
_symmetry_group_IT_number 129
_symmetry_cell_setting 'tetragonal'
loop_
_space_group_symop_operation_xyz
x,y,z
1/2-y,x,z
1/2-x,1/2-y,z
y,1/2-x,z
1/2+x,-y,-z
-x,1/2+y,-z
1/2+y,1/2+x,-z
-y,-x,-z
-x,-y,-z
1/2+y,-x,-z
1/2+x,1/2+y,-z
-y,1/2+x,-z
1/2-x,y,z
x,1/2-y,z
1/2-y,1/2-x,z
y,x,z
loop_
_atom_site_type_symbol
_atom_site_label
_atom_site_fract_x
_atom_site_fract_y
_atom_site_fract_z
Si Si1 0.978467 0.404006 0.822152
Si Si2 0.670636 0.947735 0.869353
Si Si3 0.666269 0.440788 0.735823
Si Si4 0.332985 0.943994 0.983923
Si Si5 0.550045 0.834000 0.322544
Si Si6 0.439179 0.559694 0.406859
O O1 0.897189 0.401318 0.786834
O O2 0.977927 0.379997 0.913206
O O3 0.017645 0.482356 0.812854
O O4 0.025717 0.350586 0.768109
O O5 0.750000 0.916622 0.881552
O O6 0.609914 0.890087 0.880099
O O7 0.667751 0.983316 0.782135
O O8 0.661301 0.010085 0.935251
O O9 0.750000 0.414316 0.737494
O O10 0.631934 0.444415 0.647800
O O11 0.250000 0.941571 0.959922
O O12 0.365840 0.865840 0.000000
O O13 0.552157 0.750000 0.339029
O O14 0.625236 0.874765 0.336636
O O15 0.490139 0.876770 0.373512
O O16 0.427116 0.572885 0.500000
O O17 0.486640 0.486640 0.397603
#
# Coordination Sequence:
#
# PCOD9565266 Si02
#       6
#    16  16  16  16  16  16
#     4  10  19  33  54  73  98 136 178 219 257 301
#     4  10  20  33  50  74 103 135 173 214 259 311
#     4  10  19  31  50  77 103 126 162 210 260 307
#     4  11  22  33  49  73  99 134 177 219 264 310
#     4   9  18  32  51  76 103 132 167 210 260 313
#     4   9  18  33  53  75  99 132 174 211 249 301
#
# _framework density 16.560282000000001
#
# number of rings (size 3 to 8) (size 9 to 14) (size 15 to 20)
#    0.000    2.167    1.667    3.500    0.000    1.833 
#    0.000    0.000    0.000   12.000    0.000    7.000 
#    0.000    4.000    0.000    0.000    0.000    0.000 
#
# Total GULP energy -534601.669295 kJ/mol
# GULP energy per Si atom -5568.767388 kJ/mol
# Density = 1.652259 g / cm^3
# Si number density = 16.560282 Si / 1000 Ang^3
#
#
#
# Elastic Constant Matrix: (Units=GPa)
#
#
# Indices 1 2 3 4 5 6 
#
# 1 89.7803 33.8146 21.6985 0.0000 0.0000 0.0000
# 2 33.8146 89.7801 21.6984 0.0000 0.0000 0.0000
# 3 21.6985 21.6984 95.2236 0.0000 0.0000 0.0000
# 4 0.0000 0.0000 0.0000 16.3329 0.0000 0.0000
# 5 0.0000 0.0000 0.0000 0.0000 16.3329 0.0000
# 6 0.0000 0.0000 0.0000 0.0000 0.0000 11.1172
#
#
#
# Elastic Compliance Matrix: (Units=1/GPa)
#
#
# Indices 1 2 3 4 5 6 
#
# 1 0.013331 -0.004537 -0.002004 0.000000 0.000000 0.000000
# 2 -0.004537 0.013331 -0.002004 0.000000 0.000000 0.000000
# 3 -0.002004 -0.002004 0.011415 0.000000 0.000000 0.000000
# 4 0.000000 0.000000 0.000000 0.061226 0.000000 0.000000
# 5 0.000000 0.000000 0.000000 0.000000 0.061226 0.000000
# 6 0.000000 0.000000 0.000000 0.000000 0.000000 0.089950
#
#
# Mechanical properties :
#
#
# Convention : Reuss Voigt Hill
#
# Bulk Modulus (GPa) = 47.64614 47.68968 47.66791
# Shear Modulus (GPa) = 18.21056 21.92810 20.06933
#
# Velocity S-wave (km/s) = 3.31970 3.64282 3.48501
# Velocity P-wave (km/s) = 6.59755 6.82302 6.71123
#
# Compressibility (1/GPa) = 0.02098806
#
# Stress axis : x y z
#
# Youngs Moduli (GPa) = 75.01117 75.01100 87.60482
#
# Poissons Ratio (x) = 0.34031 0.17556
# Poissons Ratio (y) = 0.34031 0.17556
# Poissons Ratio (z) = 0.15032 0.15032
#
# Static dielectric constant tensor:
#      x y z
#    x 1.557050 0.000000 0.000000 
#    y 0.000000 1.557050 0.000000 
#    z 0.000000 0.000000 1.575100 
# 
# From -- ./inp_files/5697.got.cif
#   From: 2010.05.17/outbox.cif.g08.bks.cpg/sg129_3_cif.got.tgz:5697.got - 2010.05.20 12:12:06.
