data_PCOD9565626
_publ_section_title
;
Structure prediction by ZEFSAII (Michael W. Deem and Ramdas Pophale) SiO2 
 PCOD9565626
Probable space group: P 4/N C C
;
_chemical_formula_sum "Si O2"
_cell_formula_units_Z 88
_cell_length_a 11.290668
_cell_length_b 11.290668
_cell_length_c 33.091767
_cell_angle_alpha 90.000000
_cell_angle_beta 90.000000
_cell_angle_gamma 90.000000
_cell_volume 4218.511451
_symmetry_space_group_name_H-M "P 4/N C C"
_symmetry_group_IT_number 130
_symmetry_cell_setting 'tetragonal'
loop_
_space_group_symop_operation_xyz
x,y,z
1/2-y,x,z
1/2-x,1/2-y,z
y,1/2-x,z
1/2+x,-y,1/2-z
-x,1/2+y,1/2-z
1/2+y,1/2+x,1/2-z
-y,-x,1/2-z
-x,-y,-z
1/2+y,-x,-z
1/2+x,1/2+y,-z
-y,1/2+x,-z
1/2-x,y,1/2+z
x,1/2-y,1/2+z
1/2-y,1/2-x,1/2+z
y,x,1/2+z
loop_
_atom_site_type_symbol
_atom_site_label
_atom_site_fract_x
_atom_site_fract_y
_atom_site_fract_z
Si Si1 0.500006 0.499995 0.750000
Si Si2 0.667214 0.567895 0.954852
Si Si3 0.000001 0.999996 0.110693
Si Si4 0.572281 0.840032 0.319104
Si Si5 0.832787 0.567896 0.545148
Si Si6 0.659975 0.572276 0.680896
O O1 0.387962 0.495247 0.720131
O O2 0.612049 0.504744 0.720130
O O3 0.805319 0.599706 0.951598
O O4 0.612690 0.492577 0.918906
O O5 0.645993 0.519445 1.000000
O O6 0.887312 0.007420 0.081094
O O7 0.988633 0.888038 0.140449
O O8 0.011370 0.111953 0.140450
O O9 0.596449 0.701187 0.318487
O O10 0.900295 0.694682 0.548402
O O11 0.798820 0.596451 0.681513
#
# Coordination Sequence:
#
# PCOD9565626 Si02
#       6
#     8  16  16  16  16  16
#     4  10  20  34  62  86  98 126 170 214 256 300
#     4   9  18  33  53  76 102 136 180 223 258 299
#     4  11  19  29  53  82 106 134 173 217 259 301
#     4  10  21  37  57  80 105 134 171 212 252 303
#     4   9  18  33  53  76 102 136 180 223 258 299
#     4  10  21  37  57  80 105 134 171 212 252 303
#
# _framework density 20.860437000000001
#
# number of rings (size 3 to 8) (size 9 to 14) (size 15 to 20)
#    0.000    2.182    0.000    4.909    0.000    4.364 
#    0.000    0.000    0.000   82.909    0.000   20.364 
#    0.000    0.000    0.000    0.000    0.000    0.000 
#
# Total GULP energy -491545.642599 kJ/mol
# GULP energy per Si atom -5585.745939 kJ/mol
# Density = 2.081296 g / cm^3
# Si number density = 20.860437 Si / 1000 Ang^3
#
#
#
# Elastic Constant Matrix: (Units=GPa)
#
#
# Indices 1 2 3 4 5 6 
#
# 1 48.3814 36.1192 46.9200 0.0000 0.0000 0.0000
# 2 36.1192 48.3814 46.9200 0.0000 0.0000 0.0000
# 3 46.9200 46.9200 184.0465 0.0000 0.0000 0.0000
# 4 0.0000 0.0000 0.0000 19.7181 0.0000 0.0000
# 5 0.0000 0.0000 0.0000 0.0000 19.7181 0.0000
# 6 0.0000 0.0000 0.0000 0.0000 0.0000 36.3699
#
#
#
# Elastic Compliance Matrix: (Units=1/GPa)
#
#
# Indices 1 2 3 4 5 6 
#
# 1 0.049030 -0.032522 -0.004208 0.000000 0.000000 0.000000
# 2 -0.032522 0.049030 -0.004208 0.000000 0.000000 0.000000
# 3 -0.004208 -0.004208 0.007579 0.000000 0.000000 0.000000
# 4 0.000000 0.000000 0.000000 0.050715 0.000000 0.000000
# 5 0.000000 0.000000 0.000000 0.000000 0.050715 0.000000
# 6 0.000000 0.000000 0.000000 0.000000 0.000000 0.027495
#
#
# Mechanical properties :
#
#
# Convention : Reuss Voigt Hill
#
# Bulk Modulus (GPa) = 42.08569 60.08088 51.08328
# Shear Modulus (GPa) = 15.41493 25.21791 20.31642
#
# Velocity S-wave (km/s) = 2.72132 3.48068 3.12416
# Velocity P-wave (km/s) = 5.48569 6.70950 6.12822
#
# Compressibility (1/GPa) = 0.02376105
#
# Stress axis : x y z
#
# Youngs Moduli (GPa) = 20.39583 20.39583 131.94070
#
# Poissons Ratio (x) = 0.66331 0.55526
# Poissons Ratio (y) = 0.66331 0.55526
# Poissons Ratio (z) = 0.08583 0.08583
#
# Static dielectric constant tensor:
#      x y z
#    x 1.746410 0.000000 0.000000 
#    y 0.000000 1.746410 0.000000 
#    z 0.000000 0.000000 1.772800 
# 
# From -- ./inp_files/4843.got.cif
#   From: 2010.05.17/outbox.cif.g08.bks.cpg/sg130_3_cif.got.tgz:4843.got - 2010.05.20 12:17:35.
