data_PCOD9565232
_publ_section_title
;
Structure prediction by ZEFSAII (Michael W. Deem and Ramdas Pophale) SiO2 
 PCOD9565232
Probable space group: P 4/N M M
;
_chemical_formula_sum "Si O2"
_cell_formula_units_Z 80
_cell_length_a 18.329450
_cell_length_b 18.329450
_cell_length_c 14.256339
_cell_angle_alpha 90.000000
_cell_angle_beta 90.000000
_cell_angle_gamma 90.000000
_cell_volume 4789.684212
_symmetry_space_group_name_H-M "P 4/N M M"
_symmetry_group_IT_number 129
_symmetry_cell_setting 'tetragonal'
loop_
_space_group_symop_operation_xyz
x,y,z
1/2-y,x,z
1/2-x,1/2-y,z
y,1/2-x,z
1/2+x,-y,-z
-x,1/2+y,-z
1/2+y,1/2+x,-z
-y,-x,-z
-x,-y,-z
1/2+y,-x,-z
1/2+x,1/2+y,-z
-y,1/2+x,-z
1/2-x,y,z
x,1/2-y,z
1/2-y,1/2-x,z
y,x,z
loop_
_atom_site_type_symbol
_atom_site_label
_atom_site_fract_x
_atom_site_fract_y
_atom_site_fract_z
Si Si1 0.334465 0.557866 0.781123
Si Si2 0.666364 0.548292 0.056368
Si Si3 0.402705 0.977834 0.116736
Si Si4 0.936737 0.058426 0.391744
Si Si5 0.334602 0.450342 0.290804
O O1 0.250000 0.583830 0.783726
O O2 0.335676 0.481504 0.837523
O O3 0.396597 0.600987 0.840827
O O4 0.367145 0.553586 0.676638
O O5 0.750000 0.553883 0.027740
O O6 0.622714 0.622714 0.047123
O O7 0.625365 0.490870 0.988097
O O8 0.483127 0.016874 0.126464
O O9 0.351038 0.026501 0.183653
O O10 0.923173 0.076828 0.500000
O O11 0.990325 0.120062 0.350112
O O12 0.983026 0.983026 0.387129
O O13 0.250000 0.451189 0.311698
O O14 0.372905 0.372905 0.307706
#
# Coordination Sequence:
#
# PCOD9565232 Si02
#       5
#    16  16  16  16  16
#     4  10  19  30  48  74  97 119 157 207 254 296
#     4  10  19  30  48  74 103 136 168 199 239 286
#     4   9  17  31  49  68  95 132 171 204 235 281
#     4   9  18  33  51  69  92 125 165 205 243 288
#     4   9  17  29  47  71  96 123 155 193 240 291
#
# _framework density 16.702562
#
# number of rings (size 3 to 8) (size 9 to 14) (size 15 to 20)
#    0.000    2.600    0.000    4.200    0.000    2.800 
#    0.000    0.000    0.000   18.600    0.000   19.600 
#    0.000    4.800    0.000    0.000    0.000    0.200 
#
# Total GULP energy -445428.776131 kJ/mol
# GULP energy per Si atom -5567.859702 kJ/mol
# Density = 1.666455 g / cm^3
# Si number density = 16.702562 Si / 1000 Ang^3
#
#
#
# Elastic Constant Matrix: (Units=GPa)
#
#
# Indices 1 2 3 4 5 6 
#
# 1 105.2312 28.4946 27.8304 0.0000 0.0000 0.0000
# 2 28.4946 105.2309 27.8301 0.0000 0.0000 0.0000
# 3 27.8304 27.8301 115.1012 0.0000 0.0000 0.0000
# 4 0.0000 0.0000 0.0000 16.5045 0.0000 0.0000
# 5 0.0000 0.0000 0.0000 0.0000 16.5046 0.0000
# 6 0.0000 0.0000 0.0000 0.0000 0.0000 9.4193
#
#
#
# Elastic Compliance Matrix: (Units=1/GPa)
#
#
# Indices 1 2 3 4 5 6 
#
# 1 0.010673 -0.002358 -0.002010 0.000000 0.000000 0.000000
# 2 -0.002358 0.010673 -0.002010 0.000000 0.000000 0.000000
# 3 -0.002010 -0.002010 0.009660 0.000000 0.000000 0.000000
# 4 0.000000 0.000000 0.000000 0.060589 0.000000 0.000000
# 5 0.000000 0.000000 0.000000 0.000000 0.060589 0.000000
# 6 0.000000 0.000000 0.000000 0.000000 0.000000 0.106165
#
#
# Mechanical properties :
#
#
# Convention : Reuss Voigt Hill
#
# Bulk Modulus (GPa) = 54.80027 54.87482 54.83755
# Shear Modulus (GPa) = 18.03808 24.57958 21.30883
#
# Velocity S-wave (km/s) = 3.28984 3.84031 3.57568
# Velocity P-wave (km/s) = 6.87833 7.25186 7.06756
#
# Compressibility (1/GPa) = 0.01824809
#
# Stress axis : x y z
#
# Youngs Moduli (GPa) = 93.69269 93.69253 103.51749
#
# Poissons Ratio (x) = 0.22097 0.20812
# Poissons Ratio (y) = 0.22097 0.20811
# Poissons Ratio (z) = 0.18836 0.18836
#
# Static dielectric constant tensor:
#      x y z
#    x 1.566730 0.000000 0.000000 
#    y 0.000000 1.566730 0.000000 
#    z 0.000000 0.000000 1.606640 
# 
# From -- ./inp_files/4566.got.cif
#   From: 2010.05.17/outbox.cif.g08.bks.cpg/sg129_3_cif.got.tgz:4566.got - 2010.05.20 12:12:06.
