data_PCOD9565031
_publ_section_title
;
Structure prediction by ZEFSAII (Michael W. Deem and Ramdas Pophale) SiO2 
 PCOD9565031
Probable space group: P 4/M N C
;
_chemical_formula_sum "Si O2"
_cell_formula_units_Z 48
_cell_length_a 7.939663
_cell_length_b 7.939663
_cell_length_c 34.172213
_cell_angle_alpha 90.000000
_cell_angle_beta 90.000000
_cell_angle_gamma 90.000000
_cell_volume 2154.156457
_symmetry_space_group_name_H-M "P 4/M N C"
_symmetry_group_IT_number 128
_symmetry_cell_setting 'tetragonal'
loop_
_space_group_symop_operation_xyz
x,y,z
-y,x,z
-x,-y,z
y,-x,z
1/2+x,1/2-y,1/2-z
1/2-x,1/2+y,1/2-z
1/2+y,1/2+x,1/2-z
1/2-y,1/2-x,1/2-z
-x,-y,-z
y,-x,-z
x,y,-z
-y,x,-z
1/2-x,1/2+y,1/2+z
1/2+x,1/2-y,1/2+z
1/2-y,1/2-x,1/2+z
1/2+y,1/2+x,1/2+z
loop_
_atom_site_type_symbol
_atom_site_label
_atom_site_fract_x
_atom_site_fract_y
_atom_site_fract_z
Si Si1 0.266199 0.097159 0.290315
Si Si2 0.500000 0.000000 0.355208
Si Si3 0.265939 0.901854 0.500000
Si Si4 0.905558 0.733635 0.919984
O O1 0.358700 0.141301 0.250000
O O2 0.391396 0.118943 0.326709
O O3 0.097406 0.207921 0.291852
O O4 0.618849 0.107481 0.383931
O O5 0.366402 0.854783 0.538988
O O6 0.094934 0.791564 0.500000
O O7 0.099208 0.793118 0.917917
#
# Coordination Sequence:
#
# PCOD9565031 Si02
#       4
#    16   8   8  16
#     4  11  24  43  68  96 129 171 217 267 324 387
#     4  12  23  41  64  94 132 166 210 263 319 384
#     4  11  24  43  66  91 122 164 212 261 316 379
#     4  11  24  41  64  93 126 166 210 260 317 377
#
# _framework density 22.282506000000001
#
# number of rings (size 3 to 8) (size 9 to 14) (size 15 to 20)
#    0.000    0.833    0.000    7.500    0.000    3.333 
#    0.000    6.667    0.000    0.000    0.000    0.000 
#    0.000    0.000    0.000    0.000    0.000    0.000 
#
# Total GULP energy -268963.909231 kJ/mol
# GULP energy per Si atom -5603.414776 kJ/mol
# Density = 2.223179 g / cm^3
# Si number density = 22.282506 Si / 1000 Ang^3
#
#
#
# Elastic Constant Matrix: (Units=GPa)
#
#
# Indices 1 2 3 4 5 6 
#
# 1 79.7947 16.6475 45.5887 0.0000 0.0000 0.0000
# 2 16.6475 79.7948 45.5886 0.0000 0.0000 0.0000
# 3 45.5887 45.5886 200.6859 0.0000 0.0000 0.0000
# 4 0.0000 0.0000 0.0000 34.4225 0.0000 0.0000
# 5 0.0000 0.0000 0.0000 0.0000 34.4226 0.0000
# 6 0.0000 0.0000 0.0000 0.0000 0.0000 37.6330
#
#
#
# Elastic Compliance Matrix: (Units=1/GPa)
#
#
# Indices 1 2 3 4 5 6 
#
# 1 0.014520 -0.001316 -0.003000 0.000000 0.000000 0.000000
# 2 -0.001316 0.014520 -0.003000 0.000000 0.000000 0.000000
# 3 -0.003000 -0.003000 0.006346 0.000000 0.000000 0.000000
# 4 0.000000 0.000000 0.000000 0.029051 0.000000 0.000000
# 5 0.000000 0.000000 0.000000 0.000000 0.029051 0.000000
# 6 0.000000 0.000000 0.000000 0.000000 0.000000 0.026572
#
#
# Mechanical properties :
#
#
# Convention : Reuss Voigt Hill
#
# Bulk Modulus (GPa) = 48.17718 63.99166 56.08442
# Shear Modulus (GPa) = 35.30846 38.12567 36.71706
#
# Velocity S-wave (km/s) = 3.98500 4.14093 4.06371
# Velocity P-wave (km/s) = 6.54535 7.18636 6.87333
#
# Compressibility (1/GPa) = 0.02075672
#
# Stress axis : x y z
#
# Youngs Moduli (GPa) = 68.86854 68.86868 157.58601
#
# Poissons Ratio (x) = 0.09060 0.47270
# Poissons Ratio (y) = 0.09060 0.47270
# Poissons Ratio (z) = 0.20658 0.20658
#
# Static dielectric constant tensor:
#      x y z
#    x 1.831390 0.000000 0.000000 
#    y 0.000000 1.831390 0.000000 
#    z 0.000000 0.000000 1.764700 
# 
# From -- ./inp_files/7031.got.cif
#   From: 2010.05.17/outbox.cif.g08.bks.cpg/sg128_4_cif.got.tgz:7031.got - 2010.05.20 12:07:25.
