data_PCOD9565583
_publ_section_title
;
Structure prediction by ZEFSAII (Michael W. Deem and Ramdas Pophale) SiO2 
 PCOD9565583
Probable space group: P 4/N C C
;
_chemical_formula_sum "Si O2"
_cell_formula_units_Z 40
_cell_length_a 15.529710
_cell_length_b 15.529710
_cell_length_c 5.457500
_cell_angle_alpha 90.000000
_cell_angle_beta 90.000000
_cell_angle_gamma 90.000000
_cell_volume 1316.195604
_symmetry_space_group_name_H-M "P 4/N C C"
_symmetry_group_IT_number 130
_symmetry_cell_setting 'tetragonal'
loop_
_space_group_symop_operation_xyz
x,y,z
1/2-y,x,z
1/2-x,1/2-y,z
y,1/2-x,z
1/2+x,-y,1/2-z
-x,1/2+y,1/2-z
1/2+y,1/2+x,1/2-z
-y,-x,1/2-z
-x,-y,-z
1/2+y,-x,-z
1/2+x,1/2+y,-z
-y,1/2+x,-z
1/2-x,y,1/2+z
x,1/2-y,1/2+z
1/2-y,1/2-x,1/2+z
y,x,1/2+z
loop_
_atom_site_type_symbol
_atom_site_label
_atom_site_fract_x
_atom_site_fract_y
_atom_site_fract_z
Si Si1 0.294410 0.582564 0.074974
Si Si2 0.350643 0.396184 0.167097
Si Si3 0.949114 0.050887 0.250000
O O1 0.257487 0.616096 0.334545
O O2 0.290495 0.479151 0.125624
O O3 0.392786 0.584963 0.977625
O O4 0.338230 0.351632 0.426810
O O5 0.452002 0.427424 0.197498
#
# Coordination Sequence:
#
# PCOD9565583 Si02
#       3
#    16  16   8
#     4  11  22  34  54  87 120 147 194 254 291 337
#     4  10  19  34  57  82 112 151 190 232 298 360
#     4  10  22  40  62  83 118 165 198 238 312 370
#
# _framework density 30.390619999999998
#
# number of rings (size 3 to 8) (size 9 to 14) (size 15 to 20)
#    0.000    1.600    0.000    9.600    0.000    8.000 
#    0.000    2.000    0.000    3.600    0.000    0.000 
#    0.000  896.000    0.000    0.000    0.000    0.000 
#
# Total GULP energy -223909.210677 kJ/mol
# GULP energy per Si atom -5597.730267 kJ/mol
# Density = 3.032145 g / cm^3
# Si number density = 30.390620 Si / 1000 Ang^3
#
#
#
# Elastic Constant Matrix: (Units=GPa)
#
#
# Indices 1 2 3 4 5 6 
#
# 1 145.9895 0.5935 38.9136 0.0000 0.0000 0.0000
# 2 0.5935 145.9870 38.9138 0.0000 0.0000 0.0000
# 3 38.9136 38.9138 332.9096 0.0000 0.0000 0.0000
# 4 0.0000 0.0000 0.0000 41.2845 0.0000 0.0000
# 5 0.0000 0.0000 0.0000 0.0000 41.2853 0.0000
# 6 0.0000 0.0000 0.0000 0.0000 0.0000 40.2338
#
#
#
# Elastic Compliance Matrix: (Units=1/GPa)
#
#
# Indices 1 2 3 4 5 6 
#
# 1 0.007076 0.000198 -0.000850 0.000000 0.000000 0.000000
# 2 0.000198 0.007076 -0.000850 0.000000 0.000000 0.000000
# 3 -0.000850 -0.000850 0.003203 0.000000 0.000000 0.000000
# 4 0.000000 0.000000 0.000000 0.024222 0.000000 0.000000
# 5 0.000000 0.000000 0.000000 0.000000 0.024222 0.000000
# 6 0.000000 0.000000 0.000000 0.000000 0.000000 0.024855
#
#
# Mechanical properties :
#
#
# Convention : Reuss Voigt Hill
#
# Bulk Modulus (GPa) = 69.69194 86.85866 78.27530
# Shear Modulus (GPa) = 50.79205 60.99172 55.89189
#
# Velocity S-wave (km/s) = 4.09260 4.48473 4.29314
# Velocity P-wave (km/s) = 6.73159 7.44714 7.09839
#
# Compressibility (1/GPa) = 0.01434886
#
# Stress axis : x y z
#
# Youngs Moduli (GPa) = 141.33035 141.32772 312.24837
#
# Poissons Ratio (x) = -0.02796 0.26547
# Poissons Ratio (y) = -0.02796 0.26548
# Poissons Ratio (z) = 0.12016 0.12016
#
# Static dielectric constant tensor:
#      x y z
#    x 2.488160 0.000000 0.000000 
#    y 0.000000 2.488170 0.000000 
#    z 0.000000 0.000000 2.552780 
# 
# From -- ./inp_files/72.got.cif
#   From: 2010.05.17/outbox.cif.g08.bks.cpg/sg130_1_cif.got.tgz:72.got - 2010.05.20 12:17:35.
