data_PCOD9565348
_publ_section_title
;
Structure prediction by ZEFSAII (Michael W. Deem and Ramdas Pophale) SiO2 
 PCOD9565348
Probable space group: P 4/N M M
;
_chemical_formula_sum "Si O2"
_cell_formula_units_Z 88
_cell_length_a 13.522023
_cell_length_b 13.522023
_cell_length_c 28.812341
_cell_angle_alpha 90.000000
_cell_angle_beta 90.000000
_cell_angle_gamma 90.000000
_cell_volume 5268.195545
_symmetry_space_group_name_H-M "P 4/N M M"
_symmetry_group_IT_number 129
_symmetry_cell_setting 'tetragonal'
loop_
_space_group_symop_operation_xyz
x,y,z
1/2-y,x,z
1/2-x,1/2-y,z
y,1/2-x,z
1/2+x,-y,-z
-x,1/2+y,-z
1/2+y,1/2+x,-z
-y,-x,-z
-x,-y,-z
1/2+y,-x,-z
1/2+x,1/2+y,-z
-y,1/2+x,-z
1/2-x,y,z
x,1/2-y,z
1/2-y,1/2-x,z
y,x,z
loop_
_atom_site_type_symbol
_atom_site_label
_atom_site_fract_x
_atom_site_fract_y
_atom_site_fract_z
Si Si1 0.972106 0.367559 0.596684
Si Si2 0.472251 0.631919 0.854324
Si Si3 0.531136 0.366816 0.768962
Si Si4 0.629904 0.363555 0.949157
Si Si5 0.633907 0.133907 0.500000
Si Si6 0.866788 0.469244 0.681710
O O1 0.980954 0.250000 0.602298
O O2 0.930021 0.388658 0.545339
O O3 0.898015 0.412052 0.634928
O O4 0.075202 0.424799 0.602999
O O5 0.480875 0.750000 0.851125
O O6 0.575744 0.575744 0.847387
O O7 0.398800 0.590815 0.814977
O O8 0.428774 0.604567 0.904835
O O9 0.515686 0.250000 0.767105
O O10 0.429340 0.429340 0.768771
O O11 0.593903 0.404701 0.724910
O O12 0.750000 0.360546 0.951360
O O13 0.596039 0.250000 0.942644
O O14 0.598475 0.401526 0.000000
O O15 0.620057 0.250000 0.488640
O O16 0.750000 0.484048 0.684340
O O17 0.928585 0.571416 0.682693
#
# Coordination Sequence:
#
# PCOD9565348 Si02
#       6
#    16  16  16  16   8  16
#     4  10  20  33  50  73 101 133 169 208 249 294
#     4  10  20  32  47  69  96 128 166 204 243 287
#     4  10  21  36  54  77 102 128 160 197 239 288
#     4   8  14  26  45  68  92 118 152 197 246 292
#     4   9  17  30  50  74  97 125 164 208 253 299
#     4  10  21  36  54  77 103 131 165 203 243 288
#
# _framework density 16.704011999999999
#
# number of rings (size 3 to 8) (size 9 to 14) (size 15 to 20)
#    0.000    2.455    0.000    3.000    0.000    5.091 
#    0.000    0.000    0.000    6.545    0.000    2.545 
#    0.000    4.364    0.000    0.000    0.000    0.000 
#
# Total GULP energy -490759.325303 kJ/mol
# GULP energy per Si atom -5576.810515 kJ/mol
# Density = 1.666599 g / cm^3
# Si number density = 16.704012 Si / 1000 Ang^3
#
#
#
# Elastic Constant Matrix: (Units=GPa)
#
#
# Indices 1 2 3 4 5 6 
#
# 1 96.5711 88.7438 54.6216 0.0000 0.0000 0.0000
# 2 88.7438 96.5710 54.6217 0.0000 0.0000 0.0000
# 3 54.6216 54.6217 113.6459 0.0000 0.0000 0.0000
# 4 0.0000 0.0000 0.0000 22.4514 0.0000 0.0000
# 5 0.0000 0.0000 0.0000 0.0000 22.4515 0.0000
# 6 0.0000 0.0000 0.0000 0.0000 0.0000 8.7382
#
#
#
# Elastic Compliance Matrix: (Units=1/GPa)
#
#
# Indices 1 2 3 4 5 6 
#
# 1 0.067644 -0.060115 -0.003619 0.000000 0.000000 0.000000
# 2 -0.060115 0.067645 -0.003619 0.000000 0.000000 0.000000
# 3 -0.003619 -0.003619 0.012278 0.000000 0.000000 0.000000
# 4 0.000000 0.000000 0.000000 0.044541 0.000000 0.000000
# 5 0.000000 0.000000 0.000000 0.000000 0.044540 0.000000
# 6 0.000000 0.000000 0.000000 0.000000 0.000000 0.114440
#
#
# Mechanical properties :
#
#
# Convention : Reuss Voigt Hill
#
# Bulk Modulus (GPa) = 77.75200 78.08468 77.91834
# Shear Modulus (GPa) = 10.20239 17.98160 14.09200
#
# Velocity S-wave (km/s) = 2.47407 3.28454 2.90768
# Velocity P-wave (km/s) = 7.40333 7.82508 7.61712
#
# Compressibility (1/GPa) = 0.01286141
#
# Stress axis : x y z
#
# Youngs Moduli (GPa) = 14.78319 14.78315 81.44634
#
# Poissons Ratio (x) = 0.88869 0.29474
# Poissons Ratio (y) = 0.88869 0.29476
# Poissons Ratio (z) = 0.05350 0.05350
#
# Static dielectric constant tensor:
#      x y z
#    x 1.539190 0.000000 0.000000 
#    y 0.000000 1.539190 0.000000 
#    z 0.000000 0.000000 1.575320 
# 
# From -- ./inp_files/7747.got.cif
#   From: 2010.05.17/outbox.cif.g08.bks.cpg/sg129_4_cif.got.tgz:7747.got - 2010.05.20 12:12:06.
