data_PCOD9565029
_publ_section_title
;
Structure prediction by ZEFSAII (Michael W. Deem and Ramdas Pophale) SiO2 
 PCOD9565029
Probable space group: P 4/M N C
;
_chemical_formula_sum "Si O2"
_cell_formula_units_Z 48
_cell_length_a 9.821980
_cell_length_b 9.821980
_cell_length_c 20.778225
_cell_angle_alpha 90.000000
_cell_angle_beta 90.000000
_cell_angle_gamma 90.000000
_cell_volume 2004.502193
_symmetry_space_group_name_H-M "P 4/M N C"
_symmetry_group_IT_number 128
_symmetry_cell_setting 'tetragonal'
loop_
_space_group_symop_operation_xyz
x,y,z
-y,x,z
-x,-y,z
y,-x,z
1/2+x,1/2-y,1/2-z
1/2-x,1/2+y,1/2-z
1/2+y,1/2+x,1/2-z
1/2-y,1/2-x,1/2-z
-x,-y,-z
y,-x,-z
x,y,-z
-y,x,-z
1/2-x,1/2+y,1/2+z
1/2+x,1/2-y,1/2+z
1/2-y,1/2-x,1/2+z
1/2+y,1/2+x,1/2+z
loop_
_atom_site_type_symbol
_atom_site_label
_atom_site_fract_x
_atom_site_fract_y
_atom_site_fract_z
Si Si1 0.000291 0.658663 0.133335
Si Si2 0.617275 0.690067 0.137852
Si Si3 0.706911 0.206911 0.750000
Si Si4 0.943264 0.779230 0.000000
O O1 0.162910 0.683485 0.122202
O O2 0.000000 0.500000 0.143612
O O3 0.911436 0.705509 0.195192
O O4 0.931211 0.697403 0.066002
O O5 0.457749 0.680510 0.118833
O O6 0.648926 0.692357 0.214110
O O7 0.093855 0.843046 0.000000
#
# Coordination Sequence:
#
# PCOD9565029 Si02
#       4
#    16  16   8   8
#     4  12  25  47  75 104 148 197 249 303 379 451
#     4  11  24  40  65 108 149 185 242 305 366 433
#     4  12  23  44  73 110 148 198 241 312 372 449
#     4  11  27  50  76 105 144 196 254 310 372 451
#
# _framework density 23.946093000000001
#
# number of rings (size 3 to 8) (size 9 to 14) (size 15 to 20)
#    0.000    0.500    3.333    5.000    0.000    0.000 
#    0.000    3.333    0.000    2.000    0.000    0.000 
#    0.000    0.000    0.000    0.000    0.000    0.000 
#
# Total GULP energy -267289.970205 kJ/mol
# GULP energy per Si atom -5568.541046 kJ/mol
# Density = 2.389159 g / cm^3
# Si number density = 23.946093 Si / 1000 Ang^3
#
#
#
# Elastic Constant Matrix: (Units=GPa)
#
#
# Indices 1 2 3 4 5 6 
#
# 1 98.0754 31.7187 35.4107 0.0000 0.0000 0.0000
# 2 31.7187 98.0754 35.4107 0.0000 0.0000 0.0000
# 3 35.4107 35.4107 122.6094 0.0000 0.0000 0.0000
# 4 0.0000 0.0000 0.0000 -13.7129 0.0000 0.0000
# 5 0.0000 0.0000 0.0000 0.0000 -13.7129 0.0000
# 6 0.0000 0.0000 0.0000 0.0000 0.0000 10.8357
#
#
#
# Elastic Compliance Matrix: (Units=1/GPa)
#
#
# Indices 1 2 3 4 5 6 
#
# 1 0.012108 -0.002962 -0.002641 0.000000 0.000000 0.000000
# 2 -0.002962 0.012108 -0.002641 0.000000 0.000000 0.000000
# 3 -0.002641 -0.002641 0.009682 0.000000 0.000000 0.000000
# 4 0.000000 0.000000 0.000000 -0.072924 0.000000 0.000000
# 5 0.000000 0.000000 0.000000 0.000000 -0.072924 0.000000
# 6 0.000000 0.000000 0.000000 0.000000 0.000000 0.092288
#
#
# Mechanical properties :
#
#
# Convention : Reuss Voigt Hill
#
# Bulk Modulus (GPa) = 57.44584 58.20449 57.82516
# Shear Modulus (GPa) = 1901.12108 11.09663 956.10886
#
# Velocity S-wave (km/s) = 28.20710 2.15501 20.00356
# Velocity P-wave (km/s) = 32.93776 5.52732 23.61617
#
# Compressibility (1/GPa) = 0.01740770
#
# Stress axis : x y z
#
# Youngs Moduli (GPa) = 82.59059 82.59059 103.28774
#
# Poissons Ratio (x) = 0.24465 0.27282
# Poissons Ratio (y) = 0.24465 0.27282
# Poissons Ratio (z) = 0.21815 0.21815
#
# Static dielectric constant tensor:
#      x y z
#    x 2.051080 0.000000 0.000000 
#    y 0.000000 2.051080 0.000000 
#    z 0.000000 0.000000 1.992600 
# 
# From -- ./inp_files/4341.got.cif
#   From: 2010.05.17/outbox.cif.g08.bks.cpg/sg128_3_cif.got.tgz:4341.got - 2010.05.20 12:07:25.
