data_PCOD9565594
_publ_section_title
;
Structure prediction by ZEFSAII (Michael W. Deem and Ramdas Pophale) SiO2 
 PCOD9565594
Probable space group: P 4/N C C
;
_chemical_formula_sum "Si O2"
_cell_formula_units_Z 96
_cell_length_a 15.984562
_cell_length_b 15.984562
_cell_length_c 19.150852
_cell_angle_alpha 90.000000
_cell_angle_beta 90.000000
_cell_angle_gamma 90.000000
_cell_volume 4893.161849
_symmetry_space_group_name_H-M "P 4/N C C"
_symmetry_group_IT_number 130
_symmetry_cell_setting 'tetragonal'
loop_
_space_group_symop_operation_xyz
x,y,z
1/2-y,x,z
1/2-x,1/2-y,z
y,1/2-x,z
1/2+x,-y,1/2-z
-x,1/2+y,1/2-z
1/2+y,1/2+x,1/2-z
-y,-x,1/2-z
-x,-y,-z
1/2+y,-x,-z
1/2+x,1/2+y,-z
-y,1/2+x,-z
1/2-x,y,1/2+z
x,1/2-y,1/2+z
1/2-y,1/2-x,1/2+z
y,x,1/2+z
loop_
_atom_site_type_symbol
_atom_site_label
_atom_site_fract_x
_atom_site_fract_y
_atom_site_fract_z
Si Si1 0.635946 0.135946 0.250000
Si Si2 0.003343 0.681361 0.870505
Si Si3 0.076790 0.152010 0.171803
Si Si4 0.928674 0.277373 0.844602
Si Si5 0.880256 0.739337 0.193065
Si Si6 0.881412 0.208095 0.499959
Si Si7 0.929552 0.429552 0.750000
O O1 0.555426 0.150422 0.198547
O O2 0.711883 0.131451 0.194662
O O3 0.981839 0.780782 0.867404
O O4 0.914454 0.631798 0.871270
O O5 0.062168 0.670105 0.938331
O O6 0.123952 0.215786 0.224493
O O7 0.020954 0.092740 0.222440
O O8 0.927258 0.279030 0.927086
O O9 0.909140 0.367623 0.813135
O O10 0.023309 0.256895 0.823495
O O11 0.836736 0.823438 0.166113
O O12 0.800017 0.153013 0.481424
#
# Coordination Sequence:
#
# PCOD9565594 Si02
#       7
#     8  16  16  16  16  16   8
#     4  12  21  41  70  96 128 169 227 284 332 402
#     4  12  24  43  66 101 131 178 226 280 344 403
#     4  11  21  38  65  96 131 165 221 276 330 401
#     4  11  23  40  64  97 129 169 218 274 334 403
#     4  10  19  37  65  94 124 165 216 274 328 385
#     4  11  25  45  65  92 136 183 220 273 339 411
#     4  10  21  39  62  96 126 163 217 274 332 386
#
# _framework density 19.619216999999999
#
# number of rings (size 3 to 8) (size 9 to 14) (size 15 to 20)
#    0.000    1.000    6.667    1.500    0.000    2.000 
#    3.000    1.667    0.000    0.000    0.000    0.000 
#    0.000    0.000    0.000    0.000    0.000    0.000 
#
# Total GULP energy -534604.777418 kJ/mol
# GULP energy per Si atom -5568.799765 kJ/mol
# Density = 1.957456 g / cm^3
# Si number density = 19.619217 Si / 1000 Ang^3
#
#
#
# Elastic Constant Matrix: (Units=GPa)
#
#
# Indices 1 2 3 4 5 6 
#
# 1 34.5053 70.5083 28.0074 0.0000 0.0000 0.0000
# 2 70.5083 34.5053 28.0074 0.0000 0.0000 0.0000
# 3 28.0074 28.0074 85.4425 0.0000 0.0000 0.0000
# 4 0.0000 0.0000 0.0000 18.3658 0.0000 0.0000
# 5 0.0000 0.0000 0.0000 0.0000 18.3658 0.0000
# 6 0.0000 0.0000 0.0000 0.0000 0.0000 18.4572
#
#
#
# Elastic Compliance Matrix: (Units=1/GPa)
#
#
# Indices 1 2 3 4 5 6 
#
# 1 -0.008118 0.019658 -0.003783 0.000000 0.000000 0.000000
# 2 0.019658 -0.008118 -0.003783 0.000000 0.000000 0.000000
# 3 -0.003783 -0.003783 0.014184 0.000000 0.000000 0.000000
# 4 0.000000 0.000000 0.000000 0.054449 0.000000 0.000000
# 5 0.000000 0.000000 0.000000 0.000000 0.054449 0.000000
# 6 0.000000 0.000000 0.000000 0.000000 0.000000 0.054179
#
#
# Mechanical properties :
#
#
# Convention : Reuss Voigt Hill
#
# Bulk Modulus (GPa) = 45.18115 45.27767 45.22941
# Shear Modulus (GPa) = 34.66942 12.89976 23.78459
#
# Velocity S-wave (km/s) = 4.20827 2.56697 3.48560
# Velocity P-wave (km/s) = 6.83313 5.64926 6.26920
#
# Compressibility (1/GPa) = 0.02213312
#
# Stress axis : x y z
#
# Youngs Moduli (GPa) = -123.18995 -123.18995 70.50321
#
# Poissons Ratio (x) = 2.42166 0.26670
# Poissons Ratio (y) = 2.42166 0.26670
# Poissons Ratio (z) = -0.46601 -0.46601
#
# Static dielectric constant tensor:
#      x y z
#    x 1.756010 0.000000 0.000000 
#    y 0.000000 1.756010 0.000000 
#    z 0.000000 0.000000 1.704040 
# 
# From -- ./inp_files/3813.got.cif
#   From: 2010.05.17/outbox.cif.g08.bks.cpg/sg130_2_cif.got.tgz:3813.got - 2010.05.20 12:17:35.
