data_PCOD9565771
_publ_section_title
;
Structure prediction by ZEFSAII (Michael W. Deem and Ramdas Pophale) SiO2 
 PCOD9565771
Probable space group: P 4/N C C
;
_chemical_formula_sum "Si O2"
_cell_formula_units_Z 88
_cell_length_a 17.558763
_cell_length_b 17.558763
_cell_length_c 13.581123
_cell_angle_alpha 90.000000
_cell_angle_beta 90.000000
_cell_angle_gamma 90.000000
_cell_volume 4187.198179
_symmetry_space_group_name_H-M "P 4/N C C"
_symmetry_group_IT_number 130
_symmetry_cell_setting 'tetragonal'
loop_
_space_group_symop_operation_xyz
x,y,z
1/2-y,x,z
1/2-x,1/2-y,z
y,1/2-x,z
1/2+x,-y,1/2-z
-x,1/2+y,1/2-z
1/2+y,1/2+x,1/2-z
-y,-x,1/2-z
-x,-y,-z
1/2+y,-x,-z
1/2+x,1/2+y,-z
-y,1/2+x,-z
1/2-x,y,1/2+z
x,1/2-y,1/2+z
1/2-y,1/2-x,1/2+z
y,x,1/2+z
loop_
_atom_site_type_symbol
_atom_site_label
_atom_site_fract_x
_atom_site_fract_y
_atom_site_fract_z
Si Si1 0.601832 0.398169 0.250000
Si Si2 0.122976 0.258312 0.299089
Si Si3 0.274264 0.509123 0.461091
Si Si4 0.431514 0.008257 0.076373
Si Si5 0.893460 0.220531 0.781279
Si Si6 0.672373 0.977615 0.357139
O O1 0.559706 0.432030 0.155347
O O2 0.692592 0.408821 0.249580
O O3 0.171615 0.181739 0.308905
O O4 0.058388 0.261336 0.382296
O O5 0.082611 0.270023 0.193541
O O6 0.352269 0.495239 0.518628
O O7 0.282168 0.585729 0.396435
O O8 0.206633 0.507346 0.540311
O O9 0.441350 0.089818 0.128660
O O10 0.500000 0.000000 0.000000
O O11 0.812134 0.187867 0.750000
O O12 0.953188 0.169630 0.719814
#
# Coordination Sequence:
#
# PCOD9565771 Si02
#       6
#     8  16  16  16  16  16
#     4  12  27  48  72 104 142 181 238 296 360 416
#     4  10  22  37  62  97 138 186 228 276 342 420
#     4  11  23  43  68 100 138 181 231 290 351 422
#     4  12  26  42  71 102 135 184 233 293 358 432
#     4  11  25  46  72  99 138 183 235 293 349 421
#     4  11  23  42  67 100 139 178 231 286 359 416
#
# _framework density 21.016438999999998
#
# number of rings (size 3 to 8) (size 9 to 14) (size 15 to 20)
#    0.000    0.909    1.818    4.636    8.909    0.000 
#    0.000    1.818    4.000    0.000    0.000    0.000 
#    0.000    0.000    0.000    0.000    0.000    0.000 
#
# Total GULP energy -492338.051722 kJ/mol
# GULP energy per Si atom -5594.750588 kJ/mol
# Density = 2.096860 g / cm^3
# Si number density = 21.016439 Si / 1000 Ang^3
#
#
#
# Elastic Constant Matrix: (Units=GPa)
#
#
# Indices 1 2 3 4 5 6 
#
# 1 63.9475 16.0677 23.3027 0.0000 0.0000 0.0000
# 2 16.0677 63.9453 23.3047 0.0000 0.0000 0.0000
# 3 23.3027 23.3047 102.5412 0.0000 0.0000 0.0000
# 4 0.0000 0.0000 0.0000 32.6077 0.0000 0.0000
# 5 0.0000 0.0000 0.0000 0.0000 32.6086 0.0000
# 6 0.0000 0.0000 0.0000 0.0000 0.0000 27.0694
#
#
#
# Elastic Compliance Matrix: (Units=1/GPa)
#
#
# Indices 1 2 3 4 5 6 
#
# 1 0.017645 -0.003241 -0.003273 0.000000 0.000000 0.000000
# 2 -0.003241 0.017646 -0.003274 0.000000 0.000000 0.000000
# 3 -0.003273 -0.003274 0.011240 0.000000 0.000000 0.000000
# 4 0.000000 0.000000 0.000000 0.030668 0.000000 0.000000
# 5 0.000000 0.000000 0.000000 0.000000 0.030667 0.000000
# 6 0.000000 0.000000 0.000000 0.000000 0.000000 0.036942
#
#
# Mechanical properties :
#
#
# Convention : Reuss Voigt Hill
#
# Bulk Modulus (GPa) = 37.09899 39.53158 38.31528
# Shear Modulus (GPa) = 28.84035 29.64107 29.24071
#
# Velocity S-wave (km/s) = 3.70844 3.75957 3.73409
# Velocity P-wave (km/s) = 6.00228 6.13975 6.07141
#
# Compressibility (1/GPa) = 0.02695491
#
# Stress axis : x y z
#
# Youngs Moduli (GPa) = 56.67360 56.67055 88.96710
#
# Poissons Ratio (x) = 0.18365 0.29122
# Poissons Ratio (y) = 0.18366 0.29127
# Poissons Ratio (z) = 0.18551 0.18554
#
# Static dielectric constant tensor:
#      x y z
#    x 1.747240 0.000000 0.000000 
#    y 0.000000 1.747260 0.000000 
#    z 0.000000 0.000000 1.732240 
# 
# From -- ./inp_files/2367.got.cif
#   From: 2010.05.17/outbox.cif.g08.bks.cpg/sg130_2_cif.got.tgz:2367.got - 2010.05.20 12:17:35.
