data_PCOD9565136
_publ_section_title
;
Structure prediction by ZEFSAII (Michael W. Deem and Ramdas Pophale) SiO2 
 PCOD9565136
Probable space group: P 4/N M M
;
_chemical_formula_sum "Si O2"
_cell_formula_units_Z 112
_cell_length_a 18.028489
_cell_length_b 18.028489
_cell_length_c 21.544824
_cell_angle_alpha 90.000000
_cell_angle_beta 90.000000
_cell_angle_gamma 90.000000
_cell_volume 7002.636920
_symmetry_space_group_name_H-M "P 4/N M M"
_symmetry_group_IT_number 129
_symmetry_cell_setting 'tetragonal'
loop_
_space_group_symop_operation_xyz
x,y,z
1/2-y,x,z
1/2-x,1/2-y,z
y,1/2-x,z
1/2+x,-y,-z
-x,1/2+y,-z
1/2+y,1/2+x,-z
-y,-x,-z
-x,-y,-z
1/2+y,-x,-z
1/2+x,1/2+y,-z
-y,1/2+x,-z
1/2-x,y,z
x,1/2-y,z
1/2-y,1/2-x,z
y,x,z
loop_
_atom_site_type_symbol
_atom_site_label
_atom_site_fract_x
_atom_site_fract_y
_atom_site_fract_z
Si Si1 0.953852 0.664038 0.261446
Si Si2 0.040182 0.836426 0.995303
Si Si3 0.060676 0.559954 0.656639
Si Si4 0.393667 0.986104 0.135486
Si Si5 0.165295 0.968118 0.867398
Si Si6 0.163460 0.663640 0.574585
Si Si7 0.164848 0.455739 0.261222
O O1 0.954852 0.750000 0.279200
O O2 0.875840 0.624161 0.272682
O O3 0.014993 0.617234 0.299172
O O4 0.974310 0.658564 0.188557
O O5 0.056648 0.750000 0.987636
O O6 0.001729 0.846630 0.062537
O O7 0.114420 0.885581 0.000000
O O8 0.999134 0.864184 0.933709
O O9 0.108050 0.606503 0.607233
O O10 0.001275 0.498726 0.631988
O O11 0.013602 0.617573 0.698016
O O12 0.472653 0.027348 0.142893
O O13 0.342932 0.017523 0.189918
O O14 0.407093 0.898392 0.142547
O O15 0.250000 0.938765 0.865483
O O16 0.157916 0.657916 0.500000
O O17 0.250000 0.649169 0.591322
O O18 0.147421 0.750000 0.591258
O O19 0.250000 0.452628 0.279965
O O20 0.122562 0.377439 0.266466
#
# Coordination Sequence:
#
# PCOD9565136 Si02
#       7
#    16  16  16  16  16  16  16
#     4  10  19  31  48  68  95 128 161 202 244 285
#     4   9  18  29  43  63  85 115 153 194 245 293
#     4  10  19  32  51  74 100 130 163 199 236 273
#     4  10  18  30  47  66  89 117 158 204 242 286
#     4   9  17  29  44  63  90 118 152 197 244 290
#     4   9  18  33  53  77 105 134 161 192 231 276
#     4  10  20  33  50  71  96 126 159 199 243 286
#
# _framework density 15.993975000000001
#
# number of rings (size 3 to 8) (size 9 to 14) (size 15 to 20)
#    0.000    2.429    1.429    2.143    0.000    3.857 
#    0.000    0.000    0.000    2.143    0.000    0.000 
#    0.000    3.429    0.000   26.571    0.000    0.000 
#
# Total GULP energy -623724.762678 kJ/mol
# GULP energy per Si atom -5568.971095 kJ/mol
# Density = 1.595757 g / cm^3
# Si number density = 15.993975 Si / 1000 Ang^3
#
#
#
# Elastic Constant Matrix: (Units=GPa)
#
#
# Indices 1 2 3 4 5 6 
#
# 1 102.9728 57.9153 37.8297 0.0000 0.0000 0.0000
# 2 57.9153 102.9733 37.8296 0.0000 0.0000 0.0000
# 3 37.8297 37.8296 53.2983 0.0000 0.0000 0.0000
# 4 0.0000 0.0000 0.0000 22.3978 0.0000 0.0000
# 5 0.0000 0.0000 0.0000 0.0000 22.3979 0.0000
# 6 0.0000 0.0000 0.0000 0.0000 0.0000 15.3265
#
#
#
# Elastic Compliance Matrix: (Units=1/GPa)
#
#
# Indices 1 2 3 4 5 6 
#
# 1 0.015762 -0.006432 -0.006622 0.000000 0.000000 0.000000
# 2 -0.006432 0.015762 -0.006622 0.000000 0.000000 0.000000
# 3 -0.006622 -0.006622 0.028162 0.000000 0.000000 0.000000
# 4 0.000000 0.000000 0.000000 0.044647 0.000000 0.000000
# 5 0.000000 0.000000 0.000000 0.000000 0.044647 0.000000
# 6 0.000000 0.000000 0.000000 0.000000 0.000000 0.065246
#
#
# Mechanical properties :
#
#
# Convention : Reuss Voigt Hill
#
# Bulk Modulus (GPa) = 49.17872 58.48819 53.83345
# Shear Modulus (GPa) = 19.20453 20.40245 19.80349
#
# Velocity S-wave (km/s) = 3.46892 3.57548 3.52260
# Velocity P-wave (km/s) = 6.84541 7.32759 7.09060
#
# Compressibility (1/GPa) = 0.02033400
#
# Stress axis : x y z
#
# Youngs Moduli (GPa) = 63.44507 63.44565 35.50856
#
# Poissons Ratio (x) = 0.40809 0.23513
# Poissons Ratio (y) = 0.40809 0.23513
# Poissons Ratio (z) = 0.42012 0.42012
#
# Static dielectric constant tensor:
#      x y z
#    x 1.527740 0.000000 0.000000 
#    y 0.000000 1.527740 0.000000 
#    z 0.000000 0.000000 1.544950 
# 
# From -- ./inp_files/7239.got.cif
#   From: 2010.05.17/outbox.cif.g08.bks.cpg/sg129_4_cif.got.tgz:7239.got - 2010.05.20 12:12:06.
