data_PCOD9565688
_publ_section_title
;
Structure prediction by ZEFSAII (Michael W. Deem and Ramdas Pophale) SiO2 
 PCOD9565688
Probable space group: P 4/N C C
;
_chemical_formula_sum "Si O2"
_cell_formula_units_Z 96
_cell_length_a 23.598329
_cell_length_b 23.598329
_cell_length_c 9.853430
_cell_angle_alpha 90.000000
_cell_angle_beta 90.000000
_cell_angle_gamma 90.000000
_cell_volume 5487.189248
_symmetry_space_group_name_H-M "P 4/N C C"
_symmetry_group_IT_number 130
_symmetry_cell_setting 'tetragonal'
loop_
_space_group_symop_operation_xyz
x,y,z
1/2-y,x,z
1/2-x,1/2-y,z
y,1/2-x,z
1/2+x,-y,1/2-z
-x,1/2+y,1/2-z
1/2+y,1/2+x,1/2-z
-y,-x,1/2-z
-x,-y,-z
1/2+y,-x,-z
1/2+x,1/2+y,-z
-y,1/2+x,-z
1/2-x,y,1/2+z
x,1/2-y,1/2+z
1/2-y,1/2-x,1/2+z
y,x,1/2+z
loop_
_atom_site_type_symbol
_atom_site_label
_atom_site_fract_x
_atom_site_fract_y
_atom_site_fract_z
Si Si1 0.647316 0.856712 0.919227
Si Si2 0.475924 0.190377 0.024824
Si Si3 0.170106 0.205705 0.832375
Si Si4 0.073532 0.510217 0.133123
Si Si5 0.031322 0.194635 0.203205
Si Si6 0.923074 0.474396 0.378861
O O1 0.583066 0.843481 0.955364
O O2 0.662138 0.801718 0.827284
O O3 0.668613 0.905605 0.817854
O O4 0.677767 0.872015 0.061099
O O5 0.475843 0.247424 0.116837
O O6 0.519808 0.142160 0.076123
O O7 0.480583 0.203471 0.863650
O O8 0.229262 0.176251 0.867696
O O9 0.050596 0.550596 0.250000
O O10 0.140786 0.503725 0.146905
O O11 0.036730 0.451911 0.147890
O O12 0.053868 0.539130 0.995397
O O13 0.935385 0.435385 0.250000
#
# Coordination Sequence:
#
# PCOD9565688 Si02
#       6
#    16  16  16  16  16  16
#     4  12  24  37  53  75 112 152 196 248 309 353
#     4  12  26  41  59  90 122 160 207 252 314 364
#     4  11  22  36  50  66  91 141 204 257 300 346
#     4  10  20  40  64  88 119 158 205 257 312 368
#     4  12  26  40  61  87 123 161 205 258 309 366
#     4  10  22  38  66  92 118 154 207 255 310 375
#
# _framework density 17.495297000000001
#
# number of rings (size 3 to 8) (size 9 to 14) (size 15 to 20)
#    0.000    0.833    5.000    3.000    4.667    1.333 
#    0.000    0.000    0.000    0.000    0.000    0.000 
#    0.000    4.000    0.000    0.000    0.000    0.000 
#
# Total GULP energy -535049.280172 kJ/mol
# GULP energy per Si atom -5573.430002 kJ/mol
# Density = 1.745548 g / cm^3
# Si number density = 17.495297 Si / 1000 Ang^3
#
#
#
# Elastic Constant Matrix: (Units=GPa)
#
#
# Indices 1 2 3 4 5 6 
#
# 1 124.8792 -22.8978 26.9029 0.0000 0.0000 0.0000
# 2 -22.8978 124.8792 26.9029 0.0000 0.0000 0.0000
# 3 26.9029 26.9029 112.2985 0.0000 0.0000 0.0000
# 4 0.0000 0.0000 0.0000 18.3178 0.0000 0.0000
# 5 0.0000 0.0000 0.0000 0.0000 18.3178 0.0000
# 6 0.0000 0.0000 0.0000 0.0000 0.0000 8.3638
#
#
#
# Elastic Compliance Matrix: (Units=1/GPa)
#
#
# Indices 1 2 3 4 5 6 
#
# 1 0.008996 0.002229 -0.002689 0.000000 0.000000 0.000000
# 2 0.002229 0.008996 -0.002689 0.000000 0.000000 0.000000
# 3 -0.002689 -0.002689 0.010193 0.000000 0.000000 0.000000
# 4 0.000000 0.000000 0.000000 0.054592 0.000000 0.000000
# 5 0.000000 0.000000 0.000000 0.000000 0.054592 0.000000
# 6 0.000000 0.000000 0.000000 0.000000 0.000000 0.119563
#
#
# Mechanical properties :
#
#
# Convention : Reuss Voigt Hill
#
# Bulk Modulus (GPa) = 45.69105 47.09698 46.39401
# Shear Modulus (GPa) = 18.48257 31.07647 24.77952
#
# Velocity S-wave (km/s) = 3.25380 4.21916 3.76753
# Velocity P-wave (km/s) = 6.34738 7.12133 6.74546
#
# Compressibility (1/GPa) = 0.02188612
#
# Stress axis : x y z
#
# Youngs Moduli (GPa) = 111.16428 111.16428 98.10439
#
# Poissons Ratio (x) = -0.24776 0.26380
# Poissons Ratio (y) = -0.24776 0.26380
# Poissons Ratio (z) = 0.29892 0.29892
#
# Static dielectric constant tensor:
#      x y z
#    x 1.620760 0.000000 0.000000 
#    y 0.000000 1.620760 0.000000 
#    z 0.000000 0.000000 1.619190 
# 
# From -- ./inp_files/934.got.cif
#   From: 2010.05.17/outbox.cif.g08.bks.cpg/sg130_1_cif.got.tgz:934.got - 2010.05.20 12:17:35.
