data_PCOD9565832
_publ_section_title
;
Structure prediction by ZEFSAII (Michael W. Deem and Ramdas Pophale) SiO2 
 PCOD9565832
Probable space group: P 4/N C C
;
_chemical_formula_sum "Si O2"
_cell_formula_units_Z 92
_cell_length_a 14.883531
_cell_length_b 14.883531
_cell_length_c 17.620200
_cell_angle_alpha 90.000000
_cell_angle_beta 90.000000
_cell_angle_gamma 90.000000
_cell_volume 3903.217806
_symmetry_space_group_name_H-M "P 4/N C C"
_symmetry_group_IT_number 130
_symmetry_cell_setting 'tetragonal'
loop_
_space_group_symop_operation_xyz
x,y,z
1/2-y,x,z
1/2-x,1/2-y,z
y,1/2-x,z
1/2+x,-y,1/2-z
-x,1/2+y,1/2-z
1/2+y,1/2+x,1/2-z
-y,-x,1/2-z
-x,-y,-z
1/2+y,-x,-z
1/2+x,1/2+y,-z
-y,1/2+x,-z
1/2-x,y,1/2+z
x,1/2-y,1/2+z
1/2-y,1/2-x,1/2+z
y,x,1/2+z
loop_
_atom_site_type_symbol
_atom_site_label
_atom_site_fract_x
_atom_site_fract_y
_atom_site_fract_z
Si Si1 0.143140 0.911192 0.957393
Si Si2 0.706708 0.891738 0.770013
Si Si3 0.563281 0.997330 0.830643
Si Si4 0.556890 0.736228 0.108141
Si Si5 0.750000 0.250000 0.876809
Si Si6 0.602050 0.389977 0.866236
Si Si7 0.750000 0.750000 0.559578
O O1 0.189823 0.821363 0.923882
O O2 0.061072 0.940430 0.903341
O O3 0.213605 0.991883 0.949683
O O4 0.117369 0.897523 0.043738
O O5 0.643610 0.805835 0.781890
O O6 0.666251 0.965168 0.824610
O O7 0.703737 0.919617 0.681986
O O8 0.545030 0.045030 0.750000
O O9 0.489899 0.917044 0.835733
O O10 0.494032 0.658701 0.143434
O O11 0.648417 0.706818 0.067977
O O12 0.683135 0.324491 0.837836
#
# Coordination Sequence:
#
# PCOD9565832 Si02
#       7
#    16  16  16  16   8  16   4
#     4  11  23  44  70 103 144 184 238 301 356 429
#     4  11  22  42  66  90 131 180 229 283 348 422
#     4  12  25  41  66 100 141 183 232 289 362 424
#     4  11  20  40  73  98 128 180 242 285 348 426
#     4  10  23  46  75 106 143 192 243 302 373 434
#     4  11  24  44  73 103 142 191 240 297 360 430
#     4  12  20  36  68  96 122 176 248 280 326 432
#
# _framework density 23.570295999999999
#
# number of rings (size 3 to 8) (size 9 to 14) (size 15 to 20)
#    0.000    0.870    3.478    5.217    2.435    0.000 
#    0.000    0.870    3.826    0.000    0.000    0.000 
#    0.000    0.000    0.000    0.000    0.000    0.000 
#
# Total GULP energy -513131.330162 kJ/mol
# GULP energy per Si atom -5577.514458 kJ/mol
# Density = 2.351665 g / cm^3
# Si number density = 23.570296 Si / 1000 Ang^3
#
#
#
# Elastic Constant Matrix: (Units=GPa)
#
#
# Indices 1 2 3 4 5 6 
#
# 1 114.0402 5.2033 8.2298 0.0000 0.0000 0.0000
# 2 5.2033 114.0402 8.2298 0.0000 0.0000 0.0000
# 3 8.2298 8.2298 64.6694 0.0000 0.0000 0.0000
# 4 0.0000 0.0000 0.0000 20.0259 0.0000 0.0000
# 5 0.0000 0.0000 0.0000 0.0000 20.0259 0.0000
# 6 0.0000 0.0000 0.0000 0.0000 0.0000 40.7372
#
#
#
# Elastic Compliance Matrix: (Units=1/GPa)
#
#
# Indices 1 2 3 4 5 6 
#
# 1 0.008862 -0.000326 -0.001086 0.000000 0.000000 0.000000
# 2 -0.000326 0.008862 -0.001086 0.000000 0.000000 0.000000
# 3 -0.001086 -0.001086 0.015740 0.000000 0.000000 0.000000
# 4 0.000000 0.000000 0.000000 0.049935 0.000000 0.000000
# 5 0.000000 0.000000 0.000000 0.000000 0.049935 0.000000
# 6 0.000000 0.000000 0.000000 0.000000 0.000000 0.024548
#
#
# Mechanical properties :
#
#
# Convention : Reuss Voigt Hill
#
# Bulk Modulus (GPa) = 35.12860 37.34173 36.23516
# Shear Modulus (GPa) = 29.00766 34.23027 31.61896
#
# Velocity S-wave (km/s) = 3.51192 3.81499 3.66659
# Velocity P-wave (km/s) = 5.60187 5.93992 5.77337
#
# Compressibility (1/GPa) = 0.02846683
#
# Stress axis : x y z
#
# Youngs Moduli (GPa) = 112.84005 112.84005 63.53342
#
# Poissons Ratio (x) = 0.03678 0.06902
# Poissons Ratio (y) = 0.03678 0.06902
# Poissons Ratio (z) = 0.12258 0.12258
#
# Static dielectric constant tensor:
#      x y z
#    x 1.936440 0.000000 0.000000 
#    y 0.000000 1.936440 0.000000 
#    z 0.000000 0.000000 1.770930 
# 
# From -- ./inp_files/3844.got.cif
#   From: 2010.05.17/outbox.cif.g08.bks.cpg/sg130_2_cif.got.tgz:3844.got - 2010.05.20 12:17:35.
