data_PCOD9565869
_publ_section_title
;
Structure prediction by ZEFSAII (Michael W. Deem and Ramdas Pophale) SiO2 
 PCOD9565869
Probable space group: P 4/N C C
;
_chemical_formula_sum "Si O2"
_cell_formula_units_Z 60
_cell_length_a 13.320837
_cell_length_b 13.320837
_cell_length_c 14.507758
_cell_angle_alpha 90.000000
_cell_angle_beta 90.000000
_cell_angle_gamma 90.000000
_cell_volume 2574.324742
_symmetry_space_group_name_H-M "P 4/N C C"
_symmetry_group_IT_number 130
_symmetry_cell_setting 'tetragonal'
loop_
_space_group_symop_operation_xyz
x,y,z
1/2-y,x,z
1/2-x,1/2-y,z
y,1/2-x,z
1/2+x,-y,1/2-z
-x,1/2+y,1/2-z
1/2+y,1/2+x,1/2-z
-y,-x,1/2-z
-x,-y,-z
1/2+y,-x,-z
1/2+x,1/2+y,-z
-y,1/2+x,-z
1/2-x,y,1/2+z
x,1/2-y,1/2+z
1/2-y,1/2-x,1/2+z
y,x,1/2+z
loop_
_atom_site_type_symbol
_atom_site_label
_atom_site_fract_x
_atom_site_fract_y
_atom_site_fract_z
Si Si1 0.208476 0.093780 0.879319
Si Si2 0.750000 0.750000 0.401673
Si Si3 0.960066 0.447223 0.909464
Si Si4 0.035679 0.257787 0.670683
Si Si5 0.063876 0.563876 0.750000
O O1 0.316416 0.134453 0.909628
O O2 0.210544 0.087110 0.768009
O O3 0.170699 0.987102 0.915760
O O4 0.871166 0.780492 0.390636
O O5 0.849432 0.477494 0.877232
O O6 0.034698 0.486166 0.829625
O O7 0.000000 0.500000 0.000000
O O8 0.959389 0.170888 0.704241
#
# Coordination Sequence:
#
# PCOD9565869 Si02
#       5
#    16   4  16  16   8
#     4  11  19  39  71 100 129 177 239 297 360 442
#     4  12  16  36  72 106 132 184 254 300 360 458
#     4  12  25  41  67 106 146 186 245 314 384 460
#     4  12  21  42  72 100 140 192 243 305 383 464
#     4  12  24  44  71  99 148 198 240 310 396 461
#
# _framework density 23.307084
#
# number of rings (size 3 to 8) (size 9 to 14) (size 15 to 20)
#    0.000    0.267   10.667    0.000    0.000    2.133 
#    0.000    2.667    0.000    0.000    6.933    0.000 
#    0.000    0.000    0.000    0.000    0.000    0.000 
#
# Total GULP energy -334492.814259 kJ/mol
# GULP energy per Si atom -5574.880238 kJ/mol
# Density = 2.325404 g / cm^3
# Si number density = 23.307084 Si / 1000 Ang^3
#
#
#
# Elastic Constant Matrix: (Units=GPa)
#
#
# Indices 1 2 3 4 5 6 
#
# 1 131.9401 81.6865 13.0971 0.0000 0.0000 0.0000
# 2 81.6865 131.9401 13.0971 0.0000 0.0000 0.0000
# 3 13.0971 13.0971 83.1318 0.0000 0.0000 0.0000
# 4 0.0000 0.0000 0.0000 23.3739 0.0000 0.0000
# 5 0.0000 0.0000 0.0000 0.0000 23.3739 0.0000
# 6 0.0000 0.0000 0.0000 0.0000 0.0000 66.8966
#
#
#
# Elastic Compliance Matrix: (Units=1/GPa)
#
#
# Indices 1 2 3 4 5 6 
#
# 1 0.012336 -0.007563 -0.000752 0.000000 0.000000 0.000000
# 2 -0.007563 0.012336 -0.000752 0.000000 0.000000 0.000000
# 3 -0.000752 -0.000752 0.012266 0.000000 0.000000 0.000000
# 4 0.000000 0.000000 0.000000 0.042783 0.000000 0.000000
# 5 0.000000 0.000000 0.000000 0.000000 0.042783 0.000000
# 6 0.000000 0.000000 0.000000 0.000000 0.000000 0.014948
#
#
# Mechanical properties :
#
#
# Convention : Reuss Voigt Hill
#
# Bulk Modulus (GPa) = 53.17861 62.53036 57.85449
# Shear Modulus (GPa) = 30.89199 38.67098 34.78148
#
# Velocity S-wave (km/s) = 3.64460 4.07774 3.86724
# Velocity P-wave (km/s) = 6.37000 7.00413 6.69457
#
# Compressibility (1/GPa) = 0.01880455
#
# Stress axis : x y z
#
# Youngs Moduli (GPa) = 81.06244 81.06244 81.52589
#
# Poissons Ratio (x) = 0.61307 0.06131
# Poissons Ratio (y) = 0.61307 0.06131
# Poissons Ratio (z) = 0.06096 0.06096
#
# Static dielectric constant tensor:
#      x y z
#    x 2.003940 0.000000 0.000000 
#    y 0.000000 2.003940 0.000000 
#    z 0.000000 0.000000 2.018300 
# 
# From -- ./inp_files/2215.got.cif
#   From: 2010.05.17/outbox.cif.g08.bks.cpg/sg130_2_cif.got.tgz:2215.got - 2010.05.20 12:17:35.
