data_PCOD9565094
_publ_section_title
;
Structure prediction by ZEFSAII (Michael W. Deem and Ramdas Pophale) SiO2 
 PCOD9565094
Probable space group: P 4/M N C
;
_chemical_formula_sum "Si O2"
_cell_formula_units_Z 60
_cell_length_a 12.000000
_cell_length_b 12.000000
_cell_length_c 21.000000
_cell_angle_alpha 90.000000
_cell_angle_beta 90.000000
_cell_angle_gamma 90.000000
_cell_volume 3024.000000
_symmetry_space_group_name_H-M "P 4/M N C"
_symmetry_group_IT_number 128
_symmetry_cell_setting 'tetragonal'
loop_
_space_group_symop_operation_xyz
x,y,z
-y,x,z
-x,-y,z
y,-x,z
1/2+x,1/2-y,1/2-z
1/2-x,1/2+y,1/2-z
1/2+y,1/2+x,1/2-z
1/2-y,1/2-x,1/2-z
-x,-y,-z
y,-x,-z
x,y,-z
-y,x,-z
1/2-x,1/2+y,1/2+z
1/2+x,1/2-y,1/2+z
1/2-y,1/2-x,1/2+z
1/2+y,1/2+x,1/2+z
loop_
_atom_site_type_symbol
_atom_site_label
_atom_site_fract_x
_atom_site_fract_y
_atom_site_fract_z
Si Si1 0.230002 0.476788 0.143075
Si Si2 0.894846 0.710853 0.073499
Si Si3 0.786724 0.713277 0.250000
Si Si4 0.000000 0.000000 0.630026
Si Si5 0.726246 0.869403 0.859319
O O1 0.165366 0.406204 0.089080
O O2 0.214851 0.396288 0.205230
O O3 0.361492 0.489556 0.130855
O O4 0.174862 0.599127 0.145964
O O5 0.800725 0.803365 0.088805
O O6 0.001180 0.725693 0.120609
O O7 0.930320 0.716478 0.000000
O O8 0.782124 0.825003 0.206409
#
# Coordination Sequence:
#
# PCOD9565094 Si02
#       5
#    16  16   8   4  16
#     4  11  24  44  70 103 143 185 236 301 360 432
#     4  11  25  46  72 104 142 189 241 297 364 433
#     4  10  24  42  70 104 140 190 236 290 367 433
#     4  12  20  48  65 100 144 168 237 300 352 422
#     4  11  25  44  69 105 140 190 239 298 358 430
#
# _framework density 19.841270000000002
#
# number of rings (size 3 to 8) (size 9 to 14) (size 15 to 20)
#    0.000    1.067    5.333    1.600    7.467    3.733 
#    0.000    2.000    0.000    0.000    0.000    0.000 
#    0.000    0.000    0.000    0.000    0.000    0.000 
#
# Total GULP energy -334112.154398 kJ/mol
# GULP energy per Si atom -5568.535907 kJ/mol
# Density = 1.979611 g / cm^3
# Si number density = 19.841270 Si / 1000 Ang^3
#
#
#
# Elastic Constant Matrix: (Units=GPa)
#
#
# Indices 1 2 3 4 5 6 
#
# 1 154.2983 47.5769 25.8469 0.0000 0.0000 0.0000
# 2 47.5769 154.2994 25.8470 0.0000 0.0000 0.0000
# 3 25.8469 25.8470 98.0534 0.0000 0.0000 0.0000
# 4 0.0000 0.0000 0.0000 19.5833 0.0000 0.0000
# 5 0.0000 0.0000 0.0000 0.0000 19.5832 0.0000
# 6 0.0000 0.0000 0.0000 0.0000 0.0000 37.8627
#
#
#
# Elastic Compliance Matrix: (Units=1/GPa)
#
#
# Indices 1 2 3 4 5 6 
#
# 1 0.007341 -0.002029 -0.001400 0.000000 0.000000 0.000000
# 2 -0.002029 0.007341 -0.001400 0.000000 0.000000 0.000000
# 3 -0.001400 -0.001400 0.010937 0.000000 0.000000 0.000000
# 4 0.000000 0.000000 0.000000 0.051064 0.000000 0.000000
# 5 0.000000 0.000000 0.000000 0.000000 0.051064 0.000000
# 6 0.000000 0.000000 0.000000 0.000000 0.000000 0.026411
#
#
# Mechanical properties :
#
#
# Convention : Reuss Voigt Hill
#
# Bulk Modulus (GPa) = 62.65718 67.24363 64.95040
# Shear Modulus (GPa) = 29.56175 35.89786 32.72980
#
# Velocity S-wave (km/s) = 3.86413 4.25815 4.06591
# Velocity P-wave (km/s) = 7.18028 7.62497 7.40596
#
# Compressibility (1/GPa) = 0.01595986
#
# Stress axis : x y z
#
# Youngs Moduli (GPa) = 136.21841 136.21943 91.43482
#
# Poissons Ratio (x) = 0.27639 0.12803
# Poissons Ratio (y) = 0.27639 0.12803
# Poissons Ratio (z) = 0.19074 0.19074
#
# Static dielectric constant tensor:
#      x y z
#    x 1.683110 0.000000 0.000000 
#    y 0.000000 1.683110 0.000000 
#    z 0.000000 0.000000 1.757140 
# 
# From -- ./inp_files/5444.got.cif
#   From: 2010.05.17/outbox.ucp.g08.bks.cvg/sg128_3_cif.got.tgz:5444.got - 2010.06.11 11:37:33.
