data_PCOD9565282
_publ_section_title
;
Structure prediction by ZEFSAII (Michael W. Deem and Ramdas Pophale) SiO2 
 PCOD9565282
Probable space group: P 4/N M M
;
_chemical_formula_sum "Si O2"
_cell_formula_units_Z 120
_cell_length_a 21.694301
_cell_length_b 21.694301
_cell_length_c 15.718822
_cell_angle_alpha 90.000000
_cell_angle_beta 90.000000
_cell_angle_gamma 90.000000
_cell_volume 7397.948762
_symmetry_space_group_name_H-M "P 4/N M M"
_symmetry_group_IT_number 129
_symmetry_cell_setting 'tetragonal'
loop_
_space_group_symop_operation_xyz
x,y,z
1/2-y,x,z
1/2-x,1/2-y,z
y,1/2-x,z
1/2+x,-y,-z
-x,1/2+y,-z
1/2+y,1/2+x,-z
-y,-x,-z
-x,-y,-z
1/2+y,-x,-z
1/2+x,1/2+y,-z
-y,1/2+x,-z
1/2-x,y,z
x,1/2-y,z
1/2-y,1/2-x,z
y,x,z
loop_
_atom_site_type_symbol
_atom_site_label
_atom_site_fract_x
_atom_site_fract_y
_atom_site_fract_z
Si Si1 0.563462 0.321413 0.377284
Si Si2 0.599141 0.103208 0.772924
Si Si3 0.583044 0.480812 0.074879
Si Si4 0.602714 0.502974 0.490493
Si Si5 0.820512 0.179489 0.500000
Si Si6 0.177027 0.072967 0.857548
Si Si7 0.676772 0.319190 0.901244
Si Si8 0.998452 0.678320 0.317561
O O1 0.557588 0.250000 0.354156
O O2 0.563303 0.365790 0.296454
O O3 0.512326 0.343293 0.443834
O O4 0.629053 0.329139 0.426582
O O5 0.550796 0.069381 0.834274
O O6 0.646653 0.133816 0.837501
O O7 0.562481 0.157305 0.724873
O O8 0.536596 0.536596 0.060439
O O9 0.649142 0.515031 0.087628
O O10 0.567851 0.432149 0.000000
O O11 0.554174 0.445827 0.500000
O O12 0.563539 0.563539 0.510375
O O13 0.632714 0.509185 0.397300
O O14 0.750000 0.172527 0.468346
O O15 0.250000 0.082796 0.874678
O O16 0.132685 0.132685 0.870759
O O17 0.171196 0.051394 0.758531
O O18 0.750000 0.318336 0.889458
O O19 0.652819 0.250000 0.885323
O O20 0.666026 0.333975 0.000000
O O21 0.999630 0.750000 0.343721
#
# Coordination Sequence:
#
# PCOD9565282 Si02
#       8
#    16  16  16  16   8  16  16  16
#     4  11  21  33  46  68  96 122 157 202 248 291
#     4  11  19  30  46  71  92 124 155 196 243 294
#     4   9  19  35  53  72  98 131 169 207 246 297
#     4  11  21  34  49  67  90 124 167 204 246 293
#     4   9  18  32  47  62  88 128 165 194 230 279
#     4   9  18  32  52  79 107 136 171 212 262 318
#     4   9  18  31  44  60  86 120 157 195 230 270
#     4  10  19  32  50  72  99 130 165 205 246 296
#
# _framework density 16.220711999999999
#
# number of rings (size 3 to 8) (size 9 to 14) (size 15 to 20)
#    0.000    2.067    2.000    2.400    0.000    3.867 
#    0.000    2.667    0.000    0.000    0.000    0.000 
#    0.000    2.400    0.000    0.000    0.000    0.267 
#
# Total GULP energy -668583.665630 kJ/mol
# GULP energy per Si atom -5571.530547 kJ/mol
# Density = 1.618379 g / cm^3
# Si number density = 16.220712 Si / 1000 Ang^3
#
#
#
# Elastic Constant Matrix: (Units=GPa)
#
#
# Indices 1 2 3 4 5 6 
#
# 1 51.6957 34.3906 15.6143 0.0000 0.0000 0.0000
# 2 34.3906 51.6959 15.6135 0.0000 0.0000 0.0000
# 3 15.6143 15.6135 42.9284 0.0000 0.0000 0.0000
# 4 0.0000 0.0000 0.0000 11.3834 0.0000 0.0000
# 5 0.0000 0.0000 0.0000 0.0000 11.3825 0.0000
# 6 0.0000 0.0000 0.0000 0.0000 0.0000 22.2324
#
#
#
# Elastic Compliance Matrix: (Units=1/GPa)
#
#
# Indices 1 2 3 4 5 6 
#
# 1 0.035584 -0.022202 -0.004868 0.000000 0.000000 0.000000
# 2 -0.022202 0.035584 -0.004867 0.000000 0.000000 0.000000
# 3 -0.004868 -0.004867 0.026835 0.000000 0.000000 0.000000
# 4 0.000000 0.000000 0.000000 0.087847 0.000000 0.000000
# 5 0.000000 0.000000 0.000000 0.000000 0.087854 0.000000
# 6 0.000000 0.000000 0.000000 0.000000 0.000000 0.044979
#
#
# Mechanical properties :
#
#
# Convention : Reuss Voigt Hill
#
# Bulk Modulus (GPa) = 29.29978 30.83963 30.06970
# Shear Modulus (GPa) = 12.69248 14.37975 13.53612
#
# Velocity S-wave (km/s) = 2.80033 2.98065 2.89190
# Velocity P-wave (km/s) = 5.34399 5.55873 5.45242
#
# Compressibility (1/GPa) = 0.03412995
#
# Stress axis : x y z
#
# Youngs Moduli (GPa) = 28.10231 28.10277 37.26451
#
# Poissons Ratio (x) = 0.62394 0.18140
# Poissons Ratio (y) = 0.62393 0.18135
# Poissons Ratio (z) = 0.13680 0.13676
#
# Static dielectric constant tensor:
#      x y z
#    x 1.567820 0.000000 0.000000 
#    y 0.000000 1.567810 0.000000 
#    z 0.000000 0.000000 1.564770 
# 
# From -- ./inp_files/5099.got.cif
#   From: 2010.05.17/outbox.cif.g08.bks.cpg/sg129_3_cif.got.tgz:5099.got - 2010.05.20 12:12:06.
