data_PCOD9565490
_publ_section_title
;
Structure prediction by ZEFSAII (Michael W. Deem and Ramdas Pophale) SiO2 
 PCOD9565490
Probable space group: P 4/N M M
;
_chemical_formula_sum "Si O2"
_cell_formula_units_Z 48
_cell_length_a 19.818060
_cell_length_b 19.818060
_cell_length_c 5.240772
_cell_angle_alpha 90.000000
_cell_angle_beta 90.000000
_cell_angle_gamma 90.000000
_cell_volume 2058.342039
_symmetry_space_group_name_H-M "P 4/N M M"
_symmetry_group_IT_number 129
_symmetry_cell_setting 'tetragonal'
loop_
_space_group_symop_operation_xyz
x,y,z
1/2-y,x,z
1/2-x,1/2-y,z
y,1/2-x,z
1/2+x,-y,-z
-x,1/2+y,-z
1/2+y,1/2+x,-z
-y,-x,-z
-x,-y,-z
1/2+y,-x,-z
1/2+x,1/2+y,-z
-y,1/2+x,-z
1/2-x,y,z
x,1/2-y,z
1/2-y,1/2-x,z
y,x,z
loop_
_atom_site_type_symbol
_atom_site_label
_atom_site_fract_x
_atom_site_fract_y
_atom_site_fract_z
Si Si1 0.954661 0.750000 0.641160
Si Si2 0.250000 0.363327 0.862330
Si Si3 0.111448 0.827956 0.238519
Si Si4 0.002357 0.109652 0.574535
O O1 0.917273 0.750000 0.910626
O O2 0.992240 0.677319 0.600226
O O3 0.900743 0.750000 0.408840
O O4 0.185061 0.314940 0.884266
O O5 0.143027 0.856974 0.500000
O O6 0.101084 0.750000 0.274255
O O7 0.038369 0.861345 0.184493
O O8 0.158205 0.841796 0.000000
O O9 0.951271 0.048730 0.500000
O O10 0.074481 0.074481 0.609535
#
# Coordination Sequence:
#
# PCOD9565490 Si02
#       4
#     8   8  16  16
#     4  12  24  45  74 101 142 190 240 292 356 422
#     4  11  24  42  68 106 146 185 236 294 356 427
#     4  11  24  43  68 100 138 179 230 284 348 417
#     4  10  23  45  72 105 142 185 236 291 352 421
#
# _framework density 23.319739999999999
#
# number of rings (size 3 to 8) (size 9 to 14) (size 15 to 20)
#    0.000    1.167    1.667    4.000    0.000    9.333 
#    0.000    6.667    0.000    0.500    0.000    0.000 
#    0.000    0.000    0.000    0.000    0.000    0.000 
#
# Total GULP energy -267804.837028 kJ/mol
# GULP energy per Si atom -5579.267438 kJ/mol
# Density = 2.326666 g / cm^3
# Si number density = 23.319740 Si / 1000 Ang^3
#
#
#
# Elastic Constant Matrix: (Units=GPa)
#
#
# Indices 1 2 3 4 5 6 
#
# 1 149.8696 67.3279 26.5130 0.0000 0.0000 0.0000
# 2 67.3279 149.8736 26.5143 0.0000 0.0000 0.0000
# 3 26.5130 26.5143 83.5101 0.0000 0.0000 0.0000
# 4 0.0000 0.0000 0.0000 22.4659 0.0000 0.0000
# 5 0.0000 0.0000 0.0000 0.0000 22.4616 0.0000
# 6 0.0000 0.0000 0.0000 0.0000 0.0000 43.6597
#
#
#
# Elastic Compliance Matrix: (Units=1/GPa)
#
#
# Indices 1 2 3 4 5 6 
#
# 1 0.008553 -0.003562 -0.001585 0.000000 0.000000 0.000000
# 2 -0.003562 0.008553 -0.001585 0.000000 0.000000 0.000000
# 3 -0.001585 -0.001585 0.012981 0.000000 0.000000 0.000000
# 4 0.000000 0.000000 0.000000 0.044512 0.000000 0.000000
# 5 0.000000 0.000000 0.000000 0.000000 0.044520 0.000000
# 6 0.000000 0.000000 0.000000 0.000000 0.000000 0.022904
#
#
# Mechanical properties :
#
#
# Convention : Reuss Voigt Hill
#
# Bulk Modulus (GPa) = 60.15278 69.32930 64.74104
# Shear Modulus (GPa) = 31.05075 35.24399 33.14737
#
# Velocity S-wave (km/s) = 3.65296 3.89181 3.77428
# Velocity P-wave (km/s) = 6.60628 7.07031 6.84223
#
# Compressibility (1/GPa) = 0.01662434
#
# Stress axis : x y z
#
# Youngs Moduli (GPa) = 116.91871 116.92132 77.03697
#
# Poissons Ratio (x) = 0.41647 0.12207
# Poissons Ratio (y) = 0.41646 0.12208
# Poissons Ratio (z) = 0.18526 0.18528
#
# Static dielectric constant tensor:
#      x y z
#    x 1.912220 0.000000 0.000000 
#    y 0.000000 1.912210 0.000000 
#    z 0.000000 0.000000 1.832180 
# 
# From -- ./inp_files/492.got.cif
#   From: 2010.05.17/outbox.cif.g08.bks.cpg/sg129_1_cif.got.tgz:492.got - 2010.05.20 12:12:06.
