data_PCOD9565687
_publ_section_title
;
Structure prediction by ZEFSAII (Michael W. Deem and Ramdas Pophale) SiO2 
 PCOD9565687
Probable space group: P 4/N C C
;
_chemical_formula_sum "Si O2"
_cell_formula_units_Z 88
_cell_length_a 12.126347
_cell_length_b 12.126347
_cell_length_c 30.934861
_cell_angle_alpha 90.000000
_cell_angle_beta 90.000000
_cell_angle_gamma 90.000000
_cell_volume 4548.918460
_symmetry_space_group_name_H-M "P 4/N C C"
_symmetry_group_IT_number 130
_symmetry_cell_setting 'tetragonal'
loop_
_space_group_symop_operation_xyz
x,y,z
1/2-y,x,z
1/2-x,1/2-y,z
y,1/2-x,z
1/2+x,-y,1/2-z
-x,1/2+y,1/2-z
1/2+y,1/2+x,1/2-z
-y,-x,1/2-z
-x,-y,-z
1/2+y,-x,-z
1/2+x,1/2+y,-z
-y,1/2+x,-z
1/2-x,y,1/2+z
x,1/2-y,1/2+z
1/2-y,1/2-x,1/2+z
y,x,1/2+z
loop_
_atom_site_type_symbol
_atom_site_label
_atom_site_fract_x
_atom_site_fract_y
_atom_site_fract_z
Si Si1 0.710986 0.573993 0.714073
Si Si2 0.285796 0.426423 0.181623
Si Si3 0.250000 0.250000 0.498600
Si Si4 0.422927 0.782817 0.568857
Si Si5 0.326942 0.847402 0.835459
Si Si6 0.943525 0.910433 0.530644
Si Si7 0.250000 0.750000 0.000000
O O1 0.831285 0.622493 0.701932
O O2 0.710389 0.564583 0.766121
O O3 0.684996 0.458116 0.692526
O O4 0.166631 0.375932 0.169507
O O5 0.309847 0.546127 0.163185
O O6 0.137040 0.172637 0.495073
O O7 0.373980 0.787005 0.616260
O O8 0.524033 0.867046 0.564525
O O9 0.467665 0.662840 0.555909
O O10 0.333022 0.811686 0.532226
O O11 0.250000 0.750000 0.817346
O O12 0.000000 0.000000 0.500000
#
# Coordination Sequence:
#
# PCOD9565687 Si02
#       7
#    16  16   4  16  16  16   4
#     4   9  21  42  65  94 127 172 216 260 322 388
#     4   9  21  44  69  89 128 177 217 260 320 389
#     4   8  20  36  56 104 108 136 228 254 304 396
#     4  11  24  39  61  91 121 165 212 257 317 380
#     4  12  26  38  61 100 132 163 213 274 323 385
#     4  10  20  39  65  82 122 168 204 263 321 376
#     4  12  20  44  60  84 122 156 208 256 308 384
#
# _framework density 19.345258999999999
#
# number of rings (size 3 to 8) (size 9 to 14) (size 15 to 20)
#    0.000    1.818    2.727    1.636    5.091    1.455 
#    0.000    0.000    0.000    0.000    0.000    0.000 
#    0.000    0.000    0.000    0.000    0.000    0.000 
#
# Total GULP energy -490298.658404 kJ/mol
# GULP energy per Si atom -5571.575664 kJ/mol
# Density = 1.930123 g / cm^3
# Si number density = 19.345259 Si / 1000 Ang^3
#
#
#
# Elastic Constant Matrix: (Units=GPa)
#
#
# Indices 1 2 3 4 5 6 
#
# 1 134.1049 60.6006 25.7963 0.0000 0.0000 0.0000
# 2 60.6006 134.1049 25.7963 0.0000 0.0000 0.0000
# 3 25.7963 25.7963 26.1780 0.0000 0.0000 0.0000
# 4 0.0000 0.0000 0.0000 28.1727 0.0000 0.0000
# 5 0.0000 0.0000 0.0000 0.0000 28.1727 0.0000
# 6 0.0000 0.0000 0.0000 0.0000 0.0000 50.2282
#
#
#
# Elastic Compliance Matrix: (Units=1/GPa)
#
#
# Indices 1 2 3 4 5 6 
#
# 1 0.010278 -0.003327 -0.006850 0.000000 0.000000 0.000000
# 2 -0.003327 0.010278 -0.006850 0.000000 0.000000 0.000000
# 3 -0.006850 -0.006850 0.051699 0.000000 0.000000 0.000000
# 4 0.000000 0.000000 0.000000 0.035495 0.000000 0.000000
# 5 0.000000 0.000000 0.000000 0.000000 0.035495 0.000000
# 6 0.000000 0.000000 0.000000 0.000000 0.000000 0.019909
#
#
# Mechanical properties :
#
#
# Convention : Reuss Voigt Hill
#
# Bulk Modulus (GPa) = 26.17602 57.64157 41.90880
# Shear Modulus (GPa) = 23.81622 33.46105 28.63863
#
# Velocity S-wave (km/s) = 3.51253 4.16345 3.85176
# Velocity P-wave (km/s) = 5.47822 7.27828 6.44144
#
# Compressibility (1/GPa) = 0.03820290
#
# Stress axis : x y z
#
# Youngs Moduli (GPa) = 97.29713 97.29713 19.34263
#
# Poissons Ratio (x) = 0.32369 0.13249
# Poissons Ratio (y) = 0.32369 0.13249
# Poissons Ratio (z) = 0.66644 0.66644
#
# Static dielectric constant tensor:
#      x y z
#    x 1.696500 0.000000 0.000000 
#    y 0.000000 1.696500 0.000000 
#    z 0.000000 0.000000 1.654540 
# 
# From -- ./inp_files/4903.got.cif
#   From: 2010.05.17/outbox.cif.g08.bks.cpg/sg130_3_cif.got.tgz:4903.got - 2010.05.20 12:17:35.
