data_PCOD9565892
_publ_section_title
;
Structure prediction by ZEFSAII (Michael W. Deem and Ramdas Pophale) SiO2 
 PCOD9565892
Probable space group: P 4/N C C
;
_chemical_formula_sum "Si O2"
_cell_formula_units_Z 112
_cell_length_a 15.129984
_cell_length_b 15.129984
_cell_length_c 24.704553
_cell_angle_alpha 90.000000
_cell_angle_beta 90.000000
_cell_angle_gamma 90.000000
_cell_volume 5655.277728
_symmetry_space_group_name_H-M "P 4/N C C"
_symmetry_group_IT_number 130
_symmetry_cell_setting 'tetragonal'
loop_
_space_group_symop_operation_xyz
x,y,z
1/2-y,x,z
1/2-x,1/2-y,z
y,1/2-x,z
1/2+x,-y,1/2-z
-x,1/2+y,1/2-z
1/2+y,1/2+x,1/2-z
-y,-x,1/2-z
-x,-y,-z
1/2+y,-x,-z
1/2+x,1/2+y,-z
-y,1/2+x,-z
1/2-x,y,1/2+z
x,1/2-y,1/2+z
1/2-y,1/2-x,1/2+z
y,x,1/2+z
loop_
_atom_site_type_symbol
_atom_site_label
_atom_site_fract_x
_atom_site_fract_y
_atom_site_fract_z
Si Si1 0.915897 0.555943 0.380627
Si Si2 0.743893 0.142948 0.316218
Si Si3 0.938032 0.141726 0.875269
Si Si4 0.754875 0.494686 0.720713
Si Si5 0.991056 0.223341 0.091611
Si Si6 0.430106 0.424019 0.741275
Si Si7 0.386885 0.730784 0.011872
O O1 0.964543 0.460330 0.386451
O O2 0.954206 0.633993 0.416649
O O3 0.810654 0.541667 0.387080
O O4 0.935124 0.593104 0.321011
O O5 0.750000 0.250000 0.317154
O O6 0.643665 0.125888 0.334397
O O7 0.761176 0.094203 0.258716
O O8 0.793192 0.089997 0.365134
O O9 0.911899 0.185030 0.932129
O O10 0.988569 0.214917 0.839763
O O11 0.851011 0.537824 0.722851
O O12 0.678679 0.551860 0.749230
O O13 0.960599 0.251134 0.031831
O O14 0.518718 0.481283 0.750000
O O15 0.320323 0.666637 0.979298
#
# Coordination Sequence:
#
# PCOD9565892 Si02
#       7
#    16  16  16  16  16  16  16
#     4  11  21  43  64  94 131 169 225 284 332 402
#     4  11  21  38  62  94 128 163 211 276 338 405
#     4  11  23  40  61  93 136 171 209 283 335 408
#     4  12  25  42  65  97 136 178 224 274 343 408
#     4  11  23  40  68  94 126 178 225 274 343 400
#     4  12  23  42  65  96 138 174 223 281 329 412
#     4  11  22  41  64  94 134 169 220 276 346 420
#
# _framework density 19.804507999999998
#
# number of rings (size 3 to 8) (size 9 to 14) (size 15 to 20)
#    0.000    0.714    8.571    1.286    2.000    2.857 
#    0.000    1.429    0.000    0.000    0.000    2.000 
#    0.000    0.000    0.000    0.000    0.000    0.000 
#
# Total GULP energy -624118.857127 kJ/mol
# GULP energy per Si atom -5572.489796 kJ/mol
# Density = 1.975943 g / cm^3
# Si number density = 19.804508 Si / 1000 Ang^3
#
#
#
# Elastic Constant Matrix: (Units=GPa)
#
#
# Indices 1 2 3 4 5 6 
#
# 1 71.5560 20.3275 11.5416 0.0000 0.0000 0.0000
# 2 20.3275 71.5581 11.5413 0.0000 0.0000 0.0000
# 3 11.5416 11.5413 71.6941 0.0000 0.0000 0.0000
# 4 0.0000 0.0000 0.0000 20.3326 0.0000 0.0000
# 5 0.0000 0.0000 0.0000 0.0000 20.3319 0.0000
# 6 0.0000 0.0000 0.0000 0.0000 0.0000 28.2498
#
#
#
# Elastic Compliance Matrix: (Units=1/GPa)
#
#
# Indices 1 2 3 4 5 6 
#
# 1 0.015431 -0.004089 -0.001826 0.000000 0.000000 0.000000
# 2 -0.004089 0.015431 -0.001826 0.000000 0.000000 0.000000
# 3 -0.001826 -0.001826 0.014536 0.000000 0.000000 0.000000
# 4 0.000000 0.000000 0.000000 0.049182 0.000000 0.000000
# 5 0.000000 0.000000 0.000000 0.000000 0.049184 0.000000
# 6 0.000000 0.000000 0.000000 0.000000 0.000000 0.035398
#
#
# Mechanical properties :
#
#
# Convention : Reuss Voigt Hill
#
# Bulk Modulus (GPa) = 33.42644 33.51435 33.47040
# Shear Modulus (GPa) = 24.43603 25.20938 24.82270
#
# Velocity S-wave (km/s) = 3.51645 3.57166 3.54416
# Velocity P-wave (km/s) = 5.77945 5.82823 5.80389
#
# Compressibility (1/GPa) = 0.02991643
#
# Stress axis : x y z
#
# Youngs Moduli (GPa) = 64.80382 64.80586 68.79472
#
# Poissons Ratio (x) = 0.26499 0.12561
# Poissons Ratio (y) = 0.26499 0.12560
# Poissons Ratio (z) = 0.11833 0.11832
#
# Static dielectric constant tensor:
#      x y z
#    x 1.732340 0.000000 0.000000 
#    y 0.000000 1.732340 0.000000 
#    z 0.000000 0.000000 1.742430 
# 
# From -- ./inp_files/4290.got.cif
#   From: 2010.05.17/outbox.cif.g08.bks.cpg/sg130_3_cif.got.tgz:4290.got - 2010.05.20 12:17:35.
