data_PCOD9565567
_publ_section_title
;
Structure prediction by ZEFSAII (Michael W. Deem and Ramdas Pophale) SiO2 
 PCOD9565567
Probable space group: P 4/N C C
;
_chemical_formula_sum "Si O2"
_cell_formula_units_Z 116
_cell_length_a 18.415603
_cell_length_b 18.415603
_cell_length_c 14.670629
_cell_angle_alpha 90.000000
_cell_angle_beta 90.000000
_cell_angle_gamma 90.000000
_cell_volume 4975.315460
_symmetry_space_group_name_H-M "P 4/N C C"
_symmetry_group_IT_number 130
_symmetry_cell_setting 'tetragonal'
loop_
_space_group_symop_operation_xyz
x,y,z
1/2-y,x,z
1/2-x,1/2-y,z
y,1/2-x,z
1/2+x,-y,1/2-z
-x,1/2+y,1/2-z
1/2+y,1/2+x,1/2-z
-y,-x,1/2-z
-x,-y,-z
1/2+y,-x,-z
1/2+x,1/2+y,-z
-y,1/2+x,-z
1/2-x,y,1/2+z
x,1/2-y,1/2+z
1/2-y,1/2-x,1/2+z
y,x,1/2+z
loop_
_atom_site_type_symbol
_atom_site_label
_atom_site_fract_x
_atom_site_fract_y
_atom_site_fract_z
Si Si1 0.313533 0.801572 0.861656
Si Si2 0.116337 0.173196 0.579264
Si Si3 0.514607 0.586191 0.867599
Si Si4 0.027149 0.749694 0.350428
Si Si5 0.750000 0.750000 0.342844
Si Si6 0.450242 0.069881 0.842000
Si Si7 0.052178 0.846837 0.182885
Si Si8 0.853767 0.698696 0.125531
O O1 0.250000 0.750000 0.896055
O O2 0.303781 0.803781 0.750000
O O3 0.393280 0.772770 0.884930
O O4 0.314527 0.886854 0.883945
O O5 0.096548 0.087828 0.574778
O O6 0.182509 0.189578 0.648005
O O7 0.146765 0.200582 0.483535
O O8 0.042039 0.215065 0.600733
O O9 0.477743 0.663728 0.855916
O O10 0.456983 0.523398 0.890867
O O11 0.542654 0.563524 0.767237
O O12 0.024561 0.783456 0.248704
O O13 0.424307 0.151892 0.854281
O O14 0.387349 0.012703 0.867237
O O15 0.093894 0.906107 0.250000
O O16 0.843417 0.780987 0.157638
#
# Coordination Sequence:
#
# PCOD9565567 Si02
#       8
#    16  16  16  16   4  16  16  16
#     4   8  16  30  51  79 115 153 189 234 292 360
#     4  12  20  40  64  85 116 158 211 253 299 357
#     4  11  22  36  57  90 120 151 192 254 297 357
#     4  10  19  31  59  85 111 148 199 245 289 351
#     4  12  20  36  64  86 112 160 208 274 296 352
#     4  11  23  37  54  86 129 154 189 244 309 358
#     4   9  16  34  53  76 118 153 186 231 293 349
#     4  11  24  44  60  84 119 161 204 253 303 364
#
# _framework density 23.315104000000002
#
# number of rings (size 3 to 8) (size 9 to 14) (size 15 to 20)
#    0.000    1.931    5.517    0.828    1.931    4.966 
#    0.000    0.000    0.000    0.000    0.000    0.000 
#    0.000    0.000    0.000    0.000    0.000    0.000 
#
# Total GULP energy -647011.042997 kJ/mol
# GULP energy per Si atom -5577.681405 kJ/mol
# Density = 2.326204 g / cm^3
# Si number density = 23.315104 Si / 1000 Ang^3
#
#
#
# Elastic Constant Matrix: (Units=GPa)
#
#
# Indices 1 2 3 4 5 6 
#
# 1 122.6066 70.3177 6.9302 0.0000 0.0000 0.0000
# 2 70.3177 122.6073 6.9302 0.0000 0.0000 0.0000
# 3 6.9302 6.9302 38.1392 0.0000 0.0000 0.0000
# 4 0.0000 0.0000 0.0000 10.8062 0.0000 0.0000
# 5 0.0000 0.0000 0.0000 0.0000 10.8062 0.0000
# 6 0.0000 0.0000 0.0000 0.0000 0.0000 38.3712
#
#
#
# Elastic Compliance Matrix: (Units=1/GPa)
#
#
# Indices 1 2 3 4 5 6 
#
# 1 0.012188 -0.006936 -0.000954 0.000000 0.000000 0.000000
# 2 -0.006936 0.012188 -0.000954 0.000000 0.000000 0.000000
# 3 -0.000954 -0.000954 0.026567 0.000000 0.000000 0.000000
# 4 0.000000 0.000000 0.000000 0.092540 0.000000 0.000000
# 5 0.000000 0.000000 0.000000 0.000000 0.092539 0.000000
# 6 0.000000 0.000000 0.000000 0.000000 0.000000 0.026061
#
#
# Mechanical properties :
#
#
# Convention : Reuss Voigt Hill
#
# Bulk Modulus (GPa) = 30.07232 50.18993 40.13112
# Shear Modulus (GPa) = 17.19057 25.27505 21.23281
#
# Velocity S-wave (km/s) = 2.71830 3.29608 3.02104
# Velocity P-wave (km/s) = 4.77267 6.00492 5.42391
#
# Compressibility (1/GPa) = 0.03325317
#
# Stress axis : x y z
#
# Youngs Moduli (GPa) = 82.04663 82.04711 37.64126
#
# Poissons Ratio (x) = 0.56910 0.03592
# Poissons Ratio (y) = 0.56909 0.03592
# Poissons Ratio (z) = 0.07830 0.07830
#
# Static dielectric constant tensor:
#      x y z
#    x 1.914040 0.000000 0.000000 
#    y 0.000000 1.914030 0.000000 
#    z 0.000000 0.000000 1.958960 
# 
# From -- ./inp_files/3209.got.cif
#   From: 2010.05.17/outbox.cif.g08.bks.cpg/sg130_2_cif.got.tgz:3209.got - 2010.05.20 12:17:35.
