data_PCOD9565165
_publ_section_title
;
Structure prediction by ZEFSAII (Michael W. Deem and Ramdas Pophale) SiO2 
 PCOD9565165
Probable space group: P 4/N M M
;
_chemical_formula_sum "Si O2"
_cell_formula_units_Z 128
_cell_length_a 24.310927
_cell_length_b 24.310927
_cell_length_c 13.365950
_cell_angle_alpha 90.000000
_cell_angle_beta 90.000000
_cell_angle_gamma 90.000000
_cell_volume 7899.559429
_symmetry_space_group_name_H-M "P 4/N M M"
_symmetry_group_IT_number 129
_symmetry_cell_setting 'tetragonal'
loop_
_space_group_symop_operation_xyz
x,y,z
1/2-y,x,z
1/2-x,1/2-y,z
y,1/2-x,z
1/2+x,-y,-z
-x,1/2+y,-z
1/2+y,1/2+x,-z
-y,-x,-z
-x,-y,-z
1/2+y,-x,-z
1/2+x,1/2+y,-z
-y,1/2+x,-z
1/2-x,y,z
x,1/2-y,z
1/2-y,1/2-x,z
y,x,z
loop_
_atom_site_type_symbol
_atom_site_label
_atom_site_fract_x
_atom_site_fract_y
_atom_site_fract_z
Si Si1 0.610128 0.313245 0.562015
Si Si2 0.892069 0.397392 0.741639
Si Si3 0.812254 0.008502 0.999931
Si Si4 0.813014 0.474488 0.619095
Si Si5 0.311994 0.868523 0.090046
Si Si6 0.018582 0.926162 0.098824
Si Si7 0.599341 0.688167 0.870936
Si Si8 0.901282 0.687123 0.629563
O O1 0.661849 0.338152 0.500000
O O2 0.619509 0.250000 0.593760
O O3 0.595887 0.354818 0.652073
O O4 0.560936 0.313714 0.481680
O O5 0.854174 0.445627 0.695928
O O6 0.855433 0.364261 0.821570
O O7 0.942275 0.423298 0.804107
O O8 0.750000 0.003027 0.041803
O O9 0.863158 0.002632 0.074946
O O10 0.815663 0.068920 0.951095
O O11 0.819261 0.960949 0.917183
O O12 0.750000 0.474164 0.659387
O O13 0.827721 0.537296 0.596859
O O14 0.250000 0.858489 0.124391
O O15 0.328894 0.828894 0.000000
O O16 0.051468 0.948533 0.000000
O O17 0.967028 0.967028 0.112023
O O18 0.618224 0.750000 0.897601
O O19 0.641590 0.641590 0.906138
O O20 0.596891 0.685468 0.750794
O O21 0.889039 0.750000 0.600183
O O22 0.855315 0.644686 0.594961
#
# Coordination Sequence:
#
# PCOD9565165 Si02
#       8
#    16  16  16  16  16  16  16  16
#     4   9  20  36  56  76 100 132 170 217 264 310
#     4  11  19  34  52  75  98 132 171 211 259 308
#     4  10  18  32  50  67  93 132 173 211 245 295
#     4   9  18  34  52  73  98 128 168 207 249 304
#     4  11  21  34  49  69 101 133 168 208 250 299
#     4  11  22  35  50  75 107 138 172 217 265 308
#     4   9  17  27  42  67  95 127 164 199 241 292
#     4   9  17  28  46  71  98 127 158 193 236 291
#
# _framework density 16.203434999999999
#
# number of rings (size 3 to 8) (size 9 to 14) (size 15 to 20)
#    0.000    2.125    2.500    1.500    0.000    4.500 
#    0.000    1.875    0.000    2.250    0.000    0.000 
#    0.000    0.000    0.000    0.000    0.000    3.375 
#
# Total GULP energy -713558.823003 kJ/mol
# GULP energy per Si atom -5574.678305 kJ/mol
# Density = 1.616656 g / cm^3
# Si number density = 16.203435 Si / 1000 Ang^3
#
#
#
# Elastic Constant Matrix: (Units=GPa)
#
#
# Indices 1 2 3 4 5 6 
#
# 1 77.3229 45.0774 21.6511 0.0000 0.0000 0.0000
# 2 45.0774 77.3241 21.6517 0.0000 0.0000 0.0000
# 3 21.6511 21.6517 43.6553 0.0000 0.0000 0.0000
# 4 0.0000 0.0000 0.0000 18.4576 0.0000 0.0000
# 5 0.0000 0.0000 0.0000 0.0000 18.4576 0.0000
# 6 0.0000 0.0000 0.0000 0.0000 0.0000 23.1363
#
#
#
# Elastic Compliance Matrix: (Units=1/GPa)
#
#
# Indices 1 2 3 4 5 6 
#
# 1 0.020460 -0.010552 -0.004914 0.000000 0.000000 0.000000
# 2 -0.010552 0.020460 -0.004914 0.000000 0.000000 0.000000
# 3 -0.004914 -0.004914 0.027781 0.000000 0.000000 0.000000
# 4 0.000000 0.000000 0.000000 0.054178 0.000000 0.000000
# 5 0.000000 0.000000 0.000000 0.000000 0.054178 0.000000
# 6 0.000000 0.000000 0.000000 0.000000 0.000000 0.043222
#
#
# Mechanical properties :
#
#
# Convention : Reuss Voigt Hill
#
# Bulk Modulus (GPa) = 35.78938 41.67363 38.73151
# Shear Modulus (GPa) = 18.49431 19.33844 18.91638
#
# Velocity S-wave (km/s) = 3.38210 3.45842 3.42047
# Velocity P-wave (km/s) = 6.11449 6.45929 6.28925
#
# Compressibility (1/GPa) = 0.02794125
#
# Stress axis : x y z
#
# Youngs Moduli (GPa) = 48.87573 48.87619 35.99556
#
# Poissons Ratio (x) = 0.51572 0.17688
# Poissons Ratio (y) = 0.51571 0.17689
# Poissons Ratio (z) = 0.24018 0.24019
#
# Static dielectric constant tensor:
#      x y z
#    x 1.550930 0.000000 0.000000 
#    y 0.000000 1.550930 0.000000 
#    z 0.000000 0.000000 1.538130 
# 
# From -- ./inp_files/4227.got.cif
#   From: 2010.05.17/outbox.cif.g08.bks.cpg/sg129_3_cif.got.tgz:4227.got - 2010.05.20 12:12:06.
