data_PCOD9565295
_publ_section_title
;
Structure prediction by ZEFSAII (Michael W. Deem and Ramdas Pophale) SiO2 
 PCOD9565295
Probable space group: P 4/N M M
;
_chemical_formula_sum "Si O2"
_cell_formula_units_Z 80
_cell_length_a 12.744369
_cell_length_b 12.744369
_cell_length_c 29.781883
_cell_angle_alpha 90.000000
_cell_angle_beta 90.000000
_cell_angle_gamma 90.000000
_cell_volume 4837.141904
_symmetry_space_group_name_H-M "P 4/N M M"
_symmetry_group_IT_number 129
_symmetry_cell_setting 'tetragonal'
loop_
_space_group_symop_operation_xyz
x,y,z
1/2-y,x,z
1/2-x,1/2-y,z
y,1/2-x,z
1/2+x,-y,-z
-x,1/2+y,-z
1/2+y,1/2+x,-z
-y,-x,-z
-x,-y,-z
1/2+y,-x,-z
1/2+x,1/2+y,-z
-y,1/2+x,-z
1/2-x,y,z
x,1/2-y,z
1/2-y,1/2-x,z
y,x,z
loop_
_atom_site_type_symbol
_atom_site_label
_atom_site_fract_x
_atom_site_fract_y
_atom_site_fract_z
Si Si1 0.122504 0.750000 0.786877
Si Si2 0.130159 0.546103 0.545810
Si Si3 0.628150 0.454690 0.637897
Si Si4 0.250000 0.623019 0.110433
Si Si5 0.875985 0.050780 0.049310
Si Si6 0.627764 0.045536 0.269618
O O1 0.250000 0.750000 0.787004
O O2 0.085617 0.750000 0.838243
O O3 0.092188 0.855280 0.760400
O O4 0.108855 0.608855 0.500000
O O5 0.250000 0.513298 0.547892
O O6 0.100987 0.611609 0.590090
O O7 0.053578 0.446423 0.545375
O O8 0.750000 0.472323 0.646276
O O9 0.562230 0.562230 0.636749
O O10 0.580221 0.387127 0.678589
O O11 0.250000 0.750000 0.111203
O O12 0.143777 0.594074 0.083999
O O13 0.750000 0.031695 0.052199
O O14 0.904337 0.095663 0.000000
O O15 0.947133 0.947133 0.056658
O O16 0.750000 0.023932 0.260707
O O17 0.553878 0.946123 0.261165
#
# Coordination Sequence:
#
# PCOD9565295 Si02
#       6
#     8  16  16   8  16  16
#     4   9  18  34  54  77 103 137 179 220 259 309
#     4  10  21  35  51  74 102 132 169 211 257 312
#     4  10  20  34  53  77 103 135 174 216 264 316
#     4   9  18  32  54  77 103 139 179 220 259 309
#     4  10  19  32  52  78 108 142 180 221 265 315
#     4  10  20  34  54  79 107 139 177 221 269 320
#
# _framework density 16.538692000000001
#
# number of rings (size 3 to 8) (size 9 to 14) (size 15 to 20)
#    0.000    2.200    2.000    1.200    0.000    3.800 
#    0.000    0.000    0.000    7.800    0.000    7.000 
#    0.000    0.000    0.000    0.000    0.000    0.000 
#
# Total GULP energy -446071.059071 kJ/mol
# GULP energy per Si atom -5575.888238 kJ/mol
# Density = 1.650105 g / cm^3
# Si number density = 16.538692 Si / 1000 Ang^3
#
#
#
# Elastic Constant Matrix: (Units=GPa)
#
#
# Indices 1 2 3 4 5 6 
#
# 1 103.2650 52.4301 41.2008 0.0000 0.0000 0.0000
# 2 52.4301 103.2648 41.2007 0.0000 0.0000 0.0000
# 3 41.2008 41.2007 110.3650 0.0000 0.0000 0.0000
# 4 0.0000 0.0000 0.0000 15.7409 0.0000 0.0000
# 5 0.0000 0.0000 0.0000 0.0000 15.7407 0.0000
# 6 0.0000 0.0000 0.0000 0.0000 0.0000 9.6191
#
#
#
# Elastic Compliance Matrix: (Units=1/GPa)
#
#
# Indices 1 2 3 4 5 6 
#
# 1 0.013838 -0.005834 -0.002988 0.000000 0.000000 0.000000
# 2 -0.005834 0.013838 -0.002988 0.000000 0.000000 0.000000
# 3 -0.002988 -0.002988 0.011292 0.000000 0.000000 0.000000
# 4 0.000000 0.000000 0.000000 0.063529 0.000000 0.000000
# 5 0.000000 0.000000 0.000000 0.000000 0.063530 0.000000
# 6 0.000000 0.000000 0.000000 0.000000 0.000000 0.103960
#
#
# Mechanical properties :
#
#
# Convention : Reuss Voigt Hill
#
# Bulk Modulus (GPa) = 65.15522 65.17312 65.16417
# Shear Modulus (GPa) = 16.73798 20.35767 18.54783
#
# Velocity S-wave (km/s) = 3.18472 3.51224 3.35249
# Velocity P-wave (km/s) = 7.28042 7.47929 7.38052
#
# Compressibility (1/GPa) = 0.01534796
#
# Stress axis : x y z
#
# Youngs Moduli (GPa) = 72.26527 72.26513 88.55951
#
# Poissons Ratio (x) = 0.42157 0.26462
# Poissons Ratio (y) = 0.42157 0.26462
# Poissons Ratio (z) = 0.21594 0.21594
#
# Static dielectric constant tensor:
#      x y z
#    x 1.532980 0.000000 0.000000 
#    y 0.000000 1.532980 0.000000 
#    z 0.000000 0.000000 1.569970 
# 
# From -- ./inp_files/7723.got.cif
#   From: 2010.05.17/outbox.cif.g08.bks.cpg/sg129_4_cif.got.tgz:7723.got - 2010.05.20 12:12:06.
