data_PCOD9565101
_publ_section_title
;
Structure prediction by ZEFSAII (Michael W. Deem and Ramdas Pophale) SiO2 
 PCOD9565101
Probable space group: P 4/N M M
;
_chemical_formula_sum "Si O2"
_cell_formula_units_Z 52
_cell_length_a 22.491594
_cell_length_b 22.491594
_cell_length_c 5.100926
_cell_angle_alpha 90.000000
_cell_angle_beta 90.000000
_cell_angle_gamma 90.000000
_cell_volume 2580.414621
_symmetry_space_group_name_H-M "P 4/N M M"
_symmetry_group_IT_number 129
_symmetry_cell_setting 'tetragonal'
loop_
_space_group_symop_operation_xyz
x,y,z
1/2-y,x,z
1/2-x,1/2-y,z
y,1/2-x,z
1/2+x,-y,-z
-x,1/2+y,-z
1/2+y,1/2+x,-z
-y,-x,-z
-x,-y,-z
1/2+y,-x,-z
1/2+x,1/2+y,-z
-y,1/2+x,-z
1/2-x,y,z
x,1/2-y,z
1/2-y,1/2-x,z
y,x,z
loop_
_atom_site_type_symbol
_atom_site_label
_atom_site_fract_x
_atom_site_fract_y
_atom_site_fract_z
Si Si1 0.321483 0.321483 0.975607
Si Si2 0.124847 0.818919 0.255755
Si Si3 0.000000 0.500000 0.000000
Si Si4 0.014117 0.602887 0.354308
Si Si5 0.882236 0.882236 0.525572
O O1 0.250000 0.331258 0.990035
O O2 0.355470 0.355470 0.209530
O O3 0.348147 0.348147 0.707959
O O4 0.167778 0.832223 0.500000
O O5 0.122232 0.750000 0.197216
O O6 0.061212 0.845119 0.336390
O O7 0.146673 0.853327 0.000000
O O8 0.071580 0.501217 0.922455
O O9 0.046681 0.546681 0.500000
O O10 0.953599 0.623746 0.489065
#
# Coordination Sequence:
#
# PCOD9565101 Si02
#       5
#     8  16   4  16   8
#     4  11  26  47  65  90 131 175 217 267 323 385
#     4  11  24  42  63  91 128 170 217 267 317 374
#     4  10  16  36  64  86 122 162 200 242 324 388
#     4  10  23  38  65  97 132 166 206 268 327 384
#     4  11  24  39  73  98 123 165 221 260 324 402
#
# _framework density 20.151800999999999
#
# number of rings (size 3 to 8) (size 9 to 14) (size 15 to 20)
#    0.000    1.385    1.538    3.692    8.615    5.538 
#    0.000    0.000    0.000    0.000    0.000    0.000 
#    0.000    0.000    0.000    0.000    0.000    0.000 
#
# Total GULP energy -289494.149085 kJ/mol
# GULP energy per Si atom -5567.195175 kJ/mol
# Density = 2.010593 g / cm^3
# Si number density = 20.151801 Si / 1000 Ang^3
#
#
#
# Elastic Constant Matrix: (Units=GPa)
#
#
# Indices 1 2 3 4 5 6 
#
# 1 98.3148 67.0893 15.5802 0.0000 0.0000 0.0000
# 2 67.0893 98.3180 15.5803 0.0000 0.0000 0.0000
# 3 15.5802 15.5803 80.8323 0.0000 0.0000 0.0000
# 4 0.0000 0.0000 0.0000 19.5542 0.0000 0.0000
# 5 0.0000 0.0000 0.0000 0.0000 19.5559 0.0000
# 6 0.0000 0.0000 0.0000 0.0000 0.0000 21.9618
#
#
#
# Elastic Compliance Matrix: (Units=1/GPa)
#
#
# Indices 1 2 3 4 5 6 
#
# 1 0.019149 -0.012875 -0.001209 0.000000 0.000000 0.000000
# 2 -0.012875 0.019148 -0.001209 0.000000 0.000000 0.000000
# 3 -0.001209 -0.001209 0.012837 0.000000 0.000000 0.000000
# 4 0.000000 0.000000 0.000000 0.051140 0.000000 0.000000
# 5 0.000000 0.000000 0.000000 0.000000 0.051136 0.000000
# 6 0.000000 0.000000 0.000000 0.000000 0.000000 0.045534
#
#
# Mechanical properties :
#
#
# Convention : Reuss Voigt Hill
#
# Bulk Modulus (GPa) = 48.66730 52.66275 50.66502
# Shear Modulus (GPa) = 21.15242 24.16205 22.65723
#
# Velocity S-wave (km/s) = 3.24335 3.46642 3.35674
# Velocity P-wave (km/s) = 6.18292 6.49701 6.34191
#
# Compressibility (1/GPa) = 0.02054768
#
# Stress axis : x y z
#
# Youngs Moduli (GPa) = 52.22245 52.22419 77.89714
#
# Poissons Ratio (x) = 0.67239 0.09420
# Poissons Ratio (y) = 0.67236 0.09419
# Poissons Ratio (z) = 0.06315 0.06315
#
# Static dielectric constant tensor:
#      x y z
#    x 1.686990 0.000000 0.000000 
#    y 0.000000 1.686990 0.000000 
#    z 0.000000 0.000000 1.870900 
# 
# From -- ./inp_files/563.got.cif
#   From: 2010.05.17/outbox.cif.g08.bks.cpg/sg129_1_cif.got.tgz:563.got - 2010.05.20 12:12:06.
