data_PCOD9565755
_publ_section_title
;
Structure prediction by ZEFSAII (Michael W. Deem and Ramdas Pophale) SiO2 
 PCOD9565755
Probable space group: P 4/N C C
;
_chemical_formula_sum "Si O2"
_cell_formula_units_Z 100
_cell_length_a 15.744925
_cell_length_b 15.744925
_cell_length_c 21.629469
_cell_angle_alpha 90.000000
_cell_angle_beta 90.000000
_cell_angle_gamma 90.000000
_cell_volume 5362.002970
_symmetry_space_group_name_H-M "P 4/N C C"
_symmetry_group_IT_number 130
_symmetry_cell_setting 'tetragonal'
loop_
_space_group_symop_operation_xyz
x,y,z
1/2-y,x,z
1/2-x,1/2-y,z
y,1/2-x,z
1/2+x,-y,1/2-z
-x,1/2+y,1/2-z
1/2+y,1/2+x,1/2-z
-y,-x,1/2-z
-x,-y,-z
1/2+y,-x,-z
1/2+x,1/2+y,-z
-y,1/2+x,-z
1/2-x,y,1/2+z
x,1/2-y,1/2+z
1/2-y,1/2-x,1/2+z
y,x,1/2+z
loop_
_atom_site_type_symbol
_atom_site_label
_atom_site_fract_x
_atom_site_fract_y
_atom_site_fract_z
Si Si1 0.010206 0.228494 0.488025
Si Si2 0.495380 0.991172 0.824161
Si Si3 0.234036 0.846912 0.418730
Si Si4 0.317893 0.955126 0.618902
Si Si5 0.382440 0.650094 0.821358
Si Si6 0.750000 0.750000 0.127929
Si Si7 0.123628 0.100868 0.411564
O O1 0.052983 0.149029 0.452992
O O2 0.054631 0.311927 0.459208
O O3 0.912029 0.236634 0.470191
O O4 0.010216 0.216770 0.561490
O O5 0.485634 0.985634 0.750000
O O6 0.502477 0.895289 0.848404
O O7 0.577616 0.049137 0.836705
O O8 0.419806 0.038749 0.861626
O O9 0.250000 0.750000 0.434588
O O10 0.134895 0.856440 0.404349
O O11 0.296440 0.862699 0.360537
O O12 0.240064 0.925216 0.661917
O O13 0.358182 0.641819 0.750000
O O14 0.678299 0.826750 0.122672
#
# Coordination Sequence:
#
# PCOD9565755 Si02
#       7
#    16  16  16  16  16   4  16
#     4  11  23  39  65  94 130 166 216 268 331 394
#     4  11  24  42  67  96 128 176 226 270 321 395
#     4  10  22  35  58  90 124 162 203 262 320 386
#     4  11  26  37  65  95 131 169 212 267 334 386
#     4  10  24  43  63  88 129 172 216 266 321 394
#     4   8  20  40  68 100 118 164 224 268 328 374
#     4  10  21  42  68  94 129 171 217 275 328 390
#
# _framework density 18.649747000000001
#
# number of rings (size 3 to 8) (size 9 to 14) (size 15 to 20)
#    0.000    1.600    3.200    0.000    8.960    2.880 
#    2.880    0.000    0.000    0.480    0.000    0.000 
#    0.000    0.000    0.000    0.000    0.000    0.000 
#
# Total GULP energy -557024.863611 kJ/mol
# GULP energy per Si atom -5570.248636 kJ/mol
# Density = 1.860730 g / cm^3
# Si number density = 18.649747 Si / 1000 Ang^3
#
#
#
# Elastic Constant Matrix: (Units=GPa)
#
#
# Indices 1 2 3 4 5 6 
#
# 1 78.8704 32.2088 49.7822 0.0000 0.0000 0.0000
# 2 32.2088 78.8705 49.7820 0.0000 0.0000 0.0000
# 3 49.7822 49.7820 93.0769 0.0000 0.0000 0.0000
# 4 0.0000 0.0000 0.0000 24.7673 0.0000 0.0000
# 5 0.0000 0.0000 0.0000 0.0000 24.7669 0.0000
# 6 0.0000 0.0000 0.0000 0.0000 0.0000 28.7126
#
#
#
# Elastic Compliance Matrix: (Units=1/GPa)
#
#
# Indices 1 2 3 4 5 6 
#
# 1 0.019362 -0.002069 -0.009249 0.000000 0.000000 0.000000
# 2 -0.002069 0.019362 -0.009249 0.000000 0.000000 0.000000
# 3 -0.009249 -0.009249 0.020638 0.000000 0.000000 0.000000
# 4 0.000000 0.000000 0.000000 0.040376 0.000000 0.000000
# 5 0.000000 0.000000 0.000000 0.000000 0.040376 0.000000
# 6 0.000000 0.000000 0.000000 0.000000 0.000000 0.034828
#
#
# Mechanical properties :
#
#
# Convention : Reuss Voigt Hill
#
# Bulk Modulus (GPa) = 54.86384 57.15153 56.00768
# Shear Modulus (GPa) = 22.50718 23.58568 23.04643
#
# Velocity S-wave (km/s) = 3.47772 3.56007 3.51914
# Velocity P-wave (km/s) = 6.75337 6.90000 6.82708
#
# Compressibility (1/GPa) = 0.01822694
#
# Stress axis : x y z
#
# Youngs Moduli (GPa) = 51.64772 51.64806 48.45543
#
# Poissons Ratio (x) = 0.10686 0.44817
# Poissons Ratio (y) = 0.10686 0.44816
# Poissons Ratio (z) = 0.47770 0.47769
#
# Static dielectric constant tensor:
#      x y z
#    x 1.646540 0.000000 0.000000 
#    y 0.000000 1.646540 0.000000 
#    z 0.000000 0.000000 1.656310 
# 
# From -- ./inp_files/4206.got.cif
#   From: 2010.05.17/outbox.cif.g08.bks.cpg/sg130_3_cif.got.tgz:4206.got - 2010.05.20 12:17:35.
