data_PCOD9565949
_publ_section_title
;
Structure prediction by ZEFSAII (Michael W. Deem and Ramdas Pophale) SiO2 
 PCOD9565949
Probable space group: P 4/N C C
;
_chemical_formula_sum "Si O2"
_cell_formula_units_Z 112
_cell_length_a 14.315411
_cell_length_b 14.315411
_cell_length_c 28.482666
_cell_angle_alpha 90.000000
_cell_angle_beta 90.000000
_cell_angle_gamma 90.000000
_cell_volume 5836.981001
_symmetry_space_group_name_H-M "P 4/N C C"
_symmetry_group_IT_number 130
_symmetry_cell_setting 'tetragonal'
loop_
_space_group_symop_operation_xyz
x,y,z
1/2-y,x,z
1/2-x,1/2-y,z
y,1/2-x,z
1/2+x,-y,1/2-z
-x,1/2+y,1/2-z
1/2+y,1/2+x,1/2-z
-y,-x,1/2-z
-x,-y,-z
1/2+y,-x,-z
1/2+x,1/2+y,-z
-y,1/2+x,-z
1/2-x,y,1/2+z
x,1/2-y,1/2+z
1/2-y,1/2-x,1/2+z
y,x,1/2+z
loop_
_atom_site_type_symbol
_atom_site_label
_atom_site_fract_x
_atom_site_fract_y
_atom_site_fract_z
Si Si1 0.119087 0.334291 0.764498
Si Si2 0.185583 0.657410 0.803431
Si Si3 0.216538 0.403072 0.432486
Si Si4 0.617702 0.978485 0.826537
Si Si5 0.183900 0.992832 0.132621
Si Si6 0.670000 0.014998 0.655834
Si Si7 0.283455 0.096138 0.542075
O O1 0.126340 0.222671 0.757191
O O2 0.046023 0.378980 0.728425
O O3 0.080764 0.351026 0.816447
O O4 0.250000 0.750000 0.803171
O O5 0.147266 0.647266 0.750000
O O6 0.246734 0.568223 0.817572
O O7 0.107706 0.671993 0.843352
O O8 0.142753 0.318597 0.424698
O O9 0.196323 0.486340 0.396738
O O10 0.210715 0.429801 0.487279
O O11 0.722406 0.965510 0.844727
O O12 0.551338 0.904877 0.851335
O O13 0.581478 0.080804 0.839012
O O14 0.196776 0.010944 0.077197
O O15 0.357084 0.181235 0.550265
#
# Coordination Sequence:
#
# PCOD9565949 Si02
#       7
#    16  16  16  16  16  16  16
#     4  11  24  40  61  91 124 162 211 279 333 372
#     4  11  26  45  63  84 130 182 221 253 315 394
#     4   9  20  41  67  96 128 167 216 274 330 383
#     4  12  25  39  62  93 130 162 214 262 332 385
#     4  12  23  41  66  98 125 166 210 273 322 384
#     4  12  25  42  62  89 128 176 220 261 314 402
#     4   9  18  37  68  99 129 163 208 272 337 386
#
# _framework density 19.188002999999998
#
# number of rings (size 3 to 8) (size 9 to 14) (size 15 to 20)
#    0.000    1.143    4.286    3.000    6.000    1.429 
#    0.000    2.143    0.000    0.000    0.000    0.000 
#    0.000    0.000    0.000    0.000    0.000    0.000 
#
# Total GULP energy -625686.330889 kJ/mol
# GULP energy per Si atom -5586.485097 kJ/mol
# Density = 1.914433 g / cm^3
# Si number density = 19.188003 Si / 1000 Ang^3
#
#
#
# Elastic Constant Matrix: (Units=GPa)
#
#
# Indices 1 2 3 4 5 6 
#
# 1 53.3165 14.8203 40.0804 0.0000 0.0000 0.0000
# 2 14.8203 53.3165 40.0804 0.0000 0.0000 0.0000
# 3 40.0804 40.0804 141.1377 0.0000 0.0000 0.0000
# 4 0.0000 0.0000 0.0000 26.8560 0.0000 0.0000
# 5 0.0000 0.0000 0.0000 0.0000 26.8560 0.0000
# 6 0.0000 0.0000 0.0000 0.0000 0.0000 19.9447
#
#
#
# Elastic Compliance Matrix: (Units=1/GPa)
#
#
# Indices 1 2 3 4 5 6 
#
# 1 0.024008 -0.001968 -0.006259 0.000000 0.000000 0.000000
# 2 -0.001968 0.024008 -0.006259 0.000000 0.000000 0.000000
# 3 -0.006259 -0.006259 0.010640 0.000000 0.000000 0.000000
# 4 0.000000 0.000000 0.000000 0.037236 0.000000 0.000000
# 5 0.000000 0.000000 0.000000 0.000000 0.037236 0.000000
# 6 0.000000 0.000000 0.000000 0.000000 0.000000 0.050139
#
#
# Mechanical properties :
#
#
# Convention : Reuss Voigt Hill
#
# Bulk Modulus (GPa) = 33.68811 48.63700 41.16255
# Shear Modulus (GPa) = 22.50901 24.91731 23.71316
#
# Velocity S-wave (km/s) = 3.42874 3.60750 3.51925
# Velocity P-wave (km/s) = 5.76801 6.53871 6.16542
#
# Compressibility (1/GPa) = 0.02968406
#
# Stress axis : x y z
#
# Youngs Moduli (GPa) = 41.65250 41.65250 93.98428
#
# Poissons Ratio (x) = 0.08199 0.58823
# Poissons Ratio (y) = 0.08199 0.58823
# Poissons Ratio (z) = 0.26070 0.26070
#
# Static dielectric constant tensor:
#      x y z
#    x 1.661860 0.000000 0.000000 
#    y 0.000000 1.661860 0.000000 
#    z 0.000000 0.000000 1.671470 
# 
# From -- ./inp_files/4607.got.cif
#   From: 2010.05.17/outbox.cif.g08.bks.cpg/sg130_3_cif.got.tgz:4607.got - 2010.05.20 12:17:35.
