data_PCOD9565677
_publ_section_title
;
Structure prediction by ZEFSAII (Michael W. Deem and Ramdas Pophale) SiO2 
 PCOD9565677
Probable space group: P 4/N C C
;
_chemical_formula_sum "Si O2"
_cell_formula_units_Z 52
_cell_length_a 10.599188
_cell_length_b 10.599188
_cell_length_c 17.866621
_cell_angle_alpha 90.000000
_cell_angle_beta 90.000000
_cell_angle_gamma 90.000000
_cell_volume 2007.185984
_symmetry_space_group_name_H-M "P 4/N C C"
_symmetry_group_IT_number 130
_symmetry_cell_setting 'tetragonal'
loop_
_space_group_symop_operation_xyz
x,y,z
1/2-y,x,z
1/2-x,1/2-y,z
y,1/2-x,z
1/2+x,-y,1/2-z
-x,1/2+y,1/2-z
1/2+y,1/2+x,1/2-z
-y,-x,1/2-z
-x,-y,-z
1/2+y,-x,-z
1/2+x,1/2+y,-z
-y,1/2+x,-z
1/2-x,y,1/2+z
x,1/2-y,1/2+z
1/2-y,1/2-x,1/2+z
y,x,1/2+z
loop_
_atom_site_type_symbol
_atom_site_label
_atom_site_fract_x
_atom_site_fract_y
_atom_site_fract_z
Si Si1 0.750000 0.750000 0.027643
Si Si2 0.126204 0.469170 0.042151
Si Si3 0.039949 0.285076 0.312067
Si Si4 0.183956 0.950149 0.142831
O O1 0.780069 0.599736 0.015159
O O2 0.200721 0.576275 0.087151
O O3 0.078585 0.376698 0.108811
O O4 0.000000 0.500000 0.000000
O O5 0.110921 0.151955 0.324542
O O6 0.987636 0.279121 0.226934
O O7 0.919193 0.340075 0.355034
#
# Coordination Sequence:
#
# PCOD9565677 Si02
#       4
#     4  16  16  16
#     4   8  20  40  72  92 130 188 248 308 364 462
#     4  10  20  40  71  99 137 199 256 310 393 472
#     4  10  20  38  70 104 142 196 256 318 397 497
#     4  10  20  39  67 101 141 188 259 322 378 479
#
# _framework density 25.906918999999998
#
# number of rings (size 3 to 8) (size 9 to 14) (size 15 to 20)
#    0.000    2.154    3.077    0.000    0.000    0.000 
#   11.077    1.538   27.077    0.000    0.000    0.000 
#    0.000    0.000    0.000    0.000    0.000    0.000 
#
# Total GULP energy -289769.813572 kJ/mol
# GULP energy per Si atom -5572.496415 kJ/mol
# Density = 2.584795 g / cm^3
# Si number density = 25.906919 Si / 1000 Ang^3
#
#
#
# Elastic Constant Matrix: (Units=GPa)
#
#
# Indices 1 2 3 4 5 6 
#
# 1 135.0070 65.5634 51.4581 0.0000 0.0000 0.0000
# 2 65.5634 135.0070 51.4581 0.0000 0.0000 0.0000
# 3 51.4581 51.4581 100.0209 0.0000 0.0000 0.0000
# 4 0.0000 0.0000 0.0000 45.5804 0.0000 0.0000
# 5 0.0000 0.0000 0.0000 0.0000 45.5804 0.0000
# 6 0.0000 0.0000 0.0000 0.0000 0.0000 52.9984
#
#
#
# Elastic Compliance Matrix: (Units=1/GPa)
#
#
# Indices 1 2 3 4 5 6 
#
# 1 0.010587 -0.003813 -0.003485 0.000000 0.000000 0.000000
# 2 -0.003813 0.010587 -0.003485 0.000000 0.000000 0.000000
# 3 -0.003485 -0.003485 0.013584 0.000000 0.000000 0.000000
# 4 0.000000 0.000000 0.000000 0.021939 0.000000 0.000000
# 5 0.000000 0.000000 0.000000 0.000000 0.021939 0.000000
# 6 0.000000 0.000000 0.000000 0.000000 0.000000 0.018868
#
#
# Mechanical properties :
#
#
# Convention : Reuss Voigt Hill
#
# Bulk Modulus (GPa) = 75.80542 78.55492 77.18017
# Shear Modulus (GPa) = 40.49613 42.26888 41.38250
#
# Velocity S-wave (km/s) = 3.95795 4.04365 4.00103
# Velocity P-wave (km/s) = 7.08599 7.22421 7.15544
#
# Compressibility (1/GPa) = 0.01319167
#
# Stress axis : x y z
#
# Youngs Moduli (GPa) = 94.45461 94.45461 73.61687
#
# Poissons Ratio (x) = 0.36016 0.25656
# Poissons Ratio (y) = 0.36016 0.25656
# Poissons Ratio (z) = 0.32918 0.32918
#
# Static dielectric constant tensor:
#      x y z
#    x 2.082430 0.000000 0.000000 
#    y 0.000000 2.082430 0.000000 
#    z 0.000000 0.000000 2.223030 
# 
# From -- ./inp_files/3386.got.cif
#   From: 2010.05.17/outbox.cif.g08.bks.cpg/sg130_2_cif.got.tgz:3386.got - 2010.05.20 12:17:35.
