data_PCOD9565256
_publ_section_title
;
Structure prediction by ZEFSAII (Michael W. Deem and Ramdas Pophale) SiO2 
 PCOD9565256
Probable space group: P 4/N M M
;
_chemical_formula_sum "Si O2"
_cell_formula_units_Z 128
_cell_length_a 19.189218
_cell_length_b 19.189218
_cell_length_c 22.260292
_cell_angle_alpha 90.000000
_cell_angle_beta 90.000000
_cell_angle_gamma 90.000000
_cell_volume 8196.820229
_symmetry_space_group_name_H-M "P 4/N M M"
_symmetry_group_IT_number 129
_symmetry_cell_setting 'tetragonal'
loop_
_space_group_symop_operation_xyz
x,y,z
1/2-y,x,z
1/2-x,1/2-y,z
y,1/2-x,z
1/2+x,-y,-z
-x,1/2+y,-z
1/2+y,1/2+x,-z
-y,-x,-z
-x,-y,-z
1/2+y,-x,-z
1/2+x,1/2+y,-z
-y,1/2+x,-z
1/2-x,y,z
x,1/2-y,z
1/2-y,1/2-x,z
y,x,z
loop_
_atom_site_type_symbol
_atom_site_label
_atom_site_fract_x
_atom_site_fract_y
_atom_site_fract_z
Si Si1 0.551309 0.831823 0.992023
Si Si2 0.945921 0.671583 0.213957
Si Si3 0.051534 0.668321 0.104099
Si Si4 0.000590 0.616092 0.756380
Si Si5 0.050550 0.930747 0.567347
Si Si6 0.330169 0.445950 0.367650
Si Si7 0.830585 0.447187 0.882345
Si Si8 0.600757 0.481597 0.314992
O O1 0.571712 0.750000 0.994826
O O2 0.616616 0.883385 0.995966
O O3 0.508100 0.843517 0.930862
O O4 0.497654 0.844914 0.046652
O O5 0.919860 0.750000 0.205733
O O6 0.884868 0.615133 0.209374
O O7 0.003302 0.657479 0.162706
O O8 0.983568 0.662893 0.278448
O O9 0.072603 0.750000 0.102667
O O10 0.116304 0.616065 0.106016
O O11 0.944658 0.555343 0.771286
O O12 0.967538 0.660887 0.702333
O O13 0.022627 0.655995 0.815881
O O14 0.067243 0.578468 0.726397
O O15 0.077912 0.922089 0.500000
O O16 0.107159 0.952629 0.617649
O O17 0.007604 0.865235 0.593233
O O18 0.993428 0.993428 0.565899
O O19 0.250000 0.435171 0.382399
O O20 0.377894 0.377894 0.377192
O O21 0.750000 0.425355 0.888693
O O22 0.540889 0.540889 0.317851
#
# Coordination Sequence:
#
# PCOD9565256 Si02
#       8
#    16  16  16  16  16  16  16  16
#     4  10  22  37  53  75  98 124 161 201 244 294
#     4  10  19  31  49  71  96 127 162 202 248 295
#     4  10  21  36  51  69  96 129 166 206 246 291
#     4   9  16  28  47  69  94 125 160 198 237 279
#     4   8  14  26  45  67  90 117 154 198 236 270
#     4   9  17  28  43  66  97 129 160 194 233 282
#     4  11  21  32  50  75 100 127 161 202 247 293
#     4   8  14  26  45  67  90 119 154 193 237 278
#
# _framework density 15.615811000000001
#
# number of rings (size 3 to 8) (size 9 to 14) (size 15 to 20)
#    0.000    2.625    1.250    3.000    0.000    2.625 
#    0.000    0.625    0.000    4.500    0.000    1.750 
#    0.000    6.500    0.000    0.000    0.000    0.000 
#
# Total GULP energy -712963.456347 kJ/mol
# GULP energy per Si atom -5570.027003 kJ/mol
# Density = 1.558027 g / cm^3
# Si number density = 15.615811 Si / 1000 Ang^3
#
#
#
# Elastic Constant Matrix: (Units=GPa)
#
#
# Indices 1 2 3 4 5 6 
#
# 1 79.9987 60.3006 38.7015 0.0000 0.0000 0.0000
# 2 60.3006 79.9989 38.7016 0.0000 0.0000 0.0000
# 3 38.7015 38.7016 118.7750 0.0000 0.0000 0.0000
# 4 0.0000 0.0000 0.0000 13.8555 0.0000 0.0000
# 5 0.0000 0.0000 0.0000 0.0000 13.8554 0.0000
# 6 0.0000 0.0000 0.0000 0.0000 0.0000 13.1586
#
#
#
# Elastic Compliance Matrix: (Units=1/GPa)
#
#
# Indices 1 2 3 4 5 6 
#
# 1 0.029728 -0.021038 -0.002831 0.000000 0.000000 0.000000
# 2 -0.021038 0.029728 -0.002831 0.000000 0.000000 0.000000
# 3 -0.002831 -0.002831 0.010264 0.000000 0.000000 0.000000
# 4 0.000000 0.000000 0.000000 0.072174 0.000000 0.000000
# 5 0.000000 0.000000 0.000000 0.000000 0.072174 0.000000
# 6 0.000000 0.000000 0.000000 0.000000 0.000000 0.075996
#
#
# Mechanical properties :
#
#
# Convention : Reuss Voigt Hill
#
# Bulk Modulus (GPa) = 61.28158 61.57555 61.42857
# Shear Modulus (GPa) = 14.33053 17.57849 15.95451
#
# Velocity S-wave (km/s) = 3.03263 3.35876 3.19986
# Velocity P-wave (km/s) = 7.18269 7.38640 7.28525
#
# Compressibility (1/GPa) = 0.01631812
#
# Stress axis : x y z
#
# Youngs Moduli (GPa) = 33.63837 33.63842 97.42338
#
# Poissons Ratio (x) = 0.70769 0.27585
# Poissons Ratio (y) = 0.70769 0.27585
# Poissons Ratio (z) = 0.09525 0.09525
#
# Static dielectric constant tensor:
#      x y z
#    x 1.503420 0.000000 0.000000 
#    y 0.000000 1.503420 0.000000 
#    z 0.000000 0.000000 1.539410 
# 
# From -- ./inp_files/7265.got.cif
#   From: 2010.05.17/outbox.cif.g08.bks.cpg/sg129_4_cif.got.tgz:7265.got - 2010.05.20 12:12:06.
