data_PCOD9565109
_publ_section_title
;
Structure prediction by ZEFSAII (Michael W. Deem and Ramdas Pophale) SiO2 
 PCOD9565109
Probable space group: P 4/N M M
;
_chemical_formula_sum "Si O2"
_cell_formula_units_Z 88
_cell_length_a 31.065532
_cell_length_b 31.065532
_cell_length_c 5.539732
_cell_angle_alpha 90.000000
_cell_angle_beta 90.000000
_cell_angle_gamma 90.000000
_cell_volume 5346.214085
_symmetry_space_group_name_H-M "P 4/N M M"
_symmetry_group_IT_number 129
_symmetry_cell_setting 'tetragonal'
loop_
_space_group_symop_operation_xyz
x,y,z
1/2-y,x,z
1/2-x,1/2-y,z
y,1/2-x,z
1/2+x,-y,-z
-x,1/2+y,-z
1/2+y,1/2+x,-z
-y,-x,-z
-x,-y,-z
1/2+y,-x,-z
1/2+x,1/2+y,-z
-y,1/2+x,-z
1/2-x,y,z
x,1/2-y,z
1/2-y,1/2-x,z
y,x,z
loop_
_atom_site_type_symbol
_atom_site_label
_atom_site_fract_x
_atom_site_fract_y
_atom_site_fract_z
Si Si1 0.079417 0.920584 0.500000
Si Si2 0.005059 0.339054 0.908890
Si Si3 0.591352 0.199061 0.851427
Si Si4 0.800146 0.993353 0.593634
Si Si5 0.434092 0.504284 0.842078
Si Si6 0.407471 0.829103 0.653208
O O1 0.081628 0.967068 0.618604
O O2 0.119785 0.915145 0.322347
O O3 0.022326 0.326001 0.643477
O O4 0.954412 0.325821 0.882640
O O5 0.009377 0.389611 0.963241
O O6 0.023195 0.314420 0.142650
O O7 0.583618 0.250000 0.829285
O O8 0.612992 0.181438 0.607597
O O9 0.613689 0.189485 0.107120
O O10 0.750000 0.985659 0.551886
O O11 0.807567 0.045121 0.619886
O O12 0.464312 0.464312 0.776347
O O13 0.463412 0.536589 0.000000
#
# Coordination Sequence:
#
# PCOD9565109 Si02
#       6
#     8  16  16  16  16  16
#     4  12  21  34  46  60  92 116 164 199 226 262
#     4  10  18  31  44  66  85 105 144 191 226 276
#     4  10  17  30  46  65  84 103 137 178 230 284
#     4  10  17  30  49  68  85 104 135 180 239 290
#     4  11  23  35  47  60  84 128 171 207 232 253
#     4  10  19  27  45  63  84 111 136 179 218 275
#
# _framework density 16.460246000000001
#
# number of rings (size 3 to 8) (size 9 to 14) (size 15 to 20)
#    0.000    1.636    3.636    7.909    0.000    0.000 
#    0.000    0.000    0.000    0.000    0.000    0.000 
#    0.000    0.000    0.000    0.000    0.000   88.636 
#
# Total GULP energy -490385.717574 kJ/mol
# GULP energy per Si atom -5572.564972 kJ/mol
# Density = 1.642278 g / cm^3
# Si number density = 16.460246 Si / 1000 Ang^3
#
#
#
# Elastic Constant Matrix: (Units=GPa)
#
#
# Indices 1 2 3 4 5 6 
#
# 1 52.3598 37.8282 15.1031 0.0000 0.0000 0.0000
# 2 37.8282 52.3631 15.1004 0.0000 0.0000 0.0000
# 3 15.1031 15.1004 132.8250 0.0000 0.0000 0.0000
# 4 0.0000 0.0000 0.0000 1.6512 0.0000 0.0000
# 5 0.0000 0.0000 0.0000 0.0000 1.6443 0.0000
# 6 0.0000 0.0000 0.0000 0.0000 0.0000 3.1497
#
#
#
# Elastic Compliance Matrix: (Units=1/GPa)
#
#
# Indices 1 2 3 4 5 6 
#
# 1 0.040169 -0.028641 -0.001311 0.000000 0.000000 0.000000
# 2 -0.028641 0.040166 -0.001310 0.000000 0.000000 0.000000
# 3 -0.001311 -0.001310 0.007827 0.000000 0.000000 0.000000
# 4 0.000000 0.000000 0.000000 0.605637 0.000000 0.000000
# 5 0.000000 0.000000 0.000000 0.000000 0.608177 0.000000
# 6 0.000000 0.000000 0.000000 0.000000 0.000000 0.317492
#
#
# Mechanical properties :
#
#
# Convention : Reuss Voigt Hill
#
# Bulk Modulus (GPa) = 39.00490 41.51239 40.25864
# Shear Modulus (GPa) = 2.95764 12.59010 7.77387
#
# Velocity S-wave (km/s) = 1.34192 2.76865 2.17556
# Velocity P-wave (km/s) = 5.11359 5.95777 5.55175
#
# Compressibility (1/GPa) = 0.02563781
#
# Stress axis : x y z
#
# Youngs Moduli (GPa) = 24.89497 24.89688 127.76764
#
# Poissons Ratio (x) = 0.71306 0.16756
# Poissons Ratio (y) = 0.71301 0.16733
# Poissons Ratio (z) = 0.03265 0.03261
#
# Static dielectric constant tensor:
#      x y z
#    x 1.546050 0.000000 0.000000 
#    y 0.000000 1.546050 0.000000 
#    z 0.000000 0.000000 1.711310 
# 
# From -- ./inp_files/1083.got.cif
#   From: 2010.05.17/outbox.cif.g08.bks.cpg/sg129_1_cif.got.tgz:1083.got - 2010.05.20 12:12:06.
