data_PCOD9565887
_publ_section_title
;
Structure prediction by ZEFSAII (Michael W. Deem and Ramdas Pophale) SiO2 
 PCOD9565887
Probable space group: P 4/N C C
;
_chemical_formula_sum "Si O2"
_cell_formula_units_Z 112
_cell_length_a 14.919339
_cell_length_b 14.919339
_cell_length_c 25.364238
_cell_angle_alpha 90.000000
_cell_angle_beta 90.000000
_cell_angle_gamma 90.000000
_cell_volume 5645.741431
_symmetry_space_group_name_H-M "P 4/N C C"
_symmetry_group_IT_number 130
_symmetry_cell_setting 'tetragonal'
loop_
_space_group_symop_operation_xyz
x,y,z
1/2-y,x,z
1/2-x,1/2-y,z
y,1/2-x,z
1/2+x,-y,1/2-z
-x,1/2+y,1/2-z
1/2+y,1/2+x,1/2-z
-y,-x,1/2-z
-x,-y,-z
1/2+y,-x,-z
1/2+x,1/2+y,-z
-y,1/2+x,-z
1/2-x,y,1/2+z
x,1/2-y,1/2+z
1/2-y,1/2-x,1/2+z
y,x,1/2+z
loop_
_atom_site_type_symbol
_atom_site_label
_atom_site_fract_x
_atom_site_fract_y
_atom_site_fract_z
Si Si1 0.492600 0.057341 0.053814
Si Si2 0.614229 0.691058 0.777902
Si Si3 0.462970 0.340631 0.903685
Si Si4 0.228271 0.978909 0.990746
Si Si5 0.458636 0.331702 0.339107
Si Si6 0.337281 0.812752 0.431974
Si Si7 0.119481 0.964602 0.644224
O O1 0.586258 0.040449 0.084794
O O2 0.417698 0.020558 0.093569
O O3 0.482216 0.157311 0.031795
O O4 0.500000 0.000000 0.000000
O O5 0.705017 0.636005 0.788795
O O6 0.590298 0.679127 0.716478
O O7 0.532913 0.656761 0.813357
O O8 0.452192 0.290326 0.959600
O O9 0.486038 0.266246 0.860046
O O10 0.376299 0.392782 0.882621
O O11 0.182878 0.916982 0.945201
O O12 0.283231 0.903385 0.021625
O O13 0.539025 0.402853 0.333975
O O14 0.250000 0.750000 0.431358
O O15 0.394026 0.808866 0.378605
#
# Coordination Sequence:
#
# PCOD9565887 Si02
#       7
#    16  16  16  16  16  16  16
#     4  11  21  39  60  94 138 174 212 265 323 403
#     4  11  25  48  70  91 123 171 229 286 348 400
#     4  11  21  36  65  97 126 174 218 274 328 382
#     4  12  19  35  59  95 135 170 215 251 313 395
#     4  11  22  42  70  95 126 162 226 286 331 394
#     4  12  21  35  61  94 131 178 212 253 314 400
#     4  11  25  41  66  98 132 172 218 277 340 399
#
# _framework density 19.837959999999999
#
# number of rings (size 3 to 8) (size 9 to 14) (size 15 to 20)
#    0.000    0.714    7.143    1.286    2.000    0.286 
#    0.000    0.000    0.000    0.857    0.000    0.000 
#    0.000    0.000    0.000    0.000    0.000    0.000 
#
# Total GULP energy -625565.201996 kJ/mol
# GULP energy per Si atom -5585.403589 kJ/mol
# Density = 1.979281 g / cm^3
# Si number density = 19.837960 Si / 1000 Ang^3
#
#
#
# Elastic Constant Matrix: (Units=GPa)
#
#
# Indices 1 2 3 4 5 6 
#
# 1 83.2261 40.1732 46.3491 0.0000 0.0000 0.0000
# 2 40.1732 83.2261 46.3491 0.0000 0.0000 0.0000
# 3 46.3491 46.3491 70.6471 0.0000 0.0000 0.0000
# 4 0.0000 0.0000 0.0000 40.0235 0.0000 0.0000
# 5 0.0000 0.0000 0.0000 0.0000 40.0235 0.0000
# 6 0.0000 0.0000 0.0000 0.0000 0.0000 19.7584
#
#
#
# Elastic Compliance Matrix: (Units=1/GPa)
#
#
# Indices 1 2 3 4 5 6 
#
# 1 0.019603 -0.003624 -0.010483 0.000000 0.000000 0.000000
# 2 -0.003624 0.019603 -0.010483 0.000000 0.000000 0.000000
# 3 -0.010483 -0.010483 0.027910 0.000000 0.000000 0.000000
# 4 0.000000 0.000000 0.000000 0.024985 0.000000 0.000000
# 5 0.000000 0.000000 0.000000 0.000000 0.024985 0.000000
# 6 0.000000 0.000000 0.000000 0.000000 0.000000 0.050611
#
#
# Mechanical properties :
#
#
# Convention : Reuss Voigt Hill
#
# Bulk Modulus (GPa) = 55.75645 55.87134 55.81390
# Shear Modulus (GPa) = 22.43589 26.90959 24.67274
#
# Velocity S-wave (km/s) = 3.36662 3.68702 3.53046
# Velocity P-wave (km/s) = 6.57869 6.80812 6.69439
#
# Compressibility (1/GPa) = 0.01793515
#
# Stress axis : x y z
#
# Youngs Moduli (GPa) = 51.01263 51.01263 35.82945
#
# Poissons Ratio (x) = 0.18488 0.37560
# Poissons Ratio (y) = 0.18488 0.37560
# Poissons Ratio (z) = 0.53477 0.53477
#
# Static dielectric constant tensor:
#      x y z
#    x 1.745300 0.000000 0.000000 
#    y 0.000000 1.745300 0.000000 
#    z 0.000000 0.000000 1.695910 
# 
# From -- ./inp_files/4294.got.cif
#   From: 2010.05.17/outbox.cif.g08.bks.cpg/sg130_3_cif.got.tgz:4294.got - 2010.05.20 12:17:35.
