data_PCOD9565981
_publ_section_title
;
Structure prediction by ZEFSAII (Michael W. Deem and Ramdas Pophale) SiO2 
 PCOD9565981
Probable space group: P 4/N C C
;
_chemical_formula_sum "Si O2"
_cell_formula_units_Z 36
_cell_length_a 9.572224
_cell_length_b 9.572224
_cell_length_c 12.591112
_cell_angle_alpha 90.000000
_cell_angle_beta 90.000000
_cell_angle_gamma 90.000000
_cell_volume 1153.691766
_symmetry_space_group_name_H-M "P 4/N C C"
_symmetry_group_IT_number 130
_symmetry_cell_setting 'tetragonal'
loop_
_space_group_symop_operation_xyz
x,y,z
1/2-y,x,z
1/2-x,1/2-y,z
y,1/2-x,z
1/2+x,-y,1/2-z
-x,1/2+y,1/2-z
1/2+y,1/2+x,1/2-z
-y,-x,1/2-z
-x,-y,-z
1/2+y,-x,-z
1/2+x,1/2+y,-z
-y,1/2+x,-z
1/2-x,y,1/2+z
x,1/2-y,1/2+z
1/2-y,1/2-x,1/2+z
y,x,1/2+z
loop_
_atom_site_type_symbol
_atom_site_label
_atom_site_fract_x
_atom_site_fract_y
_atom_site_fract_z
Si Si1 0.058036 0.743576 0.829989
Si Si2 0.821324 0.524586 0.565602
Si Si3 0.250000 0.250000 0.734468
O O1 0.142158 0.642158 0.750000
O O2 0.914412 0.794730 0.778536
O O3 0.137262 0.884225 0.871601
O O4 0.017369 0.670751 0.941290
O O5 0.913782 0.664380 0.579709
#
# Coordination Sequence:
#
# PCOD9565981 Si02
#       3
#    16  16   4
#     4  12  28  61 103 149 204 271 341 417 520 614
#     4  11  25  59 107 150 205 270 345 425 514 612
#     4  12  28  68 102 140 212 270 340 416 526 612
#
# _framework density 31.204170999999999
#
# number of rings (size 3 to 8) (size 9 to 14) (size 15 to 20)
#    0.000    0.444    4.444    1.333    0.000    0.889 
#   16.000   11.111    0.000    0.000    0.000    0.000 
#    0.000    0.000    0.000    0.000    0.000    0.000 
#
# Total GULP energy -201630.932429 kJ/mol
# GULP energy per Si atom -5600.859234 kJ/mol
# Density = 3.113315 g / cm^3
# Si number density = 31.204171 Si / 1000 Ang^3
#
#
#
# Elastic Constant Matrix: (Units=GPa)
#
#
# Indices 1 2 3 4 5 6 
#
# 1 260.5238 74.0301 126.8409 0.0000 0.0000 0.0000
# 2 74.0301 260.5238 126.8409 0.0000 0.0000 0.0000
# 3 126.8409 126.8409 236.0648 0.0000 0.0000 0.0000
# 4 0.0000 0.0000 0.0000 77.8344 0.0000 0.0000
# 5 0.0000 0.0000 0.0000 0.0000 77.8344 0.0000
# 6 0.0000 0.0000 0.0000 0.0000 0.0000 101.8633
#
#
#
# Elastic Compliance Matrix: (Units=1/GPa)
#
#
# Indices 1 2 3 4 5 6 
#
# 1 0.005203 -0.000159 -0.002710 0.000000 0.000000 0.000000
# 2 -0.000159 0.005203 -0.002710 0.000000 0.000000 0.000000
# 3 -0.002710 -0.002710 0.007149 0.000000 0.000000 0.000000
# 4 0.000000 0.000000 0.000000 0.012848 0.000000 0.000000
# 5 0.000000 0.000000 0.000000 0.000000 0.012848 0.000000
# 6 0.000000 0.000000 0.000000 0.000000 0.000000 0.009817
#
#
# Mechanical properties :
#
#
# Convention : Reuss Voigt Hill
#
# Bulk Modulus (GPa) = 156.35169 156.94847 156.65008
# Shear Modulus (GPa) = 75.34791 80.13311 77.74051
#
# Velocity S-wave (km/s) = 4.91926 5.07307 4.99676
# Velocity P-wave (km/s) = 9.08187 9.20441 9.14334
#
# Compressibility (1/GPa) = 0.00639584
#
# Stress axis : x y z
#
# Youngs Moduli (GPa) = 192.19094 192.19094 139.88529
#
# Poissons Ratio (x) = 0.03055 0.37913
# Poissons Ratio (y) = 0.03055 0.37913
# Poissons Ratio (z) = 0.52090 0.52090
#
# Static dielectric constant tensor:
#      x y z
#    x 2.406670 0.000000 0.000000 
#    y 0.000000 2.406670 0.000000 
#    z 0.000000 0.000000 2.774210 
# 
# From -- ./inp_files/1205.got.cif
#   From: 2010.05.17/outbox.cif.g08.bks.cpg/sg130_1_cif.got.tgz:1205.got - 2010.05.20 12:17:35.
