data_PCOD9565043
_publ_section_title
;
Structure prediction by ZEFSAII (Michael W. Deem and Ramdas Pophale) SiO2 
 PCOD9565043
Probable space group: P 4/M N C
;
_chemical_formula_sum "Si O2"
_cell_formula_units_Z 48
_cell_length_a 7.939412
_cell_length_b 7.939412
_cell_length_c 35.028892
_cell_angle_alpha 90.000000
_cell_angle_beta 90.000000
_cell_angle_gamma 90.000000
_cell_volume 2208.020388
_symmetry_space_group_name_H-M "P 4/M N C"
_symmetry_group_IT_number 128
_symmetry_cell_setting 'tetragonal'
loop_
_space_group_symop_operation_xyz
x,y,z
-y,x,z
-x,-y,z
y,-x,z
1/2+x,1/2-y,1/2-z
1/2-x,1/2+y,1/2-z
1/2+y,1/2+x,1/2-z
1/2-y,1/2-x,1/2-z
-x,-y,-z
y,-x,-z
x,y,-z
-y,x,-z
1/2-x,1/2+y,1/2+z
1/2+x,1/2-y,1/2+z
1/2-y,1/2-x,1/2+z
1/2+y,1/2+x,1/2+z
loop_
_atom_site_type_symbol
_atom_site_label
_atom_site_fract_x
_atom_site_fract_y
_atom_site_fract_z
Si Si1 0.500000 0.000000 0.646013
Si Si2 0.409454 0.232151 0.711410
Si Si3 0.398831 0.766982 0.582841
Si Si4 0.105335 0.265740 0.000000
O O1 0.392206 0.117477 0.674189
O O2 0.618210 0.108824 0.618075
O O3 0.601961 0.295046 0.710623
O O4 0.365446 0.134555 0.750000
O O5 0.292986 0.594752 0.585001
O O6 0.363578 0.847918 0.541148
O O7 0.909842 0.208357 0.000000
#
# Coordination Sequence:
#
# PCOD9565043 Si02
#       4
#     8  16  16   8
#     4  12  21  31  54  86 118 148 188 235 295 358
#     4  11  24  43  65  88 118 155 196 244 299 365
#     4   9  18  33  53  78 111 152 198 250 304 359
#     4   7  12  27  50  74 104 146 196 248 302 355
#
# _framework density 21.73893
#
# number of rings (size 3 to 8) (size 9 to 14) (size 15 to 20)
#    0.000    2.167    0.000    6.500    0.000    3.333 
#    0.000    0.000    0.000    9.000    0.000    0.000 
#    0.000   32.000    0.000    0.000    0.000    0.000 
#
# Total GULP energy -268119.190861 kJ/mol
# GULP energy per Si atom -5585.816476 kJ/mol
# Density = 2.168945 g / cm^3
# Si number density = 21.738930 Si / 1000 Ang^3
#
#
#
# Elastic Constant Matrix: (Units=GPa)
#
#
# Indices 1 2 3 4 5 6 
#
# 1 76.6495 17.0162 58.8517 0.0000 0.0000 0.0000
# 2 17.0162 76.6491 58.8518 0.0000 0.0000 0.0000
# 3 58.8517 58.8518 241.1203 0.0000 0.0000 0.0000
# 4 0.0000 0.0000 0.0000 9.8914 0.0000 0.0000
# 5 0.0000 0.0000 0.0000 0.0000 9.8918 0.0000
# 6 0.0000 0.0000 0.0000 0.0000 0.0000 15.4918
#
#
#
# Elastic Compliance Matrix: (Units=1/GPa)
#
#
# Indices 1 2 3 4 5 6 
#
# 1 0.016084 -0.000685 -0.003759 0.000000 0.000000 0.000000
# 2 -0.000685 0.016084 -0.003759 0.000000 0.000000 0.000000
# 3 -0.003759 -0.003759 0.005982 0.000000 0.000000 0.000000
# 4 0.000000 0.000000 0.000000 0.101098 0.000000 0.000000
# 5 0.000000 0.000000 0.000000 0.000000 0.101094 0.000000
# 6 0.000000 0.000000 0.000000 0.000000 0.000000 0.064550
#
#
# Mechanical properties :
#
#
# Convention : Reuss Voigt Hill
#
# Bulk Modulus (GPa) = 45.98428 73.76205 59.87316
# Shear Modulus (GPa) = 15.21854 24.36827 19.79340
#
# Velocity S-wave (km/s) = 2.64873 3.35169 3.02073
# Velocity P-wave (km/s) = 5.52750 6.99878 6.30620
#
# Compressibility (1/GPa) = 0.02174656
#
# Stress axis : x y z
#
# Youngs Moduli (GPa) = 62.17229 62.17183 167.16509
#
# Poissons Ratio (x) = 0.04258 0.62831
# Poissons Ratio (y) = 0.04258 0.62832
# Poissons Ratio (z) = 0.23368 0.23368
#
# Static dielectric constant tensor:
#      x y z
#    x 1.808080 0.000000 0.000000 
#    y 0.000000 1.808080 0.000000 
#    z 0.000000 0.000000 1.823650 
# 
# From -- ./inp_files/7033.got.cif
#   From: 2010.05.17/outbox.cif.g08.bks.cpg/sg128_4_cif.got.tgz:7033.got - 2010.05.20 12:07:25.
