data_PCOD9565316
_publ_section_title
;
Structure prediction by ZEFSAII (Michael W. Deem and Ramdas Pophale) SiO2 
 PCOD9565316
Probable space group: P 4/N M M
;
_chemical_formula_sum "Si O2"
_cell_formula_units_Z 128
_cell_length_a 24.443802
_cell_length_b 24.443802
_cell_length_c 12.518713
_cell_angle_alpha 90.000000
_cell_angle_beta 90.000000
_cell_angle_gamma 90.000000
_cell_volume 7479.924210
_symmetry_space_group_name_H-M "P 4/N M M"
_symmetry_group_IT_number 129
_symmetry_cell_setting 'tetragonal'
loop_
_space_group_symop_operation_xyz
x,y,z
1/2-y,x,z
1/2-x,1/2-y,z
y,1/2-x,z
1/2+x,-y,-z
-x,1/2+y,-z
1/2+y,1/2+x,-z
-y,-x,-z
-x,-y,-z
1/2+y,-x,-z
1/2+x,1/2+y,-z
-y,1/2+x,-z
1/2-x,y,z
x,1/2-y,z
1/2-y,1/2-x,z
y,x,z
loop_
_atom_site_type_symbol
_atom_site_label
_atom_site_fract_x
_atom_site_fract_y
_atom_site_fract_z
Si Si1 0.183774 0.592874 0.147956
Si Si2 0.184814 0.889440 0.766806
Si Si3 0.018972 0.686037 0.657355
Si Si4 0.640705 0.437938 0.443978
Si Si5 0.686549 0.597289 0.586780
Si Si6 0.476795 0.815861 0.057350
Si Si7 0.058975 0.351355 0.640731
Si Si8 0.185684 0.093426 0.872385
O O1 0.250000 0.597022 0.147859
O O2 0.157528 0.651576 0.171539
O O3 0.164020 0.554724 0.246004
O O4 0.166139 0.561767 0.040223
O O5 0.250000 0.881092 0.769400
O O6 0.164753 0.897089 0.645012
O O7 0.171825 0.944748 0.833337
O O8 0.011977 0.750000 0.678776
O O9 0.050070 0.679362 0.545272
O O10 0.957530 0.664031 0.644184
O O11 0.586726 0.413275 0.500000
O O12 0.636053 0.496107 0.385047
O O13 0.750000 0.606223 0.613239
O O14 0.648970 0.648970 0.610285
O O15 0.681401 0.582890 0.460900
O O16 0.479645 0.750000 0.050163
O O17 0.540131 0.833510 0.059708
O O18 0.092427 0.407574 0.646860
O O19 0.071921 0.319809 0.750010
O O20 0.250000 0.105590 0.893690
O O21 0.145291 0.145291 0.885925
#
# Coordination Sequence:
#
# PCOD9565316 Si02
#       8
#    16  16  16  16  16  16  16  16
#     4  10  20  36  55  76 103 137 179 224 269 321
#     4  11  21  34  55  81 107 137 176 225 275 326
#     4   9  18  32  50  70  99 138 177 215 256 314
#     4  11  19  31  51  77 108 141 181 220 268 323
#     4   9  17  29  47  73 103 136 174 215 261 312
#     4   9  19  35  56  78 102 139 184 223 259 314
#     4   9  18  31  49  73 105 142 181 224 266 318
#     4  10  19  33  55  83 113 145 182 226 278 331
#
# _framework density 17.112473000000001
#
# number of rings (size 3 to 8) (size 9 to 14) (size 15 to 20)
#    0.000    2.250    2.500    1.125    0.000    1.750 
#    0.000    0.625    0.000    7.500    0.000    0.000 
#    0.000    5.000    0.000    0.000    0.000    0.125 
#
# Total GULP energy -712636.314010 kJ/mol
# GULP energy per Si atom -5567.471203 kJ/mol
# Density = 1.707352 g / cm^3
# Si number density = 17.112473 Si / 1000 Ang^3
#
#
#
# Elastic Constant Matrix: (Units=GPa)
#
#
# Indices 1 2 3 4 5 6 
#
# 1 78.6356 46.5799 25.2083 0.0000 0.0000 0.0000
# 2 46.5799 78.6295 25.2063 0.0000 0.0000 0.0000
# 3 25.2083 25.2063 73.0814 0.0000 0.0000 0.0000
# 4 0.0000 0.0000 0.0000 19.2881 0.0000 0.0000
# 5 0.0000 0.0000 0.0000 0.0000 19.2885 0.0000
# 6 0.0000 0.0000 0.0000 0.0000 0.0000 15.4643
#
#
#
# Elastic Compliance Matrix: (Units=1/GPa)
#
#
# Indices 1 2 3 4 5 6 
#
# 1 0.020236 -0.010962 -0.003199 0.000000 0.000000 0.000000
# 2 -0.010962 0.020237 -0.003199 0.000000 0.000000 0.000000
# 3 -0.003199 -0.003199 0.015890 0.000000 0.000000 0.000000
# 4 0.000000 0.000000 0.000000 0.051846 0.000000 0.000000
# 5 0.000000 0.000000 0.000000 0.000000 0.051844 0.000000
# 6 0.000000 0.000000 0.000000 0.000000 0.000000 0.064665
#
#
# Mechanical properties :
#
#
# Convention : Reuss Voigt Hill
#
# Bulk Modulus (GPa) = 46.20385 47.14838 46.67611
# Shear Modulus (GPa) = 18.75098 19.69830 19.22464
#
# Velocity S-wave (km/s) = 3.31380 3.39648 3.35539
# Velocity P-wave (km/s) = 6.45759 6.55693 6.50745
#
# Compressibility (1/GPa) = 0.02164322
#
# Stress axis : x y z
#
# Youngs Moduli (GPa) = 49.41726 49.41389 62.93216
#
# Poissons Ratio (x) = 0.54168 0.20133
# Poissons Ratio (y) = 0.54172 0.20130
# Poissons Ratio (z) = 0.15809 0.15806
#
# Static dielectric constant tensor:
#      x y z
#    x 1.585030 0.000000 0.000000 
#    y 0.000000 1.585030 0.000000 
#    z 0.000000 0.000000 1.602750 
# 
# From -- ./inp_files/4168.got.cif
#   From: 2010.05.17/outbox.cif.g08.bks.cpg/sg129_3_cif.got.tgz:4168.got - 2010.05.20 12:12:06.
