data_PCOD9565901
_publ_section_title
;
Structure prediction by ZEFSAII (Michael W. Deem and Ramdas Pophale) SiO2 
 PCOD9565901
Probable space group: P 4/N C C
;
_chemical_formula_sum "Si O2"
_cell_formula_units_Z 88
_cell_length_a 11.277011
_cell_length_b 11.277011
_cell_length_c 29.633940
_cell_angle_alpha 90.000000
_cell_angle_beta 90.000000
_cell_angle_gamma 90.000000
_cell_volume 3768.577105
_symmetry_space_group_name_H-M "P 4/N C C"
_symmetry_group_IT_number 130
_symmetry_cell_setting 'tetragonal'
loop_
_space_group_symop_operation_xyz
x,y,z
1/2-y,x,z
1/2-x,1/2-y,z
y,1/2-x,z
1/2+x,-y,1/2-z
-x,1/2+y,1/2-z
1/2+y,1/2+x,1/2-z
-y,-x,1/2-z
-x,-y,-z
1/2+y,-x,-z
1/2+x,1/2+y,-z
-y,1/2+x,-z
1/2-x,y,1/2+z
x,1/2-y,1/2+z
1/2-y,1/2-x,1/2+z
y,x,1/2+z
loop_
_atom_site_type_symbol
_atom_site_label
_atom_site_fract_x
_atom_site_fract_y
_atom_site_fract_z
Si Si1 0.330806 0.078895 0.816072
Si Si2 0.779839 0.937684 0.480119
Si Si3 0.828371 0.564196 0.826885
Si Si4 0.496927 0.996927 0.250000
Si Si5 0.396321 0.908652 0.086225
Si Si6 0.664584 0.509300 0.581611
O O1 0.402141 0.196731 0.803105
O O2 0.399612 0.984119 0.787192
O O3 0.330951 0.071745 0.869774
O O4 0.656785 0.879782 0.466187
O O5 0.807676 0.058142 0.454425
O O6 0.784407 0.944838 0.534057
O O7 0.899349 0.690070 0.829259
O O8 0.855670 0.475220 0.868241
O O9 0.879420 0.505836 0.781159
O O10 0.522991 0.972637 0.074183
O O11 0.408525 0.766135 0.090714
#
# Coordination Sequence:
#
# PCOD9565901 Si02
#       6
#    16  16  16   8  16  16
#     4  11  21  39  68  98 129 171 224 281 336 403
#     4  11  23  43  71  99 134 185 238 285 338 416
#     4  11  25  48  75 101 139 191 239 283 339 422
#     4  12  22  40  68 104 132 164 232 290 342 396
#     4  12  25  43  71 102 143 178 236 286 353 411
#     4  12  22  41  70 103 135 180 227 295 338 412
#
# _framework density 23.350987
#
# number of rings (size 3 to 8) (size 9 to 14) (size 15 to 20)
#    0.000    0.545    5.455    2.727    0.000    4.727 
#    0.000    3.636    0.000    4.909    0.000    0.000 
#    0.000    0.000    0.000    0.000    0.000    0.000 
#
# Total GULP energy -490366.103577 kJ/mol
# GULP energy per Si atom -5572.342086 kJ/mol
# Density = 2.329784 g / cm^3
# Si number density = 23.350987 Si / 1000 Ang^3
#
#
#
# Elastic Constant Matrix: (Units=GPa)
#
#
# Indices 1 2 3 4 5 6 
#
# 1 27.9208 14.3522 23.7516 0.0000 0.0000 0.0000
# 2 14.3522 27.9208 23.7516 0.0000 0.0000 0.0000
# 3 23.7516 23.7516 107.1539 0.0000 0.0000 0.0000
# 4 0.0000 0.0000 0.0000 13.3156 0.0000 0.0000
# 5 0.0000 0.0000 0.0000 0.0000 13.3156 0.0000
# 6 0.0000 0.0000 0.0000 0.0000 0.0000 38.6743
#
#
#
# Elastic Compliance Matrix: (Units=1/GPa)
#
#
# Indices 1 2 3 4 5 6 
#
# 1 0.052601 -0.021098 -0.006983 0.000000 0.000000 0.000000
# 2 -0.021098 0.052601 -0.006983 0.000000 0.000000 0.000000
# 3 -0.006983 -0.006983 0.012428 0.000000 0.000000 0.000000
# 4 0.000000 0.000000 0.000000 0.075100 0.000000 0.000000
# 5 0.000000 0.000000 0.000000 0.000000 0.075100 0.000000
# 6 0.000000 0.000000 0.000000 0.000000 0.000000 0.025857
#
#
# Mechanical properties :
#
#
# Convention : Reuss Voigt Hill
#
# Bulk Modulus (GPa) = 21.05187 31.85627 26.45407
# Shear Modulus (GPa) = 13.17006 19.80376 16.48691
#
# Velocity S-wave (km/s) = 2.37745 2.91536 2.66004
# Velocity P-wave (km/s) = 4.07079 5.00044 4.55937
#
# Compressibility (1/GPa) = 0.04750172
#
# Stress axis : x y z
#
# Youngs Moduli (GPa) = 19.01108 19.01108 80.46365
#
# Poissons Ratio (x) = 0.40110 0.56186
# Poissons Ratio (y) = 0.40110 0.56186
# Poissons Ratio (z) = 0.13275 0.13275
#
# Static dielectric constant tensor:
#      x y z
#    x 1.915260 0.000000 0.000000 
#    y 0.000000 1.915260 0.000000 
#    z 0.000000 0.000000 1.875210 
# 
# From -- ./inp_files/4848.got.cif
#   From: 2010.05.17/outbox.cif.g08.bks.cpg/sg130_3_cif.got.tgz:4848.got - 2010.05.20 12:17:35.
