data_PCOD9565680
_publ_section_title
;
Structure prediction by ZEFSAII (Michael W. Deem and Ramdas Pophale) SiO2 
 PCOD9565680
Probable space group: P 4/N C C
;
_chemical_formula_sum "Si O2"
_cell_formula_units_Z 96
_cell_length_a 21.279767
_cell_length_b 21.279767
_cell_length_c 10.039508
_cell_angle_alpha 90.000000
_cell_angle_beta 90.000000
_cell_angle_gamma 90.000000
_cell_volume 4546.175183
_symmetry_space_group_name_H-M "P 4/N C C"
_symmetry_group_IT_number 130
_symmetry_cell_setting 'tetragonal'
loop_
_space_group_symop_operation_xyz
x,y,z
1/2-y,x,z
1/2-x,1/2-y,z
y,1/2-x,z
1/2+x,-y,1/2-z
-x,1/2+y,1/2-z
1/2+y,1/2+x,1/2-z
-y,-x,1/2-z
-x,-y,-z
1/2+y,-x,-z
1/2+x,1/2+y,-z
-y,1/2+x,-z
1/2-x,y,1/2+z
x,1/2-y,1/2+z
1/2-y,1/2-x,1/2+z
y,x,1/2+z
loop_
_atom_site_type_symbol
_atom_site_label
_atom_site_fract_x
_atom_site_fract_y
_atom_site_fract_z
Si Si1 0.045191 0.231285 0.636325
Si Si2 0.535020 0.292310 0.377381
Si Si3 0.393658 0.442386 0.261847
Si Si4 0.678418 0.400856 0.512005
Si Si5 0.132354 0.867647 0.750000
Si Si6 0.407240 0.907240 0.750000
Si Si7 0.454965 0.138053 0.553398
O O1 0.080516 0.172910 0.701257
O O2 0.077625 0.294889 0.583988
O O3 0.007842 0.204287 0.508169
O O4 0.001316 0.257753 0.756684
O O5 0.591173 0.245180 0.418408
O O6 0.566398 0.355723 0.324423
O O7 0.396269 0.517879 0.243388
O O8 0.393934 0.430118 0.418949
O O9 0.446158 0.407873 0.176783
O O10 0.680622 0.365247 0.372359
O O11 0.627370 0.379789 0.620147
O O12 0.656423 0.472415 0.474520
#
# Coordination Sequence:
#
# PCOD9565680 Si02
#       7
#    16  16  16  16   8   8  16
#     4  11  20  43  62  84 130 163 208 250 309 381
#     4  11  21  39  60  90 112 160 214 254 309 376
#     4  11  23  37  60  90 125 163 204 252 307 372
#     4  10  22  38  56  88 119 157 208 246 319 366
#     4  12  22  33  66  89 110 165 209 270 304 381
#     4  10  20  39  58  87 126 167 191 261 306 370
#     4  10  23  37  57  93 122 161 203 249 311 377
#
# _framework density 21.116651999999998
#
# number of rings (size 3 to 8) (size 9 to 14) (size 15 to 20)
#    0.000    1.333    8.333    1.000    2.333    4.667 
#    0.000    0.000    0.000    4.500    0.000    2.333 
#    0.000    0.000    0.000    0.000    0.000    0.000 
#
# Total GULP energy -535519.851169 kJ/mol
# GULP energy per Si atom -5578.331783 kJ/mol
# Density = 2.106859 g / cm^3
# Si number density = 21.116652 Si / 1000 Ang^3
#
#
#
# Elastic Constant Matrix: (Units=GPa)
#
#
# Indices 1 2 3 4 5 6 
#
# 1 37.7683 16.9325 31.8366 0.0000 0.0000 0.0000
# 2 16.9325 37.7697 31.8376 0.0000 0.0000 0.0000
# 3 31.8366 31.8376 158.2203 0.0000 0.0000 0.0000
# 4 0.0000 0.0000 0.0000 34.2215 0.0000 0.0000
# 5 0.0000 0.0000 0.0000 0.0000 34.2209 0.0000
# 6 0.0000 0.0000 0.0000 0.0000 0.0000 12.1456
#
#
#
# Elastic Compliance Matrix: (Units=1/GPa)
#
#
# Indices 1 2 3 4 5 6 
#
# 1 0.035933 -0.012060 -0.004804 0.000000 0.000000 0.000000
# 2 -0.012060 0.035932 -0.004804 0.000000 0.000000 0.000000
# 3 -0.004804 -0.004804 0.008253 0.000000 0.000000 0.000000
# 4 0.000000 0.000000 0.000000 0.029221 0.000000 0.000000
# 5 0.000000 0.000000 0.000000 0.000000 0.029222 0.000000
# 6 0.000000 0.000000 0.000000 0.000000 0.000000 0.082334
#
#
# Mechanical properties :
#
#
# Convention : Reuss Voigt Hill
#
# Bulk Modulus (GPa) = 27.18560 43.88572 35.53566
# Shear Modulus (GPa) = 18.08369 26.32772 22.20571
#
# Velocity S-wave (km/s) = 2.92956 3.53480 3.24632
# Velocity P-wave (km/s) = 4.93407 6.12269 5.56023
#
# Compressibility (1/GPa) = 0.03678418
#
# Stress axis : x y z
#
# Youngs Moduli (GPa) = 27.82939 27.83026 121.16098
#
# Poissons Ratio (x) = 0.33563 0.58201
# Poissons Ratio (y) = 0.33562 0.58202
# Poissons Ratio (z) = 0.13368 0.13369
#
# Static dielectric constant tensor:
#      x y z
#    x 1.802910 0.000000 0.000000 
#    y 0.000000 1.802910 0.000000 
#    z 0.000000 0.000000 1.792450 
# 
# From -- ./inp_files/951.got.cif
#   From: 2010.05.17/outbox.cif.g08.bks.cpg/sg130_1_cif.got.tgz:951.got - 2010.05.20 12:17:35.
