data_PCOD9565290
_publ_section_title
;
Structure prediction by ZEFSAII (Michael W. Deem and Ramdas Pophale) SiO2 
 PCOD9565290
Probable space group: P 4/N M M
;
_chemical_formula_sum "Si O2"
_cell_formula_units_Z 80
_cell_length_a 12.871515
_cell_length_b 12.871515
_cell_length_c 29.833708
_cell_angle_alpha 90.000000
_cell_angle_beta 90.000000
_cell_angle_gamma 90.000000
_cell_volume 4942.726375
_symmetry_space_group_name_H-M "P 4/N M M"
_symmetry_group_IT_number 129
_symmetry_cell_setting 'tetragonal'
loop_
_space_group_symop_operation_xyz
x,y,z
1/2-y,x,z
1/2-x,1/2-y,z
y,1/2-x,z
1/2+x,-y,-z
-x,1/2+y,-z
1/2+y,1/2+x,-z
-y,-x,-z
-x,-y,-z
1/2+y,-x,-z
1/2+x,1/2+y,-z
-y,1/2+x,-z
1/2-x,y,z
x,1/2-y,z
1/2-y,1/2-x,z
y,x,z
loop_
_atom_site_type_symbol
_atom_site_label
_atom_site_fract_x
_atom_site_fract_y
_atom_site_fract_z
Si Si1 0.630417 0.126092 0.362309
Si Si2 0.458532 0.625680 0.734898
Si Si3 0.375565 0.549690 0.049008
Si Si4 0.530113 0.127999 0.544304
Si Si5 0.250000 0.876073 0.788564
Si Si6 0.124397 0.750000 0.108971
O O1 0.750000 0.090485 0.355487
O O2 0.633168 0.250000 0.367321
O O3 0.567019 0.104765 0.317371
O O4 0.590708 0.080386 0.409026
O O5 0.474845 0.750000 0.740308
O O6 0.557170 0.557170 0.748516
O O7 0.355335 0.594937 0.762613
O O8 0.250000 0.530724 0.051314
O O9 0.447112 0.447112 0.056764
O O10 0.403686 0.643592 0.083159
O O11 0.405713 0.594288 0.000000
O O12 0.584418 0.084418 0.500000
O O13 0.539141 0.250000 0.543694
O O14 0.413254 0.086747 0.543576
O O15 0.250000 0.750000 0.788770
O O16 0.250000 0.912990 0.839808
O O17 0.250000 0.750000 0.109756
#
# Coordination Sequence:
#
# PCOD9565290 Si02
#       6
#    16  16  16  16   8   8
#     4   9  16  29  50  73  95 125 166 206 245 291
#     4  10  19  32  52  76 104 135 171 215 261 310
#     4  10  19  32  52  78 108 141 177 217 261 308
#     4  10  20  32  47  69  96 125 160 201 247 299
#     4   9  18  34  52  75  99 133 179 214 251 301
#     4   9  18  32  54  75 101 135 175 220 253 301
#
# _framework density 16.185397999999999
#
# number of rings (size 3 to 8) (size 9 to 14) (size 15 to 20)
#    0.000    2.400    2.000    1.200    0.000    2.400 
#    0.000    0.000    0.000    0.600    0.000    9.800 
#    0.000    0.000    0.000    0.000    0.000    0.000 
#
# Total GULP energy -445381.190233 kJ/mol
# GULP energy per Si atom -5567.264878 kJ/mol
# Density = 1.614856 g / cm^3
# Si number density = 16.185398 Si / 1000 Ang^3
#
#
#
# Elastic Constant Matrix: (Units=GPa)
#
#
# Indices 1 2 3 4 5 6 
#
# 1 74.1185 64.5950 45.6951 0.0000 0.0000 0.0000
# 2 64.5950 74.1188 45.6949 0.0000 0.0000 0.0000
# 3 45.6951 45.6949 118.1960 0.0000 0.0000 0.0000
# 4 0.0000 0.0000 0.0000 5.7058 0.0000 0.0000
# 5 0.0000 0.0000 0.0000 0.0000 5.7056 0.0000
# 6 0.0000 0.0000 0.0000 0.0000 0.0000 25.4952
#
#
#
# Elastic Compliance Matrix: (Units=1/GPa)
#
#
# Indices 1 2 3 4 5 6 
#
# 1 0.057337 -0.047664 -0.003740 0.000000 0.000000 0.000000
# 2 -0.047664 0.057337 -0.003739 0.000000 0.000000 0.000000
# 3 -0.003740 -0.003739 0.011352 0.000000 0.000000 0.000000
# 4 0.000000 0.000000 0.000000 0.175261 0.000000 0.000000
# 5 0.000000 0.000000 0.000000 0.000000 0.175266 0.000000
# 6 0.000000 0.000000 0.000000 0.000000 0.000000 0.039223
#
#
# Mechanical properties :
#
#
# Convention : Reuss Voigt Hill
#
# Bulk Modulus (GPa) = 63.53460 64.26704 63.90082
# Shear Modulus (GPa) = 7.92004 14.74453 11.33229
#
# Velocity S-wave (km/s) = 2.21449 3.02151 2.64891
# Velocity P-wave (km/s) = 6.77334 7.20873 6.99442
#
# Compressibility (1/GPa) = 0.01573946
#
# Stress axis : x y z
#
# Youngs Moduli (GPa) = 17.44063 17.44075 88.09031
#
# Poissons Ratio (x) = 0.83130 0.32943
# Poissons Ratio (y) = 0.83130 0.32941
# Poissons Ratio (z) = 0.06522 0.06522
#
# Static dielectric constant tensor:
#      x y z
#    x 1.535600 0.000000 0.000000 
#    y 0.000000 1.535600 0.000000 
#    z 0.000000 0.000000 1.558690 
# 
# From -- ./inp_files/7721.got.cif
#   From: 2010.05.17/outbox.cif.g08.bks.cpg/sg129_4_cif.got.tgz:7721.got - 2010.05.20 12:12:06.
