data_PCOD9565762
_publ_section_title
;
Structure prediction by ZEFSAII (Michael W. Deem and Ramdas Pophale) SiO2 
 PCOD9565762
Probable space group: P 4/N C C
;
_chemical_formula_sum "Si O2"
_cell_formula_units_Z 112
_cell_length_a 15.295507
_cell_length_b 15.295507
_cell_length_c 28.566813
_cell_angle_alpha 90.000000
_cell_angle_beta 90.000000
_cell_angle_gamma 90.000000
_cell_volume 6683.278301
_symmetry_space_group_name_H-M "P 4/N C C"
_symmetry_group_IT_number 130
_symmetry_cell_setting 'tetragonal'
loop_
_space_group_symop_operation_xyz
x,y,z
1/2-y,x,z
1/2-x,1/2-y,z
y,1/2-x,z
1/2+x,-y,1/2-z
-x,1/2+y,1/2-z
1/2+y,1/2+x,1/2-z
-y,-x,1/2-z
-x,-y,-z
1/2+y,-x,-z
1/2+x,1/2+y,-z
-y,1/2+x,-z
1/2-x,y,1/2+z
x,1/2-y,1/2+z
1/2-y,1/2-x,1/2+z
y,x,1/2+z
loop_
_atom_site_type_symbol
_atom_site_label
_atom_site_fract_x
_atom_site_fract_y
_atom_site_fract_z
Si Si1 0.638375 0.846398 0.934511
Si Si2 0.450854 0.067323 0.154228
Si Si3 0.720569 0.992501 0.678609
Si Si4 0.639595 0.651629 0.539108
Si Si5 0.359640 0.597728 0.697138
Si Si6 0.318183 0.544525 0.228507
Si Si7 0.065187 0.104130 0.865498
O O1 0.631672 0.741386 0.931121
O O2 0.587196 0.890101 0.892341
O O3 0.609281 0.873450 0.986896
O O4 0.476111 0.137900 0.193477
O O5 0.385049 0.994462 0.174502
O O6 0.539168 0.014656 0.142732
O O7 0.641625 0.924294 0.670881
O O8 0.797837 0.966430 0.643789
O O9 0.675152 0.087580 0.671346
O O10 0.766284 0.997183 0.729368
O O11 0.743420 0.631955 0.542587
O O12 0.594678 0.604698 0.582656
O O13 0.397907 0.602094 0.750000
O O14 0.255468 0.602572 0.702177
O O15 0.392791 0.607210 0.250000
#
# Coordination Sequence:
#
# PCOD9565762 Si02
#       7
#    16  16  16  16  16  16  16
#     4   9  19  36  56  78 104 140 177 214 271 334
#     4  11  21  34  54  79 112 141 178 224 268 311
#     4  10  22  34  53  80 108 139 179 223 268 318
#     4   9  17  32  56  79 105 136 172 222 271 318
#     4   9  21  36  52  74 109 143 180 221 266 306
#     4  11  21  36  55  75 106 152 187 217 258 320
#     4  11  20  35  55  81 108 137 177 226 275 315
#
# _framework density 16.758241999999999
#
# number of rings (size 3 to 8) (size 9 to 14) (size 15 to 20)
#    0.000    2.000    2.857    2.143    4.000    3.429 
#    0.000    0.000    0.000    0.000    0.000    0.000 
#    0.000    0.000    0.000    0.000    0.000    0.000 
#
# Total GULP energy -624351.117430 kJ/mol
# GULP energy per Si atom -5574.563548 kJ/mol
# Density = 1.672010 g / cm^3
# Si number density = 16.758242 Si / 1000 Ang^3
#
#
#
# Elastic Constant Matrix: (Units=GPa)
#
#
# Indices 1 2 3 4 5 6 
#
# 1 44.1882 30.1706 42.4734 0.0000 0.0000 0.0000
# 2 30.1706 44.1851 42.4740 0.0000 0.0000 0.0000
# 3 42.4734 42.4740 101.5273 0.0000 0.0000 0.0000
# 4 0.0000 0.0000 0.0000 28.4419 0.0000 0.0000
# 5 0.0000 0.0000 0.0000 0.0000 28.4417 0.0000
# 6 0.0000 0.0000 0.0000 0.0000 0.0000 7.9186
#
#
#
# Elastic Compliance Matrix: (Units=1/GPa)
#
#
# Indices 1 2 3 4 5 6 
#
# 1 0.048550 -0.022793 -0.010775 0.000000 0.000000 0.000000
# 2 -0.022793 0.048557 -0.010778 0.000000 0.000000 0.000000
# 3 -0.010775 -0.010778 0.018866 0.000000 0.000000 0.000000
# 4 0.000000 0.000000 0.000000 0.035159 0.000000 0.000000
# 5 0.000000 0.000000 0.000000 0.000000 0.035160 0.000000
# 6 0.000000 0.000000 0.000000 0.000000 0.000000 0.126286
#
#
# Mechanical properties :
#
#
# Convention : Reuss Voigt Hill
#
# Bulk Modulus (GPa) = 36.65707 46.68185 41.66946
# Shear Modulus (GPa) = 12.18430 17.94595 15.06512
#
# Velocity S-wave (km/s) = 2.69934 3.27597 3.00153
# Velocity P-wave (km/s) = 5.62466 6.49814 6.07711
#
# Compressibility (1/GPa) = 0.02727986
#
# Stress axis : x y z
#
# Youngs Moduli (GPa) = 20.59728 20.59453 53.00435
#
# Poissons Ratio (x) = 0.46942 0.57113
# Poissons Ratio (y) = 0.46948 0.57129
# Poissons Ratio (z) = 0.22194 0.22197
#
# Static dielectric constant tensor:
#      x y z
#    x 1.564330 0.000000 0.000000 
#    y 0.000000 1.564330 0.000000 
#    z 0.000000 0.000000 1.576040 
# 
# From -- ./inp_files/4268.got.cif
#   From: 2010.05.17/outbox.cif.g08.bks.cpg/sg130_3_cif.got.tgz:4268.got - 2010.05.20 12:17:35.
