data_PCOD9565638
_publ_section_title
;
Structure prediction by ZEFSAII (Michael W. Deem and Ramdas Pophale) SiO2 
 PCOD9565638
Probable space group: P 4/N C C
;
_chemical_formula_sum "Si O2"
_cell_formula_units_Z 52
_cell_length_a 16.064546
_cell_length_b 16.064546
_cell_length_c 7.331881
_cell_angle_alpha 90.000000
_cell_angle_beta 90.000000
_cell_angle_gamma 90.000000
_cell_volume 1892.135877
_symmetry_space_group_name_H-M "P 4/N C C"
_symmetry_group_IT_number 130
_symmetry_cell_setting 'tetragonal'
loop_
_space_group_symop_operation_xyz
x,y,z
1/2-y,x,z
1/2-x,1/2-y,z
y,1/2-x,z
1/2+x,-y,1/2-z
-x,1/2+y,1/2-z
1/2+y,1/2+x,1/2-z
-y,-x,1/2-z
-x,-y,-z
1/2+y,-x,-z
1/2+x,1/2+y,-z
-y,1/2+x,-z
1/2-x,y,1/2+z
x,1/2-y,1/2+z
1/2-y,1/2-x,1/2+z
y,x,1/2+z
loop_
_atom_site_type_symbol
_atom_site_label
_atom_site_fract_x
_atom_site_fract_y
_atom_site_fract_z
Si Si1 0.832294 0.928114 0.604085
Si Si2 0.162279 0.493194 0.258094
Si Si3 0.831841 0.142079 0.959825
Si Si4 0.250000 0.250000 0.991000
O O1 0.916784 0.898544 0.693883
O O2 0.758517 0.962807 0.728553
O O3 0.794389 0.842547 0.517574
O O4 0.852165 0.998585 0.457160
O O5 0.150972 0.565052 0.405105
O O6 0.862957 0.137044 0.750000
O O7 0.730540 0.146172 0.947677
#
# Coordination Sequence:
#
# PCOD9565638 Si02
#       4
#    16  16  16   4
#     4  10  20  35  59  93 133 169 203 251 307 373
#     4  11  22  39  63  96 130 167 210 255 311 374
#     4  11  24  45  69  90 116 163 220 268 313 375
#     4   8  16  30  52  82 120 170 204 218 272 374
#
# _framework density 27.482167
#
# number of rings (size 3 to 8) (size 9 to 14) (size 15 to 20)
#    0.000    1.538    0.000    7.385    0.000    4.923 
#    0.000    6.154    0.000    0.000    0.000    0.000 
#    0.000    0.000    0.000    0.000    0.000    0.000 
#
# Total GULP energy -290628.933239 kJ/mol
# GULP energy per Si atom -5589.017947 kJ/mol
# Density = 2.741962 g / cm^3
# Si number density = 27.482167 Si / 1000 Ang^3
#
#
#
# Elastic Constant Matrix: (Units=GPa)
#
#
# Indices 1 2 3 4 5 6 
#
# 1 70.4663 7.9959 -1.6246 0.0000 0.0000 0.0000
# 2 7.9959 70.4636 -1.6258 0.0000 0.0000 0.0000
# 3 -1.6246 -1.6258 127.7117 0.0000 0.0000 0.0000
# 4 0.0000 0.0000 0.0000 35.3891 0.0000 0.0000
# 5 0.0000 0.0000 0.0000 0.0000 35.3895 0.0000
# 6 0.0000 0.0000 0.0000 0.0000 0.0000 65.1358
#
#
#
# Elastic Compliance Matrix: (Units=1/GPa)
#
#
# Indices 1 2 3 4 5 6 
#
# 1 0.014380 -0.001628 0.000162 0.000000 0.000000 0.000000
# 2 -0.001628 0.014380 0.000162 0.000000 0.000000 0.000000
# 3 0.000162 0.000162 0.007834 0.000000 0.000000 0.000000
# 4 0.000000 0.000000 0.000000 0.028257 0.000000 0.000000
# 5 0.000000 0.000000 0.000000 0.000000 0.028257 0.000000
# 6 0.000000 0.000000 0.000000 0.000000 0.000000 0.015353
#
#
# Mechanical properties :
#
#
# Convention : Reuss Voigt Hill
#
# Bulk Modulus (GPa) = 29.42282 30.90364 30.16323
# Shear Modulus (GPa) = 40.85070 44.77595 42.81332
#
# Velocity S-wave (km/s) = 3.85963 4.04080 3.95125
# Velocity P-wave (km/s) = 5.53097 5.74806 5.64056
#
# Compressibility (1/GPa) = 0.03398722
#
# Stress axis : x y z
#
# Youngs Moduli (GPa) = 69.54275 69.53998 127.64442
#
# Poissons Ratio (x) = 0.11321 -0.02070
# Poissons Ratio (y) = 0.11322 -0.02072
# Poissons Ratio (z) = -0.01128 -0.01129
#
# Static dielectric constant tensor:
#      x y z
#    x 2.174390 0.000000 0.000000 
#    y 0.000000 2.174390 0.000000 
#    z 0.000000 0.000000 2.186530 
# 
# From -- ./inp_files/537.got.cif
#   From: 2010.05.17/outbox.cif.g08.bks.cpg/sg130_1_cif.got.tgz:537.got - 2010.05.20 12:17:35.
