data_PCOD9565274
_publ_section_title
;
Structure prediction by ZEFSAII (Michael W. Deem and Ramdas Pophale) SiO2 
 PCOD9565274
Probable space group: P 4/N M M
;
_chemical_formula_sum "Si O2"
_cell_formula_units_Z 96
_cell_length_a 18.803981
_cell_length_b 18.803981
_cell_length_c 17.055755
_cell_angle_alpha 90.000000
_cell_angle_beta 90.000000
_cell_angle_gamma 90.000000
_cell_volume 6030.739318
_symmetry_space_group_name_H-M "P 4/N M M"
_symmetry_group_IT_number 129
_symmetry_cell_setting 'tetragonal'
loop_
_space_group_symop_operation_xyz
x,y,z
1/2-y,x,z
1/2-x,1/2-y,z
y,1/2-x,z
1/2+x,-y,-z
-x,1/2+y,-z
1/2+y,1/2+x,-z
-y,-x,-z
-x,-y,-z
1/2+y,-x,-z
1/2+x,1/2+y,-z
-y,1/2+x,-z
1/2-x,y,z
x,1/2-y,z
1/2-y,1/2-x,z
y,x,z
loop_
_atom_site_type_symbol
_atom_site_label
_atom_site_fract_x
_atom_site_fract_y
_atom_site_fract_z
Si Si1 0.950523 0.333830 0.815931
Si Si2 0.666995 0.950360 0.863428
Si Si3 0.665637 0.431049 0.732734
Si Si4 0.448506 0.834573 0.007564
Si Si5 0.551350 0.666330 0.327646
Si Si6 0.443220 0.562387 0.408505
O O1 0.933951 0.250000 0.814663
O O2 0.881715 0.375111 0.782912
O O3 0.972278 0.352973 0.904272
O O4 0.016198 0.345792 0.757639
O O5 0.750000 0.932659 0.874696
O O6 0.617913 0.882088 0.858515
O O7 0.660962 0.997426 0.784722
O O8 0.643732 0.998661 0.937836
O O9 0.750000 0.413181 0.725340
O O10 0.624418 0.438376 0.649791
O O11 0.440434 0.750000 0.001016
O O12 0.373723 0.873723 0.000000
O O13 0.556333 0.750000 0.342505
O O14 0.625701 0.625701 0.333791
O O15 0.495227 0.626648 0.383545
O O16 0.427455 0.572545 0.500000
O O17 0.490213 0.490213 0.398579
#
# Coordination Sequence:
#
# PCOD9565274 Si02
#       6
#    16  16  16  16  16  16
#     4   9  18  32  48  68 100 134 162 196 242 293
#     4  10  21  35  50  71  98 128 167 210 251 295
#     4  10  19  32  50  74  99 125 163 205 243 290
#     4  10  19  32  48  72 101 130 167 204 242 288
#     4   9  18  32  50  72  98 128 163 202 243 289
#     4   9  18  33  52  73  98 129 162 196 244 301
#
# _framework density 15.918445999999999
#
# number of rings (size 3 to 8) (size 9 to 14) (size 15 to 20)
#    0.000    2.500    1.667    0.500    0.000    3.167 
#    0.000    1.667    0.000    0.000    0.000    7.000 
#    0.000    4.000    0.000    0.000    0.000    0.000 
#
# Total GULP energy -534666.159033 kJ/mol
# GULP energy per Si atom -5569.439157 kJ/mol
# Density = 1.588221 g / cm^3
# Si number density = 15.918446 Si / 1000 Ang^3
#
#
#
# Elastic Constant Matrix: (Units=GPa)
#
#
# Indices 1 2 3 4 5 6 
#
# 1 74.7026 49.2568 42.3063 0.0000 0.0000 0.0000
# 2 49.2568 74.7024 42.3064 0.0000 0.0000 0.0000
# 3 42.3063 42.3064 119.7929 0.0000 0.0000 0.0000
# 4 0.0000 0.0000 0.0000 16.4045 0.0000 0.0000
# 5 0.0000 0.0000 0.0000 0.0000 16.4044 0.0000
# 6 0.0000 0.0000 0.0000 0.0000 0.0000 24.0022
#
#
#
# Elastic Compliance Matrix: (Units=1/GPa)
#
#
# Indices 1 2 3 4 5 6 
#
# 1 0.024964 -0.014335 -0.003754 0.000000 0.000000 0.000000
# 2 -0.014335 0.024965 -0.003754 0.000000 0.000000 0.000000
# 3 -0.003754 -0.003754 0.010999 0.000000 0.000000 0.000000
# 4 0.000000 0.000000 0.000000 0.060959 0.000000 0.000000
# 5 0.000000 0.000000 0.000000 0.000000 0.060959 0.000000
# 6 0.000000 0.000000 0.000000 0.000000 0.000000 0.041663
#
#
# Mechanical properties :
#
#
# Convention : Reuss Voigt Hill
#
# Bulk Modulus (GPa) = 57.99612 59.65965 58.82788
# Shear Modulus (GPa) = 18.25201 20.38411 19.31806
#
# Velocity S-wave (km/s) = 3.38981 3.58234 3.48740
# Velocity P-wave (km/s) = 7.19955 7.39395 7.29740
#
# Compressibility (1/GPa) = 0.01724253
#
# Stress axis : x y z
#
# Youngs Moduli (GPa) = 40.05702 40.05688 90.91527
#
# Poissons Ratio (x) = 0.57421 0.34129
# Poissons Ratio (y) = 0.57421 0.34129
# Poissons Ratio (z) = 0.15037 0.15037
#
# Static dielectric constant tensor:
#      x y z
#    x 1.514120 0.000000 0.000000 
#    y 0.000000 1.514120 0.000000 
#    z 0.000000 0.000000 1.558590 
# 
# From -- ./inp_files/5690.got.cif
#   From: 2010.05.17/outbox.cif.g08.bks.cpg/sg129_3_cif.got.tgz:5690.got - 2010.05.20 12:12:06.
