data_PCOD9565462
_publ_section_title
;
Structure prediction by ZEFSAII (Michael W. Deem and Ramdas Pophale) SiO2 
 PCOD9565462
Probable space group: P 4/N M M
;
_chemical_formula_sum "Si O2"
_cell_formula_units_Z 80
_cell_length_a 13.519826
_cell_length_b 13.519826
_cell_length_c 25.754365
_cell_angle_alpha 90.000000
_cell_angle_beta 90.000000
_cell_angle_gamma 90.000000
_cell_volume 4707.529508
_symmetry_space_group_name_H-M "P 4/N M M"
_symmetry_group_IT_number 129
_symmetry_cell_setting 'tetragonal'
loop_
_space_group_symop_operation_xyz
x,y,z
1/2-y,x,z
1/2-x,1/2-y,z
y,1/2-x,z
1/2+x,-y,-z
-x,1/2+y,-z
1/2+y,1/2+x,-z
-y,-x,-z
-x,-y,-z
1/2+y,-x,-z
1/2+x,1/2+y,-z
-y,1/2+x,-z
1/2-x,y,z
x,1/2-y,z
1/2-y,1/2-x,z
y,x,z
loop_
_atom_site_type_symbol
_atom_site_label
_atom_site_fract_x
_atom_site_fract_y
_atom_site_fract_z
Si Si1 0.865515 0.470380 0.452119
Si Si2 0.365717 0.971423 0.360270
Si Si3 0.030403 0.866378 0.146535
Si Si4 0.471197 0.633945 0.760974
Si Si5 0.632592 0.031237 0.950841
O O1 0.904968 0.404968 0.500000
O O2 0.750000 0.488284 0.456650
O O3 0.892597 0.412754 0.399261
O O4 0.929230 0.570771 0.452639
O O5 0.250000 0.985198 0.370988
O O6 0.376890 0.943574 0.299671
O O7 0.427687 0.072314 0.368357
O O8 0.015959 0.750000 0.140392
O O9 0.084458 0.892809 0.200528
O O10 0.098306 0.910495 0.100625
O O11 0.928325 0.928325 0.144788
O O12 0.483065 0.750000 0.772104
O O13 0.573084 0.573084 0.768855
O O14 0.750000 0.017848 0.952279
O O15 0.571889 0.928112 0.951636
O O16 0.594099 0.094099 0.000000
#
# Coordination Sequence:
#
# PCOD9565462 Si02
#       5
#    16  16  16  16  16
#     4  10  21  36  53  74 100 129 163 203 245 291
#     4   9  18  32  50  74 103 133 166 204 245 291
#     4  10  21  36  53  74 100 130 167 210 253 299
#     4   9  18  32  50  74 103 133 166 204 246 294
#     4  10  21  36  54  78 106 135 169 207 247 294
#
# _framework density 16.994052
#
# number of rings (size 3 to 8) (size 9 to 14) (size 15 to 20)
#    0.000    2.400    0.000    1.800    0.000    5.800 
#    0.000    4.000    0.000   10.800    0.000    5.600 
#    0.000    0.000    0.000    0.000    0.000    0.000 
#
# Total GULP energy -446346.823458 kJ/mol
# GULP energy per Si atom -5579.335293 kJ/mol
# Density = 1.695537 g / cm^3
# Si number density = 16.994052 Si / 1000 Ang^3
#
#
#
# Elastic Constant Matrix: (Units=GPa)
#
#
# Indices 1 2 3 4 5 6 
#
# 1 149.0338 69.0940 60.9082 0.0000 0.0000 0.0000
# 2 69.0940 149.0338 60.9082 0.0000 0.0000 0.0000
# 3 60.9082 60.9082 74.7168 0.0000 0.0000 0.0000
# 4 0.0000 0.0000 0.0000 19.2766 0.0000 0.0000
# 5 0.0000 0.0000 0.0000 0.0000 19.2766 0.0000
# 6 0.0000 0.0000 0.0000 0.0000 0.0000 3.2931
#
#
#
# Elastic Compliance Matrix: (Units=1/GPa)
#
#
# Indices 1 2 3 4 5 6 
#
# 1 0.010463 -0.002047 -0.006860 0.000000 0.000000 0.000000
# 2 -0.002047 0.010463 -0.006860 0.000000 0.000000 0.000000
# 3 -0.006860 -0.006860 0.024569 0.000000 0.000000 0.000000
# 4 0.000000 0.000000 0.000000 0.051876 0.000000 0.000000
# 5 0.000000 0.000000 0.000000 0.000000 0.051876 0.000000
# 6 0.000000 0.000000 0.000000 0.000000 0.000000 0.303661
#
#
# Mechanical properties :
#
#
# Convention : Reuss Voigt Hill
#
# Bulk Modulus (GPa) = 71.63957 83.84503 77.74230
# Shear Modulus (GPa) = 10.22294 20.49421 15.35857
#
# Velocity S-wave (km/s) = 2.45533 3.47647 3.00952
# Velocity P-wave (km/s) = 7.09122 8.09688 7.61068
#
# Compressibility (1/GPa) = 0.01395877
#
# Stress axis : x y z
#
# Youngs Moduli (GPa) = 95.57864 95.57864 40.70179
#
# Poissons Ratio (x) = 0.19563 0.27923
# Poissons Ratio (y) = 0.19563 0.27923
# Poissons Ratio (z) = 0.65571 0.65571
#
# Static dielectric constant tensor:
#      x y z
#    x 1.543570 0.000000 0.000000 
#    y 0.000000 1.543570 0.000000 
#    z 0.000000 0.000000 1.589970 
# 
# From -- ./inp_files/7682.got.cif
#   From: 2010.05.17/outbox.cif.g08.bks.cpg/sg129_4_cif.got.tgz:7682.got - 2010.05.20 12:12:06.
