data_PCOD9565877
_publ_section_title
;
Structure prediction by ZEFSAII (Michael W. Deem and Ramdas Pophale) SiO2 
 PCOD9565877
Probable space group: P 4/N C C
;
_chemical_formula_sum "Si O2"
_cell_formula_units_Z 96
_cell_length_a 20.420704
_cell_length_b 20.420704
_cell_length_c 12.746934
_cell_angle_alpha 90.000000
_cell_angle_beta 90.000000
_cell_angle_gamma 90.000000
_cell_volume 5315.537148
_symmetry_space_group_name_H-M "P 4/N C C"
_symmetry_group_IT_number 130
_symmetry_cell_setting 'tetragonal'
loop_
_space_group_symop_operation_xyz
x,y,z
1/2-y,x,z
1/2-x,1/2-y,z
y,1/2-x,z
1/2+x,-y,1/2-z
-x,1/2+y,1/2-z
1/2+y,1/2+x,1/2-z
-y,-x,1/2-z
-x,-y,-z
1/2+y,-x,-z
1/2+x,1/2+y,-z
-y,1/2+x,-z
1/2-x,y,1/2+z
x,1/2-y,1/2+z
1/2-y,1/2-x,1/2+z
y,x,1/2+z
loop_
_atom_site_type_symbol
_atom_site_label
_atom_site_fract_x
_atom_site_fract_y
_atom_site_fract_z
Si Si1 0.560064 0.079000 0.626709
Si Si2 0.997899 0.837698 0.499666
Si Si3 0.296727 0.346985 0.671737
Si Si4 0.881516 0.616395 0.144263
Si Si5 0.486831 0.069676 0.188727
Si Si6 0.971273 0.688169 0.476882
O O1 0.580957 0.080957 0.750000
O O2 0.622103 0.053132 0.562302
O O3 0.497302 0.029506 0.625940
O O4 0.527983 0.141639 0.569828
O O5 0.931483 0.857485 0.558656
O O6 0.993894 0.868835 0.385057
O O7 0.000544 0.760053 0.493605
O O8 0.220613 0.333964 0.646034
O O9 0.320220 0.355394 0.792533
O O10 0.313677 0.412121 0.607989
O O11 0.917833 0.572547 0.231666
O O12 0.834277 0.565673 0.083719
O O13 0.552872 0.052872 0.250000
#
# Coordination Sequence:
#
# PCOD9565877 Si02
#       6
#    16  16  16  16  16  16
#     4  11  21  41  64  89 123 159 201 258 320 362
#     4  12  23  38  61  89 122 160 203 261 310 361
#     4  11  23  38  52  77 124 174 210 245 292 362
#     4  12  20  36  57  87 119 163 203 247 301 355
#     4  11  20  36  60  84 118 155 197 252 307 359
#     4  12  24  38  61  91 123 160 215 258 304 374
#
# _framework density 18.060262999999999
#
# number of rings (size 3 to 8) (size 9 to 14) (size 15 to 20)
#    0.000    0.500    6.667    4.500    0.000    1.333 
#    0.000    1.667    0.000    0.500    0.000    1.167 
#    0.000    0.000    0.000    0.000    0.000    0.000 
#
# Total GULP energy -535611.139289 kJ/mol
# GULP energy per Si atom -5579.282701 kJ/mol
# Density = 1.801916 g / cm^3
# Si number density = 18.060263 Si / 1000 Ang^3
#
#
#
# Elastic Constant Matrix: (Units=GPa)
#
#
# Indices 1 2 3 4 5 6 
#
# 1 100.5894 61.4073 36.6623 0.0000 0.0000 0.0000
# 2 61.4073 100.5894 36.6623 0.0000 0.0000 0.0000
# 3 36.6623 36.6623 60.0104 0.0000 0.0000 0.0000
# 4 0.0000 0.0000 0.0000 20.8829 0.0000 0.0000
# 5 0.0000 0.0000 0.0000 0.0000 20.8829 0.0000
# 6 0.0000 0.0000 0.0000 0.0000 0.0000 12.0716
#
#
#
# Elastic Compliance Matrix: (Units=1/GPa)
#
#
# Indices 1 2 3 4 5 6 
#
# 1 0.017027 -0.008495 -0.005213 0.000000 0.000000 0.000000
# 2 -0.008495 0.017027 -0.005213 0.000000 0.000000 0.000000
# 3 -0.005213 -0.005213 0.023033 0.000000 0.000000 0.000000
# 4 0.000000 0.000000 0.000000 0.047886 0.000000 0.000000
# 5 0.000000 0.000000 0.000000 0.000000 0.047886 0.000000
# 6 0.000000 0.000000 0.000000 0.000000 0.000000 0.082839
#
#
# Mechanical properties :
#
#
# Convention : Reuss Voigt Hill
#
# Bulk Modulus (GPa) = 51.95631 58.96144 55.45888
# Shear Modulus (GPa) = 17.86004 19.19796 18.52900
#
# Velocity S-wave (km/s) = 3.14811 3.26390 3.20653
# Velocity P-wave (km/s) = 6.48420 6.84996 6.66959
#
# Compressibility (1/GPa) = 0.01924694
#
# Stress axis : x y z
#
# Youngs Moduli (GPa) = 58.72982 58.72982 43.41590
#
# Poissons Ratio (x) = 0.49889 0.22632
# Poissons Ratio (y) = 0.49889 0.22632
# Poissons Ratio (z) = 0.30614 0.30614
#
# Static dielectric constant tensor:
#      x y z
#    x 1.629090 0.000000 0.000000 
#    y 0.000000 1.629090 0.000000 
#    z 0.000000 0.000000 1.670550 
# 
# From -- ./inp_files/1775.got.cif
#   From: 2010.05.17/outbox.cif.g08.bks.cpg/sg130_1_cif.got.tgz:1775.got - 2010.05.20 12:17:35.
