data_PCOD9565354
_publ_section_title
;
Structure prediction by ZEFSAII (Michael W. Deem and Ramdas Pophale) SiO2 
 PCOD9565354
Probable space group: P 4/N M M
;
_chemical_formula_sum "Si O2"
_cell_formula_units_Z 64
_cell_length_a 13.265964
_cell_length_b 13.265964
_cell_length_c 22.171786
_cell_angle_alpha 90.000000
_cell_angle_beta 90.000000
_cell_angle_gamma 90.000000
_cell_volume 3901.919515
_symmetry_space_group_name_H-M "P 4/N M M"
_symmetry_group_IT_number 129
_symmetry_cell_setting 'tetragonal'
loop_
_space_group_symop_operation_xyz
x,y,z
1/2-y,x,z
1/2-x,1/2-y,z
y,1/2-x,z
1/2+x,-y,-z
-x,1/2+y,-z
1/2+y,1/2+x,-z
-y,-x,-z
-x,-y,-z
1/2+y,-x,-z
1/2+x,1/2+y,-z
-y,1/2+x,-z
1/2-x,y,z
x,1/2-y,z
1/2-y,1/2-x,z
y,x,z
loop_
_atom_site_type_symbol
_atom_site_label
_atom_site_fract_x
_atom_site_fract_y
_atom_site_fract_z
Si Si1 0.029709 0.867826 0.553377
Si Si2 0.630765 0.371362 0.811449
Si Si3 0.127514 0.865323 0.323362
Si Si4 0.502342 0.502342 0.096358
Si Si5 0.127911 0.372090 0.002150
O O1 0.107592 0.892409 0.500000
O O2 0.010767 0.750000 0.556513
O O3 0.072608 0.902525 0.618074
O O4 0.929586 0.929586 0.539389
O O5 0.750000 0.393320 0.818537
O O6 0.619546 0.250000 0.815328
O O7 0.598711 0.401999 0.743367
O O8 0.566531 0.427485 0.861501
O O9 0.250000 0.863240 0.323007
O O10 0.092902 0.750000 0.330100
O O11 0.573422 0.573422 0.054712
O O12 0.429089 0.429089 0.057241
O O13 0.111646 0.250000 0.002724
#
# Coordination Sequence:
#
# PCOD9565354 Si02
#       5
#    16  16  16   8   8
#     4  10  20  32  49  73 100 133 174 213 252 301
#     4   9  18  32  50  75 104 131 164 207 252 295
#     4   8  15  29  48  69  96 128 160 203 252 292
#     4  11  20  32  56  78  95 132 172 204 247 296
#     4  10  22  38  52  72 104 134 164 204 250 300
#
# _framework density 16.402183000000001
#
# number of rings (size 3 to 8) (size 9 to 14) (size 15 to 20)
#    0.000    2.625    0.000    3.750    1.750    1.500 
#    0.000    0.000    0.000    6.000    0.000    0.000 
#    0.000    0.000    0.000    0.000    0.000    0.000 
#
# Total GULP energy -356452.391036 kJ/mol
# GULP energy per Si atom -5569.568610 kJ/mol
# Density = 1.636485 g / cm^3
# Si number density = 16.402183 Si / 1000 Ang^3
#
#
#
# Elastic Constant Matrix: (Units=GPa)
#
#
# Indices 1 2 3 4 5 6 
#
# 1 67.9164 42.0596 46.3276 0.0000 0.0000 0.0000
# 2 42.0596 67.9190 46.3285 0.0000 0.0000 0.0000
# 3 46.3276 46.3285 124.0195 0.0000 0.0000 0.0000
# 4 0.0000 0.0000 0.0000 4.2003 0.0000 0.0000
# 5 0.0000 0.0000 0.0000 0.0000 4.2029 0.0000
# 6 0.0000 0.0000 0.0000 0.0000 0.0000 21.7392
#
#
#
# Elastic Compliance Matrix: (Units=1/GPa)
#
#
# Indices 1 2 3 4 5 6 
#
# 1 0.025971 -0.012702 -0.004957 0.000000 0.000000 0.000000
# 2 -0.012702 0.025970 -0.004957 0.000000 0.000000 0.000000
# 3 -0.004957 -0.004957 0.011766 0.000000 0.000000 0.000000
# 4 0.000000 0.000000 0.000000 0.238079 0.000000 0.000000
# 5 0.000000 0.000000 0.000000 0.000000 0.237932 0.000000
# 6 0.000000 0.000000 0.000000 0.000000 0.000000 0.046000
#
#
# Mechanical properties :
#
#
# Convention : Reuss Voigt Hill
#
# Bulk Modulus (GPa) = 54.12003 58.80957 56.46480
# Shear Modulus (GPa) = 7.84797 14.37109 11.10953
#
# Velocity S-wave (km/s) = 2.18977 2.96323 2.60536
# Velocity P-wave (km/s) = 6.28178 6.90219 6.59928
#
# Compressibility (1/GPa) = 0.01847745
#
# Stress axis : x y z
#
# Youngs Moduli (GPa) = 38.50420 38.50568 84.98804
#
# Poissons Ratio (x) = 0.48910 0.42125
# Poissons Ratio (y) = 0.48908 0.42125
# Poissons Ratio (z) = 0.19085 0.19086
#
# Static dielectric constant tensor:
#      x y z
#    x 1.528450 0.000000 0.000000 
#    y 0.000000 1.528450 0.000000 
#    z 0.000000 0.000000 1.570880 
# 
# From -- ./inp_files/6908.got.cif
#   From: 2010.05.17/outbox.cif.g08.bks.cpg/sg129_4_cif.got.tgz:6908.got - 2010.05.20 12:12:06.
