data_PCOD9565667
_publ_section_title
;
Structure prediction by ZEFSAII (Michael W. Deem and Ramdas Pophale) SiO2 
 PCOD9565667
Probable space group: P 4/N C C
;
_chemical_formula_sum "Si O2"
_cell_formula_units_Z 88
_cell_length_a 11.415179
_cell_length_b 11.415179
_cell_length_c 28.430529
_cell_angle_alpha 90.000000
_cell_angle_beta 90.000000
_cell_angle_gamma 90.000000
_cell_volume 3704.677371
_symmetry_space_group_name_H-M "P 4/N C C"
_symmetry_group_IT_number 130
_symmetry_cell_setting 'tetragonal'
loop_
_space_group_symop_operation_xyz
x,y,z
1/2-y,x,z
1/2-x,1/2-y,z
y,1/2-x,z
1/2+x,-y,1/2-z
-x,1/2+y,1/2-z
1/2+y,1/2+x,1/2-z
-y,-x,1/2-z
-x,-y,-z
1/2+y,-x,-z
1/2+x,1/2+y,-z
-y,1/2+x,-z
1/2-x,y,1/2+z
x,1/2-y,1/2+z
1/2-y,1/2-x,1/2+z
y,x,1/2+z
loop_
_atom_site_type_symbol
_atom_site_label
_atom_site_fract_x
_atom_site_fract_y
_atom_site_fract_z
Si Si1 0.164351 0.585675 0.123833
Si Si2 0.577169 0.333529 0.853292
Si Si3 0.849640 0.086660 0.486113
Si Si4 0.874743 0.374743 0.250000
Si Si5 0.140723 0.088806 0.434285
Si Si6 0.442682 0.218118 0.711635
O O1 0.298897 0.630457 0.124245
O O2 0.087258 0.691900 0.145770
O O3 0.130560 0.567214 0.069431
O O4 0.177050 0.475214 0.158485
O O5 0.565312 0.383973 0.801053
O O6 0.479260 0.385917 0.886632
O O7 0.709891 0.099618 0.495629
O O8 0.891073 0.982716 0.519613
O O9 0.746127 0.428955 0.265445
O O10 0.281115 0.095857 0.434501
O O11 0.377541 0.342469 0.723265
#
# Coordination Sequence:
#
# PCOD9565667 Si02
#       6
#    16  16  16   8  16  16
#     4  10  20  37  67  92 121 166 208 260 320 376
#     4  10  20  41  61  93 123 159 214 271 314 388
#     4  11  19  39  66  93 124 165 216 264 314 376
#     4  10  24  41  72  95 122 172 222 263 334 402
#     4  11  25  40  57  91 134 172 211 261 322 382
#     4  10  24  43  61  92 132 164 208 272 328 382
#
# _framework density 23.753757
#
# number of rings (size 3 to 8) (size 9 to 14) (size 15 to 20)
#    0.000    1.636    3.636    1.091    0.000   13.818 
#    0.000    3.636    0.000    0.000    0.000    0.000 
#    0.000    0.000    0.000    0.000    0.000    0.000 
#
# Total GULP energy -490642.816701 kJ/mol
# GULP energy per Si atom -5575.486553 kJ/mol
# Density = 2.369969 g / cm^3
# Si number density = 23.753757 Si / 1000 Ang^3
#
#
#
# Elastic Constant Matrix: (Units=GPa)
#
#
# Indices 1 2 3 4 5 6 
#
# 1 92.3768 29.4150 43.0876 0.0000 0.0000 0.0000
# 2 29.4150 92.3768 43.0876 0.0000 0.0000 0.0000
# 3 43.0876 43.0876 197.5722 0.0000 0.0000 0.0000
# 4 0.0000 0.0000 0.0000 31.5694 0.0000 0.0000
# 5 0.0000 0.0000 0.0000 0.0000 31.5694 0.0000
# 6 0.0000 0.0000 0.0000 0.0000 0.0000 38.4007
#
#
#
# Elastic Compliance Matrix: (Units=1/GPa)
#
#
# Indices 1 2 3 4 5 6 
#
# 1 0.012796 -0.003087 -0.002117 0.000000 0.000000 0.000000
# 2 -0.003087 0.012796 -0.002117 0.000000 0.000000 0.000000
# 3 -0.002117 -0.002117 0.005985 0.000000 0.000000 0.000000
# 4 0.000000 0.000000 0.000000 0.031676 0.000000 0.000000
# 5 0.000000 0.000000 0.000000 0.000000 0.031676 0.000000
# 6 0.000000 0.000000 0.000000 0.000000 0.000000 0.026041
#
#
# Mechanical properties :
#
#
# Convention : Reuss Voigt Hill
#
# Bulk Modulus (GPa) = 59.05518 68.16732 63.61125
# Shear Modulus (GPa) = 35.39625 38.09027 36.74326
#
# Velocity S-wave (km/s) = 3.86441 4.00878 3.93726
# Velocity P-wave (km/s) = 6.69529 7.08427 6.89252
#
# Compressibility (1/GPa) = 0.01693332
#
# Stress axis : x y z
#
# Youngs Moduli (GPa) = 78.15077 78.15077 167.08510
#
# Poissons Ratio (x) = 0.24124 0.35378
# Poissons Ratio (y) = 0.24124 0.35378
# Poissons Ratio (z) = 0.16547 0.16547
#
# Static dielectric constant tensor:
#      x y z
#    x 1.965100 0.000000 0.000000 
#    y 0.000000 1.965100 0.000000 
#    z 0.000000 0.000000 1.859570 
# 
# From -- ./inp_files/4877.got.cif
#   From: 2010.05.17/outbox.cif.g08.bks.cpg/sg130_3_cif.got.tgz:4877.got - 2010.05.20 12:17:35.
