data_PCOD9565947
_publ_section_title
;
Structure prediction by ZEFSAII (Michael W. Deem and Ramdas Pophale) SiO2 
 PCOD9565947
Probable space group: P 4/N C C
;
_chemical_formula_sum "Si O2"
_cell_formula_units_Z 88
_cell_length_a 10.953973
_cell_length_b 10.953973
_cell_length_c 29.979173
_cell_angle_alpha 90.000000
_cell_angle_beta 90.000000
_cell_angle_gamma 90.000000
_cell_volume 3597.186713
_symmetry_space_group_name_H-M "P 4/N C C"
_symmetry_group_IT_number 130
_symmetry_cell_setting 'tetragonal'
loop_
_space_group_symop_operation_xyz
x,y,z
1/2-y,x,z
1/2-x,1/2-y,z
y,1/2-x,z
1/2+x,-y,1/2-z
-x,1/2+y,1/2-z
1/2+y,1/2+x,1/2-z
-y,-x,1/2-z
-x,-y,-z
1/2+y,-x,-z
1/2+x,1/2+y,-z
-y,1/2+x,-z
1/2-x,y,1/2+z
x,1/2-y,1/2+z
1/2-y,1/2-x,1/2+z
y,x,1/2+z
loop_
_atom_site_type_symbol
_atom_site_label
_atom_site_fract_x
_atom_site_fract_y
_atom_site_fract_z
Si Si1 0.388463 0.611538 0.750000
Si Si2 0.425494 0.359762 0.328576
Si Si3 0.774161 0.955024 0.799772
Si Si4 0.080155 0.365425 0.926609
Si Si5 0.144654 0.920516 0.009687
Si Si6 0.309998 0.053981 0.598409
O O1 0.484240 0.596683 0.709443
O O2 0.425340 0.743203 0.771006
O O3 0.287588 0.411069 0.324714
O O4 0.473861 0.395454 0.377910
O O5 0.649051 0.876166 0.791942
O O6 0.803671 0.991511 0.850761
O O7 0.089717 0.218701 0.926722
O O8 0.012459 0.402997 0.971524
O O9 0.147305 0.960009 0.061200
O O10 0.288458 0.909528 0.998388
O O11 0.394828 0.172874 0.591747
#
# Coordination Sequence:
#
# PCOD9565947 Si02
#       6
#     8  16  16  16  16  16
#     4  12  20  30  64  94 110 150 204 238 294 360
#     4   9  20  39  60  85 121 155 195 253 297 340
#     4   9  20  39  60  85 121 155 195 253 297 340
#     4   9  19  38  62  86 113 153 204 250 290 346
#     4  11  24  37  54  86 128 161 184 239 310 362
#     4   9  19  38  62  86 113 153 204 250 290 346
#
# _framework density 24.463563000000001
#
# number of rings (size 3 to 8) (size 9 to 14) (size 15 to 20)
#    0.000    2.364    0.000    4.364    2.545    5.818 
#    9.818    0.000    0.000    8.727    0.000    0.000 
#    0.000    0.000    0.000    0.000    0.000    0.000 
#
# Total GULP energy -492013.413385 kJ/mol
# GULP energy per Si atom -5591.061516 kJ/mol
# Density = 2.440788 g / cm^3
# Si number density = 24.463563 Si / 1000 Ang^3
#
#
#
# Elastic Constant Matrix: (Units=GPa)
#
#
# Indices 1 2 3 4 5 6 
#
# 1 66.2835 29.3817 54.4335 0.0000 0.0000 0.0000
# 2 29.3817 66.2836 54.4333 0.0000 0.0000 0.0000
# 3 54.4335 54.4333 182.6807 0.0000 0.0000 0.0000
# 4 0.0000 0.0000 0.0000 43.8190 0.0000 0.0000
# 5 0.0000 0.0000 0.0000 0.0000 43.8190 0.0000
# 6 0.0000 0.0000 0.0000 0.0000 0.0000 40.2147
#
#
#
# Elastic Compliance Matrix: (Units=1/GPa)
#
#
# Indices 1 2 3 4 5 6 
#
# 1 0.021458 -0.005641 -0.004713 0.000000 0.000000 0.000000
# 2 -0.005641 0.021458 -0.004713 0.000000 0.000000 0.000000
# 3 -0.004713 -0.004713 0.008283 0.000000 0.000000 0.000000
# 4 0.000000 0.000000 0.000000 0.022821 0.000000 0.000000
# 5 0.000000 0.000000 0.000000 0.000000 0.022821 0.000000
# 6 0.000000 0.000000 0.000000 0.000000 0.000000 0.024867
#
#
# Mechanical properties :
#
#
# Convention : Reuss Voigt Hill
#
# Bulk Modulus (GPa) = 47.47444 65.74941 56.61193
# Shear Modulus (GPa) = 31.47396 37.37051 34.42223
#
# Velocity S-wave (km/s) = 3.59076 3.91269 3.75518
# Velocity P-wave (km/s) = 6.05308 6.88092 6.48023
#
# Compressibility (1/GPa) = 0.02106397
#
# Stress axis : x y z
#
# Youngs Moduli (GPa) = 46.60354 46.60372 120.73572
#
# Poissons Ratio (x) = 0.26291 0.56900
# Poissons Ratio (y) = 0.26291 0.56900
# Poissons Ratio (z) = 0.21963 0.21963
#
# Static dielectric constant tensor:
#      x y z
#    x 1.960690 0.000000 0.000000 
#    y 0.000000 1.960690 0.000000 
#    z 0.000000 0.000000 1.945860 
# 
# From -- ./inp_files/4830.got.cif
#   From: 2010.05.17/outbox.cif.g08.bks.cpg/sg130_3_cif.got.tgz:4830.got - 2010.05.20 12:17:35.
