data_PCOD9565724
_publ_section_title
;
Structure prediction by ZEFSAII (Michael W. Deem and Ramdas Pophale) SiO2 
 PCOD9565724
Probable space group: P 4/N C C
;
_chemical_formula_sum "Si O2"
_cell_formula_units_Z 88
_cell_length_a 13.883413
_cell_length_b 13.883413
_cell_length_c 25.379469
_cell_angle_alpha 90.000000
_cell_angle_beta 90.000000
_cell_angle_gamma 90.000000
_cell_volume 4891.871243
_symmetry_space_group_name_H-M "P 4/N C C"
_symmetry_group_IT_number 130
_symmetry_cell_setting 'tetragonal'
loop_
_space_group_symop_operation_xyz
x,y,z
1/2-y,x,z
1/2-x,1/2-y,z
y,1/2-x,z
1/2+x,-y,1/2-z
-x,1/2+y,1/2-z
1/2+y,1/2+x,1/2-z
-y,-x,1/2-z
-x,-y,-z
1/2+y,-x,-z
1/2+x,1/2+y,-z
-y,1/2+x,-z
1/2-x,y,1/2+z
x,1/2-y,1/2+z
1/2-y,1/2-x,1/2+z
y,x,1/2+z
loop_
_atom_site_type_symbol
_atom_site_label
_atom_site_fract_x
_atom_site_fract_y
_atom_site_fract_z
Si Si1 0.998634 0.636144 0.152798
Si Si2 0.500000 1.000000 0.250000
Si Si3 0.909458 0.287273 0.500000
Si Si4 0.841161 0.493962 0.889367
Si Si5 0.506038 0.341161 0.889367
Si Si6 0.501367 0.636144 0.347201
O O1 0.996503 0.591367 0.211175
O O2 0.099715 0.600280 0.128663
O O3 0.989332 0.749228 0.147384
O O4 0.915648 0.581374 0.119374
O O5 0.591367 0.996502 0.288825
O O6 0.862021 0.180832 0.500000
O O7 0.973593 0.305429 0.551734
O O8 0.973592 0.305429 0.448265
O O9 0.915648 0.581373 0.880626
O O10 0.749228 0.510668 0.852616
O O11 0.600280 0.400285 0.871337
#
# Coordination Sequence:
#
# PCOD9565724 Si02
#       6
#    16   8  16  16  16  16
#     4  10  22  37  60  83 119 149 202 239 295 339
#     4   8  20  40  60  86 112 156 188 260 296 334
#     4  11  20  33  61  86 118 159 190 233 305 350
#     4  10  21  37  56  88 114 155 191 243 278 358
#     4  10  21  37  56  88 114 155 191 243 278 358
#     4  10  22  37  60  83 119 149 202 239 295 339
#
# _framework density 17.989027
#
# number of rings (size 3 to 8) (size 9 to 14) (size 15 to 20)
#    0.000    2.364    3.636    0.000    0.000   11.636 
#    0.000    0.000    0.000   19.636    0.000    0.000 
#    0.000    0.000    0.000    0.000    0.000    0.000 
#
# Total GULP energy -490747.899525 kJ/mol
# GULP energy per Si atom -5576.680676 kJ/mol
# Density = 1.794808 g / cm^3
# Si number density = 17.989027 Si / 1000 Ang^3
#
#
#
# Elastic Constant Matrix: (Units=GPa)
#
#
# Indices 1 2 3 4 5 6 
#
# 1 100.9429 26.5755 31.2337 0.0000 0.0000 0.0000
# 2 26.5755 100.9429 31.2337 0.0000 0.0000 0.0000
# 3 31.2337 31.2337 133.5065 0.0000 0.0000 0.0000
# 4 0.0000 0.0000 0.0000 34.9447 0.0000 0.0000
# 5 0.0000 0.0000 0.0000 0.0000 34.9447 0.0000
# 6 0.0000 0.0000 0.0000 0.0000 0.0000 3.1774
#
#
#
# Elastic Compliance Matrix: (Units=1/GPa)
#
#
# Indices 1 2 3 4 5 6 
#
# 1 0.011152 -0.002295 -0.002072 0.000000 0.000000 0.000000
# 2 -0.002295 0.011152 -0.002072 0.000000 0.000000 0.000000
# 3 -0.002072 -0.002072 0.008460 0.000000 0.000000 0.000000
# 4 0.000000 0.000000 0.000000 0.028617 0.000000 0.000000
# 5 0.000000 0.000000 0.000000 0.000000 0.028617 0.000000
# 6 0.000000 0.000000 0.000000 0.000000 0.000000 0.314728
#
#
# Mechanical properties :
#
#
# Convention : Reuss Voigt Hill
#
# Bulk Modulus (GPa) = 55.91110 57.05311 56.48210
# Shear Modulus (GPa) = 11.86058 31.03663 21.44861
#
# Velocity S-wave (km/s) = 2.57051 4.15819 3.45674
# Velocity P-wave (km/s) = 6.32125 7.40530 6.88464
#
# Compressibility (1/GPa) = 0.01788554
#
# Stress axis : x y z
#
# Youngs Moduli (GPa) = 89.67070 89.67070 118.20601
#
# Poissons Ratio (x) = 0.20578 0.24493
# Poissons Ratio (y) = 0.20578 0.24493
# Poissons Ratio (z) = 0.18581 0.18581
#
# Static dielectric constant tensor:
#      x y z
#    x 1.602380 0.000000 0.000000 
#    y 0.000000 1.602380 0.000000 
#    z 0.000000 0.000000 1.625680 
# 
# From -- ./inp_files/4171.got.cif
#   From: 2010.05.17/outbox.cif.g08.bks.cpg/sg130_3_cif.got.tgz:4171.got - 2010.05.20 12:17:35.
