data_PCOD9565809
_publ_section_title
;
Structure prediction by ZEFSAII (Michael W. Deem and Ramdas Pophale) SiO2 
 PCOD9565809
Probable space group: P 4/N C C
;
_chemical_formula_sum "Si O2"
_cell_formula_units_Z 64
_cell_length_a 10.514879
_cell_length_b 10.514879
_cell_length_c 25.047663
_cell_angle_alpha 90.000000
_cell_angle_beta 90.000000
_cell_angle_gamma 90.000000
_cell_volume 2769.336759
_symmetry_space_group_name_H-M "P 4/N C C"
_symmetry_group_IT_number 130
_symmetry_cell_setting 'tetragonal'
loop_
_space_group_symop_operation_xyz
x,y,z
1/2-y,x,z
1/2-x,1/2-y,z
y,1/2-x,z
1/2+x,-y,1/2-z
-x,1/2+y,1/2-z
1/2+y,1/2+x,1/2-z
-y,-x,1/2-z
-x,-y,-z
1/2+y,-x,-z
1/2+x,1/2+y,-z
-y,1/2+x,-z
1/2-x,y,1/2+z
x,1/2-y,1/2+z
1/2-y,1/2-x,1/2+z
y,x,1/2+z
loop_
_atom_site_type_symbol
_atom_site_label
_atom_site_fract_x
_atom_site_fract_y
_atom_site_fract_z
Si Si1 0.706081 0.397957 0.074379
Si Si2 0.321169 0.450417 0.520527
Si Si3 0.950207 0.811178 0.294160
Si Si4 0.298037 0.893078 0.815745
O O1 0.750000 0.250000 0.071874
O O2 0.562661 0.386380 0.053805
O O3 0.716644 0.443187 0.135336
O O4 0.797464 0.485110 0.037922
O O5 0.175894 0.404169 0.530156
O O6 0.830967 0.902235 0.301182
O O7 0.013266 0.806799 0.234707
O O8 0.058246 0.862501 0.333050
O O9 0.250000 0.750000 0.803135
#
# Coordination Sequence:
#
# PCOD9565809 Si02
#       4
#    16  16  16  16
#     4  11  22  43  65 100 135 181 227 276 342 405
#     4  11  23  42  71 100 140 185 229 286 345 402
#     4  10  22  43  70  99 133 173 221 284 344 404
#     4  10  24  40  66  99 131 178 222 273 344 406
#
# _framework density 23.110223999999999
#
# number of rings (size 3 to 8) (size 9 to 14) (size 15 to 20)
#    0.000    1.500    2.500    2.250    7.000    2.000 
#    9.000    2.500    0.000   12.000    0.000    0.000 
#    0.000    0.000    0.000    0.000    0.000    0.000 
#
# Total GULP energy -357222.935319 kJ/mol
# GULP energy per Si atom -5581.608364 kJ/mol
# Density = 2.305762 g / cm^3
# Si number density = 23.110224 Si / 1000 Ang^3
#
#
#
# Elastic Constant Matrix: (Units=GPa)
#
#
# Indices 1 2 3 4 5 6 
#
# 1 106.1909 -10.2953 1.9227 0.0000 0.0000 0.0000
# 2 -10.2953 106.1909 1.9227 0.0000 0.0000 0.0000
# 3 1.9227 1.9227 74.6863 0.0000 0.0000 0.0000
# 4 0.0000 0.0000 0.0000 6.7308 0.0000 0.0000
# 5 0.0000 0.0000 0.0000 0.0000 6.7308 0.0000
# 6 0.0000 0.0000 0.0000 0.0000 0.0000 3.0669
#
#
#
# Elastic Compliance Matrix: (Units=1/GPa)
#
#
# Indices 1 2 3 4 5 6 
#
# 1 0.009512 0.000927 -0.000269 0.000000 0.000000 0.000000
# 2 0.000927 0.009512 -0.000269 0.000000 0.000000 0.000000
# 3 -0.000269 -0.000269 0.013403 0.000000 0.000000 0.000000
# 4 0.000000 0.000000 0.000000 0.148570 0.000000 0.000000
# 5 0.000000 0.000000 0.000000 0.000000 0.148570 0.000000
# 6 0.000000 0.000000 0.000000 0.000000 0.000000 0.326058
#
#
# Mechanical properties :
#
#
# Convention : Reuss Voigt Hill
#
# Bulk Modulus (GPa) = 30.11522 30.46315 30.28918
# Shear Modulus (GPa) = 7.50847 22.87358 15.19102
#
# Velocity S-wave (km/s) = 1.80445 3.14946 2.56662
# Velocity P-wave (km/s) = 4.17143 5.14157 4.68169
#
# Compressibility (1/GPa) = 0.03320581
#
# Stress axis : x y z
#
# Youngs Moduli (GPa) = 105.13315 105.13315 74.60916
#
# Poissons Ratio (x) = -0.09746 0.02005
# Poissons Ratio (y) = -0.09746 0.02005
# Poissons Ratio (z) = 0.02825 0.02825
#
# Static dielectric constant tensor:
#      x y z
#    x 1.993970 0.000000 0.000000 
#    y 0.000000 1.993970 0.000000 
#    z 0.000000 0.000000 1.941090 
# 
# From -- ./inp_files/4455.got.cif
#   From: 2010.05.17/outbox.cif.g08.bks.cpg/sg130_3_cif.got.tgz:4455.got - 2010.05.20 12:17:35.
