data_PCOD9565905
_publ_section_title
;
Structure prediction by ZEFSAII (Michael W. Deem and Ramdas Pophale) SiO2 
 PCOD9565905
Probable space group: P 4/N C C
;
_chemical_formula_sum "Si O2"
_cell_formula_units_Z 112
_cell_length_a 14.880025
_cell_length_b 14.880025
_cell_length_c 28.384184
_cell_angle_alpha 90.000000
_cell_angle_beta 90.000000
_cell_angle_gamma 90.000000
_cell_volume 6284.688188
_symmetry_space_group_name_H-M "P 4/N C C"
_symmetry_group_IT_number 130
_symmetry_cell_setting 'tetragonal'
loop_
_space_group_symop_operation_xyz
x,y,z
1/2-y,x,z
1/2-x,1/2-y,z
y,1/2-x,z
1/2+x,-y,1/2-z
-x,1/2+y,1/2-z
1/2+y,1/2+x,1/2-z
-y,-x,1/2-z
-x,-y,-z
1/2+y,-x,-z
1/2+x,1/2+y,-z
-y,1/2+x,-z
1/2-x,y,1/2+z
x,1/2-y,1/2+z
1/2-y,1/2-x,1/2+z
y,x,1/2+z
loop_
_atom_site_type_symbol
_atom_site_label
_atom_site_fract_x
_atom_site_fract_y
_atom_site_fract_z
Si Si1 0.828398 0.003845 0.858354
Si Si2 0.803110 0.388468 0.557061
Si Si3 0.307526 0.892871 0.550673
Si Si4 0.633361 0.972222 0.818668
Si Si5 0.837435 0.307114 0.305418
Si Si6 0.343375 0.963005 0.343118
Si Si7 0.325644 0.119094 0.279377
O O1 0.829163 0.029041 0.913109
O O2 0.842290 0.098420 0.831506
O O3 0.731336 0.968620 0.842105
O O4 0.904357 0.934271 0.844000
O O5 0.696808 0.366164 0.560386
O O6 0.857327 0.294129 0.559393
O O7 0.817974 0.421181 0.503666
O O8 0.832782 0.448212 0.601056
O O9 0.642661 0.940674 0.764764
O O10 0.594300 0.072041 0.824552
O O11 0.750000 0.250000 0.321666
O O12 0.825627 0.325627 0.250000
O O13 0.921607 0.244717 0.317823
O O14 0.352225 0.065016 0.326166
O O15 0.367953 0.218063 0.276917
#
# Coordination Sequence:
#
# PCOD9565905 Si02
#       7
#    16  16  16  16  16  16  16
#     4  12  23  40  61  88 122 163 204 259 303 370
#     4   9  17  33  62  92 126 152 193 247 317 378
#     4   9  17  34  61  93 120 160 190 245 321 375
#     4  12  25  40  62  88 124 162 214 252 305 360
#     4  11  22  35  57  87 122 151 192 255 322 358
#     4  12  23  38  62  95 121 158 202 266 305 370
#     4  11  26  45  60  81 123 176 210 240 300 377
#
# _framework density 17.821090999999999
#
# number of rings (size 3 to 8) (size 9 to 14) (size 15 to 20)
#    0.000    1.143    5.714    2.143    4.000    0.286 
#    0.000    0.714    3.143    0.000    0.000    0.000 
#    0.000    0.000    0.000    0.000    0.000    0.000 
#
# Total GULP energy -625877.265515 kJ/mol
# GULP energy per Si atom -5588.189871 kJ/mol
# Density = 1.778053 g / cm^3
# Si number density = 17.821091 Si / 1000 Ang^3
#
#
#
# Elastic Constant Matrix: (Units=GPa)
#
#
# Indices 1 2 3 4 5 6 
#
# 1 68.0377 37.7975 44.5820 0.0000 0.0000 0.0000
# 2 37.7975 68.0377 44.5820 0.0000 0.0000 0.0000
# 3 44.5820 44.5820 148.3790 0.0000 0.0000 0.0000
# 4 0.0000 0.0000 0.0000 11.6104 0.0000 0.0000
# 5 0.0000 0.0000 0.0000 0.0000 11.6104 0.0000
# 6 0.0000 0.0000 0.0000 0.0000 0.0000 19.7356
#
#
#
# Elastic Compliance Matrix: (Units=1/GPa)
#
#
# Indices 1 2 3 4 5 6 
#
# 1 0.022860 -0.010209 -0.003801 0.000000 0.000000 0.000000
# 2 -0.010209 0.022860 -0.003801 0.000000 0.000000 0.000000
# 3 -0.003801 -0.003801 0.009024 0.000000 0.000000 0.000000
# 4 0.000000 0.000000 0.000000 0.086130 0.000000 0.000000
# 5 0.000000 0.000000 0.000000 0.000000 0.086130 0.000000
# 6 0.000000 0.000000 0.000000 0.000000 0.000000 0.050670
#
#
# Mechanical properties :
#
#
# Convention : Reuss Voigt Hill
#
# Bulk Modulus (GPa) = 52.29799 59.81972 56.05885
# Shear Modulus (GPa) = 15.64123 19.09081 17.36602
#
# Velocity S-wave (km/s) = 2.96578 3.27654 3.12503
# Velocity P-wave (km/s) = 6.41386 6.92488 6.67427
#
# Compressibility (1/GPa) = 0.01912120
#
# Stress axis : x y z
#
# Youngs Moduli (GPa) = 43.74496 43.74496 110.81960
#
# Poissons Ratio (x) = 0.44658 0.42124
# Poissons Ratio (y) = 0.44658 0.42124
# Poissons Ratio (z) = 0.16628 0.16628
#
# Static dielectric constant tensor:
#      x y z
#    x 1.599700 0.000000 0.000000 
#    y 0.000000 1.599700 0.000000 
#    z 0.000000 0.000000 1.620390 
# 
# From -- ./inp_files/4599.got.cif
#   From: 2010.05.17/outbox.cif.g08.bks.cpg/sg130_3_cif.got.tgz:4599.got - 2010.05.20 12:17:35.
