data_PCOD9565766
_publ_section_title
;
Structure prediction by ZEFSAII (Michael W. Deem and Ramdas Pophale) SiO2 
 PCOD9565766
Probable space group: P 4/N C C
;
_chemical_formula_sum "Si O2"
_cell_formula_units_Z 128
_cell_length_a 22.705682
_cell_length_b 22.705682
_cell_length_c 12.895660
_cell_angle_alpha 90.000000
_cell_angle_beta 90.000000
_cell_angle_gamma 90.000000
_cell_volume 6648.331658
_symmetry_space_group_name_H-M "P 4/N C C"
_symmetry_group_IT_number 130
_symmetry_cell_setting 'tetragonal'
loop_
_space_group_symop_operation_xyz
x,y,z
1/2-y,x,z
1/2-x,1/2-y,z
y,1/2-x,z
1/2+x,-y,1/2-z
-x,1/2+y,1/2-z
1/2+y,1/2+x,1/2-z
-y,-x,1/2-z
-x,-y,-z
1/2+y,-x,-z
1/2+x,1/2+y,-z
-y,1/2+x,-z
1/2-x,y,1/2+z
x,1/2-y,1/2+z
1/2-y,1/2-x,1/2+z
y,x,1/2+z
loop_
_atom_site_type_symbol
_atom_site_label
_atom_site_fract_x
_atom_site_fract_y
_atom_site_fract_z
Si Si1 0.572379 0.102806 0.630237
Si Si2 0.555832 0.806270 0.598524
Si Si3 0.481857 0.858465 0.984979
Si Si4 0.915372 0.624410 0.150785
Si Si5 0.912245 0.765864 0.783395
Si Si6 0.456099 0.466867 0.174600
Si Si7 0.977566 0.278154 0.571049
Si Si8 0.751368 0.655016 0.479078
O O1 0.589962 0.089962 0.750000
O O2 0.615945 0.074742 0.545377
O O3 0.510455 0.066220 0.616039
O O4 0.567174 0.173186 0.614796
O O5 0.587012 0.868595 0.585309
O O6 0.561167 0.787322 0.716868
O O7 0.493444 0.801351 0.544494
O O8 0.594973 0.757821 0.538663
O O9 0.507091 0.905224 0.899978
O O10 0.469922 0.792705 0.939097
O O11 0.531123 0.857154 0.076503
O O12 0.891120 0.681845 0.209320
O O13 0.933672 0.581901 0.244606
O O14 0.860557 0.745654 0.858321
O O15 0.965366 0.788327 0.855427
O O16 0.482946 0.517055 0.250000
O O17 0.806670 0.694278 0.504996
#
# Coordination Sequence:
#
# PCOD9565766 Si02
#       8
#    16  16  16  16  16  16  16  16
#     4  11  22  45  68  95 133 172 211 259 328 392
#     4  11  23  34  57  84 123 161 213 265 311 367
#     4  12  24  41  66  96 131 164 215 264 317 389
#     4  12  22  37  61  89 122 173 208 260 316 381
#     4  11  21  38  54  81 117 163 216 260 309 367
#     4  11  23  39  62  97 131 169 209 255 326 383
#     4  11  24  40  63  94 124 166 208 259 319 386
#     4  10  22  36  49  70 107 161 222 269 307 351
#
# _framework density 19.252949999999998
#
# number of rings (size 3 to 8) (size 9 to 14) (size 15 to 20)
#    0.000    0.875    5.000    3.375    5.250    0.000 
#    0.000    1.250    0.000    0.375    0.000    0.875 
#    0.000    0.000    0.000    0.000    0.000    0.000 
#
# Total GULP energy -714090.222520 kJ/mol
# GULP energy per Si atom -5578.829863 kJ/mol
# Density = 1.920913 g / cm^3
# Si number density = 19.252950 Si / 1000 Ang^3
#
#
#
# Elastic Constant Matrix: (Units=GPa)
#
#
# Indices 1 2 3 4 5 6 
#
# 1 86.3009 28.6391 31.8424 0.0000 0.0000 0.0000
# 2 28.6391 86.3001 31.8427 0.0000 0.0000 0.0000
# 3 31.8424 31.8427 69.2882 0.0000 0.0000 0.0000
# 4 0.0000 0.0000 0.0000 27.9322 0.0000 0.0000
# 5 0.0000 0.0000 0.0000 0.0000 27.9323 0.0000
# 6 0.0000 0.0000 0.0000 0.0000 0.0000 12.6381
#
#
#
# Elastic Compliance Matrix: (Units=1/GPa)
#
#
# Indices 1 2 3 4 5 6 
#
# 1 0.014507 -0.002835 -0.005364 0.000000 0.000000 0.000000
# 2 -0.002835 0.014508 -0.005364 0.000000 0.000000 0.000000
# 3 -0.005364 -0.005364 0.019363 0.000000 0.000000 0.000000
# 4 0.000000 0.000000 0.000000 0.035801 0.000000 0.000000
# 5 0.000000 0.000000 0.000000 0.000000 0.035801 0.000000
# 6 0.000000 0.000000 0.000000 0.000000 0.000000 0.079126
#
#
# Mechanical properties :
#
#
# Convention : Reuss Voigt Hill
#
# Bulk Modulus (GPa) = 47.05715 47.39306 47.22510
# Shear Modulus (GPa) = 21.43014 23.67152 22.55083
#
# Velocity S-wave (km/s) = 3.33991 3.51023 3.42613
# Velocity P-wave (km/s) = 6.27439 6.41080 6.34296
#
# Compressibility (1/GPa) = 0.02125076
#
# Stress axis : x y z
#
# Youngs Moduli (GPa) = 68.93030 68.92923 51.64510
#
# Poissons Ratio (x) = 0.19542 0.27703
# Poissons Ratio (y) = 0.19542 0.27704
# Poissons Ratio (z) = 0.36975 0.36976
#
# Static dielectric constant tensor:
#      x y z
#    x 1.714350 0.000000 0.000000 
#    y 0.000000 1.714350 0.000000 
#    z 0.000000 0.000000 1.770140 
# 
# From -- ./inp_files/1888.got.cif
#   From: 2010.05.17/outbox.cif.g08.bks.cpg/sg130_1_cif.got.tgz:1888.got - 2010.05.20 12:17:35.
