data_PCOD9565652
_publ_section_title
;
Structure prediction by ZEFSAII (Michael W. Deem and Ramdas Pophale) SiO2 
 PCOD9565652
Probable space group: P 4/N C C
;
_chemical_formula_sum "Si O2"
_cell_formula_units_Z 96
_cell_length_a 14.962456
_cell_length_b 14.962456
_cell_length_c 21.222205
_cell_angle_alpha 90.000000
_cell_angle_beta 90.000000
_cell_angle_gamma 90.000000
_cell_volume 4751.123045
_symmetry_space_group_name_H-M "P 4/N C C"
_symmetry_group_IT_number 130
_symmetry_cell_setting 'tetragonal'
loop_
_space_group_symop_operation_xyz
x,y,z
1/2-y,x,z
1/2-x,1/2-y,z
y,1/2-x,z
1/2+x,-y,1/2-z
-x,1/2+y,1/2-z
1/2+y,1/2+x,1/2-z
-y,-x,1/2-z
-x,-y,-z
1/2+y,-x,-z
1/2+x,1/2+y,-z
-y,1/2+x,-z
1/2-x,y,1/2+z
x,1/2-y,1/2+z
1/2-y,1/2-x,1/2+z
y,x,1/2+z
loop_
_atom_site_type_symbol
_atom_site_label
_atom_site_fract_x
_atom_site_fract_y
_atom_site_fract_z
Si Si1 0.203932 0.609419 0.015004
Si Si2 0.971135 0.302647 0.791976
Si Si3 0.988060 0.926988 0.053341
Si Si4 0.670161 0.623944 0.122782
Si Si5 0.792117 0.403135 0.837568
Si Si6 0.394149 0.580123 0.319688
O O1 0.199653 0.581638 0.088187
O O2 0.141528 0.696854 0.003661
O O3 0.164654 0.531522 0.971992
O O4 0.875347 0.339875 0.817108
O O5 0.977635 0.303231 0.716361
O O6 0.967442 0.201282 0.815736
O O7 0.056456 0.351540 0.820478
O O8 0.882632 0.919883 0.065367
O O9 0.040417 0.944765 0.119463
O O10 0.000000 0.000000 0.000000
O O11 0.775833 0.634067 0.123195
O O12 0.687562 0.375277 0.827469
O O13 0.434781 0.565220 0.250000
#
# Coordination Sequence:
#
# PCOD9565652 Si02
#       6
#    16  16  16  16  16  16
#     4  11  23  38  65  96 140 178 214 273 363 434
#     4  10  20  39  64  97 134 165 225 274 338 417
#     4  12  25  41  64  97 131 173 228 289 342 411
#     4  11  25  45  66  89 128 188 242 279 325 403
#     4  10  20  36  64 104 131 170 198 281 362 428
#     4  10  20  39  64  95 134 165 209 274 350 419
#
# _framework density 20.205749000000001
#
# number of rings (size 3 to 8) (size 9 to 14) (size 15 to 20)
#    0.000    1.333    3.333    2.500    4.667    2.000 
#    6.000    0.000    0.000    0.000    0.000    2.333 
#    0.000    0.000    0.000    0.000    0.000    0.000 
#
# Total GULP energy -534975.213163 kJ/mol
# GULP energy per Si atom -5572.658470 kJ/mol
# Density = 2.015976 g / cm^3
# Si number density = 20.205749 Si / 1000 Ang^3
#
#
#
# Elastic Constant Matrix: (Units=GPa)
#
#
# Indices 1 2 3 4 5 6 
#
# 1 87.1501 31.3586 47.0547 0.0000 0.0000 0.0000
# 2 31.3586 87.1498 47.0546 0.0000 0.0000 0.0000
# 3 47.0547 47.0546 177.5338 0.0000 0.0000 0.0000
# 4 0.0000 0.0000 0.0000 31.0587 0.0000 0.0000
# 5 0.0000 0.0000 0.0000 0.0000 31.0586 0.0000
# 6 0.0000 0.0000 0.0000 0.0000 0.0000 15.0314
#
#
#
# Elastic Compliance Matrix: (Units=1/GPa)
#
#
# Indices 1 2 3 4 5 6 
#
# 1 0.014306 -0.003618 -0.002833 0.000000 0.000000 0.000000
# 2 -0.003618 0.014306 -0.002833 0.000000 0.000000 0.000000
# 3 -0.002833 -0.002833 0.007134 0.000000 0.000000 0.000000
# 4 0.000000 0.000000 0.000000 0.032197 0.000000 0.000000
# 5 0.000000 0.000000 0.000000 0.000000 0.032197 0.000000
# 6 0.000000 0.000000 0.000000 0.000000 0.000000 0.066528
#
#
# Mechanical properties :
#
#
# Convention : Reuss Voigt Hill
#
# Bulk Modulus (GPa) = 58.21117 66.97439 62.59278
# Shear Modulus (GPa) = 26.18331 30.52078 28.35205
#
# Velocity S-wave (km/s) = 3.60368 3.89073 3.74995
# Velocity P-wave (km/s) = 6.79611 7.30766 7.05652
#
# Compressibility (1/GPa) = 0.01717883
#
# Stress axis : x y z
#
# Youngs Moduli (GPa) = 69.90170 69.90147 140.16712
#
# Poissons Ratio (x) = 0.25291 0.39706
# Poissons Ratio (y) = 0.25291 0.39706
# Poissons Ratio (z) = 0.19801 0.19801
#
# Static dielectric constant tensor:
#      x y z
#    x 1.774000 0.000000 0.000000 
#    y 0.000000 1.774000 0.000000 
#    z 0.000000 0.000000 1.733770 
# 
# From -- ./inp_files/3773.got.cif
#   From: 2010.05.17/outbox.cif.g08.bks.cpg/sg130_2_cif.got.tgz:3773.got - 2010.05.20 12:17:35.
