data_PCOD9565708
_publ_section_title
;
Structure prediction by ZEFSAII (Michael W. Deem and Ramdas Pophale) SiO2 
 PCOD9565708
Probable space group: P 4/N C C
;
_chemical_formula_sum "Si O2"
_cell_formula_units_Z 96
_cell_length_a 20.379627
_cell_length_b 20.379627
_cell_length_c 14.602740
_cell_angle_alpha 90.000000
_cell_angle_beta 90.000000
_cell_angle_gamma 90.000000
_cell_volume 6064.944273
_symmetry_space_group_name_H-M "P 4/N C C"
_symmetry_group_IT_number 130
_symmetry_cell_setting 'tetragonal'
loop_
_space_group_symop_operation_xyz
x,y,z
1/2-y,x,z
1/2-x,1/2-y,z
y,1/2-x,z
1/2+x,-y,1/2-z
-x,1/2+y,1/2-z
1/2+y,1/2+x,1/2-z
-y,-x,1/2-z
-x,-y,-z
1/2+y,-x,-z
1/2+x,1/2+y,-z
-y,1/2+x,-z
1/2-x,y,1/2+z
x,1/2-y,1/2+z
1/2-y,1/2-x,1/2+z
y,x,1/2+z
loop_
_atom_site_type_symbol
_atom_site_label
_atom_site_fract_x
_atom_site_fract_y
_atom_site_fract_z
Si Si1 0.141307 0.749794 0.729624
Si Si2 0.229986 0.854917 0.979236
Si Si3 0.034777 0.770597 0.380040
Si Si4 0.596530 0.825631 0.828750
Si Si5 0.203606 0.350765 0.871213
Si Si6 0.195308 0.411858 0.069345
O O1 0.185202 0.685202 0.750000
O O2 0.189227 0.810774 0.750000
O O3 0.124194 0.753196 0.623150
O O4 0.078497 0.750239 0.794158
O O5 0.295845 0.822564 0.021895
O O6 0.207727 0.914831 0.041828
O O7 0.981087 0.824220 0.349192
O O8 0.988669 0.711834 0.418020
O O9 0.611972 0.815293 0.722136
O O10 0.634232 0.886777 0.871748
O O11 0.621024 0.760534 0.884549
O O12 0.165914 0.281146 0.871076
O O13 0.188873 0.390095 0.964381
#
# Coordination Sequence:
#
# PCOD9565708 Si02
#       6
#    16  16  16  16  16  16
#     4  11  19  35  59  86 111 129 169 229 288 328
#     4  11  19  35  59  86 111 129 169 229 289 327
#     4  10  22  33  53  84 106 152 168 224 274 317
#     4  10  21  35  49  75 114 143 188 220 260 314
#     4  11  18  28  52  74  96 141 184 232 283 297
#     4  10  21  35  49  75 114 142 187 224 260 312
#
# _framework density 15.828670000000001
#
# number of rings (size 3 to 8) (size 9 to 14) (size 15 to 20)
#    1.000    0.500    6.667    1.000    2.333    0.333 
#    3.000    0.000    0.000    2.000    0.000    0.000 
#    0.000    0.000    0.000    0.000    0.000    0.000 
#
# Total GULP energy -534645.038759 kJ/mol
# GULP energy per Si atom -5569.219154 kJ/mol
# Density = 1.579264 g / cm^3
# Si number density = 15.828670 Si / 1000 Ang^3
#
#
#
# Elastic Constant Matrix: (Units=GPa)
#
#
# Indices 1 2 3 4 5 6 
#
# 1 61.8810 3.6171 8.8125 0.0000 0.0000 0.0000
# 2 3.6171 61.8790 8.8108 0.0000 0.0000 0.0000
# 3 8.8125 8.8108 119.5461 0.0000 0.0000 0.0000
# 4 0.0000 0.0000 0.0000 8.1342 0.0000 0.0000
# 5 0.0000 0.0000 0.0000 0.0000 8.1332 0.0000
# 6 0.0000 0.0000 0.0000 0.0000 0.0000 10.2037
#
#
#
# Elastic Compliance Matrix: (Units=1/GPa)
#
#
# Indices 1 2 3 4 5 6 
#
# 1 0.016370 -0.000793 -0.001148 0.000000 0.000000 0.000000
# 2 -0.000793 0.016370 -0.001148 0.000000 0.000000 0.000000
# 3 -0.001148 -0.001148 0.008534 0.000000 0.000000 0.000000
# 4 0.000000 0.000000 0.000000 0.122937 0.000000 0.000000
# 5 0.000000 0.000000 0.000000 0.000000 0.122953 0.000000
# 6 0.000000 0.000000 0.000000 0.000000 0.000000 0.098004
#
#
# Mechanical properties :
#
#
# Convention : Reuss Voigt Hill
#
# Bulk Modulus (GPa) = 28.49393 31.75411 30.12402
# Shear Modulus (GPa) = 12.40554 20.09861 16.25207
#
# Velocity S-wave (km/s) = 2.80257 3.56723 3.20777
# Velocity P-wave (km/s) = 5.33976 6.08864 5.72646
#
# Compressibility (1/GPa) = 0.03509520
#
# Stress axis : x y z
#
# Youngs Moduli (GPa) = 61.08752 61.08578 117.17518
#
# Poissons Ratio (x) = 0.04846 0.13455
# Poissons Ratio (y) = 0.04847 0.13452
# Poissons Ratio (z) = 0.07014 0.07013
#
# Static dielectric constant tensor:
#      x y z
#    x 1.516280 0.000000 0.000000 
#    y 0.000000 1.516280 0.000000 
#    z 0.000000 0.000000 1.534130 
# 
# From -- ./inp_files/2500.got.cif
#   From: 2010.05.17/outbox.cif.g08.bks.cpg/sg130_2_cif.got.tgz:2500.got - 2010.05.20 12:17:35.
