data_PCOD9565610
_publ_section_title
;
Structure prediction by ZEFSAII (Michael W. Deem and Ramdas Pophale) SiO2 
 PCOD9565610
Probable space group: P 4/N C C
;
_chemical_formula_sum "Si O2"
_cell_formula_units_Z 56
_cell_length_a 12.732768
_cell_length_b 12.732768
_cell_length_c 16.322852
_cell_angle_alpha 90.000000
_cell_angle_beta 90.000000
_cell_angle_gamma 90.000000
_cell_volume 2646.315953
_symmetry_space_group_name_H-M "P 4/N C C"
_symmetry_group_IT_number 130
_symmetry_cell_setting 'tetragonal'
loop_
_space_group_symop_operation_xyz
x,y,z
1/2-y,x,z
1/2-x,1/2-y,z
y,1/2-x,z
1/2+x,-y,1/2-z
-x,1/2+y,1/2-z
1/2+y,1/2+x,1/2-z
-y,-x,1/2-z
-x,-y,-z
1/2+y,-x,-z
1/2+x,1/2+y,-z
-y,1/2+x,-z
1/2-x,y,1/2+z
x,1/2-y,1/2+z
1/2-y,1/2-x,1/2+z
y,x,1/2+z
loop_
_atom_site_type_symbol
_atom_site_label
_atom_site_fract_x
_atom_site_fract_y
_atom_site_fract_z
Si Si1 0.630469 0.130823 0.622465
Si Si2 0.750000 0.250000 0.500000
Si Si3 0.904517 0.815806 0.605131
Si Si4 0.685438 0.593201 0.304050
Si Si5 0.750000 0.250000 0.250000
O O1 0.651653 0.218835 0.555184
O O2 0.726701 0.153325 0.687760
O O3 0.641594 0.017405 0.582615
O O4 0.645019 0.017892 0.836017
O O5 0.803875 0.883158 0.578564
O O6 0.905678 0.817153 0.704894
O O7 0.805697 0.616679 0.329958
#
# Coordination Sequence:
#
# PCOD9565610 Si02
#       5
#    16   4  16  16   4
#     4  11  20  40  54  84 111 157 183 238 284 326
#     4  10  28  38  52  78 128 142 200 238 268 338
#     4   9  18  34  59  91 117 140 185 240 287 340
#     4   9  18  34  59  91 117 140 185 240 287 340
#     4  10  20  30  56  82 100 132 204 220 268 346
#
# _framework density 21.161494000000001
#
# number of rings (size 3 to 8) (size 9 to 14) (size 15 to 20)
#    0.000    2.286    2.857    1.714    0.000    4.571 
#    0.000    5.714    0.000    3.429    0.000    0.000 
#    0.000    0.000    0.000    0.000    0.000    0.000 
#
# Total GULP energy -311982.779397 kJ/mol
# GULP energy per Si atom -5571.121061 kJ/mol
# Density = 2.111333 g / cm^3
# Si number density = 21.161494 Si / 1000 Ang^3
#
#
#
# Elastic Constant Matrix: (Units=GPa)
#
#
# Indices 1 2 3 4 5 6 
#
# 1 89.3179 39.9582 -5.5770 0.0000 0.0000 0.0000
# 2 39.9582 89.3179 -5.5770 0.0000 0.0000 0.0000
# 3 -5.5770 -5.5770 7.4430 0.0000 0.0000 0.0000
# 4 0.0000 0.0000 0.0000 8.2694 0.0000 0.0000
# 5 0.0000 0.0000 0.0000 0.0000 8.2694 0.0000
# 6 0.0000 0.0000 0.0000 0.0000 0.0000 15.7261
#
#
#
# Elastic Compliance Matrix: (Units=1/GPa)
#
#
# Indices 1 2 3 4 5 6 
#
# 1 0.014265 -0.005995 0.006197 0.000000 0.000000 0.000000
# 2 -0.005995 0.014265 0.006197 0.000000 0.000000 0.000000
# 3 0.006197 0.006197 0.143641 0.000000 0.000000 0.000000
# 4 0.000000 0.000000 0.000000 0.120927 0.000000 0.000000
# 5 0.000000 0.000000 0.000000 0.000000 0.120927 0.000000
# 6 0.000000 0.000000 0.000000 0.000000 0.000000 0.063589
#
#
# Mechanical properties :
#
#
# Convention : Reuss Voigt Hill
#
# Bulk Modulus (GPa) = 5.40634 27.07637 16.24136
# Shear Modulus (GPa) = 9.49717 16.93794 13.21755
#
# Velocity S-wave (km/s) = 2.12078 2.83223 2.50192
# Velocity P-wave (km/s) = 2.92528 4.84956 4.00472
#
# Compressibility (1/GPa) = 0.18496796
#
# Stress axis : x y z
#
# Youngs Moduli (GPa) = 70.10289 70.10289 6.96179
#
# Poissons Ratio (x) = 0.42025 -0.04314
# Poissons Ratio (y) = 0.42025 -0.04314
# Poissons Ratio (z) = -0.43440 -0.43440
#
# Static dielectric constant tensor:
#      x y z
#    x 1.742920 0.000000 0.000000 
#    y 0.000000 1.742920 0.000000 
#    z 0.000000 0.000000 1.820840 
# 
# From -- ./inp_files/2797.got.cif
#   From: 2010.05.17/outbox.cif.g08.bks.cpg/sg130_2_cif.got.tgz:2797.got - 2010.05.20 12:17:35.
