data_PCOD9565861
_publ_section_title
;
Structure prediction by ZEFSAII (Michael W. Deem and Ramdas Pophale) SiO2 
 PCOD9565861
Probable space group: P 4/N C C
;
_chemical_formula_sum "Si O2"
_cell_formula_units_Z 60
_cell_length_a 16.648936
_cell_length_b 16.648936
_cell_length_c 9.005682
_cell_angle_alpha 90.000000
_cell_angle_beta 90.000000
_cell_angle_gamma 90.000000
_cell_volume 2496.258606
_symmetry_space_group_name_H-M "P 4/N C C"
_symmetry_group_IT_number 130
_symmetry_cell_setting 'tetragonal'
loop_
_space_group_symop_operation_xyz
x,y,z
1/2-y,x,z
1/2-x,1/2-y,z
y,1/2-x,z
1/2+x,-y,1/2-z
-x,1/2+y,1/2-z
1/2+y,1/2+x,1/2-z
-y,-x,1/2-z
-x,-y,-z
1/2+y,-x,-z
1/2+x,1/2+y,-z
-y,1/2+x,-z
1/2-x,y,1/2+z
x,1/2-y,1/2+z
1/2-y,1/2-x,1/2+z
y,x,1/2+z
loop_
_atom_site_type_symbol
_atom_site_label
_atom_site_fract_x
_atom_site_fract_y
_atom_site_fract_z
Si Si1 0.846986 0.346986 0.250000
Si Si2 0.693799 0.531318 0.688336
Si Si3 0.126284 0.526329 0.321330
Si Si4 0.250000 0.750000 0.500000
Si Si5 0.908072 0.921677 0.931782
O O1 0.836225 0.440759 0.216731
O O2 0.797488 0.312592 0.392701
O O3 0.786988 0.514049 0.666825
O O4 0.673750 0.581910 0.836560
O O5 0.647511 0.572496 0.551116
O O6 0.115150 0.615150 0.250000
O O7 0.091406 0.506289 0.481672
O O8 0.082890 0.474398 0.195057
#
# Coordination Sequence:
#
# PCOD9565861 Si02
#       5
#     8  16  16   4  16
#     4  11  28  42  72 102 150 200 231 286 366 450
#     4  11  26  43  71 101 141 192 240 300 364 431
#     4  11  24  41  73 102 140 184 239 306 367 449
#     4  10  28  50  60 114 168 190 228 286 388 474
#     4  10  25  44  66 105 144 183 248 304 363 434
#
# _framework density 24.035969999999999
#
# number of rings (size 3 to 8) (size 9 to 14) (size 15 to 20)
#    0.000    1.333    0.000    2.400   22.400    0.000 
#    0.000    0.000    0.000   56.000    0.000    0.000 
#    0.000    0.000    0.000    0.000    0.000    0.000 
#
# Total GULP energy -335254.835427 kJ/mol
# GULP energy per Si atom -5587.580590 kJ/mol
# Density = 2.398126 g / cm^3
# Si number density = 24.035970 Si / 1000 Ang^3
#
#
#
# Elastic Constant Matrix: (Units=GPa)
#
#
# Indices 1 2 3 4 5 6 
#
# 1 85.5123 44.8743 49.1206 0.0000 0.0000 0.0000
# 2 44.8743 85.5123 49.1206 0.0000 0.0000 0.0000
# 3 49.1206 49.1206 173.4232 0.0000 0.0000 0.0000
# 4 0.0000 0.0000 0.0000 29.7989 0.0000 0.0000
# 5 0.0000 0.0000 0.0000 0.0000 29.7989 0.0000
# 6 0.0000 0.0000 0.0000 0.0000 0.0000 34.4635
#
#
#
# Elastic Compliance Matrix: (Units=1/GPa)
#
#
# Indices 1 2 3 4 5 6 
#
# 1 0.017179 -0.007429 -0.002762 0.000000 0.000000 0.000000
# 2 -0.007429 0.017179 -0.002762 0.000000 0.000000 0.000000
# 3 -0.002762 -0.002762 0.007331 0.000000 0.000000 0.000000
# 4 0.000000 0.000000 0.000000 0.033558 0.000000 0.000000
# 5 0.000000 0.000000 0.000000 0.000000 0.033558 0.000000
# 6 0.000000 0.000000 0.000000 0.000000 0.000000 0.029016
#
#
# Mechanical properties :
#
#
# Convention : Reuss Voigt Hill
#
# Bulk Modulus (GPa) = 63.35302 70.07544 66.71423
# Shear Modulus (GPa) = 29.58812 32.23443 30.91128
#
# Velocity S-wave (km/s) = 3.51236 3.66606 3.59003
# Velocity P-wave (km/s) = 6.54704 6.86569 6.70826
#
# Compressibility (1/GPa) = 0.01578457
#
# Stress axis : x y z
#
# Youngs Moduli (GPa) = 58.21088 58.21088 136.41279
#
# Poissons Ratio (x) = 0.43243 0.37673
# Poissons Ratio (y) = 0.43243 0.37673
# Poissons Ratio (z) = 0.16076 0.16076
#
# Static dielectric constant tensor:
#      x y z
#    x 2.048200 0.000000 0.000000 
#    y 0.000000 2.048200 0.000000 
#    z 0.000000 0.000000 1.954290 
# 
# From -- ./inp_files/645.got.cif
#   From: 2010.05.17/outbox.cif.g08.bks.cpg/sg130_1_cif.got.tgz:645.got - 2010.05.20 12:17:35.
