data_PCOD9565756
_publ_section_title
;
Structure prediction by ZEFSAII (Michael W. Deem and Ramdas Pophale) SiO2 
 PCOD9565756
Probable space group: P 4/N C C
;
_chemical_formula_sum "Si O2"
_cell_formula_units_Z 60
_cell_length_a 17.499921
_cell_length_b 17.499921
_cell_length_c 7.360104
_cell_angle_alpha 90.000000
_cell_angle_beta 90.000000
_cell_angle_gamma 90.000000
_cell_volume 2254.011499
_symmetry_space_group_name_H-M "P 4/N C C"
_symmetry_group_IT_number 130
_symmetry_cell_setting 'tetragonal'
loop_
_space_group_symop_operation_xyz
x,y,z
1/2-y,x,z
1/2-x,1/2-y,z
y,1/2-x,z
1/2+x,-y,1/2-z
-x,1/2+y,1/2-z
1/2+y,1/2+x,1/2-z
-y,-x,1/2-z
-x,-y,-z
1/2+y,-x,-z
1/2+x,1/2+y,-z
-y,1/2+x,-z
1/2-x,y,1/2+z
x,1/2-y,1/2+z
1/2-y,1/2-x,1/2+z
y,x,1/2+z
loop_
_atom_site_type_symbol
_atom_site_label
_atom_site_fract_x
_atom_site_fract_y
_atom_site_fract_z
Si Si1 0.079818 0.920183 0.750000
Si Si2 0.953702 0.639232 0.504215
Si Si3 0.079152 0.304236 0.140861
Si Si4 0.250000 0.250000 0.239878
Si Si5 0.648608 0.178366 0.043353
O O1 0.086787 0.853713 0.597494
O O2 0.005828 0.910777 0.874250
O O3 0.955114 0.725960 0.429949
O O4 0.868644 0.603882 0.501266
O O5 0.973166 0.652791 0.713349
O O6 0.159893 0.276854 0.230129
O O7 0.649433 0.149433 0.250000
O O8 0.650942 0.269991 0.040650
#
# Coordination Sequence:
#
# PCOD9565756 Si02
#       5
#     8  16  16   4  16
#     4  12  28  43  68 110 142 181 236 284 360 434
#     4  11  25  43  70 102 142 183 239 282 351 419
#     4  10  21  42  69 100 140 185 227 292 343 408
#     4   8  16  34  68 102 120 170 248 270 316 418
#     4  11  21  41  69  96 131 180 246 302 338 399
#
# _framework density 26.619209000000001
#
# number of rings (size 3 to 8) (size 9 to 14) (size 15 to 20)
#    0.000    1.333    2.667    4.000    3.733    5.333 
#    4.800    0.000    0.000    0.000    0.000    0.000 
#    0.000    0.000    0.000    0.000    0.000    0.000 
#
# Total GULP energy -335179.292913 kJ/mol
# GULP energy per Si atom -5586.321549 kJ/mol
# Density = 2.655862 g / cm^3
# Si number density = 26.619209 Si / 1000 Ang^3
#
#
#
# Elastic Constant Matrix: (Units=GPa)
#
#
# Indices 1 2 3 4 5 6 
#
# 1 91.3399 1.0922 -5.7745 0.0000 0.0000 0.0000
# 2 1.0922 91.3376 -5.7750 0.0000 0.0000 0.0000
# 3 -5.7745 -5.7750 97.7189 0.0000 0.0000 0.0000
# 4 0.0000 0.0000 0.0000 16.6581 0.0000 0.0000
# 5 0.0000 0.0000 0.0000 0.0000 16.6572 0.0000
# 6 0.0000 0.0000 0.0000 0.0000 0.0000 27.1242
#
#
#
# Elastic Compliance Matrix: (Units=1/GPa)
#
#
# Indices 1 2 3 4 5 6 
#
# 1 0.010990 -0.000091 0.000644 0.000000 0.000000 0.000000
# 2 -0.000091 0.010990 0.000644 0.000000 0.000000 0.000000
# 3 0.000644 0.000644 0.010310 0.000000 0.000000 0.000000
# 4 0.000000 0.000000 0.000000 0.060031 0.000000 0.000000
# 5 0.000000 0.000000 0.000000 0.000000 0.060034 0.000000
# 6 0.000000 0.000000 0.000000 0.000000 0.000000 0.036867
#
#
# Mechanical properties :
#
#
# Convention : Reuss Voigt Hill
#
# Bulk Modulus (GPa) = 28.83114 28.83131 28.83123
# Shear Modulus (GPa) = 25.20306 31.47816 28.34061
#
# Velocity S-wave (km/s) = 3.08035 3.44253 3.26646
# Velocity P-wave (km/s) = 4.84829 5.16294 5.00808
#
# Compressibility (1/GPa) = 0.03468471
#
# Stress axis : x y z
#
# Youngs Moduli (GPa) = 90.99251 90.99009 96.99737
#
# Poissons Ratio (x) = 0.00825 -0.06247
# Poissons Ratio (y) = 0.00825 -0.06248
# Poissons Ratio (z) = -0.05860 -0.05861
#
# Static dielectric constant tensor:
#      x y z
#    x 2.067430 0.000000 0.000000 
#    y 0.000000 2.067430 0.000000 
#    z 0.000000 0.000000 2.091500 
# 
# From -- ./inp_files/628.got.cif
#   From: 2010.05.17/outbox.cif.g08.bks.cpg/sg130_1_cif.got.tgz:628.got - 2010.05.20 12:17:35.
