data_PCOD9565943
_publ_section_title
;
Structure prediction by ZEFSAII (Michael W. Deem and Ramdas Pophale) SiO2 
 PCOD9565943
Probable space group: P 4/N C C
;
_chemical_formula_sum "Si O2"
_cell_formula_units_Z 116
_cell_length_a 17.138509
_cell_length_b 17.138509
_cell_length_c 16.555304
_cell_angle_alpha 90.000000
_cell_angle_beta 90.000000
_cell_angle_gamma 90.000000
_cell_volume 4862.764458
_symmetry_space_group_name_H-M "P 4/N C C"
_symmetry_group_IT_number 130
_symmetry_cell_setting 'tetragonal'
loop_
_space_group_symop_operation_xyz
x,y,z
1/2-y,x,z
1/2-x,1/2-y,z
y,1/2-x,z
1/2+x,-y,1/2-z
-x,1/2+y,1/2-z
1/2+y,1/2+x,1/2-z
-y,-x,1/2-z
-x,-y,-z
1/2+y,-x,-z
1/2+x,1/2+y,-z
-y,1/2+x,-z
1/2-x,y,1/2+z
x,1/2-y,1/2+z
1/2-y,1/2-x,1/2+z
y,x,1/2+z
loop_
_atom_site_type_symbol
_atom_site_label
_atom_site_fract_x
_atom_site_fract_y
_atom_site_fract_z
Si Si1 0.960776 0.643879 0.887693
Si Si2 0.525059 0.902784 0.279943
Si Si3 0.860086 0.895256 0.057271
Si Si4 0.809250 0.180582 0.345763
Si Si5 0.887062 0.032351 0.599701
Si Si6 0.276080 0.523019 0.851144
Si Si7 0.028522 0.692932 0.424542
Si Si8 0.750000 0.750000 0.081148
O O1 0.041751 0.593411 0.894664
O O2 0.970585 0.736340 0.901696
O O3 0.921796 0.614014 0.804484
O O4 0.904468 0.622126 0.962673
O O5 0.507767 0.828321 0.223424
O O6 0.486547 0.879329 0.365059
O O7 0.478638 0.978638 0.250000
O O8 0.941840 0.913868 0.101799
O O9 0.797406 0.960476 0.081178
O O10 0.824077 0.812018 0.078210
O O11 0.750000 0.250000 0.353933
O O12 0.827339 0.172662 0.250000
O O13 0.893867 0.194512 0.382274
O O14 0.771797 0.108898 0.391066
O O15 0.815832 0.037186 0.664008
O O16 0.840998 0.038719 0.514027
#
# Coordination Sequence:
#
# PCOD9565943 Si02
#       8
#    16  16  16  16  16  16  16   4
#     4  12  27  46  74 115 145 200 258 317 395 472
#     4  12  26  47  72 102 150 199 250 310 389 462
#     4  12  24  47  75 106 147 194 253 313 391 465
#     4  11  23  43  68  96 144 196 233 302 385 465
#     4  12  26  43  77 109 151 194 253 320 380 475
#     4  12  23  46  71 108 146 195 245 317 383 461
#     4  12  23  45  69 106 147 192 247 314 378 468
#     4  12  24  48  76 106 148 196 252 310 396 456
#
# _framework density 23.854744
#
# number of rings (size 3 to 8) (size 9 to 14) (size 15 to 20)
#    0.000    0.138    6.897    2.897    0.000    2.207 
#    2.483    0.000    0.000    0.828    0.000    0.000 
#    0.000    0.000    0.000    0.000    0.000    0.000 
#
# Total GULP energy -647303.091021 kJ/mol
# GULP energy per Si atom -5580.199061 kJ/mol
# Density = 2.380045 g / cm^3
# Si number density = 23.854744 Si / 1000 Ang^3
#
#
#
# Elastic Constant Matrix: (Units=GPa)
#
#
# Indices 1 2 3 4 5 6 
#
# 1 83.1772 -1.7486 6.0882 0.0000 0.0000 0.0000
# 2 -1.7486 83.1775 6.0884 0.0000 0.0000 0.0000
# 3 6.0882 6.0884 62.9765 0.0000 0.0000 0.0000
# 4 0.0000 0.0000 0.0000 12.2022 0.0000 0.0000
# 5 0.0000 0.0000 0.0000 0.0000 12.2022 0.0000
# 6 0.0000 0.0000 0.0000 0.0000 0.0000 47.5990
#
#
#
# Elastic Compliance Matrix: (Units=1/GPa)
#
#
# Indices 1 2 3 4 5 6 
#
# 1 0.012118 0.000343 -0.001205 0.000000 0.000000 0.000000
# 2 0.000343 0.012118 -0.001205 0.000000 0.000000 0.000000
# 3 -0.001205 -0.001205 0.016112 0.000000 0.000000 0.000000
# 4 0.000000 0.000000 0.000000 0.081952 0.000000 0.000000
# 5 0.000000 0.000000 0.000000 0.000000 0.081953 0.000000
# 6 0.000000 0.000000 0.000000 0.000000 0.000000 0.021009
#
#
# Mechanical properties :
#
#
# Convention : Reuss Voigt Hill
#
# Bulk Modulus (GPa) = 27.61295 27.79855 27.70575
# Shear Modulus (GPa) = 20.70685 28.99423 24.85054
#
# Velocity S-wave (km/s) = 2.94945 3.49011 3.23111
# Velocity P-wave (km/s) = 4.81659 5.28391 5.05566
#
# Compressibility (1/GPa) = 0.03621489
#
# Stress axis : x y z
#
# Youngs Moduli (GPa) = 82.52249 82.52275 62.06604
#
# Poissons Ratio (x) = -0.02830 0.07477
# Poissons Ratio (y) = -0.02830 0.07477
# Poissons Ratio (z) = 0.09941 0.09941
#
# Static dielectric constant tensor:
#      x y z
#    x 1.958240 0.000000 0.000000 
#    y 0.000000 1.958240 0.000000 
#    z 0.000000 0.000000 2.026050 
# 
# From -- ./inp_files/3230.got.cif
#   From: 2010.05.17/outbox.cif.g08.bks.cpg/sg130_2_cif.got.tgz:3230.got - 2010.05.20 12:17:35.
