data_PCOD9565645
_publ_section_title
;
Structure prediction by ZEFSAII (Michael W. Deem and Ramdas Pophale) SiO2 
 PCOD9565645
Probable space group: P 4/N C C
;
_chemical_formula_sum "Si O2"
_cell_formula_units_Z 96
_cell_length_a 24.602076
_cell_length_b 24.602076
_cell_length_c 8.643868
_cell_angle_alpha 90.000000
_cell_angle_beta 90.000000
_cell_angle_gamma 90.000000
_cell_volume 5231.806074
_symmetry_space_group_name_H-M "P 4/N C C"
_symmetry_group_IT_number 130
_symmetry_cell_setting 'tetragonal'
loop_
_space_group_symop_operation_xyz
x,y,z
1/2-y,x,z
1/2-x,1/2-y,z
y,1/2-x,z
1/2+x,-y,1/2-z
-x,1/2+y,1/2-z
1/2+y,1/2+x,1/2-z
-y,-x,1/2-z
-x,-y,-z
1/2+y,-x,-z
1/2+x,1/2+y,-z
-y,1/2+x,-z
1/2-x,y,1/2+z
x,1/2-y,1/2+z
1/2-y,1/2-x,1/2+z
y,x,1/2+z
loop_
_atom_site_type_symbol
_atom_site_label
_atom_site_fract_x
_atom_site_fract_y
_atom_site_fract_z
Si Si1 0.022042 0.104093 0.935952
Si Si2 0.810038 0.892342 0.065172
Si Si3 0.396109 0.896109 0.936226
Si Si4 0.022043 0.395907 0.064049
Si Si5 0.689914 0.189914 0.565174
Si Si6 0.392342 0.310037 0.065172
O O1 0.026589 0.103274 0.750000
O O2 0.059006 0.151862 0.004671
O O3 0.959304 0.113398 0.977107
O O4 0.048396 0.048397 0.000001
O O5 0.810271 0.891467 0.250000
O O6 0.837818 0.837818 0.000000
O O7 0.750000 0.898627 1.000000
O O8 0.848138 0.940994 0.004671
O O9 0.390849 0.890849 0.750000
O O10 0.459305 0.886603 0.977107
O O11 0.354400 0.854400 0.013217
O O12 0.692657 0.192657 0.750000
O O13 0.676110 0.250000 0.500000
#
# Coordination Sequence:
#
# PCOD9565645 Si02
#       6
#    16  16  16  16  16  16
#     4  10  20  36  57  83 116 152 187 231 280 330
#     4  11  22  38  58  82 112 148 189 234 282 334
#     4  10  22  38  59  87 117 149 190 230 273 332
#     4  10  20  36  57  83 116 152 187 231 280 330
#     4  11  23  41  64  85 113 147 183 229 282 335
#     4  11  22  38  58  82 112 148 189 234 282 334
#
# _framework density 18.349302999999999
#
# number of rings (size 3 to 8) (size 9 to 14) (size 15 to 20)
#    0.000    1.500    0.000    8.500    0.000    4.333 
#    0.000    1.667    0.000    0.000    0.000    0.000 
#    0.000    0.000    0.000    0.000    0.000    0.000 
#
# Total GULP energy -536499.943347 kJ/mol
# GULP energy per Si atom -5588.541077 kJ/mol
# Density = 1.830754 g / cm^3
# Si number density = 18.349303 Si / 1000 Ang^3
#
#
#
# Elastic Constant Matrix: (Units=GPa)
#
#
# Indices 1 2 3 4 5 6 
#
# 1 144.7245 94.7764 70.0733 0.0000 0.0000 0.0000
# 2 94.7764 144.7245 70.0733 0.0000 0.0000 0.0000
# 3 70.0733 70.0733 139.3100 0.0000 0.0000 0.0000
# 4 0.0000 0.0000 0.0000 30.2362 0.0000 0.0000
# 5 0.0000 0.0000 0.0000 0.0000 30.2362 0.0000
# 6 0.0000 0.0000 0.0000 0.0000 0.0000 25.1735
#
#
#
# Elastic Compliance Matrix: (Units=1/GPa)
#
#
# Indices 1 2 3 4 5 6 
#
# 1 0.012969 -0.007052 -0.002976 0.000000 0.000000 0.000000
# 2 -0.007052 0.012969 -0.002976 0.000000 0.000000 0.000000
# 3 -0.002976 -0.002976 0.010172 0.000000 0.000000 0.000000
# 4 0.000000 0.000000 0.000000 0.033073 0.000000 0.000000
# 5 0.000000 0.000000 0.000000 0.000000 0.033073 0.000000
# 6 0.000000 0.000000 0.000000 0.000000 0.000000 0.039724
#
#
# Mechanical properties :
#
#
# Convention : Reuss Voigt Hill
#
# Bulk Modulus (GPa) = 98.99745 99.84501 99.42123
# Shear Modulus (GPa) = 29.17900 30.05158 29.61529
#
# Velocity S-wave (km/s) = 3.99205 4.05130 4.02179
# Velocity P-wave (km/s) = 8.67856 8.74161 8.71014
#
# Compressibility (1/GPa) = 0.01010127
#
# Stress axis : x y z
#
# Youngs Moduli (GPa) = 77.10784 77.10784 98.30583
#
# Poissons Ratio (x) = 0.54376 0.29258
# Poissons Ratio (y) = 0.54376 0.29258
# Poissons Ratio (z) = 0.22949 0.22949
#
# Static dielectric constant tensor:
#      x y z
#    x 1.616090 0.000000 0.000000 
#    y 0.000000 1.616090 0.000000 
#    z 0.000000 0.000000 1.612770 
# 
# From -- ./inp_files/936.got.cif
#   From: 2010.05.17/outbox.cif.g08.bks.cpg/sg130_1_cif.got.tgz:936.got - 2010.05.20 12:17:35.
