data_PCOD9565672
_publ_section_title
;
Structure prediction by ZEFSAII (Michael W. Deem and Ramdas Pophale) SiO2 
 PCOD9565672
Probable space group: P 4/N C C
;
_chemical_formula_sum "Si O2"
_cell_formula_units_Z 72
_cell_length_a 20.783297
_cell_length_b 20.783297
_cell_length_c 8.626451
_cell_angle_alpha 90.000000
_cell_angle_beta 90.000000
_cell_angle_gamma 90.000000
_cell_volume 3726.156123
_symmetry_space_group_name_H-M "P 4/N C C"
_symmetry_group_IT_number 130
_symmetry_cell_setting 'tetragonal'
loop_
_space_group_symop_operation_xyz
x,y,z
1/2-y,x,z
1/2-x,1/2-y,z
y,1/2-x,z
1/2+x,-y,1/2-z
-x,1/2+y,1/2-z
1/2+y,1/2+x,1/2-z
-y,-x,1/2-z
-x,-y,-z
1/2+y,-x,-z
1/2+x,1/2+y,-z
-y,1/2+x,-z
1/2-x,y,1/2+z
x,1/2-y,1/2+z
1/2-y,1/2-x,1/2+z
y,x,1/2+z
loop_
_atom_site_type_symbol
_atom_site_label
_atom_site_fract_x
_atom_site_fract_y
_atom_site_fract_z
Si Si1 0.111558 0.306730 0.723143
Si Si2 0.750000 0.750000 0.861634
Si Si3 0.325522 0.427229 0.386641
Si Si4 0.068834 0.669724 0.679205
Si Si5 0.707779 0.378848 0.349301
Si Si6 0.750000 0.250000 0.000000
O O1 0.178121 0.281744 0.647354
O O2 0.069351 0.324510 0.573531
O O3 0.131021 0.367536 0.828754
O O4 0.085297 0.247554 0.825607
O O5 0.348356 0.494132 0.313250
O O6 0.116608 0.616608 0.750000
O O7 0.087228 0.681509 0.501074
O O8 0.079908 0.739218 0.759699
O O9 0.648602 0.351399 0.250000
O O10 0.746063 0.314638 0.401942
#
# Coordination Sequence:
#
# PCOD9565672 Si02
#       6
#    16   4  16  16  16   4
#     4  10  20  38  60  94 118 153 198 247 319 352
#     4   8  16  30  60  86 112 134 180 254 300 350
#     4  11  23  38  64  88 123 155 198 258 299 368
#     4  12  23  39  58  91 123 161 203 241 303 367
#     4  12  21  35  60  88 122 155 200 260 311 354
#     4  12  18  32  58  88 114 148 194 264 314 336
#
# _framework density 19.322863000000002
#
# number of rings (size 3 to 8) (size 9 to 14) (size 15 to 20)
#    0.000    0.889    4.444    4.333    0.000    3.556 
#    0.000    3.333    0.000    1.333    0.000    0.000 
#    0.000    0.000    0.000    0.000    0.000    0.000 
#
# Total GULP energy -401169.687928 kJ/mol
# GULP energy per Si atom -5571.801221 kJ/mol
# Density = 1.927888 g / cm^3
# Si number density = 19.322863 Si / 1000 Ang^3
#
#
#
# Elastic Constant Matrix: (Units=GPa)
#
#
# Indices 1 2 3 4 5 6 
#
# 1 74.9390 23.0348 19.8675 0.0000 0.0000 0.0000
# 2 23.0348 74.9386 19.8685 0.0000 0.0000 0.0000
# 3 19.8675 19.8685 95.9194 0.0000 0.0000 0.0000
# 4 0.0000 0.0000 0.0000 10.9556 0.0000 0.0000
# 5 0.0000 0.0000 0.0000 0.0000 10.9576 0.0000
# 6 0.0000 0.0000 0.0000 0.0000 0.0000 16.3387
#
#
#
# Elastic Compliance Matrix: (Units=1/GPa)
#
#
# Indices 1 2 3 4 5 6 
#
# 1 0.015205 -0.004062 -0.002308 0.000000 0.000000 0.000000
# 2 -0.004062 0.015205 -0.002308 0.000000 0.000000 0.000000
# 3 -0.002308 -0.002308 0.011382 0.000000 0.000000 0.000000
# 4 0.000000 0.000000 0.000000 0.091277 0.000000 0.000000
# 5 0.000000 0.000000 0.000000 0.000000 0.091261 0.000000
# 6 0.000000 0.000000 0.000000 0.000000 0.000000 0.061204
#
#
# Mechanical properties :
#
#
# Convention : Reuss Voigt Hill
#
# Bulk Modulus (GPa) = 40.92459 41.25984 41.09222
# Shear Modulus (GPa) = 16.07541 19.85214 17.96377
#
# Velocity S-wave (km/s) = 2.88746 3.20877 3.05235
# Velocity P-wave (km/s) = 5.68700 5.92685 5.80816
#
# Compressibility (1/GPa) = 0.02443519
#
# Stress axis : x y z
#
# Youngs Moduli (GPa) = 65.76977 65.76907 87.86137
#
# Poissons Ratio (x) = 0.26713 0.20278
# Poissons Ratio (y) = 0.26714 0.20280
# Poissons Ratio (z) = 0.15179 0.15181
#
# Static dielectric constant tensor:
#      x y z
#    x 1.673560 0.000000 0.000000 
#    y 0.000000 1.673560 0.000000 
#    z 0.000000 0.000000 1.716560 
# 
# From -- ./inp_files/807.got.cif
#   From: 2010.05.17/outbox.cif.g08.bks.cpg/sg130_1_cif.got.tgz:807.got - 2010.05.20 12:17:35.
