data_PCOD9565249
_publ_section_title
;
Structure prediction by ZEFSAII (Michael W. Deem and Ramdas Pophale) SiO2 
 PCOD9565249
Probable space group: P 4/N M M
;
_chemical_formula_sum "Si O2"
_cell_formula_units_Z 96
_cell_length_a 18.225008
_cell_length_b 18.225008
_cell_length_c 17.646338
_cell_angle_alpha 90.000000
_cell_angle_beta 90.000000
_cell_angle_gamma 90.000000
_cell_volume 5861.247341
_symmetry_space_group_name_H-M "P 4/N M M"
_symmetry_group_IT_number 129
_symmetry_cell_setting 'tetragonal'
loop_
_space_group_symop_operation_xyz
x,y,z
1/2-y,x,z
1/2-x,1/2-y,z
y,1/2-x,z
1/2+x,-y,-z
-x,1/2+y,-z
1/2+y,1/2+x,-z
-y,-x,-z
-x,-y,-z
1/2+y,-x,-z
1/2+x,1/2+y,-z
-y,1/2+x,-z
1/2-x,y,z
x,1/2-y,z
1/2-y,1/2-x,z
y,x,z
loop_
_atom_site_type_symbol
_atom_site_label
_atom_site_fract_x
_atom_site_fract_y
_atom_site_fract_z
Si Si1 0.837079 0.446296 0.321592
Si Si2 0.336160 0.044836 0.533656
Si Si3 0.835876 0.542095 0.870728
Si Si4 0.165596 0.594051 0.433323
Si Si5 0.955741 0.835353 0.053325
Si Si6 0.548030 0.076335 0.833115
O O1 0.750000 0.431409 0.317441
O O2 0.846690 0.512775 0.381505
O O3 0.880364 0.380721 0.362367
O O4 0.871793 0.457206 0.239773
O O5 0.250000 0.057769 0.523481
O O6 0.384187 0.115814 0.522282
O O7 0.358763 0.981403 0.474064
O O8 0.750000 0.549137 0.848378
O O9 0.887299 0.612702 0.850069
O O10 0.875902 0.468433 0.840674
O O11 0.838195 0.536932 0.962422
O O12 0.153459 0.653459 0.500000
O O13 0.250000 0.587129 0.413848
O O14 0.949883 0.750000 0.075998
O O15 0.883192 0.883192 0.073149
O O16 0.023760 0.875516 0.094277
O O17 0.486971 0.013030 0.826259
#
# Coordination Sequence:
#
# PCOD9565249 Si02
#       6
#    16  16  16  16  16  16
#     4  10  20  31  46  70  96 123 155 190 229 272
#     4   9  18  32  49  70  95 122 154 190 229 275
#     4   9  18  32  50  72  95 121 157 199 243 290
#     4   9  18  31  47  67  90 117 149 186 227 270
#     4   9  17  30  49  71  96 126 158 196 240 284
#     4  10  19  31  48  69  95 128 162 194 231 280
#
# _framework density 16.378765999999999
#
# number of rings (size 3 to 8) (size 9 to 14) (size 15 to 20)
#    0.000    2.667    0.000    3.000    0.000    8.000 
#    0.000    1.667    0.000    1.500    0.000    7.000 
#    0.000    2.667    0.000    0.000    0.000    0.000 
#
# Total GULP energy -534679.042247 kJ/mol
# GULP energy per Si atom -5569.573357 kJ/mol
# Density = 1.634149 g / cm^3
# Si number density = 16.378766 Si / 1000 Ang^3
#
#
#
# Elastic Constant Matrix: (Units=GPa)
#
#
# Indices 1 2 3 4 5 6 
#
# 1 73.3745 53.3671 9.2194 0.0000 0.0000 0.0000
# 2 53.3671 73.3745 9.2194 0.0000 0.0000 0.0000
# 3 9.2194 9.2194 18.9587 0.0000 0.0000 0.0000
# 4 0.0000 0.0000 0.0000 15.8650 0.0000 0.0000
# 5 0.0000 0.0000 0.0000 0.0000 15.8650 0.0000
# 6 0.0000 0.0000 0.0000 0.0000 0.0000 31.2542
#
#
#
# Elastic Compliance Matrix: (Units=1/GPa)
#
#
# Indices 1 2 3 4 5 6 
#
# 1 0.029236 -0.020745 -0.004129 0.000000 0.000000 0.000000
# 2 -0.020745 0.029236 -0.004129 0.000000 0.000000 0.000000
# 3 -0.004129 -0.004129 0.056762 0.000000 0.000000 0.000000
# 4 0.000000 0.000000 0.000000 0.063032 0.000000 0.000000
# 5 0.000000 0.000000 0.000000 0.000000 0.063032 0.000000
# 6 0.000000 0.000000 0.000000 0.000000 0.000000 0.031996
#
#
# Mechanical properties :
#
#
# Convention : Reuss Voigt Hill
#
# Bulk Modulus (GPa) = 17.47406 34.36883 25.92145
# Shear Modulus (GPa) = 14.27038 18.85696 16.56367
#
# Velocity S-wave (km/s) = 2.95494 3.39677 3.18353
# Velocity P-wave (km/s) = 4.72589 6.03435 5.41975
#
# Compressibility (1/GPa) = 0.05722769
#
# Stress axis : x y z
#
# Youngs Moduli (GPa) = 34.20425 34.20425 17.61742
#
# Poissons Ratio (x) = 0.70958 0.07274
# Poissons Ratio (y) = 0.70958 0.07274
# Poissons Ratio (z) = 0.14123 0.14123
#
# Static dielectric constant tensor:
#      x y z
#    x 1.550410 0.000000 0.000000 
#    y 0.000000 1.550410 0.000000 
#    z 0.000000 0.000000 1.555550 
# 
# From -- ./inp_files/5667.got.cif
#   From: 2010.05.17/outbox.cif.g08.bks.cpg/sg129_3_cif.got.tgz:5667.got - 2010.05.20 12:12:06.
