data_PCOD9565692
_publ_section_title
;
Structure prediction by ZEFSAII (Michael W. Deem and Ramdas Pophale) SiO2 
 PCOD9565692
Probable space group: P 4/N C C
;
_chemical_formula_sum "Si O2"
_cell_formula_units_Z 116
_cell_length_a 16.970751
_cell_length_b 16.970751
_cell_length_c 18.157819
_cell_angle_alpha 90.000000
_cell_angle_beta 90.000000
_cell_angle_gamma 90.000000
_cell_volume 5229.567891
_symmetry_space_group_name_H-M "P 4/N C C"
_symmetry_group_IT_number 130
_symmetry_cell_setting 'tetragonal'
loop_
_space_group_symop_operation_xyz
x,y,z
1/2-y,x,z
1/2-x,1/2-y,z
y,1/2-x,z
1/2+x,-y,1/2-z
-x,1/2+y,1/2-z
1/2+y,1/2+x,1/2-z
-y,-x,1/2-z
-x,-y,-z
1/2+y,-x,-z
1/2+x,1/2+y,-z
-y,1/2+x,-z
1/2-x,y,1/2+z
x,1/2-y,1/2+z
1/2-y,1/2-x,1/2+z
y,x,1/2+z
loop_
_atom_site_type_symbol
_atom_site_label
_atom_site_fract_x
_atom_site_fract_y
_atom_site_fract_z
Si Si1 0.858753 0.894842 0.472562
Si Si2 0.512232 0.755160 0.691842
Si Si3 0.578794 0.909845 0.201780
Si Si4 0.858589 0.288111 0.039707
Si Si5 0.068291 0.993608 0.646081
Si Si6 0.250000 0.250000 0.578248
Si Si7 0.710576 0.986861 0.534702
Si Si8 0.116715 0.714508 0.306482
O O1 0.911204 0.951770 0.422217
O O2 0.812400 0.826097 0.427843
O O3 0.792688 0.949420 0.508633
O O4 0.913715 0.849320 0.530757
O O5 0.573700 0.684521 0.706001
O O6 0.556415 0.836706 0.684395
O O7 0.476057 0.727196 0.614331
O O8 0.447972 0.758301 0.756109
O O9 0.550277 0.935296 0.282950
O O10 0.512701 0.945628 0.147412
O O11 0.852187 0.265802 0.125459
O O12 0.845150 0.207968 0.992300
O O13 0.945668 0.317187 0.020940
O O14 0.138910 0.930886 0.660576
O O15 0.181441 0.681441 0.250000
#
# Coordination Sequence:
#
# PCOD9565692 Si02
#       8
#    16  16  16  16  16   4  16  16
#     4  10  21  38  69  94 144 183 232 287 363 413
#     4  11  23  41  66 100 140 186 227 284 353 424
#     4  10  23  40  65  97 140 175 240 283 345 429
#     4  11  26  46  68 102 136 172 237 300 341 419
#     4  10  20  41  66 102 132 182 233 294 343 426
#     4   8  20  36  56 108 134 180 224 288 350 456
#     4  11  23  41  64 103 137 182 231 287 350 426
#     4  11  21  46  75  94 135 190 219 290 368 416
#
# _framework density 22.181564000000002
#
# number of rings (size 3 to 8) (size 9 to 14) (size 15 to 20)
#    0.000    1.517    4.138    1.655    1.931    2.483 
#    2.483    7.586    0.000    0.000    0.000    0.000 
#    0.000    0.000    0.000    0.000    0.000    0.000 
#
# Total GULP energy -647490.445636 kJ/mol
# GULP energy per Si atom -5581.814187 kJ/mol
# Density = 2.213108 g / cm^3
# Si number density = 22.181564 Si / 1000 Ang^3
#
#
#
# Elastic Constant Matrix: (Units=GPa)
#
#
# Indices 1 2 3 4 5 6 
#
# 1 42.7452 49.0169 14.4810 0.0000 0.0000 0.0000
# 2 49.0169 42.7452 14.4810 0.0000 0.0000 0.0000
# 3 14.4810 14.4810 98.6418 0.0000 0.0000 0.0000
# 4 0.0000 0.0000 0.0000 19.8931 0.0000 0.0000
# 5 0.0000 0.0000 0.0000 0.0000 19.8931 0.0000
# 6 0.0000 0.0000 0.0000 0.0000 0.0000 21.5937
#
#
#
# Elastic Compliance Matrix: (Units=1/GPa)
#
#
# Indices 1 2 3 4 5 6 
#
# 1 -0.074010 0.085437 -0.001678 0.000000 0.000000 0.000000
# 2 0.085437 -0.074010 -0.001678 0.000000 0.000000 0.000000
# 3 -0.001678 -0.001678 0.010630 0.000000 0.000000 0.000000
# 4 0.000000 0.000000 0.000000 0.050269 0.000000 0.000000
# 5 0.000000 0.000000 0.000000 0.000000 0.050269 0.000000
# 6 0.000000 0.000000 0.000000 0.000000 0.000000 0.046310
#
#
# Mechanical properties :
#
#
# Convention : Reuss Voigt Hill
#
# Bulk Modulus (GPa) = 37.34906 37.78777 37.56841
# Shear Modulus (GPa) = -34.29781 19.35288 -7.47247
#
# Velocity S-wave (km/s) = -3.93648 2.95697 -1.83741
# Velocity P-wave (km/s) = 1.94595 5.36012 3.53159
#
# Compressibility (1/GPa) = 0.02677444
#
# Stress axis : x y z
#
# Youngs Moduli (GPa) = -13.51170 -13.51170 94.07129
#
# Poissons Ratio (x) = 1.15440 0.15781
# Poissons Ratio (y) = 1.15440 0.15781
# Poissons Ratio (z) = -0.02267 -0.02267
#
# Static dielectric constant tensor:
#      x y z
#    x 1.788990 0.000000 0.000000 
#    y 0.000000 1.788990 0.000000 
#    z 0.000000 0.000000 1.864110 
# 
# From -- ./inp_files/3233.got.cif
#   From: 2010.05.17/outbox.cif.g08.bks.cpg/sg130_2_cif.got.tgz:3233.got - 2010.05.20 12:17:35.
