data_PCOD9565671
_publ_section_title
;
Structure prediction by ZEFSAII (Michael W. Deem and Ramdas Pophale) SiO2 
 PCOD9565671
Probable space group: P 4/N C C
;
_chemical_formula_sum "Si O2"
_cell_formula_units_Z 72
_cell_length_a 16.544775
_cell_length_b 16.544775
_cell_length_c 12.695997
_cell_angle_alpha 90.000000
_cell_angle_beta 90.000000
_cell_angle_gamma 90.000000
_cell_volume 3475.269924
_symmetry_space_group_name_H-M "P 4/N C C"
_symmetry_group_IT_number 130
_symmetry_cell_setting 'tetragonal'
loop_
_space_group_symop_operation_xyz
x,y,z
1/2-y,x,z
1/2-x,1/2-y,z
y,1/2-x,z
1/2+x,-y,1/2-z
-x,1/2+y,1/2-z
1/2+y,1/2+x,1/2-z
-y,-x,1/2-z
-x,-y,-z
1/2+y,-x,-z
1/2+x,1/2+y,-z
-y,1/2+x,-z
1/2-x,y,1/2+z
x,1/2-y,1/2+z
1/2-y,1/2-x,1/2+z
y,x,1/2+z
loop_
_atom_site_type_symbol
_atom_site_label
_atom_site_fract_x
_atom_site_fract_y
_atom_site_fract_z
Si Si1 0.683213 0.013658 0.533130
Si Si2 0.626342 0.798049 0.196170
Si Si3 0.597982 0.602910 0.888257
Si Si4 0.951760 0.363961 0.463029
Si Si5 0.458012 0.958012 0.750000
O O1 0.681311 0.955751 0.635134
O O2 0.669990 0.950697 0.436715
O O3 0.612178 0.079163 0.523189
O O4 0.768459 0.059035 0.527240
O O5 0.648923 0.705689 0.168433
O O6 0.618438 0.818524 0.320151
O O7 0.553131 0.543122 0.807035
O O8 0.538418 0.618798 0.984871
O O9 0.950149 0.391701 0.341780
#
# Coordination Sequence:
#
# PCOD9565671 Si02
#       5
#    16  16  16  16   8
#     4  11  23  41  62  90 126 165 214 260 312 377
#     4  11  23  38  60  93 130 162 201 261 324 380
#     4  11  20  38  63  89 119 159 204 253 313 380
#     4  11  24  40  64  90 122 169 212 263 315 374
#     4  10  20  38  60  87 120 157 204 252 310 374
#
# _framework density 20.717815999999999
#
# number of rings (size 3 to 8) (size 9 to 14) (size 15 to 20)
#    0.000    1.111    0.000    9.333    0.000    2.222 
#    0.000    2.222    0.000    5.333    0.000    0.000 
#    0.000    0.000    0.000    0.000    0.000    0.000 
#
# Total GULP energy -402286.902232 kJ/mol
# GULP energy per Si atom -5587.318087 kJ/mol
# Density = 2.067066 g / cm^3
# Si number density = 20.717816 Si / 1000 Ang^3
#
#
#
# Elastic Constant Matrix: (Units=GPa)
#
#
# Indices 1 2 3 4 5 6 
#
# 1 101.8165 35.8490 49.0780 0.0000 0.0000 0.0000
# 2 35.8490 101.8165 49.0780 0.0000 0.0000 0.0000
# 3 49.0780 49.0780 92.7567 0.0000 0.0000 0.0000
# 4 0.0000 0.0000 0.0000 31.8615 0.0000 0.0000
# 5 0.0000 0.0000 0.0000 0.0000 31.8615 0.0000
# 6 0.0000 0.0000 0.0000 0.0000 0.0000 26.1988
#
#
#
# Elastic Compliance Matrix: (Units=1/GPa)
#
#
# Indices 1 2 3 4 5 6 
#
# 1 0.013412 -0.001747 -0.006172 0.000000 0.000000 0.000000
# 2 -0.001747 0.013412 -0.006172 0.000000 0.000000 0.000000
# 3 -0.006172 -0.006172 0.017312 0.000000 0.000000 0.000000
# 4 0.000000 0.000000 0.000000 0.031386 0.000000 0.000000
# 5 0.000000 0.000000 0.000000 0.000000 0.031386 0.000000
# 6 0.000000 0.000000 0.000000 0.000000 0.000000 0.038170
#
#
# Mechanical properties :
#
#
# Convention : Reuss Voigt Hill
#
# Bulk Modulus (GPa) = 62.68062 62.71107 62.69584
# Shear Modulus (GPa) = 27.99927 28.80999 28.40463
#
# Velocity S-wave (km/s) = 3.68021 3.73311 3.70675
# Velocity P-wave (km/s) = 6.95548 6.99402 6.97478
#
# Compressibility (1/GPa) = 0.01595389
#
# Stress axis : x y z
#
# Youngs Moduli (GPa) = 74.56169 74.56169 57.76389
#
# Poissons Ratio (x) = 0.13028 0.35650
# Poissons Ratio (y) = 0.13028 0.35650
# Poissons Ratio (z) = 0.46017 0.46017
#
# Static dielectric constant tensor:
#      x y z
#    x 1.752950 0.000000 0.000000 
#    y 0.000000 1.752950 0.000000 
#    z 0.000000 0.000000 1.769270 
# 
# From -- ./inp_files/1599.got.cif
#   From: 2010.05.17/outbox.cif.g08.bks.cpg/sg130_1_cif.got.tgz:1599.got - 2010.05.20 12:17:35.
