data_PCOD9565194
_publ_section_title
;
Structure prediction by ZEFSAII (Michael W. Deem and Ramdas Pophale) SiO2 
 PCOD9565194
Probable space group: P 4/N M M
;
_chemical_formula_sum "Si O2"
_cell_formula_units_Z 64
_cell_length_a 13.803733
_cell_length_b 13.803733
_cell_length_c 21.271194
_cell_angle_alpha 90.000000
_cell_angle_beta 90.000000
_cell_angle_gamma 90.000000
_cell_volume 4053.078070
_symmetry_space_group_name_H-M "P 4/N M M"
_symmetry_group_IT_number 129
_symmetry_cell_setting 'tetragonal'
loop_
_space_group_symop_operation_xyz
x,y,z
1/2-y,x,z
1/2-x,1/2-y,z
y,1/2-x,z
1/2+x,-y,-z
-x,1/2+y,-z
1/2+y,1/2+x,-z
-y,-x,-z
-x,-y,-z
1/2+y,-x,-z
1/2+x,1/2+y,-z
-y,1/2+x,-z
1/2-x,y,z
x,1/2-y,z
1/2-y,1/2-x,z
y,x,z
loop_
_atom_site_type_symbol
_atom_site_label
_atom_site_fract_x
_atom_site_fract_y
_atom_site_fract_z
Si Si1 0.132142 0.638536 0.430834
Si Si2 0.367340 0.860343 0.182267
Si Si3 0.366096 0.974872 0.055289
Si Si4 0.633653 0.478056 0.693608
O O1 0.102101 0.602101 0.500000
O O2 0.250000 0.640610 0.432795
O O3 0.100187 0.750000 0.422111
O O4 0.105043 0.574075 0.371472
O O5 0.250000 0.855681 0.183256
O O6 0.403454 0.750000 0.177768
O O7 0.392193 0.923784 0.121458
O O8 0.395867 0.911762 0.247125
O O9 0.250000 0.986101 0.051691
O O10 0.424362 0.075639 0.050580
O O11 0.405649 0.905649 0.000000
O O12 0.750000 0.488268 0.694590
O O13 0.579682 0.579682 0.698627
#
# Coordination Sequence:
#
# PCOD9565194 Si02
#       4
#    16  16  16  16
#     4   8  14  26  44  64  85 109 140 183 232 272
#     4   9  17  30  48  67  87 113 147 189 233 272
#     4  10  20  33  50  73 100 130 163 197 236 283
#     4  10  19  29  42  62  89 120 151 182 220 269
#
# _framework density 15.790467
#
# number of rings (size 3 to 8) (size 9 to 14) (size 15 to 20)
#    0.000    2.750    0.000    3.000    0.000    5.250 
#    0.000    0.000    0.000    4.500    0.000    0.000 
#    0.000   22.000    0.000    0.000    0.000    0.250 
#
# Total GULP energy -356452.269824 kJ/mol
# GULP energy per Si atom -5569.566716 kJ/mol
# Density = 1.575453 g / cm^3
# Si number density = 15.790467 Si / 1000 Ang^3
#
#
#
# Elastic Constant Matrix: (Units=GPa)
#
#
# Indices 1 2 3 4 5 6 
#
# 1 68.3474 42.1411 43.7759 0.0000 0.0000 0.0000
# 2 42.1411 68.3474 43.7759 0.0000 0.0000 0.0000
# 3 43.7759 43.7759 139.9431 0.0000 0.0000 0.0000
# 4 0.0000 0.0000 0.0000 12.7382 0.0000 0.0000
# 5 0.0000 0.0000 0.0000 0.0000 12.7382 0.0000
# 6 0.0000 0.0000 0.0000 0.0000 0.0000 13.3981
#
#
#
# Elastic Compliance Matrix: (Units=1/GPa)
#
#
# Indices 1 2 3 4 5 6 
#
# 1 0.025096 -0.013063 -0.003764 0.000000 0.000000 0.000000
# 2 -0.013063 0.025096 -0.003764 0.000000 0.000000 0.000000
# 3 -0.003764 -0.003764 0.009501 0.000000 0.000000 0.000000
# 4 0.000000 0.000000 0.000000 0.078504 0.000000 0.000000
# 5 0.000000 0.000000 0.000000 0.000000 0.078504 0.000000
# 6 0.000000 0.000000 0.000000 0.000000 0.000000 0.074637
#
#
# Mechanical properties :
#
#
# Convention : Reuss Voigt Hill
#
# Bulk Modulus (GPa) = 54.02230 59.55817 56.79024
# Shear Modulus (GPa) = 14.76274 17.57124 16.16699
#
# Velocity S-wave (km/s) = 3.06095 3.33945 3.20323
# Velocity P-wave (km/s) = 6.83950 7.25733 7.05151
#
# Compressibility (1/GPa) = 0.01851088
#
# Stress axis : x y z
#
# Youngs Moduli (GPa) = 39.84675 39.84675 105.25471
#
# Poissons Ratio (x) = 0.52050 0.39620
# Poissons Ratio (y) = 0.52050 0.39620
# Poissons Ratio (z) = 0.14999 0.14999
#
# Static dielectric constant tensor:
#      x y z
#    x 1.509060 0.000000 0.000000 
#    y 0.000000 1.509060 0.000000 
#    z 0.000000 0.000000 1.545440 
# 
# From -- ./inp_files/5368.got.cif
#   From: 2010.05.17/outbox.cif.g08.bks.cpg/sg129_3_cif.got.tgz:5368.got - 2010.05.20 12:12:06.
