data_PCOD9565712
_publ_section_title
;
Structure prediction by ZEFSAII (Michael W. Deem and Ramdas Pophale) SiO2 
 PCOD9565712
Probable space group: P 4/N C C
;
_chemical_formula_sum "Si O2"
_cell_formula_units_Z 96
_cell_length_a 15.485673
_cell_length_b 15.485673
_cell_length_c 19.966131
_cell_angle_alpha 90.000000
_cell_angle_beta 90.000000
_cell_angle_gamma 90.000000
_cell_volume 4787.999374
_symmetry_space_group_name_H-M "P 4/N C C"
_symmetry_group_IT_number 130
_symmetry_cell_setting 'tetragonal'
loop_
_space_group_symop_operation_xyz
x,y,z
1/2-y,x,z
1/2-x,1/2-y,z
y,1/2-x,z
1/2+x,-y,1/2-z
-x,1/2+y,1/2-z
1/2+y,1/2+x,1/2-z
-y,-x,1/2-z
-x,-y,-z
1/2+y,-x,-z
1/2+x,1/2+y,-z
-y,1/2+x,-z
1/2-x,y,1/2+z
x,1/2-y,1/2+z
1/2-y,1/2-x,1/2+z
y,x,1/2+z
loop_
_atom_site_type_symbol
_atom_site_label
_atom_site_fract_x
_atom_site_fract_y
_atom_site_fract_z
Si Si1 0.649430 0.644834 0.926027
Si Si2 0.106228 0.745477 0.074853
Si Si3 0.355434 0.002080 0.826484
Si Si4 0.144566 0.497920 0.673516
Si Si5 0.893772 0.254523 0.574853
Si Si6 0.850570 0.855166 0.573973
O O1 0.753217 0.634381 0.921416
O O2 0.613667 0.585705 0.867362
O O3 0.618114 0.618114 1.000000
O O4 0.041966 0.776896 0.132247
O O5 0.154029 0.654029 0.085775
O O6 0.182950 0.817050 0.072936
O O7 0.066663 0.750000 0.000000
O O8 0.331806 0.022166 0.750000
O O9 0.431313 0.931313 0.826147
O O10 0.386333 0.085705 0.867362
O O11 0.223103 0.541966 0.632247
O O12 0.746783 0.865619 0.578584
#
# Coordination Sequence:
#
# PCOD9565712 Si02
#       6
#    16  16  16  16  16  16
#     4   9  20  39  61  82 104 138 189 235 271 325
#     4   8  15  29  50  77 111 153 194 225 261 322
#     4  10  21  35  54  85 120 148 180 229 285 335
#     4  10  21  35  54  85 120 148 180 229 285 335
#     4   8  15  29  50  77 111 153 194 225 261 322
#     4   9  20  39  61  82 104 138 189 235 271 325
#
# _framework density 20.050128999999998
#
# number of rings (size 3 to 8) (size 9 to 14) (size 15 to 20)
#    0.000    3.000    0.000    2.000    4.667    2.667 
#    0.000    6.667    0.000    0.000    0.000    0.000 
#    0.000    0.000    0.000    0.000    0.000    0.000 
#
# Total GULP energy -535346.310583 kJ/mol
# GULP energy per Si atom -5576.524069 kJ/mol
# Density = 2.000449 g / cm^3
# Si number density = 20.050129 Si / 1000 Ang^3
#
#
#
# Elastic Constant Matrix: (Units=GPa)
#
#
# Indices 1 2 3 4 5 6 
#
# 1 62.5643 2.1904 47.8765 0.0000 0.0000 0.0000
# 2 2.1904 62.5643 47.8765 0.0000 0.0000 0.0000
# 3 47.8765 47.8765 190.5606 0.0000 0.0000 0.0000
# 4 0.0000 0.0000 0.0000 30.9834 0.0000 0.0000
# 5 0.0000 0.0000 0.0000 0.0000 30.9834 0.0000
# 6 0.0000 0.0000 0.0000 0.0000 0.0000 -1.3951
#
#
#
# Elastic Compliance Matrix: (Units=1/GPa)
#
#
# Indices 1 2 3 4 5 6 
#
# 1 0.020567 0.004004 -0.006173 0.000000 0.000000 0.000000
# 2 0.004004 0.020567 -0.006173 0.000000 0.000000 0.000000
# 3 -0.006173 -0.006173 0.008350 0.000000 0.000000 0.000000
# 4 0.000000 0.000000 0.000000 0.032275 0.000000 0.000000
# 5 0.000000 0.000000 0.000000 0.000000 0.032275 0.000000
# 6 0.000000 0.000000 0.000000 0.000000 0.000000 -0.716820
#
#
# Mechanical properties :
#
#
# Convention : Reuss Voigt Hill
#
# Bulk Modulus (GPa) = 30.48854 56.84175 43.66515
# Shear Modulus (GPa) = -8.69314 26.63075 8.96880
#
# Velocity S-wave (km/s) = -2.08449 3.64841 2.11729
# Velocity P-wave (km/s) = 3.07338 6.79406 5.27280
#
# Compressibility (1/GPa) = 0.03279920
#
# Stress axis : x y z
#
# Youngs Moduli (GPa) = 48.62052 48.62052 119.76548
#
# Poissons Ratio (x) = -0.19468 0.73935
# Poissons Ratio (y) = -0.19468 0.73935
# Poissons Ratio (z) = 0.30015 0.30015
#
# Static dielectric constant tensor:
#      x y z
#    x 1.729960 0.000000 0.000000 
#    y 0.000000 1.729960 0.000000 
#    z 0.000000 0.000000 1.705070 
# 
# From -- ./inp_files/3077.got.cif
#   From: 2010.05.17/outbox.cif.g08.bks.cpg/sg130_2_cif.got.tgz:3077.got - 2010.05.20 12:17:35.
