data_PCOD9565986
_publ_section_title
;
Structure prediction by ZEFSAII (Michael W. Deem and Ramdas Pophale) SiO2 
 PCOD9565986
Probable space group: P 4/N C C
;
_chemical_formula_sum "Si O2"
_cell_formula_units_Z 96
_cell_length_a 12.610601
_cell_length_b 12.610601
_cell_length_c 27.735565
_cell_angle_alpha 90.000000
_cell_angle_beta 90.000000
_cell_angle_gamma 90.000000
_cell_volume 4410.710839
_symmetry_space_group_name_H-M "P 4/N C C"
_symmetry_group_IT_number 130
_symmetry_cell_setting 'tetragonal'
loop_
_space_group_symop_operation_xyz
x,y,z
1/2-y,x,z
1/2-x,1/2-y,z
y,1/2-x,z
1/2+x,-y,1/2-z
-x,1/2+y,1/2-z
1/2+y,1/2+x,1/2-z
-y,-x,1/2-z
-x,-y,-z
1/2+y,-x,-z
1/2+x,1/2+y,-z
-y,1/2+x,-z
1/2-x,y,1/2+z
x,1/2-y,1/2+z
1/2-y,1/2-x,1/2+z
y,x,1/2+z
loop_
_atom_site_type_symbol
_atom_site_label
_atom_site_fract_x
_atom_site_fract_y
_atom_site_fract_z
Si Si1 0.693702 0.138325 0.194224
Si Si2 0.918996 0.787814 0.703795
Si Si3 0.357450 0.390692 0.932327
Si Si4 0.403903 0.175642 0.681730
Si Si5 0.847266 0.899561 0.957030
Si Si6 0.034958 0.990602 0.128217
O O1 0.750000 0.250000 0.181404
O O2 0.652074 0.152074 0.250000
O O3 0.596258 0.097813 0.160664
O O4 0.582860 0.810828 0.261387
O O5 0.827168 0.870444 0.689314
O O6 0.954060 0.923837 0.606185
O O7 0.042129 0.777961 0.691890
O O8 0.231356 0.392629 0.926448
O O9 0.374406 0.426829 0.987568
O O10 0.384739 0.295582 0.666525
O O11 0.487031 0.097640 0.658671
O O12 0.720387 0.890932 0.950450
O O13 0.896996 0.978446 0.918834
#
# Coordination Sequence:
#
# PCOD9565986 Si02
#       6
#    16  16  16  16  16  16
#     4  11  26  47  57  89 146 199 231 283 358 415
#     4   9  19  42  70  90 116 171 247 295 332 392
#     4   9  21  44  67  95 135 175 223 279 343 417
#     4   9  18  36  65  94 123 159 223 292 328 384
#     4   9  19  40  71 102 133 168 217 283 343 411
#     4  12  22  38  67 102 131 174 230 274 350 406
#
# _framework density 21.765198000000002
#
# number of rings (size 3 to 8) (size 9 to 14) (size 15 to 20)
#    0.000    2.167    0.000    5.500    0.000    2.667 
#   27.000    1.667    0.000    0.000    0.000    0.000 
#    0.000    0.000    0.000    0.000    0.000    0.000 
#
# Total GULP energy -535977.140035 kJ/mol
# GULP energy per Si atom -5583.095209 kJ/mol
# Density = 2.171566 g / cm^3
# Si number density = 21.765198 Si / 1000 Ang^3
#
#
#
# Elastic Constant Matrix: (Units=GPa)
#
#
# Indices 1 2 3 4 5 6 
#
# 1 132.8981 28.4282 56.4532 0.0000 0.0000 0.0000
# 2 28.4282 132.8981 56.4532 0.0000 0.0000 0.0000
# 3 56.4532 56.4532 130.7852 0.0000 0.0000 0.0000
# 4 0.0000 0.0000 0.0000 39.3805 0.0000 0.0000
# 5 0.0000 0.0000 0.0000 0.0000 39.3805 0.0000
# 6 0.0000 0.0000 0.0000 0.0000 0.0000 19.0527
#
#
#
# Elastic Compliance Matrix: (Units=1/GPa)
#
#
# Indices 1 2 3 4 5 6 
#
# 1 0.009227 -0.000345 -0.003834 0.000000 0.000000 0.000000
# 2 -0.000345 0.009227 -0.003834 0.000000 0.000000 0.000000
# 3 -0.003834 -0.003834 0.010956 0.000000 0.000000 0.000000
# 4 0.000000 0.000000 0.000000 0.025393 0.000000 0.000000
# 5 0.000000 0.000000 0.000000 0.000000 0.025393 0.000000
# 6 0.000000 0.000000 0.000000 0.000000 0.000000 0.052486
#
#
# Mechanical properties :
#
#
# Convention : Reuss Voigt Hill
#
# Bulk Modulus (GPa) = 74.71519 75.47227 75.09373
# Shear Modulus (GPa) = 32.64362 36.57919 34.61141
#
# Velocity S-wave (km/s) = 3.87694 4.10399 3.99208
# Velocity P-wave (km/s) = 7.37856 7.56359 7.47165
#
# Compressibility (1/GPa) = 0.01338416
#
# Stress axis : x y z
#
# Youngs Moduli (GPa) = 108.37826 108.37826 91.27570
#
# Poissons Ratio (x) = 0.03741 0.34993
# Poissons Ratio (y) = 0.03741 0.34993
# Poissons Ratio (z) = 0.41550 0.41550
#
# Static dielectric constant tensor:
#      x y z
#    x 1.815000 0.000000 0.000000 
#    y 0.000000 1.815000 0.000000 
#    z 0.000000 0.000000 1.855170 
# 
# From -- ./inp_files/4943.got.cif
#   From: 2010.05.17/outbox.cif.g08.bks.cpg/sg130_3_cif.got.tgz:4943.got - 2010.05.20 12:17:35.
