data_PCOD9565534
_publ_section_title
;
Structure prediction by ZEFSAII (Michael W. Deem and Ramdas Pophale) SiO2 
 PCOD9565534
Probable space group: P 4/N C C
;
_chemical_formula_sum "Si O2"
_cell_formula_units_Z 96
_cell_length_a 22.976054
_cell_length_b 22.976054
_cell_length_c 11.252037
_cell_angle_alpha 90.000000
_cell_angle_beta 90.000000
_cell_angle_gamma 90.000000
_cell_volume 5939.939726
_symmetry_space_group_name_H-M "P 4/N C C"
_symmetry_group_IT_number 130
_symmetry_cell_setting 'tetragonal'
loop_
_space_group_symop_operation_xyz
x,y,z
1/2-y,x,z
1/2-x,1/2-y,z
y,1/2-x,z
1/2+x,-y,1/2-z
-x,1/2+y,1/2-z
1/2+y,1/2+x,1/2-z
-y,-x,1/2-z
-x,-y,-z
1/2+y,-x,-z
1/2+x,1/2+y,-z
-y,1/2+x,-z
1/2-x,y,1/2+z
x,1/2-y,1/2+z
1/2-y,1/2-x,1/2+z
y,x,1/2+z
loop_
_atom_site_type_symbol
_atom_site_label
_atom_site_fract_x
_atom_site_fract_y
_atom_site_fract_z
Si Si1 0.745396 0.918016 0.566070
Si Si2 0.461367 0.125176 0.989512
Si Si3 0.503537 0.412158 0.714542
Si Si4 0.757689 0.652269 0.314621
Si Si5 0.965110 0.868509 0.034864
Si Si6 0.464658 0.551768 0.873768
O O1 0.684097 0.951076 0.580749
O O2 0.739451 0.880468 0.442912
O O3 0.758541 0.884391 0.690532
O O4 0.799918 0.959533 0.538969
O O5 0.398638 0.094665 0.009881
O O6 0.503417 0.076852 0.930919
O O7 0.492446 0.135855 0.115424
O O8 0.568464 0.431537 0.750000
O O9 0.471848 0.392466 0.832363
O O10 0.475949 0.471983 0.659970
O O11 0.810696 0.698031 0.311577
O O12 0.017878 0.895443 0.958493
O O13 0.433938 0.566063 0.750000
#
# Coordination Sequence:
#
# PCOD9565534 Si02
#       6
#    16  16  16  16  16  16
#     4  12  26  35  54  84 109 144 184 246 284 321
#     4  11  20  33  52  77 106 136 182 225 276 330
#     4  10  16  33  53  76  93 132 180 215 273 332
#     4  11  23  42  55  68 101 154 205 234 268 313
#     4  11  20  34  52  75 107 137 181 224 274 334
#     4  10  19  31  55  76  97 135 176 224 276 343
#
# _framework density 16.16178
#
# number of rings (size 3 to 8) (size 9 to 14) (size 15 to 20)
#    0.000    1.167    5.000    5.000    2.333    2.667 
#    0.000    0.000    0.000    0.000    0.000    0.000 
#    0.000    0.667    0.000    3.000    0.000    0.000 
#
# Total GULP energy -534513.369309 kJ/mol
# GULP energy per Si atom -5567.847597 kJ/mol
# Density = 1.612499 g / cm^3
# Si number density = 16.161780 Si / 1000 Ang^3
#
#
#
# Elastic Constant Matrix: (Units=GPa)
#
#
# Indices 1 2 3 4 5 6 
#
# 1 50.5160 31.5105 14.1394 0.0000 0.0000 0.0000
# 2 31.5105 50.5149 14.1384 0.0000 0.0000 0.0000
# 3 14.1394 14.1384 105.3793 0.0000 0.0000 0.0000
# 4 0.0000 0.0000 0.0000 22.3306 0.0000 0.0000
# 5 0.0000 0.0000 0.0000 0.0000 22.3303 0.0000
# 6 0.0000 0.0000 0.0000 0.0000 0.0000 21.9544
#
#
#
# Elastic Compliance Matrix: (Units=1/GPa)
#
#
# Indices 1 2 3 4 5 6 
#
# 1 0.032700 -0.019918 -0.001715 0.000000 0.000000 0.000000
# 2 -0.019918 0.032700 -0.001715 0.000000 0.000000 0.000000
# 3 -0.001715 -0.001715 0.009950 0.000000 0.000000 0.000000
# 4 0.000000 0.000000 0.000000 0.044782 0.000000 0.000000
# 5 0.000000 0.000000 0.000000 0.000000 0.044782 0.000000
# 6 0.000000 0.000000 0.000000 0.000000 0.000000 0.045549
#
#
# Mechanical properties :
#
#
# Convention : Reuss Voigt Hill
#
# Bulk Modulus (GPa) = 34.89843 36.22075 35.55959
# Shear Modulus (GPa) = 18.74699 23.09788 20.92244
#
# Velocity S-wave (km/s) = 3.40951 3.78453 3.60191
# Velocity P-wave (km/s) = 6.09424 6.44647 6.27283
#
# Compressibility (1/GPa) = 0.02865459
#
# Stress axis : x y z
#
# Youngs Moduli (GPa) = 30.58116 30.58067 100.50503
#
# Poissons Ratio (x) = 0.60909 0.17239
# Poissons Ratio (y) = 0.60910 0.17235
# Poissons Ratio (z) = 0.05245 0.05244
#
# Static dielectric constant tensor:
#      x y z
#    x 1.553240 0.000000 0.000000 
#    y 0.000000 1.553230 0.000000 
#    z 0.000000 0.000000 1.662310 
# 
# From -- ./inp_files/1791.got.cif
#   From: 2010.05.17/outbox.cif.g08.bks.cpg/sg130_1_cif.got.tgz:1791.got - 2010.05.20 12:17:35.
