data_PCOD9565273
_publ_section_title
;
Structure prediction by ZEFSAII (Michael W. Deem and Ramdas Pophale) SiO2 
 PCOD9565273
Probable space group: P 4/N M M
;
_chemical_formula_sum "Si O2"
_cell_formula_units_Z 128
_cell_length_a 22.910807
_cell_length_b 22.910807
_cell_length_c 12.252938
_cell_angle_alpha 90.000000
_cell_angle_beta 90.000000
_cell_angle_gamma 90.000000
_cell_volume 6431.629369
_symmetry_space_group_name_H-M "P 4/N M M"
_symmetry_group_IT_number 129
_symmetry_cell_setting 'tetragonal'
loop_
_space_group_symop_operation_xyz
x,y,z
1/2-y,x,z
1/2-x,1/2-y,z
y,1/2-x,z
1/2+x,-y,-z
-x,1/2+y,-z
1/2+y,1/2+x,-z
-y,-x,-z
-x,-y,-z
1/2+y,-x,-z
1/2+x,1/2+y,-z
-y,1/2+x,-z
1/2-x,y,z
x,1/2-y,z
1/2-y,1/2-x,z
y,x,z
loop_
_atom_site_type_symbol
_atom_site_label
_atom_site_fract_x
_atom_site_fract_y
_atom_site_fract_z
Si Si1 0.363052 0.462179 0.447072
Si Si2 0.185216 0.093232 0.240708
Si Si3 0.182170 0.683758 0.670849
Si Si4 0.686153 0.361650 0.098789
Si Si5 0.629104 0.531074 0.313831
Si Si6 0.575870 0.097120 0.317891
Si Si7 0.316331 0.993381 0.900452
Si Si8 0.006006 0.102063 0.109764
O O1 0.418965 0.418965 0.446998
O O2 0.318722 0.434768 0.360716
O O3 0.339255 0.464880 0.569450
O O4 0.385388 0.523469 0.398824
O O5 0.250000 0.093183 0.197931
O O6 0.156755 0.156755 0.244545
O O7 0.143722 0.052890 0.168388
O O8 0.250000 0.667934 0.643030
O O9 0.171504 0.750000 0.631403
O O10 0.179306 0.682415 0.802764
O O11 0.130796 0.637827 0.646979
O O12 0.750000 0.351932 0.048693
O O13 0.684477 0.426898 0.143716
O O14 0.642618 0.357383 0.000000
O O15 0.583052 0.583052 0.305279
O O16 0.594087 0.470076 0.322713
O O17 0.667744 0.530856 0.205186
O O18 0.549151 0.104090 0.193709
O O19 0.250000 0.005040 0.941609
O O20 0.366371 0.996266 0.993289
O O21 0.038349 0.038349 0.101697
#
# Coordination Sequence:
#
# PCOD9565273 Si02
#       8
#    16  16  16  16  16  16  16  16
#     4   9  20  37  57  84 113 144 184 234 293 354
#     4   9  18  34  56  83 114 146 182 227 277 335
#     4  10  21  36  53  76 110 150 193 238 283 334
#     4  10  19  32  48  71 100 137 186 234 276 320
#     4  11  22  37  58  83 114 147 187 239 293 350
#     4  11  20  35  60  85 111 145 188 244 297 355
#     4  11  23  36  53  79 114 155 192 229 279 341
#     4  10  21  36  55  83 120 154 189 234 290 351
#
# _framework density 19.901643
#
# number of rings (size 3 to 8) (size 9 to 14) (size 15 to 20)
#    0.000    1.875    1.250    4.125    0.000    5.750 
#    0.000    1.250    0.000    2.250    0.000    3.500 
#    0.000    2.250    0.000    0.500    0.000    0.000 
#
# Total GULP energy -713683.412823 kJ/mol
# GULP energy per Si atom -5575.651663 kJ/mol
# Density = 1.985635 g / cm^3
# Si number density = 19.901643 Si / 1000 Ang^3
#
#
#
# Elastic Constant Matrix: (Units=GPa)
#
#
# Indices 1 2 3 4 5 6 
#
# 1 56.2447 9.0879 0.5615 0.0000 0.0000 0.0000
# 2 9.0879 56.2457 0.5617 0.0000 0.0000 0.0000
# 3 0.5615 0.5617 84.3017 0.0000 0.0000 0.0000
# 4 0.0000 0.0000 0.0000 1.1990 0.0000 0.0000
# 5 0.0000 0.0000 0.0000 0.0000 1.1986 0.0000
# 6 0.0000 0.0000 0.0000 0.0000 0.0000 8.3850
#
#
#
# Elastic Compliance Matrix: (Units=1/GPa)
#
#
# Indices 1 2 3 4 5 6 
#
# 1 0.018257 -0.002949 -0.000102 0.000000 0.000000 0.000000
# 2 -0.002949 0.018257 -0.000102 0.000000 0.000000 0.000000
# 3 -0.000102 -0.000102 0.011864 0.000000 0.000000 0.000000
# 4 0.000000 0.000000 0.000000 0.834032 0.000000 0.000000
# 5 0.000000 0.000000 0.000000 0.000000 0.834280 0.000000
# 6 0.000000 0.000000 0.000000 0.000000 0.000000 0.119261
#
#
# Mechanical properties :
#
#
# Convention : Reuss Voigt Hill
#
# Bulk Modulus (GPa) = 23.76908 24.13492 23.95200
# Shear Modulus (GPa) = 2.69356 14.59525 8.64441
#
# Velocity S-wave (km/s) = 1.16463 2.71102 2.08638
# Velocity P-wave (km/s) = 3.71183 4.68539 4.22674
#
# Compressibility (1/GPa) = 0.04207147
#
# Stress axis : x y z
#
# Youngs Moduli (GPa) = 54.77371 54.77466 84.29203
#
# Poissons Ratio (x) = 0.16152 0.00859
# Poissons Ratio (y) = 0.16152 0.00860
# Poissons Ratio (z) = 0.00558 0.00559
#
# Static dielectric constant tensor:
#      x y z
#    x 1.704410 0.000000 0.000000 
#    y 0.000000 1.704410 0.000000 
#    z 0.000000 0.000000 1.746830 
# 
# From -- ./inp_files/4193.got.cif
#   From: 2010.05.17/outbox.cif.g08.bks.cpg/sg129_3_cif.got.tgz:4193.got - 2010.05.20 12:12:06.
