data_PCOD9565310
_publ_section_title
;
Structure prediction by ZEFSAII (Michael W. Deem and Ramdas Pophale) SiO2 
 PCOD9565310
Probable space group: P 4/N M M
;
_chemical_formula_sum "Si O2"
_cell_formula_units_Z 128
_cell_length_a 20.001073
_cell_length_b 20.001073
_cell_length_c 20.560672
_cell_angle_alpha 90.000000
_cell_angle_beta 90.000000
_cell_angle_gamma 90.000000
_cell_volume 8225.151288
_symmetry_space_group_name_H-M "P 4/N M M"
_symmetry_group_IT_number 129
_symmetry_cell_setting 'tetragonal'
loop_
_space_group_symop_operation_xyz
x,y,z
1/2-y,x,z
1/2-x,1/2-y,z
y,1/2-x,z
1/2+x,-y,-z
-x,1/2+y,-z
1/2+y,1/2+x,-z
-y,-x,-z
-x,-y,-z
1/2+y,-x,-z
1/2+x,1/2+y,-z
-y,1/2+x,-z
1/2-x,y,z
x,1/2-y,z
1/2-y,1/2-x,z
y,x,z
loop_
_atom_site_type_symbol
_atom_site_label
_atom_site_fract_x
_atom_site_fract_y
_atom_site_fract_z
Si Si1 0.438468 0.173266 0.419665
Si Si2 0.671268 0.559830 0.434781
Si Si3 0.499536 0.891489 0.309094
Si Si4 0.113495 0.496837 0.293945
Si Si5 0.555443 0.172494 0.816609
Si Si6 0.007513 0.897075 0.960073
Si Si7 0.060248 0.170601 0.919258
Si Si8 0.434965 0.670933 0.831654
O O1 0.417561 0.250000 0.417152
O O2 0.375432 0.124568 0.414361
O O3 0.468150 0.161502 0.491939
O O4 0.484815 0.156607 0.358551
O O5 0.750000 0.571590 0.425082
O O6 0.628169 0.628169 0.431613
O O7 0.642768 0.512784 0.378227
O O8 0.478967 0.840416 0.252991
O O9 0.566444 0.933557 0.291834
O O10 0.440130 0.945477 0.310264
O O11 0.069638 0.430363 0.280138
O O12 0.155150 0.518631 0.230963
O O13 0.570538 0.250000 0.826163
O O14 0.499591 0.152140 0.869599
O O15 0.622474 0.129032 0.822569
O O16 0.030978 0.856051 0.897627
O O17 0.068533 0.931468 0.000000
O O18 0.958259 0.958259 0.940683
O O19 0.967351 0.850015 0.009950
O O20 0.072842 0.250000 0.914435
O O21 0.125141 0.125141 0.905753
O O22 0.420629 0.750000 0.835366
#
# Coordination Sequence:
#
# PCOD9565310 Si02
#       8
#    16  16  16  16  16  16  16  16
#     4   9  17  29  44  64  92 123 154 188 228 277
#     4   9  17  28  43  64  91 123 156 191 231 277
#     4   9  17  29  47  69  90 115 153 198 241 282
#     4   9  18  31  48  70  93 119 153 194 241 288
#     4  10  20  33  49  68  94 128 163 196 236 288
#     4  10  19  33  54  76  98 125 160 200 237 282
#     4  10  20  34  53  76 101 130 162 198 241 287
#     4  11  21  33  51  73  98 125 158 201 244 286
#
# _framework density 15.562023999999999
#
# number of rings (size 3 to 8) (size 9 to 14) (size 15 to 20)
#    0.000    2.375    1.250    1.875    0.000    2.125 
#    0.000    3.750    0.000    0.000    0.000    1.750 
#    0.000    9.000    0.000   23.250    0.000    0.500 
#
# Total GULP energy -713098.633275 kJ/mol
# GULP energy per Si atom -5571.083072 kJ/mol
# Density = 1.552660 g / cm^3
# Si number density = 15.562024 Si / 1000 Ang^3
#
#
#
# Elastic Constant Matrix: (Units=GPa)
#
#
# Indices 1 2 3 4 5 6 
#
# 1 75.9128 35.2619 48.9530 0.0000 0.0000 0.0000
# 2 35.2619 75.9134 48.9528 0.0000 0.0000 0.0000
# 3 48.9530 48.9528 117.7402 0.0000 0.0000 0.0000
# 4 0.0000 0.0000 0.0000 24.4069 0.0000 0.0000
# 5 0.0000 0.0000 0.0000 0.0000 24.4068 0.0000
# 6 0.0000 0.0000 0.0000 0.0000 0.0000 9.5551
#
#
#
# Elastic Compliance Matrix: (Units=1/GPa)
#
#
# Indices 1 2 3 4 5 6 
#
# 1 0.019395 -0.005204 -0.005900 0.000000 0.000000 0.000000
# 2 -0.005204 0.019395 -0.005900 0.000000 0.000000 0.000000
# 3 -0.005900 -0.005900 0.013399 0.000000 0.000000 0.000000
# 4 0.000000 0.000000 0.000000 0.040972 0.000000 0.000000
# 5 0.000000 0.000000 0.000000 0.000000 0.040972 0.000000
# 6 0.000000 0.000000 0.000000 0.000000 0.000000 0.104656
#
#
# Mechanical properties :
#
#
# Convention : Reuss Voigt Hill
#
# Bulk Modulus (GPa) = 55.00389 59.54465 57.27427
# Shear Modulus (GPa) = 17.93017 20.76700 19.34859
#
# Velocity S-wave (km/s) = 3.39805 3.65700 3.52990
# Velocity P-wave (km/s) = 7.12863 7.49516 7.31419
#
# Compressibility (1/GPa) = 0.01818053
#
# Stress axis : x y z
#
# Youngs Moduli (GPa) = 51.55905 51.55977 74.63010
#
# Poissons Ratio (x) = 0.26834 0.44033
# Poissons Ratio (y) = 0.26833 0.44032
# Poissons Ratio (z) = 0.30421 0.30420
#
# Static dielectric constant tensor:
#      x y z
#    x 1.500890 0.000000 0.000000 
#    y 0.000000 1.500890 0.000000 
#    z 0.000000 0.000000 1.527730 
# 
# From -- ./inp_files/6111.got.cif
#   From: 2010.05.17/outbox.cif.g08.bks.cpg/sg129_4_cif.got.tgz:6111.got - 2010.05.20 12:12:06.
