data_PCOD9565746
_publ_section_title
;
Structure prediction by ZEFSAII (Michael W. Deem and Ramdas Pophale) SiO2 
 PCOD9565746
Probable space group: P 4/N C C
;
_chemical_formula_sum "Si O2"
_cell_formula_units_Z 72
_cell_length_a 14.665498
_cell_length_b 14.665498
_cell_length_c 14.901632
_cell_angle_alpha 90.000000
_cell_angle_beta 90.000000
_cell_angle_gamma 90.000000
_cell_volume 3204.995796
_symmetry_space_group_name_H-M "P 4/N C C"
_symmetry_group_IT_number 130
_symmetry_cell_setting 'tetragonal'
loop_
_space_group_symop_operation_xyz
x,y,z
1/2-y,x,z
1/2-x,1/2-y,z
y,1/2-x,z
1/2+x,-y,1/2-z
-x,1/2+y,1/2-z
1/2+y,1/2+x,1/2-z
-y,-x,1/2-z
-x,-y,-z
1/2+y,-x,-z
1/2+x,1/2+y,-z
-y,1/2+x,-z
1/2-x,y,1/2+z
x,1/2-y,1/2+z
1/2-y,1/2-x,1/2+z
y,x,1/2+z
loop_
_atom_site_type_symbol
_atom_site_label
_atom_site_fract_x
_atom_site_fract_y
_atom_site_fract_z
Si Si1 0.250000 0.750000 0.000000
Si Si2 0.076743 0.114522 0.697210
Si Si3 0.668625 0.427569 0.933701
Si Si4 0.352408 0.364537 0.386043
Si Si5 0.750000 0.750000 0.326465
Si Si6 0.634304 0.502557 0.459989
O O1 0.176946 0.701755 0.935371
O O2 0.081273 0.103649 0.803755
O O3 0.151838 0.193466 0.676135
O O4 0.107915 0.026472 0.641037
O O5 0.978811 0.142285 0.657485
O O6 0.580810 0.422065 0.998331
O O7 0.758808 0.479100 0.968054
O O8 0.242489 0.372332 0.377582
O O9 0.379310 0.406986 0.480508
#
# Coordination Sequence:
#
# PCOD9565746 Si02
#       6
#     4  16  16  16   4  16
#     4   8  20  40  64  86 116 164 216 266 304 366
#     4  12  21  39  61  90 128 163 203 258 318 376
#     4  10  21  40  62  89 121 165 214 259 311 370
#     4  11  22  36  59  93 126 160 206 258 319 377
#     4  12  20  36  62  92 124 170 196 252 330 376
#     4  11  23  38  64  89 123 167 211 257 313 376
#
# _framework density 22.464926999999999
#
# number of rings (size 3 to 8) (size 9 to 14) (size 15 to 20)
#    0.000    1.111    4.444    2.000    0.000    0.889 
#    0.000    0.000    0.000   20.000    0.000    0.000 
#    0.000    0.000    0.000    0.000    0.000    0.000 
#
# Total GULP energy -401451.861242 kJ/mol
# GULP energy per Si atom -5575.720295 kJ/mol
# Density = 2.241380 g / cm^3
# Si number density = 22.464927 Si / 1000 Ang^3
#
#
#
# Elastic Constant Matrix: (Units=GPa)
#
#
# Indices 1 2 3 4 5 6 
#
# 1 74.9422 11.2801 0.8112 0.0000 0.0000 0.0000
# 2 11.2801 74.9422 0.8112 0.0000 0.0000 0.0000
# 3 0.8112 0.8112 47.4921 0.0000 0.0000 0.0000
# 4 0.0000 0.0000 0.0000 17.6800 0.0000 0.0000
# 5 0.0000 0.0000 0.0000 0.0000 17.6800 0.0000
# 6 0.0000 0.0000 0.0000 0.0000 0.0000 36.7009
#
#
#
# Elastic Compliance Matrix: (Units=1/GPa)
#
#
# Indices 1 2 3 4 5 6 
#
# 1 0.013655 -0.002053 -0.000198 0.000000 0.000000 0.000000
# 2 -0.002053 0.013655 -0.000198 0.000000 0.000000 0.000000
# 3 -0.000198 -0.000198 0.021063 0.000000 0.000000 0.000000
# 4 0.000000 0.000000 0.000000 0.056561 0.000000 0.000000
# 5 0.000000 0.000000 0.000000 0.000000 0.056561 0.000000
# 6 0.000000 0.000000 0.000000 0.000000 0.000000 0.027247
#
#
# Mechanical properties :
#
#
# Convention : Reuss Voigt Hill
#
# Bulk Modulus (GPa) = 23.00247 24.79793 23.90020
# Shear Modulus (GPa) = 24.02323 26.71046 25.36684
#
# Velocity S-wave (km/s) = 3.27366 3.45191 3.36397
# Velocity P-wave (km/s) = 4.95486 5.19134 5.07448
#
# Compressibility (1/GPa) = 0.04347359
#
# Stress axis : x y z
#
# Youngs Moduli (GPa) = 73.23439 73.23439 47.47679
#
# Poissons Ratio (x) = 0.15036 0.00941
# Poissons Ratio (y) = 0.15036 0.00941
# Poissons Ratio (z) = 0.01451 0.01451
#
# Static dielectric constant tensor:
#      x y z
#    x 1.846200 0.000000 0.000000 
#    y 0.000000 1.846200 0.000000 
#    z 0.000000 0.000000 1.810280 
# 
# From -- ./inp_files/2979.got.cif
#   From: 2010.05.17/outbox.cif.g08.bks.cpg/sg130_2_cif.got.tgz:2979.got - 2010.05.20 12:17:35.
