data_PCOD9565352
_publ_section_title
;
Structure prediction by ZEFSAII (Michael W. Deem and Ramdas Pophale) SiO2 
 PCOD9565352
Probable space group: P 4/N M M
;
_chemical_formula_sum "Si O2"
_cell_formula_units_Z 128
_cell_length_a 18.386246
_cell_length_b 18.386246
_cell_length_c 23.243872
_cell_angle_alpha 90.000000
_cell_angle_beta 90.000000
_cell_angle_gamma 90.000000
_cell_volume 7857.684881
_symmetry_space_group_name_H-M "P 4/N M M"
_symmetry_group_IT_number 129
_symmetry_cell_setting 'tetragonal'
loop_
_space_group_symop_operation_xyz
x,y,z
1/2-y,x,z
1/2-x,1/2-y,z
y,1/2-x,z
1/2+x,-y,-z
-x,1/2+y,-z
1/2+y,1/2+x,-z
-y,-x,-z
-x,-y,-z
1/2+y,-x,-z
1/2+x,1/2+y,-z
-y,1/2+x,-z
1/2-x,y,z
x,1/2-y,z
1/2-y,1/2-x,z
y,x,z
loop_
_atom_site_type_symbol
_atom_site_label
_atom_site_fract_x
_atom_site_fract_y
_atom_site_fract_z
Si Si1 0.930983 0.055596 0.626481
Si Si2 0.454414 0.164838 0.807665
Si Si3 0.047323 0.835021 0.077547
Si Si4 0.067305 0.555227 0.243177
Si Si5 0.335014 0.045942 0.030843
Si Si6 0.453795 0.165855 0.445645
Si Si7 0.665730 0.545653 0.415629
Si Si8 0.562012 0.335083 0.132206
O O1 0.904116 0.058878 0.691964
O O2 0.972294 0.129153 0.608669
O O3 0.870194 0.024509 0.583663
O O4 0.995118 0.995118 0.624769
O O5 0.447562 0.250000 0.794620
O O6 0.379809 0.120192 0.802805
O O7 0.486745 0.156905 0.872292
O O8 0.513978 0.123835 0.768369
O O9 0.065461 0.750000 0.072733
O O10 0.117485 0.878567 0.098138
O O11 0.012226 0.859049 0.017531
O O12 0.128671 0.554037 0.194568
O O13 0.015364 0.484636 0.236760
O O14 0.250000 0.060650 0.020143
O O15 0.383240 0.116761 0.025559
O O16 0.342547 0.010298 0.093601
O O17 0.444695 0.250000 0.428987
O O18 0.384414 0.115587 0.429488
O O19 0.459691 0.162607 0.514866
O O20 0.750000 0.554752 0.398645
O O21 0.614406 0.614406 0.398885
O O22 0.580546 0.250000 0.135332
#
# Coordination Sequence:
#
# PCOD9565352 Si02
#       8
#    16  16  16  16  16  16  16  16
#     4   9  17  30  48  68  91 124 166 203 234 274
#     4   9  17  29  45  66  92 121 154 192 234 281
#     4   9  18  32  48  67  92 121 152 187 229 276
#     4   9  18  32  48  65  89 123 159 196 236 273
#     4  10  20  33  50  72  96 122 152 185 224 273
#     4   9  17  29  47  72  99 126 156 192 236 285
#     4   9  17  29  47  72 101 130 159 194 236 282
#     4  10  20  32  48  71  94 118 152 192 233 277
#
# _framework density 16.289785999999999
#
# number of rings (size 3 to 8) (size 9 to 14) (size 15 to 20)
#    0.000    2.750    0.000    1.500    0.000    5.250 
#    0.000    1.250    0.000    4.875    0.000    7.000 
#    0.000    3.000    0.000    0.000    0.000    0.000 
#
# Total GULP energy -713293.066241 kJ/mol
# GULP energy per Si atom -5572.602080 kJ/mol
# Density = 1.625271 g / cm^3
# Si number density = 16.289786 Si / 1000 Ang^3
#
#
#
# Elastic Constant Matrix: (Units=GPa)
#
#
# Indices 1 2 3 4 5 6 
#
# 1 85.8177 48.8134 23.8806 0.0000 0.0000 0.0000
# 2 48.8134 85.8177 23.8806 0.0000 0.0000 0.0000
# 3 23.8806 23.8806 35.9742 0.0000 0.0000 0.0000
# 4 0.0000 0.0000 0.0000 14.7765 0.0000 0.0000
# 5 0.0000 0.0000 0.0000 0.0000 14.7765 0.0000
# 6 0.0000 0.0000 0.0000 0.0000 0.0000 -9.6505
#
#
#
# Elastic Compliance Matrix: (Units=1/GPa)
#
#
# Indices 1 2 3 4 5 6 
#
# 1 0.018370 -0.008654 -0.006450 0.000000 0.000000 0.000000
# 2 -0.008654 0.018370 -0.006450 0.000000 0.000000 0.000000
# 3 -0.006450 -0.006450 0.036360 0.000000 0.000000 0.000000
# 4 0.000000 0.000000 0.000000 0.067675 0.000000 0.000000
# 5 0.000000 0.000000 0.000000 0.000000 0.067675 0.000000
# 6 0.000000 0.000000 0.000000 0.000000 0.000000 -0.103621
#
#
# Mechanical properties :
#
#
# Convention : Reuss Voigt Hill
#
# Bulk Modulus (GPa) = 33.34034 44.52876 38.93455
# Shear Modulus (GPa) = 31.65893 11.38282 21.52088
#
# Velocity S-wave (km/s) = 4.41328 2.64629 3.63867
# Velocity P-wave (km/s) = 6.81768 6.06068 6.45030
#
# Compressibility (1/GPa) = 0.02999369
#
# Stress axis : x y z
#
# Youngs Moduli (GPa) = 54.43717 54.43717 27.50243
#
# Poissons Ratio (x) = 0.47110 0.17738
# Poissons Ratio (y) = 0.47110 0.17738
# Poissons Ratio (z) = 0.35109 0.35109
#
# Static dielectric constant tensor:
#      x y z
#    x 1.530620 0.000000 0.000000 
#    y 0.000000 1.530620 0.000000 
#    z 0.000000 0.000000 1.559950 
# 
# From -- ./inp_files/7266.got.cif
#   From: 2010.05.17/outbox.cif.g08.bks.cpg/sg129_4_cif.got.tgz:7266.got - 2010.05.20 12:12:06.
