data_PCOD9565469
_publ_section_title
;
Structure prediction by ZEFSAII (Michael W. Deem and Ramdas Pophale) SiO2 
 PCOD9565469
Probable space group: P 4/N M M
;
_chemical_formula_sum "Si O2"
_cell_formula_units_Z 128
_cell_length_a 24.095331
_cell_length_b 24.095331
_cell_length_c 12.814387
_cell_angle_alpha 90.000000
_cell_angle_beta 90.000000
_cell_angle_gamma 90.000000
_cell_volume 7439.840569
_symmetry_space_group_name_H-M "P 4/N M M"
_symmetry_group_IT_number 129
_symmetry_cell_setting 'tetragonal'
loop_
_space_group_symop_operation_xyz
x,y,z
1/2-y,x,z
1/2-x,1/2-y,z
y,1/2-x,z
1/2+x,-y,-z
-x,1/2+y,-z
1/2+y,1/2+x,-z
-y,-x,-z
-x,-y,-z
1/2+y,-x,-z
1/2+x,1/2+y,-z
-y,1/2+x,-z
1/2-x,y,z
x,1/2-y,z
1/2-y,1/2-x,z
y,x,z
loop_
_atom_site_type_symbol
_atom_site_label
_atom_site_fract_x
_atom_site_fract_y
_atom_site_fract_z
Si Si1 0.593346 0.685819 0.527969
Si Si2 0.103569 0.622534 0.773173
Si Si3 0.814691 0.474098 0.148843
Si Si4 0.186067 0.683268 0.618293
Si Si5 0.455990 0.955980 0.377833
Si Si6 0.485824 0.815860 0.906393
Si Si7 0.363668 0.452628 0.676741
Si Si8 0.183995 0.409182 0.234687
O O1 0.607876 0.750000 0.517469
O O2 0.647181 0.647181 0.520594
O O3 0.554211 0.668307 0.432615
O O4 0.570456 0.677326 0.645063
O O5 0.143319 0.575348 0.821661
O O6 0.144127 0.660227 0.703473
O O7 0.058624 0.595334 0.694672
O O8 0.068113 0.653950 0.860271
O O9 0.750000 0.457195 0.157294
O O10 0.826706 0.523721 0.230074
O O11 0.825694 0.491518 0.029699
O O12 0.168195 0.668195 0.500000
O O13 0.250000 0.664107 0.634642
O O14 0.186812 0.750000 0.621472
O O15 0.446093 0.946093 0.500000
O O16 0.502688 0.911961 0.343222
O O17 0.482885 0.017115 0.366033
O O18 0.478606 0.750000 0.890033
O O19 0.541487 0.831768 0.843791
O O20 0.394807 0.394807 0.701529
O O21 0.250000 0.396164 0.220957
O O22 0.144293 0.355707 0.221275
#
# Coordination Sequence:
#
# PCOD9565469 Si02
#       8
#    16  16  16  16  16  16  16  16
#     4   9  17  30  50  76 105 134 165 202 247 301
#     4  11  20  33  54  75  98 132 181 218 261 312
#     4  10  21  37  54  73 101 136 177 224 267 308
#     4   9  18  33  52  76 107 137 167 212 271 329
#     4   9  19  32  46  69 101 132 161 198 245 295
#     4  10  22  37  52  74 104 137 174 219 268 315
#     4   9  18  32  51  74 101 131 166 204 248 305
#     4   9  19  35  55  81 109 139 175 214 262 318
#
# _framework density 17.20467
#
# number of rings (size 3 to 8) (size 9 to 14) (size 15 to 20)
#    0.000    2.500    0.000    2.250    1.750    1.250 
#    0.000    1.250    0.000    3.750    0.000    5.250 
#    0.000    3.000    0.000    0.000    0.000    0.000 
#
# Total GULP energy -713503.414745 kJ/mol
# GULP energy per Si atom -5574.245428 kJ/mol
# Density = 1.716551 g / cm^3
# Si number density = 17.204670 Si / 1000 Ang^3
#
#
#
# Elastic Constant Matrix: (Units=GPa)
#
#
# Indices 1 2 3 4 5 6 
#
# 1 56.0035 29.8425 48.5756 0.0000 0.0000 0.0000
# 2 29.8425 56.0035 48.5756 0.0000 0.0000 0.0000
# 3 48.5756 48.5756 111.8864 0.0000 0.0000 0.0000
# 4 0.0000 0.0000 0.0000 25.6692 0.0000 0.0000
# 5 0.0000 0.0000 0.0000 0.0000 25.6692 0.0000
# 6 0.0000 0.0000 0.0000 0.0000 0.0000 19.2155
#
#
#
# Elastic Compliance Matrix: (Units=1/GPa)
#
#
# Indices 1 2 3 4 5 6 
#
# 1 0.030563 -0.007662 -0.009942 0.000000 0.000000 0.000000
# 2 -0.007662 0.030563 -0.009942 0.000000 0.000000 0.000000
# 3 -0.009942 -0.009942 0.017570 0.000000 0.000000 0.000000
# 4 0.000000 0.000000 0.000000 0.038957 0.000000 0.000000
# 5 0.000000 0.000000 0.000000 0.000000 0.038957 0.000000
# 6 0.000000 0.000000 0.000000 0.000000 0.000000 0.052041
#
#
# Mechanical properties :
#
#
# Convention : Reuss Voigt Hill
#
# Bulk Modulus (GPa) = 42.36888 53.09787 47.73337
# Shear Modulus (GPa) = 18.40863 20.57076 19.48969
#
# Velocity S-wave (km/s) = 3.27460 3.46157 3.36938
# Velocity P-wave (km/s) = 6.24317 6.84880 6.55299
#
# Compressibility (1/GPa) = 0.02360223
#
# Stress axis : x y z
#
# Youngs Moduli (GPa) = 32.71983 32.71983 56.91395
#
# Poissons Ratio (x) = 0.25071 0.56585
# Poissons Ratio (y) = 0.25071 0.56585
# Poissons Ratio (z) = 0.32530 0.32530
#
# Static dielectric constant tensor:
#      x y z
#    x 1.582010 0.000000 0.000000 
#    y 0.000000 1.582010 0.000000 
#    z 0.000000 0.000000 1.575240 
# 
# From -- ./inp_files/4199.got.cif
#   From: 2010.05.17/outbox.cif.g08.bks.cpg/sg129_3_cif.got.tgz:4199.got - 2010.05.20 12:12:06.
