data_PCOD9565602
_publ_section_title
;
Structure prediction by ZEFSAII (Michael W. Deem and Ramdas Pophale) SiO2 
 PCOD9565602
Probable space group: P 4/N C C
;
_chemical_formula_sum "Si O2"
_cell_formula_units_Z 68
_cell_length_a 14.290492
_cell_length_b 14.290492
_cell_length_c 15.411073
_cell_angle_alpha 90.000000
_cell_angle_beta 90.000000
_cell_angle_gamma 90.000000
_cell_volume 3147.220996
_symmetry_space_group_name_H-M "P 4/N C C"
_symmetry_group_IT_number 130
_symmetry_cell_setting 'tetragonal'
loop_
_space_group_symop_operation_xyz
x,y,z
1/2-y,x,z
1/2-x,1/2-y,z
y,1/2-x,z
1/2+x,-y,1/2-z
-x,1/2+y,1/2-z
1/2+y,1/2+x,1/2-z
-y,-x,1/2-z
-x,-y,-z
1/2+y,-x,-z
1/2+x,1/2+y,-z
-y,1/2+x,-z
1/2-x,y,1/2+z
x,1/2-y,1/2+z
1/2-y,1/2-x,1/2+z
y,x,1/2+z
loop_
_atom_site_type_symbol
_atom_site_label
_atom_site_fract_x
_atom_site_fract_y
_atom_site_fract_z
Si Si1 0.750000 0.750000 0.658318
Si Si2 0.943254 0.037451 0.846395
Si Si3 0.862170 0.648565 0.388712
Si Si4 0.851238 0.580624 0.584845
Si Si5 0.608452 0.306264 0.505384
O O1 0.786242 0.640750 0.647458
O O2 0.927638 0.072363 0.750000
O O3 0.864781 0.074356 0.911814
O O4 0.045268 0.064829 0.879471
O O5 0.933365 0.924857 0.849511
O O6 0.876681 0.755643 0.363107
O O7 0.862033 0.637506 0.493464
O O8 0.808522 0.479390 0.559801
O O9 0.701105 0.360013 0.472340
#
# Coordination Sequence:
#
# PCOD9565602 Si02
#       5
#     4  16  16  16  16
#     4  12  20  40  68 102 128 152 232 294 328 384
#     4  11  26  42  61  99 147 174 218 286 350 401
#     4  10  19  39  69  98 127 177 231 278 323 395
#     4  11  21  38  68  96 130 170 226 276 333 404
#     4  10  22  42  71  96 125 180 240 276 328 417
#
# _framework density 21.606363999999999
#
# number of rings (size 3 to 8) (size 9 to 14) (size 15 to 20)
#    0.000    1.412    2.353    4.235    9.882    0.000 
#    8.471    2.353    0.000    0.000    0.000    0.000 
#    0.000    0.000    0.000    0.000    0.000    0.000 
#
# Total GULP energy -379478.584030 kJ/mol
# GULP energy per Si atom -5580.567412 kJ/mol
# Density = 2.155719 g / cm^3
# Si number density = 21.606364 Si / 1000 Ang^3
#
#
#
# Elastic Constant Matrix: (Units=GPa)
#
#
# Indices 1 2 3 4 5 6 
#
# 1 137.7250 57.6426 19.2078 0.0000 0.0000 0.0000
# 2 57.6426 137.7244 19.2076 0.0000 0.0000 0.0000
# 3 19.2078 19.2076 39.7873 0.0000 0.0000 0.0000
# 4 0.0000 0.0000 0.0000 -1.6873 0.0000 0.0000
# 5 0.0000 0.0000 0.0000 0.0000 -1.6871 0.0000
# 6 0.0000 0.0000 0.0000 0.0000 0.0000 86.4683
#
#
#
# Elastic Compliance Matrix: (Units=1/GPa)
#
#
# Indices 1 2 3 4 5 6 
#
# 1 0.009071 -0.003416 -0.002730 0.000000 0.000000 0.000000
# 2 -0.003416 0.009071 -0.002730 0.000000 0.000000 0.000000
# 3 -0.002730 -0.002730 0.027770 0.000000 0.000000 0.000000
# 4 0.000000 0.000000 0.000000 -0.592646 0.000000 0.000000
# 5 0.000000 0.000000 0.000000 0.000000 -0.592743 0.000000
# 6 0.000000 0.000000 0.000000 0.000000 0.000000 0.011565
#
#
# Mechanical properties :
#
#
# Convention : Reuss Voigt Hill
#
# Bulk Modulus (GPa) = 35.51173 56.37253 45.94213
# Shear Modulus (GPa) = -4.54227 31.23069 13.34421
#
# Velocity S-wave (km/s) = -1.45150 3.80602 2.48786
# Velocity P-wave (km/s) = 3.69626 6.74253 5.43710
#
# Compressibility (1/GPa) = 0.02815971
#
# Stress axis : x y z
#
# Youngs Moduli (GPa) = 110.23801 110.23762 36.01047
#
# Poissons Ratio (x) = 0.37656 0.09832
# Poissons Ratio (y) = 0.37656 0.09831
# Poissons Ratio (z) = 0.30097 0.30097
#
# Static dielectric constant tensor:
#      x y z
#    x 1.802990 0.000000 0.000000 
#    y 0.000000 1.802990 0.000000 
#    z 0.000000 0.000000 1.839710 
# 
# From -- ./inp_files/2949.got.cif
#   From: 2010.05.17/outbox.cif.g08.bks.cpg/sg130_2_cif.got.tgz:2949.got - 2010.05.20 12:17:35.
