data_PCOD9565606
_publ_section_title
;
Structure prediction by ZEFSAII (Michael W. Deem and Ramdas Pophale) SiO2 
 PCOD9565606
Probable space group: P 4/N C C
;
_chemical_formula_sum "Si O2"
_cell_formula_units_Z 116
_cell_length_a 17.006607
_cell_length_b 17.006607
_cell_length_c 20.494992
_cell_angle_alpha 90.000000
_cell_angle_beta 90.000000
_cell_angle_gamma 90.000000
_cell_volume 5927.657537
_symmetry_space_group_name_H-M "P 4/N C C"
_symmetry_group_IT_number 130
_symmetry_cell_setting 'tetragonal'
loop_
_space_group_symop_operation_xyz
x,y,z
1/2-y,x,z
1/2-x,1/2-y,z
y,1/2-x,z
1/2+x,-y,1/2-z
-x,1/2+y,1/2-z
1/2+y,1/2+x,1/2-z
-y,-x,1/2-z
-x,-y,-z
1/2+y,-x,-z
1/2+x,1/2+y,-z
-y,1/2+x,-z
1/2-x,y,1/2+z
x,1/2-y,1/2+z
1/2-y,1/2-x,1/2+z
y,x,1/2+z
loop_
_atom_site_type_symbol
_atom_site_label
_atom_site_fract_x
_atom_site_fract_y
_atom_site_fract_z
Si Si1 0.849906 0.901984 0.444850
Si Si2 0.533273 0.740359 0.672293
Si Si3 0.587890 0.920373 0.209862
Si Si4 0.799071 0.147251 0.033955
Si Si5 0.059829 0.995359 0.659017
Si Si6 0.250000 0.250000 0.599000
Si Si7 0.705188 0.966459 0.522750
Si Si8 0.169797 0.639196 0.319188
O O1 0.905623 0.956666 0.400958
O O2 0.806528 0.830338 0.406837
O O3 0.780574 0.953905 0.476398
O O4 0.904763 0.860011 0.498954
O O5 0.585066 0.673647 0.706376
O O6 0.548656 0.826285 0.697870
O O7 0.551167 0.733592 0.595764
O O8 0.443006 0.716365 0.683550
O O9 0.554048 0.943509 0.279921
O O10 0.526043 0.954693 0.156310
O O11 0.809181 0.172565 0.109541
O O12 0.823809 0.056851 0.024281
O O13 0.708425 0.154950 0.011656
O O14 0.117537 0.922983 0.676748
O O15 0.182158 0.682158 0.250000
#
# Coordination Sequence:
#
# PCOD9565606 Si02
#       8
#    16  16  16  16  16   4  16  16
#     4  10  20  36  60  87 125 162 199 252 315 379
#     4  10  20  36  61  88 127 159 204 257 310 378
#     4  10  21  38  58  90 122 160 209 257 313 371
#     4  10  22  40  61  89 128 162 212 272 318 380
#     4  10  20  39  62  86 119 164 214 259 302 377
#     4   8  20  36  48  88 126 148 192 244 308 386
#     4  10  21  37  59  92 122 163 203 249 315 380
#     4  10  19  41  67  86 119 174 211 260 324 376
#
# _framework density 19.569282000000001
#
# number of rings (size 3 to 8) (size 9 to 14) (size 15 to 20)
#    0.000    2.069    2.759    1.655    0.000    4.690 
#    2.483   10.345    6.069    0.000    0.000    0.000 
#    0.000    0.000    0.000    0.000    0.000    0.000 
#
# Total GULP energy -646057.931045 kJ/mol
# GULP energy per Si atom -5569.464923 kJ/mol
# Density = 1.952474 g / cm^3
# Si number density = 19.569282 Si / 1000 Ang^3
#
#
#
# Elastic Constant Matrix: (Units=GPa)
#
#
# Indices 1 2 3 4 5 6 
#
# 1 87.4407 4.2020 31.9874 0.0000 0.0000 0.0000
# 2 4.2020 87.4407 31.9874 0.0000 0.0000 0.0000
# 3 31.9874 31.9874 108.5825 0.0000 0.0000 0.0000
# 4 0.0000 0.0000 0.0000 30.3113 0.0000 0.0000
# 5 0.0000 0.0000 0.0000 0.0000 30.3113 0.0000
# 6 0.0000 0.0000 0.0000 0.0000 0.0000 24.8691
#
#
#
# Elastic Compliance Matrix: (Units=1/GPa)
#
#
# Indices 1 2 3 4 5 6 
#
# 1 0.012875 0.000862 -0.004047 0.000000 0.000000 0.000000
# 2 0.000862 0.012875 -0.004047 0.000000 0.000000 0.000000
# 3 -0.004047 -0.004047 0.011594 0.000000 0.000000 0.000000
# 4 0.000000 0.000000 0.000000 0.032991 0.000000 0.000000
# 5 0.000000 0.000000 0.000000 0.000000 0.032991 0.000000
# 6 0.000000 0.000000 0.000000 0.000000 0.000000 0.040211
#
#
# Mechanical properties :
#
#
# Convention : Reuss Voigt Hill
#
# Bulk Modulus (GPa) = 43.70498 46.64636 45.17567
# Shear Modulus (GPa) = 30.18817 31.45080 30.81949
#
# Velocity S-wave (km/s) = 3.93189 4.01328 3.97279
# Velocity P-wave (km/s) = 6.55706 6.73524 6.64675
#
# Compressibility (1/GPa) = 0.02288069
#
# Stress axis : x y z
#
# Youngs Moduli (GPa) = 77.66807 77.66807 86.25249
#
# Poissons Ratio (x) = -0.06692 0.34904
# Poissons Ratio (y) = -0.06692 0.34904
# Poissons Ratio (z) = 0.31431 0.31431
#
# Static dielectric constant tensor:
#      x y z
#    x 1.665330 0.000000 0.000000 
#    y 0.000000 1.665330 0.000000 
#    z 0.000000 0.000000 1.713010 
# 
# From -- ./inp_files/3234.got.cif
#   From: 2010.05.17/outbox.cif.g08.bks.cpg/sg130_2_cif.got.tgz:3234.got - 2010.05.20 12:17:35.
