data_PCOD9565318
_publ_section_title
;
Structure prediction by ZEFSAII (Michael W. Deem and Ramdas Pophale) SiO2 
 PCOD9565318
Probable space group: P 4/N M M
;
_chemical_formula_sum "Si O2"
_cell_formula_units_Z 112
_cell_length_a 31.195342
_cell_length_b 31.195342
_cell_length_c 6.903996
_cell_angle_alpha 90.000000
_cell_angle_beta 90.000000
_cell_angle_gamma 90.000000
_cell_volume 6718.619306
_symmetry_space_group_name_H-M "P 4/N M M"
_symmetry_group_IT_number 129
_symmetry_cell_setting 'tetragonal'
loop_
_space_group_symop_operation_xyz
x,y,z
1/2-y,x,z
1/2-x,1/2-y,z
y,1/2-x,z
1/2+x,-y,-z
-x,1/2+y,-z
1/2+y,1/2+x,-z
-y,-x,-z
-x,-y,-z
1/2+y,-x,-z
1/2+x,1/2+y,-z
-y,1/2+x,-z
1/2-x,y,z
x,1/2-y,z
1/2-y,1/2-x,z
y,x,z
loop_
_atom_site_type_symbol
_atom_site_label
_atom_site_fract_x
_atom_site_fract_y
_atom_site_fract_z
Si Si1 0.566839 0.004210 0.621809
Si Si2 0.586460 0.845759 0.158989
Si Si3 0.445544 0.621616 0.941064
Si Si4 0.465232 0.699964 0.676206
Si Si5 0.353944 0.505105 0.666442
Si Si6 0.702489 0.935471 0.795425
Si Si7 0.297661 0.365728 0.532494
O O1 0.536839 0.036839 0.500000
O O2 0.587621 0.026927 0.810702
O O3 0.606720 0.995794 0.479347
O O4 0.537576 0.962425 0.665305
O O5 0.607472 0.892529 0.187630
O O6 0.541009 0.838923 0.260250
O O7 0.619097 0.812659 0.256864
O O8 0.579683 0.834610 0.936697
O O9 0.441441 0.664988 0.812065
O O10 0.401416 0.598585 0.000000
O O11 0.469705 0.631874 0.141489
O O12 0.451311 0.750000 0.684090
O O13 0.468700 0.681086 0.458362
O O14 0.514530 0.698505 0.749482
O O15 0.750000 0.928923 0.884778
O O16 0.700893 0.907274 0.603469
O O17 0.250000 0.348327 0.534095
O O18 0.331223 0.331223 0.457981
#
# Coordination Sequence:
#
# PCOD9565318 Si02
#       7
#    16  16  16  16  16  16  16
#     4  10  21  35  51  74 109 151 199 239 271 323
#     4  11  21  32  49  74 100 130 171 221 277 330
#     4  11  22  38  57  81 114 152 190 227 280 328
#     4  10  22  37  57  82 108 142 187 232 274 328
#     4  11  21  36  51  75 106 147 185 233 279 325
#     4  10  19  34  52  72  98 128 168 223 276 327
#     4  10  21  36  52  71  96 125 165 221 286 350
#
# _framework density 16.670093000000001
#
# number of rings (size 3 to 8) (size 9 to 14) (size 15 to 20)
#    0.000    1.571    4.286    1.286    0.000    2.714 
#    0.000    0.000    0.000    0.000    0.000    2.000 
#    0.000    0.286    0.000    0.286    0.000    0.000 
#
# Total GULP energy -624466.011888 kJ/mol
# GULP energy per Si atom -5575.589392 kJ/mol
# Density = 1.663215 g / cm^3
# Si number density = 16.670093 Si / 1000 Ang^3
#
#
#
# Elastic Constant Matrix: (Units=GPa)
#
#
# Indices 1 2 3 4 5 6 
#
# 1 74.5665 30.5611 29.8682 0.0000 0.0000 0.0000
# 2 30.5611 74.5661 29.8660 0.0000 0.0000 0.0000
# 3 29.8682 29.8660 88.1982 0.0000 0.0000 0.0000
# 4 0.0000 0.0000 0.0000 22.3345 0.0000 0.0000
# 5 0.0000 0.0000 0.0000 0.0000 22.3350 0.0000
# 6 0.0000 0.0000 0.0000 0.0000 0.0000 11.7911
#
#
#
# Elastic Compliance Matrix: (Units=1/GPa)
#
#
# Indices 1 2 3 4 5 6 
#
# 1 0.017252 -0.005473 -0.003989 0.000000 0.000000 0.000000
# 2 -0.005473 0.017252 -0.003988 0.000000 0.000000 0.000000
# 3 -0.003989 -0.003988 0.014040 0.000000 0.000000 0.000000
# 4 0.000000 0.000000 0.000000 0.044774 0.000000 0.000000
# 5 0.000000 0.000000 0.000000 0.000000 0.044773 0.000000
# 6 0.000000 0.000000 0.000000 0.000000 0.000000 0.084810
#
#
# Mechanical properties :
#
#
# Convention : Reuss Voigt Hill
#
# Bulk Modulus (GPa) = 46.20619 46.43572 46.32095
# Shear Modulus (GPa) = 19.45420 21.09448 20.27434
#
# Velocity S-wave (km/s) = 3.41986 3.56112 3.49120
# Velocity P-wave (km/s) = 6.58575 6.69514 6.64067
#
# Compressibility (1/GPa) = 0.02164212
#
# Stress axis : x y z
#
# Youngs Moduli (GPa) = 57.96504 57.96596 71.22741
#
# Poissons Ratio (x) = 0.31725 0.28413
# Poissons Ratio (y) = 0.31724 0.28408
# Poissons Ratio (z) = 0.23122 0.23119
#
# Static dielectric constant tensor:
#      x y z
#    x 1.571680 0.000000 0.000000 
#    y 0.000000 1.571680 0.000000 
#    z 0.000000 0.000000 1.584590 
# 
# From -- ./inp_files/1172.got.cif
#   From: 2010.05.17/outbox.cif.g08.bks.cpg/sg129_1_cif.got.tgz:1172.got - 2010.05.20 12:12:06.
