data_PCOD9565381
_publ_section_title
;
Structure prediction by ZEFSAII (Michael W. Deem and Ramdas Pophale) SiO2 
 PCOD9565381
Probable space group: P 4/N M M
;
_chemical_formula_sum "Si O2"
_cell_formula_units_Z 88
_cell_length_a 13.701211
_cell_length_b 13.701211
_cell_length_c 28.368154
_cell_angle_alpha 90.000000
_cell_angle_beta 90.000000
_cell_angle_gamma 90.000000
_cell_volume 5325.360161
_symmetry_space_group_name_H-M "P 4/N M M"
_symmetry_group_IT_number 129
_symmetry_cell_setting 'tetragonal'
loop_
_space_group_symop_operation_xyz
x,y,z
1/2-y,x,z
1/2-x,1/2-y,z
y,1/2-x,z
1/2+x,-y,-z
-x,1/2+y,-z
1/2+y,1/2+x,-z
-y,-x,-z
-x,-y,-z
1/2+y,-x,-z
1/2+x,1/2+y,-z
-y,1/2+x,-z
1/2-x,y,z
x,1/2-y,z
1/2-y,1/2-x,z
y,x,z
loop_
_atom_site_type_symbol
_atom_site_label
_atom_site_fract_x
_atom_site_fract_y
_atom_site_fract_z
Si Si1 0.974760 0.134101 0.402908
Si Si2 0.135983 0.864017 0.500000
Si Si3 0.865627 0.472270 0.319037
Si Si4 0.866066 0.474591 0.765012
Si Si5 0.135243 0.864245 0.137810
Si Si6 0.634420 0.475352 0.041074
O O1 0.984587 0.250000 0.395997
O O2 0.930807 0.116221 0.454892
O O3 0.901446 0.088400 0.364569
O O4 0.076081 0.076081 0.397721
O O5 0.250000 0.876732 0.513290
O O6 0.750000 0.486283 0.318939
O O7 0.901704 0.410990 0.273740
O O8 0.926731 0.573270 0.318916
O O9 0.750000 0.484473 0.758662
O O10 0.885176 0.429921 0.816755
O O11 0.924014 0.575987 0.759869
O O12 0.250000 0.874774 0.126082
O O13 0.118826 0.750000 0.149765
O O14 0.072403 0.888042 0.091866
O O15 0.750000 0.487384 0.037238
O O16 0.576036 0.576036 0.036660
O O17 0.594989 0.405012 0.000000
#
# Coordination Sequence:
#
# PCOD9565381 Si02
#       6
#    16   8  16  16  16  16
#     4  10  20  33  50  73 101 133 168 205 244 287
#     4   9  17  30  50  74  97 125 164 208 251 293
#     4  10  21  36  54  76 100 126 159 200 246 296
#     4  10  20  33  50  73 101 133 168 204 241 282
#     4   9  17  30  50  74  97 124 161 203 244 287
#     4  10  20  33  50  72  98 128 162 201 244 290
#
# _framework density 16.524704
#
# number of rings (size 3 to 8) (size 9 to 14) (size 15 to 20)
#    0.000    2.273    0.000    3.000    0.000    4.545 
#    0.000    0.000    0.000    3.273    0.000    7.636 
#    0.000    0.000    0.000    0.000    0.000    0.000 
#
# Total GULP energy -490977.227146 kJ/mol
# GULP energy per Si atom -5579.286672 kJ/mol
# Density = 1.648709 g / cm^3
# Si number density = 16.524704 Si / 1000 Ang^3
#
#
#
# Elastic Constant Matrix: (Units=GPa)
#
#
# Indices 1 2 3 4 5 6 
#
# 1 125.8215 74.6882 65.2606 0.0000 0.0000 0.0000
# 2 74.6882 125.8302 65.2614 0.0000 0.0000 0.0000
# 3 65.2606 65.2614 98.5814 0.0000 0.0000 0.0000
# 4 0.0000 0.0000 0.0000 22.4791 0.0000 0.0000
# 5 0.0000 0.0000 0.0000 0.0000 22.4797 0.0000
# 6 0.0000 0.0000 0.0000 0.0000 0.0000 12.7725
#
#
#
# Elastic Compliance Matrix: (Units=1/GPa)
#
#
# Indices 1 2 3 4 5 6 
#
# 1 0.014160 -0.005396 -0.005802 0.000000 0.000000 0.000000
# 2 -0.005396 0.014159 -0.005801 0.000000 0.000000 0.000000
# 3 -0.005802 -0.005801 0.017825 0.000000 0.000000 0.000000
# 4 0.000000 0.000000 0.000000 0.044486 0.000000 0.000000
# 5 0.000000 0.000000 0.000000 0.000000 0.044485 0.000000
# 6 0.000000 0.000000 0.000000 0.000000 0.000000 0.078293
#
#
# Mechanical properties :
#
#
# Convention : Reuss Voigt Hill
#
# Bulk Modulus (GPa) = 82.32982 84.51704 83.42343
# Shear Modulus (GPa) = 19.88437 21.21444 20.54940
#
# Velocity S-wave (km/s) = 3.47264 3.58690 3.53024
# Velocity P-wave (km/s) = 8.12462 8.27112 8.19820
#
# Compressibility (1/GPa) = 0.01214627
#
# Stress axis : x y z
#
# Youngs Moduli (GPa) = 70.62151 70.62808 56.10061
#
# Poissons Ratio (x) = 0.38109 0.32549
# Poissons Ratio (y) = 0.38105 0.32545
# Poissons Ratio (z) = 0.40974 0.40972
#
# Static dielectric constant tensor:
#      x y z
#    x 1.531240 0.000000 0.000000 
#    y 0.000000 1.531240 0.000000 
#    z 0.000000 0.000000 1.548360 
# 
# From -- ./inp_files/7745.got.cif
#   From: 2010.05.17/outbox.cif.g08.bks.cpg/sg129_4_cif.got.tgz:7745.got - 2010.05.20 12:12:06.
