data_PCOD9565914
_publ_section_title
;
Structure prediction by ZEFSAII (Michael W. Deem and Ramdas Pophale) SiO2 
 PCOD9565914
Probable space group: P 4/N C C
;
_chemical_formula_sum "Si O2"
_cell_formula_units_Z 64
_cell_length_a 13.140579
_cell_length_b 13.140579
_cell_length_c 13.872300
_cell_angle_alpha 90.000000
_cell_angle_beta 90.000000
_cell_angle_gamma 90.000000
_cell_volume 2395.396856
_symmetry_space_group_name_H-M "P 4/N C C"
_symmetry_group_IT_number 130
_symmetry_cell_setting 'tetragonal'
loop_
_space_group_symop_operation_xyz
x,y,z
1/2-y,x,z
1/2-x,1/2-y,z
y,1/2-x,z
1/2+x,-y,1/2-z
-x,1/2+y,1/2-z
1/2+y,1/2+x,1/2-z
-y,-x,1/2-z
-x,-y,-z
1/2+y,-x,-z
1/2+x,1/2+y,-z
-y,1/2+x,-z
1/2-x,y,1/2+z
x,1/2-y,1/2+z
1/2-y,1/2-x,1/2+z
y,x,1/2+z
loop_
_atom_site_type_symbol
_atom_site_label
_atom_site_fract_x
_atom_site_fract_y
_atom_site_fract_z
Si Si1 0.998918 0.113706 0.893138
Si Si2 0.358073 0.778768 0.851142
Si Si3 0.980313 0.672969 0.229863
Si Si4 0.613210 0.838754 0.424379
O O1 0.014646 0.225701 0.838864
O O2 0.072969 0.036442 0.835841
O O3 0.878323 0.089324 0.894547
O O4 0.030761 0.116632 0.003864
O O5 0.250000 0.750000 0.898779
O O6 0.323370 0.823370 0.750000
O O7 0.431161 0.690174 0.812560
O O8 0.891475 0.658754 0.308802
O O9 0.615340 0.720752 0.452614
#
# Coordination Sequence:
#
# PCOD9565914 Si02
#       4
#    16  16  16  16
#     4  11  22  43  73 104 143 194 243 304 369 437
#     4   9  22  48  71 102 143 194 246 297 370 442
#     4  11  22  43  73 103 143 189 243 305 366 438
#     4  11  22  38  66 107 145 183 243 306 375 439
#
# _framework density 26.717914
#
# number of rings (size 3 to 8) (size 9 to 14) (size 15 to 20)
#    0.000    1.500    5.000    0.000    0.000    0.500 
#   31.500    1.250    0.000    0.000    0.000    0.000 
#    0.000    0.000    0.000    0.000    0.000    0.000 
#
# Total GULP energy -357002.580817 kJ/mol
# GULP energy per Si atom -5578.165325 kJ/mol
# Density = 2.665710 g / cm^3
# Si number density = 26.717914 Si / 1000 Ang^3
#
#
#
# Elastic Constant Matrix: (Units=GPa)
#
#
# Indices 1 2 3 4 5 6 
#
# 1 88.1267 117.4174 35.1584 0.0000 0.0000 0.0000
# 2 117.4174 88.1267 35.1584 0.0000 0.0000 0.0000
# 3 35.1584 35.1584 148.9860 0.0000 0.0000 0.0000
# 4 0.0000 0.0000 0.0000 21.6179 0.0000 0.0000
# 5 0.0000 0.0000 0.0000 0.0000 21.6179 0.0000
# 6 0.0000 0.0000 0.0000 0.0000 0.0000 20.9907
#
#
#
# Elastic Compliance Matrix: (Units=1/GPa)
#
#
# Indices 1 2 3 4 5 6 
#
# 1 -0.014424 0.019716 -0.001249 0.000000 0.000000 0.000000
# 2 0.019716 -0.014424 -0.001249 0.000000 0.000000 0.000000
# 3 -0.001249 -0.001249 0.007301 0.000000 0.000000 0.000000
# 4 0.000000 0.000000 0.000000 0.046258 0.000000 0.000000
# 5 0.000000 0.000000 0.000000 0.000000 0.046258 0.000000
# 6 0.000000 0.000000 0.000000 0.000000 0.000000 0.047640
#
#
# Mechanical properties :
#
#
# Convention : Reuss Voigt Hill
#
# Bulk Modulus (GPa) = 77.57600 77.85644 77.71622
# Shear Modulus (GPa) = 56.51694 22.01232 39.26463
#
# Velocity S-wave (km/s) = 4.60425 2.87344 3.83769
# Velocity P-wave (km/s) = 7.57389 6.34132 6.98484
#
# Compressibility (1/GPa) = 0.01289058
#
# Stress axis : x y z
#
# Youngs Moduli (GPa) = -69.32872 -69.32872 136.95828
#
# Poissons Ratio (x) = 1.36692 0.17105
# Poissons Ratio (y) = 1.36692 0.17105
# Poissons Ratio (z) = -0.08659 -0.08659
#
# Static dielectric constant tensor:
#      x y z
#    x 2.310990 0.000000 0.000000 
#    y 0.000000 2.310990 0.000000 
#    z 0.000000 0.000000 1.980490 
# 
# From -- ./inp_files/2166.got.cif
#   From: 2010.05.17/outbox.cif.g08.bks.cpg/sg130_2_cif.got.tgz:2166.got - 2010.05.20 12:17:35.
