data_PCOD9565801
_publ_section_title
;
Structure prediction by ZEFSAII (Michael W. Deem and Ramdas Pophale) SiO2 
 PCOD9565801
Probable space group: P 4/N C C
;
_chemical_formula_sum "Si O2"
_cell_formula_units_Z 80
_cell_length_a 11.036762
_cell_length_b 11.036762
_cell_length_c 33.704553
_cell_angle_alpha 90.000000
_cell_angle_beta 90.000000
_cell_angle_gamma 90.000000
_cell_volume 4105.555492
_symmetry_space_group_name_H-M "P 4/N C C"
_symmetry_group_IT_number 130
_symmetry_cell_setting 'tetragonal'
loop_
_space_group_symop_operation_xyz
x,y,z
1/2-y,x,z
1/2-x,1/2-y,z
y,1/2-x,z
1/2+x,-y,1/2-z
-x,1/2+y,1/2-z
1/2+y,1/2+x,1/2-z
-y,-x,1/2-z
-x,-y,-z
1/2+y,-x,-z
1/2+x,1/2+y,-z
-y,1/2+x,-z
1/2-x,y,1/2+z
x,1/2-y,1/2+z
1/2-y,1/2-x,1/2+z
y,x,1/2+z
loop_
_atom_site_type_symbol
_atom_site_label
_atom_site_fract_x
_atom_site_fract_y
_atom_site_fract_z
Si Si1 0.876696 0.315894 0.601048
Si Si2 0.633493 0.337612 0.189459
Si Si3 0.195062 0.447996 0.447486
Si Si4 0.219083 0.048919 0.037328
Si Si5 0.448493 0.209886 0.760811
O O1 0.750000 0.250000 0.606017
O O2 0.924267 0.332414 0.645743
O O3 0.849730 0.445127 0.580662
O O4 0.953693 0.228758 0.572345
O O5 0.750000 0.250000 0.192622
O O6 0.684026 0.469965 0.200689
O O7 0.535931 0.303905 0.222927
O O8 0.106583 0.331171 0.442701
O O9 0.197499 0.498575 0.492781
O O10 0.347721 0.117906 0.040743
O O11 0.387925 0.341250 0.760090
#
# Coordination Sequence:
#
# PCOD9565801 Si02
#       5
#    16  16  16  16  16
#     4  11  25  37  58  92 123 160 200 244 303 357
#     4  10  24  41  59  91 129 155 190 251 302 349
#     4   9  21  40  60  84 117 160 207 255 299 344
#     4   9  21  40  60  84 117 160 207 255 299 344
#     4  10  22  41  69  93 112 156 203 240 296 367
#
# _framework density 19.485793000000001
#
# number of rings (size 3 to 8) (size 9 to 14) (size 15 to 20)
#    0.000    2.200    0.000    2.400   11.200    4.800 
#    0.000    4.000    0.000    0.000    0.000    0.000 
#    0.000    0.000    0.000    0.000    0.000    0.000 
#
# Total GULP energy -446415.476099 kJ/mol
# GULP energy per Si atom -5580.193451 kJ/mol
# Density = 1.944144 g / cm^3
# Si number density = 19.485793 Si / 1000 Ang^3
#
#
#
# Elastic Constant Matrix: (Units=GPa)
#
#
# Indices 1 2 3 4 5 6 
#
# 1 48.4463 7.5393 4.5990 0.0000 0.0000 0.0000
# 2 7.5393 48.4463 4.5990 0.0000 0.0000 0.0000
# 3 4.5990 4.5990 56.4456 0.0000 0.0000 0.0000
# 4 0.0000 0.0000 0.0000 15.3002 0.0000 0.0000
# 5 0.0000 0.0000 0.0000 0.0000 15.3002 0.0000
# 6 0.0000 0.0000 0.0000 0.0000 0.0000 0.7855
#
#
#
# Elastic Compliance Matrix: (Units=1/GPa)
#
#
# Indices 1 2 3 4 5 6 
#
# 1 0.021275 -0.003171 -0.001475 0.000000 0.000000 0.000000
# 2 -0.003171 0.021275 -0.001475 0.000000 0.000000 0.000000
# 3 -0.001475 -0.001475 0.017957 0.000000 0.000000 0.000000
# 4 0.000000 0.000000 0.000000 0.065359 0.000000 0.000000
# 5 0.000000 0.000000 0.000000 0.000000 0.065359 0.000000
# 6 0.000000 0.000000 0.000000 0.000000 0.000000 1.273131
#
#
# Mechanical properties :
#
#
# Convention : Reuss Voigt Hill
#
# Bulk Modulus (GPa) = 20.71919 20.75699 20.73809
# Shear Modulus (GPa) = 3.34967 15.38389 9.36678
#
# Velocity S-wave (km/s) = 1.31254 2.81284 2.19486
# Velocity P-wave (km/s) = 3.59904 4.60705 4.13388
#
# Compressibility (1/GPa) = 0.04826443
#
# Stress axis : x y z
#
# Youngs Moduli (GPa) = 47.00380 47.00380 55.69004
#
# Poissons Ratio (x) = 0.14904 0.08215
# Poissons Ratio (y) = 0.14904 0.08215
# Poissons Ratio (z) = 0.06933 0.06933
#
# Static dielectric constant tensor:
#      x y z
#    x 1.678420 0.000000 0.000000 
#    y 0.000000 1.678420 0.000000 
#    z 0.000000 0.000000 1.717830 
# 
# From -- ./inp_files/4760.got.cif
#   From: 2010.05.17/outbox.cif.g08.bks.cpg/sg130_3_cif.got.tgz:4760.got - 2010.05.20 12:17:35.
