data_PCOD9565254
_publ_section_title
;
Structure prediction by ZEFSAII (Michael W. Deem and Ramdas Pophale) SiO2 
 PCOD9565254
Probable space group: P 4/N M M
;
_chemical_formula_sum "Si O2"
_cell_formula_units_Z 72
_cell_length_a 26.784248
_cell_length_b 26.784248
_cell_length_c 6.185351
_cell_angle_alpha 90.000000
_cell_angle_beta 90.000000
_cell_angle_gamma 90.000000
_cell_volume 4437.345701
_symmetry_space_group_name_H-M "P 4/N M M"
_symmetry_group_IT_number 129
_symmetry_cell_setting 'tetragonal'
loop_
_space_group_symop_operation_xyz
x,y,z
1/2-y,x,z
1/2-x,1/2-y,z
y,1/2-x,z
1/2+x,-y,-z
-x,1/2+y,-z
1/2+y,1/2+x,-z
-y,-x,-z
-x,-y,-z
1/2+y,-x,-z
1/2+x,1/2+y,-z
-y,1/2+x,-z
1/2-x,y,z
x,1/2-y,z
1/2-y,1/2-x,z
y,x,z
loop_
_atom_site_type_symbol
_atom_site_label
_atom_site_fract_x
_atom_site_fract_y
_atom_site_fract_z
Si Si1 0.483431 0.483431 0.755777
Si Si2 0.627885 0.952108 0.833242
Si Si3 0.692060 0.889239 0.498348
Si Si4 0.606162 0.026878 0.456080
Si Si5 0.807496 0.511821 0.213752
O O1 0.500000 0.500000 0.500000
O O2 0.426245 0.499552 0.730390
O O3 0.500000 0.500000 0.000000
O O4 0.584125 0.915876 0.921623
O O5 0.665268 0.915709 0.701384
O O6 0.603442 0.991188 0.665681
O O7 0.662169 0.982969 0.994112
O O8 0.750000 0.877047 0.539294
O O9 0.658623 0.841378 0.439229
O O10 0.690126 0.932551 0.317780
O O11 0.579554 0.079554 0.500000
O O12 0.662691 0.025015 0.373624
O O13 0.750000 0.498275 0.185688
#
# Coordination Sequence:
#
# PCOD9565254 Si02
#       5
#     8  16  16  16  16
#     4  10  22  34  52  82 116 144 177 222 275 328
#     4  10  19  31  49  70  96 130 170 211 272 318
#     4   9  18  32  45  65  89 120 170 219 270 320
#     4  10  22  33  50  76 104 137 172 219 266 323
#     4  10  21  33  49  68  96 134 171 214 263 326
#
# _framework density 16.225916000000002
#
# number of rings (size 3 to 8) (size 9 to 14) (size 15 to 20)
#    0.000    2.222    1.111    1.333    9.333    1.111 
#    0.000    0.000    0.000    0.000    0.000    3.111 
#    0.000    0.444    0.000    0.444    0.000    0.000 
#
# Total GULP energy -400909.266844 kJ/mol
# GULP energy per Si atom -5568.184262 kJ/mol
# Density = 1.618899 g / cm^3
# Si number density = 16.225916 Si / 1000 Ang^3
#
#
#
# Elastic Constant Matrix: (Units=GPa)
#
#
# Indices 1 2 3 4 5 6 
#
# 1 96.7754 51.6487 30.2867 0.0000 0.0000 0.0000
# 2 51.6487 96.7754 30.2867 0.0000 0.0000 0.0000
# 3 30.2867 30.2867 58.6282 0.0000 0.0000 0.0000
# 4 0.0000 0.0000 0.0000 19.4747 0.0000 0.0000
# 5 0.0000 0.0000 0.0000 0.0000 19.4747 0.0000
# 6 0.0000 0.0000 0.0000 0.0000 0.0000 23.9511
#
#
#
# Elastic Compliance Matrix: (Units=1/GPa)
#
#
# Indices 1 2 3 4 5 6 
#
# 1 0.015349 -0.006811 -0.004410 0.000000 0.000000 0.000000
# 2 -0.006811 0.015349 -0.004410 0.000000 0.000000 0.000000
# 3 -0.004410 -0.004410 0.021613 0.000000 0.000000 0.000000
# 4 0.000000 0.000000 0.000000 0.051349 0.000000 0.000000
# 5 0.000000 0.000000 0.000000 0.000000 0.051349 0.000000
# 6 0.000000 0.000000 0.000000 0.000000 0.000000 0.041752
#
#
# Mechanical properties :
#
#
# Convention : Reuss Voigt Hill
#
# Bulk Modulus (GPa) = 47.51327 52.95815 50.23571
# Shear Modulus (GPa) = 21.27310 21.91058 21.59184
#
# Velocity S-wave (km/s) = 3.62478 3.67869 3.65183
# Velocity P-wave (km/s) = 6.84577 7.12408 6.98631
#
# Compressibility (1/GPa) = 0.02104675
#
# Stress axis : x y z
#
# Youngs Moduli (GPa) = 65.15262 65.15262 46.26784
#
# Poissons Ratio (x) = 0.44377 0.20406
# Poissons Ratio (y) = 0.44377 0.20406
# Poissons Ratio (z) = 0.28734 0.28734
#
# Static dielectric constant tensor:
#      x y z
#    x 1.560740 0.000000 0.000000 
#    y 0.000000 1.560740 0.000000 
#    z 0.000000 0.000000 1.613270 
# 
# From -- ./inp_files/884.got.cif
#   From: 2010.05.17/outbox.cif.g08.bks.cpg/sg129_1_cif.got.tgz:884.got - 2010.05.20 12:12:06.
