data_PCOD9565384
_publ_section_title
;
Structure prediction by ZEFSAII (Michael W. Deem and Ramdas Pophale) SiO2 
 PCOD9565384
Probable space group: P 4/N M M
;
_chemical_formula_sum "Si O2"
_cell_formula_units_Z 88
_cell_length_a 13.557838
_cell_length_b 13.557838
_cell_length_c 28.865554
_cell_angle_alpha 90.000000
_cell_angle_beta 90.000000
_cell_angle_gamma 90.000000
_cell_volume 5305.920978
_symmetry_space_group_name_H-M "P 4/N M M"
_symmetry_group_IT_number 129
_symmetry_cell_setting 'tetragonal'
loop_
_space_group_symop_operation_xyz
x,y,z
1/2-y,x,z
1/2-x,1/2-y,z
y,1/2-x,z
1/2+x,-y,-z
-x,1/2+y,-z
1/2+y,1/2+x,-z
-y,-x,-z
-x,-y,-z
1/2+y,-x,-z
1/2+x,1/2+y,-z
-y,1/2+x,-z
1/2-x,y,z
x,1/2-y,z
1/2-y,1/2-x,z
y,x,z
loop_
_atom_site_type_symbol
_atom_site_label
_atom_site_fract_x
_atom_site_fract_y
_atom_site_fract_z
Si Si1 0.867087 0.472588 0.096104
Si Si2 0.369456 0.862433 0.274532
Si Si3 0.632788 0.471605 0.820161
Si Si4 0.633724 0.366276 0.000000
Si Si5 0.468687 0.867233 0.456176
Si Si6 0.368163 0.971119 0.370016
O O1 0.750000 0.483720 0.099378
O O2 0.906082 0.400057 0.136140
O O3 0.891504 0.427257 0.045779
O O4 0.925614 0.574387 0.101834
O O5 0.250000 0.857946 0.273867
O O6 0.406402 0.750000 0.276425
O O7 0.398290 0.916429 0.227170
O O8 0.394981 0.923166 0.320481
O O9 0.750000 0.485396 0.819695
O O10 0.573822 0.573822 0.823090
O O11 0.750000 0.380817 0.990249
O O12 0.405960 0.905960 0.500000
O O13 0.482577 0.750000 0.457860
O O14 0.409281 0.900532 0.410385
O O15 0.571058 0.928943 0.456560
O O16 0.250000 0.981144 0.373130
O O17 0.425327 0.074674 0.374823
#
# Coordination Sequence:
#
# PCOD9565384 Si02
#       6
#    16  16  16   8  16  16
#     4  10  20  33  50  72  98 129 165 204 245 290
#     4   9  17  30  49  71  95 126 164 204 244 286
#     4  10  20  33  50  73 100 130 165 204 247 297
#     4   9  17  30  50  74  97 123 158 200 245 293
#     4  10  21  36  54  77 103 132 168 208 251 301
#     4  10  20  33  50  74 103 135 172 211 252 299
#
# _framework density 16.585245
#
# number of rings (size 3 to 8) (size 9 to 14) (size 15 to 20)
#    0.000    2.273    0.000    3.000    0.000    4.545 
#    0.000    0.000    0.000    6.545    0.000    2.545 
#    0.000   13.091    0.000    0.000    0.000    0.000 
#
# Total GULP energy -490849.742846 kJ/mol
# GULP energy per Si atom -5577.837987 kJ/mol
# Density = 1.654750 g / cm^3
# Si number density = 16.585245 Si / 1000 Ang^3
#
#
#
# Elastic Constant Matrix: (Units=GPa)
#
#
# Indices 1 2 3 4 5 6 
#
# 1 106.7648 66.5426 53.8389 0.0000 0.0000 0.0000
# 2 66.5426 106.7648 53.8389 0.0000 0.0000 0.0000
# 3 53.8389 53.8389 132.0801 0.0000 0.0000 0.0000
# 4 0.0000 0.0000 0.0000 24.2429 0.0000 0.0000
# 5 0.0000 0.0000 0.0000 0.0000 24.2429 0.0000
# 6 0.0000 0.0000 0.0000 0.0000 0.0000 7.3884
#
#
#
# Elastic Compliance Matrix: (Units=1/GPa)
#
#
# Indices 1 2 3 4 5 6 
#
# 1 0.016294 -0.008567 -0.003150 0.000000 0.000000 0.000000
# 2 -0.008567 0.016294 -0.003150 0.000000 0.000000 0.000000
# 3 -0.003150 -0.003150 0.010139 0.000000 0.000000 0.000000
# 4 0.000000 0.000000 0.000000 0.041249 0.000000 0.000000
# 5 0.000000 0.000000 0.000000 0.000000 0.041249 0.000000
# 6 0.000000 0.000000 0.000000 0.000000 0.000000 0.135348
#
#
# Mechanical properties :
#
#
# Convention : Reuss Voigt Hill
#
# Bulk Modulus (GPa) = 76.95758 77.11671 77.03715
# Shear Modulus (GPa) = 16.96991 22.60080 19.78536
#
# Velocity S-wave (km/s) = 3.20221 3.69549 3.45766
# Velocity P-wave (km/s) = 7.75720 8.05028 7.90510
#
# Compressibility (1/GPa) = 0.01299417
#
# Stress axis : x y z
#
# Youngs Moduli (GPa) = 61.37059 61.37059 98.62938
#
# Poissons Ratio (x) = 0.52579 0.31066
# Poissons Ratio (y) = 0.52579 0.31066
# Poissons Ratio (z) = 0.19330 0.19330
#
# Static dielectric constant tensor:
#      x y z
#    x 1.535910 0.000000 0.000000 
#    y 0.000000 1.535910 0.000000 
#    z 0.000000 0.000000 1.557680 
# 
# From -- ./inp_files/7764.got.cif
#   From: 2010.05.17/outbox.cif.g08.bks.cpg/sg129_4_cif.got.tgz:7764.got - 2010.05.20 12:12:06.
