data_PCOD9565211
_publ_section_title
;
Structure prediction by ZEFSAII (Michael W. Deem and Ramdas Pophale) SiO2 
 PCOD9565211
Probable space group: P 4/N M M
;
_chemical_formula_sum "Si O2"
_cell_formula_units_Z 112
_cell_length_a 14.089257
_cell_length_b 14.089257
_cell_length_c 35.745014
_cell_angle_alpha 90.000000
_cell_angle_beta 90.000000
_cell_angle_gamma 90.000000
_cell_volume 7095.641314
_symmetry_space_group_name_H-M "P 4/N M M"
_symmetry_group_IT_number 129
_symmetry_cell_setting 'tetragonal'
loop_
_space_group_symop_operation_xyz
x,y,z
1/2-y,x,z
1/2-x,1/2-y,z
y,1/2-x,z
1/2+x,-y,-z
-x,1/2+y,-z
1/2+y,1/2+x,-z
-y,-x,-z
-x,-y,-z
1/2+y,-x,-z
1/2+x,1/2+y,-z
-y,1/2+x,-z
1/2-x,y,z
x,1/2-y,z
1/2-y,1/2-x,z
y,x,z
loop_
_atom_site_type_symbol
_atom_site_label
_atom_site_fract_x
_atom_site_fract_y
_atom_site_fract_z
Si Si1 0.980486 0.137301 0.672045
Si Si2 0.860415 0.361635 0.894232
Si Si3 0.362085 0.639334 0.746597
Si Si4 0.138689 0.982365 0.385538
Si Si5 0.363350 0.979406 0.969257
Si Si6 0.640036 0.016600 0.526418
Si Si7 0.017692 0.637506 0.820407
O O1 0.994310 0.250000 0.668453
O O2 0.927621 0.117778 0.711416
O O3 0.911983 0.096587 0.639706
O O4 0.077438 0.077438 0.670453
O O5 0.750000 0.381109 0.904668
O O6 0.865975 0.250000 0.884723
O O7 0.929235 0.379155 0.929096
O O8 0.884306 0.422642 0.857800
O O9 0.250000 0.632356 0.755176
O O10 0.381264 0.750000 0.736861
O O11 0.421605 0.614780 0.783357
O O12 0.250000 0.991987 0.376657
O O13 0.079790 0.079790 0.379360
O O14 0.130061 0.958784 0.429624
O O15 0.250000 0.990946 0.974744
O O16 0.422607 0.077394 0.971076
O O17 0.409182 0.909182 0.000000
O O18 0.597521 0.097521 0.500000
O O19 0.750000 0.999586 0.518705
O O20 0.576938 0.923063 0.519748
O O21 0.999936 0.750000 0.820187
O O22 0.922537 0.577464 0.820310
#
# Coordination Sequence:
#
# PCOD9565211 Si02
#       7
#    16  16  16  16  16  16  16
#     4  10  20  33  49  69  94 124 157 193 232 275
#     4   9  17  30  49  71  92 116 151 194 235 273
#     4   9  17  30  49  71  91 113 147 191 236 278
#     4   9  18  32  50  72  96 122 153 190 233 279
#     4  10  20  33  50  72  97 125 157 193 234 280
#     4   9  18  32  49  70  96 124 155 192 232 275
#     4  10  19  30  45  65  92 124 154 186 224 268
#
# _framework density 15.784337000000001
#
# number of rings (size 3 to 8) (size 9 to 14) (size 15 to 20)
#    0.000    2.571    0.000    2.143    0.000    4.714 
#    0.000    2.857    0.000    0.000    0.000    8.000 
#    0.000   10.286    0.000    0.000    0.000    0.000 
#
# Total GULP energy -624348.308803 kJ/mol
# GULP energy per Si atom -5574.538471 kJ/mol
# Density = 1.574841 g / cm^3
# Si number density = 15.784337 Si / 1000 Ang^3
#
#
#
# Elastic Constant Matrix: (Units=GPa)
#
#
# Indices 1 2 3 4 5 6 
#
# 1 102.0765 64.1337 66.2849 0.0000 0.0000 0.0000
# 2 64.1337 102.0765 66.2849 0.0000 0.0000 0.0000
# 3 66.2849 66.2849 84.4510 0.0000 0.0000 0.0000
# 4 0.0000 0.0000 0.0000 22.9350 0.0000 0.0000
# 5 0.0000 0.0000 0.0000 0.0000 22.9350 0.0000
# 6 0.0000 0.0000 0.0000 0.0000 0.0000 18.3682
#
#
#
# Elastic Compliance Matrix: (Units=1/GPa)
#
#
# Indices 1 2 3 4 5 6 
#
# 1 0.021222 -0.005134 -0.012628 0.000000 0.000000 0.000000
# 2 -0.005134 0.021222 -0.012628 0.000000 0.000000 0.000000
# 3 -0.012628 -0.012628 0.031664 0.000000 0.000000 0.000000
# 4 0.000000 0.000000 0.000000 0.043602 0.000000 0.000000
# 5 0.000000 0.000000 0.000000 0.000000 0.043602 0.000000
# 6 0.000000 0.000000 0.000000 0.000000 0.000000 0.054442
#
#
# Mechanical properties :
#
#
# Convention : Reuss Voigt Hill
#
# Bulk Modulus (GPa) = 75.01854 75.77901 75.39877
# Shear Modulus (GPa) = 17.79530 18.97433 18.38481
#
# Velocity S-wave (km/s) = 3.36132 3.47089 3.41655
# Velocity P-wave (km/s) = 7.91802 8.01099 7.96464
#
# Compressibility (1/GPa) = 0.01333004
#
# Stress axis : x y z
#
# Youngs Moduli (GPa) = 47.12125 47.12125 31.58190
#
# Poissons Ratio (x) = 0.24190 0.39880
# Poissons Ratio (y) = 0.24190 0.39880
# Poissons Ratio (z) = 0.59503 0.59503
#
# Static dielectric constant tensor:
#      x y z
#    x 1.505290 0.000000 0.000000 
#    y 0.000000 1.505290 0.000000 
#    z 0.000000 0.000000 1.518890 
# 
# From -- ./inp_files/7910.got.cif
#   From: 2010.05.17/outbox.cif.g08.bks.cpg/sg129_4_cif.got.tgz:7910.got - 2010.05.20 12:12:06.
