data_PCOD9565732
_publ_section_title
;
Structure prediction by ZEFSAII (Michael W. Deem and Ramdas Pophale) SiO2 
 PCOD9565732
Probable space group: P 4/N C C
;
_chemical_formula_sum "Si O2"
_cell_formula_units_Z 120
_cell_length_a 15.125627
_cell_length_b 15.125627
_cell_length_c 30.954531
_cell_angle_alpha 90.000000
_cell_angle_beta 90.000000
_cell_angle_gamma 90.000000
_cell_volume 7081.919750
_symmetry_space_group_name_H-M "P 4/N C C"
_symmetry_group_IT_number 130
_symmetry_cell_setting 'tetragonal'
loop_
_space_group_symop_operation_xyz
x,y,z
1/2-y,x,z
1/2-x,1/2-y,z
y,1/2-x,z
1/2+x,-y,1/2-z
-x,1/2+y,1/2-z
1/2+y,1/2+x,1/2-z
-y,-x,1/2-z
-x,-y,-z
1/2+y,-x,-z
1/2+x,1/2+y,-z
-y,1/2+x,-z
1/2-x,y,1/2+z
x,1/2-y,1/2+z
1/2-y,1/2-x,1/2+z
y,x,1/2+z
loop_
_atom_site_type_symbol
_atom_site_label
_atom_site_fract_x
_atom_site_fract_y
_atom_site_fract_z
Si Si1 0.650427 0.222084 0.206747
Si Si2 0.118513 0.995831 0.163978
Si Si3 0.318284 0.383906 0.085674
Si Si4 0.116148 0.183174 0.490239
Si Si5 0.899726 0.100275 0.250000
Si Si6 0.556238 0.579005 0.682689
Si Si7 0.676007 0.620646 0.756842
Si Si8 0.315704 0.115330 0.395979
O O1 0.750000 0.250000 0.194268
O O2 0.662090 0.162090 0.250000
O O3 0.593339 0.174211 0.171036
O O4 0.601441 0.310372 0.222195
O O5 0.147731 0.051344 0.122526
O O6 0.139195 0.057249 0.205783
O O7 0.016754 0.967319 0.164102
O O8 0.212957 0.364157 0.089714
O O9 0.336695 0.421943 0.037487
O O10 0.212207 0.136864 0.490012
O O11 0.074993 0.163541 0.443440
O O12 0.981764 0.099540 0.281982
O O13 0.646896 0.582443 0.710370
O O14 0.560238 0.648837 0.644069
O O15 0.781182 0.634022 0.760571
O O16 0.363582 0.211402 0.393352
#
# Coordination Sequence:
#
# PCOD9565732 Si02
#       8
#    16  16  16  16   8  16  16  16
#     4   9  21  39  55  64  90 139 190 226 252 297
#     4  12  22  33  49  76 105 136 177 216 260 317
#     4   9  18  32  54  81 109 136 165 211 271 326
#     4   7  12  28  52  77 103 133 164 202 258 320
#     4  10  21  38  50  68  95 138 180 220 264 294
#     4  12  22  33  46  76 107 139 166 211 264 312
#     4  11  22  35  53  74 103 138 170 218 272 315
#     4   9  18  33  55  79 104 133 170 211 259 321
#
# _framework density 16.944559000000002
#
# number of rings (size 3 to 8) (size 9 to 14) (size 15 to 20)
#    0.000    2.267    1.333    4.800    1.867    5.333 
#    0.000    0.667    0.000    0.000    0.000    0.000 
#    0.000    1.333    0.000    0.000    0.000    0.000 
#
# Total GULP energy -669118.123485 kJ/mol
# GULP energy per Si atom -5575.984362 kJ/mol
# Density = 1.690599 g / cm^3
# Si number density = 16.944559 Si / 1000 Ang^3
#
#
#
# Elastic Constant Matrix: (Units=GPa)
#
#
# Indices 1 2 3 4 5 6 
#
# 1 47.1493 28.3000 30.9476 0.0000 0.0000 0.0000
# 2 28.3000 47.1501 30.9468 0.0000 0.0000 0.0000
# 3 30.9476 30.9468 125.6849 0.0000 0.0000 0.0000
# 4 0.0000 0.0000 0.0000 18.2264 0.0000 0.0000
# 5 0.0000 0.0000 0.0000 0.0000 18.2262 0.0000
# 6 0.0000 0.0000 0.0000 0.0000 0.0000 21.2843
#
#
#
# Elastic Compliance Matrix: (Units=1/GPa)
#
#
# Indices 1 2 3 4 5 6 
#
# 1 0.034830 -0.018221 -0.004090 0.000000 0.000000 0.000000
# 2 -0.018221 0.034829 -0.004089 0.000000 0.000000 0.000000
# 3 -0.004090 -0.004089 0.009970 0.000000 0.000000 0.000000
# 4 0.000000 0.000000 0.000000 0.054865 0.000000 0.000000
# 5 0.000000 0.000000 0.000000 0.000000 0.054866 0.000000
# 6 0.000000 0.000000 0.000000 0.000000 0.000000 0.046983
#
#
# Mechanical properties :
#
#
# Convention : Reuss Voigt Hill
#
# Bulk Modulus (GPa) = 37.27232 44.48590 40.87911
# Shear Modulus (GPa) = 16.77353 20.20003 18.48678
#
# Velocity S-wave (km/s) = 3.14969 3.45646 3.30664
# Velocity P-wave (km/s) = 5.93901 6.49925 6.22544
#
# Compressibility (1/GPa) = 0.02682956
#
# Stress axis : x y z
#
# Youngs Moduli (GPa) = 28.71048 28.71133 100.29764
#
# Poissons Ratio (x) = 0.52316 0.41020
# Poissons Ratio (y) = 0.52314 0.41014
# Poissons Ratio (z) = 0.11742 0.11741
#
# Static dielectric constant tensor:
#      x y z
#    x 1.585500 0.000000 0.000000 
#    y 0.000000 1.585500 0.000000 
#    z 0.000000 0.000000 1.594240 
# 
# From -- ./inp_files/5001.got.cif
#   From: 2010.05.17/outbox.cif.g08.bks.cpg/sg130_3_cif.got.tgz:5001.got - 2010.05.20 12:17:35.
