data_PCOD9565199
_publ_section_title
;
Structure prediction by ZEFSAII (Michael W. Deem and Ramdas Pophale) SiO2 
 PCOD9565199
Probable space group: P 4/N M M
;
_chemical_formula_sum "Si O2"
_cell_formula_units_Z 72
_cell_length_a 18.775126
_cell_length_b 18.775126
_cell_length_c 13.157327
_cell_angle_alpha 90.000000
_cell_angle_beta 90.000000
_cell_angle_gamma 90.000000
_cell_volume 4638.028242
_symmetry_space_group_name_H-M "P 4/N M M"
_symmetry_group_IT_number 129
_symmetry_cell_setting 'tetragonal'
loop_
_space_group_symop_operation_xyz
x,y,z
1/2-y,x,z
1/2-x,1/2-y,z
y,1/2-x,z
1/2+x,-y,-z
-x,1/2+y,-z
1/2+y,1/2+x,-z
-y,-x,-z
-x,-y,-z
1/2+y,-x,-z
1/2+x,1/2+y,-z
-y,1/2+x,-z
1/2-x,y,z
x,1/2-y,z
1/2-y,1/2-x,z
y,x,z
loop_
_atom_site_type_symbol
_atom_site_label
_atom_site_fract_x
_atom_site_fract_y
_atom_site_fract_z
Si Si1 0.168977 0.447536 0.806128
Si Si2 0.590720 0.409281 0.500000
Si Si3 0.667686 0.165618 0.313836
Si Si4 0.834264 0.398384 0.099789
Si Si5 0.051262 0.165819 0.563143
O O1 0.250000 0.423692 0.824347
O O2 0.112502 0.387499 0.832761
O O3 0.156499 0.519825 0.867644
O O4 0.163054 0.462367 0.685024
O O5 0.628616 0.378142 0.600023
O O6 0.509087 0.383675 0.511524
O O7 0.750000 0.140578 0.324079
O O8 0.666296 0.250000 0.328749
O O9 0.644736 0.146594 0.199653
O O10 0.750000 0.385316 0.081765
O O11 0.876432 0.376432 0.000000
O O12 0.048369 0.250000 0.533948
O O13 0.127615 0.127615 0.545661
#
# Coordination Sequence:
#
# PCOD9565199 Si02
#       5
#    16   8  16  16  16
#     4   9  18  33  51  72  98 128 164 207 253 296
#     4  12  19  31  50  74 104 131 162 206 261 306
#     4  10  19  29  44  68  99 137 173 203 240 293
#     4  10  19  32  48  68  98 133 167 202 241 288
#     4  10  20  34  52  74 102 136 172 211 255 302
#
# _framework density 15.523838
#
# number of rings (size 3 to 8) (size 9 to 14) (size 15 to 20)
#    0.000    2.000    2.222    3.000    0.000    2.889 
#    0.000    2.222    0.000    0.000    0.000    0.000 
#    0.000    0.000    0.000    6.444    0.000    0.444 
#
# Total GULP energy -401432.715442 kJ/mol
# GULP energy per Si atom -5575.454381 kJ/mol
# Density = 1.548851 g / cm^3
# Si number density = 15.523838 Si / 1000 Ang^3
#
#
#
# Elastic Constant Matrix: (Units=GPa)
#
#
# Indices 1 2 3 4 5 6 
#
# 1 67.8092 48.3111 25.4154 0.0000 0.0000 0.0000
# 2 48.3111 67.8099 25.4151 0.0000 0.0000 0.0000
# 3 25.4154 25.4151 57.1399 0.0000 0.0000 0.0000
# 4 0.0000 0.0000 0.0000 16.9940 0.0000 0.0000
# 5 0.0000 0.0000 0.0000 0.0000 16.9941 0.0000
# 6 0.0000 0.0000 0.0000 0.0000 0.0000 25.8342
#
#
#
# Elastic Compliance Matrix: (Units=1/GPa)
#
#
# Indices 1 2 3 4 5 6 
#
# 1 0.030990 -0.020296 -0.004757 0.000000 0.000000 0.000000
# 2 -0.020296 0.030990 -0.004756 0.000000 0.000000 0.000000
# 3 -0.004757 -0.004756 0.021732 0.000000 0.000000 0.000000
# 4 0.000000 0.000000 0.000000 0.058844 0.000000 0.000000
# 5 0.000000 0.000000 0.000000 0.000000 0.058844 0.000000
# 6 0.000000 0.000000 0.000000 0.000000 0.000000 0.038708
#
#
# Mechanical properties :
#
#
# Convention : Reuss Voigt Hill
#
# Bulk Modulus (GPa) = 41.50437 43.44912 42.47675
# Shear Modulus (GPa) = 16.24651 18.20562 17.22606
#
# Velocity S-wave (km/s) = 3.23856 3.42826 3.33476
# Velocity P-wave (km/s) = 6.38579 6.61211 6.49993
#
# Compressibility (1/GPa) = 0.02409385
#
# Stress axis : x y z
#
# Youngs Moduli (GPa) = 32.26819 32.26873 46.01461
#
# Poissons Ratio (x) = 0.65493 0.21888
# Poissons Ratio (y) = 0.65492 0.21886
# Poissons Ratio (z) = 0.15349 0.15348
#
# Static dielectric constant tensor:
#      x y z
#    x 1.526740 0.000000 0.000000 
#    y 0.000000 1.526740 0.000000 
#    z 0.000000 0.000000 1.491960 
# 
# From -- ./inp_files/3522.got.cif
#   From: 2010.05.17/outbox.cif.g08.bks.cpg/sg129_2_cif.got.tgz:3522.got - 2010.05.20 12:12:06.
