data_PCOD9565985
_publ_section_title
;
Structure prediction by ZEFSAII (Michael W. Deem and Ramdas Pophale) SiO2 
 PCOD9565985
Probable space group: P 4/N C C
;
_chemical_formula_sum "Si O2"
_cell_formula_units_Z 48
_cell_length_a 14.970165
_cell_length_b 14.970165
_cell_length_c 9.461347
_cell_angle_alpha 90.000000
_cell_angle_beta 90.000000
_cell_angle_gamma 90.000000
_cell_volume 2120.343118
_symmetry_space_group_name_H-M "P 4/N C C"
_symmetry_group_IT_number 130
_symmetry_cell_setting 'tetragonal'
loop_
_space_group_symop_operation_xyz
x,y,z
1/2-y,x,z
1/2-x,1/2-y,z
y,1/2-x,z
1/2+x,-y,1/2-z
-x,1/2+y,1/2-z
1/2+y,1/2+x,1/2-z
-y,-x,1/2-z
-x,-y,-z
1/2+y,-x,-z
1/2+x,1/2+y,-z
-y,1/2+x,-z
1/2-x,y,1/2+z
x,1/2-y,1/2+z
1/2-y,1/2-x,1/2+z
y,x,1/2+z
loop_
_atom_site_type_symbol
_atom_site_label
_atom_site_fract_x
_atom_site_fract_y
_atom_site_fract_z
Si Si1 0.856912 0.193046 0.591116
Si Si2 0.911268 0.960813 0.931370
Si Si3 0.366248 0.159060 0.803350
O O1 0.817478 0.182523 0.750000
O O2 0.954562 0.151476 0.597973
O O3 0.792144 0.142597 0.477745
O O4 0.597887 0.928675 0.793216
O O5 0.861401 0.894149 0.037681
O O6 0.000000 0.000000 0.000000
O O7 0.370935 0.264318 0.776535
#
# Coordination Sequence:
#
# PCOD9565985 Si02
#       3
#    16  16  16
#     4  11  26  46  72 106 147 194 244 302 380 448
#     4  12  27  44  73 110 142 190 249 306 371 444
#     4  11  26  48  74 104 146 197 245 307 377 442
#
# _framework density 22.637846
#
# number of rings (size 3 to 8) (size 9 to 14) (size 15 to 20)
#    0.000    0.667    0.000    7.000   14.000    5.333 
#    0.000    0.000    0.000    0.000    0.000    0.000 
#    0.000    0.000    0.000    0.000    0.000    0.000 
#
# Total GULP energy -268618.612984 kJ/mol
# GULP energy per Si atom -5596.221104 kJ/mol
# Density = 2.258632 g / cm^3
# Si number density = 22.637846 Si / 1000 Ang^3
#
#
#
# Elastic Constant Matrix: (Units=GPa)
#
#
# Indices 1 2 3 4 5 6 
#
# 1 54.2185 67.2904 23.5003 0.0000 0.0000 0.0000
# 2 67.2904 54.2145 23.5027 0.0000 0.0000 0.0000
# 3 23.5003 23.5027 134.3916 0.0000 0.0000 0.0000
# 4 0.0000 0.0000 0.0000 40.8456 0.0000 0.0000
# 5 0.0000 0.0000 0.0000 0.0000 40.8460 0.0000
# 6 0.0000 0.0000 0.0000 0.0000 0.0000 25.6926
#
#
#
# Elastic Compliance Matrix: (Units=1/GPa)
#
#
# Indices 1 2 3 4 5 6 
#
# 1 -0.033829 0.042658 -0.001545 0.000000 0.000000 0.000000
# 2 0.042658 -0.033832 -0.001543 0.000000 0.000000 0.000000
# 3 -0.001545 -0.001543 0.007981 0.000000 0.000000 0.000000
# 4 0.000000 0.000000 0.000000 0.024482 0.000000 0.000000
# 5 0.000000 0.000000 0.000000 0.000000 0.024482 0.000000
# 6 0.000000 0.000000 0.000000 0.000000 0.000000 0.038922
#
#
# Mechanical properties :
#
#
# Convention : Reuss Voigt Hill
#
# Bulk Modulus (GPa) = 51.38604 52.37904 51.88254
# Shear Modulus (GPa) = -112.49127 30.04558 -41.22284
#
# Velocity S-wave (km/s) = -7.05688 3.64707 -4.27191
# Velocity P-wave (km/s) = 6.60689 6.39710 1.16793
#
# Compressibility (1/GPa) = 0.01946054
#
# Stress axis : x y z
#
# Youngs Moduli (GPa) = -29.56050 -29.55766 125.30039
#
# Poissons Ratio (x) = 1.26086 0.19354
# Poissons Ratio (y) = 1.26098 0.19330
# Poissons Ratio (z) = -0.04566 -0.04560
#
# Static dielectric constant tensor:
#      x y z
#    x 1.851260 0.000000 0.000000 
#    y 0.000000 1.851260 0.000000 
#    z 0.000000 0.000000 1.747180 
# 
# From -- ./inp_files/1327.got.cif
#   From: 2010.05.17/outbox.cif.g08.bks.cpg/sg130_1_cif.got.tgz:1327.got - 2010.05.20 12:17:35.
