data_PCOD9565846
_publ_section_title
;
Structure prediction by ZEFSAII (Michael W. Deem and Ramdas Pophale) SiO2 
 PCOD9565846
Probable space group: P 4/N C C
;
_chemical_formula_sum "Si O2"
_cell_formula_units_Z 88
_cell_length_a 11.806806
_cell_length_b 11.806806
_cell_length_c 27.439476
_cell_angle_alpha 90.000000
_cell_angle_beta 90.000000
_cell_angle_gamma 90.000000
_cell_volume 3825.081282
_symmetry_space_group_name_H-M "P 4/N C C"
_symmetry_group_IT_number 130
_symmetry_cell_setting 'tetragonal'
loop_
_space_group_symop_operation_xyz
x,y,z
1/2-y,x,z
1/2-x,1/2-y,z
y,1/2-x,z
1/2+x,-y,1/2-z
-x,1/2+y,1/2-z
1/2+y,1/2+x,1/2-z
-y,-x,1/2-z
-x,-y,-z
1/2+y,-x,-z
1/2+x,1/2+y,-z
-y,1/2+x,-z
1/2-x,y,1/2+z
x,1/2-y,1/2+z
1/2-y,1/2-x,1/2+z
y,x,1/2+z
loop_
_atom_site_type_symbol
_atom_site_label
_atom_site_fract_x
_atom_site_fract_y
_atom_site_fract_z
Si Si1 0.750000 0.750000 0.247725
Si Si2 0.750000 0.750000 0.087282
Si Si3 0.343912 0.562313 0.097044
Si Si4 0.614523 0.011742 0.953682
Si Si5 0.000442 0.750820 0.051287
Si Si6 0.069455 0.879579 0.193469
Si Si7 0.647517 0.992043 0.716260
O O1 0.794006 0.884653 0.243563
O O2 0.889211 0.740046 0.083834
O O3 0.419994 0.463171 0.073084
O O4 0.216939 0.547345 0.080664
O O5 0.401301 0.677765 0.077694
O O6 0.347527 0.564657 0.155377
O O7 0.545897 0.127315 0.963853
O O8 0.676648 0.969821 0.002868
O O9 0.097690 0.902311 0.250000
O O10 0.947455 0.935164 0.182650
O O11 0.057496 0.745671 0.188371
O O12 0.580140 0.080140 0.750000
#
# Coordination Sequence:
#
# PCOD9565846 Si02
#       7
#     4   4  16  16  16  16  16
#     4   8  16  36  65  96 129 176 228 306 373 440
#     4  12  24  40  81 104 145 182 240 300 349 444
#     4  12  27  44  74 109 148 198 254 300 379 453
#     4  12  26  48  74 106 152 197 241 309 377 456
#     4  12  24  48  71 109 147 190 240 301 379 443
#     4  10  24  44  66 105 141 190 252 311 371 441
#     4   9  19  40  68  95 138 186 238 310 377 432
#
# _framework density 23.006048
#
# number of rings (size 3 to 8) (size 9 to 14) (size 15 to 20)
#    0.000    1.091    3.636    2.182    2.545    3.636 
#    3.273    0.909    0.000    4.364    0.000    0.000 
#    0.000    0.000    0.000    0.000    0.000    0.000 
#
# Total GULP energy -490434.251879 kJ/mol
# GULP energy per Si atom -5573.116499 kJ/mol
# Density = 2.295368 g / cm^3
# Si number density = 23.006048 Si / 1000 Ang^3
#
#
#
# Elastic Constant Matrix: (Units=GPa)
#
#
# Indices 1 2 3 4 5 6 
#
# 1 115.8572 32.4950 18.2302 0.0000 0.0000 0.0000
# 2 32.4950 115.8575 18.2302 0.0000 0.0000 0.0000
# 3 18.2302 18.2302 104.5642 0.0000 0.0000 0.0000
# 4 0.0000 0.0000 0.0000 18.8247 0.0000 0.0000
# 5 0.0000 0.0000 0.0000 0.0000 18.8247 0.0000
# 6 0.0000 0.0000 0.0000 0.0000 0.0000 42.9611
#
#
#
# Elastic Compliance Matrix: (Units=1/GPa)
#
#
# Indices 1 2 3 4 5 6 
#
# 1 0.009519 -0.002477 -0.001228 0.000000 0.000000 0.000000
# 2 -0.002477 0.009519 -0.001228 0.000000 0.000000 0.000000
# 3 -0.001228 -0.001228 0.009992 0.000000 0.000000 0.000000
# 4 0.000000 0.000000 0.000000 0.053122 0.000000 0.000000
# 5 0.000000 0.000000 0.000000 0.000000 0.053122 0.000000
# 6 0.000000 0.000000 0.000000 0.000000 0.000000 0.023277
#
#
# Mechanical properties :
#
#
# Convention : Reuss Voigt Hill
#
# Bulk Modulus (GPa) = 52.17762 52.68773 52.43268
# Shear Modulus (GPa) = 28.60362 33.94369 31.27365
#
# Velocity S-wave (km/s) = 3.52988 3.84529 3.69096
# Velocity P-wave (km/s) = 6.27237 6.53196 6.40348
#
# Compressibility (1/GPa) = 0.01916530
#
# Stress axis : x y z
#
# Youngs Moduli (GPa) = 105.05138 105.05164 100.08380
#
# Poissons Ratio (x) = 0.26018 0.12288
# Poissons Ratio (y) = 0.26018 0.12288
# Poissons Ratio (z) = 0.12898 0.12898
#
# Static dielectric constant tensor:
#      x y z
#    x 1.849640 0.000000 0.000000 
#    y 0.000000 1.849640 0.000000 
#    z 0.000000 0.000000 1.926650 
# 
# From -- ./inp_files/4901.got.cif
#   From: 2010.05.17/outbox.cif.g08.bks.cpg/sg130_3_cif.got.tgz:4901.got - 2010.05.20 12:17:35.
