data_PCOD9565973
_publ_section_title
;
Structure prediction by ZEFSAII (Michael W. Deem and Ramdas Pophale) SiO2 
 PCOD9565973
Probable space group: P 4/N C C
;
_chemical_formula_sum "Si O2"
_cell_formula_units_Z 48
_cell_length_a 11.907139
_cell_length_b 11.907139
_cell_length_c 14.391746
_cell_angle_alpha 90.000000
_cell_angle_beta 90.000000
_cell_angle_gamma 90.000000
_cell_volume 2040.461160
_symmetry_space_group_name_H-M "P 4/N C C"
_symmetry_group_IT_number 130
_symmetry_cell_setting 'tetragonal'
loop_
_space_group_symop_operation_xyz
x,y,z
1/2-y,x,z
1/2-x,1/2-y,z
y,1/2-x,z
1/2+x,-y,1/2-z
-x,1/2+y,1/2-z
1/2+y,1/2+x,1/2-z
-y,-x,1/2-z
-x,-y,-z
1/2+y,-x,-z
1/2+x,1/2+y,-z
-y,1/2+x,-z
1/2-x,y,1/2+z
x,1/2-y,1/2+z
1/2-y,1/2-x,1/2+z
y,x,1/2+z
loop_
_atom_site_type_symbol
_atom_site_label
_atom_site_fract_x
_atom_site_fract_y
_atom_site_fract_z
Si Si1 0.471720 0.883954 0.832651
Si Si2 0.337845 0.082687 0.474648
Si Si3 0.280394 0.560579 0.806430
O O1 0.477234 0.977234 0.750000
O O2 0.335502 0.884914 0.847863
O O3 0.514837 0.773728 0.776427
O O4 0.527008 0.883533 0.931798
O O5 0.395010 0.204042 0.471184
O O6 0.349692 0.002018 0.385816
O O7 0.348040 0.651961 0.750000
#
# Coordination Sequence:
#
# PCOD9565973 Si02
#       3
#    16  16  16
#     4   8  21  42  64 100 132 187 231 293 350 410
#     4  11  25  44  69 105 148 191 234 293 359 434
#     4   9  21  43  67 100 139 183 238 296 354 415
#
# _framework density 23.524094999999999
#
# number of rings (size 3 to 8) (size 9 to 14) (size 15 to 20)
#    2.000    0.333    0.000    2.000    4.667    4.000 
#    6.000    5.000    0.000    0.000    0.000    0.000 
#    0.000    0.000    0.000    0.000    0.000    0.000 
#
# Total GULP energy -267281.850790 kJ/mol
# GULP energy per Si atom -5568.371891 kJ/mol
# Density = 2.347055 g / cm^3
# Si number density = 23.524095 Si / 1000 Ang^3
#
#
#
# Elastic Constant Matrix: (Units=GPa)
#
#
# Indices 1 2 3 4 5 6 
#
# 1 54.6818 54.2165 70.1692 0.0000 0.0000 0.0000
# 2 54.2165 54.6841 70.1668 0.0000 0.0000 0.0000
# 3 70.1692 70.1668 203.8651 0.0000 0.0000 0.0000
# 4 0.0000 0.0000 0.0000 49.8837 0.0000 0.0000
# 5 0.0000 0.0000 0.0000 0.0000 49.8841 0.0000
# 6 0.0000 0.0000 0.0000 0.0000 0.0000 17.6565
#
#
#
# Elastic Compliance Matrix: (Units=1/GPa)
#
#
# Indices 1 2 3 4 5 6 
#
# 1 1.080324 -1.063753 -0.005716 0.000000 0.000000 0.000000
# 2 -1.063753 1.080186 -0.005644 0.000000 0.000000 0.000000
# 3 -0.005716 -0.005644 0.008815 0.000000 0.000000 0.000000
# 4 0.000000 0.000000 0.000000 0.020047 0.000000 0.000000
# 5 0.000000 0.000000 0.000000 0.000000 0.020046 0.000000
# 6 0.000000 0.000000 0.000000 0.000000 0.000000 0.056636
#
#
# Mechanical properties :
#
#
# Convention : Reuss Voigt Hill
#
# Bulk Modulus (GPa) = 52.35562 78.03734 65.19648
# Shear Modulus (GPa) = 1.13054 31.39677 16.26366
#
# Velocity S-wave (km/s) = 0.69400 3.65727 2.63223
# Velocity P-wave (km/s) = 4.79027 7.14700 6.08384
#
# Compressibility (1/GPa) = 0.01910015
#
# Stress axis : x y z
#
# Youngs Moduli (GPa) = 0.92565 0.92577 113.44144
#
# Poissons Ratio (x) = 0.98479 0.64844
# Poissons Ratio (y) = 0.98466 0.64023
# Poissons Ratio (z) = 0.00529 0.00522
#
# Static dielectric constant tensor:
#      x y z
#    x 2.003760 0.000000 0.000000 
#    y 0.000000 2.003750 0.000000 
#    z 0.000000 0.000000 1.860760 
# 
# From -- ./inp_files/1328.got.cif
#   From: 2010.05.17/outbox.cif.g08.bks.cpg/sg130_1_cif.got.tgz:1328.got - 2010.05.20 12:17:35.
