data_PCOD9565288
_publ_section_title
;
Structure prediction by ZEFSAII (Michael W. Deem and Ramdas Pophale) SiO2 
 PCOD9565288
Probable space group: P 4/N M M
;
_chemical_formula_sum "Si O2"
_cell_formula_units_Z 112
_cell_length_a 23.282523
_cell_length_b 23.282523
_cell_length_c 12.778543
_cell_angle_alpha 90.000000
_cell_angle_beta 90.000000
_cell_angle_gamma 90.000000
_cell_volume 6926.939907
_symmetry_space_group_name_H-M "P 4/N M M"
_symmetry_group_IT_number 129
_symmetry_cell_setting 'tetragonal'
loop_
_space_group_symop_operation_xyz
x,y,z
1/2-y,x,z
1/2-x,1/2-y,z
y,1/2-x,z
1/2+x,-y,-z
-x,1/2+y,-z
1/2+y,1/2+x,-z
-y,-x,-z
-x,-y,-z
1/2+y,-x,-z
1/2+x,1/2+y,-z
-y,1/2+x,-z
1/2-x,y,z
x,1/2-y,z
1/2-y,1/2-x,z
y,x,z
loop_
_atom_site_type_symbol
_atom_site_label
_atom_site_fract_x
_atom_site_fract_y
_atom_site_fract_z
Si Si1 0.315298 0.844249 0.322683
Si Si2 0.996516 0.412575 0.756774
Si Si3 0.022376 0.814897 0.626639
Si Si4 0.474227 0.887204 0.026320
Si Si5 0.058492 0.682629 0.392490
Si Si6 0.398009 0.007517 0.198154
Si Si7 0.635569 0.314222 0.902347
O O1 0.250000 0.824060 0.350231
O O2 0.314060 0.912873 0.328745
O O3 0.371697 0.824132 0.387694
O O4 0.331475 0.828617 0.203865
O O5 0.014283 0.390860 0.872861
O O6 0.971942 0.360339 0.688519
O O7 0.942450 0.455831 0.774055
O O8 0.048554 0.451447 0.712506
O O9 0.999601 0.750000 0.627842
O O10 0.032889 0.832302 0.506373
O O11 0.987780 0.856222 0.702942
O O12 0.419251 0.853210 0.071271
O O13 0.451150 0.951150 0.000000
O O14 0.494227 0.866368 0.912400
O O15 0.047093 0.750000 0.371368
O O16 0.436365 0.063636 0.182579
O O17 0.614022 0.250000 0.893542
O O18 0.677543 0.322458 0.000000
#
# Coordination Sequence:
#
# PCOD9565288 Si02
#       7
#    16  16  16  16  16  16  16
#     4  11  21  34  49  66  94 135 181 222 255 290
#     4  10  19  32  52  75  97 124 160 205 260 315
#     4  10  21  36  51  67  96 134 171 214 261 304
#     4   9  17  31  47  68  96 120 151 199 256 310
#     4  11  22  36  51  69  98 132 173 220 262 303
#     4  10  19  32  53  77  98 123 163 210 256 316
#     4  11  21  31  45  66  95 133 173 213 253 293
#
# _framework density 16.168756999999999
#
# number of rings (size 3 to 8) (size 9 to 14) (size 15 to 20)
#    0.000    1.714    2.857    3.429    0.000    5.857 
#    0.000    2.143    0.000    5.143    0.000    0.000 
#    0.000    0.571    0.000    3.143    0.000    6.000 
#
# Total GULP energy -623913.735359 kJ/mol
# GULP energy per Si atom -5570.658351 kJ/mol
# Density = 1.613196 g / cm^3
# Si number density = 16.168757 Si / 1000 Ang^3
#
#
#
# Elastic Constant Matrix: (Units=GPa)
#
#
# Indices 1 2 3 4 5 6 
#
# 1 50.2806 31.7806 29.0899 0.0000 0.0000 0.0000
# 2 31.7806 50.2815 29.0889 0.0000 0.0000 0.0000
# 3 29.0899 29.0889 94.5030 0.0000 0.0000 0.0000
# 4 0.0000 0.0000 0.0000 13.4045 0.0000 0.0000
# 5 0.0000 0.0000 0.0000 0.0000 13.4051 0.0000
# 6 0.0000 0.0000 0.0000 0.0000 0.0000 13.4740
#
#
#
# Elastic Compliance Matrix: (Units=1/GPa)
#
#
# Indices 1 2 3 4 5 6 
#
# 1 0.034821 -0.019233 -0.004799 0.000000 0.000000 0.000000
# 2 -0.019233 0.034820 -0.004798 0.000000 0.000000 0.000000
# 3 -0.004799 -0.004798 0.013536 0.000000 0.000000 0.000000
# 4 0.000000 0.000000 0.000000 0.074602 0.000000 0.000000
# 5 0.000000 0.000000 0.000000 0.000000 0.074598 0.000000
# 6 0.000000 0.000000 0.000000 0.000000 0.000000 0.074217
#
#
# Mechanical properties :
#
#
# Convention : Reuss Voigt Hill
#
# Bulk Modulus (GPa) = 39.18741 41.66488 40.42614
# Shear Modulus (GPa) = 13.41357 15.06376 14.23866
#
# Velocity S-wave (km/s) = 2.88340 3.05562 2.97076
# Velocity P-wave (km/s) = 5.94764 6.18658 6.06829
#
# Compressibility (1/GPa) = 0.02551840
#
# Stress axis : x y z
#
# Youngs Moduli (GPa) = 28.71840 28.71945 73.87958
#
# Poissons Ratio (x) = 0.55235 0.35452
# Poissons Ratio (y) = 0.55233 0.35445
# Poissons Ratio (z) = 0.13781 0.13779
#
# Static dielectric constant tensor:
#      x y z
#    x 1.550760 0.000000 0.000000 
#    y 0.000000 1.550760 0.000000 
#    z 0.000000 0.000000 1.668990 
# 
# From -- ./inp_files/4078.got.cif
#   From: 2010.05.17/outbox.cif.g08.bks.cpg/sg129_3_cif.got.tgz:4078.got - 2010.05.20 12:12:06.
