data_PCOD9565022
_publ_section_title
;
Structure prediction by ZEFSAII (Michael W. Deem and Ramdas Pophale) SiO2 
 PCOD9565022
Probable space group: P 4/M N C
;
_chemical_formula_sum "Si O2"
_cell_formula_units_Z 96
_cell_length_a 14.027825
_cell_length_b 14.027825
_cell_length_c 20.857888
_cell_angle_alpha 90.000000
_cell_angle_beta 90.000000
_cell_angle_gamma 90.000000
_cell_volume 4104.412577
_symmetry_space_group_name_H-M "P 4/M N C"
_symmetry_group_IT_number 128
_symmetry_cell_setting 'tetragonal'
loop_
_space_group_symop_operation_xyz
x,y,z
-y,x,z
-x,-y,z
y,-x,z
1/2+x,1/2-y,1/2-z
1/2-x,1/2+y,1/2-z
1/2+y,1/2+x,1/2-z
1/2-y,1/2-x,1/2-z
-x,-y,-z
y,-x,-z
x,y,-z
-y,x,-z
1/2-x,1/2+y,1/2+z
1/2+x,1/2-y,1/2+z
1/2-y,1/2-x,1/2+z
1/2+y,1/2+x,1/2+z
loop_
_atom_site_type_symbol
_atom_site_label
_atom_site_fract_x
_atom_site_fract_y
_atom_site_fract_z
Si Si1 0.857979 0.697580 0.678622
Si Si2 0.116767 0.743575 0.892815
Si Si3 0.096598 0.264637 0.930955
Si Si4 0.102272 0.552802 0.177870
Si Si5 0.077526 0.870912 0.785633
Si Si6 0.606968 0.393357 0.133860
O O1 0.814232 0.685769 0.750000
O O2 0.825096 0.613303 0.632936
O O3 0.837909 0.793145 0.636730
O O4 0.971697 0.683699 0.684237
O O5 0.186886 0.818197 0.927854
O O6 0.124649 0.629847 0.878252
O O7 0.122973 0.782739 0.819803
O O8 0.013880 0.763861 0.924497
O O9 0.106932 0.314896 0.000000
O O10 0.094285 0.594285 0.250000
O O11 0.000000 0.500000 0.166670
O O12 0.084535 0.882048 0.710033
O O13 0.968565 0.874241 0.807874
O O14 0.628757 0.499531 0.108262
#
# Coordination Sequence:
#
# PCOD9565022 Si02
#       6
#    16  16  16  16  16  16
#     4  12  24  44  68  99 134 177 227 281 334 395
#     4  12  23  42  67  95 132 183 223 268 337 401
#     4  12  28  46  67  98 138 176 227 275 333 409
#     4  11  23  41  65  98 140 174 222 279 331 398
#     4   9  17  31  55  91 130 165 206 258 319 385
#     4   9  21  37  60  95 135 169 216 278 343 393
#
# _framework density 23.389461000000001
#
# number of rings (size 3 to 8) (size 9 to 14) (size 15 to 20)
#    0.000    1.167    5.000    2.500    9.333    1.000 
#    0.000    3.333    0.000    0.000    0.000    1.167 
#    0.000    0.000    0.000    0.000    0.000    0.000 
#
# Total GULP energy -534422.639250 kJ/mol
# GULP energy per Si atom -5566.902492 kJ/mol
# Density = 2.333623 g / cm^3
# Si number density = 23.389461 Si / 1000 Ang^3
#
#
#
# Elastic Constant Matrix: (Units=GPa)
#
#
# Indices 1 2 3 4 5 6 
#
# 1 96.2625 10.5782 15.7154 0.0000 0.0000 0.0000
# 2 10.5782 96.2624 15.7154 0.0000 0.0000 0.0000
# 3 15.7154 15.7154 64.1311 0.0000 0.0000 0.0000
# 4 0.0000 0.0000 0.0000 -36.2520 0.0000 0.0000
# 5 0.0000 0.0000 0.0000 0.0000 -36.2556 0.0000
# 6 0.0000 0.0000 0.0000 0.0000 0.0000 48.0067
#
#
#
# Elastic Compliance Matrix: (Units=1/GPa)
#
#
# Indices 1 2 3 4 5 6 
#
# 1 0.010879 -0.000792 -0.002472 0.000000 0.000000 0.000000
# 2 -0.000792 0.010879 -0.002472 0.000000 0.000000 0.000000
# 3 -0.002472 -0.002472 0.016805 0.000000 0.000000 0.000000
# 4 0.000000 0.000000 0.000000 -0.027585 0.000000 0.000000
# 5 0.000000 0.000000 0.000000 0.000000 -0.027582 0.000000
# 6 0.000000 0.000000 0.000000 0.000000 0.000000 0.020830
#
#
# Mechanical properties :
#
#
# Convention : Reuss Voigt Hill
#
# Bulk Modulus (GPa) = 36.91252 37.85265 37.38258
# Shear Modulus (GPa) = 202.20499 9.40963 105.80731
#
# Velocity S-wave (km/s) = 9.30801 2.00792 6.73316
# Velocity P-wave (km/s) = 11.46013 4.64698 8.74440
#
# Compressibility (1/GPa) = 0.02709108
#
# Stress axis : x y z
#
# Youngs Moduli (GPa) = 91.92169 91.92165 59.50785
#
# Poissons Ratio (x) = 0.07280 0.14709
# Poissons Ratio (y) = 0.07280 0.14709
# Poissons Ratio (z) = 0.22721 0.22721
#
# Static dielectric constant tensor:
#      x y z
#    x 2.015590 0.000000 0.000000 
#    y 0.000000 2.015590 0.000000 
#    z 0.000000 0.000000 1.861740 
# 
# From -- ./inp_files/5761.got.cif
#   From: 2010.05.17/outbox.cif.g08.bks.cpg/sg128_3_cif.got.tgz:5761.got - 2010.05.20 12:07:25.
