data_PCOD9565215
_publ_section_title
;
Structure prediction by ZEFSAII (Michael W. Deem and Ramdas Pophale) SiO2 
 PCOD9565215
Probable space group: P 4/N M M
;
_chemical_formula_sum "Si O2"
_cell_formula_units_Z 72
_cell_length_a 13.603307
_cell_length_b 13.603307
_cell_length_c 23.706925
_cell_angle_alpha 90.000000
_cell_angle_beta 90.000000
_cell_angle_gamma 90.000000
_cell_volume 4386.965555
_symmetry_space_group_name_H-M "P 4/N M M"
_symmetry_group_IT_number 129
_symmetry_cell_setting 'tetragonal'
loop_
_space_group_symop_operation_xyz
x,y,z
1/2-y,x,z
1/2-x,1/2-y,z
y,1/2-x,z
1/2+x,-y,-z
-x,1/2+y,-z
1/2+y,1/2+x,-z
-y,-x,-z
-x,-y,-z
1/2+y,-x,-z
1/2+x,1/2+y,-z
-y,1/2+x,-z
1/2-x,y,z
x,1/2-y,z
1/2-y,1/2-x,z
y,x,z
loop_
_atom_site_type_symbol
_atom_site_label
_atom_site_fract_x
_atom_site_fract_y
_atom_site_fract_z
Si Si1 0.866415 0.133586 0.000000
Si Si2 0.027634 0.867747 0.656708
Si Si3 0.367741 0.975327 0.115390
Si Si4 0.530600 0.366991 0.553014
Si Si5 0.869138 0.138358 0.772078
O O1 0.894882 0.076227 0.943566
O O2 0.750000 0.118680 0.009476
O O3 0.018426 0.750000 0.652074
O O4 0.099741 0.910260 0.608802
O O5 0.073370 0.893493 0.717681
O O6 0.924483 0.924483 0.649963
O O7 0.250000 0.983892 0.117120
O O8 0.399804 0.910358 0.169047
O O9 0.420669 0.079331 0.119133
O O10 0.593605 0.406396 0.500000
O O11 0.517153 0.250000 0.550711
O O12 0.428417 0.428417 0.552456
O O13 0.750000 0.142589 0.773550
O O14 0.905515 0.250000 0.766553
#
# Coordination Sequence:
#
# PCOD9565215 Si02
#       5
#     8  16  16  16  16
#     4   9  17  30  48  68  89 115 150 194 240 277
#     4  10  20  33  50  74 103 134 168 204 244 293
#     4  10  19  30  45  66  93 123 154 189 231 283
#     4  10  21  36  54  77 103 132 168 208 251 299
#     4   9  17  30  48  68  90 119 156 197 239 280
#
# _framework density 16.412254999999998
#
# number of rings (size 3 to 8) (size 9 to 14) (size 15 to 20)
#    0.000    2.333    0.000    3.000    0.000    5.778 
#    0.000    0.000    0.000    8.000    0.000    0.000 
#    0.000   18.222    0.000    0.000    0.000    0.000 
#
# Total GULP energy -401441.078791 kJ/mol
# GULP energy per Si atom -5575.570539 kJ/mol
# Density = 1.637490 g / cm^3
# Si number density = 16.412255 Si / 1000 Ang^3
#
#
#
# Elastic Constant Matrix: (Units=GPa)
#
#
# Indices 1 2 3 4 5 6 
#
# 1 92.7701 59.2671 48.7315 0.0000 0.0000 0.0000
# 2 59.2671 92.7698 48.7316 0.0000 0.0000 0.0000
# 3 48.7315 48.7316 128.5147 0.0000 0.0000 0.0000
# 4 0.0000 0.0000 0.0000 21.2127 0.0000 0.0000
# 5 0.0000 0.0000 0.0000 0.0000 21.2125 0.0000
# 6 0.0000 0.0000 0.0000 0.0000 0.0000 15.2015
#
#
#
# Elastic Compliance Matrix: (Units=1/GPa)
#
#
# Indices 1 2 3 4 5 6 
#
# 1 0.019269 -0.010579 -0.003295 0.000000 0.000000 0.000000
# 2 -0.010579 0.019269 -0.003295 0.000000 0.000000 0.000000
# 3 -0.003295 -0.003295 0.010280 0.000000 0.000000 0.000000
# 4 0.000000 0.000000 0.000000 0.047142 0.000000 0.000000
# 5 0.000000 0.000000 0.000000 0.000000 0.047142 0.000000
# 6 0.000000 0.000000 0.000000 0.000000 0.000000 0.065783
#
#
# Mechanical properties :
#
#
# Convention : Reuss Voigt Hill
#
# Bulk Modulus (GPa) = 69.06437 69.72386 69.39412
# Shear Modulus (GPa) = 20.15728 22.01365 21.08547
#
# Velocity S-wave (km/s) = 3.50835 3.66634 3.58821
# Velocity P-wave (km/s) = 7.65400 7.77803 7.71626
#
# Compressibility (1/GPa) = 0.01447925
#
# Stress axis : x y z
#
# Youngs Moduli (GPa) = 51.89726 51.89698 97.27549
#
# Poissons Ratio (x) = 0.54903 0.32052
# Poissons Ratio (y) = 0.54904 0.32053
# Poissons Ratio (z) = 0.17100 0.17100
#
# Static dielectric constant tensor:
#      x y z
#    x 1.532010 0.000000 0.000000 
#    y 0.000000 1.532000 0.000000 
#    z 0.000000 0.000000 1.558130 
# 
# From -- ./inp_files/6326.got.cif
#   From: 2010.05.17/outbox.cif.g08.bks.cpg/sg129_4_cif.got.tgz:6326.got - 2010.05.20 12:12:06.
