data_PCOD9565025
_publ_section_title
;
Structure prediction by ZEFSAII (Michael W. Deem and Ramdas Pophale) SiO2 
 PCOD9565025
Probable space group: P 4/M N C
;
_chemical_formula_sum "Si O2"
_cell_formula_units_Z 48
_cell_length_a 11.518738
_cell_length_b 11.518738
_cell_length_c 15.988334
_cell_angle_alpha 90.000000
_cell_angle_beta 90.000000
_cell_angle_gamma 90.000000
_cell_volume 2121.353341
_symmetry_space_group_name_H-M "P 4/M N C"
_symmetry_group_IT_number 128
_symmetry_cell_setting 'tetragonal'
loop_
_space_group_symop_operation_xyz
x,y,z
-y,x,z
-x,-y,z
y,-x,z
1/2+x,1/2-y,1/2-z
1/2-x,1/2+y,1/2-z
1/2+y,1/2+x,1/2-z
1/2-y,1/2-x,1/2-z
-x,-y,-z
y,-x,-z
x,y,-z
-y,x,-z
1/2-x,1/2+y,1/2+z
1/2+x,1/2-y,1/2+z
1/2-y,1/2-x,1/2+z
1/2+y,1/2+x,1/2+z
loop_
_atom_site_type_symbol
_atom_site_label
_atom_site_fract_x
_atom_site_fract_y
_atom_site_fract_z
Si Si1 0.415033 0.239300 0.694159
Si Si2 0.474494 0.682634 0.140153
Si Si3 0.203775 0.362842 0.596686
O O1 0.364607 0.135394 0.750000
O O2 0.492998 0.311503 0.761066
O O3 0.302862 0.300754 0.653351
O O4 0.503316 0.201954 0.622791
O O5 0.373915 0.594062 0.109756
O O6 0.421258 0.804815 0.114700
O O7 0.233463 0.348734 0.500000
#
# Coordination Sequence:
#
# PCOD9565025 Si02
#       3
#    16  16  16
#     4  12  23  48  74 106 142 192 244 286 353 443
#     4  11  23  46  76 101 137 196 247 279 345 443
#     4  12  27  46  73 113 149 181 234 310 366 406
#
# _framework density 22.627065000000002
#
# number of rings (size 3 to 8) (size 9 to 14) (size 15 to 20)
#    0.000    0.333    6.667    2.000    0.000    4.667 
#    0.000    5.000    0.000    0.000    0.000    0.000 
#    0.000    0.000    0.000    0.000    0.000    0.000 
#
# Total GULP energy -267826.687172 kJ/mol
# GULP energy per Si atom -5579.722649 kJ/mol
# Density = 2.257556 g / cm^3
# Si number density = 22.627065 Si / 1000 Ang^3
#
#
#
# Elastic Constant Matrix: (Units=GPa)
#
#
# Indices 1 2 3 4 5 6 
#
# 1 58.1935 66.0256 20.4492 0.0000 0.0000 0.0000
# 2 66.0256 58.1947 20.4529 0.0000 0.0000 0.0000
# 3 20.4492 20.4529 85.1778 0.0000 0.0000 0.0000
# 4 0.0000 0.0000 0.0000 19.9101 0.0000 0.0000
# 5 0.0000 0.0000 0.0000 0.0000 19.9094 0.0000
# 6 0.0000 0.0000 0.0000 0.0000 0.0000 26.8607
#
#
#
# Elastic Compliance Matrix: (Units=1/GPa)
#
#
# Indices 1 2 3 4 5 6 
#
# 1 -0.059474 0.068215 -0.002102 0.000000 0.000000 0.000000
# 2 0.068215 -0.059474 -0.002096 0.000000 0.000000 0.000000
# 3 -0.002102 -0.002096 0.012748 0.000000 0.000000 0.000000
# 4 0.000000 0.000000 0.000000 0.050226 0.000000 0.000000
# 5 0.000000 0.000000 0.000000 0.000000 0.050228 0.000000
# 6 0.000000 0.000000 0.000000 0.000000 0.000000 0.037229
#
#
# Mechanical properties :
#
#
# Convention : Reuss Voigt Hill
#
# Bulk Modulus (GPa) = 45.79696 46.15793 45.97745
# Shear Modulus (GPa) = -56.00733 19.64527 -18.18103
#
# Velocity S-wave (km/s) = -4.98057 2.94975 -2.83770
# Velocity P-wave (km/s) = 3.57644 5.66084 3.10275
#
# Compressibility (1/GPa) = 0.02183551
#
# Stress axis : x y z
#
# Youngs Moduli (GPa) = -16.81421 -16.81403 78.44383
#
# Poissons Ratio (x) = 1.14697 0.16486
# Poissons Ratio (y) = 1.14698 0.16441
# Poissons Ratio (z) = -0.03534 -0.03524
#
# Static dielectric constant tensor:
#      x y z
#    x 1.870320 0.000000 0.000000 
#    y 0.000000 1.870320 0.000000 
#    z 0.000000 0.000000 1.833830 
# 
# From -- ./inp_files/4322.got.cif
#   From: 2010.05.17/outbox.cif.g08.bks.cpg/sg128_3_cif.got.tgz:4322.got - 2010.05.20 12:07:25.
