data_PCOD9565516
_publ_section_title
;
Structure prediction by ZEFSAII (Michael W. Deem and Ramdas Pophale) SiO2 
 PCOD9565516
Probable space group: P 4/N M M
;
_chemical_formula_sum "Si O2"
_cell_formula_units_Z 96
_cell_length_a 24.978321
_cell_length_b 24.978321
_cell_length_c 7.346515
_cell_angle_alpha 90.000000
_cell_angle_beta 90.000000
_cell_angle_gamma 90.000000
_cell_volume 4583.612073
_symmetry_space_group_name_H-M "P 4/N M M"
_symmetry_group_IT_number 129
_symmetry_cell_setting 'tetragonal'
loop_
_space_group_symop_operation_xyz
x,y,z
1/2-y,x,z
1/2-x,1/2-y,z
y,1/2-x,z
1/2+x,-y,-z
-x,1/2+y,-z
1/2+y,1/2+x,-z
-y,-x,-z
-x,-y,-z
1/2+y,-x,-z
1/2+x,1/2+y,-z
-y,1/2+x,-z
1/2-x,y,z
x,1/2-y,z
1/2-y,1/2-x,z
y,x,z
loop_
_atom_site_type_symbol
_atom_site_label
_atom_site_fract_x
_atom_site_fract_y
_atom_site_fract_z
Si Si1 0.310272 0.396501 0.216571
Si Si2 0.979506 0.189589 0.709166
Si Si3 0.897032 0.105317 0.719798
Si Si4 0.604842 0.690485 0.223079
Si Si5 0.810925 0.478266 0.717087
Si Si6 0.192068 0.689655 0.279731
O O1 0.250000 0.382230 0.277362
O O2 0.355365 0.355365 0.281352
O O3 0.319825 0.458236 0.267555
O O4 0.310381 0.394613 0.996756
O O5 0.966327 0.250000 0.783518
O O6 0.951658 0.135076 0.781496
O O7 0.963598 0.192369 0.496599
O O8 0.043282 0.183659 0.721020
O O9 0.902435 0.097566 0.500000
O O10 0.863549 0.053409 0.787360
O O11 0.855383 0.151864 0.769082
O O12 0.622290 0.750000 0.280727
O O13 0.644253 0.644253 0.288448
O O14 0.750000 0.467571 0.790457
O O15 0.191953 0.691953 0.500000
O O16 0.250000 0.668639 0.223790
O O17 0.186032 0.750000 0.213373
#
# Coordination Sequence:
#
# PCOD9565516 Si02
#       6
#    16  16  16  16  16  16
#     4   9  18  33  52  72  93 116 143 179 225 276
#     4   9  17  29  46  68  94 124 156 190 227 265
#     4   9  15  24  39  60  87 120 157 190 220 259
#     4   9  18  33  52  72  93 116 143 179 225 276
#     4   9  17  29  46  68  94 124 156 190 227 265
#     4   8  12  17  28  50  80 111 143 184 231 268
#
# _framework density 20.944182000000001
#
# number of rings (size 3 to 8) (size 9 to 14) (size 15 to 20)
#    0.000    3.167    0.000    1.500    0.000    5.000 
#    0.000    3.333    0.000    5.000    0.000    4.667 
#    0.000    0.000    0.000   20.333    0.000   20.667 
#
# Total GULP energy -534540.192630 kJ/mol
# GULP energy per Si atom -5568.127007 kJ/mol
# Density = 2.089651 g / cm^3
# Si number density = 20.944182 Si / 1000 Ang^3
#
#
#
# Elastic Constant Matrix: (Units=GPa)
#
#
# Indices 1 2 3 4 5 6 
#
# 1 114.1583 87.0282 -3.5890 0.0000 0.0000 0.0000
# 2 87.0282 114.1598 -3.5887 0.0000 0.0000 0.0000
# 3 -3.5890 -3.5887 72.7487 0.0000 0.0000 0.0000
# 4 0.0000 0.0000 0.0000 13.9767 0.0000 0.0000
# 5 0.0000 0.0000 0.0000 0.0000 13.9767 0.0000
# 6 0.0000 0.0000 0.0000 0.0000 0.0000 41.6738
#
#
#
# Elastic Compliance Matrix: (Units=1/GPa)
#
#
# Indices 1 2 3 4 5 6 
#
# 1 0.020919 -0.015940 0.000246 0.000000 0.000000 0.000000
# 2 -0.015940 0.020919 0.000246 0.000000 0.000000 0.000000
# 3 0.000246 0.000246 0.013770 0.000000 0.000000 0.000000
# 4 0.000000 0.000000 0.000000 0.071547 0.000000 0.000000
# 5 0.000000 0.000000 0.000000 0.000000 0.071547 0.000000
# 6 0.000000 0.000000 0.000000 0.000000 0.000000 0.023996
#
#
# Mechanical properties :
#
#
# Convention : Reuss Voigt Hill
#
# Bulk Modulus (GPa) = 40.46739 51.19642 45.83191
# Shear Modulus (GPa) = 19.09619 28.67320 23.88470
#
# Velocity S-wave (km/s) = 3.02282 3.70405 3.38064
# Velocity P-wave (km/s) = 5.61665 6.54146 6.09661
#
# Compressibility (1/GPa) = 0.02471125
#
# Stress axis : x y z
#
# Youngs Moduli (GPa) = 47.80351 47.80418 72.62064
#
# Poissons Ratio (x) = 0.76198 -0.01784
# Poissons Ratio (y) = 0.76197 -0.01783
# Poissons Ratio (z) = -0.01175 -0.01174
#
# Static dielectric constant tensor:
#      x y z
#    x 1.749710 0.000000 0.000000 
#    y 0.000000 1.749710 0.000000 
#    z 0.000000 0.000000 1.882040 
# 
# From -- ./inp_files/2601.got.cif
#   From: 2010.05.17/outbox.cif.g08.bks.cpg/sg129_2_cif.got.tgz:2601.got - 2010.05.20 12:12:06.
