data_PCOD9565159
_publ_section_title
;
Structure prediction by ZEFSAII (Michael W. Deem and Ramdas Pophale) SiO2 
 PCOD9565159
Probable space group: P 4/N M M
;
_chemical_formula_sum "Si O2"
_cell_formula_units_Z 128
_cell_length_a 21.433071
_cell_length_b 21.433071
_cell_length_c 17.701938
_cell_angle_alpha 90.000000
_cell_angle_beta 90.000000
_cell_angle_gamma 90.000000
_cell_volume 8131.854897
_symmetry_space_group_name_H-M "P 4/N M M"
_symmetry_group_IT_number 129
_symmetry_cell_setting 'tetragonal'
loop_
_space_group_symop_operation_xyz
x,y,z
1/2-y,x,z
1/2-x,1/2-y,z
y,1/2-x,z
1/2+x,-y,-z
-x,1/2+y,-z
1/2+y,1/2+x,-z
-y,-x,-z
-x,-y,-z
1/2+y,-x,-z
1/2+x,1/2+y,-z
-y,1/2+x,-z
1/2-x,y,z
x,1/2-y,z
1/2-y,1/2-x,z
y,x,z
loop_
_atom_site_type_symbol
_atom_site_label
_atom_site_fract_x
_atom_site_fract_y
_atom_site_fract_z
Si Si1 0.180360 0.842185 0.910822
Si Si2 0.824166 0.569643 0.594849
Si Si3 0.004963 0.601972 0.470537
Si Si4 0.182010 0.543779 0.131081
Si Si5 0.901016 0.005274 0.301357
Si Si6 0.103034 0.003991 0.995990
Si Si7 0.893580 0.504805 0.729813
Si Si8 0.322217 0.515612 0.851661
O O1 0.250000 0.818820 0.892781
O O2 0.118638 0.815619 0.872669
O O3 0.179833 0.914131 0.885144
O O4 0.168927 0.831073 0.000000
O O5 0.750000 0.581536 0.592061
O O6 0.867646 0.632355 0.592187
O O7 0.847943 0.524516 0.527424
O O8 0.844346 0.531879 0.670173
O O9 0.068844 0.568844 0.500000
O O10 0.007554 0.627799 0.385212
O O11 0.954746 0.545255 0.467750
O O12 0.250000 0.518303 0.146834
O O13 0.136327 0.523352 0.196277
O O14 0.157148 0.516960 0.052295
O O15 0.854201 0.013066 0.230887
O O16 0.951493 0.061435 0.303479
O O17 0.942026 0.942026 0.291383
O O18 0.064638 0.064638 0.021227
O O19 0.131963 0.015682 0.913296
O O20 0.052975 0.947026 0.000000
O O21 0.938341 0.561660 0.751067
O O22 0.250000 0.493209 0.849934
#
# Coordination Sequence:
#
# PCOD9565159 Si02
#       8
#    16  16  16  16  16  16  16  16
#     4  11  21  33  46  63  93 131 169 203 239 290
#     4  10  20  34  53  78 108 140 173 210 257 315
#     4   9  16  30  52  77 100 128 164 207 254 303
#     4  12  21  32  48  70  97 129 172 210 247 297
#     4  10  18  31  53  76 101 130 162 204 256 303
#     4  11  20  33  50  68  92 123 164 208 257 302
#     4  10  19  33  51  74 102 131 167 210 261 305
#     4  11  20  32  47  69 101 131 162 200 245 301
#
# _framework density 15.740567
#
# number of rings (size 3 to 8) (size 9 to 14) (size 15 to 20)
#    0.000    1.500    5.000    1.875    0.000    3.500 
#    0.000    0.000    0.000    0.000    0.000    0.000 
#    0.000   21.000    0.000    0.000    0.000    0.000 
#
# Total GULP energy -713110.855440 kJ/mol
# GULP energy per Si atom -5571.178558 kJ/mol
# Density = 1.570474 g / cm^3
# Si number density = 15.740567 Si / 1000 Ang^3
#
#
#
# Elastic Constant Matrix: (Units=GPa)
#
#
# Indices 1 2 3 4 5 6 
#
# 1 59.1135 25.3697 30.1742 0.0000 0.0000 0.0000
# 2 25.3697 59.1139 30.1743 0.0000 0.0000 0.0000
# 3 30.1742 30.1743 104.1578 0.0000 0.0000 0.0000
# 4 0.0000 0.0000 0.0000 19.6926 0.0000 0.0000
# 5 0.0000 0.0000 0.0000 0.0000 19.6941 0.0000
# 6 0.0000 0.0000 0.0000 0.0000 0.0000 5.5130
#
#
#
# Elastic Compliance Matrix: (Units=1/GPa)
#
#
# Indices 1 2 3 4 5 6 
#
# 1 0.022280 -0.007355 -0.004324 0.000000 0.000000 0.000000
# 2 -0.007355 0.022280 -0.004324 0.000000 0.000000 0.000000
# 3 -0.004324 -0.004324 0.012106 0.000000 0.000000 0.000000
# 4 0.000000 0.000000 0.000000 0.050781 0.000000 0.000000
# 5 0.000000 0.000000 0.000000 0.000000 0.050777 0.000000
# 6 0.000000 0.000000 0.000000 0.000000 0.000000 0.181391
#
#
# Mechanical properties :
#
#
# Convention : Reuss Voigt Hill
#
# Bulk Modulus (GPa) = 40.54942 43.75796 42.15369
# Shear Modulus (GPa) = 13.16347 18.09107 15.62727
#
# Velocity S-wave (km/s) = 2.89498 3.39385 3.15429
# Velocity P-wave (km/s) = 6.08207 6.57400 6.33281
#
# Compressibility (1/GPa) = 0.02466127
#
# Stress axis : x y z
#
# Youngs Moduli (GPa) = 44.88302 44.88333 82.60359
#
# Poissons Ratio (x) = 0.33011 0.35716
# Poissons Ratio (y) = 0.33011 0.35716
# Poissons Ratio (z) = 0.19407 0.19407
#
# Static dielectric constant tensor:
#      x y z
#    x 1.529200 0.000000 0.000000 
#    y 0.000000 1.529200 0.000000 
#    z 0.000000 0.000000 1.550490 
# 
# From -- ./inp_files/6106.got.cif
#   From: 2010.05.17/outbox.cif.g08.bks.cpg/sg129_4_cif.got.tgz:6106.got - 2010.05.20 12:12:06.
