data_PCOD9565185
_publ_section_title
;
Structure prediction by ZEFSAII (Michael W. Deem and Ramdas Pophale) SiO2 
 PCOD9565185
Probable space group: P 4/N M M
;
_chemical_formula_sum "Si O2"
_cell_formula_units_Z 112
_cell_length_a 14.147451
_cell_length_b 14.147451
_cell_length_c 36.940500
_cell_angle_alpha 90.000000
_cell_angle_beta 90.000000
_cell_angle_gamma 90.000000
_cell_volume 7393.654736
_symmetry_space_group_name_H-M "P 4/N M M"
_symmetry_group_IT_number 129
_symmetry_cell_setting 'tetragonal'
loop_
_space_group_symop_operation_xyz
x,y,z
1/2-y,x,z
1/2-x,1/2-y,z
y,1/2-x,z
1/2+x,-y,-z
-x,1/2+y,-z
1/2+y,1/2+x,-z
-y,-x,-z
-x,-y,-z
1/2+y,-x,-z
1/2+x,1/2+y,-z
-y,1/2+x,-z
1/2-x,y,z
x,1/2-y,z
1/2-y,1/2-x,z
y,x,z
loop_
_atom_site_type_symbol
_atom_site_label
_atom_site_fract_x
_atom_site_fract_y
_atom_site_fract_z
Si Si1 0.363623 0.516918 0.109353
Si Si2 0.137942 0.518401 0.247149
Si Si3 0.641418 0.135138 0.040101
Si Si4 0.363749 0.520251 0.529621
Si Si5 0.362282 0.858869 0.600918
Si Si6 0.142616 0.864663 0.821236
Si Si7 0.639225 0.483437 0.671159
O O1 0.250000 0.504828 0.109561
O O2 0.418829 0.418829 0.110586
O O3 0.391033 0.574421 0.073173
O O4 0.390907 0.579544 0.144248
O O5 0.250000 0.499095 0.242899
O O6 0.108610 0.591740 0.216150
O O7 0.123176 0.555437 0.288160
O O8 0.076146 0.423855 0.243306
O O9 0.750000 0.103239 0.045738
O O10 0.644457 0.250000 0.039303
O O11 0.607040 0.107040 0.000000
O O12 0.408829 0.591172 0.500000
O O13 0.250000 0.510251 0.525237
O O14 0.422141 0.422141 0.527065
O O15 0.383190 0.569564 0.568406
O O16 0.250000 0.860166 0.606614
O O17 0.388395 0.750000 0.591051
O O18 0.413508 0.883404 0.638354
O O19 0.250000 0.899646 0.823813
O O20 0.146730 0.750000 0.821517
O O21 0.750000 0.506482 0.668759
O O22 0.575923 0.575923 0.667477
#
# Coordination Sequence:
#
# PCOD9565185 Si02
#       7
#    16  16  16  16  16  16  16
#     4  10  19  29  42  61  86 115 143 170 203 247
#     4   9  17  28  42  62  88 117 146 174 207 251
#     4   8  14  26  44  64  85 109 139 177 217 250
#     4  10  20  33  50  71  94 121 152 187 228 273
#     4   9  17  29  46  67  89 115 149 187 226 267
#     4   9  17  29  44  60  79 104 135 174 216 251
#     4   9  17  28  42  61  87 118 149 180 212 249
#
# _framework density 15.148123999999999
#
# number of rings (size 3 to 8) (size 9 to 14) (size 15 to 20)
#    0.000    2.857    0.000    2.143    0.000    3.857 
#    0.000    4.286    0.000    2.571    0.000    2.000 
#    0.000   13.429    0.000   10.571    0.000    0.857 
#
# Total GULP energy -623481.987921 kJ/mol
# GULP energy per Si atom -5566.803464 kJ/mol
# Density = 1.511365 g / cm^3
# Si number density = 15.148124 Si / 1000 Ang^3
#
#
#
# Elastic Constant Matrix: (Units=GPa)
#
#
# Indices 1 2 3 4 5 6 
#
# 1 60.4521 40.5911 53.7490 0.0000 0.0000 0.0000
# 2 40.5911 60.4516 53.7488 0.0000 0.0000 0.0000
# 3 53.7490 53.7488 130.7333 0.0000 0.0000 0.0000
# 4 0.0000 0.0000 0.0000 19.6317 0.0000 0.0000
# 5 0.0000 0.0000 0.0000 0.0000 19.6317 0.0000
# 6 0.0000 0.0000 0.0000 0.0000 0.0000 15.0320
#
#
#
# Elastic Compliance Matrix: (Units=1/GPa)
#
#
# Indices 1 2 3 4 5 6 
#
# 1 0.033971 -0.016380 -0.007232 0.000000 0.000000 0.000000
# 2 -0.016380 0.033971 -0.007232 0.000000 0.000000 0.000000
# 3 -0.007232 -0.007232 0.013596 0.000000 0.000000 0.000000
# 4 0.000000 0.000000 0.000000 0.050938 0.000000 0.000000
# 5 0.000000 0.000000 0.000000 0.000000 0.050938 0.000000
# 6 0.000000 0.000000 0.000000 0.000000 0.000000 0.066525
#
#
# Mechanical properties :
#
#
# Convention : Reuss Voigt Hill
#
# Bulk Modulus (GPa) = 50.38030 60.86833 55.62431
# Shear Modulus (GPa) = 15.71124 17.76228 16.73676
#
# Velocity S-wave (km/s) = 3.22401 3.42800 3.32757
# Velocity P-wave (km/s) = 6.86947 7.47914 7.18078
#
# Compressibility (1/GPa) = 0.01984903
#
# Stress axis : x y z
#
# Youngs Moduli (GPa) = 29.43716 29.43690 73.55081
#
# Poissons Ratio (x) = 0.48217 0.53194
# Poissons Ratio (y) = 0.48217 0.53194
# Poissons Ratio (z) = 0.21290 0.21290
#
# Static dielectric constant tensor:
#      x y z
#    x 1.485340 0.000000 0.000000 
#    y 0.000000 1.485340 0.000000 
#    z 0.000000 0.000000 1.523790 
# 
# From -- ./inp_files/7933.got.cif
#   From: 2010.05.17/outbox.cif.g08.bks.cpg/sg129_4_cif.got.tgz:7933.got - 2010.05.20 12:12:06.
