data_PCOD9565851
_publ_section_title
;
Structure prediction by ZEFSAII (Michael W. Deem and Ramdas Pophale) SiO2 
 PCOD9565851
Probable space group: P 4/N C C
;
_chemical_formula_sum "Si O2"
_cell_formula_units_Z 84
_cell_length_a 12.127339
_cell_length_b 12.127339
_cell_length_c 30.131083
_cell_angle_alpha 90.000000
_cell_angle_beta 90.000000
_cell_angle_gamma 90.000000
_cell_volume 4431.449222
_symmetry_space_group_name_H-M "P 4/N C C"
_symmetry_group_IT_number 130
_symmetry_cell_setting 'tetragonal'
loop_
_space_group_symop_operation_xyz
x,y,z
1/2-y,x,z
1/2-x,1/2-y,z
y,1/2-x,z
1/2+x,-y,1/2-z
-x,1/2+y,1/2-z
1/2+y,1/2+x,1/2-z
-y,-x,1/2-z
-x,-y,-z
1/2+y,-x,-z
1/2+x,1/2+y,-z
-y,1/2+x,-z
1/2-x,y,1/2+z
x,1/2-y,1/2+z
1/2-y,1/2-x,1/2+z
y,x,1/2+z
loop_
_atom_site_type_symbol
_atom_site_label
_atom_site_fract_x
_atom_site_fract_y
_atom_site_fract_z
Si Si1 0.250000 0.750000 0.250000
Si Si2 0.570622 0.789698 0.640894
Si Si3 0.845539 0.323686 0.164964
Si Si4 0.842428 0.512543 0.039562
Si Si5 0.721251 0.575617 0.880205
Si Si6 0.664916 0.523891 0.977429
O O1 0.230728 0.847220 0.214315
O O2 0.621916 0.668542 0.650466
O O3 0.453007 0.812640 0.664562
O O4 0.545186 0.801925 0.588190
O O5 0.750000 0.250000 0.141835
O O6 0.958942 0.304988 0.140532
O O7 0.947360 0.432878 0.040866
O O8 0.746652 0.458836 0.009992
O O9 0.882625 0.615662 0.009783
O O10 0.837817 0.627046 0.866766
O O11 0.723971 0.566444 0.933499
#
# Coordination Sequence:
#
# PCOD9565851 Si02
#       6
#     4  16  16  16  16  16
#     4   8  24  52  72 100 118 174 198 260 384 416
#     4  11  23  39  65 100 137 179 227 279 331 397
#     4  10  24  45  74  95 129 168 214 273 352 431
#     4  11  22  35  54  83 130 186 230 268 318 372
#     4  11  23  39  65 100 137 179 227 279 331 397
#     4  11  22  35  54  83 130 186 230 268 318 372
#
# _framework density 18.955425000000002
#
# number of rings (size 3 to 8) (size 9 to 14) (size 15 to 20)
#    0.571    0.762    5.714    0.000    2.667    2.286 
#    0.000    3.810    0.000    2.286    0.000    0.000 
#    0.000    0.000    0.000    0.000    0.000    0.000 
#
# Total GULP energy -467920.369369 kJ/mol
# GULP energy per Si atom -5570.480588 kJ/mol
# Density = 1.891228 g / cm^3
# Si number density = 18.955425 Si / 1000 Ang^3
#
#
#
# Elastic Constant Matrix: (Units=GPa)
#
#
# Indices 1 2 3 4 5 6 
#
# 1 95.1460 59.4268 22.5351 0.0000 0.0000 0.0000
# 2 59.4268 95.1460 22.5351 0.0000 0.0000 0.0000
# 3 22.5351 22.5351 65.2963 0.0000 0.0000 0.0000
# 4 0.0000 0.0000 0.0000 16.5817 0.0000 0.0000
# 5 0.0000 0.0000 0.0000 0.0000 16.5817 0.0000
# 6 0.0000 0.0000 0.0000 0.0000 0.0000 7.6790
#
#
#
# Elastic Compliance Matrix: (Units=1/GPa)
#
#
# Indices 1 2 3 4 5 6 
#
# 1 0.017595 -0.010401 -0.002483 0.000000 0.000000 0.000000
# 2 -0.010401 0.017595 -0.002483 0.000000 0.000000 0.000000
# 3 -0.002483 -0.002483 0.017028 0.000000 0.000000 0.000000
# 4 0.000000 0.000000 0.000000 0.060308 0.000000 0.000000
# 5 0.000000 0.000000 0.000000 0.000000 0.060308 0.000000
# 6 0.000000 0.000000 0.000000 0.000000 0.000000 0.130226
#
#
# Mechanical properties :
#
#
# Convention : Reuss Voigt Hill
#
# Bulk Modulus (GPa) = 46.54464 51.62024 49.08244
# Shear Modulus (GPa) = 14.66475 18.24121 16.45298
#
# Velocity S-wave (km/s) = 2.78446 3.10550 2.94935
# Velocity P-wave (km/s) = 5.91149 6.33643 6.12765
#
# Compressibility (1/GPa) = 0.02148475
#
# Stress axis : x y z
#
# Youngs Moduli (GPa) = 56.83516 56.83516 58.72557
#
# Poissons Ratio (x) = 0.59117 0.14579
# Poissons Ratio (y) = 0.59117 0.14579
# Poissons Ratio (z) = 0.14110 0.14110
#
# Static dielectric constant tensor:
#      x y z
#    x 1.700290 0.000000 0.000000 
#    y 0.000000 1.700290 0.000000 
#    z 0.000000 0.000000 1.652360 
# 
# From -- ./inp_files/4892.got.cif
#   From: 2010.05.17/outbox.cif.g08.bks.cpg/sg130_3_cif.got.tgz:4892.got - 2010.05.20 12:17:35.
