data_PCOD9565545
_publ_section_title
;
Structure prediction by ZEFSAII (Michael W. Deem and Ramdas Pophale) SiO2 
 PCOD9565545
Probable space group: P 4/N C C
;
_chemical_formula_sum "Si O2"
_cell_formula_units_Z 112
_cell_length_a 21.516558
_cell_length_b 21.516558
_cell_length_c 13.441525
_cell_angle_alpha 90.000000
_cell_angle_beta 90.000000
_cell_angle_gamma 90.000000
_cell_volume 6222.918902
_symmetry_space_group_name_H-M "P 4/N C C"
_symmetry_group_IT_number 130
_symmetry_cell_setting 'tetragonal'
loop_
_space_group_symop_operation_xyz
x,y,z
1/2-y,x,z
1/2-x,1/2-y,z
y,1/2-x,z
1/2+x,-y,1/2-z
-x,1/2+y,1/2-z
1/2+y,1/2+x,1/2-z
-y,-x,1/2-z
-x,-y,-z
1/2+y,-x,-z
1/2+x,1/2+y,-z
-y,1/2+x,-z
1/2-x,y,1/2+z
x,1/2-y,1/2+z
1/2-y,1/2-x,1/2+z
y,x,1/2+z
loop_
_atom_site_type_symbol
_atom_site_label
_atom_site_fract_x
_atom_site_fract_y
_atom_site_fract_z
Si Si1 0.105687 0.152794 0.192738
Si Si2 0.335767 0.021287 0.662321
Si Si3 0.073043 0.017138 0.808018
Si Si4 0.362841 0.500750 0.378749
Si Si5 0.151921 0.283321 0.886377
Si Si6 0.066667 0.534390 0.509956
Si Si7 0.264075 0.441878 0.524545
O O1 0.152606 0.094570 0.185070
O O2 0.039810 0.123503 0.228215
O O3 0.125956 0.200198 0.278446
O O4 0.099120 0.189234 0.090623
O O5 0.340510 0.985143 0.766719
O O6 0.271927 0.014770 0.602605
O O7 0.391170 0.000474 0.589989
O O8 0.049906 0.082169 0.857355
O O9 0.016814 0.983187 0.750000
O O10 0.093922 0.973095 0.898774
O O11 0.398012 0.552503 0.444327
O O12 0.305785 0.474485 0.441416
O O13 0.174406 0.212443 0.897272
O O14 0.098664 0.288477 0.968578
O O15 0.000000 0.500000 0.500000
#
# Coordination Sequence:
#
# PCOD9565545 Si02
#       7
#    16  16  16  16  16  16  16
#     4  11  20  35  51  69  99 135 177 227 275 321
#     4  11  22  34  52  75 102 135 178 223 270 326
#     4  10  18  31  54  82 104 130 173 224 277 339
#     4  10  19  33  50  72 100 131 166 210 266 323
#     4  11  23  36  47  62  89 132 188 237 269 304
#     4  10  18  33  55  79 102 130 168 214 273 337
#     4  12  22  34  49  70  98 136 174 217 268 316
#
# _framework density 17.997983999999999
#
# number of rings (size 3 to 8) (size 9 to 14) (size 15 to 20)
#    0.000    1.286    0.000   11.571    0.000    0.000 
#    0.000    1.429    0.000    0.000    0.000    0.000 
#    0.000    0.571    0.000    6.429    0.000    0.714 
#
# Total GULP energy -624995.706968 kJ/mol
# GULP energy per Si atom -5580.318812 kJ/mol
# Density = 1.795702 g / cm^3
# Si number density = 17.997984 Si / 1000 Ang^3
#
#
#
# Elastic Constant Matrix: (Units=GPa)
#
#
# Indices 1 2 3 4 5 6 
#
# 1 49.6323 26.3448 33.3142 0.0000 0.0000 0.0000
# 2 26.3448 49.6320 33.3127 0.0000 0.0000 0.0000
# 3 33.3142 33.3127 121.9587 0.0000 0.0000 0.0000
# 4 0.0000 0.0000 0.0000 34.7832 0.0000 0.0000
# 5 0.0000 0.0000 0.0000 0.0000 34.7832 0.0000
# 6 0.0000 0.0000 0.0000 0.0000 0.0000 23.3168
#
#
#
# Elastic Compliance Matrix: (Units=1/GPa)
#
#
# Indices 1 2 3 4 5 6 
#
# 1 0.030125 -0.012817 -0.004728 0.000000 0.000000 0.000000
# 2 -0.012817 0.030125 -0.004727 0.000000 0.000000 0.000000
# 3 -0.004728 -0.004727 0.010782 0.000000 0.000000 0.000000
# 4 0.000000 0.000000 0.000000 0.028750 0.000000 0.000000
# 5 0.000000 0.000000 0.000000 0.000000 0.028749 0.000000
# 6 0.000000 0.000000 0.000000 0.000000 0.000000 0.042888
#
#
# Mechanical properties :
#
#
# Convention : Reuss Voigt Hill
#
# Bulk Modulus (GPa) = 37.75429 45.24072 41.49751
# Shear Modulus (GPa) = 22.24277 27.12672 24.68475
#
# Velocity S-wave (km/s) = 3.51928 3.88649 3.70743
# Velocity P-wave (km/s) = 6.12668 6.73282 6.43689
#
# Compressibility (1/GPa) = 0.02648706
#
# Stress axis : x y z
#
# Youngs Moduli (GPa) = 33.19509 33.19548 92.74499
#
# Poissons Ratio (x) = 0.42547 0.43850
# Poissons Ratio (y) = 0.42546 0.43844
# Poissons Ratio (z) = 0.15695 0.15693
#
# Static dielectric constant tensor:
#      x y z
#    x 1.635030 0.000000 0.000000 
#    y 0.000000 1.635040 0.000000 
#    z 0.000000 0.000000 1.629020 
# 
# From -- ./inp_files/1862.got.cif
#   From: 2010.05.17/outbox.cif.g08.bks.cpg/sg130_1_cif.got.tgz:1862.got - 2010.05.20 12:17:35.
