data_PCOD9565139
_publ_section_title
;
Structure prediction by ZEFSAII (Michael W. Deem and Ramdas Pophale) SiO2 
 PCOD9565139
Probable space group: P 4/N M M
;
_chemical_formula_sum "Si O2"
_cell_formula_units_Z 104
_cell_length_a 17.228435
_cell_length_b 17.228435
_cell_length_c 21.311285
_cell_angle_alpha 90.000000
_cell_angle_beta 90.000000
_cell_angle_gamma 90.000000
_cell_volume 6325.593717
_symmetry_space_group_name_H-M "P 4/N M M"
_symmetry_group_IT_number 129
_symmetry_cell_setting 'tetragonal'
loop_
_space_group_symop_operation_xyz
x,y,z
1/2-y,x,z
1/2-x,1/2-y,z
y,1/2-x,z
1/2+x,-y,-z
-x,1/2+y,-z
1/2+y,1/2+x,-z
-y,-x,-z
-x,-y,-z
1/2+y,-x,-z
1/2+x,1/2+y,-z
-y,1/2+x,-z
1/2-x,y,z
x,1/2-y,z
1/2-y,1/2-x,z
y,x,z
loop_
_atom_site_type_symbol
_atom_site_label
_atom_site_fract_x
_atom_site_fract_y
_atom_site_fract_z
Si Si1 0.160734 0.657438 0.574005
Si Si2 0.839087 0.160914 0.000000
Si Si3 0.037590 0.587255 0.914385
Si Si4 0.043748 0.163342 0.886526
Si Si5 0.957502 0.663278 0.264800
Si Si6 0.421162 0.547818 0.327589
Si Si7 0.531252 0.841231 0.787681
O O1 0.145544 0.645544 0.500000
O O2 0.250000 0.631928 0.587507
O O3 0.158362 0.750000 0.584969
O O4 0.096514 0.617038 0.616775
O O5 0.914610 0.149979 0.044977
O O6 0.750000 0.156306 0.026668
O O7 0.103055 0.521295 0.907034
O O8 0.959903 0.540098 0.938037
O O9 0.014513 0.622939 0.847272
O O10 0.032720 0.250000 0.910662
O O11 0.126464 0.126464 0.904086
O O12 0.039594 0.165078 0.810752
O O13 0.965861 0.750000 0.288886
O O14 0.876069 0.623932 0.282652
O O15 0.023999 0.607420 0.289902
O O16 0.476887 0.476887 0.348694
O O17 0.361234 0.513954 0.276591
O O18 0.540815 0.750000 0.795468
O O19 0.612081 0.887920 0.784990
#
# Coordination Sequence:
#
# PCOD9565139 Si02
#       7
#    16   8  16  16  16  16  16
#     4   9  18  32  48  67  94 127 162 201 242 281
#     4  11  23  36  50  72 101 127 156 198 242 285
#     4  10  19  35  54  71  93 126 163 195 233 282
#     4   9  16  27  44  65  92 123 155 192 231 272
#     4   9  16  26  41  63  91 123 156 191 230 271
#     4  10  18  30  48  71  97 125 158 194 235 284
#     4  10  20  34  53  75  98 123 153 192 235 283
#
# _framework density 16.441144999999999
#
# number of rings (size 3 to 8) (size 9 to 14) (size 15 to 20)
#    0.000    2.385    1.538    2.538    0.000    0.769 
#    0.000    1.538    0.000    3.692    0.000    0.000 
#    0.000   11.077    0.000   28.615    0.000    0.154 
#
# Total GULP energy -579048.077047 kJ/mol
# GULP energy per Si atom -5567.769972 kJ/mol
# Density = 1.640372 g / cm^3
# Si number density = 16.441145 Si / 1000 Ang^3
#
#
#
# Elastic Constant Matrix: (Units=GPa)
#
#
# Indices 1 2 3 4 5 6 
#
# 1 89.6699 34.3899 28.4638 0.0000 0.0000 0.0000
# 2 34.3899 89.6694 28.4636 0.0000 0.0000 0.0000
# 3 28.4638 28.4636 53.1060 0.0000 0.0000 0.0000
# 4 0.0000 0.0000 0.0000 20.9224 0.0000 0.0000
# 5 0.0000 0.0000 0.0000 0.0000 20.9227 0.0000
# 6 0.0000 0.0000 0.0000 0.0000 0.0000 21.9629
#
#
#
# Elastic Compliance Matrix: (Units=1/GPa)
#
#
# Indices 1 2 3 4 5 6 
#
# 1 0.014390 -0.003700 -0.005730 0.000000 0.000000 0.000000
# 2 -0.003700 0.014390 -0.005729 0.000000 0.000000 0.000000
# 3 -0.005730 -0.005729 0.024972 0.000000 0.000000 0.000000
# 4 0.000000 0.000000 0.000000 0.047796 0.000000 0.000000
# 5 0.000000 0.000000 0.000000 0.000000 0.047795 0.000000
# 6 0.000000 0.000000 0.000000 0.000000 0.000000 0.045531
#
#
# Mechanical properties :
#
#
# Convention : Reuss Voigt Hill
#
# Bulk Modulus (GPa) = 42.67376 46.11997 44.39687
# Shear Modulus (GPa) = 21.45898 22.17013 21.81455
#
# Velocity S-wave (km/s) = 3.61667 3.67611 3.64652
# Velocity P-wave (km/s) = 6.59183 6.79197 6.69265
#
# Compressibility (1/GPa) = 0.02343361
#
# Stress axis : x y z
#
# Youngs Moduli (GPa) = 69.49391 69.49376 40.04480
#
# Poissons Ratio (x) = 0.25713 0.22944
# Poissons Ratio (y) = 0.25713 0.22943
# Poissons Ratio (z) = 0.39817 0.39816
#
# Static dielectric constant tensor:
#      x y z
#    x 1.558150 0.000000 0.000000 
#    y 0.000000 1.558150 0.000000 
#    z 0.000000 0.000000 1.555040 
# 
# From -- ./inp_files/5833.got.cif
#   From: 2010.05.17/outbox.cif.g08.bks.cpg/sg129_3_cif.got.tgz:5833.got - 2010.05.20 12:12:06.
