data_PCOD9565673
_publ_section_title
;
Structure prediction by ZEFSAII (Michael W. Deem and Ramdas Pophale) SiO2 
 PCOD9565673
Probable space group: P 4/N C C
;
_chemical_formula_sum "Si O2"
_cell_formula_units_Z 84
_cell_length_a 20.616346
_cell_length_b 20.616346
_cell_length_c 11.731767
_cell_angle_alpha 90.000000
_cell_angle_beta 90.000000
_cell_angle_gamma 90.000000
_cell_volume 4986.396598
_symmetry_space_group_name_H-M "P 4/N C C"
_symmetry_group_IT_number 130
_symmetry_cell_setting 'tetragonal'
loop_
_space_group_symop_operation_xyz
x,y,z
1/2-y,x,z
1/2-x,1/2-y,z
y,1/2-x,z
1/2+x,-y,1/2-z
-x,1/2+y,1/2-z
1/2+y,1/2+x,1/2-z
-y,-x,1/2-z
-x,-y,-z
1/2+y,-x,-z
1/2+x,1/2+y,-z
-y,1/2+x,-z
1/2-x,y,1/2+z
x,1/2-y,1/2+z
1/2-y,1/2-x,1/2+z
y,x,1/2+z
loop_
_atom_site_type_symbol
_atom_site_label
_atom_site_fract_x
_atom_site_fract_y
_atom_site_fract_z
Si Si1 0.967553 0.131308 0.741564
Si Si2 0.150642 0.651073 0.113090
Si Si3 0.482518 0.688984 0.489075
Si Si4 0.250000 0.750000 0.500000
Si Si5 0.667047 0.491370 0.501076
Si Si6 0.941957 0.958997 0.942452
O O1 0.895121 0.104879 0.750000
O O2 0.967812 0.186871 0.646968
O O3 0.011101 0.076019 0.680427
O O4 0.988875 0.145481 0.867652
O O5 0.146338 0.646338 0.250000
O O6 0.207783 0.699819 0.075196
O O7 0.162137 0.580313 0.055484
O O8 0.083220 0.678599 0.060456
O O9 0.512938 0.758709 0.506911
O O10 0.526769 0.625392 0.509180
O O11 0.615238 0.537051 0.439029
O O12 0.000000 0.000000 0.000000
#
# Coordination Sequence:
#
# PCOD9565673 Si02
#       6
#    16  16  16   4  16  16
#     4  10  20  39  62  87 124 158 195 263 316 345
#     4  12  25  36  58  85 115 162 212 243 288 368
#     4  10  24  39  57  91 118 163 203 246 317 356
#     4  12  26  44  48  82 132 170 196 244 306 356
#     4  12  22  41  62  84 127 159 202 259 303 373
#     4  10  20  38  61  92 116 157 205 258 304 363
#
# _framework density 16.845832000000001
#
# number of rings (size 3 to 8) (size 9 to 14) (size 15 to 20)
#    1.143    0.000    7.619    0.286    2.667    2.286 
#    3.429    0.000    0.000    0.571    0.000    0.000 
#    5.714    0.000    0.000    0.000    0.000    0.000 
#
# Total GULP energy -467790.533215 kJ/mol
# GULP energy per Si atom -5568.934919 kJ/mol
# Density = 1.680749 g / cm^3
# Si number density = 16.845832 Si / 1000 Ang^3
#
#
#
# Elastic Constant Matrix: (Units=GPa)
#
#
# Indices 1 2 3 4 5 6 
#
# 1 127.2647 24.6729 25.8359 0.0000 0.0000 0.0000
# 2 24.6729 127.2719 25.8424 0.0000 0.0000 0.0000
# 3 25.8359 25.8424 123.8819 0.0000 0.0000 0.0000
# 4 0.0000 0.0000 0.0000 20.5295 0.0000 0.0000
# 5 0.0000 0.0000 0.0000 0.0000 20.5300 0.0000
# 6 0.0000 0.0000 0.0000 0.0000 0.0000 31.7075
#
#
#
# Elastic Compliance Matrix: (Units=1/GPa)
#
#
# Indices 1 2 3 4 5 6 
#
# 1 0.008416 -0.001331 -0.001477 0.000000 0.000000 0.000000
# 2 -0.001331 0.008415 -0.001478 0.000000 0.000000 0.000000
# 3 -0.001477 -0.001478 0.008689 0.000000 0.000000 0.000000
# 4 0.000000 0.000000 0.000000 0.048710 0.000000 0.000000
# 5 0.000000 0.000000 0.000000 0.000000 0.048709 0.000000
# 6 0.000000 0.000000 0.000000 0.000000 0.000000 0.031538
#
#
# Mechanical properties :
#
#
# Convention : Reuss Voigt Hill
#
# Bulk Modulus (GPa) = 59.00973 59.01343 59.01158
# Shear Modulus (GPa) = 29.63850 34.69123 32.16486
#
# Velocity S-wave (km/s) = 4.19907 4.54291 4.37437
# Velocity P-wave (km/s) = 7.65603 7.91359 7.78588
#
# Compressibility (1/GPa) = 0.01694636
#
# Stress axis : x y z
#
# Youngs Moduli (GPa) = 118.82565 118.82997 115.09348
#
# Poissons Ratio (x) = 0.15822 0.17003
# Poissons Ratio (y) = 0.15821 0.17009
# Poissons Ratio (z) = 0.17555 0.17561
#
# Static dielectric constant tensor:
#      x y z
#    x 1.588250 0.000000 0.000000 
#    y 0.000000 1.588260 0.000000 
#    z 0.000000 0.000000 1.521760 
# 
# From -- ./inp_files/1748.got.cif
#   From: 2010.05.17/outbox.cif.g08.bks.cpg/sg130_1_cif.got.tgz:1748.got - 2010.05.20 12:17:35.
