data_PCOD9565841
_publ_section_title
;
Structure prediction by ZEFSAII (Michael W. Deem and Ramdas Pophale) SiO2 
 PCOD9565841
Probable space group: P 4/N C C
;
_chemical_formula_sum "Si O2"
_cell_formula_units_Z 64
_cell_length_a 12.720336
_cell_length_b 12.720336
_cell_length_c 18.168485
_cell_angle_alpha 90.000000
_cell_angle_beta 90.000000
_cell_angle_gamma 90.000000
_cell_volume 2939.787107
_symmetry_space_group_name_H-M "P 4/N C C"
_symmetry_group_IT_number 130
_symmetry_cell_setting 'tetragonal'
loop_
_space_group_symop_operation_xyz
x,y,z
1/2-y,x,z
1/2-x,1/2-y,z
y,1/2-x,z
1/2+x,-y,1/2-z
-x,1/2+y,1/2-z
1/2+y,1/2+x,1/2-z
-y,-x,1/2-z
-x,-y,-z
1/2+y,-x,-z
1/2+x,1/2+y,-z
-y,1/2+x,-z
1/2-x,y,1/2+z
x,1/2-y,1/2+z
1/2-y,1/2-x,1/2+z
y,x,1/2+z
loop_
_atom_site_type_symbol
_atom_site_label
_atom_site_fract_x
_atom_site_fract_y
_atom_site_fract_z
Si Si1 0.750000 0.250000 0.500000
Si Si2 0.449809 0.854029 0.962082
Si Si3 0.250000 0.250000 0.880328
Si Si4 0.805536 0.585332 0.327412
Si Si5 0.026264 0.526264 0.750000
Si Si6 0.063004 0.082494 0.396093
O O1 0.853917 0.225334 0.546121
O O2 0.546721 0.818809 0.910991
O O3 0.414764 0.969937 0.935598
O O4 0.487602 0.859714 0.046014
O O5 0.333557 0.150136 0.881844
O O6 0.877800 0.687751 0.313434
O O7 0.855259 0.495191 0.277125
O O8 0.008844 0.450806 0.819610
#
# Coordination Sequence:
#
# PCOD9565841 Si02
#       6
#     4  16   4  16   8  16
#     4  12  24  40  68  98 144 180 228 282 356 412
#     4  10  24  44  65 101 138 182 224 289 351 417
#     4  12  24  36  72 106 124 176 240 294 328 420
#     4  10  24  44  71  99 137 184 234 288 352 418
#     4  10  24  44  64  96 140 174 222 288 352 416
#     4  10  24  42  67  97 136 172 230 284 347 416
#
# _framework density 21.770285000000001
#
# number of rings (size 3 to 8) (size 9 to 14) (size 15 to 20)
#    0.000    1.750    0.000    1.500   17.500    0.000 
#    0.000    0.000    0.000    7.500    0.000    0.000 
#    0.000    0.000    0.000    0.000    0.000    0.000 
#
# Total GULP energy -356601.001760 kJ/mol
# GULP energy per Si atom -5571.890652 kJ/mol
# Density = 2.172074 g / cm^3
# Si number density = 21.770285 Si / 1000 Ang^3
#
#
#
# Elastic Constant Matrix: (Units=GPa)
#
#
# Indices 1 2 3 4 5 6 
#
# 1 83.9199 36.0903 15.4345 0.0000 0.0000 0.0000
# 2 36.0903 83.9199 15.4345 0.0000 0.0000 0.0000
# 3 15.4345 15.4345 116.5045 0.0000 0.0000 0.0000
# 4 0.0000 0.0000 0.0000 14.2393 0.0000 0.0000
# 5 0.0000 0.0000 0.0000 0.0000 14.2393 0.0000
# 6 0.0000 0.0000 0.0000 0.0000 0.0000 55.2234
#
#
#
# Elastic Compliance Matrix: (Units=1/GPa)
#
#
# Indices 1 2 3 4 5 6 
#
# 1 0.014767 -0.006140 -0.001143 0.000000 0.000000 0.000000
# 2 -0.006140 0.014767 -0.001143 0.000000 0.000000 0.000000
# 3 -0.001143 -0.001143 0.008886 0.000000 0.000000 0.000000
# 4 0.000000 0.000000 0.000000 0.070228 0.000000 0.000000
# 5 0.000000 0.000000 0.000000 0.000000 0.070228 0.000000
# 6 0.000000 0.000000 0.000000 0.000000 0.000000 0.018108
#
#
# Mechanical properties :
#
#
# Convention : Reuss Voigt Hill
#
# Bulk Modulus (GPa) = 46.36508 46.47364 46.41936
# Shear Modulus (GPa) = 22.62167 31.23272 26.92720
#
# Velocity S-wave (km/s) = 3.22702 3.79179 3.52074
# Velocity P-wave (km/s) = 5.93536 6.36897 6.15599
#
# Compressibility (1/GPa) = 0.02156795
#
# Stress axis : x y z
#
# Youngs Moduli (GPa) = 67.71822 67.71822 112.53442
#
# Poissons Ratio (x) = 0.41582 0.12861
# Poissons Ratio (y) = 0.41582 0.12861
# Poissons Ratio (z) = 0.07739 0.07739
#
# Static dielectric constant tensor:
#      x y z
#    x 1.822020 0.000000 0.000000 
#    y 0.000000 1.822020 0.000000 
#    z 0.000000 0.000000 1.833090 
# 
# From -- ./inp_files/2891.got.cif
#   From: 2010.05.17/outbox.cif.g08.bks.cpg/sg130_2_cif.got.tgz:2891.got - 2010.05.20 12:17:35.
