data_PCOD9565644
_publ_section_title
;
Structure prediction by ZEFSAII (Michael W. Deem and Ramdas Pophale) SiO2 
 PCOD9565644
Probable space group: P 4/N C C
;
_chemical_formula_sum "Si O2"
_cell_formula_units_Z 104
_cell_length_a 17.108537
_cell_length_b 17.108537
_cell_length_c 18.026802
_cell_angle_alpha 90.000000
_cell_angle_beta 90.000000
_cell_angle_gamma 90.000000
_cell_volume 5276.481689
_symmetry_space_group_name_H-M "P 4/N C C"
_symmetry_group_IT_number 130
_symmetry_cell_setting 'tetragonal'
loop_
_space_group_symop_operation_xyz
x,y,z
1/2-y,x,z
1/2-x,1/2-y,z
y,1/2-x,z
1/2+x,-y,1/2-z
-x,1/2+y,1/2-z
1/2+y,1/2+x,1/2-z
-y,-x,1/2-z
-x,-y,-z
1/2+y,-x,-z
1/2+x,1/2+y,-z
-y,1/2+x,-z
1/2-x,y,1/2+z
x,1/2-y,1/2+z
1/2-y,1/2-x,1/2+z
y,x,1/2+z
loop_
_atom_site_type_symbol
_atom_site_label
_atom_site_fract_x
_atom_site_fract_y
_atom_site_fract_z
Si Si1 0.539768 0.726678 0.589823
Si Si2 0.965216 0.034785 0.750000
Si Si3 0.682724 0.637735 0.948397
Si Si4 0.480334 0.597881 0.090102
Si Si5 0.945447 0.412934 0.940836
Si Si6 0.953898 0.616867 0.345849
Si Si7 0.774221 0.878397 0.247742
O O1 0.597023 0.688916 0.528255
O O2 0.518718 0.817366 0.576996
O O3 0.461990 0.673924 0.587219
O O4 0.584127 0.720937 0.667387
O O5 0.954691 0.087702 0.823815
O O6 0.053429 0.043255 0.719845
O O7 0.774951 0.649489 0.936334
O O8 0.620094 0.592768 0.897684
O O9 0.541801 0.527839 0.074110
O O10 0.416580 0.581328 0.026192
O O11 0.887290 0.467597 0.893826
O O12 0.941482 0.700704 0.308090
O O13 0.690920 0.837598 0.257058
#
# Coordination Sequence:
#
# PCOD9565644 Si02
#       7
#    16   8  16  16  16  16  16
#     4  12  21  36  60  85 114 152 194 240 295 346
#     4  10  20  36  56  76 106 149 196 243 284 332
#     4  11  22  34  52  82 120 156 186 223 282 361
#     4  10  21  38  60  85 114 153 193 237 292 348
#     4  10  21  38  58  82 113 148 197 242 281 350
#     4  11  21  35  52  74 114 160 196 234 274 327
#     4  11  22  34  52  85 126 159 186 222 280 357
#
# _framework density 19.710104000000001
#
# number of rings (size 3 to 8) (size 9 to 14) (size 15 to 20)
#    0.000    1.231    0.000   10.154    0.000    2.462 
#    0.000    1.538    0.000    0.462    0.000    0.000 
#    0.000    1.231    0.000    0.000    0.000    0.000 
#
# Total GULP energy -580198.737032 kJ/mol
# GULP energy per Si atom -5578.834010 kJ/mol
# Density = 1.966524 g / cm^3
# Si number density = 19.710104 Si / 1000 Ang^3
#
#
#
# Elastic Constant Matrix: (Units=GPa)
#
#
# Indices 1 2 3 4 5 6 
#
# 1 56.9366 24.0231 25.5738 0.0000 0.0000 0.0000
# 2 24.0231 56.9363 25.5736 0.0000 0.0000 0.0000
# 3 25.5738 25.5736 91.3984 0.0000 0.0000 0.0000
# 4 0.0000 0.0000 0.0000 30.7618 0.0000 0.0000
# 5 0.0000 0.0000 0.0000 0.0000 30.7623 0.0000
# 6 0.0000 0.0000 0.0000 0.0000 0.0000 28.4353
#
#
#
# Elastic Compliance Matrix: (Units=1/GPa)
#
#
# Indices 1 2 3 4 5 6 
#
# 1 0.022693 -0.007689 -0.004198 0.000000 0.000000 0.000000
# 2 -0.007689 0.022694 -0.004198 0.000000 0.000000 0.000000
# 3 -0.004198 -0.004198 0.013290 0.000000 0.000000 0.000000
# 4 0.000000 0.000000 0.000000 0.032508 0.000000 0.000000
# 5 0.000000 0.000000 0.000000 0.000000 0.032507 0.000000
# 6 0.000000 0.000000 0.000000 0.000000 0.000000 0.035168
#
#
# Mechanical properties :
#
#
# Convention : Reuss Voigt Hill
#
# Bulk Modulus (GPa) = 37.72755 39.51250 38.62002
# Shear Modulus (GPa) = 25.01663 26.66527 25.84095
#
# Velocity S-wave (km/s) = 3.56649 3.68213 3.62477
# Velocity P-wave (km/s) = 6.01187 6.17801 6.09551
#
# Compressibility (1/GPa) = 0.02650583
#
# Stress axis : x y z
#
# Youngs Moduli (GPa) = 44.06563 44.06538 75.24179
#
# Poissons Ratio (x) = 0.33883 0.31588
# Poissons Ratio (y) = 0.33884 0.31588
# Poissons Ratio (z) = 0.18500 0.18500
#
# Static dielectric constant tensor:
#      x y z
#    x 1.726650 0.000000 0.000000 
#    y 0.000000 1.726650 0.000000 
#    z 0.000000 0.000000 1.755820 
# 
# From -- ./inp_files/3163.got.cif
#   From: 2010.05.17/outbox.cif.g08.bks.cpg/sg130_2_cif.got.tgz:3163.got - 2010.05.20 12:17:35.
