data_PCOD9565987
_publ_section_title
;
Structure prediction by ZEFSAII (Michael W. Deem and Ramdas Pophale) SiO2 
 PCOD9565987
Probable space group: P 4/N C C
;
_chemical_formula_sum "Si O2"
_cell_formula_units_Z 40
_cell_length_a 12.151934
_cell_length_b 12.151934
_cell_length_c 12.604305
_cell_angle_alpha 90.000000
_cell_angle_beta 90.000000
_cell_angle_gamma 90.000000
_cell_volume 1861.271416
_symmetry_space_group_name_H-M "P 4/N C C"
_symmetry_group_IT_number 130
_symmetry_cell_setting 'tetragonal'
loop_
_space_group_symop_operation_xyz
x,y,z
1/2-y,x,z
1/2-x,1/2-y,z
y,1/2-x,z
1/2+x,-y,1/2-z
-x,1/2+y,1/2-z
1/2+y,1/2+x,1/2-z
-y,-x,1/2-z
-x,-y,-z
1/2+y,-x,-z
1/2+x,1/2+y,-z
-y,1/2+x,-z
1/2-x,y,1/2+z
x,1/2-y,1/2+z
1/2-y,1/2-x,1/2+z
y,x,1/2+z
loop_
_atom_site_type_symbol
_atom_site_label
_atom_site_fract_x
_atom_site_fract_y
_atom_site_fract_z
Si Si1 0.904025 0.649997 0.374665
Si Si2 0.960254 0.460254 0.250000
Si Si3 0.399988 0.653129 0.029513
O O1 0.894383 0.780424 0.383054
O O2 0.943195 0.590580 0.267372
O O3 0.993452 0.618378 0.462179
O O4 0.894574 0.416060 0.147481
O O5 0.286108 0.610125 0.977413
#
# Coordination Sequence:
#
# PCOD9565987 Si02
#       3
#    16   8  16
#     4  11  26  47  72 110 150 192 247 304 369 445
#     4  12  26  45  78 105 144 204 240 306 376 429
#     4  11  26  48  75 111 148 191 252 310 360 447
#
# _framework density 21.490687999999999
#
# number of rings (size 3 to 8) (size 9 to 14) (size 15 to 20)
#    0.000    0.800    4.000    1.200    5.600    3.200 
#    0.000    4.000    0.000    0.000    0.000    0.000 
#    0.000    0.000    0.000    0.000    0.000    0.000 
#
# Total GULP energy -223251.955627 kJ/mol
# GULP energy per Si atom -5581.298891 kJ/mol
# Density = 2.144177 g / cm^3
# Si number density = 21.490688 Si / 1000 Ang^3
#
#
#
# Elastic Constant Matrix: (Units=GPa)
#
#
# Indices 1 2 3 4 5 6 
#
# 1 162.4557 54.3476 54.6679 0.0000 0.0000 0.0000
# 2 54.3476 162.4557 54.6679 0.0000 0.0000 0.0000
# 3 54.6679 54.6679 106.0309 0.0000 0.0000 0.0000
# 4 0.0000 0.0000 0.0000 40.6933 0.0000 0.0000
# 5 0.0000 0.0000 0.0000 0.0000 40.6933 0.0000
# 6 0.0000 0.0000 0.0000 0.0000 0.0000 7.8930
#
#
#
# Elastic Compliance Matrix: (Units=1/GPa)
#
#
# Indices 1 2 3 4 5 6 
#
# 1 0.007742 -0.001508 -0.003214 0.000000 0.000000 0.000000
# 2 -0.001508 0.007742 -0.003214 0.000000 0.000000 0.000000
# 3 -0.003214 -0.003214 0.012745 0.000000 0.000000 0.000000
# 4 0.000000 0.000000 0.000000 0.024574 0.000000 0.000000
# 5 0.000000 0.000000 0.000000 0.000000 0.024574 0.000000
# 6 0.000000 0.000000 0.000000 0.000000 0.000000 0.126695
#
#
# Mechanical properties :
#
#
# Convention : Reuss Voigt Hill
#
# Bulk Modulus (GPa) = 80.92873 84.25659 82.59266
# Shear Modulus (GPa) = 22.31525 35.67317 28.99421
#
# Velocity S-wave (km/s) = 3.22587 4.07865 3.67707
# Velocity P-wave (km/s) = 7.18431 7.84039 7.51951
#
# Compressibility (1/GPa) = 0.01235655
#
# Stress axis : x y z
#
# Youngs Moduli (GPa) = 129.17235 129.17235 78.46140
#
# Poissons Ratio (x) = 0.19484 0.25215
# Poissons Ratio (y) = 0.19484 0.25215
# Poissons Ratio (z) = 0.41513 0.41513
#
# Static dielectric constant tensor:
#      x y z
#    x 1.819410 0.000000 0.000000 
#    y 0.000000 1.819410 0.000000 
#    z 0.000000 0.000000 1.739970 
# 
# From -- ./inp_files/367.got.cif
#   From: 2010.05.17/outbox.cif.g08.bks.cpg/sg130_1_cif.got.tgz:367.got - 2010.05.20 12:17:35.
