data_PCOD9565941
_publ_section_title
;
Structure prediction by ZEFSAII (Michael W. Deem and Ramdas Pophale) SiO2 
 PCOD9565941
Probable space group: P 4/N C C
;
_chemical_formula_sum "Si O2"
_cell_formula_units_Z 64
_cell_length_a 13.019646
_cell_length_b 13.019646
_cell_length_c 17.044414
_cell_angle_alpha 90.000000
_cell_angle_beta 90.000000
_cell_angle_gamma 90.000000
_cell_volume 2889.218763
_symmetry_space_group_name_H-M "P 4/N C C"
_symmetry_group_IT_number 130
_symmetry_cell_setting 'tetragonal'
loop_
_space_group_symop_operation_xyz
x,y,z
1/2-y,x,z
1/2-x,1/2-y,z
y,1/2-x,z
1/2+x,-y,1/2-z
-x,1/2+y,1/2-z
1/2+y,1/2+x,1/2-z
-y,-x,1/2-z
-x,-y,-z
1/2+y,-x,-z
1/2+x,1/2+y,-z
-y,1/2+x,-z
1/2-x,y,1/2+z
x,1/2-y,1/2+z
1/2-y,1/2-x,1/2+z
y,x,1/2+z
loop_
_atom_site_type_symbol
_atom_site_label
_atom_site_fract_x
_atom_site_fract_y
_atom_site_fract_z
Si Si1 0.106419 0.833222 0.489637
Si Si2 0.996828 0.157081 0.230085
Si Si3 0.090156 0.312357 0.902550
Si Si4 0.377043 0.967775 0.673810
O O1 0.211907 0.874344 0.526647
O O2 0.089990 0.890304 0.407381
O O3 0.005722 0.842947 0.543085
O O4 0.056178 0.173149 0.312125
O O5 0.002994 0.260339 0.181547
O O6 0.048776 0.064547 0.182660
O O7 0.882050 0.117951 0.250000
O O8 0.121868 0.193468 0.916119
O O9 0.398895 0.898895 0.750000
#
# Coordination Sequence:
#
# PCOD9565941 Si02
#       4
#    16  16  16  16
#     4  11  26  46  71 106 144 186 235 293 360 426
#     4  11  23  42  69 101 135 184 232 284 345 419
#     4  11  24  44  69 102 145 190 230 294 357 419
#     4  11  25  44  70 104 139 184 234 288 347 420
#
# _framework density 22.151318
#
# number of rings (size 3 to 8) (size 9 to 14) (size 15 to 20)
#    0.000    1.000    2.500    3.000    7.000    4.000 
#    0.000    0.000    0.000    0.000    0.000    0.000 
#    0.000    0.000    0.000    0.000    0.000    0.000 
#
# Total GULP energy -358393.403254 kJ/mol
# GULP energy per Si atom -5599.896926 kJ/mol
# Density = 2.210090 g / cm^3
# Si number density = 22.151318 Si / 1000 Ang^3
#
#
#
# Elastic Constant Matrix: (Units=GPa)
#
#
# Indices 1 2 3 4 5 6 
#
# 1 98.3237 8.6465 22.4119 0.0000 0.0000 0.0000
# 2 8.6465 98.3231 22.4107 0.0000 0.0000 0.0000
# 3 22.4119 22.4107 87.0546 0.0000 0.0000 0.0000
# 4 0.0000 0.0000 0.0000 31.1705 0.0000 0.0000
# 5 0.0000 0.0000 0.0000 0.0000 31.1714 0.0000
# 6 0.0000 0.0000 0.0000 0.0000 0.0000 24.9740
#
#
#
# Elastic Compliance Matrix: (Units=1/GPa)
#
#
# Indices 1 2 3 4 5 6 
#
# 1 0.010815 -0.000336 -0.002698 0.000000 0.000000 0.000000
# 2 -0.000336 0.010815 -0.002698 0.000000 0.000000 0.000000
# 3 -0.002698 -0.002698 0.012876 0.000000 0.000000 0.000000
# 4 0.000000 0.000000 0.000000 0.032082 0.000000 0.000000
# 5 0.000000 0.000000 0.000000 0.000000 0.032081 0.000000
# 6 0.000000 0.000000 0.000000 0.000000 0.000000 0.040042
#
#
# Mechanical properties :
#
#
# Convention : Reuss Voigt Hill
#
# Bulk Modulus (GPa) = 43.39715 43.40439 43.40077
# Shear Modulus (GPa) = 31.67485 32.81199 32.24342
#
# Velocity S-wave (km/s) = 3.78554 3.85290 3.81937
# Velocity P-wave (km/s) = 6.22422 6.27934 6.25184
#
# Compressibility (1/GPa) = 0.02304299
#
# Stress axis : x y z
#
# Youngs Moduli (GPa) = 92.46436 92.46440 77.66377
#
# Poissons Ratio (x) = 0.03108 0.20952
# Poissons Ratio (y) = 0.03108 0.20950
# Poissons Ratio (z) = 0.24944 0.24943
#
# Static dielectric constant tensor:
#      x y z
#    x 1.807250 0.000000 0.000000 
#    y 0.000000 1.807250 0.000000 
#    z 0.000000 0.000000 1.789460 
# 
# From -- ./inp_files/2179.got.cif
#   From: 2010.05.17/outbox.cif.g08.bks.cpg/sg130_2_cif.got.tgz:2179.got - 2010.05.20 12:17:35.
