data_PCOD9565971
_publ_section_title
;
Structure prediction by ZEFSAII (Michael W. Deem and Ramdas Pophale) SiO2 
 PCOD9565971
Probable space group: P 4/N C C
;
_chemical_formula_sum "Si O2"
_cell_formula_units_Z 72
_cell_length_a 16.768960
_cell_length_b 16.768960
_cell_length_c 11.021356
_cell_angle_alpha 90.000000
_cell_angle_beta 90.000000
_cell_angle_gamma 90.000000
_cell_volume 3099.183479
_symmetry_space_group_name_H-M "P 4/N C C"
_symmetry_group_IT_number 130
_symmetry_cell_setting 'tetragonal'
loop_
_space_group_symop_operation_xyz
x,y,z
1/2-y,x,z
1/2-x,1/2-y,z
y,1/2-x,z
1/2+x,-y,1/2-z
-x,1/2+y,1/2-z
1/2+y,1/2+x,1/2-z
-y,-x,1/2-z
-x,-y,-z
1/2+y,-x,-z
1/2+x,1/2+y,-z
-y,1/2+x,-z
1/2-x,y,1/2+z
x,1/2-y,1/2+z
1/2-y,1/2-x,1/2+z
y,x,1/2+z
loop_
_atom_site_type_symbol
_atom_site_label
_atom_site_fract_x
_atom_site_fract_y
_atom_site_fract_z
Si Si1 0.935987 0.868636 0.812200
Si Si2 0.304715 0.528822 0.895345
Si Si3 0.433949 0.868954 0.507186
Si Si4 0.138223 0.312412 0.012602
Si Si5 0.044236 0.544236 0.750000
O O1 0.843928 0.854853 0.847456
O O2 0.988954 0.804366 0.739084
O O3 0.941218 0.950329 0.739538
O O4 0.982585 0.882956 0.938426
O O5 0.221611 0.561724 0.946345
O O6 0.368079 0.599901 0.912075
O O7 0.331241 0.450973 0.972114
O O8 0.419823 0.920680 0.627686
O O9 0.147514 0.220712 0.970787
#
# Coordination Sequence:
#
# PCOD9565971 Si02
#       5
#    16  16  16  16   8
#     4  12  24  45  73 109 143 197 252 312 369 455
#     4  12  27  47  77 107 151 200 256 310 380 447
#     4  12  27  47  74 110 149 198 255 312 374 451
#     4  11  25  44  68 107 153 188 239 312 381 448
#     4  12  24  44  78 105 137 202 250 308 368 440
#
# _framework density 23.231925
#
# number of rings (size 3 to 8) (size 9 to 14) (size 15 to 20)
#    0.000    0.222    6.667    2.000    6.222    0.444 
#    0.000    2.222    0.000    0.000    0.000    0.000 
#    0.000    0.000    0.000    0.000    0.000    0.000 
#
# Total GULP energy -401401.238598 kJ/mol
# GULP energy per Si atom -5575.017203 kJ/mol
# Density = 2.317905 g / cm^3
# Si number density = 23.231925 Si / 1000 Ang^3
#
#
#
# Elastic Constant Matrix: (Units=GPa)
#
#
# Indices 1 2 3 4 5 6 
#
# 1 104.7557 39.7890 17.9339 0.0000 0.0000 0.0000
# 2 39.7890 104.7557 17.9339 0.0000 0.0000 0.0000
# 3 17.9339 17.9339 83.4306 0.0000 0.0000 0.0000
# 4 0.0000 0.0000 0.0000 27.5095 0.0000 0.0000
# 5 0.0000 0.0000 0.0000 0.0000 27.5095 0.0000
# 6 0.0000 0.0000 0.0000 0.0000 0.0000 28.7313
#
#
#
# Elastic Compliance Matrix: (Units=1/GPa)
#
#
# Indices 1 2 3 4 5 6 
#
# 1 0.011350 -0.004042 -0.001571 0.000000 0.000000 0.000000
# 2 -0.004042 0.011350 -0.001571 0.000000 0.000000 0.000000
# 3 -0.001571 -0.001571 0.012661 0.000000 0.000000 0.000000
# 4 0.000000 0.000000 0.000000 0.036351 0.000000 0.000000
# 5 0.000000 0.000000 0.000000 0.000000 0.036351 0.000000
# 6 0.000000 0.000000 0.000000 0.000000 0.000000 0.034805
#
#
# Mechanical properties :
#
#
# Convention : Reuss Voigt Hill
#
# Bulk Modulus (GPa) = 47.63296 49.36174 48.49735
# Shear Modulus (GPa) = 30.44407 31.23571 30.83989
#
# Velocity S-wave (km/s) = 3.62393 3.67074 3.64741
# Velocity P-wave (km/s) = 6.16913 6.26572 6.21762
#
# Compressibility (1/GPa) = 0.02099387
#
# Stress axis : x y z
#
# Youngs Moduli (GPa) = 88.10340 88.10340 78.98040
#
# Poissons Ratio (x) = 0.35613 0.12407
# Poissons Ratio (y) = 0.35613 0.12407
# Poissons Ratio (z) = 0.13840 0.13840
#
# Static dielectric constant tensor:
#      x y z
#    x 1.911580 0.000000 0.000000 
#    y 0.000000 1.911580 0.000000 
#    z 0.000000 0.000000 1.959280 
# 
# From -- ./inp_files/1618.got.cif
#   From: 2010.05.17/outbox.cif.g08.bks.cpg/sg130_1_cif.got.tgz:1618.got - 2010.05.20 12:17:35.
