data_PCOD9565468
_publ_section_title
;
Structure prediction by ZEFSAII (Michael W. Deem and Ramdas Pophale) SiO2 
 PCOD9565468
Probable space group: P 4/N M M
;
_chemical_formula_sum "Si O2"
_cell_formula_units_Z 88
_cell_length_a 13.447502
_cell_length_b 13.447502
_cell_length_c 29.160751
_cell_angle_alpha 90.000000
_cell_angle_beta 90.000000
_cell_angle_gamma 90.000000
_cell_volume 5273.293448
_symmetry_space_group_name_H-M "P 4/N M M"
_symmetry_group_IT_number 129
_symmetry_cell_setting 'tetragonal'
loop_
_space_group_symop_operation_xyz
x,y,z
1/2-y,x,z
1/2-x,1/2-y,z
y,1/2-x,z
1/2+x,-y,-z
-x,1/2+y,-z
1/2+y,1/2+x,-z
-y,-x,-z
-x,-y,-z
1/2+y,-x,-z
1/2+x,1/2+y,-z
-y,1/2+x,-z
1/2-x,y,z
x,1/2-y,z
1/2-y,1/2-x,z
y,x,z
loop_
_atom_site_type_symbol
_atom_site_label
_atom_site_fract_x
_atom_site_fract_y
_atom_site_fract_z
Si Si1 0.132963 0.967464 0.779986
Si Si2 0.367928 0.867928 0.500000
Si Si3 0.632068 0.025774 0.591953
Si Si4 0.631979 0.467173 0.867542
Si Si5 0.368498 0.966906 0.305431
Si Si6 0.533248 0.368242 0.955770
O O1 0.250000 0.983533 0.784810
O O2 0.090501 0.901283 0.821676
O O3 0.106713 0.910746 0.732848
O O4 0.069530 0.069530 0.780550
O O5 0.384474 0.750000 0.497171
O O6 0.404891 0.915483 0.452629
O O7 0.750000 0.018453 0.588672
O O8 0.610568 0.069666 0.642474
O O9 0.581160 0.918841 0.591270
O O10 0.750000 0.481032 0.869175
O O11 0.570801 0.570801 0.868375
O O12 0.593115 0.403698 0.910824
O O13 0.250000 0.980776 0.300543
O O14 0.430183 0.069818 0.299581
O O15 0.519491 0.250000 0.956253
O O16 0.429482 0.429482 0.955970
O O17 0.594664 0.405337 0.000000
#
# Coordination Sequence:
#
# PCOD9565468 Si02
#       6
#    16   8  16  16  16  16
#     4  10  21  36  53  74  99 127 162 202 242 287
#     4   9  17  28  42  62  87 115 150 190 230 273
#     4   9  17  29  45  65  90 119 150 186 228 274
#     4  10  21  36  54  78 106 135 169 206 245 293
#     4   9  18  31  47  70  97 124 157 194 234 284
#     4  10  21  36  54  78 106 136 173 214 255 302
#
# _framework density 16.687861999999999
#
# number of rings (size 3 to 8) (size 9 to 14) (size 15 to 20)
#    0.000    2.455    0.000    1.909    0.000    5.091 
#    0.000    3.636    0.000    9.818    0.000    0.000 
#    0.000    4.364    0.000    0.000    0.000    0.000 
#
# Total GULP energy -490443.792176 kJ/mol
# GULP energy per Si atom -5573.224911 kJ/mol
# Density = 1.664988 g / cm^3
# Si number density = 16.687862 Si / 1000 Ang^3
#
#
#
# Elastic Constant Matrix: (Units=GPa)
#
#
# Indices 1 2 3 4 5 6 
#
# 1 106.9249 68.9360 58.6808 0.0000 0.0000 0.0000
# 2 68.9360 106.9235 58.6808 0.0000 0.0000 0.0000
# 3 58.6808 58.6808 147.6365 0.0000 0.0000 0.0000
# 4 0.0000 0.0000 0.0000 19.8749 0.0000 0.0000
# 5 0.0000 0.0000 0.0000 0.0000 19.8755 0.0000
# 6 0.0000 0.0000 0.0000 0.0000 0.0000 8.9739
#
#
#
# Elastic Compliance Matrix: (Units=1/GPa)
#
#
# Indices 1 2 3 4 5 6 
#
# 1 0.017031 -0.009292 -0.003076 0.000000 0.000000 0.000000
# 2 -0.009292 0.017032 -0.003076 0.000000 0.000000 0.000000
# 3 -0.003076 -0.003076 0.009219 0.000000 0.000000 0.000000
# 4 0.000000 0.000000 0.000000 0.050315 0.000000 0.000000
# 5 0.000000 0.000000 0.000000 0.000000 0.050313 0.000000
# 6 0.000000 0.000000 0.000000 0.000000 0.000000 0.111434
#
#
# Mechanical properties :
#
#
# Convention : Reuss Voigt Hill
#
# Bulk Modulus (GPa) = 80.69249 81.56446 81.12848
# Shear Modulus (GPa) = 17.21979 21.42402 19.32190
#
# Velocity S-wave (km/s) = 3.21577 3.58691 3.40640
# Velocity P-wave (km/s) = 7.88969 8.13248 8.01200
#
# Compressibility (1/GPa) = 0.01239273
#
# Stress axis : x y z
#
# Youngs Moduli (GPa) = 58.71500 58.71400 108.47545
#
# Poissons Ratio (x) = 0.54559 0.33367
# Poissons Ratio (y) = 0.54560 0.33369
# Poissons Ratio (z) = 0.18061 0.18061
#
# Static dielectric constant tensor:
#      x y z
#    x 1.536790 0.000000 0.000000 
#    y 0.000000 1.536790 0.000000 
#    z 0.000000 0.000000 1.593140 
# 
# From -- ./inp_files/7770.got.cif
#   From: 2010.05.17/outbox.cif.g08.bks.cpg/sg129_4_cif.got.tgz:7770.got - 2010.05.20 12:12:06.
