data_PCOD9565345
_publ_section_title
;
Structure prediction by ZEFSAII (Michael W. Deem and Ramdas Pophale) SiO2 
 PCOD9565345
Probable space group: P 4/N M M
;
_chemical_formula_sum "Si O2"
_cell_formula_units_Z 80
_cell_length_a 13.641154
_cell_length_b 13.641154
_cell_length_c 26.481961
_cell_angle_alpha 90.000000
_cell_angle_beta 90.000000
_cell_angle_gamma 90.000000
_cell_volume 4927.791968
_symmetry_space_group_name_H-M "P 4/N M M"
_symmetry_group_IT_number 129
_symmetry_cell_setting 'tetragonal'
loop_
_space_group_symop_operation_xyz
x,y,z
1/2-y,x,z
1/2-x,1/2-y,z
y,1/2-x,z
1/2+x,-y,-z
-x,1/2+y,-z
1/2+y,1/2+x,-z
-y,-x,-z
-x,-y,-z
1/2+y,-x,-z
1/2+x,1/2+y,-z
-y,1/2+x,-z
1/2-x,y,z
x,1/2-y,z
1/2-y,1/2-x,z
y,x,z
loop_
_atom_site_type_symbol
_atom_site_label
_atom_site_fract_x
_atom_site_fract_y
_atom_site_fract_z
Si Si1 0.472469 0.866870 0.752181
Si Si2 0.137405 0.869092 0.055413
Si Si3 0.138113 0.868728 0.649108
Si Si4 0.525985 0.366915 0.842452
Si Si5 0.867155 0.472259 0.545778
O O1 0.485707 0.750000 0.752877
O O2 0.418781 0.896127 0.699997
O O3 0.405171 0.901861 0.798648
O O4 0.573971 0.926030 0.755699
O O5 0.250000 0.902507 0.062548
O O6 0.140249 0.750000 0.053261
O O7 0.072290 0.895000 0.103347
O O8 0.100050 0.899951 0.000000
O O9 0.250000 0.905451 0.648748
O O10 0.142627 0.750000 0.649281
O O11 0.080109 0.895426 0.598456
O O12 0.515866 0.250000 0.840100
O O13 0.424188 0.424188 0.835941
O O14 0.904146 0.404146 0.500000
O O15 0.750000 0.484435 0.544188
O O16 0.925840 0.574161 0.542079
#
# Coordination Sequence:
#
# PCOD9565345 Si02
#       5
#    16  16  16  16  16
#     4  10  20  33  50  73  99 127 160 197 240 290
#     4   8  14  26  45  68  92 117 148 190 238 285
#     4   9  17  30  49  71  95 125 160 197 235 275
#     4  10  20  32  47  68  93 124 162 201 241 284
#     4  10  20  33  50  73 100 131 168 208 251 299
#
# _framework density 16.234452000000001
#
# number of rings (size 3 to 8) (size 9 to 14) (size 15 to 20)
#    0.000    2.600    0.000    3.000    0.000    4.000 
#    0.000    0.000    0.000    3.600    0.000    0.000 
#    0.000   19.200    0.000    0.000    0.000    0.000 
#
# Total GULP energy -445822.966550 kJ/mol
# GULP energy per Si atom -5572.787082 kJ/mol
# Density = 1.619750 g / cm^3
# Si number density = 16.234452 Si / 1000 Ang^3
#
#
#
# Elastic Constant Matrix: (Units=GPa)
#
#
# Indices 1 2 3 4 5 6 
#
# 1 85.7849 52.9185 46.6977 0.0000 0.0000 0.0000
# 2 52.9185 85.7847 46.6978 0.0000 0.0000 0.0000
# 3 46.6977 46.6978 144.9579 0.0000 0.0000 0.0000
# 4 0.0000 0.0000 0.0000 18.2573 0.0000 0.0000
# 5 0.0000 0.0000 0.0000 0.0000 18.2574 0.0000
# 6 0.0000 0.0000 0.0000 0.0000 0.0000 7.2954
#
#
#
# Elastic Compliance Matrix: (Units=1/GPa)
#
#
# Indices 1 2 3 4 5 6 
#
# 1 0.019816 -0.010610 -0.002966 0.000000 0.000000 0.000000
# 2 -0.010610 0.019817 -0.002966 0.000000 0.000000 0.000000
# 3 -0.002966 -0.002966 0.008809 0.000000 0.000000 0.000000
# 4 0.000000 0.000000 0.000000 0.054773 0.000000 0.000000
# 5 0.000000 0.000000 0.000000 0.000000 0.054772 0.000000
# 6 0.000000 0.000000 0.000000 0.000000 0.000000 0.137072
#
#
# Mechanical properties :
#
#
# Convention : Reuss Voigt Hill
#
# Bulk Modulus (GPa) = 65.10733 67.68397 66.39565
# Shear Modulus (GPa) = 15.00318 20.10958 17.55638
#
# Velocity S-wave (km/s) = 3.04329 3.52333 3.29207
# Velocity P-wave (km/s) = 7.24847 7.63766 7.44561
#
# Compressibility (1/GPa) = 0.01535925
#
# Stress axis : x y z
#
# Youngs Moduli (GPa) = 50.46305 50.46291 113.51410
#
# Poissons Ratio (x) = 0.53540 0.33667
# Poissons Ratio (y) = 0.53540 0.33668
# Poissons Ratio (z) = 0.14967 0.14967
#
# Static dielectric constant tensor:
#      x y z
#    x 1.523710 0.000000 0.000000 
#    y 0.000000 1.523710 0.000000 
#    z 0.000000 0.000000 1.556210 
# 
# From -- ./inp_files/6317.got.cif
#   From: 2010.05.17/outbox.cif.g08.bks.cpg/sg129_4_cif.got.tgz:6317.got - 2010.05.20 12:12:06.
