data_PCOD9565353
_publ_section_title
;
Structure prediction by ZEFSAII (Michael W. Deem and Ramdas Pophale) SiO2 
 PCOD9565353
Probable space group: P 4/N M M
;
_chemical_formula_sum "Si O2"
_cell_formula_units_Z 96
_cell_length_a 27.023041
_cell_length_b 27.023041
_cell_length_c 7.422954
_cell_angle_alpha 90.000000
_cell_angle_beta 90.000000
_cell_angle_gamma 90.000000
_cell_volume 5420.573150
_symmetry_space_group_name_H-M "P 4/N M M"
_symmetry_group_IT_number 129
_symmetry_cell_setting 'tetragonal'
loop_
_space_group_symop_operation_xyz
x,y,z
1/2-y,x,z
1/2-x,1/2-y,z
y,1/2-x,z
1/2+x,-y,-z
-x,1/2+y,-z
1/2+y,1/2+x,-z
-y,-x,-z
-x,-y,-z
1/2+y,-x,-z
1/2+x,1/2+y,-z
-y,1/2+x,-z
1/2-x,y,z
x,1/2-y,z
1/2-y,1/2-x,z
y,x,z
loop_
_atom_site_type_symbol
_atom_site_label
_atom_site_fract_x
_atom_site_fract_y
_atom_site_fract_z
Si Si1 0.462055 0.957031 0.282008
Si Si2 0.612538 0.306835 0.547440
Si Si3 0.000349 0.807352 0.510346
Si Si4 0.981182 0.807075 0.081567
Si Si5 0.075288 0.644461 0.109117
Si Si6 0.538464 0.881044 0.799731
O O1 0.456690 0.956690 0.500000
O O2 0.453649 0.901460 0.209012
O O3 0.514102 0.985899 0.242212
O O4 0.418764 0.991267 0.195689
O O5 0.654836 0.345165 0.500000
O O6 0.625348 0.250000 0.512867
O O7 0.558828 0.317861 0.460930
O O8 0.600257 0.317463 0.754596
O O9 0.992026 0.750000 0.556218
O O10 0.986429 0.812530 0.298087
O O11 0.970723 0.843645 0.636789
O O12 0.968847 0.750000 0.043238
O O13 0.035357 0.822457 0.005343
O O14 0.950471 0.848877 0.978621
O O15 0.117480 0.617480 0.000000
O O16 0.583899 0.916102 0.758602
#
# Coordination Sequence:
#
# PCOD9565353 Si02
#       6
#    16  16  16  16  16  16
#     4  10  20  32  48  73 107 141 174 215 261 314
#     4  10  21  37  56  75  96 127 176 228 282 329
#     4   9  19  36  56  77 105 143 184 226 264 317
#     4  10  21  36  53  76 107 143 183 224 267 316
#     4  11  19  32  53  74 102 134 178 221 257 316
#     4  11  21  33  52  80 111 145 180 218 267 325
#
# _framework density 17.710304000000001
#
# number of rings (size 3 to 8) (size 9 to 14) (size 15 to 20)
#    0.000    1.833    1.667    5.500    0.000    1.833 
#    0.000    0.833    0.000    0.000    0.000    0.000 
#    0.000    5.333    0.000   14.667    0.000    1.000 
#
# Total GULP energy -535338.263042 kJ/mol
# GULP energy per Si atom -5576.440240 kJ/mol
# Density = 1.766999 g / cm^3
# Si number density = 17.710304 Si / 1000 Ang^3
#
#
#
# Elastic Constant Matrix: (Units=GPa)
#
#
# Indices 1 2 3 4 5 6 
#
# 1 13.1134 122.6480 22.3926 0.0000 0.0000 0.0000
# 2 122.6480 13.0981 22.4099 0.0000 0.0000 0.0000
# 3 22.3926 22.4099 39.1843 0.0000 0.0000 0.0000
# 4 0.0000 0.0000 0.0000 22.3141 0.0000 0.0000
# 5 0.0000 0.0000 0.0000 0.0000 22.3119 0.0000
# 6 0.0000 0.0000 0.0000 0.0000 0.0000 25.6876
#
#
#
# Elastic Compliance Matrix: (Units=1/GPa)
#
#
# Indices 1 2 3 4 5 6 
#
# 1 -0.000023 0.009104 -0.005193 0.000000 0.000000 0.000000
# 2 0.009104 -0.000026 -0.005188 0.000000 0.000000 0.000000
# 3 -0.005193 -0.005188 0.031455 0.000000 0.000000 0.000000
# 4 0.000000 0.000000 0.000000 0.044815 0.000000 0.000000
# 5 0.000000 0.000000 0.000000 0.000000 0.044819 0.000000
# 6 0.000000 0.000000 0.000000 0.000000 0.000000 0.038929
#
#
# Mechanical properties :
#
#
# Convention : Reuss Voigt Hill
#
# Bulk Modulus (GPa) = 34.66011 44.47742 39.56876
# Shear Modulus (GPa) = 29.04616 7.25908 18.15262
#
# Velocity S-wave (km/s) = 4.05417 2.02674 3.20500
# Velocity P-wave (km/s) = 6.44424 5.53582 6.00722
#
# Compressibility (1/GPa) = 0.02885161
#
# Stress axis : x y z
#
# Youngs Moduli (GPa) = -42823.87722 -38096.35502 31.79131
#
# Poissons Ratio (x) = 346.83292 0.16510
# Poissons Ratio (y) = 389.87274 0.16492
# Poissons Ratio (z) = -222.40006 -197.63217
#
# Static dielectric constant tensor:
#      x y z
#    x 1.625410 0.000000 0.000000 
#    y 0.000000 1.625430 0.000000 
#    z 0.000000 0.000000 1.784200 
# 
# From -- ./inp_files/2646.got.cif
#   From: 2010.05.17/outbox.cif.g08.bks.cpg/sg129_2_cif.got.tgz:2646.got - 2010.05.20 12:12:06.
