data_PCOD9565942
_publ_section_title
;
Structure prediction by ZEFSAII (Michael W. Deem and Ramdas Pophale) SiO2 
 PCOD9565942
Probable space group: P 4/N C C
;
_chemical_formula_sum "Si O2"
_cell_formula_units_Z 64
_cell_length_a 16.500029
_cell_length_b 16.500029
_cell_length_c 11.211069
_cell_angle_alpha 90.000000
_cell_angle_beta 90.000000
_cell_angle_gamma 90.000000
_cell_volume 3052.224264
_symmetry_space_group_name_H-M "P 4/N C C"
_symmetry_group_IT_number 130
_symmetry_cell_setting 'tetragonal'
loop_
_space_group_symop_operation_xyz
x,y,z
1/2-y,x,z
1/2-x,1/2-y,z
y,1/2-x,z
1/2+x,-y,1/2-z
-x,1/2+y,1/2-z
1/2+y,1/2+x,1/2-z
-y,-x,1/2-z
-x,-y,-z
1/2+y,-x,-z
1/2+x,1/2+y,-z
-y,1/2+x,-z
1/2-x,y,1/2+z
x,1/2-y,1/2+z
1/2-y,1/2-x,1/2+z
y,x,1/2+z
loop_
_atom_site_type_symbol
_atom_site_label
_atom_site_fract_x
_atom_site_fract_y
_atom_site_fract_z
Si Si1 0.558958 0.564996 0.191174
Si Si2 0.521683 0.195845 0.448792
Si Si3 0.197334 0.122899 0.638469
Si Si4 0.419313 0.627373 0.611823
O O1 0.491339 0.508662 0.250000
O O2 0.513811 0.647642 0.163711
O O3 0.643926 0.577073 0.260666
O O4 0.586262 0.507010 0.082951
O O5 0.440704 0.198905 0.530056
O O6 0.586732 0.144131 0.523245
O O7 0.564113 0.278739 0.411311
O O8 0.291098 0.150135 0.641094
O O9 0.391715 0.608286 0.750000
#
# Coordination Sequence:
#
# PCOD9565942 Si02
#       4
#    16  16  16  16
#     4  11  23  42  71 103 138 186 240 291 365 439
#     4  12  25  44  74 100 144 191 239 302 363 438
#     4  11  24  42  70 107 145 182 233 300 371 437
#     4  11  25  46  70 106 142 189 248 301 367 446
#
# _framework density 20.968316999999999
#
# number of rings (size 3 to 8) (size 9 to 14) (size 15 to 20)
#    0.000    0.750    5.000    3.750    3.500    0.500 
#    0.000    3.750    0.000    0.000    0.000    0.000 
#    0.000    0.000    0.000    0.000    0.000    0.000 
#
# Total GULP energy -356320.706633 kJ/mol
# GULP energy per Si atom -5567.511041 kJ/mol
# Density = 2.092059 g / cm^3
# Si number density = 20.968317 Si / 1000 Ang^3
#
#
#
# Elastic Constant Matrix: (Units=GPa)
#
#
# Indices 1 2 3 4 5 6 
#
# 1 116.2679 102.9616 35.8625 0.0000 0.0000 0.0000
# 2 102.9616 116.2635 35.8601 0.0000 0.0000 0.0000
# 3 35.8625 35.8601 38.7053 0.0000 0.0000 0.0000
# 4 0.0000 0.0000 0.0000 23.3552 0.0000 0.0000
# 5 0.0000 0.0000 0.0000 0.0000 23.3551 0.0000
# 6 0.0000 0.0000 0.0000 0.0000 0.0000 34.1389
#
#
#
# Elastic Compliance Matrix: (Units=1/GPa)
#
#
# Indices 1 2 3 4 5 6 
#
# 1 0.040855 -0.034309 -0.006067 0.000000 0.000000 0.000000
# 2 -0.034309 0.040855 -0.006062 0.000000 0.000000 0.000000
# 3 -0.006067 -0.006062 0.037074 0.000000 0.000000 0.000000
# 4 0.000000 0.000000 0.000000 0.042817 0.000000 0.000000
# 5 0.000000 0.000000 0.000000 0.000000 0.042817 0.000000
# 6 0.000000 0.000000 0.000000 0.000000 0.000000 0.029292
#
#
# Mechanical properties :
#
#
# Convention : Reuss Voigt Hill
#
# Bulk Modulus (GPa) = 38.59975 68.95614 53.77795
# Shear Modulus (GPa) = 14.91540 22.60666 18.76103
#
# Velocity S-wave (km/s) = 2.66997 3.28706 2.99445
# Velocity P-wave (km/s) = 5.28711 6.88212 6.13666
#
# Compressibility (1/GPa) = 0.02590690
#
# Stress axis : x y z
#
# Youngs Moduli (GPa) = 24.47675 24.47677 26.97291
#
# Poissons Ratio (x) = 0.83979 0.16364
# Poissons Ratio (y) = 0.83978 0.16352
# Poissons Ratio (z) = 0.14850 0.14839
#
# Static dielectric constant tensor:
#      x y z
#    x 8.625520 0.000000 0.000000 
#    y 0.000000 8.671100 0.000000 
#    z 0.000000 0.000000 1.800630 
# 
# From -- ./inp_files/2172.got.cif
#   From: 2010.05.17/outbox.cif.g08.bks.cpg/sg130_2_cif.got.tgz:2172.got - 2010.05.20 12:17:35.
