data_PCOD9565451
_publ_section_title
;
Structure prediction by ZEFSAII (Michael W. Deem and Ramdas Pophale) SiO2 
 PCOD9565451
Probable space group: P 4/N M M
;
_chemical_formula_sum "Si O2"
_cell_formula_units_Z 68
_cell_length_a 16.400681
_cell_length_b 16.400681
_cell_length_c 12.533027
_cell_angle_alpha 90.000000
_cell_angle_beta 90.000000
_cell_angle_gamma 90.000000
_cell_volume 3371.162895
_symmetry_space_group_name_H-M "P 4/N M M"
_symmetry_group_IT_number 129
_symmetry_cell_setting 'tetragonal'
loop_
_space_group_symop_operation_xyz
x,y,z
1/2-y,x,z
1/2-x,1/2-y,z
y,1/2-x,z
1/2+x,-y,-z
-x,1/2+y,-z
1/2+y,1/2+x,-z
-y,-x,-z
-x,-y,-z
1/2+y,-x,-z
1/2+x,1/2+y,-z
-y,1/2+x,-z
1/2-x,y,z
x,1/2-y,z
1/2-y,1/2-x,z
y,x,z
loop_
_atom_site_type_symbol
_atom_site_label
_atom_site_fract_x
_atom_site_fract_y
_atom_site_fract_z
Si Si1 0.585886 0.585886 0.047156
Si Si2 0.842613 0.978138 0.480347
Si Si3 0.250000 0.439414 0.831997
Si Si4 0.964764 0.535237 0.831121
Si Si5 0.750000 0.750000 0.243642
Si Si6 0.867976 0.250000 0.795039
Si Si7 0.888022 0.409499 0.673312
Si Si8 0.250000 0.750000 0.000000
O O1 0.583670 0.583670 0.920435
O O2 0.672577 0.564270 0.092655
O O3 0.523787 0.523787 0.102419
O O4 0.750000 0.951055 0.462855
O O5 0.904079 0.904079 0.504322
O O6 0.877944 0.027040 0.379025
O O7 0.844147 0.044073 0.576269
O O8 0.250000 0.532962 0.791710
O O9 0.250000 0.353706 0.764453
O O10 0.021821 0.591600 0.759505
O O11 0.846154 0.332133 0.729495
O O12 0.826179 0.250000 0.913800
#
# Coordination Sequence:
#
# PCOD9565451 Si02
#       8
#     8  16   8   8   2   8  16   2
#     4  10  22  34  58  92 122 166 224 256 331 402
#     4  11  23  43  69 102 132 169 222 284 341 422
#     4  10  20  38  62  86 130 170 208 283 331 386
#     4  11  20  37  62  91 119 166 224 260 314 417
#     4   8  20  40  60 100 120 152 230 280 328 408
#     4  12  26  44  65  93 141 179 219 284 341 396
#     4  11  22  42  68  94 128 173 223 272 341 405
#     4  12  36  44  56 110 144 176 248 288 320 422
#
# _framework density 20.171081000000001
#
# number of rings (size 3 to 8) (size 9 to 14) (size 15 to 20)
#    0.000    1.176    5.882    0.706    4.941    0.235 
#    2.118    0.000    0.000    0.000    3.059    0.000 
#    0.000    0.000    0.000    0.000    0.000    0.000 
#
# Total GULP energy -378816.660594 kJ/mol
# GULP energy per Si atom -5570.833244 kJ/mol
# Density = 2.012517 g / cm^3
# Si number density = 20.171081 Si / 1000 Ang^3
#
#
#
# Elastic Constant Matrix: (Units=GPa)
#
#
# Indices 1 2 3 4 5 6 
#
# 1 239.2928 -110.8016 17.1067 0.0000 0.0000 0.0000
# 2 -110.8016 239.2928 17.1067 0.0000 0.0000 0.0000
# 3 17.1067 17.1067 80.0821 0.0000 0.0000 0.0000
# 4 0.0000 0.0000 0.0000 16.5236 0.0000 0.0000
# 5 0.0000 0.0000 0.0000 0.0000 16.5236 0.0000
# 6 0.0000 0.0000 0.0000 0.0000 0.0000 15.4057
#
#
#
# Elastic Compliance Matrix: (Units=1/GPa)
#
#
# Indices 1 2 3 4 5 6 
#
# 1 0.005554 0.002698 -0.001763 0.000000 0.000000 0.000000
# 2 0.002698 0.005554 -0.001763 0.000000 0.000000 0.000000
# 3 -0.001763 -0.001763 0.013240 0.000000 0.000000 0.000000
# 4 0.000000 0.000000 0.000000 0.060520 0.000000 0.000000
# 5 0.000000 0.000000 0.000000 0.000000 0.060520 0.000000
# 6 0.000000 0.000000 0.000000 0.000000 0.000000 0.064911
#
#
# Mechanical properties :
#
#
# Convention : Reuss Voigt Hill
#
# Bulk Modulus (GPa) = 44.06588 45.05458 44.56023
# Shear Modulus (GPa) = 22.77708 52.04096 37.40902
#
# Velocity S-wave (km/s) = 3.36400 5.08486 4.31116
# Velocity P-wave (km/s) = 6.08129 7.54050 6.84986
#
# Compressibility (1/GPa) = 0.02269330
#
# Stress axis : x y z
#
# Youngs Moduli (GPa) = 180.04432 180.04432 75.52713
#
# Poissons Ratio (x) = -0.48573 0.13314
# Poissons Ratio (y) = -0.48573 0.13314
# Poissons Ratio (z) = 0.31737 0.31737
#
# Static dielectric constant tensor:
#      x y z
#    x 1.737430 0.000000 0.000000 
#    y 0.000000 1.737430 0.000000 
#    z 0.000000 0.000000 1.736720 
# 
# From -- ./inp_files/3610.got.cif
#   From: 2010.05.17/outbox.cif.g08.bks.cpg/sg129_2_cif.got.tgz:3610.got - 2010.05.20 12:12:06.
