data_PCOD9565727
_publ_section_title
;
Structure prediction by ZEFSAII (Michael W. Deem and Ramdas Pophale) SiO2 
 PCOD9565727
Probable space group: P 4/N C C
;
_chemical_formula_sum "Si O2"
_cell_formula_units_Z 80
_cell_length_a 17.944768
_cell_length_b 17.944768
_cell_length_c 8.867660
_cell_angle_alpha 90.000000
_cell_angle_beta 90.000000
_cell_angle_gamma 90.000000
_cell_volume 2855.516862
_symmetry_space_group_name_H-M "P 4/N C C"
_symmetry_group_IT_number 130
_symmetry_cell_setting 'tetragonal'
loop_
_space_group_symop_operation_xyz
x,y,z
1/2-y,x,z
1/2-x,1/2-y,z
y,1/2-x,z
1/2+x,-y,1/2-z
-x,1/2+y,1/2-z
1/2+y,1/2+x,1/2-z
-y,-x,1/2-z
-x,-y,-z
1/2+y,-x,-z
1/2+x,1/2+y,-z
-y,1/2+x,-z
1/2-x,y,1/2+z
x,1/2-y,1/2+z
1/2-y,1/2-x,1/2+z
y,x,1/2+z
loop_
_atom_site_type_symbol
_atom_site_label
_atom_site_fract_x
_atom_site_fract_y
_atom_site_fract_z
Si Si1 0.250000 0.250000 0.972026
Si Si2 0.002460 0.502460 0.750000
Si Si3 0.750000 0.250000 0.500000
Si Si4 0.777660 0.090721 0.584859
Si Si5 0.062560 0.604624 0.020309
Si Si6 0.545631 0.699086 0.285939
Si Si7 0.109847 0.162536 0.390780
O O1 0.309395 0.183039 0.959035
O O2 0.989594 0.425440 0.845046
O O3 0.024867 0.562737 0.877462
O O4 0.775318 0.179570 0.598213
O O5 0.850429 0.075213 0.479093
O O6 0.693084 0.073870 0.536756
O O7 0.792501 0.039046 0.729125
O O8 0.938286 0.678219 0.958928
O O9 0.584480 0.777752 0.237375
O O10 0.585253 0.634216 0.188228
#
# Coordination Sequence:
#
# PCOD9565727 Si02
#       7
#     4   8   4  16  16  16  16
#     4   8  16  34  52  74 124 178 220 266 312 362
#     4  10  24  46  70 106 156 194 228 304 378 436
#     4   8  20  52  80 106 140 178 240 314 380 438
#     4  10  23  45  77 109 140 190 246 304 365 442
#     4  10  24  46  74 106 149 192 244 300 368 436
#     4  11  23  38  64  99 144 190 241 289 352 420
#     4  10  21  37  59  96 141 191 240 289 339 416
#
# _framework density 28.015944999999999
#
# number of rings (size 3 to 8) (size 9 to 14) (size 15 to 20)
#    0.000    2.000    0.000    2.400    0.000   12.800 
#    0.000    4.000    0.000   13.200    0.000    0.000 
#    0.000    1.600    0.000    0.000    0.000    0.000 
#
# Total GULP energy -445761.793873 kJ/mol
# GULP energy per Si atom -5572.022423 kJ/mol
# Density = 2.795218 g / cm^3
# Si number density = 28.015945 Si / 1000 Ang^3
#
#
#
# Elastic Constant Matrix: (Units=GPa)
#
#
# Indices 1 2 3 4 5 6 
#
# 1 208.9016 41.6004 75.2753 0.0000 0.0000 0.0000
# 2 41.6004 208.9016 75.2753 0.0000 0.0000 0.0000
# 3 75.2753 75.2753 149.8495 0.0000 0.0000 0.0000
# 4 0.0000 0.0000 0.0000 3.8073 0.0000 0.0000
# 5 0.0000 0.0000 0.0000 0.0000 3.8073 0.0000
# 6 0.0000 0.0000 0.0000 0.0000 0.0000 38.7455
#
#
#
# Elastic Compliance Matrix: (Units=1/GPa)
#
#
# Indices 1 2 3 4 5 6 
#
# 1 0.005848 -0.000129 -0.002873 0.000000 0.000000 0.000000
# 2 -0.000129 0.005848 -0.002873 0.000000 0.000000 0.000000
# 3 -0.002873 -0.002873 0.009559 0.000000 0.000000 0.000000
# 4 0.000000 0.000000 0.000000 0.262651 0.000000 0.000000
# 5 0.000000 0.000000 0.000000 0.000000 0.262651 0.000000
# 6 0.000000 0.000000 0.000000 0.000000 0.000000 0.025809
#
#
# Mechanical properties :
#
#
# Convention : Reuss Voigt Hill
#
# Bulk Modulus (GPa) = 105.19826 105.77277 105.48552
# Shear Modulus (GPa) = 8.51376 34.30547 21.40962
#
# Velocity S-wave (km/s) = 1.74513 3.50308 2.76740
# Velocity P-wave (km/s) = 6.45690 7.36197 6.92424
#
# Compressibility (1/GPa) = 0.00950586
#
# Stress axis : x y z
#
# Youngs Moduli (GPa) = 171.00407 171.00407 104.60936
#
# Poissons Ratio (x) = 0.02213 0.30050
# Poissons Ratio (y) = 0.02213 0.30050
# Poissons Ratio (z) = 0.49122 0.49122
#
# Static dielectric constant tensor:
#      x y z
#    x 2.508200 0.000000 0.000000 
#    y 0.000000 2.508200 0.000000 
#    z 0.000000 0.000000 2.186880 
# 
# From -- ./inp_files/2352.got.cif
#   From: 2010.05.17/outbox.cif.g08.bks.cpg/sg130_2_cif.got.tgz:2352.got - 2010.05.20 12:17:35.
