data_PCOD9565853
_publ_section_title
;
Structure prediction by ZEFSAII (Michael W. Deem and Ramdas Pophale) SiO2 
 PCOD9565853
Probable space group: P 4/N C C
;
_chemical_formula_sum "Si O2"
_cell_formula_units_Z 112
_cell_length_a 14.389505
_cell_length_b 14.389505
_cell_length_c 24.901169
_cell_angle_alpha 90.000000
_cell_angle_beta 90.000000
_cell_angle_gamma 90.000000
_cell_volume 5155.982619
_symmetry_space_group_name_H-M "P 4/N C C"
_symmetry_group_IT_number 130
_symmetry_cell_setting 'tetragonal'
loop_
_space_group_symop_operation_xyz
x,y,z
1/2-y,x,z
1/2-x,1/2-y,z
y,1/2-x,z
1/2+x,-y,1/2-z
-x,1/2+y,1/2-z
1/2+y,1/2+x,1/2-z
-y,-x,1/2-z
-x,-y,-z
1/2+y,-x,-z
1/2+x,1/2+y,-z
-y,1/2+x,-z
1/2-x,y,1/2+z
x,1/2-y,1/2+z
1/2-y,1/2-x,1/2+z
y,x,1/2+z
loop_
_atom_site_type_symbol
_atom_site_label
_atom_site_fract_x
_atom_site_fract_y
_atom_site_fract_z
Si Si1 0.609973 0.809957 0.029153
Si Si2 0.707673 0.603141 0.899948
Si Si3 0.590937 0.438973 0.889333
Si Si4 0.359376 0.511531 0.287048
Si Si5 0.855501 0.016153 0.212722
Si Si6 0.408694 0.551214 0.903368
Si Si7 0.372292 0.658277 0.999523
O O1 0.631909 0.702958 0.042756
O O2 0.526819 0.856011 0.061266
O O3 0.595394 0.806887 0.964828
O O4 0.810519 0.639305 0.885688
O O5 0.680310 0.502798 0.876836
O O6 0.560909 0.364787 0.845317
O O7 0.509045 0.513488 0.888944
O O8 0.593511 0.394938 0.948260
O O9 0.417927 0.582074 0.250000
O O10 0.251766 0.499638 0.271412
O O11 0.419853 0.415778 0.288378
O O12 0.912301 0.087700 0.250000
O O13 0.857014 0.060317 0.152840
O O14 0.422602 0.636087 0.944038
O O15 0.266497 0.628490 0.989616
#
# Coordination Sequence:
#
# PCOD9565853 Si02
#       7
#    16  16  16  16  16  16  16
#     4   9  19  32  54  92 132 169 207 254 314 383
#     4   9  19  36  58  91 133 175 216 266 325 390
#     4  11  23  38  64  91 124 169 211 267 323 390
#     4  10  24  48  71  99 128 169 221 273 338 399
#     4  10  24  46  71  99 133 167 222 278 330 403
#     4  11  23  36  63  89 124 165 207 255 320 368
#     4  11  25  38  53  86 130 171 213 256 309 380
#
# _framework density 21.722338000000001
#
# number of rings (size 3 to 8) (size 9 to 14) (size 15 to 20)
#    0.000    1.857    1.429    2.143    8.000    1.714 
#    5.143    0.000    0.000    0.000    0.000    0.000 
#    0.000    0.000    0.000    0.000    0.000    0.000 
#
# Total GULP energy -625864.060024 kJ/mol
# GULP energy per Si atom -5588.071964 kJ/mol
# Density = 2.167290 g / cm^3
# Si number density = 21.722338 Si / 1000 Ang^3
#
#
#
# Elastic Constant Matrix: (Units=GPa)
#
#
# Indices 1 2 3 4 5 6 
#
# 1 134.5406 -1.2090 26.4215 0.0000 0.0000 0.0000
# 2 -1.2090 134.5326 26.4316 0.0000 0.0000 0.0000
# 3 26.4215 26.4316 33.4345 0.0000 0.0000 0.0000
# 4 0.0000 0.0000 0.0000 12.6451 0.0000 0.0000
# 5 0.0000 0.0000 0.0000 0.0000 12.6443 0.0000
# 6 0.0000 0.0000 0.0000 0.0000 0.0000 19.8755
#
#
#
# Elastic Compliance Matrix: (Units=1/GPa)
#
#
# Indices 1 2 3 4 5 6 
#
# 1 0.009144 0.001778 -0.008631 0.000000 0.000000 0.000000
# 2 0.001778 0.009146 -0.008635 0.000000 0.000000 0.000000
# 3 -0.008631 -0.008635 0.043557 0.000000 0.000000 0.000000
# 4 0.000000 0.000000 0.000000 0.079082 0.000000 0.000000
# 5 0.000000 0.000000 0.000000 0.000000 0.079087 0.000000
# 6 0.000000 0.000000 0.000000 0.000000 0.000000 0.050313
#
#
# Mechanical properties :
#
#
# Convention : Reuss Voigt Hill
#
# Bulk Modulus (GPa) = 32.39499 45.08844 38.74171
# Shear Modulus (GPa) = 16.04644 25.75720 20.90182
#
# Velocity S-wave (km/s) = 2.72087 3.44720 3.10534
# Velocity P-wave (km/s) = 4.98161 6.05360 5.54358
#
# Compressibility (1/GPa) = 0.03086897
#
# Stress axis : x y z
#
# Youngs Moduli (GPa) = 109.36449 109.34135 22.95859
#
# Poissons Ratio (x) = -0.19441 0.19816
# Poissons Ratio (y) = -0.19445 0.19825
# Poissons Ratio (z) = 0.94397 0.94418
#
# Static dielectric constant tensor:
#      x y z
#    x 1.814000 0.000000 0.000000 
#    y 0.000000 1.814000 0.000000 
#    z 0.000000 0.000000 1.774340 
# 
# From -- ./inp_files/4291.got.cif
#   From: 2010.05.17/outbox.cif.g08.bks.cpg/sg130_3_cif.got.tgz:4291.got - 2010.05.20 12:17:35.
