data_PCOD9565182
_publ_section_title
;
Structure prediction by ZEFSAII (Michael W. Deem and Ramdas Pophale) SiO2 
 PCOD9565182
Probable space group: P 4/N M M
;
_chemical_formula_sum "Si O2"
_cell_formula_units_Z 112
_cell_length_a 19.109825
_cell_length_b 19.109825
_cell_length_c 20.768705
_cell_angle_alpha 90.000000
_cell_angle_beta 90.000000
_cell_angle_gamma 90.000000
_cell_volume 7584.428082
_symmetry_space_group_name_H-M "P 4/N M M"
_symmetry_group_IT_number 129
_symmetry_cell_setting 'tetragonal'
loop_
_space_group_symop_operation_xyz
x,y,z
1/2-y,x,z
1/2-x,1/2-y,z
y,1/2-x,z
1/2+x,-y,-z
-x,1/2+y,-z
1/2+y,1/2+x,-z
-y,-x,-z
-x,-y,-z
1/2+y,-x,-z
1/2+x,1/2+y,-z
-y,1/2+x,-z
1/2-x,y,z
x,1/2-y,z
1/2-y,1/2-x,z
y,x,z
loop_
_atom_site_type_symbol
_atom_site_label
_atom_site_fract_x
_atom_site_fract_y
_atom_site_fract_z
Si Si1 0.331463 0.445750 0.996533
Si Si2 0.665764 0.412219 0.697896
Si Si3 0.669152 0.335072 0.427743
Si Si4 0.831610 0.100986 0.182786
Si Si5 0.449726 0.832631 0.895965
Si Si6 0.057026 0.170682 0.842794
Si Si7 0.333076 0.049759 0.227721
O O1 0.250000 0.431092 0.012444
O O2 0.381317 0.381317 0.014152
O O3 0.352365 0.513809 0.037179
O O4 0.336005 0.455571 0.919848
O O5 0.750000 0.409334 0.699500
O O6 0.641900 0.382303 0.629173
O O7 0.638201 0.361298 0.753850
O O8 0.647563 0.491629 0.718068
O O9 0.645810 0.354191 0.500000
O O10 0.750000 0.357694 0.416737
O O11 0.670513 0.250000 0.427366
O O12 0.750000 0.116682 0.171974
O O13 0.880900 0.126006 0.124552
O O14 0.839226 0.017710 0.189952
O O15 0.432993 0.750000 0.896790
O O16 0.507819 0.842995 0.839698
O O17 0.081856 0.250000 0.831432
O O18 0.113892 0.113892 0.823496
O O19 0.250000 0.066390 0.233066
O O20 0.383325 0.116676 0.230368
#
# Coordination Sequence:
#
# PCOD9565182 Si02
#       7
#    16  16  16  16  16  16  16
#     4   9  17  30  46  62  81 103 130 168 213 259
#     4   9  17  28  43  63  87 116 143 167 200 240
#     4   8  13  22  39  64  90 113 138 166 195 232
#     4  10  19  29  42  61  84 110 142 173 195 228
#     4   9  18  30  43  60  82 108 136 168 208 251
#     4   9  19  33  47  64  82 101 130 170 215 259
#     4   9  17  28  41  59  82 108 141 176 210 250
#
# _framework density 14.767098000000001
#
# number of rings (size 3 to 8) (size 9 to 14) (size 15 to 20)
#    0.000    3.000    0.000    2.571    0.000    5.571 
#    0.000    2.857    0.000    3.857    0.000    8.000 
#    0.000    0.000    0.000    0.000    0.000   18.000 
#
# Total GULP energy -623707.701553 kJ/mol
# GULP energy per Si atom -5568.818764 kJ/mol
# Density = 1.473349 g / cm^3
# Si number density = 14.767098 Si / 1000 Ang^3
#
#
#
# Elastic Constant Matrix: (Units=GPa)
#
#
# Indices 1 2 3 4 5 6 
#
# 1 52.6768 41.5402 3.6853 0.0000 0.0000 0.0000
# 2 41.5402 52.6767 3.6853 0.0000 0.0000 0.0000
# 3 3.6853 3.6853 10.4163 0.0000 0.0000 0.0000
# 4 0.0000 0.0000 0.0000 14.3289 0.0000 0.0000
# 5 0.0000 0.0000 0.0000 0.0000 14.3290 0.0000
# 6 0.0000 0.0000 0.0000 0.0000 0.0000 26.0710
#
#
#
# Elastic Compliance Matrix: (Units=1/GPa)
#
#
# Indices 1 2 3 4 5 6 
#
# 1 0.050355 -0.039439 -0.003862 0.000000 0.000000 0.000000
# 2 -0.039439 0.050355 -0.003862 0.000000 0.000000 0.000000
# 3 -0.003862 -0.003862 0.098736 0.000000 0.000000 0.000000
# 4 0.000000 0.000000 0.000000 0.069789 0.000000 0.000000
# 5 0.000000 0.000000 0.000000 0.000000 0.069789 0.000000
# 6 0.000000 0.000000 0.000000 0.000000 0.000000 0.038357
#
#
# Mechanical properties :
#
#
# Convention : Reuss Voigt Hill
#
# Bulk Modulus (GPa) = 9.51298 23.73238 16.62268
# Shear Modulus (GPa) = 9.86685 15.40305 12.63495
#
# Velocity S-wave (km/s) = 2.58769 3.23316 2.92826
# Velocity P-wave (km/s) = 3.92227 5.48122 4.76592
#
# Compressibility (1/GPa) = 0.10511956
#
# Stress axis : x y z
#
# Youngs Moduli (GPa) = 19.85894 19.85889 10.12801
#
# Poissons Ratio (x) = 0.78322 0.03911
# Poissons Ratio (y) = 0.78322 0.03912
# Poissons Ratio (z) = 0.07669 0.07670
#
# Static dielectric constant tensor:
#      x y z
#    x 1.482610 0.000000 0.000000 
#    y 0.000000 1.482610 0.000000 
#    z 0.000000 0.000000 1.501310 
# 
# From -- ./inp_files/7228.got.cif
#   From: 2010.05.17/outbox.cif.g08.bks.cpg/sg129_4_cif.got.tgz:7228.got - 2010.05.20 12:12:06.
