data_PCOD9565713
_publ_section_title
;
Structure prediction by ZEFSAII (Michael W. Deem and Ramdas Pophale) SiO2 
 PCOD9565713
Probable space group: P 4/N C C
;
_chemical_formula_sum "Si O2"
_cell_formula_units_Z 92
_cell_length_a 15.346945
_cell_length_b 15.346945
_cell_length_c 16.846324
_cell_angle_alpha 90.000000
_cell_angle_beta 90.000000
_cell_angle_gamma 90.000000
_cell_volume 3967.793142
_symmetry_space_group_name_H-M "P 4/N C C"
_symmetry_group_IT_number 130
_symmetry_cell_setting 'tetragonal'
loop_
_space_group_symop_operation_xyz
x,y,z
1/2-y,x,z
1/2-x,1/2-y,z
y,1/2-x,z
1/2+x,-y,1/2-z
-x,1/2+y,1/2-z
1/2+y,1/2+x,1/2-z
-y,-x,1/2-z
-x,-y,-z
1/2+y,-x,-z
1/2+x,1/2+y,-z
-y,1/2+x,-z
1/2-x,y,1/2+z
x,1/2-y,1/2+z
1/2-y,1/2-x,1/2+z
y,x,1/2+z
loop_
_atom_site_type_symbol
_atom_site_label
_atom_site_fract_x
_atom_site_fract_y
_atom_site_fract_z
Si Si1 0.250000 0.750000 0.750000
Si Si2 0.046518 0.381091 0.320401
Si Si3 0.785178 0.114832 0.000040
Si Si4 0.455106 0.955106 0.250000
Si Si5 0.277196 0.932101 0.330918
Si Si6 0.997996 0.570132 0.928138
Si Si7 0.143346 0.152918 0.985148
O O1 0.337349 0.752057 0.698297
O O2 0.072963 0.441871 0.245955
O O3 0.111954 0.371034 0.394853
O O4 0.004246 0.289068 0.295640
O O5 0.976042 0.449821 0.357074
O O6 0.759817 0.059241 0.076145
O O7 0.696414 0.156730 0.968708
O O8 0.844602 0.056565 0.944910
O O9 0.381238 0.932569 0.316435
O O10 0.898332 0.598239 0.942131
O O11 0.000000 0.500000 0.000000
O O12 0.244699 0.131540 0.991576
#
# Coordination Sequence:
#
# PCOD9565713 Si02
#       7
#     4  16  16   8  16  16  16
#     4  10  22  36  54  88 134 170 204 270 320 390
#     4  11  21  41  61  88 125 171 214 269 318 388
#     4  11  21  36  62  95 124 157 200 267 337 391
#     4  11  25  41  64  89 129 177 226 264 326 391
#     4  11  22  40  61  94 132 167 224 268 326 403
#     4  10  21  35  58  88 123 157 200 258 324 381
#     4  10  21  38  63  90 122 164 213 265 317 381
#
# _framework density 23.186693999999999
#
# number of rings (size 3 to 8) (size 9 to 14) (size 15 to 20)
#    0.000    1.391    1.739    5.739    2.435    0.000 
#    0.000    0.000    0.000    0.000    0.000    2.435 
#    0.000    0.000    0.000    0.000    0.000    0.000 
#
# Total GULP energy -512302.931448 kJ/mol
# GULP energy per Si atom -5568.510124 kJ/mol
# Density = 2.313392 g / cm^3
# Si number density = 23.186694 Si / 1000 Ang^3
#
#
#
# Elastic Constant Matrix: (Units=GPa)
#
#
# Indices 1 2 3 4 5 6 
#
# 1 82.3562 38.4654 4.0762 0.0000 0.0000 0.0000
# 2 38.4654 82.3562 4.0762 0.0000 0.0000 0.0000
# 3 4.0762 4.0762 22.4303 0.0000 0.0000 0.0000
# 4 0.0000 0.0000 0.0000 19.6974 0.0000 0.0000
# 5 0.0000 0.0000 0.0000 0.0000 19.6974 0.0000
# 6 0.0000 0.0000 0.0000 0.0000 0.0000 36.9229
#
#
#
# Elastic Compliance Matrix: (Units=1/GPa)
#
#
# Indices 1 2 3 4 5 6 
#
# 1 0.015582 -0.007202 -0.001523 0.000000 0.000000 0.000000
# 2 -0.007202 0.015582 -0.001523 0.000000 0.000000 0.000000
# 3 -0.001523 -0.001523 0.045136 0.000000 0.000000 0.000000
# 4 0.000000 0.000000 0.000000 0.050768 0.000000 0.000000
# 5 0.000000 0.000000 0.000000 0.000000 0.050768 0.000000
# 6 0.000000 0.000000 0.000000 0.000000 0.000000 0.027083
#
#
# Mechanical properties :
#
#
# Convention : Reuss Voigt Hill
#
# Bulk Modulus (GPa) = 17.91996 31.15317 24.53656
# Shear Modulus (GPa) = 20.49047 24.63185 22.56116
#
# Velocity S-wave (km/s) = 2.97596 3.26287 3.12271
# Velocity P-wave (km/s) = 4.42197 5.25928 4.85870
#
# Compressibility (1/GPa) = 0.05580371
#
# Stress axis : x y z
#
# Youngs Moduli (GPa) = 64.17819 64.17819 22.15525
#
# Poissons Ratio (x) = 0.46222 0.03374
# Poissons Ratio (y) = 0.46222 0.03374
# Poissons Ratio (z) = 0.09773 0.09773
#
# Static dielectric constant tensor:
#      x y z
#    x 1.965170 0.000000 0.000000 
#    y 0.000000 1.965170 0.000000 
#    z 0.000000 0.000000 2.169310 
# 
# From -- ./inp_files/3838.got.cif
#   From: 2010.05.17/outbox.cif.g08.bks.cpg/sg130_2_cif.got.tgz:3838.got - 2010.05.20 12:17:35.
