data_PCOD9565494
_publ_section_title
;
Structure prediction by ZEFSAII (Michael W. Deem and Ramdas Pophale) SiO2 
 PCOD9565494
Probable space group: P 4/N M M
;
_chemical_formula_sum "Si O2"
_cell_formula_units_Z 80
_cell_length_a 22.465628
_cell_length_b 22.465628
_cell_length_c 9.149909
_cell_angle_alpha 90.000000
_cell_angle_beta 90.000000
_cell_angle_gamma 90.000000
_cell_volume 4617.999711
_symmetry_space_group_name_H-M "P 4/N M M"
_symmetry_group_IT_number 129
_symmetry_cell_setting 'tetragonal'
loop_
_space_group_symop_operation_xyz
x,y,z
1/2-y,x,z
1/2-x,1/2-y,z
y,1/2-x,z
1/2+x,-y,-z
-x,1/2+y,-z
1/2+y,1/2+x,-z
-y,-x,-z
-x,-y,-z
1/2+y,-x,-z
1/2+x,1/2+y,-z
-y,1/2+x,-z
1/2-x,y,z
x,1/2-y,z
1/2-y,1/2-x,z
y,x,z
loop_
_atom_site_type_symbol
_atom_site_label
_atom_site_fract_x
_atom_site_fract_y
_atom_site_fract_z
Si Si1 0.142987 0.684374 0.848193
Si Si2 0.387811 0.685159 0.399724
Si Si3 0.038940 0.038940 0.303805
Si Si4 0.111874 0.528036 0.077035
Si Si5 0.320267 0.491086 0.786152
Si Si6 0.062614 0.062614 0.642488
O O1 0.119474 0.750000 0.834156
O O2 0.184278 0.665565 0.716158
O O3 0.087087 0.640711 0.855940
O O4 0.176900 0.676900 0.000000
O O5 0.371068 0.628933 0.500000
O O6 0.390220 0.750000 0.474781
O O7 0.447032 0.678763 0.304308
O O8 0.058000 0.058000 0.466428
O O9 0.014230 0.093775 0.208798
O O10 0.987277 0.987277 0.310006
O O11 0.051500 0.551500 0.000000
O O12 0.155177 0.502760 0.950716
O O13 0.250000 0.471752 0.787514
O O14 0.371832 0.453135 0.705473
#
# Coordination Sequence:
#
# PCOD9565494 Si02
#       6
#    16  16   8  16  16   8
#     4  11  21  33  50  71 103 149 201 242 277 326
#     4  11  23  36  49  72 108 153 199 245 291 338
#     4  11  22  35  62  93 119 153 191 247 305 361
#     4  11  19  35  55  81 114 148 192 237 296 343
#     4  11  23  40  61  85 118 156 197 245 297 356
#     4  11  23  38  61  91 122 154 198 241 302 366
#
# _framework density 17.323516999999999
#
# number of rings (size 3 to 8) (size 9 to 14) (size 15 to 20)
#    0.000    1.000    6.000    2.700    5.600    2.400 
#    0.000    1.000    0.000    0.300    0.000    0.000 
#    0.000    1.600    0.000    0.000    0.000    0.000 
#
# Total GULP energy -446011.347442 kJ/mol
# GULP energy per Si atom -5575.141843 kJ/mol
# Density = 1.728409 g / cm^3
# Si number density = 17.323517 Si / 1000 Ang^3
#
#
#
# Elastic Constant Matrix: (Units=GPa)
#
#
# Indices 1 2 3 4 5 6 
#
# 1 76.6663 47.3080 38.1280 0.0000 0.0000 0.0000
# 2 47.3080 76.6683 38.1287 0.0000 0.0000 0.0000
# 3 38.1280 38.1287 96.5494 0.0000 0.0000 0.0000
# 4 0.0000 0.0000 0.0000 14.4149 0.0000 0.0000
# 5 0.0000 0.0000 0.0000 0.0000 14.4139 0.0000
# 6 0.0000 0.0000 0.0000 0.0000 0.0000 12.3026
#
#
#
# Elastic Compliance Matrix: (Units=1/GPa)
#
#
# Indices 1 2 3 4 5 6 
#
# 1 0.022358 -0.011703 -0.004207 0.000000 0.000000 0.000000
# 2 -0.011703 0.022357 -0.004207 0.000000 0.000000 0.000000
# 3 -0.004207 -0.004207 0.013680 0.000000 0.000000 0.000000
# 4 0.000000 0.000000 0.000000 0.069373 0.000000 0.000000
# 5 0.000000 0.000000 0.000000 0.000000 0.069378 0.000000
# 6 0.000000 0.000000 0.000000 0.000000 0.000000 0.081284
#
#
# Mechanical properties :
#
#
# Convention : Reuss Voigt Hill
#
# Bulk Modulus (GPa) = 55.06903 55.22371 55.14637
# Shear Modulus (GPa) = 15.39794 16.64756 16.02275
#
# Velocity S-wave (km/s) = 2.98459 3.10333 3.04454
# Velocity P-wave (km/s) = 6.61322 6.69238 6.65292
#
# Compressibility (1/GPa) = 0.01815903
#
# Stress axis : x y z
#
# Youngs Moduli (GPa) = 44.72742 44.72839 73.09684
#
# Poissons Ratio (x) = 0.52347 0.30755
# Poissons Ratio (y) = 0.52346 0.30755
# Poissons Ratio (z) = 0.18818 0.18819
#
# Static dielectric constant tensor:
#      x y z
#    x 1.603660 0.000000 0.000000 
#    y 0.000000 1.603660 0.000000 
#    z 0.000000 0.000000 1.642600 
# 
# From -- ./inp_files/2515.got.cif
#   From: 2010.05.17/outbox.cif.g08.bks.cpg/sg129_2_cif.got.tgz:2515.got - 2010.05.20 12:12:06.
