data_PCOD9565829
_publ_section_title
;
Structure prediction by ZEFSAII (Michael W. Deem and Ramdas Pophale) SiO2 
 PCOD9565829
Probable space group: P 4/N C C
;
_chemical_formula_sum "Si O2"
_cell_formula_units_Z 84
_cell_length_a 16.645966
_cell_length_b 16.645966
_cell_length_c 12.539759
_cell_angle_alpha 90.000000
_cell_angle_beta 90.000000
_cell_angle_gamma 90.000000
_cell_volume 3474.619050
_symmetry_space_group_name_H-M "P 4/N C C"
_symmetry_group_IT_number 130
_symmetry_cell_setting 'tetragonal'
loop_
_space_group_symop_operation_xyz
x,y,z
1/2-y,x,z
1/2-x,1/2-y,z
y,1/2-x,z
1/2+x,-y,1/2-z
-x,1/2+y,1/2-z
1/2+y,1/2+x,1/2-z
-y,-x,1/2-z
-x,-y,-z
1/2+y,-x,-z
1/2+x,1/2+y,-z
-y,1/2+x,-z
1/2-x,y,1/2+z
x,1/2-y,1/2+z
1/2-y,1/2-x,1/2+z
y,x,1/2+z
loop_
_atom_site_type_symbol
_atom_site_label
_atom_site_fract_x
_atom_site_fract_y
_atom_site_fract_z
Si Si1 0.977844 0.692464 0.746110
Si Si2 0.250000 0.750000 0.000000
Si Si3 0.093854 0.882006 0.875043
Si Si4 0.194514 0.599208 0.577737
Si Si5 0.376576 0.292326 0.937524
Si Si6 0.353678 0.071528 0.158580
O O1 0.958255 0.680671 0.622368
O O2 0.903933 0.644341 0.796768
O O3 0.964967 0.787660 0.761915
O O4 0.053715 0.665464 0.816566
O O5 0.194642 0.803653 0.076598
O O6 0.121004 0.878997 0.750000
O O7 0.150199 0.922833 0.965855
O O8 0.002208 0.912577 0.871874
O O9 0.084169 0.790271 0.916763
O O10 0.298596 0.347745 0.913984
O O11 0.396027 0.302664 0.060451
#
# Coordination Sequence:
#
# PCOD9565829 Si02
#       6
#    16   4  16  16  16  16
#     4  11  22  38  63 100 138 182 230 280 343 416
#     4   8  16  44  66  92 120 170 216 292 358 388
#     4  10  23  44  70  98 137 182 218 294 361 418
#     4   9  21  41  68  96 128 170 234 286 343 414
#     4  11  22  37  63  94 139 193 234 276 334 405
#     4  11  23  39  63  98 140 179 232 283 337 421
#
# _framework density 24.175312000000002
#
# number of rings (size 3 to 8) (size 9 to 14) (size 15 to 20)
#    0.000    1.714    3.810    0.000    0.000    8.762 
#    0.000   23.810    0.000    0.000    0.000    0.000 
#    0.000    0.000    0.000    0.000    0.000    0.000 
#
# Total GULP energy -467756.978863 kJ/mol
# GULP energy per Si atom -5568.535463 kJ/mol
# Density = 2.412029 g / cm^3
# Si number density = 24.175312 Si / 1000 Ang^3
#
#
#
# Elastic Constant Matrix: (Units=GPa)
#
#
# Indices 1 2 3 4 5 6 
#
# 1 58.6404 11.8506 24.1043 0.0000 0.0000 0.0000
# 2 11.8506 58.6409 24.1044 0.0000 0.0000 0.0000
# 3 24.1043 24.1044 78.7389 0.0000 0.0000 0.0000
# 4 0.0000 0.0000 0.0000 27.0830 0.0000 0.0000
# 5 0.0000 0.0000 0.0000 0.0000 27.0822 0.0000
# 6 0.0000 0.0000 0.0000 0.0000 0.0000 10.7364
#
#
#
# Elastic Compliance Matrix: (Units=1/GPa)
#
#
# Indices 1 2 3 4 5 6 
#
# 1 0.019657 -0.001715 -0.005493 0.000000 0.000000 0.000000
# 2 -0.001715 0.019657 -0.005493 0.000000 0.000000 0.000000
# 3 -0.005493 -0.005493 0.016063 0.000000 0.000000 0.000000
# 4 0.000000 0.000000 0.000000 0.036923 0.000000 0.000000
# 5 0.000000 0.000000 0.000000 0.000000 0.036925 0.000000
# 6 0.000000 0.000000 0.000000 0.000000 0.000000 0.093141
#
#
# Mechanical properties :
#
#
# Convention : Reuss Voigt Hill
#
# Bulk Modulus (GPa) = 33.35850 35.12654 34.24252
# Shear Modulus (GPa) = 19.39791 22.04440 20.72115
#
# Velocity S-wave (km/s) = 2.83571 3.02297 2.93084
# Velocity P-wave (km/s) = 4.95482 5.17165 5.06439
#
# Compressibility (1/GPa) = 0.02997737
#
# Stress axis : x y z
#
# Youngs Moduli (GPa) = 50.87136 50.87176 62.25403
#
# Poissons Ratio (x) = 0.08723 0.34195
# Poissons Ratio (y) = 0.08723 0.34195
# Poissons Ratio (z) = 0.27943 0.27943
#
# Static dielectric constant tensor:
#      x y z
#    x 2.004890 0.000000 0.000000 
#    y 0.000000 2.004890 0.000000 
#    z 0.000000 0.000000 2.004750 
# 
# From -- ./inp_files/1740.got.cif
#   From: 2010.05.17/outbox.cif.g08.bks.cpg/sg130_1_cif.got.tgz:1740.got - 2010.05.20 12:17:35.
