data_PCOD9565277
_publ_section_title
;
Structure prediction by ZEFSAII (Michael W. Deem and Ramdas Pophale) SiO2 
 PCOD9565277
Probable space group: P 4/N M M
;
_chemical_formula_sum "Si O2"
_cell_formula_units_Z 80
_cell_length_a 13.410990
_cell_length_b 13.410990
_cell_length_c 27.206651
_cell_angle_alpha 90.000000
_cell_angle_beta 90.000000
_cell_angle_gamma 90.000000
_cell_volume 4893.242769
_symmetry_space_group_name_H-M "P 4/N M M"
_symmetry_group_IT_number 129
_symmetry_cell_setting 'tetragonal'
loop_
_space_group_symop_operation_xyz
x,y,z
1/2-y,x,z
1/2-x,1/2-y,z
y,1/2-x,z
1/2+x,-y,-z
-x,1/2+y,-z
1/2+y,1/2+x,-z
-y,-x,-z
-x,-y,-z
1/2+y,-x,-z
1/2+x,1/2+y,-z
-y,1/2+x,-z
1/2-x,y,z
x,1/2-y,z
1/2-y,1/2-x,z
y,x,z
loop_
_atom_site_type_symbol
_atom_site_label
_atom_site_fract_x
_atom_site_fract_y
_atom_site_fract_z
Si Si1 0.631506 0.133760 0.850540
Si Si2 0.636480 0.371138 0.353845
Si Si3 0.530003 0.367861 0.455155
Si Si4 0.499106 0.499106 0.077441
Si Si5 0.368487 0.530225 0.252753
Si Si6 0.371407 0.128594 0.999416
O O1 0.750000 0.121214 0.859141
O O2 0.607196 0.250000 0.856058
O O3 0.569789 0.067605 0.888272
O O4 0.611790 0.098663 0.794700
O O5 0.750000 0.407295 0.355089
O O6 0.639433 0.250000 0.353482
O O7 0.578899 0.399303 0.403317
O O8 0.582904 0.400549 0.303405
O O9 0.601563 0.398438 0.500000
O O10 0.514662 0.250000 0.454467
O O11 0.428156 0.428156 0.461847
O O12 0.426916 0.426916 0.045065
O O13 0.571591 0.571591 0.045345
O O14 0.250000 0.512896 0.255204
O O15 0.428615 0.428615 0.246854
O O16 0.387134 0.250000 0.999214
#
# Coordination Sequence:
#
# PCOD9565277 Si02
#       6
#    16  16  16   8  16   8
#     4  10  20  34  53  78 106 136 173 218 264 308
#     4   9  17  30  49  71  96 131 172 213 260 310
#     4  10  20  33  50  74 103 135 176 224 272 322
#     4  11  20  36  58  80 106 138 177 216 254 304
#     4  10  19  32  49  73 105 138 173 214 261 317
#     4  10  22  38  56  80 110 142 174 210 256 308
#
# _framework density 16.349077000000001
#
# number of rings (size 3 to 8) (size 9 to 14) (size 15 to 20)
#    0.000    2.100    1.000    3.000    0.000    3.800 
#    0.000    0.000    0.000    8.400    0.000    0.000 
#    0.000    3.200    0.000    0.000    0.000    0.000 
#
# Total GULP energy -446003.156976 kJ/mol
# GULP energy per Si atom -5575.039462 kJ/mol
# Density = 1.631187 g / cm^3
# Si number density = 16.349077 Si / 1000 Ang^3
#
#
#
# Elastic Constant Matrix: (Units=GPa)
#
#
# Indices 1 2 3 4 5 6 
#
# 1 79.1343 57.3641 55.2510 0.0000 0.0000 0.0000
# 2 57.3641 79.1354 55.2518 0.0000 0.0000 0.0000
# 3 55.2510 55.2518 134.0761 0.0000 0.0000 0.0000
# 4 0.0000 0.0000 0.0000 25.3227 0.0000 0.0000
# 5 0.0000 0.0000 0.0000 0.0000 25.3224 0.0000
# 6 0.0000 0.0000 0.0000 0.0000 0.0000 21.5510
#
#
#
# Elastic Compliance Matrix: (Units=1/GPa)
#
#
# Indices 1 2 3 4 5 6 
#
# 1 0.028463 -0.017470 -0.004530 0.000000 0.000000 0.000000
# 2 -0.017470 0.028463 -0.004530 0.000000 0.000000 0.000000
# 3 -0.004530 -0.004530 0.011192 0.000000 0.000000 0.000000
# 4 0.000000 0.000000 0.000000 0.039490 0.000000 0.000000
# 5 0.000000 0.000000 0.000000 0.000000 0.039491 0.000000
# 6 0.000000 0.000000 0.000000 0.000000 0.000000 0.046402
#
#
# Mechanical properties :
#
#
# Convention : Reuss Voigt Hill
#
# Bulk Modulus (GPa) = 66.40954 69.78665 68.09809
# Shear Modulus (GPa) = 19.87424 22.73782 21.30603
#
# Velocity S-wave (km/s) = 3.49035 3.73335 3.61390
# Velocity P-wave (km/s) = 7.54661 7.83338 7.69134
#
# Compressibility (1/GPa) = 0.01505808
#
# Stress axis : x y z
#
# Youngs Moduli (GPa) = 35.13271 35.13299 89.34727
#
# Poissons Ratio (x) = 0.61377 0.40477
# Poissons Ratio (y) = 0.61376 0.40478
# Poissons Ratio (z) = 0.15916 0.15917
#
# Static dielectric constant tensor:
#      x y z
#    x 1.525030 0.000000 0.000000 
#    y 0.000000 1.525030 0.000000 
#    z 0.000000 0.000000 1.553480 
# 
# From -- ./inp_files/7718.got.cif
#   From: 2010.05.17/outbox.cif.g08.bks.cpg/sg129_4_cif.got.tgz:7718.got - 2010.05.20 12:12:06.
