data_PCOD9565196
_publ_section_title
;
Structure prediction by ZEFSAII (Michael W. Deem and Ramdas Pophale) SiO2 
 PCOD9565196
Probable space group: P 4/N M M
;
_chemical_formula_sum "Si O2"
_cell_formula_units_Z 104
_cell_length_a 19.779799
_cell_length_b 19.779799
_cell_length_c 17.807247
_cell_angle_alpha 90.000000
_cell_angle_beta 90.000000
_cell_angle_gamma 90.000000
_cell_volume 6966.915302
_symmetry_space_group_name_H-M "P 4/N M M"
_symmetry_group_IT_number 129
_symmetry_cell_setting 'tetragonal'
loop_
_space_group_symop_operation_xyz
x,y,z
1/2-y,x,z
1/2-x,1/2-y,z
y,1/2-x,z
1/2+x,-y,-z
-x,1/2+y,-z
1/2+y,1/2+x,-z
-y,-x,-z
-x,-y,-z
1/2+y,-x,-z
1/2+x,1/2+y,-z
-y,1/2+x,-z
1/2-x,y,z
x,1/2-y,z
1/2-y,1/2-x,z
y,x,z
loop_
_atom_site_type_symbol
_atom_site_label
_atom_site_fract_x
_atom_site_fract_y
_atom_site_fract_z
Si Si1 0.408625 0.870786 0.418778
Si Si2 0.174745 0.828249 0.717909
Si Si3 0.169398 0.830603 0.000000
Si Si4 0.868340 0.980447 0.631340
Si Si5 0.331878 0.582744 0.145839
Si Si6 0.172277 0.441657 0.205450
Si Si7 0.672423 0.941614 0.467329
O O1 0.372325 0.872325 0.500000
O O2 0.371749 0.825626 0.357378
O O3 0.487247 0.852436 0.431141
O O4 0.395939 0.945489 0.386124
O O5 0.250000 0.828127 0.751281
O O6 0.157257 0.750000 0.699353
O O7 0.123095 0.855027 0.780169
O O8 0.149590 0.876128 0.071390
O O9 0.250000 0.839917 0.985174
O O10 0.932592 0.932592 0.638477
O O11 0.829524 0.971686 0.709459
O O12 0.829188 0.955463 0.557239
O O13 0.250000 0.584221 0.148865
O O14 0.350880 0.504199 0.153021
O O15 0.250000 0.423294 0.188181
O O16 0.121404 0.378597 0.201073
O O17 0.750000 0.926930 0.445059
O O18 0.618854 0.881147 0.451936
#
# Coordination Sequence:
#
# PCOD9565196 Si02
#       7
#    16  16   8  16  16  16  16
#     4  10  19  30  45  63  89 119 155 191 230 274
#     4  10  19  29  42  63  92 124 156 190 228 273
#     4   9  16  28  49  74  96 120 153 188 220 263
#     4   9  17  30  47  64  84 113 150 192 235 281
#     4   9  17  30  47  67  92 122 153 186 227 274
#     4  10  19  31  48  69  93 123 157 192 232 277
#     4  10  20  32  46  64  86 117 158 203 246 283
#
# _framework density 14.927697
#
# number of rings (size 3 to 8) (size 9 to 14) (size 15 to 20)
#    0.000    2.385    1.538    1.846    0.000    7.077 
#    0.000    1.154    0.000    2.769    0.000    0.000 
#    0.000    0.000    0.000    0.000    0.000   13.385 
#
# Total GULP energy -579070.023006 kJ/mol
# GULP energy per Si atom -5567.980990 kJ/mol
# Density = 1.489372 g / cm^3
# Si number density = 14.927697 Si / 1000 Ang^3
#
#
#
# Elastic Constant Matrix: (Units=GPa)
#
#
# Indices 1 2 3 4 5 6 
#
# 1 81.8690 44.8873 37.8319 0.0000 0.0000 0.0000
# 2 44.8873 81.8685 37.8319 0.0000 0.0000 0.0000
# 3 37.8319 37.8319 73.1343 0.0000 0.0000 0.0000
# 4 0.0000 0.0000 0.0000 18.2170 0.0000 0.0000
# 5 0.0000 0.0000 0.0000 0.0000 18.2170 0.0000
# 6 0.0000 0.0000 0.0000 0.0000 0.0000 2.2745
#
#
#
# Elastic Compliance Matrix: (Units=1/GPa)
#
#
# Indices 1 2 3 4 5 6 
#
# 1 0.019227 -0.007814 -0.005904 0.000000 0.000000 0.000000
# 2 -0.007814 0.019227 -0.005904 0.000000 0.000000 0.000000
# 3 -0.005904 -0.005904 0.019782 0.000000 0.000000 0.000000
# 4 0.000000 0.000000 0.000000 0.054894 0.000000 0.000000
# 5 0.000000 0.000000 0.000000 0.000000 0.054894 0.000000
# 6 0.000000 0.000000 0.000000 0.000000 0.000000 0.439657
#
#
# Mechanical properties :
#
#
# Convention : Reuss Voigt Hill
#
# Bulk Modulus (GPa) = 52.65295 53.10822 52.88058
# Shear Modulus (GPa) = 7.65399 15.49642 11.57520
#
# Velocity S-wave (km/s) = 2.26683 3.22545 2.78765
# Velocity P-wave (km/s) = 6.49614 7.03744 6.77220
#
# Compressibility (1/GPa) = 0.01899229
#
# Stress axis : x y z
#
# Youngs Moduli (GPa) = 52.01040 52.00994 50.55150
#
# Poissons Ratio (x) = 0.40638 0.29846
# Poissons Ratio (y) = 0.40638 0.29846
# Poissons Ratio (z) = 0.30707 0.30708
#
# Static dielectric constant tensor:
#      x y z
#    x 1.509160 0.000000 0.000000 
#    y 0.000000 1.509160 0.000000 
#    z 0.000000 0.000000 1.493730 
# 
# From -- ./inp_files/5074.got.cif
#   From: 2010.05.17/outbox.cif.g08.bks.cpg/sg129_3_cif.got.tgz:5074.got - 2010.05.20 12:12:06.
