data_PCOD9565504
_publ_section_title
;
Structure prediction by ZEFSAII (Michael W. Deem and Ramdas Pophale) SiO2 
 PCOD9565504
Probable space group: P 4/N M M
;
_chemical_formula_sum "Si O2"
_cell_formula_units_Z 64
_cell_length_a 27.903296
_cell_length_b 27.903296
_cell_length_c 4.982604
_cell_angle_alpha 90.000000
_cell_angle_beta 90.000000
_cell_angle_gamma 90.000000
_cell_volume 3879.425218
_symmetry_space_group_name_H-M "P 4/N M M"
_symmetry_group_IT_number 129
_symmetry_cell_setting 'tetragonal'
loop_
_space_group_symop_operation_xyz
x,y,z
1/2-y,x,z
1/2-x,1/2-y,z
y,1/2-x,z
1/2+x,-y,-z
-x,1/2+y,-z
1/2+y,1/2+x,-z
-y,-x,-z
-x,-y,-z
1/2+y,-x,-z
1/2+x,1/2+y,-z
-y,1/2+x,-z
1/2-x,y,z
x,1/2-y,z
1/2-y,1/2-x,z
y,x,z
loop_
_atom_site_type_symbol
_atom_site_label
_atom_site_fract_x
_atom_site_fract_y
_atom_site_fract_z
Si Si1 0.397647 0.250000 0.580524
Si Si2 0.844718 0.844718 0.584092
Si Si3 0.011011 0.357866 0.089073
Si Si4 0.002812 0.579110 0.393474
Si Si5 0.617911 0.882090 0.090851
Si Si6 0.750000 0.967999 0.917003
O O1 0.363730 0.205242 0.523432
O O2 0.440724 0.250000 0.366321
O O3 0.425186 0.250000 0.862732
O O4 0.848468 0.848468 0.903690
O O5 0.879435 0.879435 0.411176
O O6 0.005718 0.379819 0.384303
O O7 0.065871 0.366307 0.001737
O O8 0.003464 0.300546 0.064190
O O9 0.984406 0.392977 0.879893
O O10 0.044674 0.544674 0.500000
O O11 0.956664 0.543337 0.356795
#
# Coordination Sequence:
#
# PCOD9565504 Si02
#       6
#     8   8  16  16   8   8
#     4  12  22  35  48  68  90 122 170 216 266 317
#     4  12  22  35  48  64  93 122 166 214 276 312
#     4  12  21  35  53  75 100 130 168 209 255 299
#     4  11  22  35  54  78 102 130 166 209 260 309
#     4  12  20  34  53  71  94 132 156 214 268 310
#     4  12  24  34  54  75  96 130 172 209 252 312
#
# _framework density 16.497291000000001
#
# number of rings (size 3 to 8) (size 9 to 14) (size 15 to 20)
#    0.000    0.250    7.500    3.750    0.000    2.250 
#    0.000    0.000    0.000    3.000    0.000    0.000 
#    0.000    0.000    0.000    0.000    0.000   43.750 
#
# Total GULP energy -357067.924804 kJ/mol
# GULP energy per Si atom -5579.186325 kJ/mol
# Density = 1.645974 g / cm^3
# Si number density = 16.497291 Si / 1000 Ang^3
#
#
#
# Elastic Constant Matrix: (Units=GPa)
#
#
# Indices 1 2 3 4 5 6 
#
# 1 47.6165 26.8449 -3.8897 0.0000 0.0000 0.0000
# 2 26.8449 47.6165 -3.8897 0.0000 0.0000 0.0000
# 3 -3.8897 -3.8897 56.4930 0.0000 0.0000 0.0000
# 4 0.0000 0.0000 0.0000 -35.8796 0.0000 0.0000
# 5 0.0000 0.0000 0.0000 0.0000 -35.8796 0.0000
# 6 0.0000 0.0000 0.0000 0.0000 0.0000 18.2359
#
#
#
# Elastic Compliance Matrix: (Units=1/GPa)
#
#
# Indices 1 2 3 4 5 6 
#
# 1 0.030835 -0.017308 0.000931 0.000000 0.000000 0.000000
# 2 -0.017308 0.030835 0.000931 0.000000 0.000000 0.000000
# 3 0.000931 0.000931 0.017830 0.000000 0.000000 0.000000
# 4 0.000000 0.000000 0.000000 -0.027871 0.000000 0.000000
# 5 0.000000 0.000000 0.000000 0.000000 -0.027871 0.000000
# 6 0.000000 0.000000 0.000000 0.000000 0.000000 0.054837
#
#
# Mechanical properties :
#
#
# Convention : Reuss Voigt Hill
#
# Bulk Modulus (GPa) = 20.57219 21.09519 20.83369
# Shear Modulus (GPa) = 39.78118 -1.86064 18.96027
#
# Velocity S-wave (km/s) = 4.91590 -1.06315 3.39380
# Velocity P-wave (km/s) = 6.68720 3.36270 5.29275
#
# Compressibility (1/GPa) = 0.04860931
#
# Stress axis : x y z
#
# Youngs Moduli (GPa) = 32.43077 32.43077 56.08661
#
# Poissons Ratio (x) = 0.56131 -0.05224
# Poissons Ratio (y) = 0.56131 -0.05224
# Poissons Ratio (z) = -0.03021 -0.03021
#
# Static dielectric constant tensor:
#      x y z
#    x 1.607500 0.000000 0.000000 
#    y 0.000000 1.607500 0.000000 
#    z 0.000000 0.000000 1.616950 
# 
# From -- ./inp_files/811.got.cif
#   From: 2010.05.17/outbox.cif.g08.bks.cpg/sg129_1_cif.got.tgz:811.got - 2010.05.20 12:12:06.
