data_PCOD9565834
_publ_section_title
;
Structure prediction by ZEFSAII (Michael W. Deem and Ramdas Pophale) SiO2 
 PCOD9565834
Probable space group: P 4/N C C
;
_chemical_formula_sum "Si O2"
_cell_formula_units_Z 60
_cell_length_a 18.689997
_cell_length_b 18.689997
_cell_length_c 9.042211
_cell_angle_alpha 90.000000
_cell_angle_beta 90.000000
_cell_angle_gamma 90.000000
_cell_volume 3158.588868
_symmetry_space_group_name_H-M "P 4/N C C"
_symmetry_group_IT_number 130
_symmetry_cell_setting 'tetragonal'
loop_
_space_group_symop_operation_xyz
x,y,z
1/2-y,x,z
1/2-x,1/2-y,z
y,1/2-x,z
1/2+x,-y,1/2-z
-x,1/2+y,1/2-z
1/2+y,1/2+x,1/2-z
-y,-x,1/2-z
-x,-y,-z
1/2+y,-x,-z
1/2+x,1/2+y,-z
-y,1/2+x,-z
1/2-x,y,1/2+z
x,1/2-y,1/2+z
1/2-y,1/2-x,1/2+z
y,x,1/2+z
loop_
_atom_site_type_symbol
_atom_site_label
_atom_site_fract_x
_atom_site_fract_y
_atom_site_fract_z
Si Si1 0.553743 0.522526 0.634127
Si Si2 0.750000 0.250000 0.500000
Si Si3 0.673037 0.173037 0.250000
Si Si4 0.029620 0.703086 0.567227
Si Si5 0.844662 0.463471 0.737020
O O1 0.540494 0.459507 0.750000
O O2 0.500000 0.500000 0.500000
O O3 0.638072 0.525580 0.602949
O O4 0.522170 0.593970 0.707506
O O5 0.729583 0.187441 0.384242
O O6 0.600085 0.182547 0.338773
O O7 0.022352 0.785701 0.611914
O O8 0.032866 0.696023 0.391650
O O9 0.888669 0.388669 0.750000
#
# Coordination Sequence:
#
# PCOD9565834 Si02
#       5
#    16   4   8  16  16
#     4  11  22  44  67  91 127 172 226 282 329 393
#     4  10  24  38  48  78 128 170 216 254 320 382
#     4  11  24  36  56  80 122 174 210 263 310 386
#     4  12  25  39  64  92 128 173 217 273 329 392
#     4  11  27  42  62  97 133 174 225 269 335 399
#
# _framework density 18.995825
#
# number of rings (size 3 to 8) (size 9 to 14) (size 15 to 20)
#    0.000    0.800    6.667    1.600   14.933    0.000 
#    0.000    0.000    0.000    0.800    0.000    3.733 
#    0.000    0.000    0.000    0.000    0.000    0.000 
#
# Total GULP energy -334166.422681 kJ/mol
# GULP energy per Si atom -5569.440378 kJ/mol
# Density = 1.895259 g / cm^3
# Si number density = 18.995825 Si / 1000 Ang^3
#
#
#
# Elastic Constant Matrix: (Units=GPa)
#
#
# Indices 1 2 3 4 5 6 
#
# 1 74.2162 56.6209 29.1153 0.0000 0.0000 0.0000
# 2 56.6209 74.2164 29.1143 0.0000 0.0000 0.0000
# 3 29.1153 29.1143 124.1796 0.0000 0.0000 0.0000
# 4 0.0000 0.0000 0.0000 31.1000 0.0000 0.0000
# 5 0.0000 0.0000 0.0000 0.0000 31.0999 0.0000
# 6 0.0000 0.0000 0.0000 0.0000 0.0000 24.0339
#
#
#
# Elastic Compliance Matrix: (Units=1/GPa)
#
#
# Indices 1 2 3 4 5 6 
#
# 1 0.032684 -0.024150 -0.002001 0.000000 0.000000 0.000000
# 2 -0.024150 0.032683 -0.002000 0.000000 0.000000 0.000000
# 3 -0.002001 -0.002000 0.008991 0.000000 0.000000 0.000000
# 4 0.000000 0.000000 0.000000 0.032154 0.000000 0.000000
# 5 0.000000 0.000000 0.000000 0.000000 0.032154 0.000000
# 6 0.000000 0.000000 0.000000 0.000000 0.000000 0.041608
#
#
# Mechanical properties :
#
#
# Convention : Reuss Voigt Hill
#
# Bulk Modulus (GPa) = 55.38604 55.81259 55.59932
# Shear Modulus (GPa) = 20.61045 27.76420 24.18732
#
# Velocity S-wave (km/s) = 3.29751 3.82723 3.57220
# Velocity P-wave (km/s) = 6.61198 6.99825 6.80786
#
# Compressibility (1/GPa) = 0.01805509
#
# Stress axis : x y z
#
# Youngs Moduli (GPa) = 30.59646 30.59678 111.22196
#
# Poissons Ratio (x) = 0.73891 0.22256
# Poissons Ratio (y) = 0.73890 0.22250
# Poissons Ratio (z) = 0.06122 0.06121
#
# Static dielectric constant tensor:
#      x y z
#    x 1.765990 0.000000 0.000000 
#    y 0.000000 1.765930 0.000000 
#    z 0.000000 0.000000 1.705900 
# 
# From -- ./inp_files/627.got.cif
#   From: 2010.05.17/outbox.cif.g08.bks.cpg/sg130_1_cif.got.tgz:627.got - 2010.05.20 12:17:35.
