data_PCOD9565164
_publ_section_title
;
Structure prediction by ZEFSAII (Michael W. Deem and Ramdas Pophale) SiO2 
 PCOD9565164
Probable space group: P 4/N M M
;
_chemical_formula_sum "Si O2"
_cell_formula_units_Z 112
_cell_length_a 17.948997
_cell_length_b 17.948997
_cell_length_c 21.302818
_cell_angle_alpha 90.000000
_cell_angle_beta 90.000000
_cell_angle_gamma 90.000000
_cell_volume 6863.054173
_symmetry_space_group_name_H-M "P 4/N M M"
_symmetry_group_IT_number 129
_symmetry_cell_setting 'tetragonal'
loop_
_space_group_symop_operation_xyz
x,y,z
1/2-y,x,z
1/2-x,1/2-y,z
y,1/2-x,z
1/2+x,-y,-z
-x,1/2+y,-z
1/2+y,1/2+x,-z
-y,-x,-z
-x,-y,-z
1/2+y,-x,-z
1/2+x,1/2+y,-z
-y,1/2+x,-z
1/2-x,y,z
x,1/2-y,z
1/2-y,1/2-x,z
y,x,z
loop_
_atom_site_type_symbol
_atom_site_label
_atom_site_fract_x
_atom_site_fract_y
_atom_site_fract_z
Si Si1 0.336536 0.837165 0.924636
Si Si2 0.041995 0.164054 0.251958
Si Si3 0.165270 0.457520 0.493147
Si Si4 0.114422 0.506819 0.630339
Si Si5 0.442566 0.563607 0.840092
Si Si6 0.335184 0.454358 0.762850
Si Si7 0.440566 0.666509 0.626300
O O1 0.250000 0.854691 0.908115
O O2 0.349382 0.750000 0.907973
O O3 0.395023 0.890694 0.890664
O O4 0.343050 0.843050 0.000000
O O5 0.051046 0.250000 0.233627
O O6 0.118571 0.118571 0.252660
O O7 0.986573 0.120799 0.204939
O O8 0.004557 0.162218 0.320764
O O9 0.250000 0.430373 0.489592
O O10 0.106939 0.393062 0.478238
O O11 0.148232 0.485873 0.563213
O O12 0.157123 0.522642 0.442059
O O13 0.157965 0.471955 0.688749
O O14 0.110987 0.595471 0.637376
O O15 0.031853 0.468147 0.632836
O O16 0.504420 0.504420 0.864860
O O17 0.384984 0.515775 0.798247
O O18 0.250000 0.455801 0.782901
O O19 0.375619 0.375619 0.774198
O O20 0.407453 0.750000 0.630560
#
# Coordination Sequence:
#
# PCOD9565164 Si02
#       7
#    16  16  16  16  16  16  16
#     4   9  18  33  53  77 105 134 163 200 244 286
#     4  10  19  31  48  70  98 130 164 204 246 289
#     4  10  20  31  47  69  90 120 157 197 248 297
#     4  10  18  32  50  67  91 121 160 203 241 290
#     4  10  19  32  51  74 102 134 167 202 237 280
#     4  10  20  33  51  73  98 128 161 201 247 291
#     4  10  19  31  48  69  93 119 156 202 247 293
#
# _framework density 16.319265000000001
#
# number of rings (size 3 to 8) (size 9 to 14) (size 15 to 20)
#    0.000    2.143    1.429    3.429    0.000    1.857 
#    0.000    0.000    0.000    7.714    0.000    4.000 
#    0.000    0.000    0.000   26.571    0.000    0.000 
#
# Total GULP energy -624525.959981 kJ/mol
# GULP energy per Si atom -5576.124643 kJ/mol
# Density = 1.628212 g / cm^3
# Si number density = 16.319265 Si / 1000 Ang^3
#
#
#
# Elastic Constant Matrix: (Units=GPa)
#
#
# Indices 1 2 3 4 5 6 
#
# 1 62.1781 8.8978 17.0998 0.0000 0.0000 0.0000
# 2 8.8978 62.1781 17.0998 0.0000 0.0000 0.0000
# 3 17.0998 17.0998 50.7571 0.0000 0.0000 0.0000
# 4 0.0000 0.0000 0.0000 22.5629 0.0000 0.0000
# 5 0.0000 0.0000 0.0000 0.0000 22.5629 0.0000
# 6 0.0000 0.0000 0.0000 0.0000 0.0000 23.2964
#
#
#
# Elastic Compliance Matrix: (Units=1/GPa)
#
#
# Indices 1 2 3 4 5 6 
#
# 1 0.017780 -0.000989 -0.005657 0.000000 0.000000 0.000000
# 2 -0.000989 0.017780 -0.005657 0.000000 0.000000 0.000000
# 3 -0.005657 -0.005657 0.023513 0.000000 0.000000 0.000000
# 4 0.000000 0.000000 0.000000 0.044321 0.000000 0.000000
# 5 0.000000 0.000000 0.000000 0.000000 0.044321 0.000000
# 6 0.000000 0.000000 0.000000 0.000000 0.000000 0.042925
#
#
# Mechanical properties :
#
#
# Convention : Reuss Voigt Hill
#
# Bulk Modulus (GPa) = 29.01215 29.03425 29.02320
# Shear Modulus (GPa) = 22.05223 22.48546 22.26885
#
# Velocity S-wave (km/s) = 3.67999 3.71596 3.69802
# Velocity P-wave (km/s) = 5.98940 6.02007 6.00475
#
# Compressibility (1/GPa) = 0.03446832
#
# Stress axis : x y z
#
# Youngs Moduli (GPa) = 56.24278 56.24278 42.52912
#
# Poissons Ratio (x) = 0.05560 0.24059
# Poissons Ratio (y) = 0.05560 0.24059
# Poissons Ratio (z) = 0.31816 0.31816
#
# Static dielectric constant tensor:
#      x y z
#    x 1.547060 0.000000 0.000000 
#    y 0.000000 1.547060 0.000000 
#    z 0.000000 0.000000 1.531760 
# 
# From -- ./inp_files/6684.got.cif
#   From: 2010.05.17/outbox.cif.g08.bks.cpg/sg129_4_cif.got.tgz:6684.got - 2010.05.20 12:12:06.
