data_PCOD9565967
_publ_section_title
;
Structure prediction by ZEFSAII (Michael W. Deem and Ramdas Pophale) SiO2 
 PCOD9565967
Probable space group: P 4/N C C
;
_chemical_formula_sum "Si O2"
_cell_formula_units_Z 112
_cell_length_a 15.989567
_cell_length_b 15.989567
_cell_length_c 25.052070
_cell_angle_alpha 90.000000
_cell_angle_beta 90.000000
_cell_angle_gamma 90.000000
_cell_volume 6404.968863
_symmetry_space_group_name_H-M "P 4/N C C"
_symmetry_group_IT_number 130
_symmetry_cell_setting 'tetragonal'
loop_
_space_group_symop_operation_xyz
x,y,z
1/2-y,x,z
1/2-x,1/2-y,z
y,1/2-x,z
1/2+x,-y,1/2-z
-x,1/2+y,1/2-z
1/2+y,1/2+x,1/2-z
-y,-x,1/2-z
-x,-y,-z
1/2+y,-x,-z
1/2+x,1/2+y,-z
-y,1/2+x,-z
1/2-x,y,1/2+z
x,1/2-y,1/2+z
1/2-y,1/2-x,1/2+z
y,x,1/2+z
loop_
_atom_site_type_symbol
_atom_site_label
_atom_site_fract_x
_atom_site_fract_y
_atom_site_fract_z
Si Si1 0.367597 0.324474 0.432662
Si Si2 0.596892 0.973743 0.658942
Si Si3 0.851773 0.650845 0.750743
Si Si4 0.146359 0.821123 0.687543
Si Si5 0.865930 0.827197 0.441236
Si Si6 0.676940 0.364501 0.812752
Si Si7 0.964999 0.908276 0.348014
O O1 0.274866 0.361042 0.421404
O O2 0.435727 0.366978 0.395459
O O3 0.382883 0.336359 0.495668
O O4 0.604780 0.899197 0.702263
O O5 0.648659 0.053233 0.679616
O O6 0.505388 0.011930 0.651603
O O7 0.864421 0.751421 0.748461
O O8 0.894380 0.615137 0.804224
O O9 0.171586 0.828415 0.750000
O O10 0.151518 0.726885 0.665785
O O11 0.226314 0.873176 0.667718
O O12 0.772309 0.861630 0.430223
O O13 0.931192 0.873756 0.403918
O O14 0.650683 0.349318 0.750000
O O15 0.633749 0.448092 0.831214
#
# Coordination Sequence:
#
# PCOD9565967 Si02
#       7
#    16  16  16  16  16  16  16
#     4   9  20  41  65  85 112 154 197 242 303 363
#     4  12  24  34  59  91 118 150 194 249 294 353
#     4  11  25  40  56  84 125 161 190 240 306 351
#     4   9  20  37  56  77 113 163 201 230 278 351
#     4   9  20  41  65  85 112 154 197 242 303 363
#     4   9  20  37  56  77 113 163 201 230 278 351
#     4  12  24  34  59  91 118 150 194 249 294 353
#
# _framework density 17.486424
#
# number of rings (size 3 to 8) (size 9 to 14) (size 15 to 20)
#    0.000    1.857    0.000    5.571   12.000    2.857 
#    0.000    0.000    0.000    0.000    0.000    2.000 
#    0.000    0.000    0.000    0.000    0.000    0.000 
#
# Total GULP energy -624087.956978 kJ/mol
# GULP energy per Si atom -5572.213902 kJ/mol
# Density = 1.744662 g / cm^3
# Si number density = 17.486424 Si / 1000 Ang^3
#
#
#
# Elastic Constant Matrix: (Units=GPa)
#
#
# Indices 1 2 3 4 5 6 
#
# 1 67.2917 10.2129 20.0953 0.0000 0.0000 0.0000
# 2 10.2129 67.2739 20.0885 0.0000 0.0000 0.0000
# 3 20.0953 20.0885 43.3846 0.0000 0.0000 0.0000
# 4 0.0000 0.0000 0.0000 22.0767 0.0000 0.0000
# 5 0.0000 0.0000 0.0000 0.0000 22.0773 0.0000
# 6 0.0000 0.0000 0.0000 0.0000 0.0000 24.2625
#
#
#
# Elastic Compliance Matrix: (Units=1/GPa)
#
#
# Indices 1 2 3 4 5 6 
#
# 1 0.017250 -0.000270 -0.007865 0.000000 0.000000 0.000000
# 2 -0.000270 0.017254 -0.007864 0.000000 0.000000 0.000000
# 3 -0.007865 -0.007864 0.030334 0.000000 0.000000 0.000000
# 4 0.000000 0.000000 0.000000 0.045297 0.000000 0.000000
# 5 0.000000 0.000000 0.000000 0.000000 0.045295 0.000000
# 6 0.000000 0.000000 0.000000 0.000000 0.000000 0.041216
#
#
# Mechanical properties :
#
#
# Convention : Reuss Voigt Hill
#
# Bulk Modulus (GPa) = 30.45095 30.97152 30.71123
# Shear Modulus (GPa) = 20.86888 22.18687 21.52787
#
# Velocity S-wave (km/s) = 3.45836 3.56589 3.51254
# Velocity P-wave (km/s) = 5.77917 5.89104 5.83537
#
# Compressibility (1/GPa) = 0.03283970
#
# Stress axis : x y z
#
# Youngs Moduli (GPa) = 57.96951 57.95799 32.96639
#
# Poissons Ratio (x) = 0.01566 0.25928
# Poissons Ratio (y) = 0.01567 0.25925
# Poissons Ratio (z) = 0.45594 0.45578
#
# Static dielectric constant tensor:
#      x y z
#    x 1.616640 0.000000 0.000000 
#    y 0.000000 1.616640 0.000000 
#    z 0.000000 0.000000 1.600750 
# 
# From -- ./inp_files/4603.got.cif
#   From: 2010.05.17/outbox.cif.g08.bks.cpg/sg130_3_cif.got.tgz:4603.got - 2010.05.20 12:17:35.
