data_PCOD9565435
_publ_section_title
;
Structure prediction by ZEFSAII (Michael W. Deem and Ramdas Pophale) SiO2 
 PCOD9565435
Probable space group: P 4/N M M
;
_chemical_formula_sum "Si O2"
_cell_formula_units_Z 88
_cell_length_a 13.685503
_cell_length_b 13.685503
_cell_length_c 29.240452
_cell_angle_alpha 90.000000
_cell_angle_beta 90.000000
_cell_angle_gamma 90.000000
_cell_volume 5476.531753
_symmetry_space_group_name_H-M "P 4/N M M"
_symmetry_group_IT_number 129
_symmetry_cell_setting 'tetragonal'
loop_
_space_group_symop_operation_xyz
x,y,z
1/2-y,x,z
1/2-x,1/2-y,z
y,1/2-x,z
1/2+x,-y,-z
-x,1/2+y,-z
1/2+y,1/2+x,-z
-y,-x,-z
-x,-y,-z
1/2+y,-x,-z
1/2+x,1/2+y,-z
-y,1/2+x,-z
1/2-x,y,z
x,1/2-y,z
1/2-y,1/2-x,z
y,x,z
loop_
_atom_site_type_symbol
_atom_site_label
_atom_site_fract_x
_atom_site_fract_y
_atom_site_fract_z
Si Si1 0.027612 0.863887 0.277132
Si Si2 0.502532 0.997469 0.883303
Si Si3 0.634920 0.026590 0.642655
Si Si4 0.634781 0.865220 0.948421
Si Si5 0.634830 0.634830 0.056355
Si Si6 0.474315 0.863221 0.537729
Si Si7 0.635305 0.365773 0.180413
O O1 0.001752 0.750000 0.280758
O O2 0.088618 0.899289 0.321110
O O3 0.093538 0.876949 0.231856
O O4 0.932993 0.932993 0.273359
O O5 0.568019 0.931982 0.916971
O O6 0.435439 0.927303 0.852177
O O7 0.432396 0.067605 0.912682
O O8 0.750000 0.013234 0.650757
O O9 0.621533 0.060399 0.590062
O O10 0.574359 0.925642 0.647331
O O11 0.616681 0.750000 0.939939
O O12 0.616976 0.883025 0.002384
O O13 0.750000 0.616767 0.064961
O O14 0.397041 0.897041 0.500000
O O15 0.498461 0.750000 0.532535
O O16 0.569254 0.930747 0.531391
O O17 0.750000 0.379919 0.168012
O O18 0.614655 0.250000 0.178546
#
# Coordination Sequence:
#
# PCOD9565435 Si02
#       7
#    16   8  16   8   8  16  16
#     4  10  20  36  54  74  99 132 169 206 247 296
#     4  12  19  32  54  80 102 134 171 210 252 302
#     4   9  18  32  52  75  99 132 170 208 252 305
#     4   9  19  35  53  75 103 137 175 210 248 296
#     4   9  19  35  53  75 105 137 171 212 252 294
#     4   9  18  32  49  72 101 130 165 211 259 304
#     4  10  21  35  51  74 104 134 165 207 255 301
#
# _framework density 16.068565
#
# number of rings (size 3 to 8) (size 9 to 14) (size 15 to 20)
#    0.000    2.364    0.909    2.455    0.000    2.545 
#    0.000    3.636    0.000    0.000    0.000   12.727 
#    0.000    0.000    0.000    0.000    0.000    0.000 
#
# Total GULP energy -490711.261352 kJ/mol
# GULP energy per Si atom -5576.264334 kJ/mol
# Density = 1.603199 g / cm^3
# Si number density = 16.068565 Si / 1000 Ang^3
#
#
#
# Elastic Constant Matrix: (Units=GPa)
#
#
# Indices 1 2 3 4 5 6 
#
# 1 117.7688 77.5772 82.8195 0.0000 0.0000 0.0000
# 2 77.5772 117.7688 82.8195 0.0000 0.0000 0.0000
# 3 82.8195 82.8195 108.8846 0.0000 0.0000 0.0000
# 4 0.0000 0.0000 0.0000 29.0205 0.0000 0.0000
# 5 0.0000 0.0000 0.0000 0.0000 29.0205 0.0000
# 6 0.0000 0.0000 0.0000 0.0000 0.0000 19.8389
#
#
#
# Elastic Compliance Matrix: (Units=1/GPa)
#
#
# Indices 1 2 3 4 5 6 
#
# 1 0.019649 -0.005231 -0.010967 0.000000 0.000000 0.000000
# 2 -0.005231 0.019649 -0.010967 0.000000 0.000000 0.000000
# 3 -0.010967 -0.010967 0.025867 0.000000 0.000000 0.000000
# 4 0.000000 0.000000 0.000000 0.034458 0.000000 0.000000
# 5 0.000000 0.000000 0.000000 0.000000 0.034458 0.000000
# 6 0.000000 0.000000 0.000000 0.000000 0.000000 0.050406
#
#
# Mechanical properties :
#
#
# Convention : Reuss Voigt Hill
#
# Bulk Modulus (GPa) = 92.28115 92.31717 92.29916
# Shear Modulus (GPa) = 20.62455 22.32305 21.47380
#
# Velocity S-wave (km/s) = 3.58653 3.73129 3.65963
# Velocity P-wave (km/s) = 8.64322 8.72583 8.68462
#
# Compressibility (1/GPa) = 0.01083645
#
# Stress axis : x y z
#
# Youngs Moduli (GPa) = 50.89220 50.89220 38.65971
#
# Poissons Ratio (x) = 0.26624 0.42396
# Poissons Ratio (y) = 0.26624 0.42396
# Poissons Ratio (z) = 0.55811 0.55811
#
# Static dielectric constant tensor:
#      x y z
#    x 1.511830 0.000000 0.000000 
#    y 0.000000 1.511830 0.000000 
#    z 0.000000 0.000000 1.530350 
# 
# From -- ./inp_files/7802.got.cif
#   From: 2010.05.17/outbox.cif.g08.bks.cpg/sg129_4_cif.got.tgz:7802.got - 2010.05.20 12:12:06.
