data_PCOD9565332
_publ_section_title
;
Structure prediction by ZEFSAII (Michael W. Deem and Ramdas Pophale) SiO2 
 PCOD9565332
Probable space group: P 4/N M M
;
_chemical_formula_sum "Si O2"
_cell_formula_units_Z 128
_cell_length_a 23.773108
_cell_length_b 23.773108
_cell_length_c 11.916233
_cell_angle_alpha 90.000000
_cell_angle_beta 90.000000
_cell_angle_gamma 90.000000
_cell_volume 6734.586154
_symmetry_space_group_name_H-M "P 4/N M M"
_symmetry_group_IT_number 129
_symmetry_cell_setting 'tetragonal'
loop_
_space_group_symop_operation_xyz
x,y,z
1/2-y,x,z
1/2-x,1/2-y,z
y,1/2-x,z
1/2+x,-y,-z
-x,1/2+y,-z
1/2+y,1/2+x,-z
-y,-x,-z
-x,-y,-z
1/2+y,-x,-z
1/2+x,1/2+y,-z
-y,1/2+x,-z
1/2-x,y,z
x,1/2-y,z
1/2-y,1/2-x,z
y,x,z
loop_
_atom_site_type_symbol
_atom_site_label
_atom_site_fract_x
_atom_site_fract_y
_atom_site_fract_z
Si Si1 0.020796 0.855589 0.316963
Si Si2 0.459083 0.314538 0.287855
Si Si3 0.683364 0.118905 0.914717
Si Si4 0.102227 0.686897 0.502264
Si Si5 0.682688 0.011996 0.063110
Si Si6 0.912394 0.682022 0.458972
Si Si7 0.901946 0.814464 0.943012
Si Si8 0.067910 0.616905 0.713428
O O1 0.068301 0.821517 0.387194
O O2 0.014427 0.832990 0.192099
O O3 0.051311 0.916517 0.301311
O O4 0.962403 0.845505 0.383184
O O5 0.483116 0.250000 0.281846
O O6 0.433558 0.322176 0.411511
O O7 0.505762 0.361147 0.257717
O O8 0.413198 0.317226 0.190010
O O9 0.750000 0.116784 0.888277
O O10 0.646501 0.111123 0.801700
O O11 0.669908 0.169908 0.000000
O O12 0.665467 0.065832 0.991435
O O13 0.166583 0.666583 0.500000
O O14 0.096129 0.750000 0.540757
O O15 0.075672 0.644869 0.591782
O O16 0.750000 0.011059 0.053888
O O17 0.660360 0.955998 0.004958
O O18 0.906618 0.750000 0.435128
O O19 0.855578 0.644423 0.445705
O O20 0.897078 0.750000 0.975293
O O21 0.847428 0.847428 0.975576
#
# Coordination Sequence:
#
# PCOD9565332 Si02
#       8
#    16  16  16  16  16  16  16  16
#     4  11  22  37  60  87 122 159 202 247 302 359
#     4  10  19  36  62  90 123 163 205 246 297 363
#     4  11  21  36  58  85 120 160 206 259 306 355
#     4  10  20  33  53  80 113 155 201 248 295 348
#     4  10  20  35  57  81 110 155 202 244 290 356
#     4  11  24  42  66  92 120 155 197 249 310 377
#     4  10  21  37  60  90 120 152 196 248 307 375
#     4  11  20  35  61  88 119 156 208 250 293 351
#
# _framework density 19.006364999999999
#
# number of rings (size 3 to 8) (size 9 to 14) (size 15 to 20)
#    0.000    1.500    3.750    2.625    0.000    1.000 
#    0.000    1.875    0.000    4.875    0.000    1.750 
#    0.000    0.000    0.000    0.000    0.000    0.000 
#
# Total GULP energy -713199.219109 kJ/mol
# GULP energy per Si atom -5571.868899 kJ/mol
# Density = 1.896311 g / cm^3
# Si number density = 19.006365 Si / 1000 Ang^3
#
#
#
# Elastic Constant Matrix: (Units=GPa)
#
#
# Indices 1 2 3 4 5 6 
#
# 1 79.1201 41.8988 14.9887 0.0000 0.0000 0.0000
# 2 41.8988 79.1201 14.9887 0.0000 0.0000 0.0000
# 3 14.9887 14.9887 105.6893 0.0000 0.0000 0.0000
# 4 0.0000 0.0000 0.0000 15.4012 0.0000 0.0000
# 5 0.0000 0.0000 0.0000 0.0000 15.4012 0.0000
# 6 0.0000 0.0000 0.0000 0.0000 0.0000 27.1642
#
#
#
# Elastic Compliance Matrix: (Units=1/GPa)
#
#
# Indices 1 2 3 4 5 6 
#
# 1 0.017715 -0.009151 -0.001215 0.000000 0.000000 0.000000
# 2 -0.009151 0.017715 -0.001215 0.000000 0.000000 0.000000
# 3 -0.001215 -0.001215 0.009806 0.000000 0.000000 0.000000
# 4 0.000000 0.000000 0.000000 0.064930 0.000000 0.000000
# 5 0.000000 0.000000 0.000000 0.000000 0.064930 0.000000
# 6 0.000000 0.000000 0.000000 0.000000 0.000000 0.036813
#
#
# Mechanical properties :
#
#
# Convention : Reuss Voigt Hill
#
# Bulk Modulus (GPa) = 45.29791 45.29801 45.29796
# Shear Modulus (GPa) = 20.62463 24.39688 22.51076
#
# Velocity S-wave (km/s) = 3.29773 3.58665 3.44522
# Velocity P-wave (km/s) = 6.19554 6.40600 6.30165
#
# Compressibility (1/GPa) = 0.02207607
#
# Stress axis : x y z
#
# Youngs Moduli (GPa) = 56.44872 56.44872 101.97648
#
# Poissons Ratio (x) = 0.51657 0.12385
# Poissons Ratio (y) = 0.51657 0.12385
# Poissons Ratio (z) = 0.06856 0.06856
#
# Static dielectric constant tensor:
#      x y z
#    x 1.700490 0.000000 0.000000 
#    y 0.000000 1.700490 0.000000 
#    z 0.000000 0.000000 1.654410 
# 
# From -- ./inp_files/4201.got.cif
#   From: 2010.05.17/outbox.cif.g08.bks.cpg/sg129_3_cif.got.tgz:4201.got - 2010.05.20 12:12:06.
