data_PCOD9565268
_publ_section_title
;
Structure prediction by ZEFSAII (Michael W. Deem and Ramdas Pophale) SiO2 
 PCOD9565268
Probable space group: P 4/N M M
;
_chemical_formula_sum "Si O2"
_cell_formula_units_Z 128
_cell_length_a 23.146493
_cell_length_b 23.146493
_cell_length_c 12.425958
_cell_angle_alpha 90.000000
_cell_angle_beta 90.000000
_cell_angle_gamma 90.000000
_cell_volume 6657.332975
_symmetry_space_group_name_H-M "P 4/N M M"
_symmetry_group_IT_number 129
_symmetry_cell_setting 'tetragonal'
loop_
_space_group_symop_operation_xyz
x,y,z
1/2-y,x,z
1/2-x,1/2-y,z
y,1/2-x,z
1/2+x,-y,-z
-x,1/2+y,-z
1/2+y,1/2+x,-z
-y,-x,-z
-x,-y,-z
1/2+y,-x,-z
1/2+x,1/2+y,-z
-y,1/2+x,-z
1/2-x,y,z
x,1/2-y,z
1/2-y,1/2-x,z
y,x,z
loop_
_atom_site_type_symbol
_atom_site_label
_atom_site_fract_x
_atom_site_fract_y
_atom_site_fract_z
Si Si1 0.846709 0.185157 0.161490
Si Si2 0.317360 0.411001 0.166588
Si Si3 0.032671 0.377118 0.973104
Si Si4 0.680365 0.005093 0.403566
Si Si5 0.137708 0.819240 0.386368
Si Si6 0.588986 0.681775 0.226259
Si Si7 0.688085 0.074693 0.032054
Si Si8 0.182102 0.086369 0.420393
O O1 0.750000 0.045156 0.053424
O O2 0.849386 0.169861 0.286613
O O3 0.905537 0.186037 0.092026
O O4 0.813695 0.132710 0.102974
O O5 0.250000 0.409023 0.137854
O O6 0.349581 0.349581 0.150827
O O7 0.321994 0.425306 0.292973
O O8 0.351729 0.455284 0.091300
O O9 0.058965 0.441036 0.965003
O O10 0.070344 0.337648 0.892536
O O11 0.966804 0.364927 0.943382
O O12 0.750000 0.009008 0.405152
O O13 0.664787 0.964261 0.303626
O O14 0.663915 0.969288 0.510029
O O15 0.660554 0.070927 0.392499
O O16 0.167027 0.832974 0.500000
O O17 0.139633 0.750000 0.366496
O O18 0.598195 0.750000 0.234017
O O19 0.645199 0.645199 0.257584
O O20 0.750000 0.178071 0.851109
O O21 0.250000 0.098930 0.444692
O O22 0.140517 0.140517 0.445334
#
# Coordination Sequence:
#
# PCOD9565268 Si02
#       8
#    16  16  16  16  16  16  16  16
#     4  10  22  38  57  85 115 140 173 220 276 336
#     4   9  17  28  44  69 102 140 182 230 281 329
#     4  10  20  34  53  79 110 146 189 230 267 313
#     4   9  19  35  53  74 102 139 182 220 257 313
#     4  11  23  38  58  83 111 141 169 204 259 328
#     4  10  19  31  51  78 109 146 186 230 277 321
#     4  10  20  36  60  85 112 149 188 227 273 324
#     4   9  17  30  50  75 104 140 182 230 279 321
#
# _framework density 19.226918999999999
#
# number of rings (size 3 to 8) (size 9 to 14) (size 15 to 20)
#    0.000    2.250    0.000    3.000    0.000    4.500 
#    0.000    7.500    0.000    7.500    0.000    0.000 
#    0.000    0.000    0.000    0.000    0.000    0.000 
#
# Total GULP energy -713666.413713 kJ/mol
# GULP energy per Si atom -5575.518857 kJ/mol
# Density = 1.918316 g / cm^3
# Si number density = 19.226919 Si / 1000 Ang^3
#
#
#
# Elastic Constant Matrix: (Units=GPa)
#
#
# Indices 1 2 3 4 5 6 
#
# 1 82.1975 31.9668 21.4624 0.0000 0.0000 0.0000
# 2 31.9668 82.2001 21.4635 0.0000 0.0000 0.0000
# 3 21.4624 21.4635 82.4956 0.0000 0.0000 0.0000
# 4 0.0000 0.0000 0.0000 19.7225 0.0000 0.0000
# 5 0.0000 0.0000 0.0000 0.0000 19.7227 0.0000
# 6 0.0000 0.0000 0.0000 0.0000 0.0000 21.0068
#
#
#
# Elastic Compliance Matrix: (Units=1/GPa)
#
#
# Indices 1 2 3 4 5 6 
#
# 1 0.014809 -0.005099 -0.002526 0.000000 0.000000 0.000000
# 2 -0.005099 0.014808 -0.002526 0.000000 0.000000 0.000000
# 3 -0.002526 -0.002526 0.013436 0.000000 0.000000 0.000000
# 4 0.000000 0.000000 0.000000 0.050703 0.000000 0.000000
# 5 0.000000 0.000000 0.000000 0.000000 0.050703 0.000000
# 6 0.000000 0.000000 0.000000 0.000000 0.000000 0.047604
#
#
# Mechanical properties :
#
#
# Convention : Reuss Voigt Hill
#
# Bulk Modulus (GPa) = 43.95564 44.07541 44.01552
# Shear Modulus (GPa) = 22.73254 23.55710 23.14482
#
# Velocity S-wave (km/s) = 3.44223 3.50410 3.47331
# Velocity P-wave (km/s) = 6.22172 6.27258 6.24720
#
# Compressibility (1/GPa) = 0.02275021
#
# Stress axis : x y z
#
# Youngs Moduli (GPa) = 67.52876 67.53052 74.42559
#
# Poissons Ratio (x) = 0.34436 0.18799
# Poissons Ratio (y) = 0.34435 0.18800
# Poissons Ratio (z) = 0.17057 0.17059
#
# Static dielectric constant tensor:
#      x y z
#    x 1.675040 0.000000 0.000000 
#    y 0.000000 1.675040 0.000000 
#    z 0.000000 0.000000 1.687630 
# 
# From -- ./inp_files/4217.got.cif
#   From: 2010.05.17/outbox.cif.g08.bks.cpg/sg129_3_cif.got.tgz:4217.got - 2010.05.20 12:12:06.
