data_PCOD9565420
_publ_section_title
;
Structure prediction by ZEFSAII (Michael W. Deem and Ramdas Pophale) SiO2 
 PCOD9565420
Probable space group: P 4/N M M
;
_chemical_formula_sum "Si O2"
_cell_formula_units_Z 58
_cell_length_a 12.469422
_cell_length_b 12.469422
_cell_length_c 21.281070
_cell_angle_alpha 90.000000
_cell_angle_beta 90.000000
_cell_angle_gamma 90.000000
_cell_volume 3308.918772
_symmetry_space_group_name_H-M "P 4/N M M"
_symmetry_group_IT_number 129
_symmetry_cell_setting 'tetragonal'
loop_
_space_group_symop_operation_xyz
x,y,z
1/2-y,x,z
1/2-x,1/2-y,z
y,1/2-x,z
1/2+x,-y,-z
-x,1/2+y,-z
1/2+y,1/2+x,-z
-y,-x,-z
-x,-y,-z
1/2+y,-x,-z
1/2+x,1/2+y,-z
-y,1/2+x,-z
1/2-x,y,z
x,1/2-y,z
1/2-y,1/2-x,z
y,x,z
loop_
_atom_site_type_symbol
_atom_site_label
_atom_site_fract_x
_atom_site_fract_y
_atom_site_fract_z
Si Si1 0.623667 0.123667 0.000000
Si Si2 0.488000 0.750000 0.645673
Si Si3 0.444305 0.621531 0.429417
Si Si4 0.750000 0.750000 0.633351
Si Si5 0.125549 0.957533 0.862364
Si Si6 0.250000 0.873947 0.224546
O O1 0.595605 0.068769 0.065473
O O2 0.606457 0.250000 0.009779
O O3 0.431606 0.645076 0.615502
O O4 0.615600 0.750000 0.633938
O O5 0.457664 0.750000 0.719072
O O6 0.402154 0.597847 0.500000
O O7 0.454286 0.750000 0.420118
O O8 0.555944 0.555944 0.421922
O O9 0.250000 0.987878 0.861925
O O10 0.112950 0.852888 0.819813
O O11 0.051376 0.051376 0.837943
O O12 0.250000 0.750000 0.248551
#
# Coordination Sequence:
#
# PCOD9565420 Si02
#       6
#     8   8  16   2  16   8
#     4   9  15  30  54  80 110 146 192 246 290 346
#     4  12  24  44  64  90 130 162 208 258 309 380
#     4  11  23  40  63  94 126 166 213 258 311 368
#     4  12  28  44  64 100 128 168 204 252 322 360
#     4  10  20  34  55  83 113 150 196 240 296 353
#     4  10  22  40  60  86 112 156 204 246 291 359
#
# _framework density 17.528383999999999
#
# number of rings (size 3 to 8) (size 9 to 14) (size 15 to 20)
#    0.000    1.517    4.138    1.655    1.931    0.552 
#    0.000    0.000    0.000    0.000    0.000    3.862 
#    0.000    0.000    0.000    0.000    0.000    0.000 
#
# Total GULP energy -323018.384828 kJ/mol
# GULP energy per Si atom -5569.282497 kJ/mol
# Density = 1.748849 g / cm^3
# Si number density = 17.528384 Si / 1000 Ang^3
#
#
#
# Elastic Constant Matrix: (Units=GPa)
#
#
# Indices 1 2 3 4 5 6 
#
# 1 138.4216 98.3151 32.9768 0.0000 0.0000 0.0000
# 2 98.3151 138.4215 32.9767 0.0000 0.0000 0.0000
# 3 32.9768 32.9767 48.1650 0.0000 0.0000 0.0000
# 4 0.0000 0.0000 0.0000 4.6968 0.0000 0.0000
# 5 0.0000 0.0000 0.0000 0.0000 4.6966 0.0000
# 6 0.0000 0.0000 0.0000 0.0000 0.0000 33.2170
#
#
#
# Elastic Compliance Matrix: (Units=1/GPa)
#
#
# Indices 1 2 3 4 5 6 
#
# 1 0.015077 -0.009857 -0.003574 0.000000 0.000000 0.000000
# 2 -0.009857 0.015077 -0.003574 0.000000 0.000000 0.000000
# 3 -0.003574 -0.003574 0.025656 0.000000 0.000000 0.000000
# 4 0.000000 0.000000 0.000000 0.212912 0.000000 0.000000
# 5 0.000000 0.000000 0.000000 0.000000 0.212921 0.000000
# 6 0.000000 0.000000 0.000000 0.000000 0.000000 0.030105
#
#
# Mechanical properties :
#
#
# Convention : Reuss Voigt Hill
#
# Bulk Modulus (GPa) = 45.87149 72.61615 59.24382
# Shear Modulus (GPa) = 9.04123 19.23805 14.13964
#
# Velocity S-wave (km/s) = 2.27360 3.31650 2.84328
# Velocity P-wave (km/s) = 5.75491 7.49555 6.68215
#
# Compressibility (1/GPa) = 0.02180003
#
# Stress axis : x y z
#
# Youngs Moduli (GPa) = 66.32765 66.32768 38.97790
#
# Poissons Ratio (x) = 0.65379 0.13930
# Poissons Ratio (y) = 0.65379 0.13930
# Poissons Ratio (z) = 0.23704 0.23704
#
# Static dielectric constant tensor:
#      x y z
#    x 1.583820 0.000000 0.000000 
#    y 0.000000 1.583820 0.000000 
#    z 0.000000 0.000000 1.596750 
# 
# From -- ./inp_files/6266.got.cif
#   From: 2010.05.17/outbox.cif.g08.bks.cpg/sg129_4_cif.got.tgz:6266.got - 2010.05.20 12:12:06.
