data_PCOD9565091
_publ_section_title
;
Structure prediction by ZEFSAII (Michael W. Deem and Ramdas Pophale) SiO2 
 PCOD9565091
Probable space group: P 4/M N C
;
_chemical_formula_sum "Si O2"
_cell_formula_units_Z 96
_cell_length_a 15.000000
_cell_length_b 15.000000
_cell_length_c 21.000000
_cell_angle_alpha 90.000000
_cell_angle_beta 90.000000
_cell_angle_gamma 90.000000
_cell_volume 4725.000000
_symmetry_space_group_name_H-M "P 4/M N C"
_symmetry_group_IT_number 128
_symmetry_cell_setting 'tetragonal'
loop_
_space_group_symop_operation_xyz
x,y,z
-y,x,z
-x,-y,z
y,-x,z
1/2+x,1/2-y,1/2-z
1/2-x,1/2+y,1/2-z
1/2+y,1/2+x,1/2-z
1/2-y,1/2-x,1/2-z
-x,-y,-z
y,-x,-z
x,y,-z
-y,x,-z
1/2-x,1/2+y,1/2+z
1/2+x,1/2-y,1/2+z
1/2-y,1/2-x,1/2+z
1/2+y,1/2+x,1/2+z
loop_
_atom_site_type_symbol
_atom_site_label
_atom_site_fract_x
_atom_site_fract_y
_atom_site_fract_z
Si Si1 0.214937 0.157184 0.793726
Si Si2 0.294417 0.116263 0.930977
Si Si3 0.105955 0.793862 0.571985
Si Si4 0.255649 0.919400 0.622326
Si Si5 0.098284 0.455988 0.381751
Si Si6 0.234588 0.459545 0.732118
O O1 0.280720 0.219281 0.750000
O O2 0.241227 0.142663 0.867594
O O3 0.117587 0.200317 0.793021
O O4 0.221931 0.057386 0.766399
O O5 0.372785 0.189110 0.930681
O O6 0.338225 0.019658 0.923367
O O7 0.248157 0.124296 0.000000
O O8 0.109174 0.830073 0.500000
O O9 0.185559 0.840269 0.610894
O O10 0.007271 0.796882 0.599623
O O11 0.354111 0.904959 0.592871
O O12 0.281422 0.932299 0.695584
O O13 0.147684 0.461740 0.312788
O O14 0.000000 0.500000 0.378768
#
# Coordination Sequence:
#
# PCOD9565091 Si02
#       6
#    16  16  16  16  16  16
#     4  11  23  44  63  99 133 175 224 281 333 409
#     4  10  22  41  64  93 132 172 213 270 334 396
#     4  11  24  41  61  87 126 175 221 266 323 390
#     4  12  23  41  63  94 128 174 214 272 327 399
#     4  11  23  39  64 101 131 164 215 273 339 402
#     4  11  24  39  69  94 136 172 221 275 343 403
#
# _framework density 20.317460000000001
#
# number of rings (size 3 to 8) (size 9 to 14) (size 15 to 20)
#    0.000    1.000    1.667    6.000    2.333    3.000 
#    0.000    7.500    0.000    0.000    0.000    4.667 
#    0.000    0.000    0.000    0.000    0.000    0.000 
#
# Total GULP energy -535907.356733 kJ/mol
# GULP energy per Si atom -5582.368299 kJ/mol
# Density = 2.027122 g / cm^3
# Si number density = 20.317460 Si / 1000 Ang^3
#
#
#
# Elastic Constant Matrix: (Units=GPa)
#
#
# Indices 1 2 3 4 5 6 
#
# 1 93.9210 56.0061 11.1736 0.0000 0.0000 0.0000
# 2 56.0061 93.9204 11.1750 0.0000 0.0000 0.0000
# 3 11.1736 11.1750 96.4205 0.0000 0.0000 0.0000
# 4 0.0000 0.0000 0.0000 12.4796 0.0000 0.0000
# 5 0.0000 0.0000 0.0000 0.0000 12.4818 0.0000
# 6 0.0000 0.0000 0.0000 0.0000 0.0000 28.0879
#
#
#
# Elastic Compliance Matrix: (Units=1/GPa)
#
#
# Indices 1 2 3 4 5 6 
#
# 1 0.016581 -0.009794 -0.000786 0.000000 0.000000 0.000000
# 2 -0.009794 0.016581 -0.000787 0.000000 0.000000 0.000000
# 3 -0.000786 -0.000787 0.010554 0.000000 0.000000 0.000000
# 4 0.000000 0.000000 0.000000 0.080131 0.000000 0.000000
# 5 0.000000 0.000000 0.000000 0.000000 0.080117 0.000000
# 6 0.000000 0.000000 0.000000 0.000000 0.000000 0.035602
#
#
# Mechanical properties :
#
#
# Convention : Reuss Voigt Hill
#
# Bulk Modulus (GPa) = 47.66080 48.99680 48.32880
# Shear Modulus (GPa) = 18.56705 24.33700 21.45202
#
# Velocity S-wave (km/s) = 3.02627 3.46473 3.25290
# Velocity P-wave (km/s) = 5.97663 6.33828 6.16011
#
# Compressibility (1/GPa) = 0.02098160
#
# Stress axis : x y z
#
# Youngs Moduli (GPa) = 60.30983 60.30929 94.75481
#
# Poissons Ratio (x) = 0.59067 0.07451
# Poissons Ratio (y) = 0.59067 0.07455
# Poissons Ratio (z) = 0.04743 0.04745
#
# Static dielectric constant tensor:
#      x y z
#    x 1.727030 0.000000 0.000000 
#    y 0.000000 1.727030 0.000000 
#    z 0.000000 0.000000 1.791300 
# 
# From -- ./inp_files/5768.got.cif
#   From: 2010.05.17/outbox.ucp.g08.bks.cvg/sg128_3_cif.got.tgz:5768.got - 2010.06.11 11:37:33.
