data_PCOD9565470
_publ_section_title
;
Structure prediction by ZEFSAII (Michael W. Deem and Ramdas Pophale) SiO2 
 PCOD9565470
Probable space group: P 4/N M M
;
_chemical_formula_sum "Si O2"
_cell_formula_units_Z 64
_cell_length_a 20.653479
_cell_length_b 20.653479
_cell_length_c 7.609203
_cell_angle_alpha 90.000000
_cell_angle_beta 90.000000
_cell_angle_gamma 90.000000
_cell_volume 3245.828769
_symmetry_space_group_name_H-M "P 4/N M M"
_symmetry_group_IT_number 129
_symmetry_cell_setting 'tetragonal'
loop_
_space_group_symop_operation_xyz
x,y,z
1/2-y,x,z
1/2-x,1/2-y,z
y,1/2-x,z
1/2+x,-y,-z
-x,1/2+y,-z
1/2+y,1/2+x,-z
-y,-x,-z
-x,-y,-z
1/2+y,-x,-z
1/2+x,1/2+y,-z
-y,1/2+x,-z
1/2-x,y,z
x,1/2-y,z
1/2-y,1/2-x,z
y,x,z
loop_
_atom_site_type_symbol
_atom_site_label
_atom_site_fract_x
_atom_site_fract_y
_atom_site_fract_z
Si Si1 0.993574 0.823671 0.056599
Si Si2 0.431090 0.171698 0.590216
Si Si3 0.460476 0.828125 0.688215
Si Si4 0.820597 0.360181 0.193060
O O1 0.972367 0.750000 0.019474
O O2 0.946763 0.847023 0.208677
O O3 0.063947 0.820969 0.147395
O O4 0.006098 0.855013 0.867249
O O5 0.422849 0.250000 0.579338
O O6 0.368620 0.131381 0.530158
O O7 0.494122 0.153847 0.473998
O O8 0.460588 0.750000 0.696590
O O9 0.384786 0.845897 0.695975
O O10 0.750000 0.343507 0.270190
O O11 0.827361 0.327361 0.000000
#
# Coordination Sequence:
#
# PCOD9565470 Si02
#       4
#    16  16  16  16
#     4   8  16  32  51  72 103 140 173 212 265 319
#     4  10  21  37  57  78 101 134 176 224 280 336
#     4   9  18  32  51  77 110 145 176 210 261 318
#     4   9  16  28  50  79 109 143 183 219 248 290
#
# _framework density 19.717614000000001
#
# number of rings (size 3 to 8) (size 9 to 14) (size 15 to 20)
#    0.000    3.000    0.000    2.250    0.000    4.000 
#    0.000    2.500    0.000   10.500    0.000   42.000 
#    0.000    0.000    0.000    0.000    0.000    0.000 
#
# Total GULP energy -356329.576056 kJ/mol
# GULP energy per Si atom -5567.649626 kJ/mol
# Density = 1.967274 g / cm^3
# Si number density = 19.717614 Si / 1000 Ang^3
#
#
#
# Elastic Constant Matrix: (Units=GPa)
#
#
# Indices 1 2 3 4 5 6 
#
# 1 61.9314 46.8635 36.6829 0.0000 0.0000 0.0000
# 2 46.8635 61.9314 36.6829 0.0000 0.0000 0.0000
# 3 36.6829 36.6829 100.7713 0.0000 0.0000 0.0000
# 4 0.0000 0.0000 0.0000 19.3332 0.0000 0.0000
# 5 0.0000 0.0000 0.0000 0.0000 19.3332 0.0000
# 6 0.0000 0.0000 0.0000 0.0000 0.0000 31.1604
#
#
#
# Elastic Compliance Matrix: (Units=1/GPa)
#
#
# Indices 1 2 3 4 5 6 
#
# 1 0.039274 -0.027092 -0.004435 0.000000 0.000000 0.000000
# 2 -0.027092 0.039274 -0.004435 0.000000 0.000000 0.000000
# 3 -0.004435 -0.004435 0.013152 0.000000 0.000000 0.000000
# 4 0.000000 0.000000 0.000000 0.051725 0.000000 0.000000
# 5 0.000000 0.000000 0.000000 0.000000 0.051725 0.000000
# 6 0.000000 0.000000 0.000000 0.000000 0.000000 0.032092
#
#
# Mechanical properties :
#
#
# Convention : Reuss Voigt Hill
#
# Bulk Modulus (GPa) = 50.56135 51.67698 51.11916
# Shear Modulus (GPa) = 16.35289 20.92567 18.63928
#
# Velocity S-wave (km/s) = 2.88298 3.26124 3.07793
# Velocity P-wave (km/s) = 6.06469 6.35975 6.21397
#
# Compressibility (1/GPa) = 0.01977795
#
# Stress axis : x y z
#
# Youngs Moduli (GPa) = 25.46204 25.46204 76.03425
#
# Poissons Ratio (x) = 0.68982 0.33717
# Poissons Ratio (y) = 0.68982 0.33717
# Poissons Ratio (z) = 0.11291 0.11291
#
# Static dielectric constant tensor:
#      x y z
#    x 1.687190 0.000000 0.000000 
#    y 0.000000 1.687190 0.000000 
#    z 0.000000 0.000000 1.760530 
# 
# From -- ./inp_files/2062.got.cif
#   From: 2010.05.17/outbox.cif.g08.bks.cpg/sg129_2_cif.got.tgz:2062.got - 2010.05.20 12:12:06.
