data_PCOD9565924
_publ_section_title
;
Structure prediction by ZEFSAII (Michael W. Deem and Ramdas Pophale) SiO2 
 PCOD9565924
Probable space group: P 4/N C C
;
_chemical_formula_sum "Si O2"
_cell_formula_units_Z 72
_cell_length_a 15.871741
_cell_length_b 15.871741
_cell_length_c 14.285480
_cell_angle_alpha 90.000000
_cell_angle_beta 90.000000
_cell_angle_gamma 90.000000
_cell_volume 3598.686157
_symmetry_space_group_name_H-M "P 4/N C C"
_symmetry_group_IT_number 130
_symmetry_cell_setting 'tetragonal'
loop_
_space_group_symop_operation_xyz
x,y,z
1/2-y,x,z
1/2-x,1/2-y,z
y,1/2-x,z
1/2+x,-y,1/2-z
-x,1/2+y,1/2-z
1/2+y,1/2+x,1/2-z
-y,-x,1/2-z
-x,-y,-z
1/2+y,-x,-z
1/2+x,1/2+y,-z
-y,1/2+x,-z
1/2-x,y,1/2+z
x,1/2-y,1/2+z
1/2-y,1/2-x,1/2+z
y,x,1/2+z
loop_
_atom_site_type_symbol
_atom_site_label
_atom_site_fract_x
_atom_site_fract_y
_atom_site_fract_z
Si Si1 0.015461 0.515461 0.750000
Si Si2 0.843134 0.487118 0.862765
Si Si3 0.213265 0.384102 0.980325
Si Si4 0.202714 0.668000 0.360722
Si Si5 0.001545 0.790129 0.190598
O O1 0.937002 0.503940 0.822008
O O2 0.111566 0.509300 0.785056
O O3 0.842577 0.390918 0.898481
O O4 0.773561 0.501062 0.779689
O O5 0.815965 0.545819 0.947222
O O6 0.150442 0.306671 0.995788
O O7 0.215117 0.420915 0.875817
O O8 0.250000 0.750000 0.396655
O O9 0.185425 0.685425 0.250000
O O10 0.258226 0.584288 0.365249
#
# Coordination Sequence:
#
# PCOD9565924 Si02
#       5
#     8  16  16  16  16
#     4  12  22  38  72  98 128 188 218 278 356 400
#     4  11  22  44  65  99 135 171 235 281 346 412
#     4  11  26  44  64  94 135 182 228 281 337 403
#     4   9  18  38  63  88 129 167 211 281 340 401
#     4  11  22  42  66  96 134 170 230 278 339 410
#
# _framework density 20.007303
#
# number of rings (size 3 to 8) (size 9 to 14) (size 15 to 20)
#    0.000    1.333    3.333    5.333    0.000    0.889 
#    8.000    2.222    0.000    0.000    0.000    0.000 
#    0.000    0.000    0.000    0.000    0.000    0.000 
#
# Total GULP energy -402010.605778 kJ/mol
# GULP energy per Si atom -5583.480636 kJ/mol
# Density = 1.996177 g / cm^3
# Si number density = 20.007303 Si / 1000 Ang^3
#
#
#
# Elastic Constant Matrix: (Units=GPa)
#
#
# Indices 1 2 3 4 5 6 
#
# 1 171.7182 31.9416 16.6143 0.0000 0.0000 0.0000
# 2 31.9416 171.7182 16.6143 0.0000 0.0000 0.0000
# 3 16.6143 16.6143 37.1134 0.0000 0.0000 0.0000
# 4 0.0000 0.0000 0.0000 34.2878 0.0000 0.0000
# 5 0.0000 0.0000 0.0000 0.0000 34.2878 0.0000
# 6 0.0000 0.0000 0.0000 0.0000 0.0000 -40.4285
#
#
#
# Elastic Compliance Matrix: (Units=1/GPa)
#
#
# Indices 1 2 3 4 5 6 
#
# 1 0.006226 -0.000929 -0.002371 0.000000 0.000000 0.000000
# 2 -0.000929 0.006226 -0.002371 0.000000 0.000000 0.000000
# 3 -0.002371 -0.002371 0.029068 0.000000 0.000000 0.000000
# 4 0.000000 0.000000 0.000000 0.029165 0.000000 0.000000
# 5 0.000000 0.000000 0.000000 0.000000 0.029165 0.000000
# 6 0.000000 0.000000 0.000000 0.000000 0.000000 -0.024735
#
#
# Mechanical properties :
#
#
# Convention : Reuss Voigt Hill
#
# Bulk Modulus (GPa) = 33.13841 56.76558 44.95199
# Shear Modulus (GPa) = 51.80555 26.65474 39.23015
#
# Velocity S-wave (km/s) = 5.09407 3.65396 4.43289
# Velocity P-wave (km/s) = 7.15531 6.79970 6.97977
#
# Compressibility (1/GPa) = 0.03017646
#
# Stress axis : x y z
#
# Youngs Moduli (GPa) = 160.62564 160.62564 34.40265
#
# Poissons Ratio (x) = 0.14916 0.08158
# Poissons Ratio (y) = 0.14916 0.08158
# Poissons Ratio (z) = 0.38089 0.38089
#
# Static dielectric constant tensor:
#      x y z
#    x 1.725190 0.000000 0.000000 
#    y 0.000000 1.725190 0.000000 
#    z 0.000000 0.000000 1.714700 
# 
# From -- ./inp_files/2955.got.cif
#   From: 2010.05.17/outbox.cif.g08.bks.cpg/sg130_2_cif.got.tgz:2955.got - 2010.05.20 12:17:35.
