data_PCOD9565098
_publ_section_title
;
Structure prediction by ZEFSAII (Michael W. Deem and Ramdas Pophale) SiO2 
 PCOD9565098
Probable space group: P 4/M N C
;
_chemical_formula_sum "Si O2"
_cell_formula_units_Z 56
_cell_length_a 18.000000
_cell_length_b 18.000000
_cell_length_c 9.000000
_cell_angle_alpha 90.000000
_cell_angle_beta 90.000000
_cell_angle_gamma 90.000000
_cell_volume 2916.000000
_symmetry_space_group_name_H-M "P 4/M N C"
_symmetry_group_IT_number 128
_symmetry_cell_setting 'tetragonal'
loop_
_space_group_symop_operation_xyz
x,y,z
-y,x,z
-x,-y,z
y,-x,z
1/2+x,1/2-y,1/2-z
1/2-x,1/2+y,1/2-z
1/2+y,1/2+x,1/2-z
1/2-y,1/2-x,1/2-z
-x,-y,-z
y,-x,-z
x,y,-z
-y,x,-z
1/2-x,1/2+y,1/2+z
1/2+x,1/2-y,1/2+z
1/2-y,1/2-x,1/2+z
1/2+y,1/2+x,1/2+z
loop_
_atom_site_type_symbol
_atom_site_label
_atom_site_fract_x
_atom_site_fract_y
_atom_site_fract_z
Si Si1 0.148723 0.153632 0.318576
Si Si2 0.588172 0.799327 0.317376
Si Si3 0.920690 0.904436 0.000000
Si Si4 0.813560 0.574050 0.175003
O O1 0.136941 0.130056 0.500000
O O2 0.231760 0.130386 0.268896
O O3 0.126506 0.240274 0.320113
O O4 0.105313 0.124899 0.165762
O O5 0.627065 0.872936 0.250000
O O6 0.594461 0.794082 0.500000
O O7 0.502135 0.798166 0.265131
O O8 0.009409 0.897443 0.000000
O O9 0.880975 0.619026 0.250000
O O10 0.827940 0.557734 0.000000
#
# Coordination Sequence:
#
# PCOD9565098 Si02
#       4
#    16  16   8  16
#     4  11  24  43  69  99 136 176 228 280 337 401
#     4  12  25  43  69  99 137 179 229 283 342 408
#     4  11  24  40  64  98 134 178 226 273 338 408
#     4  11  25  43  68 100 136 179 229 282 344 406
#
# _framework density 19.20439
#
# number of rings (size 3 to 8) (size 9 to 14) (size 15 to 20)
#    0.000    0.714    1.429    6.000    4.000    6.286 
#    0.000    4.286    0.000    0.000    0.000    0.000 
#    0.000    0.000    0.000    0.000    0.000    0.000 
#
# Total GULP energy -311935.889521 kJ/mol
# GULP energy per Si atom -5570.283741 kJ/mol
# Density = 1.916068 g / cm^3
# Si number density = 19.204390 Si / 1000 Ang^3
#
#
#
# Elastic Constant Matrix: (Units=GPa)
#
#
# Indices 1 2 3 4 5 6 
#
# 1 96.9146 32.4601 37.1056 0.0000 0.0000 0.0000
# 2 32.4601 96.9224 37.1094 0.0000 0.0000 0.0000
# 3 37.1056 37.1094 216.7792 0.0000 0.0000 0.0000
# 4 0.0000 0.0000 0.0000 43.0631 0.0000 0.0000
# 5 0.0000 0.0000 0.0000 0.0000 43.0636 0.0000
# 6 0.0000 0.0000 0.0000 0.0000 0.0000 42.8370
#
#
#
# Elastic Compliance Matrix: (Units=1/GPa)
#
#
# Indices 1 2 3 4 5 6 
#
# 1 0.012043 -0.003472 -0.001467 0.000000 0.000000 0.000000
# 2 -0.003472 0.012042 -0.001467 0.000000 0.000000 0.000000
# 3 -0.001467 -0.001467 0.005115 0.000000 0.000000 0.000000
# 4 0.000000 0.000000 0.000000 0.023222 0.000000 0.000000
# 5 0.000000 0.000000 0.000000 0.000000 0.023221 0.000000
# 6 0.000000 0.000000 0.000000 0.000000 0.000000 0.023344
#
#
# Mechanical properties :
#
#
# Convention : Reuss Voigt Hill
#
# Bulk Modulus (GPa) = 61.01862 69.32958 65.17410
# Shear Modulus (GPa) = 42.63963 46.05549 44.34756
#
# Velocity S-wave (km/s) = 4.71712 4.90243 4.81067
# Velocity P-wave (km/s) = 7.84287 8.25980 8.05403
#
# Compressibility (1/GPa) = 0.01638844
#
# Stress axis : x y z
#
# Youngs Moduli (GPa) = 83.03725 83.04320 195.49332
#
# Poissons Ratio (x) = 0.28829 0.28680
# Poissons Ratio (y) = 0.28827 0.28683
# Poissons Ratio (z) = 0.12182 0.12184
#
# Static dielectric constant tensor:
#      x y z
#    x 1.684700 0.000000 0.000000 
#    y 0.000000 1.684700 0.000000 
#    z 0.000000 0.000000 1.703420 
# 
# From -- ./inp_files/782.got.cif
#   From: 2010.05.17/outbox.ucp.g08.bks.cvg/sg128_1_cif.got.tgz:782.got - 2010.06.11 11:37:33.
