data_PCOD9565661
_publ_section_title
;
Structure prediction by ZEFSAII (Michael W. Deem and Ramdas Pophale) SiO2 
 PCOD9565661
Probable space group: P 4/N C C
;
_chemical_formula_sum "Si O2"
_cell_formula_units_Z 96
_cell_length_a 14.927028
_cell_length_b 14.927028
_cell_length_c 22.664593
_cell_angle_alpha 90.000000
_cell_angle_beta 90.000000
_cell_angle_gamma 90.000000
_cell_volume 5050.037692
_symmetry_space_group_name_H-M "P 4/N C C"
_symmetry_group_IT_number 130
_symmetry_cell_setting 'tetragonal'
loop_
_space_group_symop_operation_xyz
x,y,z
1/2-y,x,z
1/2-x,1/2-y,z
y,1/2-x,z
1/2+x,-y,1/2-z
-x,1/2+y,1/2-z
1/2+y,1/2+x,1/2-z
-y,-x,1/2-z
-x,-y,-z
1/2+y,-x,-z
1/2+x,1/2+y,-z
-y,1/2+x,-z
1/2-x,y,1/2+z
x,1/2-y,1/2+z
1/2-y,1/2-x,1/2+z
y,x,1/2+z
loop_
_atom_site_type_symbol
_atom_site_label
_atom_site_fract_x
_atom_site_fract_y
_atom_site_fract_z
Si Si1 0.557955 0.898277 0.335340
Si Si2 0.392480 0.804046 0.999350
Si Si3 0.681084 0.170449 0.815263
Si Si4 0.225767 0.995387 0.121077
Si Si5 0.978151 0.130217 0.381539
Si Si6 0.121135 0.328935 0.789041
O O1 0.565005 0.808139 0.375038
O O2 0.467390 0.947210 0.357470
O O3 0.565167 0.867715 0.266824
O O4 0.639977 0.963083 0.348470
O O5 0.452208 0.851850 0.050438
O O6 0.359168 0.700801 0.011091
O O7 0.454884 0.797887 0.942095
O O8 0.750000 0.250000 0.814918
O O9 0.649966 0.149966 0.750000
O O10 0.732869 0.087287 0.842691
O O11 0.593684 0.196499 0.851265
O O12 0.073378 0.148461 0.351402
O O13 0.130984 0.221350 0.784721
#
# Coordination Sequence:
#
# PCOD9565661 Si02
#       6
#    16  16  16  16  16  16
#     4  11  22  43  65  96 128 167 225 273 321 397
#     4  11  22  42  68  94 134 172 212 271 333 389
#     4  10  20  37  61  94 131 159 207 275 332 384
#     4  11  23  40  64  96 127 178 223 260 328 395
#     4  11  23  40  63  97 131 166 218 275 321 397
#     4  11  24  43  67  93 133 178 214 265 334 395
#
# _framework density 19.00976
#
# number of rings (size 3 to 8) (size 9 to 14) (size 15 to 20)
#    0.000    1.167    5.000    3.500    0.000    3.667 
#    6.000    0.000    0.000    0.000    0.000    0.000 
#    0.000    0.000    0.000    0.000    0.000    0.000 
#
# Total GULP energy -535021.378263 kJ/mol
# GULP energy per Si atom -5573.139357 kJ/mol
# Density = 1.896649 g / cm^3
# Si number density = 19.009760 Si / 1000 Ang^3
#
#
#
# Elastic Constant Matrix: (Units=GPa)
#
#
# Indices 1 2 3 4 5 6 
#
# 1 64.7312 21.6535 33.8070 0.0000 0.0000 0.0000
# 2 21.6535 64.7312 33.8070 0.0000 0.0000 0.0000
# 3 33.8070 33.8070 119.4116 0.0000 0.0000 0.0000
# 4 0.0000 0.0000 0.0000 26.0264 0.0000 0.0000
# 5 0.0000 0.0000 0.0000 0.0000 26.0264 0.0000
# 6 0.0000 0.0000 0.0000 0.0000 0.0000 22.7420
#
#
#
# Elastic Compliance Matrix: (Units=1/GPa)
#
#
# Indices 1 2 3 4 5 6 
#
# 1 0.019043 -0.004171 -0.004210 0.000000 0.000000 0.000000
# 2 -0.004171 0.019043 -0.004210 0.000000 0.000000 0.000000
# 3 -0.004210 -0.004210 0.010758 0.000000 0.000000 0.000000
# 4 0.000000 0.000000 0.000000 0.038422 0.000000 0.000000
# 5 0.000000 0.000000 0.000000 0.000000 0.038422 0.000000
# 6 0.000000 0.000000 0.000000 0.000000 0.000000 0.043971
#
#
# Mechanical properties :
#
#
# Convention : Reuss Voigt Hill
#
# Bulk Modulus (GPa) = 42.26503 47.48988 44.87746
# Shear Modulus (GPa) = 24.66328 25.59942 25.13135
#
# Velocity S-wave (km/s) = 3.60585 3.67365 3.63991
# Velocity P-wave (km/s) = 6.29427 6.55975 6.42838
#
# Compressibility (1/GPa) = 0.02366022
#
# Stress axis : x y z
#
# Youngs Moduli (GPa) = 52.51351 52.51351 92.95055
#
# Poissons Ratio (x) = 0.21904 0.39135
# Poissons Ratio (y) = 0.21904 0.39135
# Poissons Ratio (z) = 0.22110 0.22110
#
# Static dielectric constant tensor:
#      x y z
#    x 1.717620 0.000000 0.000000 
#    y 0.000000 1.717620 0.000000 
#    z 0.000000 0.000000 1.723890 
# 
# From -- ./inp_files/3774.got.cif
#   From: 2010.05.17/outbox.cif.g08.bks.cpg/sg130_2_cif.got.tgz:3774.got - 2010.05.20 12:17:35.
