data_PCOD9565337
_publ_section_title
;
Structure prediction by ZEFSAII (Michael W. Deem and Ramdas Pophale) SiO2 
 PCOD9565337
Probable space group: P 4/N M M
;
_chemical_formula_sum "Si O2"
_cell_formula_units_Z 96
_cell_length_a 13.931179
_cell_length_b 13.931179
_cell_length_c 31.276185
_cell_angle_alpha 90.000000
_cell_angle_beta 90.000000
_cell_angle_gamma 90.000000
_cell_volume 6070.011561
_symmetry_space_group_name_H-M "P 4/N M M"
_symmetry_group_IT_number 129
_symmetry_cell_setting 'tetragonal'
loop_
_space_group_symop_operation_xyz
x,y,z
1/2-y,x,z
1/2-x,1/2-y,z
y,1/2-x,z
1/2+x,-y,-z
-x,1/2+y,-z
1/2+y,1/2+x,-z
-y,-x,-z
-x,-y,-z
1/2+y,-x,-z
1/2+x,1/2+y,-z
-y,1/2+x,-z
1/2-x,y,z
x,1/2-y,z
1/2-y,1/2-x,z
y,x,z
loop_
_atom_site_type_symbol
_atom_site_label
_atom_site_fract_x
_atom_site_fract_y
_atom_site_fract_z
Si Si1 0.635621 0.020524 0.701022
Si Si2 0.860376 0.133450 0.215817
Si Si3 0.478449 0.862709 0.367874
Si Si4 0.866409 0.139782 0.880089
Si Si5 0.638636 0.479658 0.467441
Si Si6 0.022042 0.634758 0.963988
O O1 0.750000 0.009351 0.700227
O O2 0.605551 0.070241 0.745804
O O3 0.599512 0.090215 0.663275
O O4 0.579048 0.920953 0.696471
O O5 0.750000 0.103256 0.223705
O O6 0.859944 0.250000 0.215481
O O7 0.888099 0.101930 0.167845
O O8 0.491173 0.750000 0.359152
O O9 0.450400 0.873658 0.417765
O O10 0.576252 0.923749 0.361769
O O11 0.750000 0.141616 0.879412
O O12 0.897587 0.250000 0.888314
O O13 0.892298 0.068893 0.918226
O O14 0.599475 0.400526 0.500000
O O15 0.750000 0.499548 0.474592
O O16 0.573977 0.573977 0.474124
O O17 0.012652 0.750000 0.966724
O O18 0.922096 0.577905 0.968991
O O19 0.094180 0.594180 0.000000
#
# Coordination Sequence:
#
# PCOD9565337 Si02
#       6
#    16  16  16  16  16  16
#     4  10  20  32  46  65  91 124 161 199 236 276
#     4   8  14  26  45  67  88 112 146 188 231 271
#     4   9  18  32  50  72  95 119 149 187 233 282
#     4   8  14  26  45  67  89 114 146 185 227 270
#     4   9  18  32  49  70  96 123 152 188 228 272
#     4  10  20  32  47  68  93 122 157 196 237 281
#
# _framework density 15.815455
#
# number of rings (size 3 to 8) (size 9 to 14) (size 15 to 20)
#    0.000    3.000    0.000    2.000    0.000    4.000 
#    0.000    3.333    0.000    0.000    0.000    9.333 
#    0.000    0.000    0.000   31.000    0.000    1.833 
#
# Total GULP energy -534490.037388 kJ/mol
# GULP energy per Si atom -5567.604556 kJ/mol
# Density = 1.577946 g / cm^3
# Si number density = 15.815455 Si / 1000 Ang^3
#
#
#
# Elastic Constant Matrix: (Units=GPa)
#
#
# Indices 1 2 3 4 5 6 
#
# 1 83.6404 40.7688 55.3086 0.0000 0.0000 0.0000
# 2 40.7688 83.6412 55.3082 0.0000 0.0000 0.0000
# 3 55.3086 55.3082 91.1684 0.0000 0.0000 0.0000
# 4 0.0000 0.0000 0.0000 21.7368 0.0000 0.0000
# 5 0.0000 0.0000 0.0000 0.0000 21.7369 0.0000
# 6 0.0000 0.0000 0.0000 0.0000 0.0000 5.4286
#
#
#
# Elastic Compliance Matrix: (Units=1/GPa)
#
#
# Indices 1 2 3 4 5 6 
#
# 1 0.020388 -0.002937 -0.010587 0.000000 0.000000 0.000000
# 2 -0.002937 0.020388 -0.010587 0.000000 0.000000 0.000000
# 3 -0.010587 -0.010587 0.023814 0.000000 0.000000 0.000000
# 4 0.000000 0.000000 0.000000 0.046005 0.000000 0.000000
# 5 0.000000 0.000000 0.000000 0.000000 0.046005 0.000000
# 6 0.000000 0.000000 0.000000 0.000000 0.000000 0.184208
#
#
# Mechanical properties :
#
#
# Convention : Reuss Voigt Hill
#
# Bulk Modulus (GPa) = 61.09244 62.35791 61.72518
# Shear Modulus (GPa) = 12.67469 16.91809 14.79639
#
# Velocity S-wave (km/s) = 2.83399 3.27420 3.06202
# Velocity P-wave (km/s) = 7.03000 7.33539 7.18432
#
# Compressibility (1/GPa) = 0.01636864
#
# Stress axis : x y z
#
# Youngs Moduli (GPa) = 49.04731 49.04852 41.99175
#
# Poissons Ratio (x) = 0.14405 0.44458
# Poissons Ratio (y) = 0.14405 0.44456
# Poissons Ratio (z) = 0.51927 0.51927
#
# Static dielectric constant tensor:
#      x y z
#    x 1.509480 0.000000 0.000000 
#    y 0.000000 1.509480 0.000000 
#    z 0.000000 0.000000 1.547850 
# 
# From -- ./inp_files/7862.got.cif
#   From: 2010.05.17/outbox.cif.g08.bks.cpg/sg129_4_cif.got.tgz:7862.got - 2010.05.20 12:12:06.
