data_PCOD9565537
_publ_section_title
;
Structure prediction by ZEFSAII (Michael W. Deem and Ramdas Pophale) SiO2 
 PCOD9565537
Probable space group: P 4/N C C
;
_chemical_formula_sum "Si O2"
_cell_formula_units_Z 120
_cell_length_a 18.094033
_cell_length_b 18.094033
_cell_length_c 18.370658
_cell_angle_alpha 90.000000
_cell_angle_beta 90.000000
_cell_angle_gamma 90.000000
_cell_volume 6014.443760
_symmetry_space_group_name_H-M "P 4/N C C"
_symmetry_group_IT_number 130
_symmetry_cell_setting 'tetragonal'
loop_
_space_group_symop_operation_xyz
x,y,z
1/2-y,x,z
1/2-x,1/2-y,z
y,1/2-x,z
1/2+x,-y,1/2-z
-x,1/2+y,1/2-z
1/2+y,1/2+x,1/2-z
-y,-x,1/2-z
-x,-y,-z
1/2+y,-x,-z
1/2+x,1/2+y,-z
-y,1/2+x,-z
1/2-x,y,1/2+z
x,1/2-y,1/2+z
1/2-y,1/2-x,1/2+z
y,x,1/2+z
loop_
_atom_site_type_symbol
_atom_site_label
_atom_site_fract_x
_atom_site_fract_y
_atom_site_fract_z
Si Si1 0.546253 0.698461 0.033154
Si Si2 0.175529 0.345271 0.088174
Si Si3 0.396305 0.603696 0.250000
Si Si4 0.684558 0.115735 0.397618
Si Si5 0.582375 0.973317 0.158008
Si Si6 0.660582 0.103796 0.958123
Si Si7 0.975131 0.592809 0.916443
Si Si8 0.365137 0.494554 0.924999
O O1 0.534351 0.651855 0.105473
O O2 0.531071 0.783323 0.053854
O O3 0.625837 0.684153 0.995913
O O4 0.482578 0.671618 0.976795
O O5 0.150861 0.261902 0.107833
O O6 0.106293 0.394063 0.114843
O O7 0.369483 0.649590 0.319407
O O8 0.483620 0.609276 0.229499
O O9 0.642972 0.158992 0.462507
O O10 0.770629 0.128095 0.409516
O O11 0.664107 0.028913 0.408969
O O12 0.542045 0.894912 0.149176
O O13 0.521743 0.028901 0.121977
O O14 0.582684 0.125014 0.922825
O O15 0.971258 0.584988 0.004288
#
# Coordination Sequence:
#
# PCOD9565537 Si02
#       8
#    16  16   8  16  16  16  16  16
#     4  12  18  33  54  84 118 153 202 259 305 363
#     4  11  20  28  46  81 122 152 188 256 326 364
#     4  10  22  40  60  85 122 170 209 244 320 396
#     4  10  21  37  61  91 122 168 207 257 319 388
#     4  11  21  36  58  79 114 162 201 246 308 370
#     4  11  19  35  60  90 122 161 212 266 305 374
#     4  10  17  31  52  80 112 146 196 247 304 361
#     4  11  20  32  55  87 113 152 202 260 304 359
#
# _framework density 19.951968999999998
#
# number of rings (size 3 to 8) (size 9 to 14) (size 15 to 20)
#    0.000    1.200    9.333    1.200    0.000    0.267 
#    0.000    1.333    0.000    7.200    0.000    0.000 
#    0.000   12.800    0.000    0.000    0.000    0.000 
#
# Total GULP energy -668115.336410 kJ/mol
# GULP energy per Si atom -5567.627803 kJ/mol
# Density = 1.990656 g / cm^3
# Si number density = 19.951969 Si / 1000 Ang^3
#
#
#
# Elastic Constant Matrix: (Units=GPa)
#
#
# Indices 1 2 3 4 5 6 
#
# 1 91.0267 28.6204 11.9003 0.0000 0.0000 0.0000
# 2 28.6204 91.0261 11.9002 0.0000 0.0000 0.0000
# 3 11.9003 11.9002 57.7644 0.0000 0.0000 0.0000
# 4 0.0000 0.0000 0.0000 16.2777 0.0000 0.0000
# 5 0.0000 0.0000 0.0000 0.0000 16.2782 0.0000
# 6 0.0000 0.0000 0.0000 0.0000 0.0000 18.8066
#
#
#
# Elastic Compliance Matrix: (Units=1/GPa)
#
#
# Indices 1 2 3 4 5 6 
#
# 1 0.012370 -0.003654 -0.001795 0.000000 0.000000 0.000000
# 2 -0.003654 0.012370 -0.001795 0.000000 0.000000 0.000000
# 3 -0.001795 -0.001795 0.018051 0.000000 0.000000 0.000000
# 4 0.000000 0.000000 0.000000 0.061434 0.000000 0.000000
# 5 0.000000 0.000000 0.000000 0.000000 0.061432 0.000000
# 6 0.000000 0.000000 0.000000 0.000000 0.000000 0.053173
#
#
# Mechanical properties :
#
#
# Convention : Reuss Voigt Hill
#
# Bulk Modulus (GPa) = 35.33578 38.29544 36.81561
# Shear Modulus (GPa) = 20.59708 22.76560 21.68134
#
# Velocity S-wave (km/s) = 3.21648 3.38156 3.30005
# Velocity P-wave (km/s) = 5.61633 5.87215 5.74566
#
# Compressibility (1/GPa) = 0.02829993
#
# Stress axis : x y z
#
# Youngs Moduli (GPa) = 80.84372 80.84321 55.39719
#
# Poissons Ratio (x) = 0.29544 0.09946
# Poissons Ratio (y) = 0.29544 0.09946
# Poissons Ratio (z) = 0.14515 0.14515
#
# Static dielectric constant tensor:
#      x y z
#    x 1.771580 0.000000 0.000000 
#    y 0.000000 1.771580 0.000000 
#    z 0.000000 0.000000 1.720360 
# 
# From -- ./inp_files/3990.got.cif
#   From: 2010.05.17/outbox.cif.g08.bks.cpg/sg130_2_cif.got.tgz:3990.got - 2010.05.20 12:17:35.
