data_PCOD9565916
_publ_section_title
;
Structure prediction by ZEFSAII (Michael W. Deem and Ramdas Pophale) SiO2 
 PCOD9565916
Probable space group: P 4/N C C
;
_chemical_formula_sum "Si O2"
_cell_formula_units_Z 64
_cell_length_a 11.956752
_cell_length_b 11.956752
_cell_length_c 18.042414
_cell_angle_alpha 90.000000
_cell_angle_beta 90.000000
_cell_angle_gamma 90.000000
_cell_volume 2579.414203
_symmetry_space_group_name_H-M "P 4/N C C"
_symmetry_group_IT_number 130
_symmetry_cell_setting 'tetragonal'
loop_
_space_group_symop_operation_xyz
x,y,z
1/2-y,x,z
1/2-x,1/2-y,z
y,1/2-x,z
1/2+x,-y,1/2-z
-x,1/2+y,1/2-z
1/2+y,1/2+x,1/2-z
-y,-x,1/2-z
-x,-y,-z
1/2+y,-x,-z
1/2+x,1/2+y,-z
-y,1/2+x,-z
1/2-x,y,1/2+z
x,1/2-y,1/2+z
1/2-y,1/2-x,1/2+z
y,x,1/2+z
loop_
_atom_site_type_symbol
_atom_site_label
_atom_site_fract_x
_atom_site_fract_y
_atom_site_fract_z
Si Si1 0.625735 0.204755 0.172039
Si Si2 0.401289 0.646163 0.483440
Si Si3 0.414937 0.337364 0.402576
Si Si4 0.926947 0.689335 0.269260
O O1 0.750000 0.250000 0.154050
O O2 0.639926 0.139926 0.250000
O O3 0.586307 0.127719 0.104382
O O4 0.541060 0.307713 0.185116
O O5 0.281681 0.603682 0.510305
O O6 0.498653 0.613736 0.539133
O O7 0.294898 0.393591 0.414311
O O8 0.450811 0.338050 0.316653
O O9 0.884898 0.817505 0.283645
#
# Coordination Sequence:
#
# PCOD9565916 Si02
#       4
#    16  16  16  16
#     4  11  23  40  62  91 128 169 212 261 311 375
#     4  11  22  39  60  86 124 165 209 255 307 366
#     4   9  20  40  65  94 127 160 201 256 313 370
#     4   9  20  42  69  98 129 165 210 260 316 376
#
# _framework density 24.811833
#
# number of rings (size 3 to 8) (size 9 to 14) (size 15 to 20)
#    0.000    2.000    2.500    3.000    3.500    3.000 
#    4.500    2.500    0.000    0.000    0.000    0.000 
#    0.000    0.000    0.000    0.000    0.000    0.000 
#
# Total GULP energy -358123.434275 kJ/mol
# GULP energy per Si atom -5595.678661 kJ/mol
# Density = 2.475536 g / cm^3
# Si number density = 24.811833 Si / 1000 Ang^3
#
#
#
# Elastic Constant Matrix: (Units=GPa)
#
#
# Indices 1 2 3 4 5 6 
#
# 1 109.5638 1.7089 20.8255 0.0000 0.0000 0.0000
# 2 1.7089 109.5638 20.8255 0.0000 0.0000 0.0000
# 3 20.8255 20.8255 114.5665 0.0000 0.0000 0.0000
# 4 0.0000 0.0000 0.0000 24.7317 0.0000 0.0000
# 5 0.0000 0.0000 0.0000 0.0000 24.7317 0.0000
# 6 0.0000 0.0000 0.0000 0.0000 0.0000 9.3520
#
#
#
# Elastic Compliance Matrix: (Units=1/GPa)
#
#
# Indices 1 2 3 4 5 6 
#
# 1 0.009457 0.000186 -0.001753 0.000000 0.000000 0.000000
# 2 0.000186 0.009457 -0.001753 0.000000 0.000000 0.000000
# 3 -0.001753 -0.001753 0.009366 0.000000 0.000000 0.000000
# 4 0.000000 0.000000 0.000000 0.040434 0.000000 0.000000
# 5 0.000000 0.000000 0.000000 0.000000 0.040434 0.000000
# 6 0.000000 0.000000 0.000000 0.000000 0.000000 0.106929
#
#
# Mechanical properties :
#
#
# Convention : Reuss Voigt Hill
#
# Bulk Modulus (GPa) = 46.20986 46.71267 46.46127
# Shear Modulus (GPa) = 21.74561 31.11871 26.43216
#
# Velocity S-wave (km/s) = 2.96365 3.54529 3.26744
# Velocity P-wave (km/s) = 5.51140 5.96879 5.74465
#
# Compressibility (1/GPa) = 0.02164040
#
# Stress axis : x y z
#
# Youngs Moduli (GPa) = 105.73747 105.73747 106.77121
#
# Poissons Ratio (x) = -0.01963 0.18716
# Poissons Ratio (y) = -0.01963 0.18716
# Poissons Ratio (z) = 0.18535 0.18535
#
# Static dielectric constant tensor:
#      x y z
#    x 1.988950 0.000000 0.000000 
#    y 0.000000 1.988950 0.000000 
#    z 0.000000 0.000000 1.958050 
# 
# From -- ./inp_files/3499.got.cif
#   From: 2010.05.17/outbox.cif.g08.bks.cpg/sg130_2_cif.got.tgz:3499.got - 2010.05.20 12:17:35.
