data_PCOD9565275
_publ_section_title
;
Structure prediction by ZEFSAII (Michael W. Deem and Ramdas Pophale) SiO2 
 PCOD9565275
Probable space group: P 4/N M M
;
_chemical_formula_sum "Si O2"
_cell_formula_units_Z 96
_cell_length_a 24.114503
_cell_length_b 24.114503
_cell_length_c 10.302620
_cell_angle_alpha 90.000000
_cell_angle_beta 90.000000
_cell_angle_gamma 90.000000
_cell_volume 5991.068880
_symmetry_space_group_name_H-M "P 4/N M M"
_symmetry_group_IT_number 129
_symmetry_cell_setting 'tetragonal'
loop_
_space_group_symop_operation_xyz
x,y,z
1/2-y,x,z
1/2-x,1/2-y,z
y,1/2-x,z
1/2+x,-y,-z
-x,1/2+y,-z
1/2+y,1/2+x,-z
-y,-x,-z
-x,-y,-z
1/2+y,-x,-z
1/2+x,1/2+y,-z
-y,1/2+x,-z
1/2-x,y,z
x,1/2-y,z
1/2-y,1/2-x,z
y,x,z
loop_
_atom_site_type_symbol
_atom_site_label
_atom_site_fract_x
_atom_site_fract_y
_atom_site_fract_z
Si Si1 0.685022 0.115625 0.243968
Si Si2 0.405514 0.184819 0.204960
Si Si3 0.515808 0.814168 0.256888
Si Si4 0.893221 0.393221 0.000000
Si Si5 0.024932 0.384119 0.998321
Si Si6 0.684405 0.184405 0.500000
Si Si7 0.906046 0.814512 0.496870
O O1 0.750000 0.128091 0.212429
O O2 0.669146 0.150610 0.370980
O O3 0.681789 0.050200 0.275098
O O4 0.644191 0.124402 0.122781
O O5 0.401407 0.250000 0.178002
O O6 0.346455 0.153546 0.195056
O O7 0.446255 0.154242 0.106288
O O8 0.424875 0.177317 0.354237
O O9 0.528081 0.750000 0.220070
O O10 0.547307 0.826298 0.390375
O O11 0.533058 0.855076 0.141555
O O12 0.886066 0.459126 0.977562
O O13 0.056938 0.443063 0.000849
O O14 0.675525 0.250000 0.477327
O O15 0.890100 0.750000 0.484873
O O16 0.854234 0.854234 0.473497
#
# Coordination Sequence:
#
# PCOD9565275 Si02
#       7
#    16  16  16   8  16   8  16
#     4   9  19  34  50  71  96 121 151 188 232 279
#     4   9  18  31  48  71  98 128 162 200 240 284
#     4   9  17  30  48  68  91 120 156 196 234 278
#     4  10  21  34  50  73  98 124 158 200 240 283
#     4  10  19  32  49  68  94 127 162 199 241 286
#     4   9  18  34  54  74  97 122 146 176 221 278
#     4   9  17  29  45  67  94 124 159 197 238 282
#
# _framework density 16.023852000000002
#
# number of rings (size 3 to 8) (size 9 to 14) (size 15 to 20)
#    0.000    2.750    0.000    1.250    0.000    3.000 
#    0.000    3.333    0.000    0.000    0.000   14.000 
#    0.000    0.000    0.000    0.000    0.000    0.000 
#
# Total GULP energy -534850.291322 kJ/mol
# GULP energy per Si atom -5571.357201 kJ/mol
# Density = 1.598738 g / cm^3
# Si number density = 16.023852 Si / 1000 Ang^3
#
#
#
# Elastic Constant Matrix: (Units=GPa)
#
#
# Indices 1 2 3 4 5 6 
#
# 1 68.6909 56.6303 76.4908 0.0000 0.0000 0.0000
# 2 56.6303 68.6909 76.4908 0.0000 0.0000 0.0000
# 3 76.4908 76.4908 129.1522 0.0000 0.0000 0.0000
# 4 0.0000 0.0000 0.0000 29.1714 0.0000 0.0000
# 5 0.0000 0.0000 0.0000 0.0000 29.1714 0.0000
# 6 0.0000 0.0000 0.0000 0.0000 0.0000 18.4232
#
#
#
# Elastic Compliance Matrix: (Units=1/GPa)
#
#
# Indices 1 2 3 4 5 6 
#
# 1 0.055860 -0.027055 -0.017059 0.000000 0.000000 0.000000
# 2 -0.027055 0.055860 -0.017059 0.000000 0.000000 0.000000
# 3 -0.017059 -0.017059 0.027950 0.000000 0.000000 0.000000
# 4 0.000000 0.000000 0.000000 0.034280 0.000000 0.000000
# 5 0.000000 0.000000 0.000000 0.000000 0.034280 0.000000
# 6 0.000000 0.000000 0.000000 0.000000 0.000000 0.054279
#
#
# Mechanical properties :
#
#
# Convention : Reuss Voigt Hill
#
# Bulk Modulus (GPa) = 57.73479 76.19534 66.96506
# Shear Modulus (GPa) = 12.79983 19.14800 15.97392
#
# Velocity S-wave (km/s) = 2.82937 3.46058 3.16077
# Velocity P-wave (km/s) = 6.83977 7.97634 7.42982
#
# Compressibility (1/GPa) = 0.01732058
#
# Stress axis : x y z
#
# Youngs Moduli (GPa) = 17.90204 17.90204 35.77860
#
# Poissons Ratio (x) = 0.48435 0.61036
# Poissons Ratio (y) = 0.48435 0.61036
# Poissons Ratio (z) = 0.30540 0.30540
#
# Static dielectric constant tensor:
#      x y z
#    x 1.524150 0.000000 0.000000 
#    y 0.000000 1.524150 0.000000 
#    z 0.000000 0.000000 1.519990 
# 
# From -- ./inp_files/2704.got.cif
#   From: 2010.05.17/outbox.cif.g08.bks.cpg/sg129_2_cif.got.tgz:2704.got - 2010.05.20 12:12:06.
