data_PCOD9565041
_publ_section_title
;
Structure prediction by ZEFSAII (Michael W. Deem and Ramdas Pophale) SiO2 
 PCOD9565041
Probable space group: P 4/M N C
;
_chemical_formula_sum "Si O2"
_cell_formula_units_Z 64
_cell_length_a 12.581974
_cell_length_b 12.581974
_cell_length_c 18.257450
_cell_angle_alpha 90.000000
_cell_angle_beta 90.000000
_cell_angle_gamma 90.000000
_cell_volume 2890.265153
_symmetry_space_group_name_H-M "P 4/M N C"
_symmetry_group_IT_number 128
_symmetry_cell_setting 'tetragonal'
loop_
_space_group_symop_operation_xyz
x,y,z
-y,x,z
-x,-y,z
y,-x,z
1/2+x,1/2-y,1/2-z
1/2-x,1/2+y,1/2-z
1/2+y,1/2+x,1/2-z
1/2-y,1/2-x,1/2-z
-x,-y,-z
y,-x,-z
x,y,-z
-y,x,-z
1/2-x,1/2+y,1/2+z
1/2+x,1/2-y,1/2+z
1/2-y,1/2-x,1/2+z
1/2+y,1/2+x,1/2+z
loop_
_atom_site_type_symbol
_atom_site_label
_atom_site_fract_x
_atom_site_fract_y
_atom_site_fract_z
Si Si1 0.824995 0.510469 0.087246
Si Si2 0.287275 0.921292 0.849416
Si Si3 0.171420 0.962417 0.707331
Si Si4 0.643194 0.761841 0.586767
O O1 0.908099 0.592523 0.122794
O O2 0.714232 0.542751 0.124994
O O3 0.840974 0.386418 0.104963
O O4 0.827238 0.523667 0.000000
O O5 0.266599 0.942179 0.763956
O O6 0.224200 0.814985 0.871834
O O7 0.236768 0.022283 0.890942
O O8 0.078159 0.878488 0.720494
O O9 0.658880 0.748919 0.500000
#
# Coordination Sequence:
#
# PCOD9565041 Si02
#       4
#    16  16  16  16
#     4  11  25  44  68 100 139 187 238 287 344 414
#     4  12  23  44  69 100 143 180 230 293 352 414
#     4  11  24  44  69 101 141 183 230 289 348 415
#     4  11  24  42  70 104 141 185 233 287 348 416
#
# _framework density 22.143297
#
# number of rings (size 3 to 8) (size 9 to 14) (size 15 to 20)
#    0.000    0.750    2.500    5.250    0.000    6.500 
#    0.000    5.000    0.000    0.000    0.000    0.000 
#    0.000    0.000    0.000    0.000    0.000    0.000 
#
# Total GULP energy -358163.029714 kJ/mol
# GULP energy per Si atom -5596.297339 kJ/mol
# Density = 2.209290 g / cm^3
# Si number density = 22.143297 Si / 1000 Ang^3
#
#
#
# Elastic Constant Matrix: (Units=GPa)
#
#
# Indices 1 2 3 4 5 6 
#
# 1 111.3454 39.9659 39.2091 0.0000 0.0000 0.0000
# 2 39.9659 111.3454 39.2091 0.0000 0.0000 0.0000
# 3 39.2091 39.2091 60.5796 0.0000 0.0000 0.0000
# 4 0.0000 0.0000 0.0000 33.9973 0.0000 0.0000
# 5 0.0000 0.0000 0.0000 0.0000 33.9973 0.0000
# 6 0.0000 0.0000 0.0000 0.0000 0.0000 28.2224
#
#
#
# Elastic Compliance Matrix: (Units=1/GPa)
#
#
# Indices 1 2 3 4 5 6 
#
# 1 0.011977 -0.002032 -0.006437 0.000000 0.000000 0.000000
# 2 -0.002032 0.011977 -0.006437 0.000000 0.000000 0.000000
# 3 -0.006437 -0.006437 0.024839 0.000000 0.000000 0.000000
# 4 0.000000 0.000000 0.000000 0.029414 0.000000 0.000000
# 5 0.000000 0.000000 0.000000 0.000000 0.029414 0.000000
# 6 0.000000 0.000000 0.000000 0.000000 0.000000 0.035433
#
#
# Mechanical properties :
#
#
# Convention : Reuss Voigt Hill
#
# Bulk Modulus (GPa) = 52.68061 57.78208 55.23135
# Shear Modulus (GPa) = 27.90290 30.23582 29.06936
#
# Velocity S-wave (km/s) = 3.55365 3.69922 3.62717
# Velocity P-wave (km/s) = 6.37811 6.66310 6.52216
#
# Compressibility (1/GPa) = 0.01898232
#
# Stress axis : x y z
#
# Youngs Moduli (GPa) = 83.49232 83.49232 40.25919
#
# Poissons Ratio (x) = 0.16970 0.25913
# Poissons Ratio (y) = 0.16970 0.25913
# Poissons Ratio (z) = 0.53740 0.53740
#
# Static dielectric constant tensor:
#      x y z
#    x 1.811920 0.000000 0.000000 
#    y 0.000000 1.811920 0.000000 
#    z 0.000000 0.000000 1.784140 
# 
# From -- ./inp_files/5401.got.cif
#   From: 2010.05.17/outbox.cif.g08.bks.cpg/sg128_3_cif.got.tgz:5401.got - 2010.05.20 12:07:25.
