data_PCOD9565906
_publ_section_title
;
Structure prediction by ZEFSAII (Michael W. Deem and Ramdas Pophale) SiO2 
 PCOD9565906
Probable space group: P 4/N C C
;
_chemical_formula_sum "Si O2"
_cell_formula_units_Z 112
_cell_length_a 14.985324
_cell_length_b 14.985324
_cell_length_c 28.166043
_cell_angle_alpha 90.000000
_cell_angle_beta 90.000000
_cell_angle_gamma 90.000000
_cell_volume 6324.964796
_symmetry_space_group_name_H-M "P 4/N C C"
_symmetry_group_IT_number 130
_symmetry_cell_setting 'tetragonal'
loop_
_space_group_symop_operation_xyz
x,y,z
1/2-y,x,z
1/2-x,1/2-y,z
y,1/2-x,z
1/2+x,-y,1/2-z
-x,1/2+y,1/2-z
1/2+y,1/2+x,1/2-z
-y,-x,1/2-z
-x,-y,-z
1/2+y,-x,-z
1/2+x,1/2+y,-z
-y,1/2+x,-z
1/2-x,y,1/2+z
x,1/2-y,1/2+z
1/2-y,1/2-x,1/2+z
y,x,1/2+z
loop_
_atom_site_type_symbol
_atom_site_label
_atom_site_fract_x
_atom_site_fract_y
_atom_site_fract_z
Si Si1 0.997339 0.736025 0.844660
Si Si2 0.256817 0.485041 0.348801
Si Si3 0.065001 0.420855 0.902906
Si Si4 0.431057 0.088968 0.603233
Si Si5 0.735709 0.896441 0.751886
Si Si6 0.643377 0.643182 0.499150
Si Si7 0.670113 0.179577 0.305413
O O1 0.979022 0.821642 0.877516
O O2 0.937470 0.653937 0.864057
O O3 0.970892 0.766891 0.791764
O O4 0.097042 0.700374 0.838083
O O5 0.345456 0.446342 0.373792
O O6 0.171458 0.475538 0.382722
O O7 0.234268 0.429995 0.301501
O O8 0.277218 0.583766 0.329677
O O9 0.992432 0.499030 0.897520
O O10 0.094717 0.404250 0.957003
O O11 0.393712 0.108247 0.550774
O O12 0.656440 0.827391 0.759344
O O13 0.750124 0.628519 0.502083
O O14 0.750000 0.250000 0.303902
O O15 0.651885 0.151885 0.250000
#
# Coordination Sequence:
#
# PCOD9565906 Si02
#       7
#    16  16  16  16  16  16  16
#     4  12  23  40  64  94 125 172 215 257 320 379
#     4  12  23  40  64  94 125 172 215 257 320 379
#     4  12  25  42  66  92 129 168 211 265 324 385
#     4  12  25  42  66  92 129 168 211 265 324 385
#     4  11  22  35  58  93 131 162 206 263 317 378
#     4  11  23  42  70  96 121 157 210 270 328 388
#     4  11  24  42  62  89 134 177 217 262 305 371
#
# _framework density 17.707609000000001
#
# number of rings (size 3 to 8) (size 9 to 14) (size 15 to 20)
#    0.000    0.429    8.571    1.286    0.000    0.571 
#    0.000    1.429    0.000    0.000    0.000    2.000 
#    0.000    0.000    0.000    0.000    0.000    0.000 
#
# Total GULP energy -625669.627981 kJ/mol
# GULP energy per Si atom -5586.335964 kJ/mol
# Density = 1.766731 g / cm^3
# Si number density = 17.707609 Si / 1000 Ang^3
#
#
#
# Elastic Constant Matrix: (Units=GPa)
#
#
# Indices 1 2 3 4 5 6 
#
# 1 78.6442 23.5977 29.1128 0.0000 0.0000 0.0000
# 2 23.5977 78.6442 29.1128 0.0000 0.0000 0.0000
# 3 29.1128 29.1128 107.9051 0.0000 0.0000 0.0000
# 4 0.0000 0.0000 0.0000 33.4277 0.0000 0.0000
# 5 0.0000 0.0000 0.0000 0.0000 33.4277 0.0000
# 6 0.0000 0.0000 0.0000 0.0000 0.0000 41.9389
#
#
#
# Elastic Compliance Matrix: (Units=1/GPa)
#
#
# Indices 1 2 3 4 5 6 
#
# 1 0.014861 -0.003305 -0.003118 0.000000 0.000000 0.000000
# 2 -0.003305 0.014861 -0.003118 0.000000 0.000000 0.000000
# 3 -0.003118 -0.003118 0.010950 0.000000 0.000000 0.000000
# 4 0.000000 0.000000 0.000000 0.029915 0.000000 0.000000
# 5 0.000000 0.000000 0.000000 0.000000 0.029915 0.000000
# 6 0.000000 0.000000 0.000000 0.000000 0.000000 0.023844
#
#
# Mechanical properties :
#
#
# Convention : Reuss Voigt Hill
#
# Bulk Modulus (GPa) = 46.31586 47.64893 46.98240
# Shear Modulus (GPa) = 33.19477 33.98354 33.58915
#
# Velocity S-wave (km/s) = 4.33437 4.38556 4.36004
# Velocity P-wave (km/s) = 7.15973 7.25337 7.20670
#
# Compressibility (1/GPa) = 0.02159088
#
# Stress axis : x y z
#
# Youngs Moduli (GPa) = 67.28845 67.28845 91.32566
#
# Poissons Ratio (x) = 0.22239 0.28474
# Poissons Ratio (y) = 0.22239 0.28474
# Poissons Ratio (z) = 0.20980 0.20980
#
# Static dielectric constant tensor:
#      x y z
#    x 1.590270 0.000000 0.000000 
#    y 0.000000 1.590270 0.000000 
#    z 0.000000 0.000000 1.582250 
# 
# From -- ./inp_files/4617.got.cif
#   From: 2010.05.17/outbox.cif.g08.bks.cpg/sg130_3_cif.got.tgz:4617.got - 2010.05.20 12:17:35.
