data_PCOD9565009
_publ_section_title
;
Structure prediction by ZEFSAII (Michael W. Deem and Ramdas Pophale) SiO2 
 PCOD9565009
Probable space group: P 4/M N C
;
_chemical_formula_sum "Si O2"
_cell_formula_units_Z 112
_cell_length_a 15.133360
_cell_length_b 15.133360
_cell_length_c 21.857510
_cell_angle_alpha 90.000000
_cell_angle_beta 90.000000
_cell_angle_gamma 90.000000
_cell_volume 5005.776009
_symmetry_space_group_name_H-M "P 4/M N C"
_symmetry_group_IT_number 128
_symmetry_cell_setting 'tetragonal'
loop_
_space_group_symop_operation_xyz
x,y,z
-y,x,z
-x,-y,z
y,-x,z
1/2+x,1/2-y,1/2-z
1/2-x,1/2+y,1/2-z
1/2+y,1/2+x,1/2-z
1/2-y,1/2-x,1/2-z
-x,-y,-z
y,-x,-z
x,y,-z
-y,x,-z
1/2-x,1/2+y,1/2+z
1/2+x,1/2-y,1/2+z
1/2-y,1/2-x,1/2+z
1/2+y,1/2+x,1/2+z
loop_
_atom_site_type_symbol
_atom_site_label
_atom_site_fract_x
_atom_site_fract_y
_atom_site_fract_z
Si Si1 0.682562 0.611299 0.106482
Si Si2 0.613131 0.873698 0.321459
Si Si3 0.229762 0.792028 0.155976
Si Si4 0.900333 0.897083 0.073602
Si Si5 0.271575 0.056915 0.566970
Si Si6 0.640056 0.514773 0.227381
Si Si7 0.051055 0.317255 0.220155
O O1 0.752053 0.675493 0.139365
O O2 0.737539 0.543336 0.066205
O O3 0.616411 0.682861 0.077105
O O4 0.637558 0.546443 0.156316
O O5 0.597192 0.902809 0.250000
O O6 0.672450 0.786701 0.317478
O O7 0.660652 0.927644 0.376113
O O8 0.511820 0.846841 0.335308
O O9 0.173596 0.833324 0.100754
O O10 0.252026 0.871014 0.200364
O O11 0.001997 0.878836 0.092920
O O12 0.898165 0.895130 0.000000
O O13 0.309339 0.080614 0.500000
O O14 0.574330 0.592480 0.250836
O O15 0.744616 0.500667 0.238286
O O16 0.099209 0.400792 0.250000
#
# Coordination Sequence:
#
# PCOD9565009 Si02
#       7
#    16  16  16  16  16  16  16
#     4  11  22  40  66  98 135 178 233 280 348 420
#     4  11  26  45  67  97 137 179 228 290 350 412
#     4  11  23  38  65  96 131 176 226 282 346 414
#     4   9  19  38  64  94 130 173 226 291 353 410
#     4  11  25  45  71 101 140 186 232 290 355 421
#     4  11  22  39  66 102 142 181 225 292 357 420
#     4  12  24  40  66  99 133 182 234 283 351 419
#
# _framework density 22.374153
#
# number of rings (size 3 to 8) (size 9 to 14) (size 15 to 20)
#    0.000    1.143    2.857    3.857    4.000    3.429 
#    0.000    2.857    0.000    0.857    0.000    0.000 
#    0.000    0.000    0.000    0.000    0.000    0.000 
#
# Total GULP energy -624347.936964 kJ/mol
# GULP energy per Si atom -5574.535151 kJ/mol
# Density = 2.232323 g / cm^3
# Si number density = 22.374153 Si / 1000 Ang^3
#
#
#
# Elastic Constant Matrix: (Units=GPa)
#
#
# Indices 1 2 3 4 5 6 
#
# 1 98.2126 35.6283 34.4913 0.0000 0.0000 0.0000
# 2 35.6283 98.2131 34.4914 0.0000 0.0000 0.0000
# 3 34.4913 34.4914 73.0207 0.0000 0.0000 0.0000
# 4 0.0000 0.0000 0.0000 18.9546 0.0000 0.0000
# 5 0.0000 0.0000 0.0000 0.0000 18.9537 0.0000
# 6 0.0000 0.0000 0.0000 0.0000 0.0000 15.0357
#
#
#
# Elastic Compliance Matrix: (Units=1/GPa)
#
#
# Indices 1 2 3 4 5 6 
#
# 1 0.012927 -0.003051 -0.004665 0.000000 0.000000 0.000000
# 2 -0.003051 0.012927 -0.004665 0.000000 0.000000 0.000000
# 3 -0.004665 -0.004665 0.018102 0.000000 0.000000 0.000000
# 4 0.000000 0.000000 0.000000 0.052758 0.000000 0.000000
# 5 0.000000 0.000000 0.000000 0.000000 0.052760 0.000000
# 6 0.000000 0.000000 0.000000 0.000000 0.000000 0.066508
#
#
# Mechanical properties :
#
#
# Convention : Reuss Voigt Hill
#
# Bulk Modulus (GPa) = 52.09991 53.18539 52.64265
# Shear Modulus (GPa) = 20.23130 21.57783 20.90456
#
# Velocity S-wave (km/s) = 3.01030 3.10886 3.05998
# Velocity P-wave (km/s) = 5.95137 6.05881 6.00533
#
# Compressibility (1/GPa) = 0.01919389
#
# Stress axis : x y z
#
# Youngs Moduli (GPa) = 77.35661 77.35695 55.24364
#
# Poissons Ratio (x) = 0.23604 0.25770
# Poissons Ratio (y) = 0.23604 0.25770
# Poissons Ratio (z) = 0.36086 0.36086
#
# Static dielectric constant tensor:
#      x y z
#    x 2.009990 0.000000 0.000000 
#    y 0.000000 2.009950 0.000000 
#    z 0.000000 0.000000 1.955860 
# 
# From -- ./inp_files/6452.got.cif
#   From: 2010.05.17/outbox.cif.g08.bks.cpg/sg128_4_cif.got.tgz:6452.got - 2010.05.20 12:07:25.
