data_PCOD9565888
_publ_section_title
;
Structure prediction by ZEFSAII (Michael W. Deem and Ramdas Pophale) SiO2 
 PCOD9565888
Probable space group: P 4/N C C
;
_chemical_formula_sum "Si O2"
_cell_formula_units_Z 96
_cell_length_a 22.297558
_cell_length_b 22.297558
_cell_length_c 10.405585
_cell_angle_alpha 90.000000
_cell_angle_beta 90.000000
_cell_angle_gamma 90.000000
_cell_volume 5173.460121
_symmetry_space_group_name_H-M "P 4/N C C"
_symmetry_group_IT_number 130
_symmetry_cell_setting 'tetragonal'
loop_
_space_group_symop_operation_xyz
x,y,z
1/2-y,x,z
1/2-x,1/2-y,z
y,1/2-x,z
1/2+x,-y,1/2-z
-x,1/2+y,1/2-z
1/2+y,1/2+x,1/2-z
-y,-x,1/2-z
-x,-y,-z
1/2+y,-x,-z
1/2+x,1/2+y,-z
-y,1/2+x,-z
1/2-x,y,1/2+z
x,1/2-y,1/2+z
1/2-y,1/2-x,1/2+z
y,x,1/2+z
loop_
_atom_site_type_symbol
_atom_site_label
_atom_site_fract_x
_atom_site_fract_y
_atom_site_fract_z
Si Si1 0.976654 0.810631 0.899455
Si Si2 0.896614 0.640114 0.923201
Si Si3 0.654360 0.724706 0.233207
Si Si4 0.492672 0.928441 0.861583
Si Si5 0.951624 0.073713 0.107244
Si Si6 0.221717 0.048274 0.888835
O O1 0.912774 0.847496 0.913220
O O2 0.980503 0.791429 0.749544
O O3 0.025910 0.860741 0.930718
O O4 0.984828 0.753540 0.992596
O O5 0.869667 0.702542 0.870290
O O6 0.954931 0.620228 0.840172
O O7 0.922395 0.659097 0.061656
O O8 0.709577 0.680997 0.214972
O O9 0.598280 0.727379 0.141312
O O10 0.445946 0.945946 0.750000
O O11 0.532081 0.988861 0.881528
O O12 0.457336 0.914511 0.993319
O O13 0.924687 0.075314 0.250000
#
# Coordination Sequence:
#
# PCOD9565888 Si02
#       6
#    16  16  16  16  16  16
#     4  11  24  34  56  72 104 138 180 231 277 325
#     4  11  21  37  54  72 101 135 181 235 285 321
#     4  11  22  36  49  68  98 140 189 236 273 309
#     4   9  19  31  55  77  95 123 167 227 285 338
#     4   9  18  35  49  76  98 124 166 221 282 332
#     4  12  22  37  50  75  98 144 181 227 277 323
#
# _framework density 18.556245000000001
#
# number of rings (size 3 to 8) (size 9 to 14) (size 15 to 20)
#    0.000    1.500    3.333    2.000    2.333    2.667 
#    0.000    1.667    0.000    0.000    0.000    0.000 
#    0.000    0.000    0.000    0.000    0.000   47.500 
#
# Total GULP energy -534545.373657 kJ/mol
# GULP energy per Si atom -5568.180976 kJ/mol
# Density = 1.851401 g / cm^3
# Si number density = 18.556245 Si / 1000 Ang^3
#
#
#
# Elastic Constant Matrix: (Units=GPa)
#
#
# Indices 1 2 3 4 5 6 
#
# 1 29.6259 10.8646 1.8949 0.0000 0.0000 0.0000
# 2 10.8646 29.6258 1.8951 0.0000 0.0000 0.0000
# 3 1.8949 1.8951 61.4784 0.0000 0.0000 0.0000
# 4 0.0000 0.0000 0.0000 18.6610 0.0000 0.0000
# 5 0.0000 0.0000 0.0000 0.0000 18.6609 0.0000
# 6 0.0000 0.0000 0.0000 0.0000 0.0000 22.6612
#
#
#
# Elastic Compliance Matrix: (Units=1/GPa)
#
#
# Indices 1 2 3 4 5 6 
#
# 1 0.039035 -0.014266 -0.000763 0.000000 0.000000 0.000000
# 2 -0.014266 0.039035 -0.000764 0.000000 0.000000 0.000000
# 3 -0.000763 -0.000764 0.016313 0.000000 0.000000 0.000000
# 4 0.000000 0.000000 0.000000 0.053588 0.000000 0.000000
# 5 0.000000 0.000000 0.000000 0.000000 0.053588 0.000000
# 6 0.000000 0.000000 0.000000 0.000000 0.000000 0.044128
#
#
# Mechanical properties :
#
#
# Convention : Reuss Voigt Hill
#
# Bulk Modulus (GPa) = 15.92448 16.67103 16.29775
# Shear Modulus (GPa) = 16.76696 19.06832 17.91764
#
# Velocity S-wave (km/s) = 3.00921 3.20909 3.11076
# Velocity P-wave (km/s) = 4.54689 4.76808 4.65880
#
# Compressibility (1/GPa) = 0.06279640
#
# Stress axis : x y z
#
# Youngs Moduli (GPa) = 25.61808 25.61805 61.30103
#
# Poissons Ratio (x) = 0.36547 0.04680
# Poissons Ratio (y) = 0.36547 0.04681
# Poissons Ratio (z) = 0.01956 0.01956
#
# Static dielectric constant tensor:
#      x y z
#    x 1.678520 0.000000 0.000000 
#    y 0.000000 1.678520 0.000000 
#    z 0.000000 0.000000 1.714640 
# 
# From -- ./inp_files/898.got.cif
#   From: 2010.05.17/outbox.cif.g08.bks.cpg/sg130_1_cif.got.tgz:898.got - 2010.05.20 12:17:35.
