data_PCOD9565063
_publ_section_title
;
Structure prediction by ZEFSAII (Michael W. Deem and Ramdas Pophale) SiO2 
 PCOD9565063
Probable space group: P 4/M N C
;
_chemical_formula_sum "Si O2"
_cell_formula_units_Z 64
_cell_length_a 9.860215
_cell_length_b 9.860215
_cell_length_c 28.352719
_cell_angle_alpha 90.000000
_cell_angle_beta 90.000000
_cell_angle_gamma 90.000000
_cell_volume 2756.560211
_symmetry_space_group_name_H-M "P 4/M N C"
_symmetry_group_IT_number 128
_symmetry_cell_setting 'tetragonal'
loop_
_space_group_symop_operation_xyz
x,y,z
-y,x,z
-x,-y,z
y,-x,z
1/2+x,1/2-y,1/2-z
1/2-x,1/2+y,1/2-z
1/2+y,1/2+x,1/2-z
1/2-y,1/2-x,1/2-z
-x,-y,-z
y,-x,-z
x,y,-z
-y,x,-z
1/2-x,1/2+y,1/2+z
1/2+x,1/2-y,1/2+z
1/2-y,1/2-x,1/2+z
1/2+y,1/2+x,1/2+z
loop_
_atom_site_type_symbol
_atom_site_label
_atom_site_fract_x
_atom_site_fract_y
_atom_site_fract_z
Si Si1 0.366313 0.059213 0.631119
Si Si2 0.056433 0.221439 0.449128
Si Si3 0.103259 0.798322 0.721474
Si Si4 0.279224 0.558434 0.446849
O O1 0.311761 0.940796 0.596785
O O2 0.251747 0.105900 0.667270
O O3 0.410036 0.176902 0.595056
O O4 0.500000 0.000000 0.656480
O O5 0.074948 0.289806 0.500000
O O6 0.155844 0.093915 0.447727
O O7 0.181390 0.681390 0.750000
O O8 0.942946 0.823748 0.730847
O O9 0.341165 0.407915 0.443579
O O10 0.221757 0.575765 0.500000
#
# Coordination Sequence:
#
# PCOD9565063 Si02
#       4
#    16  16  16  16
#     4  12  26  38  67 105 139 180 238 302 366 446
#     4   9  19  37  60  89 134 188 236 289 358 430
#     4  11  29  54  84 113 149 191 242 312 388 470
#     4   9  21  41  61  90 140 197 247 298 355 420
#
# _framework density 23.21734
#
# number of rings (size 3 to 8) (size 9 to 14) (size 15 to 20)
#    0.000    1.750    0.000    3.750   10.500    4.000 
#    0.000    2.500    0.000    0.000    0.000    0.000 
#    0.000    0.000    0.000    0.000    0.000    0.000 
#
# Total GULP energy -358034.624955 kJ/mol
# GULP energy per Si atom -5594.291015 kJ/mol
# Density = 2.316450 g / cm^3
# Si number density = 23.217340 Si / 1000 Ang^3
#
#
#
# Elastic Constant Matrix: (Units=GPa)
#
#
# Indices 1 2 3 4 5 6 
#
# 1 113.5111 50.6563 37.0090 0.0000 0.0000 0.0000
# 2 50.6563 113.5111 37.0090 0.0000 0.0000 0.0000
# 3 37.0090 37.0090 88.2759 0.0000 0.0000 0.0000
# 4 0.0000 0.0000 0.0000 31.5219 0.0000 0.0000
# 5 0.0000 0.0000 0.0000 0.0000 31.5219 0.0000
# 6 0.0000 0.0000 0.0000 0.0000 0.0000 39.4274
#
#
#
# Elastic Compliance Matrix: (Units=1/GPa)
#
#
# Indices 1 2 3 4 5 6 
#
# 1 0.011710 -0.004199 -0.003149 0.000000 0.000000 0.000000
# 2 -0.004199 0.011710 -0.003149 0.000000 0.000000 0.000000
# 3 -0.003149 -0.003149 0.013968 0.000000 0.000000 0.000000
# 4 0.000000 0.000000 0.000000 0.031724 0.000000 0.000000
# 5 0.000000 0.000000 0.000000 0.000000 0.031724 0.000000
# 6 0.000000 0.000000 0.000000 0.000000 0.000000 0.025363
#
#
# Mechanical properties :
#
#
# Convention : Reuss Voigt Hill
#
# Bulk Modulus (GPa) = 60.99493 62.73855 61.86674
# Shear Modulus (GPa) = 32.75256 33.20248 32.97752
#
# Velocity S-wave (km/s) = 3.76000 3.78573 3.77289
# Velocity P-wave (km/s) = 6.72149 6.79632 6.75901
#
# Compressibility (1/GPa) = 0.01639480
#
# Stress axis : x y z
#
# Youngs Moduli (GPa) = 85.39410 85.39410 71.58969
#
# Poissons Ratio (x) = 0.35859 0.22543
# Poissons Ratio (y) = 0.35859 0.22543
# Poissons Ratio (z) = 0.26890 0.26890
#
# Static dielectric constant tensor:
#      x y z
#    x 1.906500 0.000000 0.000000 
#    y 0.000000 1.906500 0.000000 
#    z 0.000000 0.000000 1.838290 
# 
# From -- ./inp_files/6711.got.cif
#   From: 2010.05.17/outbox.cif.g08.bks.cpg/sg128_4_cif.got.tgz:6711.got - 2010.05.20 12:07:25.
