data_PCOD9565396
_publ_section_title
;
Structure prediction by ZEFSAII (Michael W. Deem and Ramdas Pophale) SiO2 
 PCOD9565396
Probable space group: P 4/N M M
;
_chemical_formula_sum "Si O2"
_cell_formula_units_Z 120
_cell_length_a 20.860858
_cell_length_b 20.860858
_cell_length_c 14.886933
_cell_angle_alpha 90.000000
_cell_angle_beta 90.000000
_cell_angle_gamma 90.000000
_cell_volume 6478.426971
_symmetry_space_group_name_H-M "P 4/N M M"
_symmetry_group_IT_number 129
_symmetry_cell_setting 'tetragonal'
loop_
_space_group_symop_operation_xyz
x,y,z
1/2-y,x,z
1/2-x,1/2-y,z
y,1/2-x,z
1/2+x,-y,-z
-x,1/2+y,-z
1/2+y,1/2+x,-z
-y,-x,-z
-x,-y,-z
1/2+y,-x,-z
1/2+x,1/2+y,-z
-y,1/2+x,-z
1/2-x,y,z
x,1/2-y,z
1/2-y,1/2-x,z
y,x,z
loop_
_atom_site_type_symbol
_atom_site_label
_atom_site_fract_x
_atom_site_fract_y
_atom_site_fract_z
Si Si1 0.674094 0.569888 0.902714
Si Si2 0.993808 0.099651 0.947665
Si Si3 0.645158 0.322061 0.300717
Si Si4 0.325808 0.435955 0.622711
Si Si5 0.104087 0.503944 0.467213
Si Si6 0.823219 0.498869 0.719256
Si Si7 0.823425 0.323425 0.500000
Si Si8 0.041280 0.822264 0.224098
O O1 0.750000 0.577682 0.905904
O O2 0.635991 0.635991 0.912214
O O3 0.656884 0.539417 0.805706
O O4 0.650130 0.523995 0.982540
O O5 0.964461 0.131310 0.859916
O O6 0.941078 0.058923 0.000000
O O7 0.050690 0.050690 0.921785
O O8 0.673878 0.250000 0.287720
O O9 0.575792 0.320880 0.255023
O O10 0.636697 0.328877 0.408844
O O11 0.676587 0.387526 0.266933
O O12 0.250000 0.418035 0.624418
O O13 0.374862 0.374862 0.625486
O O14 0.341196 0.479292 0.535087
O O15 0.338882 0.485714 0.704068
O O16 0.069574 0.569574 0.500000
O O17 0.130531 0.499606 0.366323
O O18 0.048677 0.451324 0.475248
O O19 0.750000 0.517660 0.693766
O O20 0.831758 0.250000 0.532013
O O21 0.028207 0.750000 0.193556
#
# Coordination Sequence:
#
# PCOD9565396 Si02
#       8
#    16  16  16  16  16  16   8  16
#     4  10  21  38  60  85 114 146 186 240 300 361
#     4  10  21  38  61  86 111 143 182 229 286 348
#     4  10  21  34  52  79 114 155 195 235 282 342
#     4  10  22  38  57  83 115 154 200 249 300 356
#     4  10  20  33  51  77 110 146 186 236 292 350
#     4  10  20  33  52  77 107 144 184 231 283 340
#     4   9  18  32  48  70 105 148 192 234 277 332
#     4  11  22  36  58  83 112 149 189 236 284 341
#
# _framework density 18.523015000000001
#
# number of rings (size 3 to 8) (size 9 to 14) (size 15 to 20)
#    0.000    1.933    0.000    3.600    2.800    1.067 
#    0.000    6.000    0.000    0.000    0.000    3.733 
#    0.000    0.000    0.000    0.000    0.000    0.000 
#
# Total GULP energy -669118.873130 kJ/mol
# GULP energy per Si atom -5575.990609 kJ/mol
# Density = 1.848086 g / cm^3
# Si number density = 18.523015 Si / 1000 Ang^3
#
#
#
# Elastic Constant Matrix: (Units=GPa)
#
#
# Indices 1 2 3 4 5 6 
#
# 1 87.5787 46.2967 40.9859 0.0000 0.0000 0.0000
# 2 46.2967 87.5801 40.9873 0.0000 0.0000 0.0000
# 3 40.9859 40.9873 82.0850 0.0000 0.0000 0.0000
# 4 0.0000 0.0000 0.0000 23.2804 0.0000 0.0000
# 5 0.0000 0.0000 0.0000 0.0000 23.2819 0.0000
# 6 0.0000 0.0000 0.0000 0.0000 0.0000 11.9924
#
#
#
# Elastic Compliance Matrix: (Units=1/GPa)
#
#
# Indices 1 2 3 4 5 6 
#
# 1 0.017491 -0.006732 -0.005372 0.000000 0.000000 0.000000
# 2 -0.006732 0.017491 -0.005372 0.000000 0.000000 0.000000
# 3 -0.005372 -0.005372 0.017547 0.000000 0.000000 0.000000
# 4 0.000000 0.000000 0.000000 0.042955 0.000000 0.000000
# 5 0.000000 0.000000 0.000000 0.000000 0.042952 0.000000
# 6 0.000000 0.000000 0.000000 0.000000 0.000000 0.083386
#
#
# Mechanical properties :
#
#
# Convention : Reuss Voigt Hill
#
# Bulk Modulus (GPa) = 56.89361 57.08706 56.99034
# Shear Modulus (GPa) = 19.03790 20.30920 19.67355
#
# Velocity S-wave (km/s) = 3.20941 3.31483 3.26254
# Velocity P-wave (km/s) = 6.67199 6.74813 6.71017
#
# Compressibility (1/GPa) = 0.01757667
#
# Stress axis : x y z
#
# Youngs Moduli (GPa) = 57.17188 57.17185 56.98860
#
# Poissons Ratio (x) = 0.38489 0.30614
# Poissons Ratio (y) = 0.38489 0.30617
# Poissons Ratio (z) = 0.30713 0.30715
#
# Static dielectric constant tensor:
#      x y z
#    x 1.662670 0.000000 0.000000 
#    y 0.000000 1.662670 0.000000 
#    z 0.000000 0.000000 1.613320 
# 
# From -- ./inp_files/5135.got.cif
#   From: 2010.05.17/outbox.cif.g08.bks.cpg/sg129_3_cif.got.tgz:5135.got - 2010.05.20 12:12:06.
