data_PCOD9565285
_publ_section_title
;
Structure prediction by ZEFSAII (Michael W. Deem and Ramdas Pophale) SiO2 
 PCOD9565285
Probable space group: P 4/N M M
;
_chemical_formula_sum "Si O2"
_cell_formula_units_Z 56
_cell_length_a 22.364746
_cell_length_b 22.364746
_cell_length_c 6.475249
_cell_angle_alpha 90.000000
_cell_angle_beta 90.000000
_cell_angle_gamma 90.000000
_cell_volume 3238.802112
_symmetry_space_group_name_H-M "P 4/N M M"
_symmetry_group_IT_number 129
_symmetry_cell_setting 'tetragonal'
loop_
_space_group_symop_operation_xyz
x,y,z
1/2-y,x,z
1/2-x,1/2-y,z
y,1/2-x,z
1/2+x,-y,-z
-x,1/2+y,-z
1/2+y,1/2+x,-z
-y,-x,-z
-x,-y,-z
1/2+y,-x,-z
1/2+x,1/2+y,-z
-y,1/2+x,-z
1/2-x,y,z
x,1/2-y,z
1/2-y,1/2-x,z
y,x,z
loop_
_atom_site_type_symbol
_atom_site_label
_atom_site_fract_x
_atom_site_fract_y
_atom_site_fract_z
Si Si1 0.819300 0.031278 0.275466
Si Si2 0.086909 0.586909 0.000000
Si Si3 0.416538 0.181150 0.017474
Si Si4 0.106411 0.489450 0.342611
O O1 0.750000 0.045113 0.317416
O O2 0.859107 0.024671 0.479535
O O3 0.850909 0.077360 0.119052
O O4 0.822021 0.967091 0.159559
O O5 0.034951 0.581527 0.829241
O O6 0.399891 0.250000 0.047812
O O7 0.360787 0.139214 0.965018
O O8 0.447582 0.153814 0.221740
O O9 0.053150 0.446851 0.421644
#
# Coordination Sequence:
#
# PCOD9565285 Si02
#       4
#    16   8  16  16
#     4  10  20  34  52  73  99 131 165 203 250 301
#     4  10  21  34  50  77 104 128 162 204 250 299
#     4   9  18  31  47  70 100 135 174 210 243 283
#     4  10  19  32  51  75 104 134 165 205 251 298
#
# _framework density 17.290344000000001
#
# number of rings (size 3 to 8) (size 9 to 14) (size 15 to 20)
#    0.000    2.286    0.000    3.000    0.000    6.000 
#    0.000    0.000    0.000    0.429    0.000    4.000 
#    0.000    0.000    0.000    0.000    0.000    0.000 
#
# Total GULP energy -312441.750477 kJ/mol
# GULP energy per Si atom -5579.316973 kJ/mol
# Density = 1.725099 g / cm^3
# Si number density = 17.290344 Si / 1000 Ang^3
#
#
#
# Elastic Constant Matrix: (Units=GPa)
#
#
# Indices 1 2 3 4 5 6 
#
# 1 86.8092 66.5891 41.6414 0.0000 0.0000 0.0000
# 2 66.5891 86.8092 41.6414 0.0000 0.0000 0.0000
# 3 41.6414 41.6414 82.1050 0.0000 0.0000 0.0000
# 4 0.0000 0.0000 0.0000 18.6907 0.0000 0.0000
# 5 0.0000 0.0000 0.0000 0.0000 18.6907 0.0000
# 6 0.0000 0.0000 0.0000 0.0000 0.0000 21.3926
#
#
#
# Elastic Compliance Matrix: (Units=1/GPa)
#
#
# Indices 1 2 3 4 5 6 
#
# 1 0.029226 -0.020230 -0.004563 0.000000 0.000000 0.000000
# 2 -0.020230 0.029226 -0.004563 0.000000 0.000000 0.000000
# 3 -0.004563 -0.004563 0.016808 0.000000 0.000000 0.000000
# 4 0.000000 0.000000 0.000000 0.053502 0.000000 0.000000
# 5 0.000000 0.000000 0.000000 0.000000 0.053502 0.000000
# 6 0.000000 0.000000 0.000000 0.000000 0.000000 0.046745
#
#
# Mechanical properties :
#
#
# Convention : Reuss Voigt Hill
#
# Bulk Modulus (GPa) = 60.42501 61.71858 61.07179
# Shear Modulus (GPa) = 17.05113 18.81158 17.93135
#
# Velocity S-wave (km/s) = 3.14373 3.30203 3.22386
# Velocity P-wave (km/s) = 6.94266 7.09301 7.01824
#
# Compressibility (1/GPa) = 0.01654944
#
# Stress axis : x y z
#
# Youngs Moduli (GPa) = 34.21625 34.21625 59.49710
#
# Poissons Ratio (x) = 0.69219 0.27146
# Poissons Ratio (y) = 0.69219 0.27146
# Poissons Ratio (z) = 0.15611 0.15611
#
# Static dielectric constant tensor:
#      x y z
#    x 1.574600 0.000000 0.000000 
#    y 0.000000 1.574600 0.000000 
#    z 0.000000 0.000000 1.599110 
# 
# From -- ./inp_files/670.got.cif
#   From: 2010.05.17/outbox.cif.g08.bks.cpg/sg129_1_cif.got.tgz:670.got - 2010.05.20 12:12:06.
