data_PCOD9565522
_publ_section_title
;
Structure prediction by ZEFSAII (Michael W. Deem and Ramdas Pophale) SiO2 
 PCOD9565522
Probable space group: P 4/N M M
;
_chemical_formula_sum "Si O2"
_cell_formula_units_Z 96
_cell_length_a 18.000000
_cell_length_b 18.000000
_cell_length_c 18.000000
_cell_angle_alpha 90.000000
_cell_angle_beta 90.000000
_cell_angle_gamma 90.000000
_cell_volume 5832.000000
_symmetry_space_group_name_H-M "P 4/N M M"
_symmetry_group_IT_number 129
_symmetry_cell_setting 'tetragonal'
loop_
_space_group_symop_operation_xyz
x,y,z
1/2-y,x,z
1/2-x,1/2-y,z
y,1/2-x,z
1/2+x,-y,-z
-x,1/2+y,-z
1/2+y,1/2+x,-z
-y,-x,-z
-x,-y,-z
1/2+y,-x,-z
1/2+x,1/2+y,-z
-y,1/2+x,-z
1/2-x,y,z
x,1/2-y,z
1/2-y,1/2-x,z
y,x,z
loop_
_atom_site_type_symbol
_atom_site_label
_atom_site_fract_x
_atom_site_fract_y
_atom_site_fract_z
Si Si1 0.564416 0.437189 0.413657
Si Si2 0.958432 0.834818 0.003457
Si Si3 0.039114 0.163366 0.687796
Si Si4 0.459885 0.163819 0.316791
Si Si5 0.045976 0.834409 0.157741
Si Si6 0.489132 0.612393 0.843081
O O1 0.581770 0.418231 0.500000
O O2 0.501229 0.501229 0.415681
O O3 0.630946 0.474614 0.366329
O O4 0.526400 0.370919 0.366597
O O5 0.933094 0.750000 0.003446
O O6 0.890827 0.890827 0.010976
O O7 0.995488 0.851864 0.923513
O O8 0.009917 0.844593 0.076066
O O9 0.053366 0.250000 0.671998
O O10 0.110940 0.110940 0.678272
O O11 0.011505 0.157790 0.773554
O O12 0.447944 0.250000 0.333740
O O13 0.387583 0.112418 0.330791
O O14 0.479335 0.154260 0.229160
O O15 0.075483 0.750000 0.161497
O O16 0.102512 0.901644 0.167216
O O17 0.532545 0.532545 0.843314
#
# Coordination Sequence:
#
# PCOD9565522 Si02
#       6
#    16  16  16  16  16  16
#     4   9  18  34  55  76 100 135 176 212 250 305
#     4  10  20  31  47  73 102 136 174 211 255 304
#     4  10  19  32  52  78 108 139 172 212 257 307
#     4  10  20  34  55  81 108 138 172 214 264 313
#     4  10  19  31  50  75 102 132 172 218 261 300
#     4  10  18  32  52  72 100 137 179 219 253 298
#
# _framework density 16.460905
#
# number of rings (size 3 to 8) (size 9 to 14) (size 15 to 20)
#    0.000    2.167    1.667    2.500    0.000    2.500 
#    0.000    0.000    0.000    9.500    0.000   10.500 
#    0.000    0.000    0.000    0.000    0.000    0.000 
#
# Total GULP energy -535004.104565 kJ/mol
# GULP energy per Si atom -5572.959423 kJ/mol
# Density = 1.642344 g / cm^3
# Si number density = 16.460905 Si / 1000 Ang^3
#
#
#
# Elastic Constant Matrix: (Units=GPa)
#
#
# Indices 1 2 3 4 5 6 
#
# 1 75.5336 26.0377 22.3452 0.0000 0.0000 0.0000
# 2 26.0377 75.5336 22.3453 0.0000 0.0000 0.0000
# 3 22.3452 22.3453 111.7812 0.0000 0.0000 0.0000
# 4 0.0000 0.0000 0.0000 17.2941 0.0000 0.0000
# 5 0.0000 0.0000 0.0000 0.0000 17.2942 0.0000
# 6 0.0000 0.0000 0.0000 0.0000 0.0000 12.2716
#
#
#
# Elastic Compliance Matrix: (Units=1/GPa)
#
#
# Indices 1 2 3 4 5 6 
#
# 1 0.015499 -0.004704 -0.002158 0.000000 0.000000 0.000000
# 2 -0.004704 0.015499 -0.002158 0.000000 0.000000 0.000000
# 3 -0.002158 -0.002158 0.009809 0.000000 0.000000 0.000000
# 4 0.000000 0.000000 0.000000 0.057823 0.000000 0.000000
# 5 0.000000 0.000000 0.000000 0.000000 0.057823 0.000000
# 6 0.000000 0.000000 0.000000 0.000000 0.000000 0.081489
#
#
# Mechanical properties :
#
#
# Convention : Reuss Voigt Hill
#
# Bulk Modulus (GPa) = 43.92376 44.92277 44.42327
# Shear Modulus (GPa) = 18.97016 22.17999 20.57508
#
# Velocity S-wave (km/s) = 3.39844 3.67472 3.53928
# Velocity P-wave (km/s) = 6.49159 6.73458 6.61421
#
# Compressibility (1/GPa) = 0.02276672
#
# Stress axis : x y z
#
# Youngs Moduli (GPa) = 64.51938 64.51936 101.94948
#
# Poissons Ratio (x) = 0.30353 0.22000
# Poissons Ratio (y) = 0.30353 0.22000
# Poissons Ratio (z) = 0.13923 0.13923
#
# Static dielectric constant tensor:
#      x y z
#    x 1.546150 0.000000 0.000000 
#    y 0.000000 1.546150 0.000000 
#    z 0.000000 0.000000 1.569490 
# 
# From -- ./inp_files/5649.got.cif
#   From: 2010.05.17/outbox.ucp.g08.bks.cvg/sg129_3_cif.got.tgz:5649.got - 2010.06.11 11:38:03.
