data_PCOD9565919
_publ_section_title
;
Structure prediction by ZEFSAII (Michael W. Deem and Ramdas Pophale) SiO2 
 PCOD9565919
Probable space group: P 4/N C C
;
_chemical_formula_sum "Si O2"
_cell_formula_units_Z 112
_cell_length_a 14.155000
_cell_length_b 14.155000
_cell_length_c 25.838729
_cell_angle_alpha 90.000000
_cell_angle_beta 90.000000
_cell_angle_gamma 90.000000
_cell_volume 5177.151743
_symmetry_space_group_name_H-M "P 4/N C C"
_symmetry_group_IT_number 130
_symmetry_cell_setting 'tetragonal'
loop_
_space_group_symop_operation_xyz
x,y,z
1/2-y,x,z
1/2-x,1/2-y,z
y,1/2-x,z
1/2+x,-y,1/2-z
-x,1/2+y,1/2-z
1/2+y,1/2+x,1/2-z
-y,-x,1/2-z
-x,-y,-z
1/2+y,-x,-z
1/2+x,1/2+y,-z
-y,1/2+x,-z
1/2-x,y,1/2+z
x,1/2-y,1/2+z
1/2-y,1/2-x,1/2+z
y,x,1/2+z
loop_
_atom_site_type_symbol
_atom_site_label
_atom_site_fract_x
_atom_site_fract_y
_atom_site_fract_z
Si Si1 0.011052 0.665490 0.748622
Si Si2 0.929350 0.463408 0.592712
Si Si3 0.636036 0.848512 0.555702
Si Si4 0.065294 0.304558 0.552806
Si Si5 0.892359 0.278635 0.989260
Si Si6 0.102061 0.218750 0.659790
Si Si7 0.376825 0.504434 0.789083
O O1 0.989093 0.691703 0.808484
O O2 0.932963 0.592021 0.725971
O O3 0.001897 0.763906 0.717940
O O4 0.109820 0.609820 0.750000
O O5 0.937104 0.571916 0.573106
O O6 0.843075 0.420293 0.559033
O O7 0.906027 0.467597 0.652907
O O8 0.017711 0.396493 0.579890
O O9 0.621497 0.740966 0.573996
O O10 0.632904 0.839752 0.493343
O O11 0.097330 0.234208 0.598339
O O12 0.982405 0.251216 0.521802
O O13 0.838551 0.181521 0.976388
O O14 0.180003 0.142722 0.676143
O O15 0.417722 0.582279 0.750000
#
# Coordination Sequence:
#
# PCOD9565919 Si02
#       7
#    16  16  16  16  16  16  16
#     4  11  25  46  74 100 139 190 240 308 364 429
#     4  11  24  41  68  96 136 182 224 291 359 424
#     4  11  23  41  59  94 141 177 230 280 336 428
#     4  11  22  40  67  98 138 178 227 291 355 429
#     4   9  20  40  63  94 134 177 225 273 341 431
#     4  11  23  42  69 100 133 182 236 294 364 422
#     4  11  26  48  70 106 144 178 252 306 362 442
#
# _framework density 21.633517000000001
#
# number of rings (size 3 to 8) (size 9 to 14) (size 15 to 20)
#    0.000    1.286    2.857    2.143    4.000    2.857 
#    0.000    2.857    0.000    0.000    0.000    0.000 
#    0.000    0.000    0.000    0.000    0.000    0.000 
#
# Total GULP energy -625657.154101 kJ/mol
# GULP energy per Si atom -5586.224590 kJ/mol
# Density = 2.158428 g / cm^3
# Si number density = 21.633517 Si / 1000 Ang^3
#
#
#
# Elastic Constant Matrix: (Units=GPa)
#
#
# Indices 1 2 3 4 5 6 
#
# 1 105.8481 42.3754 16.0311 0.0000 0.0000 0.0000
# 2 42.3754 105.8444 16.0298 0.0000 0.0000 0.0000
# 3 16.0311 16.0298 98.1550 0.0000 0.0000 0.0000
# 4 0.0000 0.0000 0.0000 29.6301 0.0000 0.0000
# 5 0.0000 0.0000 0.0000 0.0000 29.6302 0.0000
# 6 0.0000 0.0000 0.0000 0.0000 0.0000 11.2653
#
#
#
# Elastic Compliance Matrix: (Units=1/GPa)
#
#
# Indices 1 2 3 4 5 6 
#
# 1 0.011374 -0.004381 -0.001142 0.000000 0.000000 0.000000
# 2 -0.004381 0.011375 -0.001142 0.000000 0.000000 0.000000
# 3 -0.001142 -0.001142 0.010561 0.000000 0.000000 0.000000
# 4 0.000000 0.000000 0.000000 0.033749 0.000000 0.000000
# 5 0.000000 0.000000 0.000000 0.000000 0.033749 0.000000
# 6 0.000000 0.000000 0.000000 0.000000 0.000000 0.088768
#
#
# Mechanical properties :
#
#
# Convention : Reuss Voigt Hill
#
# Bulk Modulus (GPa) = 50.05084 50.96891 50.50987
# Shear Modulus (GPa) = 23.85872 29.79922 26.82897
#
# Velocity S-wave (km/s) = 3.32453 3.71544 3.52541
# Velocity P-wave (km/s) = 6.15814 6.48207 6.32218
#
# Compressibility (1/GPa) = 0.01997969
#
# Stress axis : x y z
#
# Youngs Moduli (GPa) = 87.91746 87.91466 94.68760
#
# Poissons Ratio (x) = 0.38513 0.10816
# Poissons Ratio (y) = 0.38515 0.10814
# Poissons Ratio (z) = 0.10043 0.10041
#
# Static dielectric constant tensor:
#      x y z
#    x 1.815180 0.000000 0.000000 
#    y 0.000000 1.815180 0.000000 
#    z 0.000000 0.000000 1.765390 
# 
# From -- ./inp_files/4277.got.cif
#   From: 2010.05.17/outbox.cif.g08.bks.cpg/sg130_3_cif.got.tgz:4277.got - 2010.05.20 12:17:35.
