data_PCOD9565450
_publ_section_title
;
Structure prediction by ZEFSAII (Michael W. Deem and Ramdas Pophale) SiO2 
 PCOD9565450
Probable space group: P 4/N M M
;
_chemical_formula_sum "Si O2"
_cell_formula_units_Z 120
_cell_length_a 27.029751
_cell_length_b 27.029751
_cell_length_c 8.843200
_cell_angle_alpha 90.000000
_cell_angle_beta 90.000000
_cell_angle_gamma 90.000000
_cell_volume 6460.907706
_symmetry_space_group_name_H-M "P 4/N M M"
_symmetry_group_IT_number 129
_symmetry_cell_setting 'tetragonal'
loop_
_space_group_symop_operation_xyz
x,y,z
1/2-y,x,z
1/2-x,1/2-y,z
y,1/2-x,z
1/2+x,-y,-z
-x,1/2+y,-z
1/2+y,1/2+x,-z
-y,-x,-z
-x,-y,-z
1/2+y,-x,-z
1/2+x,1/2+y,-z
-y,1/2+x,-z
1/2-x,y,z
x,1/2-y,z
1/2-y,1/2-x,z
y,x,z
loop_
_atom_site_type_symbol
_atom_site_label
_atom_site_fract_x
_atom_site_fract_y
_atom_site_fract_z
Si Si1 0.837771 0.918483 0.406682
Si Si2 0.043677 0.538896 0.679233
Si Si3 0.617288 0.309097 0.584010
Si Si4 0.966156 0.884570 0.142354
Si Si5 0.360092 0.537087 0.129195
Si Si6 0.691983 0.485814 0.572147
Si Si7 0.877659 0.307802 0.941879
Si Si8 0.336805 0.250000 0.573209
O O1 0.888668 0.888668 0.429153
O O2 0.840734 0.940980 0.237489
O O3 0.793036 0.880832 0.426654
O O4 0.834798 0.964981 0.517042
O O5 0.049001 0.549001 0.500000
O O6 0.086705 0.503842 0.745714
O O7 0.044145 0.588766 0.778387
O O8 0.992699 0.507302 0.698967
O O9 0.658685 0.341316 0.500000
O O10 0.624593 0.250000 0.558699
O O11 0.563604 0.323009 0.518067
O O12 0.617974 0.318149 0.763421
O O13 0.923818 0.923818 0.100133
O O14 0.994991 0.867628 0.995364
O O15 0.319708 0.523146 0.253643
O O16 0.340503 0.584555 0.039234
O O17 0.750000 0.492950 0.544509
O O18 0.887611 0.250000 0.965777
O O19 0.823775 0.323775 0.000000
O O20 0.293941 0.293941 0.574477
#
# Coordination Sequence:
#
# PCOD9565450 Si02
#       8
#    16  16  16  16  16  16  16   8
#     4  10  20  37  62  90 120 153 197 249 302 363
#     4  10  21  37  57  84 119 161 206 245 284 340
#     4  10  23  42  64  87 116 155 201 253 300 354
#     4  10  21  36  55  85 120 155 192 234 286 347
#     4  12  23  36  57  83 121 161 200 240 293 357
#     4  11  23  39  57  84 117 152 194 239 296 349
#     4  11  24  41  60  84 113 149 192 243 304 359
#     4   9  18  36  64  94 120 152 201 258 312 364
#
# _framework density 18.573240999999999
#
# number of rings (size 3 to 8) (size 9 to 14) (size 15 to 20)
#    0.000    1.533    0.667    4.400    0.000    7.733 
#    2.400    1.333    0.000    0.400    0.000    0.933 
#    0.000    4.267    0.000    0.000    0.000    0.000 
#
# Total GULP energy -668427.828186 kJ/mol
# GULP energy per Si atom -5570.231902 kJ/mol
# Density = 1.853097 g / cm^3
# Si number density = 18.573241 Si / 1000 Ang^3
#
#
#
# Elastic Constant Matrix: (Units=GPa)
#
#
# Indices 1 2 3 4 5 6 
#
# 1 79.1761 53.8852 51.9531 0.0000 0.0000 0.0000
# 2 53.8852 79.1823 51.9519 0.0000 0.0000 0.0000
# 3 51.9531 51.9519 115.4100 0.0000 0.0000 0.0000
# 4 0.0000 0.0000 0.0000 24.2767 0.0000 0.0000
# 5 0.0000 0.0000 0.0000 0.0000 24.2770 0.0000
# 6 0.0000 0.0000 0.0000 0.0000 0.0000 25.1154
#
#
#
# Elastic Compliance Matrix: (Units=1/GPa)
#
#
# Indices 1 2 3 4 5 6 
#
# 1 0.025564 -0.013973 -0.005218 0.000000 0.000000 0.000000
# 2 -0.013973 0.025560 -0.005216 0.000000 0.000000 0.000000
# 3 -0.005218 -0.005216 0.013361 0.000000 0.000000 0.000000
# 4 0.000000 0.000000 0.000000 0.041192 0.000000 0.000000
# 5 0.000000 0.000000 0.000000 0.000000 0.041191 0.000000
# 6 0.000000 0.000000 0.000000 0.000000 0.000000 0.039816
#
#
# Mechanical properties :
#
#
# Convention : Reuss Voigt Hill
#
# Bulk Modulus (GPa) = 63.80828 65.48320 64.64574
# Shear Modulus (GPa) = 20.77085 22.46568 21.61826
#
# Velocity S-wave (km/s) = 3.34776 3.48166 3.41537
# Velocity P-wave (km/s) = 7.02658 7.17607 7.10172
#
# Compressibility (1/GPa) = 0.01567195
#
# Stress axis : x y z
#
# Youngs Moduli (GPa) = 39.11810 39.12322 74.84221
#
# Poissons Ratio (x) = 0.54668 0.39050
# Poissons Ratio (y) = 0.54661 0.39036
# Poissons Ratio (z) = 0.20411 0.20406
#
# Static dielectric constant tensor:
#      x y z
#    x 1.657870 0.000000 0.000000 
#    y 0.000000 1.657870 0.000000 
#    z 0.000000 0.000000 1.619990 
# 
# From -- ./inp_files/2910.got.cif
#   From: 2010.05.17/outbox.cif.g08.bks.cpg/sg129_2_cif.got.tgz:2910.got - 2010.05.20 12:12:06.
