data_PCOD9565278
_publ_section_title
;
Structure prediction by ZEFSAII (Michael W. Deem and Ramdas Pophale) SiO2 
 PCOD9565278
Probable space group: P 4/N M M
;
_chemical_formula_sum "Si O2"
_cell_formula_units_Z 112
_cell_length_a 23.406821
_cell_length_b 23.406821
_cell_length_c 11.503043
_cell_angle_alpha 90.000000
_cell_angle_beta 90.000000
_cell_angle_gamma 90.000000
_cell_volume 6302.278794
_symmetry_space_group_name_H-M "P 4/N M M"
_symmetry_group_IT_number 129
_symmetry_cell_setting 'tetragonal'
loop_
_space_group_symop_operation_xyz
x,y,z
1/2-y,x,z
1/2-x,1/2-y,z
y,1/2-x,z
1/2+x,-y,-z
-x,1/2+y,-z
1/2+y,1/2+x,-z
-y,-x,-z
-x,-y,-z
1/2+y,-x,-z
1/2+x,1/2+y,-z
-y,1/2+x,-z
1/2-x,y,z
x,1/2-y,z
1/2-y,1/2-x,z
y,x,z
loop_
_atom_site_type_symbol
_atom_site_label
_atom_site_fract_x
_atom_site_fract_y
_atom_site_fract_z
Si Si1 0.816763 0.588266 0.184340
Si Si2 0.591822 0.999024 0.537948
Si Si3 0.420648 0.685564 0.914085
Si Si4 0.021413 0.817898 0.343703
Si Si5 0.902683 0.814819 0.914433
Si Si6 0.125265 0.815696 0.175732
Si Si7 0.489706 0.100918 0.189307
O O1 0.750000 0.603897 0.203772
O O2 0.860319 0.639681 0.211059
O O3 0.830005 0.531920 0.258062
O O4 0.822156 0.575012 0.046707
O O5 0.563074 0.936927 0.516198
O O6 0.599704 0.005090 0.675557
O O7 0.545256 0.045256 0.500000
O O8 0.647055 0.010829 0.460600
O O9 0.443637 0.750000 0.888192
O O10 0.361618 0.675081 0.843957
O O11 0.459349 0.630762 0.881841
O O12 0.407647 0.684226 0.051506
O O13 0.022410 0.750000 0.364571
O O14 0.080160 0.832396 0.275963
O O15 0.905722 0.750000 0.880839
O O16 0.838649 0.838649 0.916576
O O17 0.939544 0.853598 0.830842
O O18 0.144130 0.750000 0.195455
O O19 0.460668 0.039333 0.156963
#
# Coordination Sequence:
#
# PCOD9565278 Si02
#       7
#    16  16  16  16  16  16  16
#     4   9  17  29  47  71  98 130 165 200 242 290
#     4  10  21  36  52  69  92 123 160 202 243 287
#     4  10  19  33  55  77 101 136 169 198 242 299
#     4  10  19  32  50  71  97 126 158 199 247 297
#     4   9  17  29  46  69  98 130 162 198 237 279
#     4   9  19  34  51  76 106 131 162 206 247 287
#     4  10  20  33  49  72 100 127 161 206 249 289
#
# _framework density 17.771349000000001
#
# number of rings (size 3 to 8) (size 9 to 14) (size 15 to 20)
#    0.000    2.429    0.000    2.571    0.000    4.000 
#    0.000    5.714    0.000    0.000    0.000    0.000 
#    0.000    6.857    0.000    0.000    0.000    0.000 
#
# Total GULP energy -623953.990329 kJ/mol
# GULP energy per Si atom -5571.017771 kJ/mol
# Density = 1.773090 g / cm^3
# Si number density = 17.771349 Si / 1000 Ang^3
#
#
#
# Elastic Constant Matrix: (Units=GPa)
#
#
# Indices 1 2 3 4 5 6 
#
# 1 60.2788 -8.8146 4.4439 0.0000 0.0000 0.0000
# 2 -8.8146 60.2788 4.4439 0.0000 0.0000 0.0000
# 3 4.4439 4.4439 18.3171 0.0000 0.0000 0.0000
# 4 0.0000 0.0000 0.0000 24.1413 0.0000 0.0000
# 5 0.0000 0.0000 0.0000 0.0000 24.1413 0.0000
# 6 0.0000 0.0000 0.0000 0.0000 0.0000 23.4870
#
#
#
# Elastic Compliance Matrix: (Units=1/GPa)
#
#
# Indices 1 2 3 4 5 6 
#
# 1 0.017377 0.002904 -0.004920 0.000000 0.000000 0.000000
# 2 0.002904 0.017377 -0.004920 0.000000 0.000000 0.000000
# 3 -0.004920 -0.004920 0.056981 0.000000 0.000000 0.000000
# 4 0.000000 0.000000 0.000000 0.041423 0.000000 0.000000
# 5 0.000000 0.000000 0.000000 0.000000 0.041423 0.000000
# 6 0.000000 0.000000 0.000000 0.000000 0.000000 0.042577
#
#
# Mechanical properties :
#
#
# Convention : Reuss Voigt Hill
#
# Bulk Modulus (GPa) = 12.84331 15.44678 14.14504
# Shear Modulus (GPa) = 19.45640 23.60736 21.53188
#
# Velocity S-wave (km/s) = 3.31239 3.64867 3.48459
# Velocity P-wave (km/s) = 4.67674 5.14404 4.91595
#
# Compressibility (1/GPa) = 0.07786158
#
# Stress axis : x y z
#
# Youngs Moduli (GPa) = 57.54754 57.54754 17.54962
#
# Poissons Ratio (x) = -0.16711 0.08635
# Poissons Ratio (y) = -0.16711 0.08635
# Poissons Ratio (z) = 0.28315 0.28315
#
# Static dielectric constant tensor:
#      x y z
#    x 1.635300 0.000000 0.000000 
#    y 0.000000 1.635300 0.000000 
#    z 0.000000 0.000000 1.596020 
# 
# From -- ./inp_files/4100.got.cif
#   From: 2010.05.17/outbox.cif.g08.bks.cpg/sg129_3_cif.got.tgz:4100.got - 2010.05.20 12:12:06.
