data_PCOD9565374
_publ_section_title
;
Structure prediction by ZEFSAII (Michael W. Deem and Ramdas Pophale) SiO2 
 PCOD9565374
Probable space group: P 4/N M M
;
_chemical_formula_sum "Si O2"
_cell_formula_units_Z 96
_cell_length_a 14.179393
_cell_length_b 14.179393
_cell_length_c 30.715207
_cell_angle_alpha 90.000000
_cell_angle_beta 90.000000
_cell_angle_gamma 90.000000
_cell_volume 6175.451652
_symmetry_space_group_name_H-M "P 4/N M M"
_symmetry_group_IT_number 129
_symmetry_cell_setting 'tetragonal'
loop_
_space_group_symop_operation_xyz
x,y,z
1/2-y,x,z
1/2-x,1/2-y,z
y,1/2-x,z
1/2+x,-y,-z
-x,1/2+y,-z
1/2+y,1/2+x,-z
-y,-x,-z
-x,-y,-z
1/2+y,-x,-z
1/2+x,1/2+y,-z
-y,1/2+x,-z
1/2-x,y,z
x,1/2-y,z
1/2-y,1/2-x,z
y,x,z
loop_
_atom_site_type_symbol
_atom_site_label
_atom_site_fract_x
_atom_site_fract_y
_atom_site_fract_z
Si Si1 0.982093 0.138857 0.303947
Si Si2 0.639763 0.484248 0.367355
Si Si3 0.984706 0.359760 0.530224
Si Si4 0.480062 0.636358 0.035432
Si Si5 0.641611 0.362029 0.879218
Si Si6 0.139865 0.984704 0.204646
O O1 0.996580 0.250000 0.310841
O O2 0.948469 0.124419 0.253929
O O3 0.907786 0.095040 0.337473
O O4 0.078355 0.078355 0.308645
O O5 0.750000 0.496381 0.357797
O O6 0.579681 0.579681 0.360067
O O7 0.630229 0.460223 0.418605
O O8 0.904766 0.404766 0.500000
O O9 0.999140 0.250000 0.520980
O O10 0.078981 0.421020 0.522687
O O11 0.489904 0.750000 0.030111
O O12 0.577998 0.577998 0.032341
O O13 0.430822 0.617003 0.082086
O O14 0.409014 0.590987 0.000000
O O15 0.750000 0.388479 0.891415
O O16 0.640652 0.250000 0.872616
O O17 0.617882 0.412586 0.833984
O O18 0.250000 0.008840 0.201502
O O19 0.075910 0.075910 0.199010
#
# Coordination Sequence:
#
# PCOD9565374 Si02
#       6
#    16  16  16  16  16  16
#     4   9  18  31  46  66  92 122 156 192 229 270
#     4   9  18  32  49  69  92 118 149 186 228 272
#     4   9  18  32  49  69  93 120 150 185 224 267
#     4  10  20  33  50  71  94 122 155 190 229 272
#     4   9  17  29  46  68  92 118 150 187 225 267
#     4   9  17  29  45  65  90 119 150 185 224 266
#
# _framework density 15.545422
#
# number of rings (size 3 to 8) (size 9 to 14) (size 15 to 20)
#    0.000    2.833    0.000    1.000    0.000    3.500 
#    0.000    6.667    0.000    0.000    0.000    7.000 
#    0.000    4.000    0.000    0.000    0.000    0.000 
#
# Total GULP energy -534617.319830 kJ/mol
# GULP energy per Si atom -5568.930415 kJ/mol
# Density = 1.551004 g / cm^3
# Si number density = 15.545422 Si / 1000 Ang^3
#
#
#
# Elastic Constant Matrix: (Units=GPa)
#
#
# Indices 1 2 3 4 5 6 
#
# 1 97.4868 55.4041 66.2965 0.0000 0.0000 0.0000
# 2 55.4041 97.4864 66.2963 0.0000 0.0000 0.0000
# 3 66.2965 66.2963 83.9809 0.0000 0.0000 0.0000
# 4 0.0000 0.0000 0.0000 27.1370 0.0000 0.0000
# 5 0.0000 0.0000 0.0000 0.0000 27.1370 0.0000
# 6 0.0000 0.0000 0.0000 0.0000 0.0000 12.8599
#
#
#
# Elastic Compliance Matrix: (Units=1/GPa)
#
#
# Indices 1 2 3 4 5 6 
#
# 1 0.022251 -0.001512 -0.016372 0.000000 0.000000 0.000000
# 2 -0.001512 0.022251 -0.016372 0.000000 0.000000 0.000000
# 3 -0.016372 -0.016372 0.037756 0.000000 0.000000 0.000000
# 4 0.000000 0.000000 0.000000 0.036850 0.000000 0.000000
# 5 0.000000 0.000000 0.000000 0.000000 0.036850 0.000000
# 6 0.000000 0.000000 0.000000 0.000000 0.000000 0.077761
#
#
# Mechanical properties :
#
#
# Convention : Reuss Voigt Hill
#
# Bulk Modulus (GPa) = 72.74472 72.77198 72.75835
# Shear Modulus (GPa) = 16.29666 19.49059 17.89363
#
# Velocity S-wave (km/s) = 3.24130 3.54472 3.39640
# Velocity P-wave (km/s) = 7.80414 7.97919 7.89215
#
# Compressibility (1/GPa) = 0.01374670
#
# Stress axis : x y z
#
# Youngs Moduli (GPa) = 44.94227 44.94221 26.48605
#
# Poissons Ratio (x) = 0.06796 0.43362
# Poissons Ratio (y) = 0.06796 0.43362
# Poissons Ratio (z) = 0.73578 0.73578
#
# Static dielectric constant tensor:
#      x y z
#    x 1.498910 0.000000 0.000000 
#    y 0.000000 1.498910 0.000000 
#    z 0.000000 0.000000 1.523870 
# 
# From -- ./inp_files/6512.got.cif
#   From: 2010.05.17/outbox.cif.g08.bks.cpg/sg129_4_cif.got.tgz:6512.got - 2010.05.20 12:12:06.
