data_PCOD9565279
_publ_section_title
;
Structure prediction by ZEFSAII (Michael W. Deem and Ramdas Pophale) SiO2 
 PCOD9565279
Probable space group: P 4/N M M
;
_chemical_formula_sum "Si O2"
_cell_formula_units_Z 128
_cell_length_a 18.395774
_cell_length_b 18.395774
_cell_length_c 23.155866
_cell_angle_alpha 90.000000
_cell_angle_beta 90.000000
_cell_angle_gamma 90.000000
_cell_volume 7836.049280
_symmetry_space_group_name_H-M "P 4/N M M"
_symmetry_group_IT_number 129
_symmetry_cell_setting 'tetragonal'
loop_
_space_group_symop_operation_xyz
x,y,z
1/2-y,x,z
1/2-x,1/2-y,z
y,1/2-x,z
1/2+x,-y,-z
-x,1/2+y,-z
1/2+y,1/2+x,-z
-y,-x,-z
-x,-y,-z
1/2+y,-x,-z
1/2+x,1/2+y,-z
-y,1/2+x,-z
1/2-x,y,z
x,1/2-y,z
1/2-y,1/2-x,z
y,x,z
loop_
_atom_site_type_symbol
_atom_site_label
_atom_site_fract_x
_atom_site_fract_y
_atom_site_fract_z
Si Si1 0.888125 0.334250 0.334490
Si Si2 0.940179 0.440364 0.861702
Si Si3 0.334694 0.452152 0.931047
Si Si4 0.593071 0.335338 0.551236
Si Si5 0.164004 0.666269 0.209075
Si Si6 0.951091 0.834911 0.514333
Si Si7 0.451860 0.334563 0.069351
Si Si8 0.048875 0.166788 0.348179
O O1 0.880949 0.250000 0.353664
O O2 0.870153 0.383819 0.388811
O O3 0.839570 0.344947 0.278304
O O4 0.972232 0.344716 0.317318
O O5 0.891365 0.391412 0.818834
O O6 0.883188 0.487068 0.899635
O O7 0.000039 0.499962 0.838740
O O8 0.986762 0.383364 0.899938
O O9 0.250000 0.452676 0.913339
O O10 0.375474 0.375474 0.919508
O O11 0.337264 0.463785 0.000205
O O12 0.649991 0.350010 0.500000
O O13 0.586830 0.250000 0.560821
O O14 0.517599 0.362685 0.523984
O O15 0.250000 0.649726 0.197057
O O16 0.150464 0.750000 0.190656
O O17 0.941489 0.750000 0.503183
O O18 0.879499 0.879499 0.501539
O O19 0.966418 0.842136 0.582924
O O20 0.452514 0.250000 0.087156
O O21 0.375155 0.375155 0.080830
O O22 0.072741 0.250000 0.339656
O O23 0.110007 0.110007 0.331175
#
# Coordination Sequence:
#
# PCOD9565279 Si02
#       8
#    16  16  16  16  16  16  16  16
#     4  10  20  34  48  67  93 120 152 191 235 283
#     4  10  19  32  50  71  98 129 165 206 245 286
#     4   9  17  29  47  72 101 132 164 200 243 288
#     4  11  20  30  46  68  92 117 145 179 224 281
#     4  10  21  36  53  71  94 127 165 205 246 289
#     4   9  18  31  46  67  92 118 148 179 216 264
#     4   9  17  29  47  72 101 133 166 200 240 286
#     4   9  17  30  47  67  93 121 150 185 223 269
#
# _framework density 16.334762000000001
#
# number of rings (size 3 to 8) (size 9 to 14) (size 15 to 20)
#    0.000    2.375    1.250    1.875    0.000    4.625 
#    0.000    2.500    0.000    0.000    0.000    5.250 
#    0.000    3.000    0.000    4.125    0.000    0.250 
#
# Total GULP energy -713018.741095 kJ/mol
# GULP energy per Si atom -5570.458915 kJ/mol
# Density = 1.629758 g / cm^3
# Si number density = 16.334762 Si / 1000 Ang^3
#
#
#
# Elastic Constant Matrix: (Units=GPa)
#
#
# Indices 1 2 3 4 5 6 
#
# 1 120.8871 27.0176 23.2283 0.0000 0.0000 0.0000
# 2 27.0176 120.8778 23.2282 0.0000 0.0000 0.0000
# 3 23.2283 23.2282 20.4508 0.0000 0.0000 0.0000
# 4 0.0000 0.0000 0.0000 20.8644 0.0000 0.0000
# 5 0.0000 0.0000 0.0000 0.0000 20.8644 0.0000
# 6 0.0000 0.0000 0.0000 0.0000 0.0000 32.7238
#
#
#
# Elastic Compliance Matrix: (Units=1/GPa)
#
#
# Indices 1 2 3 4 5 6 
#
# 1 0.010582 -0.000071 -0.011939 0.000000 0.000000 0.000000
# 2 -0.000071 0.010583 -0.011940 0.000000 0.000000 0.000000
# 3 -0.011939 -0.011940 0.076019 0.000000 0.000000 0.000000
# 4 0.000000 0.000000 0.000000 0.047929 0.000000 0.000000
# 5 0.000000 0.000000 0.000000 0.000000 0.047929 0.000000
# 6 0.000000 0.000000 0.000000 0.000000 0.000000 0.030559
#
#
# Mechanical properties :
#
#
# Convention : Reuss Voigt Hill
#
# Bulk Modulus (GPa) = 20.28990 45.46265 32.87627
# Shear Modulus (GPa) = 17.36553 27.47329 22.41941
#
# Velocity S-wave (km/s) = 3.26406 4.10554 3.70874
# Velocity P-wave (km/s) = 5.16273 7.09691 6.20564
#
# Compressibility (1/GPa) = 0.04928562
#
# Stress axis : x y z
#
# Youngs Moduli (GPa) = 94.49978 94.49077 13.15463
#
# Poissons Ratio (x) = 0.00672 0.15705
# Poissons Ratio (y) = 0.00672 0.15706
# Poissons Ratio (z) = 1.12819 1.12818
#
# Static dielectric constant tensor:
#      x y z
#    x 1.557450 0.000000 0.000000 
#    y 0.000000 1.557450 0.000000 
#    z 0.000000 0.000000 1.543380 
# 
# From -- ./inp_files/7345.got.cif
#   From: 2010.05.17/outbox.cif.g08.bks.cpg/sg129_4_cif.got.tgz:7345.got - 2010.05.20 12:12:06.
