data_PCOD9565912
_publ_section_title
;
Structure prediction by ZEFSAII (Michael W. Deem and Ramdas Pophale) SiO2 
 PCOD9565912
Probable space group: P 4/N C C
;
_chemical_formula_sum "Si O2"
_cell_formula_units_Z 108
_cell_length_a 19.565685
_cell_length_b 19.565685
_cell_length_c 15.545150
_cell_angle_alpha 90.000000
_cell_angle_beta 90.000000
_cell_angle_gamma 90.000000
_cell_volume 5950.932601
_symmetry_space_group_name_H-M "P 4/N C C"
_symmetry_group_IT_number 130
_symmetry_cell_setting 'tetragonal'
loop_
_space_group_symop_operation_xyz
x,y,z
1/2-y,x,z
1/2-x,1/2-y,z
y,1/2-x,z
1/2+x,-y,1/2-z
-x,1/2+y,1/2-z
1/2+y,1/2+x,1/2-z
-y,-x,1/2-z
-x,-y,-z
1/2+y,-x,-z
1/2+x,1/2+y,-z
-y,1/2+x,-z
1/2-x,y,1/2+z
x,1/2-y,1/2+z
1/2-y,1/2-x,1/2+z
y,x,1/2+z
loop_
_atom_site_type_symbol
_atom_site_label
_atom_site_fract_x
_atom_site_fract_y
_atom_site_fract_z
Si Si1 0.689786 0.048992 0.892473
Si Si2 0.202241 0.643889 0.371666
Si Si3 0.538040 0.336710 0.632924
Si Si4 0.250000 0.750000 0.500000
Si Si5 0.976030 0.135878 0.283728
Si Si6 0.172693 0.672693 0.750000
Si Si7 0.928126 0.031716 0.531650
Si Si8 0.524834 0.914167 0.715308
O O1 0.683404 0.130111 0.874406
O O2 0.765813 0.028230 0.916639
O O3 0.680948 0.013392 0.800243
O O4 0.628674 0.031330 0.957343
O O5 0.241970 0.677723 0.451029
O O6 0.178883 0.565267 0.355770
O O7 0.255214 0.662791 0.296660
O O8 0.609905 0.333489 0.684115
O O9 0.548862 0.393678 0.561442
O O10 0.483305 0.358623 0.707820
O O11 0.921305 0.078696 0.250000
O O12 0.045838 0.095792 0.300361
O O13 0.896062 0.999794 0.619202
O O14 0.000000 0.000000 0.500000
O O15 0.471703 0.971703 0.750000
#
# Coordination Sequence:
#
# PCOD9565912 Si02
#       8
#    16  16  16   4  16   8  16  16
#     4  11  23  35  53  83 109 154 211 252 286 355
#     4  11  25  36  49  74 114 162 201 235 281 349
#     4  11  22  37  57  79 112 158 204 253 306 355
#     4  12  28  30  48  76 120 150 204 248 286 328
#     4   9  18  37  58  71 100 152 206 241 289 360
#     4  12  22  41  52  70 116 164 202 237 284 348
#     4  11  22  38  56  82 118 157 203 260 310 361
#     4   9  18  38  57  74 100 148 201 252 311 355
#
# _framework density 18.148416000000001
#
# number of rings (size 3 to 8) (size 9 to 14) (size 15 to 20)
#    0.000    1.481    3.704    4.444    8.296    0.593 
#    0.000    0.000    0.000    0.000    0.000    0.000 
#    0.000    9.481    0.000   16.296    0.296    0.000 
#
# Total GULP energy -601580.055068 kJ/mol
# GULP energy per Si atom -5570.185695 kJ/mol
# Density = 1.810711 g / cm^3
# Si number density = 18.148416 Si / 1000 Ang^3
#
#
#
# Elastic Constant Matrix: (Units=GPa)
#
#
# Indices 1 2 3 4 5 6 
#
# 1 75.6796 50.0950 39.6819 0.0000 0.0000 0.0000
# 2 50.0950 75.6798 39.6820 0.0000 0.0000 0.0000
# 3 39.6819 39.6820 93.3603 0.0000 0.0000 0.0000
# 4 0.0000 0.0000 0.0000 28.5299 0.0000 0.0000
# 5 0.0000 0.0000 0.0000 0.0000 28.5298 0.0000
# 6 0.0000 0.0000 0.0000 0.0000 0.0000 19.9226
#
#
#
# Elastic Compliance Matrix: (Units=1/GPa)
#
#
# Indices 1 2 3 4 5 6 
#
# 1 0.024975 -0.014111 -0.004618 0.000000 0.000000 0.000000
# 2 -0.014111 0.024975 -0.004618 0.000000 0.000000 0.000000
# 3 -0.004618 -0.004618 0.014637 0.000000 0.000000 0.000000
# 4 0.000000 0.000000 0.000000 0.035051 0.000000 0.000000
# 5 0.000000 0.000000 0.000000 0.000000 0.035051 0.000000
# 6 0.000000 0.000000 0.000000 0.000000 0.000000 0.050194
#
#
# Mechanical properties :
#
#
# Convention : Reuss Voigt Hill
#
# Bulk Modulus (GPa) = 55.88337 55.95970 55.92154
# Shear Modulus (GPa) = 21.04899 23.08051 22.06475
#
# Velocity S-wave (km/s) = 3.40932 3.57005 3.49061
# Velocity P-wave (km/s) = 6.80861 6.92063 6.86485
#
# Compressibility (1/GPa) = 0.01789441
#
# Stress axis : x y z
#
# Youngs Moduli (GPa) = 40.03970 40.03976 68.32095
#
# Poissons Ratio (x) = 0.56498 0.31550
# Poissons Ratio (y) = 0.56498 0.31550
# Poissons Ratio (z) = 0.18490 0.18490
#
# Static dielectric constant tensor:
#      x y z
#    x 1.678120 0.000000 0.000000 
#    y 0.000000 1.678120 0.000000 
#    z 0.000000 0.000000 1.733010 
# 
# From -- ./inp_files/2550.got.cif
#   From: 2010.05.17/outbox.cif.g08.bks.cpg/sg130_2_cif.got.tgz:2550.got - 2010.05.20 12:17:35.
