data_PCOD9565344
_publ_section_title
;
Structure prediction by ZEFSAII (Michael W. Deem and Ramdas Pophale) SiO2 
 PCOD9565344
Probable space group: P 4/N M M
;
_chemical_formula_sum "Si O2"
_cell_formula_units_Z 96
_cell_length_a 13.853826
_cell_length_b 13.853826
_cell_length_c 31.619036
_cell_angle_alpha 90.000000
_cell_angle_beta 90.000000
_cell_angle_gamma 90.000000
_cell_volume 6068.593988
_symmetry_space_group_name_H-M "P 4/N M M"
_symmetry_group_IT_number 129
_symmetry_cell_setting 'tetragonal'
loop_
_space_group_symop_operation_xyz
x,y,z
1/2-y,x,z
1/2-x,1/2-y,z
y,1/2-x,z
1/2+x,-y,-z
-x,1/2+y,-z
1/2+y,1/2+x,-z
-y,-x,-z
-x,-y,-z
1/2+y,-x,-z
1/2+x,1/2+y,-z
-y,1/2+x,-z
1/2-x,y,z
x,1/2-y,z
1/2-y,1/2-x,z
y,x,z
loop_
_atom_site_type_symbol
_atom_site_label
_atom_site_fract_x
_atom_site_fract_y
_atom_site_fract_z
Si Si1 0.634462 0.023451 0.703610
Si Si2 0.858904 0.133081 0.212391
Si Si3 0.023475 0.634373 0.369082
Si Si4 0.864068 0.022666 0.869100
Si Si5 0.632903 0.360778 0.453405
Si Si6 0.023504 0.637001 0.965518
O O1 0.750000 0.012787 0.701034
O O2 0.608152 0.072245 0.748543
O O3 0.594713 0.094257 0.667159
O O4 0.576879 0.923122 0.699515
O O5 0.750000 0.096618 0.218254
O O6 0.854313 0.250000 0.212133
O O7 0.903658 0.104451 0.167369
O O8 0.013444 0.750000 0.366377
O O9 0.071807 0.608198 0.414173
O O10 0.923206 0.576795 0.364689
O O11 0.750000 0.003787 0.863827
O O12 0.925542 0.925542 0.864463
O O13 0.878403 0.058842 0.917164
O O14 0.603154 0.396847 0.500000
O O15 0.750000 0.356990 0.455137
O O16 0.599373 0.250000 0.446804
O O17 0.004441 0.750000 0.970903
O O18 0.926999 0.573002 0.970318
O O19 0.098400 0.598400 0.000000
#
# Coordination Sequence:
#
# PCOD9565344 Si02
#       6
#    16  16  16  16  16  16
#     4  10  20  33  50  72  96 122 153 190 234 284
#     4   9  17  29  45  65  90 120 152 184 217 257
#     4  10  20  32  47  68  93 124 162 200 237 276
#     4   9  17  29  45  66  92 120 150 186 230 280
#     4   8  14  26  45  68  92 117 148 190 238 285
#     4   9  18  31  46  66  92 121 155 195 237 283
#
# _framework density 15.819151
#
# number of rings (size 3 to 8) (size 9 to 14) (size 15 to 20)
#    0.000    2.833    0.000    2.000    0.000    3.500 
#    0.000    3.333    0.000    3.000    0.000    0.000 
#    0.000    7.000    0.000    0.667    0.000    0.167 
#
# Total GULP energy -534570.339509 kJ/mol
# GULP energy per Si atom -5568.441037 kJ/mol
# Density = 1.578315 g / cm^3
# Si number density = 15.819151 Si / 1000 Ang^3
#
#
#
# Elastic Constant Matrix: (Units=GPa)
#
#
# Indices 1 2 3 4 5 6 
#
# 1 76.0343 39.5652 48.5481 0.0000 0.0000 0.0000
# 2 39.5652 76.0342 48.5481 0.0000 0.0000 0.0000
# 3 48.5481 48.5481 116.3251 0.0000 0.0000 0.0000
# 4 0.0000 0.0000 0.0000 22.6916 0.0000 0.0000
# 5 0.0000 0.0000 0.0000 0.0000 22.6917 0.0000
# 6 0.0000 0.0000 0.0000 0.0000 0.0000 8.7578
#
#
#
# Elastic Compliance Matrix: (Units=1/GPa)
#
#
# Indices 1 2 3 4 5 6 
#
# 1 0.020370 -0.007050 -0.005559 0.000000 0.000000 0.000000
# 2 -0.007050 0.020370 -0.005559 0.000000 0.000000 0.000000
# 3 -0.005559 -0.005559 0.013237 0.000000 0.000000 0.000000
# 4 0.000000 0.000000 0.000000 0.044069 0.000000 0.000000
# 5 0.000000 0.000000 0.000000 0.000000 0.044069 0.000000
# 6 0.000000 0.000000 0.000000 0.000000 0.000000 0.114184
#
#
# Mechanical properties :
#
#
# Convention : Reuss Voigt Hill
#
# Bulk Modulus (GPa) = 56.68853 60.19070 58.43961
# Shear Modulus (GPa) = 16.74953 19.61035 18.17994
#
# Velocity S-wave (km/s) = 3.25747 3.52470 3.39372
# Velocity P-wave (km/s) = 7.07540 7.39571 7.23733
#
# Compressibility (1/GPa) = 0.01764025
#
# Stress axis : x y z
#
# Youngs Moduli (GPa) = 49.09157 49.09144 75.54775
#
# Poissons Ratio (x) = 0.34611 0.41997
# Poissons Ratio (y) = 0.34611 0.41997
# Poissons Ratio (z) = 0.27290 0.27290
#
# Static dielectric constant tensor:
#      x y z
#    x 1.509050 0.000000 0.000000 
#    y 0.000000 1.509050 0.000000 
#    z 0.000000 0.000000 1.551850 
# 
# From -- ./inp_files/7863.got.cif
#   From: 2010.05.17/outbox.cif.g08.bks.cpg/sg129_4_cif.got.tgz:7863.got - 2010.05.20 12:12:06.
