data_PCOD9565272
_publ_section_title
;
Structure prediction by ZEFSAII (Michael W. Deem and Ramdas Pophale) SiO2 
 PCOD9565272
Probable space group: P 4/N M M
;
_chemical_formula_sum "Si O2"
_cell_formula_units_Z 96
_cell_length_a 16.909618
_cell_length_b 16.909618
_cell_length_c 19.483223
_cell_angle_alpha 90.000000
_cell_angle_beta 90.000000
_cell_angle_gamma 90.000000
_cell_volume 5570.938893
_symmetry_space_group_name_H-M "P 4/N M M"
_symmetry_group_IT_number 129
_symmetry_cell_setting 'tetragonal'
loop_
_space_group_symop_operation_xyz
x,y,z
1/2-y,x,z
1/2-x,1/2-y,z
y,1/2-x,z
1/2+x,-y,-z
-x,1/2+y,-z
1/2+y,1/2+x,-z
-y,-x,-z
-x,-y,-z
1/2+y,-x,-z
1/2+x,1/2+y,-z
-y,1/2+x,-z
1/2-x,y,z
x,1/2-y,z
1/2-y,1/2-x,z
y,x,z
loop_
_atom_site_type_symbol
_atom_site_label
_atom_site_fract_x
_atom_site_fract_y
_atom_site_fract_z
Si Si1 0.340128 0.535874 0.971392
Si Si2 0.457750 0.338660 0.114664
Si Si3 0.658474 0.342295 0.275951
Si Si4 0.582329 0.046214 0.612819
Si Si5 0.585114 0.038254 0.172437
Si Si6 0.343181 0.470617 0.521724
O O1 0.250000 0.561068 0.962808
O O2 0.373923 0.510522 0.898141
O O3 0.392494 0.607507 0.000000
O O4 0.343193 0.472484 0.032689
O O5 0.471365 0.250000 0.137434
O O6 0.371477 0.371477 0.130451
O O7 0.519982 0.397219 0.149317
O O8 0.750000 0.348058 0.300310
O O9 0.647912 0.250000 0.253244
O O10 0.592614 0.364563 0.332580
O O11 0.644025 0.410705 0.219176
O O12 0.525983 0.111172 0.576322
O O13 0.523516 0.976485 0.639754
O O14 0.634676 0.007252 0.552594
O O15 0.536016 0.963984 0.203128
O O16 0.250000 0.468787 0.532591
O O17 0.385395 0.385395 0.525486
#
# Coordination Sequence:
#
# PCOD9565272 Si02
#       6
#    16  16  16  16  16  16
#     4   9  17  29  45  66  90 116 147 182 224 273
#     4   9  17  29  45  64  85 110 142 180 221 265
#     4  11  22  33  47  69  96 122 151 193 240 280
#     4   9  18  33  51  70  94 127 162 190 222 271
#     4  10  19  32  48  64  87 120 155 188 224 272
#     4   9  17  30  50  74  99 126 156 191 228 268
#
# _framework density 17.232284
#
# number of rings (size 3 to 8) (size 9 to 14) (size 15 to 20)
#    0.000    2.500    0.000    4.000    0.000    3.167 
#    0.000    0.000    0.000    4.000    0.000    0.000 
#    0.000   25.667    0.000    0.000    0.000    0.000 
#
# Total GULP energy -534542.963129 kJ/mol
# GULP energy per Si atom -5568.155866 kJ/mol
# Density = 1.719306 g / cm^3
# Si number density = 17.232284 Si / 1000 Ang^3
#
#
#
# Elastic Constant Matrix: (Units=GPa)
#
#
# Indices 1 2 3 4 5 6 
#
# 1 59.0989 23.6756 -7.4548 0.0000 0.0000 0.0000
# 2 23.6756 59.0975 -7.4545 0.0000 0.0000 0.0000
# 3 -7.4548 -7.4545 16.2263 0.0000 0.0000 0.0000
# 4 0.0000 0.0000 0.0000 16.8892 0.0000 0.0000
# 5 0.0000 0.0000 0.0000 0.0000 16.8885 0.0000
# 6 0.0000 0.0000 0.0000 0.0000 0.0000 19.6735
#
#
#
# Elastic Compliance Matrix: (Units=1/GPa)
#
#
# Indices 1 2 3 4 5 6 
#
# 1 0.020701 -0.007530 0.006051 0.000000 0.000000 0.000000
# 2 -0.007530 0.020701 0.006051 0.000000 0.000000 0.000000
# 3 0.006051 0.006051 0.067188 0.000000 0.000000 0.000000
# 4 0.000000 0.000000 0.000000 0.059209 0.000000 0.000000
# 5 0.000000 0.000000 0.000000 0.000000 0.059212 0.000000
# 6 0.000000 0.000000 0.000000 0.000000 0.000000 0.050830
#
#
# Mechanical properties :
#
#
# Convention : Reuss Voigt Hill
#
# Bulk Modulus (GPa) = 8.49369 16.88393 12.68881
# Shear Modulus (GPa) = 16.23685 19.06733 17.65209
#
# Velocity S-wave (km/s) = 3.07291 3.33000 3.20404
# Velocity P-wave (km/s) = 4.18689 4.96027 4.58990
#
# Compressibility (1/GPa) = 0.11773450
#
# Stress axis : x y z
#
# Youngs Moduli (GPa) = 48.30780 48.30682 14.88352
#
# Poissons Ratio (x) = 0.36374 -0.09006
# Poissons Ratio (y) = 0.36375 -0.09006
# Poissons Ratio (z) = -0.29232 -0.29230
#
# Static dielectric constant tensor:
#      x y z
#    x 1.577990 0.000000 0.000000 
#    y 0.000000 1.577990 0.000000 
#    z 0.000000 0.000000 1.609810 
# 
# From -- ./inp_files/5709.got.cif
#   From: 2010.05.17/outbox.cif.g08.bks.cpg/sg129_3_cif.got.tgz:5709.got - 2010.05.20 12:12:06.
