data_PCOD9565119
_publ_section_title
;
Structure prediction by ZEFSAII (Michael W. Deem and Ramdas Pophale) SiO2 
 PCOD9565119
Probable space group: P 4/N M M
;
_chemical_formula_sum "Si O2"
_cell_formula_units_Z 112
_cell_length_a 17.462674
_cell_length_b 17.462674
_cell_length_c 25.582409
_cell_angle_alpha 90.000000
_cell_angle_beta 90.000000
_cell_angle_gamma 90.000000
_cell_volume 7801.227283
_symmetry_space_group_name_H-M "P 4/N M M"
_symmetry_group_IT_number 129
_symmetry_cell_setting 'tetragonal'
loop_
_space_group_symop_operation_xyz
x,y,z
1/2-y,x,z
1/2-x,1/2-y,z
y,1/2-x,z
1/2+x,-y,-z
-x,1/2+y,-z
1/2+y,1/2+x,-z
-y,-x,-z
-x,-y,-z
1/2+y,-x,-z
1/2+x,1/2+y,-z
-y,1/2+x,-z
1/2-x,y,z
x,1/2-y,z
1/2-y,1/2-x,z
y,x,z
loop_
_atom_site_type_symbol
_atom_site_label
_atom_site_fract_x
_atom_site_fract_y
_atom_site_fract_z
Si Si1 0.948619 0.429659 0.366898
Si Si2 0.436394 0.562638 0.085548
Si Si3 0.659626 0.160493 0.833985
Si Si4 0.547324 0.161303 0.471713
Si Si5 0.837661 0.158677 0.290108
Si Si6 0.657651 0.530255 0.000486
Si Si7 0.162977 0.453723 0.574078
O O1 0.970382 0.376186 0.416078
O O2 0.902111 0.383756 0.323320
O O3 0.889435 0.490122 0.392151
O O4 0.022026 0.477975 0.348253
O O5 0.499405 0.499405 0.102145
O O6 0.393199 0.605493 0.131973
O O7 0.374982 0.517725 0.049110
O O8 0.481833 0.624440 0.049697
O O9 0.750000 0.145039 0.843262
O O10 0.646167 0.250000 0.847464
O O11 0.645681 0.152533 0.771897
O O12 0.616582 0.116582 0.500000
O O13 0.566647 0.250000 0.465022
O O14 0.479111 0.154524 0.513639
O O15 0.750000 0.135509 0.304344
O O16 0.842800 0.250000 0.299007
O O17 0.750000 0.536773 0.000669
O O18 0.611325 0.611325 0.000549
O O19 0.250000 0.462741 0.589379
O O20 0.130829 0.369172 0.580689
#
# Coordination Sequence:
#
# PCOD9565119 Si02
#       7
#    16  16  16  16  16  16  16
#     4  10  18  28  43  61  82 108 135 164 201 243
#     4   9  17  28  43  63  87 113 140 174 211 246
#     4   9  17  29  45  63  83 109 139 171 209 251
#     4   9  17  28  41  59  82 106 132 162 198 240
#     4   9  18  31  45  62  84 109 137 170 209 250
#     4   9  17  28  42  62  87 115 145 174 207 245
#     4   9  17  28  41  57  77 101 129 160 194 233
#
# _framework density 14.356716
#
# number of rings (size 3 to 8) (size 9 to 14) (size 15 to 20)
#    0.000    2.857    0.000    3.857    0.000    3.286 
#    0.000    0.000    0.000    3.429    0.000    0.000 
#    0.000    2.571    0.000   37.143    0.000    0.286 
#
# Total GULP energy -623546.753991 kJ/mol
# GULP energy per Si atom -5567.381732 kJ/mol
# Density = 1.432404 g / cm^3
# Si number density = 14.356716 Si / 1000 Ang^3
#
#
#
# Elastic Constant Matrix: (Units=GPa)
#
#
# Indices 1 2 3 4 5 6 
#
# 1 75.8312 48.1027 37.8604 0.0000 0.0000 0.0000
# 2 48.1027 75.8312 37.8604 0.0000 0.0000 0.0000
# 3 37.8604 37.8604 63.2157 0.0000 0.0000 0.0000
# 4 0.0000 0.0000 0.0000 19.1637 0.0000 0.0000
# 5 0.0000 0.0000 0.0000 0.0000 19.1637 0.0000
# 6 0.0000 0.0000 0.0000 0.0000 0.0000 22.7903
#
#
#
# Elastic Compliance Matrix: (Units=1/GPa)
#
#
# Indices 1 2 3 4 5 6 
#
# 1 0.024395 -0.011669 -0.007621 0.000000 0.000000 0.000000
# 2 -0.011669 0.024395 -0.007621 0.000000 0.000000 0.000000
# 3 -0.007621 -0.007621 0.024948 0.000000 0.000000 0.000000
# 4 0.000000 0.000000 0.000000 0.052182 0.000000 0.000000
# 5 0.000000 0.000000 0.000000 0.000000 0.052182 0.000000
# 6 0.000000 0.000000 0.000000 0.000000 0.000000 0.043878
#
#
# Mechanical properties :
#
#
# Convention : Reuss Voigt Hill
#
# Bulk Modulus (GPa) = 50.21801 51.39170 50.80485
# Shear Modulus (GPa) = 17.70282 18.29384 17.99833
#
# Velocity S-wave (km/s) = 3.51532 3.57352 3.54454
# Velocity P-wave (km/s) = 7.17853 7.27329 7.22606
#
# Compressibility (1/GPa) = 0.01991318
#
# Stress axis : x y z
#
# Youngs Moduli (GPa) = 40.99264 40.99264 40.08385
#
# Poissons Ratio (x) = 0.47836 0.30549
# Poissons Ratio (y) = 0.47836 0.30549
# Poissons Ratio (z) = 0.31242 0.31242
#
# Static dielectric constant tensor:
#      x y z
#    x 1.466990 0.000000 0.000000 
#    y 0.000000 1.466990 0.000000 
#    z 0.000000 0.000000 1.458540 
# 
# From -- ./inp_files/7214.got.cif
#   From: 2010.05.17/outbox.cif.g08.bks.cpg/sg129_4_cif.got.tgz:7214.got - 2010.05.20 12:12:06.
