data_PCOD9565873
_publ_section_title
;
Structure prediction by ZEFSAII (Michael W. Deem and Ramdas Pophale) SiO2 
 PCOD9565873
Probable space group: P 4/N C C
;
_chemical_formula_sum "Si O2"
_cell_formula_units_Z 104
_cell_length_a 13.671641
_cell_length_b 13.671641
_cell_length_c 23.773944
_cell_angle_alpha 90.000000
_cell_angle_beta 90.000000
_cell_angle_gamma 90.000000
_cell_volume 4443.677445
_symmetry_space_group_name_H-M "P 4/N C C"
_symmetry_group_IT_number 130
_symmetry_cell_setting 'tetragonal'
loop_
_space_group_symop_operation_xyz
x,y,z
1/2-y,x,z
1/2-x,1/2-y,z
y,1/2-x,z
1/2+x,-y,1/2-z
-x,1/2+y,1/2-z
1/2+y,1/2+x,1/2-z
-y,-x,1/2-z
-x,-y,-z
1/2+y,-x,-z
1/2+x,1/2+y,-z
-y,1/2+x,-z
1/2-x,y,1/2+z
x,1/2-y,1/2+z
1/2-y,1/2-x,1/2+z
y,x,1/2+z
loop_
_atom_site_type_symbol
_atom_site_label
_atom_site_fract_x
_atom_site_fract_y
_atom_site_fract_z
Si Si1 0.619613 0.032220 0.922980
Si Si2 0.750000 0.250000 0.750000
Si Si3 0.900756 0.817692 0.820665
Si Si4 0.227245 0.890336 0.856143
Si Si5 0.098202 0.193738 0.982886
Si Si6 0.750000 0.750000 0.695322
Si Si7 0.935717 0.876030 0.703328
Si Si8 0.402906 0.992644 0.889131
O O1 0.640885 0.141761 0.900082
O O2 0.503831 0.004643 0.923092
O O3 0.663891 0.958997 0.876924
O O4 0.664888 0.997031 0.981526
O O5 0.664043 0.240128 0.796413
O O6 0.796853 0.873726 0.818364
O O7 0.962772 0.857061 0.767841
O O8 0.186060 0.995031 0.836864
O O9 0.333435 0.898426 0.885361
O O10 0.194836 0.129053 0.994954
O O11 0.072249 0.168519 0.918611
O O12 0.824747 0.841778 0.699086
O O13 0.934224 0.982469 0.674877
#
# Coordination Sequence:
#
# PCOD9565873 Si02
#       8
#    16   4  16  16  16   4  16  16
#     4  11  25  41  62  94 134 174 220 276 338 412
#     4  12  28  48  64  90 140 196 236 264 312 406
#     4  11  20  35  60  91 127 165 211 276 351 417
#     4  11  25  44  63  92 131 180 227 269 324 403
#     4  11  24  43  72 102 129 163 214 288 359 413
#     4  12  16  32  64  96 130 160 200 280 364 402
#     4  11  20  35  62  96 126 160 208 277 349 408
#     4  11  24  41  65  95 130 171 222 278 338 402
#
# _framework density 23.404038
#
# number of rings (size 3 to 8) (size 9 to 14) (size 15 to 20)
#    0.000    0.923    3.077    4.154    0.000    8.000 
#    0.000    0.000    0.000    0.000    0.000    0.000 
#    0.000    0.000    0.000    0.000    0.000    0.000 
#
# Total GULP energy -579408.331835 kJ/mol
# GULP energy per Si atom -5571.233960 kJ/mol
# Density = 2.335077 g / cm^3
# Si number density = 23.404038 Si / 1000 Ang^3
#
#
#
# Elastic Constant Matrix: (Units=GPa)
#
#
# Indices 1 2 3 4 5 6 
#
# 1 62.7041 11.1934 3.5467 0.0000 0.0000 0.0000
# 2 11.1934 62.7041 3.5467 0.0000 0.0000 0.0000
# 3 3.5467 3.5467 67.6048 0.0000 0.0000 0.0000
# 4 0.0000 0.0000 0.0000 27.5846 0.0000 0.0000
# 5 0.0000 0.0000 0.0000 0.0000 27.5846 0.0000
# 6 0.0000 0.0000 0.0000 0.0000 0.0000 25.5374
#
#
#
# Elastic Compliance Matrix: (Units=1/GPa)
#
#
# Indices 1 2 3 4 5 6 
#
# 1 0.016507 -0.002906 -0.000714 0.000000 0.000000 0.000000
# 2 -0.002906 0.016507 -0.000714 0.000000 0.000000 0.000000
# 3 -0.000714 -0.000714 0.014867 0.000000 0.000000 0.000000
# 4 0.000000 0.000000 0.000000 0.036252 0.000000 0.000000
# 5 0.000000 0.000000 0.000000 0.000000 0.036252 0.000000
# 6 0.000000 0.000000 0.000000 0.000000 0.000000 0.039158
#
#
# Mechanical properties :
#
#
# Convention : Reuss Voigt Hill
#
# Bulk Modulus (GPa) = 25.50105 25.50964 25.50535
# Shear Modulus (GPa) = 27.58139 27.78972 27.68556
#
# Velocity S-wave (km/s) = 3.43664 3.44959 3.44312
# Velocity P-wave (km/s) = 5.16401 5.17586 5.16994
#
# Compressibility (1/GPa) = 0.03921408
#
# Stress axis : x y z
#
# Youngs Moduli (GPa) = 60.58004 60.58004 67.26434
#
# Poissons Ratio (x) = 0.17607 0.04799
# Poissons Ratio (y) = 0.17607 0.04799
# Poissons Ratio (z) = 0.04323 0.04323
#
# Static dielectric constant tensor:
#      x y z
#    x 1.934080 0.000000 0.000000 
#    y 0.000000 1.934080 0.000000 
#    z 0.000000 0.000000 1.954630 
# 
# From -- ./inp_files/4347.got.cif
#   From: 2010.05.17/outbox.cif.g08.bks.cpg/sg130_3_cif.got.tgz:4347.got - 2010.05.20 12:17:35.
