data_PCOD9565997
_publ_section_title
;
Structure prediction by ZEFSAII (Michael W. Deem and Ramdas Pophale) SiO2 
 PCOD9565997
Probable space group: P 4/N C C
;
_chemical_formula_sum "Si O2"
_cell_formula_units_Z 76
_cell_length_a 16.080592
_cell_length_b 16.080592
_cell_length_c 14.171759
_cell_angle_alpha 90.000000
_cell_angle_beta 90.000000
_cell_angle_gamma 90.000000
_cell_volume 3664.610523
_symmetry_space_group_name_H-M "P 4/N C C"
_symmetry_group_IT_number 130
_symmetry_cell_setting 'tetragonal'
loop_
_space_group_symop_operation_xyz
x,y,z
1/2-y,x,z
1/2-x,1/2-y,z
y,1/2-x,z
1/2+x,-y,1/2-z
-x,1/2+y,1/2-z
1/2+y,1/2+x,1/2-z
-y,-x,1/2-z
-x,-y,-z
1/2+y,-x,-z
1/2+x,1/2+y,-z
-y,1/2+x,-z
1/2-x,y,1/2+z
x,1/2-y,1/2+z
1/2-y,1/2-x,1/2+z
y,x,1/2+z
loop_
_atom_site_type_symbol
_atom_site_label
_atom_site_fract_x
_atom_site_fract_y
_atom_site_fract_z
Si Si1 0.376886 0.623115 0.553716
Si Si2 0.457622 0.168350 0.453168
Si Si3 0.542378 0.831648 0.953168
Si Si4 0.364841 0.635160 0.750000
Si Si5 0.183008 0.959942 0.250000
Si Si6 0.250000 0.750000 0.500000
O O1 0.339537 0.548878 0.496432
O O2 0.451121 0.660467 0.496431
O O3 0.403806 0.596196 0.656542
O O4 0.306842 0.693158 0.565319
O O5 0.417756 0.249999 0.500001
O O6 0.407880 0.092119 0.499999
O O7 0.479329 0.177417 0.342061
O O8 0.520672 0.822584 0.842060
O O9 0.401772 0.731810 0.750001
O O10 0.105431 0.894570 0.250000
#
# Coordination Sequence:
#
# PCOD9565997 Si02
#       6
#    16  16  16   8  16   4
#     4  12  23  40  66 105 143 181 230 307 378 443
#     4  12  27  48  69 102 145 193 251 308 364 442
#     4  12  27  48  69 102 145 193 251 308 364 442
#     4  12  23  36  72 104 146 182 230 293 374 446
#     4  12  25  41  73 110 144 194 236 295 389 456
#     4  12  20  38  68  96 148 174 220 302 380 436
#
# _framework density 20.738902
#
# number of rings (size 3 to 8) (size 9 to 14) (size 15 to 20)
#    0.000    0.000    8.421    0.947    2.947    3.789 
#    0.000    0.000    0.000    2.526    0.000    0.000 
#    0.000    0.000    0.000    0.000    0.000    0.000 
#
# Total GULP energy -423322.184419 kJ/mol
# GULP energy per Si atom -5570.028742 kJ/mol
# Density = 2.069170 g / cm^3
# Si number density = 20.738902 Si / 1000 Ang^3
#
#
#
# Elastic Constant Matrix: (Units=GPa)
#
#
# Indices 1 2 3 4 5 6 
#
# 1 69.1860 66.4833 39.9339 0.0000 0.0000 0.0000
# 2 66.4833 69.1861 39.9338 0.0000 0.0000 0.0000
# 3 39.9339 39.9338 233.0594 0.0000 0.0000 0.0000
# 4 0.0000 0.0000 0.0000 11.7711 0.0000 0.0000
# 5 0.0000 0.0000 0.0000 0.0000 11.7717 0.0000
# 6 0.0000 0.0000 0.0000 0.0000 0.0000 20.6852
#
#
#
# Elastic Compliance Matrix: (Units=1/GPa)
#
#
# Indices 1 2 3 4 5 6 
#
# 1 0.189096 -0.180898 -0.001405 0.000000 0.000000 0.000000
# 2 -0.180898 0.189096 -0.001405 0.000000 0.000000 0.000000
# 3 -0.001405 -0.001405 0.004772 0.000000 0.000000 0.000000
# 4 0.000000 0.000000 0.000000 0.084954 0.000000 0.000000
# 5 0.000000 0.000000 0.000000 0.000000 0.084949 0.000000
# 6 0.000000 0.000000 0.000000 0.000000 0.000000 0.048344
#
#
# Mechanical properties :
#
#
# Convention : Reuss Voigt Hill
#
# Bulk Modulus (GPa) = 64.31267 73.79262 69.05265
# Shear Modulus (GPa) = 5.13448 23.85097 14.49273
#
# Velocity S-wave (km/s) = 1.57517 3.39493 2.64639
# Velocity P-wave (km/s) = 5.86397 7.14328 6.53500
#
# Compressibility (1/GPa) = 0.01554903
#
# Stress axis : x y z
#
# Youngs Moduli (GPa) = 5.28832 5.28833 209.55063
#
# Poissons Ratio (x) = 0.95665 0.29438
# Poissons Ratio (y) = 0.95665 0.29432
# Poissons Ratio (z) = 0.00743 0.00743
#
# Static dielectric constant tensor:
#      x y z
#    x 2.246180 0.000000 0.000000 
#    y 0.000000 2.246150 0.000000 
#    z 0.000000 0.000000 1.793360 
# 
# From -- ./inp_files/2331.got.cif
#   From: 2010.05.17/outbox.cif.g08.bks.cpg/sg130_2_cif.got.tgz:2331.got - 2010.05.20 12:17:35.
