data_PCOD9565803
_publ_section_title
;
Structure prediction by ZEFSAII (Michael W. Deem and Ramdas Pophale) SiO2 
 PCOD9565803
Probable space group: P 4/N C C
;
_chemical_formula_sum "Si O2"
_cell_formula_units_Z 72
_cell_length_a 19.387320
_cell_length_b 19.387320
_cell_length_c 8.486490
_cell_angle_alpha 90.000000
_cell_angle_beta 90.000000
_cell_angle_gamma 90.000000
_cell_volume 3189.801524
_symmetry_space_group_name_H-M "P 4/N C C"
_symmetry_group_IT_number 130
_symmetry_cell_setting 'tetragonal'
loop_
_space_group_symop_operation_xyz
x,y,z
1/2-y,x,z
1/2-x,1/2-y,z
y,1/2-x,z
1/2+x,-y,1/2-z
-x,1/2+y,1/2-z
1/2+y,1/2+x,1/2-z
-y,-x,1/2-z
-x,-y,-z
1/2+y,-x,-z
1/2+x,1/2+y,-z
-y,1/2+x,-z
1/2-x,y,1/2+z
x,1/2-y,1/2+z
1/2-y,1/2-x,1/2+z
y,x,1/2+z
loop_
_atom_site_type_symbol
_atom_site_label
_atom_site_fract_x
_atom_site_fract_y
_atom_site_fract_z
Si Si1 0.946936 0.053065 0.750000
Si Si2 0.104613 0.405898 0.209214
Si Si3 0.339173 0.782382 0.413323
Si Si4 0.115720 0.551208 0.086612
Si Si5 0.197470 0.145447 0.974610
O O1 0.921339 0.076143 0.574944
O O2 0.027550 0.073096 0.757208
O O3 0.121359 0.469053 0.092675
O O4 0.163856 0.401399 0.339858
O O5 0.108902 0.330796 0.130780
O O6 0.305681 0.805681 0.250000
O O7 0.324885 0.703993 0.455401
O O8 0.416318 0.808261 0.413747
O O9 0.078799 0.578799 0.250000
O O10 0.278479 0.161129 0.969558
#
# Coordination Sequence:
#
# PCOD9565803 Si02
#       5
#     8  16  16  16  16
#     4  12  24  44  74  97 150 187 220 298 364 416
#     4  12  22  46  69 100 139 186 231 290 370 431
#     4  10  22  42  67  95 139 186 230 285 348 414
#     4  11  24  43  67 104 139 183 239 288 346 434
#     4  11  25  46  71 102 142 187 242 306 367 436
#
# _framework density 22.571936000000001
#
# number of rings (size 3 to 8) (size 9 to 14) (size 15 to 20)
#    0.000    0.889    3.333    4.667    3.111    1.778 
#   16.000    0.000    0.000    0.000    0.000    0.000 
#    0.000    0.000    0.000    0.000    0.000    0.000 
#
# Total GULP energy -401448.221661 kJ/mol
# GULP energy per Si atom -5575.669745 kJ/mol
# Density = 2.252056 g / cm^3
# Si number density = 22.571936 Si / 1000 Ang^3
#
#
#
# Elastic Constant Matrix: (Units=GPa)
#
#
# Indices 1 2 3 4 5 6 
#
# 1 71.6707 45.3665 12.2597 0.0000 0.0000 0.0000
# 2 45.3665 71.6689 12.2592 0.0000 0.0000 0.0000
# 3 12.2597 12.2592 106.5286 0.0000 0.0000 0.0000
# 4 0.0000 0.0000 0.0000 19.2544 0.0000 0.0000
# 5 0.0000 0.0000 0.0000 0.0000 19.2550 0.0000
# 6 0.0000 0.0000 0.0000 0.0000 0.0000 39.4993
#
#
#
# Elastic Compliance Matrix: (Units=1/GPa)
#
#
# Indices 1 2 3 4 5 6 
#
# 1 0.023386 -0.014631 -0.001008 0.000000 0.000000 0.000000
# 2 -0.014631 0.023387 -0.001008 0.000000 0.000000 0.000000
# 3 -0.001008 -0.001008 0.009619 0.000000 0.000000 0.000000
# 4 0.000000 0.000000 0.000000 0.051936 0.000000 0.000000
# 5 0.000000 0.000000 0.000000 0.000000 0.051935 0.000000
# 6 0.000000 0.000000 0.000000 0.000000 0.000000 0.025317
#
#
# Mechanical properties :
#
#
# Convention : Reuss Voigt Hill
#
# Bulk Modulus (GPa) = 43.29078 43.29321 43.29200
# Shear Modulus (GPa) = 22.06793 27.60058 24.83426
#
# Velocity S-wave (km/s) = 3.13017 3.50063 3.32057
# Velocity P-wave (km/s) = 5.68195 5.96330 5.82432
#
# Compressibility (1/GPa) = 0.02309960
#
# Stress axis : x y z
#
# Youngs Moduli (GPa) = 42.75978 42.75876 103.96029
#
# Poissons Ratio (x) = 0.62562 0.10475
# Poissons Ratio (y) = 0.62563 0.10474
# Poissons Ratio (z) = 0.04309 0.04308
#
# Static dielectric constant tensor:
#      x y z
#    x -0.668630 0.000000 0.000000 
#    y 0.000000 -0.639040 0.000000 
#    z 0.000000 0.000000 1.873100 
# 
# From -- ./inp_files/782.got.cif
#   From: 2010.05.17/outbox.cif.g08.bks.cpg/sg130_1_cif.got.tgz:782.got - 2010.05.20 12:17:35.
