data_PCOD9565449
_publ_section_title
;
Structure prediction by ZEFSAII (Michael W. Deem and Ramdas Pophale) SiO2 
 PCOD9565449
Probable space group: P 4/N M M
;
_chemical_formula_sum "Si O2"
_cell_formula_units_Z 96
_cell_length_a 22.797904
_cell_length_b 22.797904
_cell_length_c 9.958653
_cell_angle_alpha 90.000000
_cell_angle_beta 90.000000
_cell_angle_gamma 90.000000
_cell_volume 5175.954395
_symmetry_space_group_name_H-M "P 4/N M M"
_symmetry_group_IT_number 129
_symmetry_cell_setting 'tetragonal'
loop_
_space_group_symop_operation_xyz
x,y,z
1/2-y,x,z
1/2-x,1/2-y,z
y,1/2-x,z
1/2+x,-y,-z
-x,1/2+y,-z
1/2+y,1/2+x,-z
-y,-x,-z
-x,-y,-z
1/2+y,-x,-z
1/2+x,1/2+y,-z
-y,1/2+x,-z
1/2-x,y,z
x,1/2-y,z
1/2-y,1/2-x,z
y,x,z
loop_
_atom_site_type_symbol
_atom_site_label
_atom_site_fract_x
_atom_site_fract_y
_atom_site_fract_z
Si Si1 0.590428 0.682905 0.448686
Si Si2 0.817985 0.320695 0.151358
Si Si3 0.887261 0.983192 0.235311
Si Si4 0.523533 0.682522 0.722104
Si Si5 0.387424 0.905933 0.340188
Si Si6 0.917934 0.680238 0.009787
O O1 0.589304 0.750000 0.404570
O O2 0.653217 0.653217 0.429304
O O3 0.544643 0.645017 0.363938
O O4 0.570492 0.679383 0.602498
O O5 0.750000 0.338987 0.167840
O O6 0.819489 0.250000 0.153921
O O7 0.857903 0.346546 0.267962
O O8 0.838000 0.338000 0.000000
O O9 0.947155 0.947155 0.213386
O O10 0.844429 0.966543 0.112984
O O11 0.899865 0.050151 0.266518
O O12 0.501331 0.750000 0.726855
O O13 0.469577 0.640309 0.688335
O O14 0.555828 0.670336 0.861676
O O15 0.395003 0.895003 0.500000
O O16 0.907619 0.750000 0.028026
O O17 0.859564 0.640437 0.029389
#
# Coordination Sequence:
#
# PCOD9565449 Si02
#       6
#    16  16  16  16  16  16
#     4  10  20  37  59  84 118 155 195 246 303 360
#     4   9  21  41  62  87 121 156 194 247 302 352
#     4  10  23  40  58  85 120 157 198 246 297 348
#     4  10  22  39  59  87 123 156 197 252 303 349
#     4  12  24  39  61  91 117 162 210 245 293 360
#     4  10  22  41  64  91 123 158 198 248 305 362
#
# _framework density 18.547305000000001
#
# number of rings (size 3 to 8) (size 9 to 14) (size 15 to 20)
#    0.000    1.833    1.667    2.000    2.333    4.667 
#    0.000    2.500    0.000    6.000    0.000    0.000 
#    0.000    0.000    0.000    0.000    0.000    0.000 
#
# Total GULP energy -535919.593020 kJ/mol
# GULP energy per Si atom -5582.495761 kJ/mol
# Density = 1.850509 g / cm^3
# Si number density = 18.547305 Si / 1000 Ang^3
#
#
#
# Elastic Constant Matrix: (Units=GPa)
#
#
# Indices 1 2 3 4 5 6 
#
# 1 147.4129 -46.1418 2.7809 0.0000 0.0000 0.0000
# 2 -46.1418 147.4129 2.7809 0.0000 0.0000 0.0000
# 3 2.7809 2.7809 67.0278 0.0000 0.0000 0.0000
# 4 0.0000 0.0000 0.0000 24.3306 0.0000 0.0000
# 5 0.0000 0.0000 0.0000 0.0000 24.3306 0.0000
# 6 0.0000 0.0000 0.0000 0.0000 0.0000 18.5911
#
#
#
# Elastic Compliance Matrix: (Units=1/GPa)
#
#
# Indices 1 2 3 4 5 6 
#
# 1 0.007532 0.002365 -0.000411 0.000000 0.000000 0.000000
# 2 0.002365 0.007532 -0.000411 0.000000 0.000000 0.000000
# 3 -0.000411 -0.000411 0.014953 0.000000 0.000000 0.000000
# 4 0.000000 0.000000 0.000000 0.041101 0.000000 0.000000
# 5 0.000000 0.000000 0.000000 0.000000 0.041101 0.000000
# 6 0.000000 0.000000 0.000000 0.000000 0.000000 0.053789
#
#
# Mechanical properties :
#
#
# Convention : Reuss Voigt Hill
#
# Bulk Modulus (GPa) = 30.20702 31.18816 30.69759
# Shear Modulus (GPa) = 28.74325 40.27937 34.51131
#
# Velocity S-wave (km/s) = 3.94093 4.66522 4.31828
# Velocity P-wave (km/s) = 6.08520 6.77281 6.43819
#
# Compressibility (1/GPa) = 0.03310489
#
# Stress axis : x y z
#
# Youngs Moduli (GPa) = 132.77097 132.77097 66.87509
#
# Poissons Ratio (x) = -0.31404 0.02746
# Poissons Ratio (y) = -0.31404 0.02746
# Poissons Ratio (z) = 0.05452 0.05452
#
# Static dielectric constant tensor:
#      x y z
#    x 1.626350 0.000000 0.000000 
#    y 0.000000 1.626350 0.000000 
#    z 0.000000 0.000000 1.644920 
# 
# From -- ./inp_files/2613.got.cif
#   From: 2010.05.17/outbox.cif.g08.bks.cpg/sg129_2_cif.got.tgz:2613.got - 2010.05.20 12:12:06.
