data_PCOD9565327
_publ_section_title
;
Structure prediction by ZEFSAII (Michael W. Deem and Ramdas Pophale) SiO2 
 PCOD9565327
Probable space group: P 4/N M M
;
_chemical_formula_sum "Si O2"
_cell_formula_units_Z 60
_cell_length_a 14.921126
_cell_length_b 14.921126
_cell_length_c 16.047838
_cell_angle_alpha 90.000000
_cell_angle_beta 90.000000
_cell_angle_gamma 90.000000
_cell_volume 3572.890670
_symmetry_space_group_name_H-M "P 4/N M M"
_symmetry_group_IT_number 129
_symmetry_cell_setting 'tetragonal'
loop_
_space_group_symop_operation_xyz
x,y,z
1/2-y,x,z
1/2-x,1/2-y,z
y,1/2-x,z
1/2+x,-y,-z
-x,1/2+y,-z
1/2+y,1/2+x,-z
-y,-x,-z
-x,-y,-z
1/2+y,-x,-z
1/2+x,1/2+y,-z
-y,1/2+x,-z
1/2-x,y,z
x,1/2-y,z
1/2-y,1/2-x,z
y,x,z
loop_
_atom_site_type_symbol
_atom_site_label
_atom_site_fract_x
_atom_site_fract_y
_atom_site_fract_z
Si Si1 0.146904 0.646904 0.000000
Si Si2 0.750000 0.600488 0.430932
Si Si3 0.750000 0.250000 0.699049
Si Si4 0.914145 0.063986 0.167522
Si Si5 0.944710 0.250000 0.702924
Si Si6 0.549193 0.250000 0.234207
Si Si7 0.599054 0.750000 0.625338
O O1 0.128842 0.581960 0.922737
O O2 0.136976 0.750000 0.971399
O O3 0.836265 0.663736 0.418424
O O4 0.750000 0.521042 0.365615
O O5 0.750000 0.572613 0.527913
O O6 0.847338 0.250000 0.657633
O O7 0.750000 0.157172 0.750695
O O8 0.836722 0.050653 0.236811
O O9 0.967077 0.156088 0.188437
O O10 0.980905 0.980905 0.167189
O O11 0.487788 0.250000 0.316497
O O12 0.663428 0.663428 0.639651
#
# Coordination Sequence:
#
# PCOD9565327 Si02
#       7
#     8   8   4  16   8   8   8
#     4  11  21  36  58  78 105 143 178 220 266 313
#     4   9  18  34  56  79 105 139 176 215 262 318
#     4   8  20  32  49  69 104 132 170 212 260 297
#     4  11  21  34  55  80 107 139 175 221 270 311
#     4  10  19  35  53  80 105 137 178 222 257 317
#     4  10  19  35  53  80 105 137 178 222 257 317
#     4   9  18  34  56  79 105 139 176 215 262 318
#
# _framework density 16.793123999999999
#
# number of rings (size 3 to 8) (size 9 to 14) (size 15 to 20)
#    0.000    2.000    2.667    2.800    0.000    0.000 
#    0.000    6.000    0.000   14.400    0.000    1.867 
#    0.000    0.000    0.000    0.000    0.000    0.000 
#
# Total GULP energy -334313.716172 kJ/mol
# GULP energy per Si atom -5571.895270 kJ/mol
# Density = 1.675490 g / cm^3
# Si number density = 16.793124 Si / 1000 Ang^3
#
#
#
# Elastic Constant Matrix: (Units=GPa)
#
#
# Indices 1 2 3 4 5 6 
#
# 1 90.7961 33.5104 33.2553 0.0000 0.0000 0.0000
# 2 33.5104 90.7961 33.2553 0.0000 0.0000 0.0000
# 3 33.2553 33.2553 71.5373 0.0000 0.0000 0.0000
# 4 0.0000 0.0000 0.0000 17.1991 0.0000 0.0000
# 5 0.0000 0.0000 0.0000 0.0000 17.1991 0.0000
# 6 0.0000 0.0000 0.0000 0.0000 0.0000 21.5608
#
#
#
# Elastic Compliance Matrix: (Units=1/GPa)
#
#
# Indices 1 2 3 4 5 6 
#
# 1 0.014082 -0.003374 -0.004978 0.000000 0.000000 0.000000
# 2 -0.003374 0.014082 -0.004978 0.000000 0.000000 0.000000
# 3 -0.004978 -0.004978 0.018607 0.000000 0.000000 0.000000
# 4 0.000000 0.000000 0.000000 0.058142 0.000000 0.000000
# 5 0.000000 0.000000 0.000000 0.000000 0.058142 0.000000
# 6 0.000000 0.000000 0.000000 0.000000 0.000000 0.046380
#
#
# Mechanical properties :
#
#
# Convention : Reuss Voigt Hill
#
# Bulk Modulus (GPa) = 49.72259 50.35239 50.03749
# Shear Modulus (GPa) = 20.59309 21.39904 20.99607
#
# Velocity S-wave (km/s) = 3.50563 3.57357 3.53976
# Velocity P-wave (km/s) = 6.78668 6.86121 6.82405
#
# Compressibility (1/GPa) = 0.02011158
#
# Stress axis : x y z
#
# Youngs Moduli (GPa) = 71.01163 71.01163 53.74391
#
# Poissons Ratio (x) = 0.23961 0.26753
# Poissons Ratio (y) = 0.23961 0.26753
# Poissons Ratio (z) = 0.35348 0.35348
#
# Static dielectric constant tensor:
#      x y z
#    x 1.568180 0.000000 0.000000 
#    y 0.000000 1.568180 0.000000 
#    z 0.000000 0.000000 1.555170 
# 
# From -- ./inp_files/4507.got.cif
#   From: 2010.05.17/outbox.cif.g08.bks.cpg/sg129_3_cif.got.tgz:4507.got - 2010.05.20 12:12:06.
