data_PCOD9565248
_publ_section_title
;
Structure prediction by ZEFSAII (Michael W. Deem and Ramdas Pophale) SiO2 
 PCOD9565248
Probable space group: P 4/N M M
;
_chemical_formula_sum "Si O2"
_cell_formula_units_Z 112
_cell_length_a 14.822186
_cell_length_b 14.822186
_cell_length_c 25.518635
_cell_angle_alpha 90.000000
_cell_angle_beta 90.000000
_cell_angle_gamma 90.000000
_cell_volume 5606.372602
_symmetry_space_group_name_H-M "P 4/N M M"
_symmetry_group_IT_number 129
_symmetry_cell_setting 'tetragonal'
loop_
_space_group_symop_operation_xyz
x,y,z
1/2-y,x,z
1/2-x,1/2-y,z
y,1/2-x,z
1/2+x,-y,-z
-x,1/2+y,-z
1/2+y,1/2+x,-z
-y,-x,-z
-x,-y,-z
1/2+y,-x,-z
1/2+x,1/2+y,-z
-y,1/2+x,-z
1/2-x,y,z
x,1/2-y,z
1/2-y,1/2-x,z
y,x,z
loop_
_atom_site_type_symbol
_atom_site_label
_atom_site_fract_x
_atom_site_fract_y
_atom_site_fract_z
Si Si1 0.001322 0.353062 0.214093
Si Si2 0.853501 0.999495 0.361610
Si Si3 0.348138 0.932243 0.924158
Si Si4 0.354804 0.999898 0.810497
Si Si5 0.501546 0.853058 0.660255
Si Si6 0.012837 0.154688 0.039825
Si Si7 0.146551 0.000683 0.512301
O O1 0.000690 0.250000 0.193977
O O2 0.909495 0.409697 0.205248
O O3 0.011920 0.347922 0.276939
O O4 0.083604 0.416397 0.193773
O O5 0.750000 0.999789 0.342093
O O6 0.910182 0.090230 0.349923
O O7 0.849551 0.992108 0.424633
O O8 0.915597 0.915597 0.342322
O O9 0.250000 0.889599 0.922865
O O10 0.356496 0.994905 0.873857
O O11 0.422490 0.855958 0.927418
O O12 0.354872 0.987520 0.978441
O O13 0.250000 0.001568 0.794045
O O14 0.414648 0.085353 0.792852
O O15 0.500135 0.750000 0.640271
O O16 0.584270 0.915730 0.640137
O O17 0.058002 0.250000 0.047475
O O18 0.073434 0.073434 0.056482
O O19 0.089827 0.910174 0.500000
O O20 0.250000 0.000165 0.493016
O O21 0.084785 0.084785 0.493253
#
# Coordination Sequence:
#
# PCOD9565248 Si02
#       7
#    16  16  16  16  16  16  16
#     4   9  19  35  54  76 100 127 160 198 240 285
#     4   9  18  32  50  72  98 130 167 206 248 292
#     4   9  18  33  52  70  89 118 155 194 235 272
#     4  10  20  34  52  73  98 127 159 196 237 282
#     4   9  18  33  52  74 100 128 160 199 241 287
#     4  10  19  31  48  69  95 124 152 185 224 269
#     4   9  18  32  49  70  97 129 166 208 251 295
#
# _framework density 19.977266
#
# number of rings (size 3 to 8) (size 9 to 14) (size 15 to 20)
#    0.000    2.714    0.000    1.714    0.000    3.571 
#    0.000    8.571    0.000    2.571    0.000   10.000 
#    0.000    0.000    0.000    0.000    0.000    0.000 
#
# Total GULP energy -624228.248578 kJ/mol
# GULP energy per Si atom -5573.466505 kJ/mol
# Density = 1.993180 g / cm^3
# Si number density = 19.977266 Si / 1000 Ang^3
#
#
#
# Elastic Constant Matrix: (Units=GPa)
#
#
# Indices 1 2 3 4 5 6 
#
# 1 173.9963 98.7904 7.7746 0.0000 0.0000 0.0000
# 2 98.7904 173.9952 7.7754 0.0000 0.0000 0.0000
# 3 7.7746 7.7754 36.9996 0.0000 0.0000 0.0000
# 4 0.0000 0.0000 0.0000 15.9750 0.0000 0.0000
# 5 0.0000 0.0000 0.0000 0.0000 15.9749 0.0000
# 6 0.0000 0.0000 0.0000 0.0000 0.0000 -4.9234
#
#
#
# Elastic Compliance Matrix: (Units=1/GPa)
#
#
# Indices 1 2 3 4 5 6 
#
# 1 0.008504 -0.004793 -0.000780 0.000000 0.000000 0.000000
# 2 -0.004793 0.008504 -0.000780 0.000000 0.000000 0.000000
# 3 -0.000780 -0.000780 0.027355 0.000000 0.000000 0.000000
# 4 0.000000 0.000000 0.000000 0.062598 0.000000 0.000000
# 5 0.000000 0.000000 0.000000 0.000000 0.062598 0.000000
# 6 0.000000 0.000000 0.000000 0.000000 0.000000 -0.203111
#
#
# Mechanical properties :
#
#
# Convention : Reuss Voigt Hill
#
# Bulk Modulus (GPa) = 31.58864 68.18577 49.88721
# Shear Modulus (GPa) = -485.68456 23.44866 -231.11795
#
# Velocity S-wave (km/s) = -15.60918 3.42975 -10.76762
# Velocity P-wave (km/s) = 17.57883 7.06328 11.38256
#
# Compressibility (1/GPa) = 0.03165695
#
# Stress axis : x y z
#
# Youngs Moduli (GPa) = 117.59737 117.59637 36.55636
#
# Poissons Ratio (x) = 0.56368 0.02850
# Poissons Ratio (y) = 0.56368 0.02851
# Poissons Ratio (z) = 0.09167 0.09170
#
# Static dielectric constant tensor:
#      x y z
#    x 1.704720 0.000000 0.000000 
#    y 0.000000 1.704720 0.000000 
#    z 0.000000 0.000000 1.754740 
# 
# From -- ./inp_files/7563.got.cif
#   From: 2010.05.17/outbox.cif.g08.bks.cpg/sg129_4_cif.got.tgz:7563.got - 2010.05.20 12:12:06.
