data_PCOD9565656
_publ_section_title
;
Structure prediction by ZEFSAII (Michael W. Deem and Ramdas Pophale) SiO2 
 PCOD9565656
Probable space group: P 4/N C C
;
_chemical_formula_sum "Si O2"
_cell_formula_units_Z 96
_cell_length_a 17.287379
_cell_length_b 17.287379
_cell_length_c 16.599091
_cell_angle_alpha 90.000000
_cell_angle_beta 90.000000
_cell_angle_gamma 90.000000
_cell_volume 4960.695989
_symmetry_space_group_name_H-M "P 4/N C C"
_symmetry_group_IT_number 130
_symmetry_cell_setting 'tetragonal'
loop_
_space_group_symop_operation_xyz
x,y,z
1/2-y,x,z
1/2-x,1/2-y,z
y,1/2-x,z
1/2+x,-y,1/2-z
-x,1/2+y,1/2-z
1/2+y,1/2+x,1/2-z
-y,-x,1/2-z
-x,-y,-z
1/2+y,-x,-z
1/2+x,1/2+y,-z
-y,1/2+x,-z
1/2-x,y,1/2+z
x,1/2-y,1/2+z
1/2-y,1/2-x,1/2+z
y,x,1/2+z
loop_
_atom_site_type_symbol
_atom_site_label
_atom_site_fract_x
_atom_site_fract_y
_atom_site_fract_z
Si Si1 0.972847 0.857908 0.791272
Si Si2 0.383274 0.394528 0.970181
Si Si3 0.605983 0.046666 0.626237
Si Si4 0.167684 0.347122 0.793865
Si Si5 0.240734 0.031733 0.559737
Si Si6 0.217235 0.866437 0.988018
O O1 0.888633 0.891228 0.767602
O O2 0.966380 0.782573 0.847018
O O3 0.011414 0.848667 0.703175
O O4 0.027844 0.916455 0.839721
O O5 0.410500 0.478404 0.937807
O O6 0.363601 0.350432 0.887048
O O7 0.308457 0.411821 0.026491
O O8 0.442760 0.338952 0.015501
O O9 0.661142 0.109338 0.584672
O O10 0.145442 0.257753 0.780232
O O11 0.265074 0.945254 0.535217
O O12 0.299266 0.828371 0.964057
#
# Coordination Sequence:
#
# PCOD9565656 Si02
#       6
#    16  16  16  16  16  16
#     4  10  21  37  58  88 127 159 203 254 324 372
#     4  10  21  37  63  87 121 162 214 255 307 370
#     4   9  20  41  62  87 123 165 199 263 326 376
#     4  10  20  37  57  84 123 170 206 251 310 374
#     4  11  22  37  58  95 120 161 210 262 306 380
#     4  10  20  40  66  89 117 158 212 264 311 373
#
# _framework density 19.352124
#
# number of rings (size 3 to 8) (size 9 to 14) (size 15 to 20)
#    0.000    2.000    3.333    0.000    2.333    1.000 
#    0.000    0.833    0.000    0.000    0.000    0.000 
#    0.000    0.000    0.000    0.000    0.000    0.000 
#
# Total GULP energy -535054.461867 kJ/mol
# GULP energy per Si atom -5573.483978 kJ/mol
# Density = 1.930808 g / cm^3
# Si number density = 19.352124 Si / 1000 Ang^3
#
#
#
# Elastic Constant Matrix: (Units=GPa)
#
#
# Indices 1 2 3 4 5 6 
#
# 1 50.6226 15.4145 12.7807 0.0000 0.0000 0.0000
# 2 15.4145 50.6226 12.7807 0.0000 0.0000 0.0000
# 3 12.7807 12.7807 58.5723 0.0000 0.0000 0.0000
# 4 0.0000 0.0000 0.0000 26.5632 0.0000 0.0000
# 5 0.0000 0.0000 0.0000 0.0000 26.5632 0.0000
# 6 0.0000 0.0000 0.0000 0.0000 0.0000 18.0636
#
#
#
# Elastic Compliance Matrix: (Units=1/GPa)
#
#
# Indices 1 2 3 4 5 6 
#
# 1 0.022471 -0.005931 -0.003609 0.000000 0.000000 0.000000
# 2 -0.005931 0.022471 -0.003609 0.000000 0.000000 0.000000
# 3 -0.003609 -0.003609 0.018648 0.000000 0.000000 0.000000
# 4 0.000000 0.000000 0.000000 0.037646 0.000000 0.000000
# 5 0.000000 0.000000 0.000000 0.000000 0.037646 0.000000
# 6 0.000000 0.000000 0.000000 0.000000 0.000000 0.055360
#
#
# Mechanical properties :
#
#
# Convention : Reuss Voigt Hill
#
# Bulk Modulus (GPa) = 26.81570 26.86325 26.83948
# Shear Modulus (GPa) = 21.46180 22.16076 21.81128
#
# Velocity S-wave (km/s) = 3.33380 3.38765 3.36083
# Velocity P-wave (km/s) = 5.35778 5.40491 5.38139
#
# Compressibility (1/GPa) = 0.03729159
#
# Stress axis : x y z
#
# Youngs Moduli (GPa) = 44.50130 44.50130 53.62515
#
# Poissons Ratio (x) = 0.26395 0.19354
# Poissons Ratio (y) = 0.26395 0.19354
# Poissons Ratio (z) = 0.16061 0.16061
#
# Static dielectric constant tensor:
#      x y z
#    x 1.696690 0.000000 0.000000 
#    y 0.000000 1.696690 0.000000 
#    z 0.000000 0.000000 1.672440 
# 
# From -- ./inp_files/3096.got.cif
#   From: 2010.05.17/outbox.cif.g08.bks.cpg/sg130_2_cif.got.tgz:3096.got - 2010.05.20 12:17:35.
