data_PCOD9565669
_publ_section_title
;
Structure prediction by ZEFSAII (Michael W. Deem and Ramdas Pophale) SiO2 
 PCOD9565669
Probable space group: P 4/N C C
;
_chemical_formula_sum "Si O2"
_cell_formula_units_Z 88
_cell_length_a 18.287247
_cell_length_b 18.287247
_cell_length_c 13.046656
_cell_angle_alpha 90.000000
_cell_angle_beta 90.000000
_cell_angle_gamma 90.000000
_cell_volume 4363.107095
_symmetry_space_group_name_H-M "P 4/N C C"
_symmetry_group_IT_number 130
_symmetry_cell_setting 'tetragonal'
loop_
_space_group_symop_operation_xyz
x,y,z
1/2-y,x,z
1/2-x,1/2-y,z
y,1/2-x,z
1/2+x,-y,1/2-z
-x,1/2+y,1/2-z
1/2+y,1/2+x,1/2-z
-y,-x,1/2-z
-x,-y,-z
1/2+y,-x,-z
1/2+x,1/2+y,-z
-y,1/2+x,-z
1/2-x,y,1/2+z
x,1/2-y,1/2+z
1/2-y,1/2-x,1/2+z
y,x,1/2+z
loop_
_atom_site_type_symbol
_atom_site_label
_atom_site_fract_x
_atom_site_fract_y
_atom_site_fract_z
Si Si1 0.908075 0.495542 0.132886
Si Si2 0.046763 0.953238 0.750000
Si Si3 0.520421 0.148691 0.137410
Si Si4 0.782580 0.637775 0.662686
Si Si5 0.379874 0.130610 0.523652
Si Si6 0.017686 0.196121 0.183849
O O1 0.919887 0.410948 0.100372
O O2 0.869130 0.492554 0.242716
O O3 0.987303 0.529320 0.161510
O O4 0.871632 0.551713 0.055534
O O5 0.031377 0.875285 0.800434
O O6 0.447652 0.129168 0.076211
O O7 0.527581 0.236031 0.138769
O O8 0.836669 0.702587 0.698162
O O9 0.805625 0.641468 0.542222
O O10 0.793318 0.557335 0.706176
O O11 0.410967 0.182808 0.612137
#
# Coordination Sequence:
#
# PCOD9565669 Si02
#       6
#    16   8  16  16  16  16
#     4  10  20  40  56  81 111 150 183 236 275 323
#     4  10  20  38  58  79 112 141 188 234 280 316
#     4  10  22  35  57  84 111 144 189 231 277 324
#     4  11  24  37  50  78 122 158 183 221 270 327
#     4  12  19  35  58  81 111 149 190 224 274 329
#     4  12  22  37  57  86 109 148 190 234 274 337
#
# _framework density 20.169114
#
# number of rings (size 3 to 8) (size 9 to 14) (size 15 to 20)
#    0.000    1.273    5.455    3.818    0.000    0.000 
#    0.000    1.818    0.000    2.182    0.000    0.000 
#    0.000    0.000    0.000    0.000    0.000    0.000 
#
# Total GULP energy -490429.015059 kJ/mol
# GULP energy per Si atom -5573.056989 kJ/mol
# Density = 2.012321 g / cm^3
# Si number density = 20.169114 Si / 1000 Ang^3
#
#
#
# Elastic Constant Matrix: (Units=GPa)
#
#
# Indices 1 2 3 4 5 6 
#
# 1 58.5859 1.2069 0.4645 0.0000 0.0000 0.0000
# 2 1.2069 58.5852 0.4640 0.0000 0.0000 0.0000
# 3 0.4645 0.4640 30.8085 0.0000 0.0000 0.0000
# 4 0.0000 0.0000 0.0000 26.8117 0.0000 0.0000
# 5 0.0000 0.0000 0.0000 0.0000 26.8117 0.0000
# 6 0.0000 0.0000 0.0000 0.0000 0.0000 14.8247
#
#
#
# Elastic Compliance Matrix: (Units=1/GPa)
#
#
# Indices 1 2 3 4 5 6 
#
# 1 0.017078 -0.000350 -0.000252 0.000000 0.000000 0.000000
# 2 -0.000350 0.017078 -0.000252 0.000000 0.000000 0.000000
# 3 -0.000252 -0.000252 0.032466 0.000000 0.000000 0.000000
# 4 0.000000 0.000000 0.000000 0.037297 0.000000 0.000000
# 5 0.000000 0.000000 0.000000 0.000000 0.037297 0.000000
# 6 0.000000 0.000000 0.000000 0.000000 0.000000 0.067455
#
#
# Mechanical properties :
#
#
# Convention : Reuss Voigt Hill
#
# Bulk Modulus (GPa) = 15.40481 16.91669 16.16075
# Shear Modulus (GPa) = 21.55004 23.41257 22.48131
#
# Velocity S-wave (km/s) = 3.27229 3.41077 3.34224
# Velocity P-wave (km/s) = 4.68311 4.89047 4.78792
#
# Compressibility (1/GPa) = 0.06491480
#
# Stress axis : x y z
#
# Youngs Moduli (GPa) = 58.55435 58.55362 30.80132
#
# Poissons Ratio (x) = 0.02048 0.00777
# Poissons Ratio (y) = 0.02048 0.00776
# Poissons Ratio (z) = 0.01477 0.01475
#
# Static dielectric constant tensor:
#      x y z
#    x 1.762480 0.000000 0.000000 
#    y 0.000000 1.762480 0.000000 
#    z 0.000000 0.000000 1.784400 
# 
# From -- ./inp_files/2406.got.cif
#   From: 2010.05.17/outbox.cif.g08.bks.cpg/sg130_2_cif.got.tgz:2406.got - 2010.05.20 12:17:35.
