data_PCOD9565329
_publ_section_title
;
Structure prediction by ZEFSAII (Michael W. Deem and Ramdas Pophale) SiO2 
 PCOD9565329
Probable space group: P 4/N M M
;
_chemical_formula_sum "Si O2"
_cell_formula_units_Z 96
_cell_length_a 23.145567
_cell_length_b 23.145567
_cell_length_c 9.076549
_cell_angle_alpha 90.000000
_cell_angle_beta 90.000000
_cell_angle_gamma 90.000000
_cell_volume 4862.464067
_symmetry_space_group_name_H-M "P 4/N M M"
_symmetry_group_IT_number 129
_symmetry_cell_setting 'tetragonal'
loop_
_space_group_symop_operation_xyz
x,y,z
1/2-y,x,z
1/2-x,1/2-y,z
y,1/2-x,z
1/2+x,-y,-z
-x,1/2+y,-z
1/2+y,1/2+x,-z
-y,-x,-z
-x,-y,-z
1/2+y,-x,-z
1/2+x,1/2+y,-z
-y,1/2+x,-z
1/2-x,y,z
x,1/2-y,z
1/2-y,1/2-x,z
y,x,z
loop_
_atom_site_type_symbol
_atom_site_label
_atom_site_fract_x
_atom_site_fract_y
_atom_site_fract_z
Si Si1 0.095709 0.317931 0.299188
Si Si2 0.318059 0.974187 0.865103
Si Si3 0.418435 0.855251 0.634449
Si Si4 0.186069 0.837312 0.828342
Si Si5 0.506388 0.898535 0.866311
Si Si6 0.521332 0.684149 0.439619
O O1 0.088224 0.250000 0.282892
O O2 0.160411 0.339590 0.277276
O O3 0.054702 0.353347 0.190610
O O4 0.073456 0.336993 0.460751
O O5 0.250000 0.989889 0.904356
O O6 0.314785 0.906818 0.824628
O O7 0.340767 0.006940 0.719325
O O8 0.366155 0.982178 0.990116
O O9 0.388250 0.888250 0.500000
O O10 0.369653 0.821762 0.729473
O O11 0.455010 0.896580 0.745157
O O12 0.466558 0.817981 0.549750
O O13 0.250000 0.818299 0.776442
O O14 0.179717 0.820284 0.000000
O O15 0.540505 0.959496 0.883679
O O16 0.534127 0.750000 0.404660
#
# Coordination Sequence:
#
# PCOD9565329 Si02
#       6
#    16  16  16  16  16  16
#     4   9  18  33  53  81 114 149 190 232 279 332
#     4  10  19  35  58  82 108 145 190 228 274 334
#     4  11  21  36  58  80 113 144 183 226 278 334
#     4  11  23  40  60  83 112 144 187 233 280 338
#     4  10  21  36  56  83 113 145 184 230 281 338
#     4   9  19  34  56  81 108 146 187 230 273 328
#
# _framework density 19.743075999999999
#
# number of rings (size 3 to 8) (size 9 to 14) (size 15 to 20)
#    0.000    2.000    3.333    0.500    0.000    2.667 
#    0.000    1.667    0.000    0.000    0.000    0.000 
#    0.000    4.000    0.000    0.000    0.000    0.000 
#
# Total GULP energy -534639.569466 kJ/mol
# GULP energy per Si atom -5569.162182 kJ/mol
# Density = 1.969814 g / cm^3
# Si number density = 19.743076 Si / 1000 Ang^3
#
#
#
# Elastic Constant Matrix: (Units=GPa)
#
#
# Indices 1 2 3 4 5 6 
#
# 1 73.0850 9.7216 9.1024 0.0000 0.0000 0.0000
# 2 9.7216 73.0846 9.1024 0.0000 0.0000 0.0000
# 3 9.1024 9.1024 83.9809 0.0000 0.0000 0.0000
# 4 0.0000 0.0000 0.0000 144.1392 0.0000 0.0000
# 5 0.0000 0.0000 0.0000 0.0000 144.1907 0.0000
# 6 0.0000 0.0000 0.0000 0.0000 0.0000 -10.6437
#
#
#
# Elastic Compliance Matrix: (Units=1/GPa)
#
#
# Indices 1 2 3 4 5 6 
#
# 1 0.014077 -0.001705 -0.001341 0.000000 0.000000 0.000000
# 2 -0.001705 0.014077 -0.001341 0.000000 0.000000 0.000000
# 3 -0.001341 -0.001341 0.012198 0.000000 0.000000 0.000000
# 4 0.000000 0.000000 0.000000 0.006938 0.000000 0.000000
# 5 0.000000 0.000000 0.000000 0.000000 0.006935 0.000000
# 6 0.000000 0.000000 0.000000 0.000000 0.000000 -0.093952
#
#
# Mechanical properties :
#
#
# Convention : Reuss Voigt Hill
#
# Bulk Modulus (GPa) = 31.66866 31.77815 31.72340
# Shear Modulus (GPa) = -244.76639 69.01885 -87.87377
#
# Velocity S-wave (km/s) = -11.14652 5.91899 -6.67872
# Velocity P-wave (km/s) = 12.23048 7.92738 6.58564
#
# Compressibility (1/GPa) = 0.03157696
#
# Stress axis : x y z
#
# Youngs Moduli (GPa) = 71.04016 71.03972 81.97980
#
# Poissons Ratio (x) = 0.12115 0.10992
# Poissons Ratio (y) = 0.12115 0.10992
# Poissons Ratio (z) = 0.09526 0.09525
#
# Static dielectric constant tensor:
#      x y z
#    x 1.721370 0.000000 0.000000 
#    y 0.000000 1.721370 0.000000 
#    z 0.000000 0.000000 1.758430 
# 
# From -- ./inp_files/2593.got.cif
#   From: 2010.05.17/outbox.cif.g08.bks.cpg/sg129_2_cif.got.tgz:2593.got - 2010.05.20 12:12:06.
