data_PCOD9565489
_publ_section_title
;
Structure prediction by ZEFSAII (Michael W. Deem and Ramdas Pophale) SiO2 
 PCOD9565489
Probable space group: P 4/N M M
;
_chemical_formula_sum "Si O2"
_cell_formula_units_Z 52
_cell_length_a 14.467767
_cell_length_b 14.467767
_cell_length_c 12.069414
_cell_angle_alpha 90.000000
_cell_angle_beta 90.000000
_cell_angle_gamma 90.000000
_cell_volume 2526.324864
_symmetry_space_group_name_H-M "P 4/N M M"
_symmetry_group_IT_number 129
_symmetry_cell_setting 'tetragonal'
loop_
_space_group_symop_operation_xyz
x,y,z
1/2-y,x,z
1/2-x,1/2-y,z
y,1/2-x,z
1/2+x,-y,-z
-x,1/2+y,-z
1/2+y,1/2+x,-z
-y,-x,-z
-x,-y,-z
1/2+y,-x,-z
1/2+x,1/2+y,-z
-y,1/2+x,-z
1/2-x,y,z
x,1/2-y,z
1/2-y,1/2-x,z
y,x,z
loop_
_atom_site_type_symbol
_atom_site_label
_atom_site_fract_x
_atom_site_fract_y
_atom_site_fract_z
Si Si1 0.750000 0.750000 0.745491
Si Si2 0.250000 0.471039 0.302797
Si Si3 0.554709 0.250000 0.523402
Si Si4 0.250000 0.750000 0.500000
Si Si5 0.064069 0.913787 0.300153
Si Si6 0.143919 0.992364 0.942404
O O1 0.750000 0.633569 0.740874
O O2 0.250000 0.470662 0.438484
O O3 0.340963 0.531504 0.273935
O O4 0.648496 0.250000 0.447432
O O5 0.561285 0.162074 0.603195
O O6 0.027648 0.865635 0.188350
O O7 0.992713 0.992713 0.333706
O O8 0.250000 0.002780 0.974845
O O9 0.093710 0.906291 0.000000
O O10 0.082712 0.082712 0.969521
#
# Coordination Sequence:
#
# PCOD9565489 Si02
#       6
#     2   8   8   2  16  16
#     4  12  28  44  56  96 128 174 232 256 308 380
#     4  12  24  40  63  86 131 171 217 263 309 380
#     4  12  22  38  61  93 126 163 213 262 320 374
#     4  12  20  36  56  92 122 164 208 264 312 380
#     4  11  23  41  64  90 124 169 209 262 323 378
#     4  10  23  44  69  98 130 163 212 266 325 387
#
# _framework density 20.583257
#
# number of rings (size 3 to 8) (size 9 to 14) (size 15 to 20)
#    0.000    0.923    6.154    0.000    4.308    1.846 
#    0.000    0.000    0.000    0.000    0.000    0.000 
#    0.000    0.000    0.000    0.000    0.000    0.000 
#
# Total GULP energy -289535.156510 kJ/mol
# GULP energy per Si atom -5567.983779 kJ/mol
# Density = 2.053641 g / cm^3
# Si number density = 20.583257 Si / 1000 Ang^3
#
#
#
# Elastic Constant Matrix: (Units=GPa)
#
#
# Indices 1 2 3 4 5 6 
#
# 1 150.5289 58.3023 -2.6558 0.0000 0.0000 0.0000
# 2 58.3023 150.5277 -2.6545 0.0000 0.0000 0.0000
# 3 -2.6558 -2.6545 20.3951 0.0000 0.0000 0.0000
# 4 0.0000 0.0000 0.0000 23.2697 0.0000 0.0000
# 5 0.0000 0.0000 0.0000 0.0000 23.2698 0.0000
# 6 0.0000 0.0000 0.0000 0.0000 0.0000 14.1360
#
#
#
# Elastic Compliance Matrix: (Units=1/GPa)
#
#
# Indices 1 2 3 4 5 6 
#
# 1 0.007824 -0.003019 0.000626 0.000000 0.000000 0.000000
# 2 -0.003019 0.007824 0.000625 0.000000 0.000000 0.000000
# 3 0.000626 0.000625 0.049194 0.000000 0.000000 0.000000
# 4 0.000000 0.000000 0.000000 0.042974 0.000000 0.000000
# 5 0.000000 0.000000 0.000000 0.000000 0.042974 0.000000
# 6 0.000000 0.000000 0.000000 0.000000 0.000000 0.070741
#
#
# Mechanical properties :
#
#
# Convention : Reuss Voigt Hill
#
# Bulk Modulus (GPa) = 16.31186 47.49286 31.90236
# Shear Modulus (GPa) = 20.36634 30.03241 25.19937
#
# Velocity S-wave (km/s) = 3.14898 3.82392 3.50275
# Velocity P-wave (km/s) = 4.60038 6.52841 5.64728
#
# Compressibility (1/GPa) = 0.06130510
#
# Stress axis : x y z
#
# Youngs Moduli (GPa) = 127.81709 127.81633 20.32757
#
# Poissons Ratio (x) = 0.38591 -0.01272
# Poissons Ratio (y) = 0.38591 -0.01271
# Poissons Ratio (z) = -0.07999 -0.07990
#
# Static dielectric constant tensor:
#      x y z
#    x 1.741400 0.000000 0.000000 
#    y 0.000000 1.741400 0.000000 
#    z 0.000000 0.000000 1.768460 
# 
# From -- ./inp_files/3284.got.cif
#   From: 2010.05.17/outbox.cif.g08.bks.cpg/sg129_2_cif.got.tgz:3284.got - 2010.05.20 12:12:06.
