data_PCOD9565006
_publ_section_title
;
Structure prediction by ZEFSAII (Michael W. Deem and Ramdas Pophale) SiO2 
 PCOD9565006
Probable space group: P 4/M N C
;
_chemical_formula_sum "Si O2"
_cell_formula_units_Z 60
_cell_length_a 17.504700
_cell_length_b 17.504700
_cell_length_c 9.707841
_cell_angle_alpha 90.000000
_cell_angle_beta 90.000000
_cell_angle_gamma 90.000000
_cell_volume 2974.623461
_symmetry_space_group_name_H-M "P 4/M N C"
_symmetry_group_IT_number 128
_symmetry_cell_setting 'tetragonal'
loop_
_space_group_symop_operation_xyz
x,y,z
-y,x,z
-x,-y,z
y,-x,z
1/2+x,1/2-y,1/2-z
1/2-x,1/2+y,1/2-z
1/2+y,1/2+x,1/2-z
1/2-y,1/2-x,1/2-z
-x,-y,-z
y,-x,-z
x,y,-z
-y,x,-z
1/2-x,1/2+y,1/2+z
1/2+x,1/2-y,1/2+z
1/2-y,1/2-x,1/2+z
1/2+y,1/2+x,1/2+z
loop_
_atom_site_type_symbol
_atom_site_label
_atom_site_fract_x
_atom_site_fract_y
_atom_site_fract_z
Si Si1 0.768141 0.386407 0.000000
Si Si2 0.000000 0.000000 0.500000
Si Si3 0.961777 0.178892 0.000000
Si Si4 0.500000 0.500000 0.500000
Si Si5 0.517023 0.248745 0.215934
Si Si6 0.675594 0.175594 0.250000
Si Si7 0.859891 0.090783 0.500000
Si Si8 0.717612 0.288890 0.500000
O O1 0.777211 0.442456 0.130439
O O2 0.681737 0.353379 0.000000
O O3 0.813151 0.307261 0.000000
O O4 0.050126 0.922707 0.500000
O O5 0.991180 0.223214 0.135063
O O6 0.993908 0.093674 0.000000
O O7 0.869563 0.174805 0.000000
O O8 0.586715 0.189073 0.215407
O O9 0.555249 0.319559 0.133273
O O10 0.695870 0.235920 0.370289
#
# Coordination Sequence:
#
# PCOD9565006 Si02
#       8
#     8   2   8   2  16   8   8   8
#     4  11  22  43  67  89 125 173 239 265 319 393
#     4  12  20  30  64  86 132 146 212 266 304 398
#     4  12  28  40  60  98 140 169 211 263 353 389
#     4  12  28  38  52  86 148 170 180 250 340 430
#     4  11  24  41  63  96 126 173 220 278 327 397
#     4  12  22  42  68  93 130 173 230 274 336 388
#     4  11  22  37  61  90 123 176 216 253 320 407
#     4  12  24  42  67  94 130 185 222 282 318 416
#
# _framework density 20.17062
#
# number of rings (size 3 to 8) (size 9 to 14) (size 15 to 20)
#    0.000    0.533    5.333    4.800    3.733    1.067 
#    0.000    0.000    0.000    4.800    0.000    0.000 
#    0.000    0.000    0.000    0.000    0.000    0.000 
#
# Total GULP energy -334373.508097 kJ/mol
# GULP energy per Si atom -5572.891802 kJ/mol
# Density = 2.012471 g / cm^3
# Si number density = 20.170620 Si / 1000 Ang^3
#
#
#
# Elastic Constant Matrix: (Units=GPa)
#
#
# Indices 1 2 3 4 5 6 
#
# 1 71.1071 31.7327 15.4680 0.0000 0.0000 0.0000
# 2 31.7327 71.1071 15.4680 0.0000 0.0000 0.0000
# 3 15.4680 15.4680 125.7266 0.0000 0.0000 0.0000
# 4 0.0000 0.0000 0.0000 2.6908 0.0000 0.0000
# 5 0.0000 0.0000 0.0000 0.0000 2.6908 0.0000
# 6 0.0000 0.0000 0.0000 0.0000 0.0000 56.9610
#
#
#
# Elastic Compliance Matrix: (Units=1/GPa)
#
#
# Indices 1 2 3 4 5 6 
#
# 1 0.017747 -0.007650 -0.001242 0.000000 0.000000 0.000000
# 2 -0.007650 0.017747 -0.001242 0.000000 0.000000 0.000000
# 3 -0.001242 -0.001242 0.008259 0.000000 0.000000 0.000000
# 4 0.000000 0.000000 0.000000 0.371639 0.000000 0.000000
# 5 0.000000 0.000000 0.000000 0.000000 0.371639 0.000000
# 6 0.000000 0.000000 0.000000 0.000000 0.000000 0.017556
#
#
# Mechanical properties :
#
#
# Convention : Reuss Voigt Hill
#
# Bulk Modulus (GPa) = 42.57967 43.69761 43.13864
# Shear Modulus (GPa) = 6.00467 26.15332 16.07900
#
# Velocity S-wave (km/s) = 1.72725 3.60475 2.82645
# Velocity P-wave (km/s) = 5.01333 6.24793 5.66436
#
# Compressibility (1/GPa) = 0.02348539
#
# Stress axis : x y z
#
# Youngs Moduli (GPa) = 56.34632 56.34632 121.07358
#
# Poissons Ratio (x) = 0.43104 0.15041
# Poissons Ratio (y) = 0.43104 0.15041
# Poissons Ratio (z) = 0.07000 0.07000
#
# Static dielectric constant tensor:
#      x y z
#    x 1.708130 0.000000 0.000000 
#    y 0.000000 1.708130 0.000000 
#    z 0.000000 0.000000 1.749440 
# 
# From -- ./inp_files/878.got.cif
#   From: 2010.05.17/outbox.cif.g08.bks.cpg/sg128_1_cif.got.tgz:878.got - 2010.05.20 12:07:25.
