data_PCOD9565339
_publ_section_title
;
Structure prediction by ZEFSAII (Michael W. Deem and Ramdas Pophale) SiO2 
 PCOD9565339
Probable space group: P 4/N M M
;
_chemical_formula_sum "Si O2"
_cell_formula_units_Z 88
_cell_length_a 13.371493
_cell_length_b 13.371493
_cell_length_c 29.290168
_cell_angle_alpha 90.000000
_cell_angle_beta 90.000000
_cell_angle_gamma 90.000000
_cell_volume 5236.989044
_symmetry_space_group_name_H-M "P 4/N M M"
_symmetry_group_IT_number 129
_symmetry_cell_setting 'tetragonal'
loop_
_space_group_symop_operation_xyz
x,y,z
1/2-y,x,z
1/2-x,1/2-y,z
y,1/2-x,z
1/2+x,-y,-z
-x,1/2+y,-z
1/2+y,1/2+x,-z
-y,-x,-z
-x,-y,-z
1/2+y,-x,-z
1/2+x,1/2+y,-z
-y,1/2+x,-z
1/2-x,y,z
x,1/2-y,z
1/2-y,1/2-x,z
y,x,z
loop_
_atom_site_type_symbol
_atom_site_label
_atom_site_fract_x
_atom_site_fract_y
_atom_site_fract_z
Si Si1 0.128351 0.865849 0.599008
Si Si2 0.869212 0.470032 0.306554
Si Si3 0.369947 0.869947 0.500000
Si Si4 0.131789 0.534016 0.867188
Si Si5 0.533812 0.132365 0.220829
Si Si6 0.965753 0.368399 0.044321
O O1 0.250000 0.864594 0.597282
O O2 0.096466 0.750000 0.604086
O O3 0.101509 0.927678 0.643690
O O4 0.093926 0.906750 0.549495
O O5 0.750000 0.478757 0.304182
O O6 0.908937 0.396073 0.267394
O O7 0.925246 0.574755 0.299068
O O8 0.385360 0.750000 0.501749
O O9 0.250000 0.518570 0.868582
O O10 0.099196 0.592690 0.821606
O O11 0.094402 0.597002 0.910794
O O12 0.069436 0.430565 0.867715
O O13 0.517104 0.250000 0.217408
O O14 0.431351 0.068649 0.220112
O O15 0.980889 0.250000 0.043917
O O16 0.069463 0.430538 0.044181
O O17 0.904377 0.404377 0.000000
#
# Coordination Sequence:
#
# PCOD9565339 Si02
#       6
#    16  16   8  16  16  16
#     4   8  13  23  41  63  86 113 145 185 235 285
#     4  10  20  32  46  66  92 123 161 201 239 282
#     4   7  10  18  35  60  86 110 139 179 230 284
#     4  10  21  36  54  78 106 136 172 210 247 290
#     4  10  21  36  54  77 102 127 158 195 237 289
#     4  10  21  36  54  78 106 136 173 214 256 305
#
# _framework density 16.803547999999999
#
# number of rings (size 3 to 8) (size 9 to 14) (size 15 to 20)
#    0.000    2.636    0.000    3.273    0.000    4.909 
#    0.000    0.455    0.000    9.818    0.000    0.000 
#    0.000    0.000    0.000   11.455    0.000    0.364 
#
# Total GULP energy -490465.835134 kJ/mol
# GULP energy per Si atom -5573.475399 kJ/mol
# Density = 1.676530 g / cm^3
# Si number density = 16.803548 Si / 1000 Ang^3
#
#
#
# Elastic Constant Matrix: (Units=GPa)
#
#
# Indices 1 2 3 4 5 6 
#
# 1 82.0246 94.3088 50.4877 0.0000 0.0000 0.0000
# 2 94.3088 82.0246 50.4877 0.0000 0.0000 0.0000
# 3 50.4877 50.4877 148.2193 0.0000 0.0000 0.0000
# 4 0.0000 0.0000 0.0000 18.8658 0.0000 0.0000
# 5 0.0000 0.0000 0.0000 0.0000 18.8658 0.0000
# 6 0.0000 0.0000 0.0000 0.0000 0.0000 5.2318
#
#
#
# Elastic Compliance Matrix: (Units=1/GPa)
#
#
# Indices 1 2 3 4 5 6 
#
# 1 -0.037180 0.044225 -0.002400 0.000000 0.000000 0.000000
# 2 0.044225 -0.037180 -0.002400 0.000000 0.000000 0.000000
# 3 -0.002400 -0.002400 0.008382 0.000000 0.000000 0.000000
# 4 0.000000 0.000000 0.000000 0.053006 0.000000 0.000000
# 5 0.000000 0.000000 0.000000 0.000000 0.053006 0.000000
# 6 0.000000 0.000000 0.000000 0.000000 0.000000 0.191138
#
#
# Mechanical properties :
#
#
# Convention : Reuss Voigt Hill
#
# Bulk Modulus (GPa) = 77.68226 78.09301 77.88763
# Shear Modulus (GPa) = 31.92621 16.39162 24.15892
#
# Velocity S-wave (km/s) = 4.36359 3.12667 3.79585
# Velocity P-wave (km/s) = 8.46864 7.72073 8.10332
#
# Compressibility (1/GPa) = 0.01287295
#
# Stress axis : x y z
#
# Youngs Moduli (GPa) = -26.89620 -26.89620 119.30805
#
# Poissons Ratio (x) = 1.18949 0.28632
# Poissons Ratio (y) = 1.18949 0.28632
# Poissons Ratio (z) = -0.06455 -0.06455
#
# Static dielectric constant tensor:
#      x y z
#    x 1.540220 0.000000 0.000000 
#    y 0.000000 1.540220 0.000000 
#    z 0.000000 0.000000 1.597200 
# 
# From -- ./inp_files/7769.got.cif
#   From: 2010.05.17/outbox.cif.g08.bks.cpg/sg129_4_cif.got.tgz:7769.got - 2010.05.20 12:12:06.
