data_PCOD9565361
_publ_section_title
;
Structure prediction by ZEFSAII (Michael W. Deem and Ramdas Pophale) SiO2 
 PCOD9565361
Probable space group: P 4/N M M
;
_chemical_formula_sum "Si O2"
_cell_formula_units_Z 96
_cell_length_a 23.342995
_cell_length_b 23.342995
_cell_length_c 10.442999
_cell_angle_alpha 90.000000
_cell_angle_beta 90.000000
_cell_angle_gamma 90.000000
_cell_volume 5690.342280
_symmetry_space_group_name_H-M "P 4/N M M"
_symmetry_group_IT_number 129
_symmetry_cell_setting 'tetragonal'
loop_
_space_group_symop_operation_xyz
x,y,z
1/2-y,x,z
1/2-x,1/2-y,z
y,1/2-x,z
1/2+x,-y,-z
-x,1/2+y,-z
1/2+y,1/2+x,-z
-y,-x,-z
-x,-y,-z
1/2+y,-x,-z
1/2+x,1/2+y,-z
-y,1/2+x,-z
1/2-x,y,z
x,1/2-y,z
1/2-y,1/2-x,z
y,x,z
loop_
_atom_site_type_symbol
_atom_site_label
_atom_site_fract_x
_atom_site_fract_y
_atom_site_fract_z
Si Si1 0.681887 0.994786 0.082406
Si Si2 0.371591 0.817600 0.121311
Si Si3 0.910909 0.817349 0.855795
Si Si4 0.467161 0.373749 0.381132
Si Si5 0.114845 0.602281 0.356413
Si Si6 0.114537 0.478517 0.667568
O O1 0.750000 0.989735 0.094444
O O2 0.652858 0.968766 0.208306
O O3 0.669242 0.062656 0.078666
O O4 0.664323 0.960296 0.956242
O O5 0.368256 0.750000 0.154042
O O6 0.359582 0.858336 0.243713
O O7 0.667666 0.167666 0.000000
O O8 0.900824 0.750000 0.869077
O O9 0.854756 0.854756 0.880881
O O10 0.933859 0.832639 0.714935
O O11 0.436701 0.436701 0.365287
O O12 0.534803 0.370701 0.350238
O O13 0.460361 0.359042 0.531080
O O14 0.126036 0.626036 0.500000
O O15 0.046146 0.604518 0.342269
O O16 0.055632 0.444368 0.681664
#
# Coordination Sequence:
#
# PCOD9565361 Si02
#       6
#    16  16  16  16  16  16
#     4   9  18  31  47  68  92 119 154 196 238 279
#     4  10  20  34  51  70  93 122 156 192 232 279
#     4  10  20  33  48  67  93 125 162 202 240 279
#     4   9  17  29  47  72  99 126 156 189 230 282
#     4   9  17  31  50  73 100 126 153 189 233 279
#     4   9  16  27  46  71  98 126 153 185 231 285
#
# _framework density 16.870688999999999
#
# number of rings (size 3 to 8) (size 9 to 14) (size 15 to 20)
#    0.000    2.667    0.000    2.000    0.000    3.000 
#    0.000    3.333    0.000    8.000    0.000    0.000 
#    0.000    4.000    0.000    0.000    0.000    0.000 
#
# Total GULP energy -534708.547799 kJ/mol
# GULP energy per Si atom -5569.880706 kJ/mol
# Density = 1.683229 g / cm^3
# Si number density = 16.870689 Si / 1000 Ang^3
#
#
#
# Elastic Constant Matrix: (Units=GPa)
#
#
# Indices 1 2 3 4 5 6 
#
# 1 25.9509 17.0733 13.6838 0.0000 0.0000 0.0000
# 2 17.0733 25.9509 13.6838 0.0000 0.0000 0.0000
# 3 13.6838 13.6838 64.0680 0.0000 0.0000 0.0000
# 4 0.0000 0.0000 0.0000 20.9829 0.0000 0.0000
# 5 0.0000 0.0000 0.0000 0.0000 20.9829 0.0000
# 6 0.0000 0.0000 0.0000 0.0000 0.0000 16.7969
#
#
#
# Elastic Compliance Matrix: (Units=1/GPa)
#
#
# Indices 1 2 3 4 5 6 
#
# 1 0.069770 -0.042873 -0.005745 0.000000 0.000000 0.000000
# 2 -0.042873 0.069770 -0.005745 0.000000 0.000000 0.000000
# 3 -0.005745 -0.005745 0.018062 0.000000 0.000000 0.000000
# 4 0.000000 0.000000 0.000000 0.047658 0.000000 0.000000
# 5 0.000000 0.000000 0.000000 0.000000 0.047658 0.000000
# 6 0.000000 0.000000 0.000000 0.000000 0.000000 0.059535
#
#
# Mechanical properties :
#
#
# Convention : Reuss Voigt Hill
#
# Bulk Modulus (GPa) = 20.45938 22.76129 21.61034
# Shear Modulus (GPa) = 11.42936 16.52114 13.97525
#
# Velocity S-wave (km/s) = 2.60565 3.13274 2.88127
# Velocity P-wave (km/s) = 4.60500 5.15813 4.88939
#
# Compressibility (1/GPa) = 0.04887733
#
# Stress axis : x y z
#
# Youngs Moduli (GPa) = 14.33282 14.33282 55.36384
#
# Poissons Ratio (x) = 0.61449 0.31805
# Poissons Ratio (y) = 0.61449 0.31805
# Poissons Ratio (z) = 0.08234 0.08234
#
# Static dielectric constant tensor:
#      x y z
#    x 1.560450 0.000000 0.000000 
#    y 0.000000 1.560450 0.000000 
#    z 0.000000 0.000000 1.585050 
# 
# From -- ./inp_files/2647.got.cif
#   From: 2010.05.17/outbox.cif.g08.bks.cpg/sg129_2_cif.got.tgz:2647.got - 2010.05.20 12:12:06.
