data_PCOD9565195
_publ_section_title
;
Structure prediction by ZEFSAII (Michael W. Deem and Ramdas Pophale) SiO2 
 PCOD9565195
Probable space group: P 4/N M M
;
_chemical_formula_sum "Si O2"
_cell_formula_units_Z 80
_cell_length_a 13.598590
_cell_length_b 13.598590
_cell_length_c 26.532733
_cell_angle_alpha 90.000000
_cell_angle_beta 90.000000
_cell_angle_gamma 90.000000
_cell_volume 4906.476765
_symmetry_space_group_name_H-M "P 4/N M M"
_symmetry_group_IT_number 129
_symmetry_cell_setting 'tetragonal'
loop_
_space_group_symop_operation_xyz
x,y,z
1/2-y,x,z
1/2-x,1/2-y,z
y,1/2-x,z
1/2+x,-y,-z
-x,1/2+y,-z
1/2+y,1/2+x,-z
-y,-x,-z
-x,-y,-z
1/2+y,-x,-z
1/2+x,1/2+y,-z
-y,1/2+x,-z
1/2-x,y,z
x,1/2-y,z
1/2-y,1/2-x,z
y,x,z
loop_
_atom_site_type_symbol
_atom_site_label
_atom_site_fract_x
_atom_site_fract_y
_atom_site_fract_z
Si Si1 0.136709 0.630246 0.055253
Si Si2 0.132995 0.969338 0.452606
Si Si3 0.869180 0.361696 0.256791
Si Si4 0.632119 0.023873 0.156343
Si Si5 0.527699 0.367786 0.640110
O O1 0.250000 0.598561 0.061574
O O2 0.137799 0.750000 0.053597
O O3 0.074321 0.601912 0.103769
O O4 0.099117 0.599117 0.000000
O O5 0.093648 0.906353 0.500000
O O6 0.250000 0.982847 0.454658
O O7 0.099763 0.910165 0.402758
O O8 0.071526 0.071526 0.453090
O O9 0.750000 0.357492 0.255565
O O10 0.905566 0.250000 0.261555
O O11 0.899457 0.410663 0.204185
O O12 0.893697 0.426505 0.305437
O O13 0.750000 0.016628 0.157033
O O14 0.580846 0.919155 0.160612
O O15 0.518480 0.250000 0.636054
O O16 0.424508 0.424508 0.634079
#
# Coordination Sequence:
#
# PCOD9565195 Si02
#       5
#    16  16  16  16  16
#     4   8  14  26  44  64  85 109 140 183 232 272
#     4  10  21  36  54  77 103 132 168 208 251 299
#     4   9  17  30  48  67  87 114 150 193 237 275
#     4  10  19  29  42  62  89 120 151 182 220 271
#     4  10  20  33  50  74 103 134 167 200 237 285
#
# _framework density 16.304978999999999
#
# number of rings (size 3 to 8) (size 9 to 14) (size 15 to 20)
#    0.000    2.600    0.000    3.000    0.000    5.600 
#    0.000    0.000    0.000    7.200    0.000    0.000 
#    0.000   17.600    0.000    0.000    0.000    0.200 
#
# Total GULP energy -445755.042342 kJ/mol
# GULP energy per Si atom -5571.938029 kJ/mol
# Density = 1.626787 g / cm^3
# Si number density = 16.304979 Si / 1000 Ang^3
#
#
#
# Elastic Constant Matrix: (Units=GPa)
#
#
# Indices 1 2 3 4 5 6 
#
# 1 85.2042 52.5945 44.1129 0.0000 0.0000 0.0000
# 2 52.5945 85.2035 44.1132 0.0000 0.0000 0.0000
# 3 44.1129 44.1132 133.5746 0.0000 0.0000 0.0000
# 4 0.0000 0.0000 0.0000 16.7115 0.0000 0.0000
# 5 0.0000 0.0000 0.0000 0.0000 16.7117 0.0000
# 6 0.0000 0.0000 0.0000 0.0000 0.0000 11.5713
#
#
#
# Elastic Compliance Matrix: (Units=1/GPa)
#
#
# Indices 1 2 3 4 5 6 
#
# 1 0.019934 -0.010732 -0.003039 0.000000 0.000000 0.000000
# 2 -0.010732 0.019935 -0.003039 0.000000 0.000000 0.000000
# 3 -0.003039 -0.003039 0.009494 0.000000 0.000000 0.000000
# 4 0.000000 0.000000 0.000000 0.059839 0.000000 0.000000
# 5 0.000000 0.000000 0.000000 0.000000 0.059838 0.000000
# 6 0.000000 0.000000 0.000000 0.000000 0.000000 0.086421
#
#
# Mechanical properties :
#
#
# Convention : Reuss Voigt Hill
#
# Bulk Modulus (GPa) = 63.52180 65.06927 64.29553
# Shear Modulus (GPa) = 16.98778 19.87633 18.43205
#
# Velocity S-wave (km/s) = 3.23131 3.49525 3.36587
# Velocity P-wave (km/s) = 7.27770 7.50222 7.39081
#
# Compressibility (1/GPa) = 0.01574263
#
# Stress axis : x y z
#
# Youngs Moduli (GPa) = 50.16462 50.16401 105.33103
#
# Poissons Ratio (x) = 0.53834 0.32012
# Poissons Ratio (y) = 0.53835 0.32013
# Poissons Ratio (z) = 0.15246 0.15246
#
# Static dielectric constant tensor:
#      x y z
#    x 1.527540 0.000000 0.000000 
#    y 0.000000 1.527540 0.000000 
#    z 0.000000 0.000000 1.566750 
# 
# From -- ./inp_files/7703.got.cif
#   From: 2010.05.17/outbox.cif.g08.bks.cpg/sg129_4_cif.got.tgz:7703.got - 2010.05.20 12:12:06.
