data_PCOD9565424
_publ_section_title
;
Structure prediction by ZEFSAII (Michael W. Deem and Ramdas Pophale) SiO2 
 PCOD9565424
Probable space group: P 4/N M M
;
_chemical_formula_sum "Si O2"
_cell_formula_units_Z 128
_cell_length_a 24.239401
_cell_length_b 24.239401
_cell_length_c 12.731864
_cell_angle_alpha 90.000000
_cell_angle_beta 90.000000
_cell_angle_gamma 90.000000
_cell_volume 7480.588370
_symmetry_space_group_name_H-M "P 4/N M M"
_symmetry_group_IT_number 129
_symmetry_cell_setting 'tetragonal'
loop_
_space_group_symop_operation_xyz
x,y,z
1/2-y,x,z
1/2-x,1/2-y,z
y,1/2-x,z
1/2+x,-y,-z
-x,1/2+y,-z
1/2+y,1/2+x,-z
-y,-x,-z
-x,-y,-z
1/2+y,-x,-z
1/2+x,1/2+y,-z
-y,1/2+x,-z
1/2-x,y,z
x,1/2-y,z
1/2-y,1/2-x,z
y,x,z
loop_
_atom_site_type_symbol
_atom_site_label
_atom_site_fract_x
_atom_site_fract_y
_atom_site_fract_z
Si Si1 0.513126 0.893920 0.762170
Si Si2 0.885893 0.072362 0.251615
Si Si3 0.488697 0.186488 0.427397
Si Si4 0.185024 0.601908 0.543714
Si Si5 0.095546 0.312619 0.616769
Si Si6 0.950729 0.641628 0.171314
Si Si7 0.002307 0.313302 0.041014
Si Si8 0.186937 0.616512 0.931566
O O1 0.554926 0.945075 0.771093
O O2 0.450251 0.913505 0.743600
O O3 0.527953 0.855652 0.662873
O O4 0.514020 0.856514 0.866890
O O5 0.852234 0.082463 0.358399
O O6 0.854905 0.108920 0.164226
O O7 0.879772 0.009427 0.213622
O O8 0.479927 0.250000 0.394029
O O9 0.553040 0.180410 0.457741
O O10 0.453381 0.177578 0.533240
O O11 0.157764 0.657764 0.500000
O O12 0.250000 0.607035 0.570600
O O13 0.114728 0.250000 0.603229
O O14 0.143546 0.356455 0.598571
O O15 0.073305 0.321129 0.734878
O O16 0.908730 0.591270 0.154791
O O17 0.961975 0.673001 0.062639
O O18 0.011406 0.250000 0.074493
O O19 0.938711 0.318222 0.002679
O O20 0.250000 0.619687 0.895117
O O21 0.168295 0.668295 0.000000
#
# Coordination Sequence:
#
# PCOD9565424 Si02
#       8
#    16  16  16  16  16  16  16  16
#     4  12  23  36  57  85 118 148 183 232 286 340
#     4  11  21  37  54  84 115 147 183 232 294 346
#     4  10  21  38  58  80 112 152 190 232 279 334
#     4  11  22  39  61  83 113 152 195 240 282 331
#     4  10  20  35  56  83 113 145 186 232 280 340
#     4  10  20  34  56  85 114 147 190 234 282 342
#     4  10  21  37  57  78 112 155 190 229 277 334
#     4  10  20  36  56  78 107 144 189 237 279 330
#
# _framework density 17.110954
#
# number of rings (size 3 to 8) (size 9 to 14) (size 15 to 20)
#    0.000    1.500    3.750    2.250    0.000    1.375 
#    0.000    3.125    0.000    1.500    0.000    0.000 
#    0.000   10.250    0.000    0.000    0.000    0.000 
#
# Total GULP energy -714397.995020 kJ/mol
# GULP energy per Si atom -5581.234336 kJ/mol
# Density = 1.707201 g / cm^3
# Si number density = 17.110954 Si / 1000 Ang^3
#
#
#
# Elastic Constant Matrix: (Units=GPa)
#
#
# Indices 1 2 3 4 5 6 
#
# 1 92.6439 46.1356 33.2848 0.0000 0.0000 0.0000
# 2 46.1356 92.6439 33.2848 0.0000 0.0000 0.0000
# 3 33.2848 33.2848 66.1370 0.0000 0.0000 0.0000
# 4 0.0000 0.0000 0.0000 23.4097 0.0000 0.0000
# 5 0.0000 0.0000 0.0000 0.0000 23.4097 0.0000
# 6 0.0000 0.0000 0.0000 0.0000 0.0000 19.9828
#
#
#
# Elastic Compliance Matrix: (Units=1/GPa)
#
#
# Indices 1 2 3 4 5 6 
#
# 1 0.015500 -0.006001 -0.004780 0.000000 0.000000 0.000000
# 2 -0.006001 0.015500 -0.004780 0.000000 0.000000 0.000000
# 3 -0.004780 -0.004780 0.019932 0.000000 0.000000 0.000000
# 4 0.000000 0.000000 0.000000 0.042717 0.000000 0.000000
# 5 0.000000 0.000000 0.000000 0.000000 0.042717 0.000000
# 6 0.000000 0.000000 0.000000 0.000000 0.000000 0.050043
#
#
# Mechanical properties :
#
#
# Convention : Reuss Voigt Hill
#
# Bulk Modulus (GPa) = 50.48572 52.98169 51.73370
# Shear Modulus (GPa) = 22.30780 22.60842 22.45811
#
# Velocity S-wave (km/s) = 3.61462 3.63889 3.62677
# Velocity P-wave (km/s) = 6.85489 6.97755 6.91649
#
# Compressibility (1/GPa) = 0.01980758
#
# Stress axis : x y z
#
# Youngs Moduli (GPa) = 64.51556 64.51556 50.17100
#
# Poissons Ratio (x) = 0.38718 0.23984
# Poissons Ratio (y) = 0.38718 0.23984
# Poissons Ratio (z) = 0.30841 0.30841
#
# Static dielectric constant tensor:
#      x y z
#    x 1.561080 0.000000 0.000000 
#    y 0.000000 1.561080 0.000000 
#    z 0.000000 0.000000 1.576630 
# 
# From -- ./inp_files/4181.got.cif
#   From: 2010.05.17/outbox.cif.g08.bks.cpg/sg129_3_cif.got.tgz:4181.got - 2010.05.20 12:12:06.
