data_PCOD9565842
_publ_section_title
;
Structure prediction by ZEFSAII (Michael W. Deem and Ramdas Pophale) SiO2 
 PCOD9565842
Probable space group: P 4/N C C
;
_chemical_formula_sum "Si O2"
_cell_formula_units_Z 96
_cell_length_a 14.458521
_cell_length_b 14.458521
_cell_length_c 18.948691
_cell_angle_alpha 90.000000
_cell_angle_beta 90.000000
_cell_angle_gamma 90.000000
_cell_volume 3961.201674
_symmetry_space_group_name_H-M "P 4/N C C"
_symmetry_group_IT_number 130
_symmetry_cell_setting 'tetragonal'
loop_
_space_group_symop_operation_xyz
x,y,z
1/2-y,x,z
1/2-x,1/2-y,z
y,1/2-x,z
1/2+x,-y,1/2-z
-x,1/2+y,1/2-z
1/2+y,1/2+x,1/2-z
-y,-x,1/2-z
-x,-y,-z
1/2+y,-x,-z
1/2+x,1/2+y,-z
-y,1/2+x,-z
1/2-x,y,1/2+z
x,1/2-y,1/2+z
1/2-y,1/2-x,1/2+z
y,x,1/2+z
loop_
_atom_site_type_symbol
_atom_site_label
_atom_site_fract_x
_atom_site_fract_y
_atom_site_fract_z
Si Si1 0.750000 0.250000 0.500000
Si Si2 0.756388 0.973722 0.701297
Si Si3 0.924924 0.649335 0.554817
Si Si4 0.281663 0.942424 0.066890
Si Si5 0.750000 0.750000 0.015960
Si Si6 0.058489 0.974591 0.856519
Si Si7 0.718857 0.603558 0.852266
Si Si8 0.430035 0.569966 0.250000
O O1 0.744759 0.157725 0.453307
O O2 0.795980 0.929811 0.629666
O O3 0.772285 0.908093 0.768316
O O4 0.650386 0.001330 0.689391
O O5 0.827060 0.055656 0.721647
O O6 0.824061 0.664370 0.522568
O O7 0.938119 0.542668 0.576447
O O8 0.004980 0.684979 0.503545
O O9 0.369831 0.935910 0.118652
O O10 0.209546 0.007608 0.107427
O O11 0.967367 0.001965 0.812201
O O12 0.818682 0.646086 0.872769
#
# Coordination Sequence:
#
# PCOD9565842 Si02
#       8
#     4  16  16  16   4  16  16   8
#     4  12  32  52  72  94 140 200 260 286 348 432
#     4  11  22  43  70 107 145 193 238 286 355 438
#     4  11  25  41  73 105 143 181 234 304 367 440
#     4  12  28  49  68 100 140 190 246 305 351 427
#     4  12  24  40  72 118 140 180 232 302 380 460
#     4  11  22  44  70 101 141 193 240 296 360 425
#     4  11  26  43  73 113 153 183 228 299 379 433
#     4  10  24  42  68 110 148 190 238 294 362 428
#
# _framework density 24.23507
#
# number of rings (size 3 to 8) (size 9 to 14) (size 15 to 20)
#    0.000    0.833    1.667    5.500    2.333    5.333 
#    0.000    0.000    0.000    5.000    0.000    0.000 
#    0.000    0.000    0.000    0.000    0.000    0.000 
#
# Total GULP energy -537069.788320 kJ/mol
# GULP energy per Si atom -5594.476962 kJ/mol
# Density = 2.417991 g / cm^3
# Si number density = 24.235070 Si / 1000 Ang^3
#
#
#
# Elastic Constant Matrix: (Units=GPa)
#
#
# Indices 1 2 3 4 5 6 
#
# 1 107.8560 9.8994 23.9200 0.0000 0.0000 0.0000
# 2 9.8994 107.8558 23.9203 0.0000 0.0000 0.0000
# 3 23.9200 23.9203 111.1548 0.0000 0.0000 0.0000
# 4 0.0000 0.0000 0.0000 30.4251 0.0000 0.0000
# 5 0.0000 0.0000 0.0000 0.0000 30.4249 0.0000
# 6 0.0000 0.0000 0.0000 0.0000 0.0000 14.8231
#
#
#
# Elastic Compliance Matrix: (Units=1/GPa)
#
#
# Indices 1 2 3 4 5 6 
#
# 1 0.009757 -0.000451 -0.002003 0.000000 0.000000 0.000000
# 2 -0.000451 0.009757 -0.002003 0.000000 0.000000 0.000000
# 3 -0.002003 -0.002003 0.009858 0.000000 0.000000 0.000000
# 4 0.000000 0.000000 0.000000 0.032868 0.000000 0.000000
# 5 0.000000 0.000000 0.000000 0.000000 0.032868 0.000000
# 6 0.000000 0.000000 0.000000 0.000000 0.000000 0.067462
#
#
# Mechanical properties :
#
#
# Convention : Reuss Voigt Hill
#
# Bulk Modulus (GPa) = 48.87679 49.14956 49.01317
# Shear Modulus (GPa) = 28.04206 33.07641 30.55923
#
# Velocity S-wave (km/s) = 3.40529 3.69835 3.55484
# Velocity P-wave (km/s) = 5.97268 6.20978 6.09238
#
# Compressibility (1/GPa) = 0.02045961
#
# Stress axis : x y z
#
# Youngs Moduli (GPa) = 102.48871 102.48837 101.43682
#
# Poissons Ratio (x) = 0.04627 0.20313
# Poissons Ratio (y) = 0.04627 0.20314
# Poissons Ratio (z) = 0.20524 0.20524
#
# Static dielectric constant tensor:
#      x y z
#    x 1.920120 0.000000 0.000000 
#    y 0.000000 1.920120 0.000000 
#    z 0.000000 0.000000 1.979990 
# 
# From -- ./inp_files/3875.got.cif
#   From: 2010.05.17/outbox.cif.g08.bks.cpg/sg130_2_cif.got.tgz:3875.got - 2010.05.20 12:17:35.
