data_PCOD9565721
_publ_section_title
;
Structure prediction by ZEFSAII (Michael W. Deem and Ramdas Pophale) SiO2 
 PCOD9565721
Probable space group: P 4/N C C
;
_chemical_formula_sum "Si O2"
_cell_formula_units_Z 116
_cell_length_a 16.435754
_cell_length_b 16.435754
_cell_length_c 19.548355
_cell_angle_alpha 90.000000
_cell_angle_beta 90.000000
_cell_angle_gamma 90.000000
_cell_volume 5280.675516
_symmetry_space_group_name_H-M "P 4/N C C"
_symmetry_group_IT_number 130
_symmetry_cell_setting 'tetragonal'
loop_
_space_group_symop_operation_xyz
x,y,z
1/2-y,x,z
1/2-x,1/2-y,z
y,1/2-x,z
1/2+x,-y,1/2-z
-x,1/2+y,1/2-z
1/2+y,1/2+x,1/2-z
-y,-x,1/2-z
-x,-y,-z
1/2+y,-x,-z
1/2+x,1/2+y,-z
-y,1/2+x,-z
1/2-x,y,1/2+z
x,1/2-y,1/2+z
1/2-y,1/2-x,1/2+z
y,x,1/2+z
loop_
_atom_site_type_symbol
_atom_site_label
_atom_site_fract_x
_atom_site_fract_y
_atom_site_fract_z
Si Si1 0.315322 0.859423 0.387010
Si Si2 0.377310 0.206255 0.486331
Si Si3 0.626216 0.583066 0.660484
Si Si4 0.775882 0.506251 0.707286
Si Si5 0.286380 0.885400 0.691140
Si Si6 0.250000 0.750000 0.500000
Si Si7 0.454847 0.928532 0.902879
Si Si8 0.611622 0.487492 0.450242
O O1 0.272999 0.936760 0.352126
O O2 0.325076 0.779719 0.340518
O O3 0.268161 0.828685 0.453905
O O4 0.408375 0.881033 0.404134
O O5 0.349670 0.298178 0.499291
O O6 0.395243 0.178703 0.407767
O O7 0.457813 0.188424 0.529677
O O8 0.695490 0.560280 0.713374
O O9 0.565128 0.650976 0.687223
O O10 0.576138 0.502157 0.644422
O O11 0.772036 0.453218 0.775109
O O12 0.341900 0.841900 0.750000
O O13 0.346002 0.924128 0.633331
O O14 0.549502 0.947503 0.916772
O O15 0.418533 0.948441 0.977845
#
# Coordination Sequence:
#
# PCOD9565721 Si02
#       8
#    16  16  16  16  16   4  16  16
#     4  12  27  45  67 103 140 181 233 293 367 427
#     4  10  21  36  65 103 141 180 227 290 356 423
#     4  11  22  42  71 101 135 177 239 286 346 415
#     4  12  26  45  70 103 139 185 241 295 345 433
#     4  12  26  47  73  98 141 188 236 293 355 429
#     4  12  28  40  70 100 144 180 228 298 364 436
#     4  10  22  45  70 104 134 182 231 288 357 420
#     4  10  23  41  72 102 142 177 230 295 355 435
#
# _framework density 21.966887
#
# number of rings (size 3 to 8) (size 9 to 14) (size 15 to 20)
#    0.000    0.966    4.138    2.069    5.793    1.931 
#    2.483    0.000    0.000    0.000    0.000    0.000 
#    0.000    0.000    0.000    0.000    0.000    0.000 
#
# Total GULP energy -647791.751439 kJ/mol
# GULP energy per Si atom -5584.411650 kJ/mol
# Density = 2.191689 g / cm^3
# Si number density = 21.966887 Si / 1000 Ang^3
#
#
#
# Elastic Constant Matrix: (Units=GPa)
#
#
# Indices 1 2 3 4 5 6 
#
# 1 57.8666 52.5985 29.5089 0.0000 0.0000 0.0000
# 2 52.5985 57.8666 29.5089 0.0000 0.0000 0.0000
# 3 29.5089 29.5089 30.0457 0.0000 0.0000 0.0000
# 4 0.0000 0.0000 0.0000 11.3641 0.0000 0.0000
# 5 0.0000 0.0000 0.0000 0.0000 11.3641 0.0000
# 6 0.0000 0.0000 0.0000 0.0000 0.0000 -102.5747
#
#
#
# Elastic Compliance Matrix: (Units=1/GPa)
#
#
# Indices 1 2 3 4 5 6 
#
# 1 0.104435 -0.085388 -0.018707 0.000000 0.000000 0.000000
# 2 -0.085388 0.104435 -0.018707 0.000000 0.000000 0.000000
# 3 -0.018707 -0.018707 0.070028 0.000000 0.000000 0.000000
# 4 0.000000 0.000000 0.000000 0.087997 0.000000 0.000000
# 5 0.000000 0.000000 0.000000 0.000000 0.087997 0.000000
# 6 0.000000 0.000000 0.000000 0.000000 0.000000 -0.009749
#
#
# Mechanical properties :
#
#
# Convention : Reuss Voigt Hill
#
# Bulk Modulus (GPa) = 30.03470 41.00128 35.51799
# Shear Modulus (GPa) = 7.12410 -13.69182 -3.28386
#
# Velocity S-wave (km/s) = 1.80282 -2.49929 -1.22399
# Velocity P-wave (km/s) = 4.24687 3.22132 3.76914
#
# Compressibility (1/GPa) = 0.03329482
#
# Stress axis : x y z
#
# Youngs Moduli (GPa) = 9.57535 9.57535 14.28000
#
# Poissons Ratio (x) = 0.81762 0.26713
# Poissons Ratio (y) = 0.81762 0.26713
# Poissons Ratio (z) = 0.17912 0.17912
#
# Static dielectric constant tensor:
#      x y z
#    x 1.862270 0.000000 0.000000 
#    y 0.000000 1.862270 0.000000 
#    z 0.000000 0.000000 1.873690 
# 
# From -- ./inp_files/3220.got.cif
#   From: 2010.05.17/outbox.cif.g08.bks.cpg/sg130_2_cif.got.tgz:3220.got - 2010.05.20 12:17:35.
