data_PCOD9565129
_publ_section_title
;
Structure prediction by ZEFSAII (Michael W. Deem and Ramdas Pophale) SiO2 
 PCOD9565129
Probable space group: P 4/N M M
;
_chemical_formula_sum "Si O2"
_cell_formula_units_Z 96
_cell_length_a 26.210689
_cell_length_b 26.210689
_cell_length_c 8.696514
_cell_angle_alpha 90.000000
_cell_angle_beta 90.000000
_cell_angle_gamma 90.000000
_cell_volume 5974.507013
_symmetry_space_group_name_H-M "P 4/N M M"
_symmetry_group_IT_number 129
_symmetry_cell_setting 'tetragonal'
loop_
_space_group_symop_operation_xyz
x,y,z
1/2-y,x,z
1/2-x,1/2-y,z
y,1/2-x,z
1/2+x,-y,-z
-x,1/2+y,-z
1/2+y,1/2+x,-z
-y,-x,-z
-x,-y,-z
1/2+y,-x,-z
1/2+x,1/2+y,-z
-y,1/2+x,-z
1/2-x,y,z
x,1/2-y,z
1/2-y,1/2-x,z
y,x,z
loop_
_atom_site_type_symbol
_atom_site_label
_atom_site_fract_x
_atom_site_fract_y
_atom_site_fract_z
Si Si1 0.691422 0.103141 0.814492
Si Si2 0.853267 0.191416 0.658434
Si Si3 0.420637 0.504060 0.082631
Si Si4 0.459650 0.887797 0.602397
Si Si5 0.512776 0.192469 0.973636
Si Si6 0.975199 0.192923 0.618747
O O1 0.750000 0.103132 0.759897
O O2 0.668855 0.159024 0.799193
O O3 0.654559 0.071906 0.699457
O O4 0.690575 0.072415 0.974102
O O5 0.828422 0.171579 0.500000
O O6 0.841180 0.250000 0.679569
O O7 0.914076 0.186133 0.638653
O O8 0.457400 0.457400 0.040413
O O9 0.420482 0.513347 0.265838
O O10 0.361579 0.493290 0.039038
O O11 0.445599 0.554402 0.000000
O O12 0.423315 0.923315 0.500000
O O13 0.493332 0.853014 0.488855
O O14 0.495721 0.250000 0.027130
O O15 0.504804 0.190700 0.791975
O O16 0.984583 0.250000 0.556131
#
# Coordination Sequence:
#
# PCOD9565129 Si02
#       6
#    16  16  16  16  16  16
#     4  10  18  29  42  61  83 113 160 208 253 296
#     4  11  20  27  38  58  84 116 160 210 263 303
#     4  10  22  36  52  75 105 134 164 206 254 301
#     4  11  18  29  47  65  86 123 160 200 248 297
#     4   9  20  34  53  72  92 125 166 204 245 298
#     4  10  18  30  46  69  91 118 162 208 247 291
#
# _framework density 16.068270999999999
#
# number of rings (size 3 to 8) (size 9 to 14) (size 15 to 20)
#    0.000    1.833    3.333    2.000    2.333    2.167 
#    0.000    0.833    0.000    1.000    0.000    9.333 
#    0.000    0.333    0.000    0.000    0.000    4.167 
#
# Total GULP energy -534757.931128 kJ/mol
# GULP energy per Si atom -5570.395116 kJ/mol
# Density = 1.603170 g / cm^3
# Si number density = 16.068271 Si / 1000 Ang^3
#
#
#
# Elastic Constant Matrix: (Units=GPa)
#
#
# Indices 1 2 3 4 5 6 
#
# 1 49.0632 22.0911 8.4270 0.0000 0.0000 0.0000
# 2 22.0911 49.0620 8.4270 0.0000 0.0000 0.0000
# 3 8.4270 8.4270 57.5146 0.0000 0.0000 0.0000
# 4 0.0000 0.0000 0.0000 14.8573 0.0000 0.0000
# 5 0.0000 0.0000 0.0000 0.0000 14.8575 0.0000
# 6 0.0000 0.0000 0.0000 0.0000 0.0000 13.6592
#
#
#
# Elastic Compliance Matrix: (Units=1/GPa)
#
#
# Indices 1 2 3 4 5 6 
#
# 1 0.025817 -0.011258 -0.002133 0.000000 0.000000 0.000000
# 2 -0.011258 0.025818 -0.002133 0.000000 0.000000 0.000000
# 3 -0.002133 -0.002133 0.018012 0.000000 0.000000 0.000000
# 4 0.000000 0.000000 0.000000 0.067307 0.000000 0.000000
# 5 0.000000 0.000000 0.000000 0.000000 0.067306 0.000000
# 6 0.000000 0.000000 0.000000 0.000000 0.000000 0.073211
#
#
# Mechanical properties :
#
#
# Convention : Reuss Voigt Hill
#
# Bulk Modulus (GPa) = 25.90819 25.94779 25.92799
# Shear Modulus (GPa) = 15.55758 16.45446 16.00602
#
# Velocity S-wave (km/s) = 3.11499 3.20353 3.15957
# Velocity P-wave (km/s) = 5.39411 5.46507 5.42970
#
# Compressibility (1/GPa) = 0.03859783
#
# Stress axis : x y z
#
# Youngs Moduli (GPa) = 38.73351 38.73253 55.51856
#
# Poissons Ratio (x) = 0.43607 0.11843
# Poissons Ratio (y) = 0.43608 0.11844
# Poissons Ratio (z) = 0.08262 0.08263
#
# Static dielectric constant tensor:
#      x y z
#    x 1.549090 0.000000 0.000000 
#    y 0.000000 1.549090 0.000000 
#    z 0.000000 0.000000 1.611720 
# 
# From -- ./inp_files/2777.got.cif
#   From: 2010.05.17/outbox.cif.g08.bks.cpg/sg129_2_cif.got.tgz:2777.got - 2010.05.20 12:12:06.
