data_PCOD9565819
_publ_section_title
;
Structure prediction by ZEFSAII (Michael W. Deem and Ramdas Pophale) SiO2 
 PCOD9565819
Probable space group: P 4/N C C
;
_chemical_formula_sum "Si O2"
_cell_formula_units_Z 60
_cell_length_a 13.318882
_cell_length_b 13.318882
_cell_length_c 16.585574
_cell_angle_alpha 90.000000
_cell_angle_beta 90.000000
_cell_angle_gamma 90.000000
_cell_volume 2942.158388
_symmetry_space_group_name_H-M "P 4/N C C"
_symmetry_group_IT_number 130
_symmetry_cell_setting 'tetragonal'
loop_
_space_group_symop_operation_xyz
x,y,z
1/2-y,x,z
1/2-x,1/2-y,z
y,1/2-x,z
1/2+x,-y,1/2-z
-x,1/2+y,1/2-z
1/2+y,1/2+x,1/2-z
-y,-x,1/2-z
-x,-y,-z
1/2+y,-x,-z
1/2+x,1/2+y,-z
-y,1/2+x,-z
1/2-x,y,1/2+z
x,1/2-y,1/2+z
1/2-y,1/2-x,1/2+z
y,x,1/2+z
loop_
_atom_site_type_symbol
_atom_site_label
_atom_site_fract_x
_atom_site_fract_y
_atom_site_fract_z
Si Si1 0.535504 0.350607 0.960234
Si Si2 0.854857 0.952593 0.116444
Si Si3 0.750000 0.750000 0.666416
Si Si4 0.386987 0.613014 0.750000
Si Si5 0.870322 0.255594 0.110857
O O1 0.503273 0.242802 0.923185
O O2 0.438886 0.421422 0.949200
O O3 0.629861 0.395187 0.910949
O O4 0.574912 0.320179 0.048770
O O5 0.821199 0.850213 0.159035
O O6 0.894825 0.026931 0.184151
O O7 0.392318 0.717523 0.799281
O O8 0.750000 0.250000 0.098034
#
# Coordination Sequence:
#
# PCOD9565819 Si02
#       5
#    16  16   4   8  16
#     4  11  22  42  66  91 126 172 219 267 325 396
#     4  10  23  40  65  93 126 172 218 266 329 398
#     4   8  20  44  60  82 132 172 208 258 324 388
#     4  12  25  38  64  98 131 168 214 274 335 392
#     4  12  22  40  65  94 129 166 213 279 330 378
#
# _framework density 20.393193
#
# number of rings (size 3 to 8) (size 9 to 14) (size 15 to 20)
#    0.000    1.067    5.333    0.400    0.000    8.533 
#    0.000    0.000    0.000    6.400    0.000    0.000 
#    0.000    0.000    0.000    0.000    0.000    0.000 
#
# Total GULP energy -334158.712702 kJ/mol
# GULP energy per Si atom -5569.311878 kJ/mol
# Density = 2.034678 g / cm^3
# Si number density = 20.393193 Si / 1000 Ang^3
#
#
#
# Elastic Constant Matrix: (Units=GPa)
#
#
# Indices 1 2 3 4 5 6 
#
# 1 111.8490 20.4057 37.8454 0.0000 0.0000 0.0000
# 2 20.4057 111.8495 37.8458 0.0000 0.0000 0.0000
# 3 37.8454 37.8458 81.1605 0.0000 0.0000 0.0000
# 4 0.0000 0.0000 0.0000 19.0724 0.0000 0.0000
# 5 0.0000 0.0000 0.0000 0.0000 19.0718 0.0000
# 6 0.0000 0.0000 0.0000 0.0000 0.0000 51.4139
#
#
#
# Elastic Compliance Matrix: (Units=1/GPa)
#
#
# Indices 1 2 3 4 5 6 
#
# 1 0.010625 -0.000311 -0.004809 0.000000 0.000000 0.000000
# 2 -0.000311 0.010625 -0.004809 0.000000 0.000000 0.000000
# 3 -0.004809 -0.004809 0.016806 0.000000 0.000000 0.000000
# 4 0.000000 0.000000 0.000000 0.052432 0.000000 0.000000
# 5 0.000000 0.000000 0.000000 0.000000 0.052433 0.000000
# 6 0.000000 0.000000 0.000000 0.000000 0.000000 0.019450
#
#
# Mechanical properties :
#
#
# Convention : Reuss Voigt Hill
#
# Bulk Modulus (GPa) = 54.95567 55.22808 55.09188
# Shear Modulus (GPa) = 26.55398 31.82909 29.19153
#
# Velocity S-wave (km/s) = 3.61238 3.95494 3.78754
# Velocity P-wave (km/s) = 6.66375 6.92790 6.79711
#
# Compressibility (1/GPa) = 0.01819648
#
# Stress axis : x y z
#
# Youngs Moduli (GPa) = 94.12075 94.12097 59.50094
#
# Poissons Ratio (x) = 0.02928 0.28616
# Poissons Ratio (y) = 0.02928 0.28616
# Poissons Ratio (z) = 0.45265 0.45266
#
# Static dielectric constant tensor:
#      x y z
#    x 1.751460 0.000000 0.000000 
#    y 0.000000 1.751460 0.000000 
#    z 0.000000 0.000000 1.731160 
# 
# From -- ./inp_files/2221.got.cif
#   From: 2010.05.17/outbox.cif.g08.bks.cpg/sg130_2_cif.got.tgz:2221.got - 2010.05.20 12:17:35.
