data_PCOD9565089
_publ_section_title
;
Structure prediction by ZEFSAII (Michael W. Deem and Ramdas Pophale) SiO2 
 PCOD9565089
Probable space group: P 4/M N C
;
_chemical_formula_sum "Si O2"
_cell_formula_units_Z 88
_cell_length_a 15.000000
_cell_length_b 15.000000
_cell_length_c 21.000000
_cell_angle_alpha 90.000000
_cell_angle_beta 90.000000
_cell_angle_gamma 90.000000
_cell_volume 4725.000000
_symmetry_space_group_name_H-M "P 4/M N C"
_symmetry_group_IT_number 128
_symmetry_cell_setting 'tetragonal'
loop_
_space_group_symop_operation_xyz
x,y,z
-y,x,z
-x,-y,z
y,-x,z
1/2+x,1/2-y,1/2-z
1/2-x,1/2+y,1/2-z
1/2+y,1/2+x,1/2-z
1/2-y,1/2-x,1/2-z
-x,-y,-z
y,-x,-z
x,y,-z
-y,x,-z
1/2-x,1/2+y,1/2+z
1/2+x,1/2-y,1/2+z
1/2-y,1/2-x,1/2+z
1/2+y,1/2+x,1/2+z
loop_
_atom_site_type_symbol
_atom_site_label
_atom_site_fract_x
_atom_site_fract_y
_atom_site_fract_z
Si Si1 0.413608 0.623174 0.500000
Si Si2 0.175662 0.840349 0.629536
Si Si3 0.263287 0.509191 0.929194
Si Si4 0.628940 0.577812 0.738245
Si Si5 0.256114 0.364072 0.381147
Si Si6 0.925514 0.567591 0.425091
O O1 0.380619 0.521235 0.500000
O O2 0.379216 0.677215 0.439440
O O3 0.086851 0.784127 0.619699
O O4 0.174367 0.887861 0.697519
O O5 0.263391 0.781210 0.620031
O O6 0.174840 0.923207 0.580708
O O7 0.164674 0.469976 0.921756
O O8 0.272098 0.546460 0.000000
O O9 0.528832 0.617399 0.735775
O O10 0.689086 0.611656 0.680983
O O11 0.169024 0.426452 0.390379
O O12 0.908362 0.547149 0.500000
O O13 0.000000 0.500000 0.400462
#
# Coordination Sequence:
#
# PCOD9565089 Si02
#       6
#     8  16  16  16  16  16
#     4  11  24  42  63  96 128 161 209 266 316 366
#     4  11  22  40  60  89 123 158 203 251 310 372
#     4  10  21  35  61  91 123 154 195 251 306 373
#     4  11  23  42  63  86 118 163 208 258 314 369
#     4  11  23  39  63  90 125 163 208 259 310 374
#     4   9  19  38  60  90 127 163 200 247 311 372
#
# _framework density 18.624338999999999
#
# number of rings (size 3 to 8) (size 9 to 14) (size 15 to 20)
#    0.000    1.545    2.727    2.182    2.545    4.727 
#    0.000    0.909    0.000    4.364    0.000    0.000 
#    0.000    0.000    0.000    0.000    0.000    0.000 
#
# Total GULP energy -491107.856658 kJ/mol
# GULP energy per Si atom -5580.771098 kJ/mol
# Density = 1.858195 g / cm^3
# Si number density = 18.624339 Si / 1000 Ang^3
#
#
#
# Elastic Constant Matrix: (Units=GPa)
#
#
# Indices 1 2 3 4 5 6 
#
# 1 90.6611 60.3331 49.3614 0.0000 0.0000 0.0000
# 2 60.3331 90.6611 49.3614 0.0000 0.0000 0.0000
# 3 49.3614 49.3614 97.1610 0.0000 0.0000 0.0000
# 4 0.0000 0.0000 0.0000 13.5932 0.0000 0.0000
# 5 0.0000 0.0000 0.0000 0.0000 13.5932 0.0000
# 6 0.0000 0.0000 0.0000 0.0000 0.0000 23.8291
#
#
#
# Elastic Compliance Matrix: (Units=1/GPa)
#
#
# Indices 1 2 3 4 5 6 
#
# 1 0.021445 -0.011528 -0.005038 0.000000 0.000000 0.000000
# 2 -0.011528 0.021445 -0.005038 0.000000 0.000000 0.000000
# 3 -0.005038 -0.005038 0.015411 0.000000 0.000000 0.000000
# 4 0.000000 0.000000 0.000000 0.073566 0.000000 0.000000
# 5 0.000000 0.000000 0.000000 0.000000 0.073566 0.000000
# 6 0.000000 0.000000 0.000000 0.000000 0.000000 0.041965
#
#
# Mechanical properties :
#
#
# Convention : Reuss Voigt Hill
#
# Bulk Modulus (GPa) = 66.25825 66.28830 66.27327
# Shear Modulus (GPa) = 16.91260 18.16494 17.53877
#
# Velocity S-wave (km/s) = 3.01672 3.12642 3.07206
# Velocity P-wave (km/s) = 6.91286 6.97870 6.94586
#
# Compressibility (1/GPa) = 0.01509246
#
# Stress axis : x y z
#
# Youngs Moduli (GPa) = 46.63135 46.63135 64.88758
#
# Poissons Ratio (x) = 0.53757 0.32691
# Poissons Ratio (y) = 0.53757 0.32691
# Poissons Ratio (z) = 0.23493 0.23493
#
# Static dielectric constant tensor:
#      x y z
#    x 1.626280 0.000000 0.000000 
#    y 0.000000 1.626280 0.000000 
#    z 0.000000 0.000000 0.993860 
# 
# From -- ./inp_files/5625.got.cif
#   From: 2010.05.17/outbox.ucp.g08.bks.cvg/sg128_3_cif.got.tgz:5625.got - 2010.06.11 11:37:33.
