data_PCOD9565307
_publ_section_title
;
Structure prediction by ZEFSAII (Michael W. Deem and Ramdas Pophale) SiO2 
 PCOD9565307
Probable space group: P 4/N M M
;
_chemical_formula_sum "Si O2"
_cell_formula_units_Z 96
_cell_length_a 21.786860
_cell_length_b 21.786860
_cell_length_c 11.801302
_cell_angle_alpha 90.000000
_cell_angle_beta 90.000000
_cell_angle_gamma 90.000000
_cell_volume 5601.691787
_symmetry_space_group_name_H-M "P 4/N M M"
_symmetry_group_IT_number 129
_symmetry_cell_setting 'tetragonal'
loop_
_space_group_symop_operation_xyz
x,y,z
1/2-y,x,z
1/2-x,1/2-y,z
y,1/2-x,z
1/2+x,-y,-z
-x,1/2+y,-z
1/2+y,1/2+x,-z
-y,-x,-z
-x,-y,-z
1/2+y,-x,-z
1/2+x,1/2+y,-z
-y,1/2+x,-z
1/2-x,y,z
x,1/2-y,z
1/2-y,1/2-x,z
y,x,z
loop_
_atom_site_type_symbol
_atom_site_label
_atom_site_fract_x
_atom_site_fract_y
_atom_site_fract_z
Si Si1 0.366205 0.962635 0.504217
Si Si2 0.916112 0.679506 0.607433
Si Si3 0.595336 0.178276 0.281514
Si Si4 0.501965 0.403439 0.940022
Si Si5 0.971436 0.626683 0.820663
Si Si6 0.677977 0.430463 0.246550
O O1 0.434702 0.934702 0.500000
O O2 0.328787 0.919798 0.415148
O O3 0.339893 0.956273 0.629622
O O4 0.358249 0.030817 0.456877
O O5 0.920858 0.750000 0.575916
O O6 0.851284 0.648717 0.583276
O O7 0.931084 0.670748 0.741083
O O8 0.594746 0.250000 0.250705
O O9 0.539865 0.140245 0.222789
O O10 0.655738 0.140512 0.249560
O O11 0.449888 0.449888 0.894294
O O12 0.532699 0.360750 0.847043
O O13 0.553459 0.446542 0.000000
O O14 0.472492 0.365520 0.044597
O O15 0.941034 0.558967 0.801231
O O16 0.750000 0.435593 0.226521
#
# Coordination Sequence:
#
# PCOD9565307 Si02
#       6
#    16  16  16  16  16  16
#     4   9  19  35  54  77 103 134 176 224 269 308
#     4  10  20  34  54  80 110 141 173 214 263 323
#     4  10  19  33  53  73 103 143 173 208 258 312
#     4  10  20  36  54  74 102 134 172 220 267 312
#     4   9  17  32  54  75  95 127 172 217 262 303
#     4  11  22  34  51  77 106 137 175 217 258 306
#
# _framework density 17.13768
#
# number of rings (size 3 to 8) (size 9 to 14) (size 15 to 20)
#    0.000    2.167    1.667    3.000    0.000    2.833 
#    0.000    1.667    0.000    3.000    0.000    0.000 
#    0.000    0.333    0.000    0.333    0.000    0.000 
#
# Total GULP energy -534799.296283 kJ/mol
# GULP energy per Si atom -5570.826003 kJ/mol
# Density = 1.709867 g / cm^3
# Si number density = 17.137680 Si / 1000 Ang^3
#
#
#
# Elastic Constant Matrix: (Units=GPa)
#
#
# Indices 1 2 3 4 5 6 
#
# 1 69.1667 68.5584 53.7371 0.0000 0.0000 0.0000
# 2 68.5584 69.1670 53.7371 0.0000 0.0000 0.0000
# 3 53.7371 53.7371 88.9639 0.0000 0.0000 0.0000
# 4 0.0000 0.0000 0.0000 16.6705 0.0000 0.0000
# 5 0.0000 0.0000 0.0000 0.0000 16.6705 0.0000
# 6 0.0000 0.0000 0.0000 0.0000 0.0000 12.6927
#
#
#
# Elastic Compliance Matrix: (Units=1/GPa)
#
#
# Indices 1 2 3 4 5 6 
#
# 1 0.828660 -0.814922 -0.008299 0.000000 0.000000 0.000000
# 2 -0.814922 0.828653 -0.008294 0.000000 0.000000 0.000000
# 3 -0.008299 -0.008294 0.021263 0.000000 0.000000 0.000000
# 4 0.000000 0.000000 0.000000 0.059986 0.000000 0.000000
# 5 0.000000 0.000000 0.000000 0.000000 0.059986 0.000000
# 6 0.000000 0.000000 0.000000 0.000000 0.000000 0.078785
#
#
# Mechanical properties :
#
#
# Convention : Reuss Voigt Hill
#
# Bulk Modulus (GPa) = 64.31903 64.37366 64.34634
# Shear Modulus (GPa) = 1.41022 12.62440 7.01731
#
# Velocity S-wave (km/s) = 0.90811 2.71707 2.02572
# Velocity P-wave (km/s) = 6.22188 6.89111 6.56503
#
# Compressibility (1/GPa) = 0.01554750
#
# Stress axis : x y z
#
# Youngs Moduli (GPa) = 1.20677 1.20678 47.03004
#
# Poissons Ratio (x) = 0.98343 0.39028
# Poissons Ratio (y) = 0.98342 0.39007
# Poissons Ratio (z) = 0.01001 0.01001
#
# Static dielectric constant tensor:
#      x y z
#    x 1.588290 0.000000 0.000000 
#    y 0.000000 1.588290 0.000000 
#    z 0.000000 0.000000 1.600380 
# 
# From -- ./inp_files/3892.got.cif
#   From: 2010.05.17/outbox.cif.g08.bks.cpg/sg129_2_cif.got.tgz:3892.got - 2010.05.20 12:12:06.
