data_PCOD9565984
_publ_section_title
;
Structure prediction by ZEFSAII (Michael W. Deem and Ramdas Pophale) SiO2 
 PCOD9565984
Probable space group: P 4/N C C
;
_chemical_formula_sum "Si O2"
_cell_formula_units_Z 52
_cell_length_a 8.513424
_cell_length_b 8.513424
_cell_length_c 31.253495
_cell_angle_alpha 90.000000
_cell_angle_beta 90.000000
_cell_angle_gamma 90.000000
_cell_volume 2265.202943
_symmetry_space_group_name_H-M "P 4/N C C"
_symmetry_group_IT_number 130
_symmetry_cell_setting 'tetragonal'
loop_
_space_group_symop_operation_xyz
x,y,z
1/2-y,x,z
1/2-x,1/2-y,z
y,1/2-x,z
1/2+x,-y,1/2-z
-x,1/2+y,1/2-z
1/2+y,1/2+x,1/2-z
-y,-x,1/2-z
-x,-y,-z
1/2+y,-x,-z
1/2+x,1/2+y,-z
-y,1/2+x,-z
1/2-x,y,1/2+z
x,1/2-y,1/2+z
1/2-y,1/2-x,1/2+z
y,x,1/2+z
loop_
_atom_site_type_symbol
_atom_site_label
_atom_site_fract_x
_atom_site_fract_y
_atom_site_fract_z
Si Si1 0.500628 0.679370 0.283875
Si Si2 0.603199 0.140673 0.374955
Si Si3 0.072301 0.447156 0.955455
Si Si4 0.250000 0.250000 0.859145
O O1 0.647549 0.564559 0.276666
O O2 0.370913 0.629088 0.250000
O O3 0.444832 0.660051 0.332304
O O4 0.750000 0.250000 0.388794
O O5 0.550170 0.027175 0.414172
O O6 0.444392 0.234739 0.361465
O O7 0.038563 0.261830 0.953164
O O8 0.000000 0.500000 0.000000
#
# Coordination Sequence:
#
# PCOD9565984 Si02
#       4
#    16  16  16   4
#     4  11  29  48  74 115 155 203 270 333 407 488
#     4  12  26  47  79 113 154 214 268 328 415 483
#     4  11  26  46  71 110 149 199 258 323 399 479
#     4  12  24  48  76 108 156 194 264 332 396 468
#
# _framework density 22.955998999999998
#
# number of rings (size 3 to 8) (size 9 to 14) (size 15 to 20)
#    0.000    0.615    3.077    1.846   12.923    0.000 
#    0.000    3.077    0.000    0.000    0.000    0.000 
#    0.000    0.000    0.000    0.000    0.000    0.000 
#
# Total GULP energy -289907.854918 kJ/mol
# GULP energy per Si atom -5575.151056 kJ/mol
# Density = 2.290375 g / cm^3
# Si number density = 22.955999 Si / 1000 Ang^3
#
#
#
# Elastic Constant Matrix: (Units=GPa)
#
#
# Indices 1 2 3 4 5 6 
#
# 1 219.4629 -68.9660 33.5673 0.0000 0.0000 0.0000
# 2 -68.9660 219.4724 33.5711 0.0000 0.0000 0.0000
# 3 33.5673 33.5711 144.1237 0.0000 0.0000 0.0000
# 4 0.0000 0.0000 0.0000 35.3267 0.0000 0.0000
# 5 0.0000 0.0000 0.0000 0.0000 35.3263 0.0000
# 6 0.0000 0.0000 0.0000 0.0000 0.0000 -11.7006
#
#
#
# Elastic Compliance Matrix: (Units=1/GPa)
#
#
# Indices 1 2 3 4 5 6 
#
# 1 0.005441 0.001974 -0.001727 0.000000 0.000000 0.000000
# 2 0.001974 0.005441 -0.001727 0.000000 0.000000 0.000000
# 3 -0.001727 -0.001727 0.007743 0.000000 0.000000 0.000000
# 4 0.000000 0.000000 0.000000 0.028307 0.000000 0.000000
# 5 0.000000 0.000000 0.000000 0.000000 0.028308 0.000000
# 6 0.000000 0.000000 0.000000 0.000000 0.000000 -0.085466
#
#
# Mechanical properties :
#
#
# Convention : Reuss Voigt Hill
#
# Bulk Modulus (GPa) = 63.83857 64.37820 64.10838
# Shear Modulus (GPa) = -2445.63626 50.78292 -1197.42667
#
# Velocity S-wave (km/s) = -32.67524 4.70849 -22.86374
# Velocity P-wave (km/s) = 37.35896 7.59374 25.86530
#
# Compressibility (1/GPa) = 0.01566451
#
# Stress axis : x y z
#
# Youngs Moduli (GPa) = 183.78820 183.79491 129.14849
#
# Poissons Ratio (x) = -0.36280 0.22305
# Poissons Ratio (y) = -0.36279 0.22305
# Poissons Ratio (z) = 0.31741 0.31743
#
# Static dielectric constant tensor:
#      x y z
#    x 1.869630 0.000000 0.000000 
#    y 0.000000 1.869630 0.000000 
#    z 0.000000 0.000000 1.922780 
# 
# From -- ./inp_files/4708.got.cif
#   From: 2010.05.17/outbox.cif.g08.bks.cpg/sg130_3_cif.got.tgz:4708.got - 2010.05.20 12:17:35.
