data_PCOD9565123
_publ_section_title
;
Structure prediction by ZEFSAII (Michael W. Deem and Ramdas Pophale) SiO2 
 PCOD9565123
Probable space group: P 4/N M M
;
_chemical_formula_sum "Si O2"
_cell_formula_units_Z 64
_cell_length_a 17.945748
_cell_length_b 17.945748
_cell_length_c 13.462119
_cell_angle_alpha 90.000000
_cell_angle_beta 90.000000
_cell_angle_gamma 90.000000
_cell_volume 4335.473691
_symmetry_space_group_name_H-M "P 4/N M M"
_symmetry_group_IT_number 129
_symmetry_cell_setting 'tetragonal'
loop_
_space_group_symop_operation_xyz
x,y,z
1/2-y,x,z
1/2-x,1/2-y,z
y,1/2-x,z
1/2+x,-y,-z
-x,1/2+y,-z
1/2+y,1/2+x,-z
-y,-x,-z
-x,-y,-z
1/2+y,-x,-z
1/2+x,1/2+y,-z
-y,1/2+x,-z
1/2-x,y,z
x,1/2-y,z
1/2-y,1/2-x,z
y,x,z
loop_
_atom_site_type_symbol
_atom_site_label
_atom_site_fract_x
_atom_site_fract_y
_atom_site_fract_z
Si Si1 0.662887 0.164094 0.380547
Si Si2 0.047370 0.335656 0.132118
Si Si3 0.563727 0.442950 0.249100
Si Si4 0.663137 0.054806 0.056592
O O1 0.658849 0.158849 0.500000
O O2 0.750000 0.153929 0.352377
O O3 0.642314 0.250000 0.352677
O O4 0.611680 0.101702 0.330238
O O5 0.045925 0.250000 0.160589
O O6 0.128370 0.371631 0.133921
O O7 0.995033 0.384055 0.203668
O O8 0.012450 0.343151 0.022000
O O9 0.515320 0.515320 0.280573
O O10 0.618283 0.461740 0.156933
O O11 0.750000 0.069422 0.076099
O O12 0.624219 0.124219 0.000000
#
# Coordination Sequence:
#
# PCOD9565123 Si02
#       4
#    16  16  16  16
#     4   9  18  32  48  65  86 112 141 175 217 263
#     4   9  17  28  41  58  81 109 140 172 205 242
#     4  10  18  28  44  64  87 114 141 172 213 257
#     4   9  17  28  41  60  86 114 144 176 209 246
#
# _framework density 14.761939
#
# number of rings (size 3 to 8) (size 9 to 14) (size 15 to 20)
#    0.000    2.750    0.000    3.000    0.000    5.000 
#    0.000    0.000    0.000    0.000    0.000    0.000 
#    0.000    4.500    0.000   18.500    0.000    0.500 
#
# Total GULP energy -356419.411091 kJ/mol
# GULP energy per Si atom -5569.053298 kJ/mol
# Density = 1.472834 g / cm^3
# Si number density = 14.761939 Si / 1000 Ang^3
#
#
#
# Elastic Constant Matrix: (Units=GPa)
#
#
# Indices 1 2 3 4 5 6 
#
# 1 70.1775 53.6091 27.6885 0.0000 0.0000 0.0000
# 2 53.6091 70.1775 27.6885 0.0000 0.0000 0.0000
# 3 27.6885 27.6885 41.9210 0.0000 0.0000 0.0000
# 4 0.0000 0.0000 0.0000 15.8183 0.0000 0.0000
# 5 0.0000 0.0000 0.0000 0.0000 15.8183 0.0000
# 6 0.0000 0.0000 0.0000 0.0000 0.0000 24.3812
#
#
#
# Elastic Compliance Matrix: (Units=1/GPa)
#
#
# Indices 1 2 3 4 5 6 
#
# 1 0.035911 -0.024445 -0.007574 0.000000 0.000000 0.000000
# 2 -0.024445 0.035911 -0.007574 0.000000 0.000000 0.000000
# 3 -0.007574 -0.007574 0.033859 0.000000 0.000000 0.000000
# 4 0.000000 0.000000 0.000000 0.063218 0.000000 0.000000
# 5 0.000000 0.000000 0.000000 0.000000 0.063218 0.000000
# 6 0.000000 0.000000 0.000000 0.000000 0.000000 0.041015
#
#
# Mechanical properties :
#
#
# Convention : Reuss Voigt Hill
#
# Bulk Modulus (GPa) = 37.73901 44.47200 41.10551
# Shear Modulus (GPa) = 13.84472 16.08957 14.96715
#
# Velocity S-wave (km/s) = 3.06578 3.30500 3.18764
# Velocity P-wave (km/s) = 6.17678 6.68996 6.43848
#
# Compressibility (1/GPa) = 0.02649778
#
# Stress axis : x y z
#
# Youngs Moduli (GPa) = 27.84640 27.84640 29.53438
#
# Poissons Ratio (x) = 0.68070 0.22368
# Poissons Ratio (y) = 0.68070 0.22368
# Poissons Ratio (z) = 0.21090 0.21090
#
# Static dielectric constant tensor:
#      x y z
#    x 1.483110 0.000000 0.000000 
#    y 0.000000 1.483110 0.000000 
#    z 0.000000 0.000000 1.476190 
# 
# From -- ./inp_files/3398.got.cif
#   From: 2010.05.17/outbox.cif.g08.bks.cpg/sg129_2_cif.got.tgz:3398.got - 2010.05.20 12:12:06.
