data_PCOD9565096
_publ_section_title
;
Structure prediction by ZEFSAII (Michael W. Deem and Ramdas Pophale) SiO2 
 PCOD9565096
Probable space group: P 4/M N C
;
_chemical_formula_sum "Si O2"
_cell_formula_units_Z 116
_cell_length_a 18.000000
_cell_length_b 18.000000
_cell_length_c 18.000000
_cell_angle_alpha 90.000000
_cell_angle_beta 90.000000
_cell_angle_gamma 90.000000
_cell_volume 5832.000000
_symmetry_space_group_name_H-M "P 4/M N C"
_symmetry_group_IT_number 128
_symmetry_cell_setting 'tetragonal'
loop_
_space_group_symop_operation_xyz
x,y,z
-y,x,z
-x,-y,z
y,-x,z
1/2+x,1/2-y,1/2-z
1/2-x,1/2+y,1/2-z
1/2+y,1/2+x,1/2-z
1/2-y,1/2-x,1/2-z
-x,-y,-z
y,-x,-z
x,y,-z
-y,x,-z
1/2-x,1/2+y,1/2+z
1/2+x,1/2-y,1/2+z
1/2-y,1/2-x,1/2+z
1/2+y,1/2+x,1/2+z
loop_
_atom_site_type_symbol
_atom_site_label
_atom_site_fract_x
_atom_site_fract_y
_atom_site_fract_z
Si Si1 0.345291 0.003527 0.334761
Si Si2 0.000000 0.500000 0.750000
Si Si3 0.080195 0.091048 0.409369
Si Si4 0.217971 0.806687 0.413274
Si Si5 0.275727 0.004225 0.824933
Si Si6 0.646482 0.127280 0.911652
Si Si7 0.875039 0.008475 0.086757
Si Si8 0.841337 0.358957 0.586067
O O1 0.343664 0.077037 0.383117
O O2 0.426385 0.000733 0.298242
O O3 0.289080 0.001989 0.264147
O O4 0.343740 0.935260 0.391229
O O5 0.082220 0.091228 0.500000
O O6 0.136659 0.155308 0.382457
O O7 0.993576 0.102467 0.387456
O O8 0.225674 0.829176 0.500000
O O9 0.301596 0.807274 0.383950
O O10 0.194081 0.722039 0.411239
O O11 0.329379 0.943431 0.863791
O O12 0.192985 0.988907 0.855989
O O13 0.301233 0.082868 0.859725
O O14 0.654964 0.112353 0.000000
O O15 0.933145 0.076431 0.095829
O O16 0.848635 0.010274 0.000000
O O17 0.840843 0.385473 0.500000
#
# Coordination Sequence:
#
# PCOD9565096 Si02
#       8
#    16   4  16  16  16  16  16  16
#     4  12  23  43  62  88 126 173 208 252 309 377
#     4  12  20  44  62  72 124 156 214 252 296 372
#     4   8  14  27  50  79 112 152 193 238 299 361
#     4   9  21  36  56  91 127 153 198 261 312 361
#     4  12  23  40  63  95 129 164 206 260 325 379
#     4  11  23  40  64  94 124 164 212 260 312 373
#     4   9  20  40  67  95 122 160 210 264 320 375
#     4  11  23  40  64  94 124 164 212 260 312 373
#
# _framework density 19.890260999999999
#
# number of rings (size 3 to 8) (size 9 to 14) (size 15 to 20)
#    0.000    1.655    2.759    2.483    3.862    0.000 
#    2.483    3.448    0.000    0.000    0.000    0.000 
#    0.000    0.000    0.000    0.000    0.000    0.000 
#
# Total GULP energy -647249.556975 kJ/mol
# GULP energy per Si atom -5579.737560 kJ/mol
# Density = 1.984499 g / cm^3
# Si number density = 19.890261 Si / 1000 Ang^3
#
#
#
# Elastic Constant Matrix: (Units=GPa)
#
#
# Indices 1 2 3 4 5 6 
#
# 1 53.5526 -12.8493 0.5665 0.0000 0.0000 0.0000
# 2 -12.8493 53.5526 0.5665 0.0000 0.0000 0.0000
# 3 0.5665 0.5665 9.9547 0.0000 0.0000 0.0000
# 4 0.0000 0.0000 0.0000 -19.4564 0.0000 0.0000
# 5 0.0000 0.0000 0.0000 0.0000 -19.4564 0.0000
# 6 0.0000 0.0000 0.0000 0.0000 0.0000 21.2551
#
#
#
# Elastic Compliance Matrix: (Units=1/GPa)
#
#
# Indices 1 2 3 4 5 6 
#
# 1 0.019833 0.004774 -0.001400 0.000000 0.000000 0.000000
# 2 0.004774 0.019833 -0.001400 0.000000 0.000000 0.000000
# 3 -0.001400 -0.001400 0.100614 0.000000 0.000000 0.000000
# 4 0.000000 0.000000 0.000000 -0.051397 0.000000 0.000000
# 5 0.000000 0.000000 0.000000 0.000000 -0.051397 0.000000
# 6 0.000000 0.000000 0.000000 0.000000 0.000000 0.047048
#
#
# Mechanical properties :
#
#
# Convention : Reuss Voigt Hill
#
# Bulk Modulus (GPa) = 6.93349 10.40301 8.66825
# Shear Modulus (GPa) = 38.86069 5.05352 21.95710
#
# Velocity S-wave (km/s) = 4.42492 1.59569 3.32612
# Velocity P-wave (km/s) = 5.44059 2.93879 4.37245
#
# Compressibility (1/GPa) = 0.14422760
#
# Stress axis : x y z
#
# Youngs Moduli (GPa) = 50.41997 50.41997 9.93893
#
# Poissons Ratio (x) = -0.24068 0.01392
# Poissons Ratio (y) = -0.24068 0.01392
# Poissons Ratio (z) = 0.07060 0.07060
#
# Static dielectric constant tensor:
#      x y z
#    x 1.770540 0.000000 0.000000 
#    y 0.000000 1.770540 0.000000 
#    z 0.000000 0.000000 1.685930 
# 
# From -- ./inp_files/4959.got.cif
#   From: 2010.05.17/outbox.ucp.g08.bks.cvg/sg128_3_cif.got.tgz:4959.got - 2010.06.11 11:37:33.
