data_PCOD9565390
_publ_section_title
;
Structure prediction by ZEFSAII (Michael W. Deem and Ramdas Pophale) SiO2 
 PCOD9565390
Probable space group: P 4/N M M
;
_chemical_formula_sum "Si O2"
_cell_formula_units_Z 88
_cell_length_a 13.709133
_cell_length_b 13.709133
_cell_length_c 27.923268
_cell_angle_alpha 90.000000
_cell_angle_beta 90.000000
_cell_angle_gamma 90.000000
_cell_volume 5247.908136
_symmetry_space_group_name_H-M "P 4/N M M"
_symmetry_group_IT_number 129
_symmetry_cell_setting 'tetragonal'
loop_
_space_group_symop_operation_xyz
x,y,z
1/2-y,x,z
1/2-x,1/2-y,z
y,1/2-x,z
1/2+x,-y,-z
-x,1/2+y,-z
1/2+y,1/2+x,-z
-y,-x,-z
-x,-y,-z
1/2+y,-x,-z
1/2+x,1/2+y,-z
-y,1/2+x,-z
1/2-x,y,z
x,1/2-y,z
1/2-y,1/2-x,z
y,x,z
loop_
_atom_site_type_symbol
_atom_site_label
_atom_site_fract_x
_atom_site_fract_y
_atom_site_fract_z
Si Si1 0.975399 0.134313 0.401555
Si Si2 0.135779 0.864221 0.500000
Si Si3 0.864592 0.473548 0.317071
Si Si4 0.863670 0.476504 0.763096
Si Si5 0.136024 0.976147 0.123639
Si Si6 0.634861 0.473315 0.043153
O O1 0.985504 0.250000 0.395442
O O2 0.929806 0.114828 0.453904
O O3 0.903485 0.090216 0.361632
O O4 0.076667 0.076667 0.396729
O O5 0.250000 0.877314 0.512786
O O6 0.750000 0.489377 0.319750
O O7 0.895258 0.414552 0.269428
O O8 0.926637 0.573364 0.317286
O O9 0.750000 0.486787 0.751025
O O10 0.871584 0.454926 0.819710
O O11 0.924032 0.575969 0.753988
O O12 0.250000 0.985171 0.111367
O O13 0.083342 0.895038 0.091620
O O14 0.076235 0.076235 0.114522
O O15 0.750000 0.486570 0.038972
O O16 0.574395 0.574395 0.042208
O O17 0.592046 0.407955 0.000000
#
# Coordination Sequence:
#
# PCOD9565390 Si02
#       6
#    16   8  16  16  16  16
#     4  10  20  33  50  73 101 132 165 201 241 286
#     4   9  17  30  50  74  97 125 164 206 245 285
#     4  10  21  36  53  73  97 125 160 203 248 294
#     4   9  18  32  50  74 103 133 165 201 241 286
#     4   9  18  32  50  74 103 133 166 203 242 286
#     4  10  21  36  53  74 100 129 163 203 245 291
#
# _framework density 16.768585999999999
#
# number of rings (size 3 to 8) (size 9 to 14) (size 15 to 20)
#    0.000    2.455    0.000    1.909    0.000    5.091 
#    0.000    3.636    0.000    6.545    0.000    7.636 
#    0.000    0.000    0.000    0.000    0.000    0.000 
#
# Total GULP energy -490897.312532 kJ/mol
# GULP energy per Si atom -5578.378552 kJ/mol
# Density = 1.673042 g / cm^3
# Si number density = 16.768586 Si / 1000 Ang^3
#
#
#
# Elastic Constant Matrix: (Units=GPa)
#
#
# Indices 1 2 3 4 5 6 
#
# 1 85.4720 139.3730 58.7310 0.0000 0.0000 0.0000
# 2 139.3730 85.4682 58.7321 0.0000 0.0000 0.0000
# 3 58.7310 58.7321 59.6430 0.0000 0.0000 0.0000
# 4 0.0000 0.0000 0.0000 21.4867 0.0000 0.0000
# 5 0.0000 0.0000 0.0000 0.0000 21.4869 0.0000
# 6 0.0000 0.0000 0.0000 0.0000 0.0000 7.3596
#
#
#
# Elastic Compliance Matrix: (Units=1/GPa)
#
#
# Indices 1 2 3 4 5 6 
#
# 1 -0.004696 0.013856 -0.009020 0.000000 0.000000 0.000000
# 2 0.013856 -0.004697 -0.009019 0.000000 0.000000 0.000000
# 3 -0.009020 -0.009019 0.034530 0.000000 0.000000 0.000000
# 4 0.000000 0.000000 0.000000 0.046541 0.000000 0.000000
# 5 0.000000 0.000000 0.000000 0.000000 0.046540 0.000000
# 6 0.000000 0.000000 0.000000 0.000000 0.000000 0.135878
#
#
# Mechanical properties :
#
#
# Convention : Reuss Voigt Hill
#
# Bulk Modulus (GPa) = 59.62782 82.69506 71.16144
# Shear Modulus (GPa) = 18.65301 8.31642 13.48472
#
# Velocity S-wave (km/s) = 3.33885 2.22942 2.83886
# Velocity P-wave (km/s) = 7.10636 7.48663 7.29897
#
# Compressibility (1/GPa) = 0.01677069
#
# Stress axis : x y z
#
# Youngs Moduli (GPa) = -212.96387 -212.91869 28.96035
#
# Poissons Ratio (x) = 2.95014 0.26123
# Poissons Ratio (y) = 2.95077 0.26119
# Poissons Ratio (z) = -1.92099 -1.92031
#
# Static dielectric constant tensor:
#      x y z
#    x 1.538870 0.000000 0.000000 
#    y 0.000000 1.538870 0.000000 
#    z 0.000000 0.000000 1.577430 
# 
# From -- ./inp_files/7775.got.cif
#   From: 2010.05.17/outbox.cif.g08.bks.cpg/sg129_4_cif.got.tgz:7775.got - 2010.05.20 12:12:06.
