data_PCOD9565472
_publ_section_title
;
Structure prediction by ZEFSAII (Michael W. Deem and Ramdas Pophale) SiO2 
 PCOD9565472
Probable space group: P 4/N M M
;
_chemical_formula_sum "Si O2"
_cell_formula_units_Z 96
_cell_length_a 23.382780
_cell_length_b 23.382780
_cell_length_c 9.039916
_cell_angle_alpha 90.000000
_cell_angle_beta 90.000000
_cell_angle_gamma 90.000000
_cell_volume 4942.613853
_symmetry_space_group_name_H-M "P 4/N M M"
_symmetry_group_IT_number 129
_symmetry_cell_setting 'tetragonal'
loop_
_space_group_symop_operation_xyz
x,y,z
1/2-y,x,z
1/2-x,1/2-y,z
y,1/2-x,z
1/2+x,-y,-z
-x,1/2+y,-z
1/2+y,1/2+x,-z
-y,-x,-z
-x,-y,-z
1/2+y,-x,-z
1/2+x,1/2+y,-z
-y,1/2+x,-z
1/2-x,y,z
x,1/2-y,z
1/2-y,1/2-x,z
y,x,z
loop_
_atom_site_type_symbol
_atom_site_label
_atom_site_fract_x
_atom_site_fract_y
_atom_site_fract_z
Si Si1 0.390741 0.975624 0.553843
Si Si2 0.082190 0.684087 0.689812
Si Si3 0.182017 0.182017 0.597057
Si Si4 0.817443 0.817443 0.070814
Si Si5 0.397544 0.397544 0.087973
Si Si6 0.600363 0.600363 0.563413
Si Si7 0.812942 0.503084 0.956878
Si Si8 0.420813 0.872817 0.143449
O O1 0.451493 0.951493 0.500000
O O2 0.344093 0.937158 0.464847
O O3 0.390245 0.963620 0.727190
O O4 0.381907 0.040429 0.509106
O O5 0.100936 0.750000 0.676461
O O6 0.125826 0.641070 0.775082
O O7 0.025961 0.683293 0.795207
O O8 0.250000 0.172384 0.584789
O O9 0.163750 0.163750 0.763717
O O10 0.147301 0.147301 0.476608
O O11 0.750000 0.827127 0.061997
O O12 0.849840 0.849840 0.942951
O O13 0.407069 0.407069 0.261523
O O14 0.366597 0.454296 0.023870
O O15 0.750000 0.530468 0.972494
O O16 0.817785 0.449967 0.070360
O O17 0.413706 0.913706 0.000000
#
# Coordination Sequence:
#
# PCOD9565472 Si02
#       8
#    16  16   8   8   8   8  16  16
#     4  10  21  38  56  83 123 159 197 249 306 365
#     4   9  18  37  61  85 117 158 198 243 300 361
#     4   9  22  43  60  79 114 154 201 266 323 365
#     4   9  20  40  60  78 111 159 206 264 327 368
#     4  12  23  36  55  86 119 158 215 254 310 363
#     4  12  24  37  57  86 114 158 213 258 311 373
#     4  10  21  37  57  85 123 159 203 260 307 362
#     4   9  20  38  60  88 120 161 201 243 304 370
#
# _framework density 19.422920999999999
#
# number of rings (size 3 to 8) (size 9 to 14) (size 15 to 20)
#    0.000    2.167    1.667    1.250    2.333    2.667 
#    0.000    5.833    0.000    0.500    0.000    3.500 
#    0.000    0.000    0.000    0.000    0.000    0.000 
#
# Total GULP energy -534555.916794 kJ/mol
# GULP energy per Si atom -5568.290800 kJ/mol
# Density = 1.937871 g / cm^3
# Si number density = 19.422921 Si / 1000 Ang^3
#
#
#
# Elastic Constant Matrix: (Units=GPa)
#
#
# Indices 1 2 3 4 5 6 
#
# 1 75.6969 48.2070 28.1534 0.0000 0.0000 0.0000
# 2 48.2070 75.6969 28.1534 0.0000 0.0000 0.0000
# 3 28.1534 28.1534 104.0143 0.0000 0.0000 0.0000
# 4 0.0000 0.0000 0.0000 -0.3965 0.0000 0.0000
# 5 0.0000 0.0000 0.0000 0.0000 -0.3965 0.0000
# 6 0.0000 0.0000 0.0000 0.0000 0.0000 29.9162
#
#
#
# Elastic Compliance Matrix: (Units=1/GPa)
#
#
# Indices 1 2 3 4 5 6 
#
# 1 0.022790 -0.013587 -0.002491 0.000000 0.000000 0.000000
# 2 -0.013587 0.022790 -0.002491 0.000000 0.000000 0.000000
# 3 -0.002491 -0.002491 0.010962 0.000000 0.000000 0.000000
# 4 0.000000 0.000000 0.000000 -2.522252 0.000000 0.000000
# 5 0.000000 0.000000 0.000000 0.000000 -2.522252 0.000000
# 6 0.000000 0.000000 0.000000 0.000000 0.000000 0.033427
#
#
# Mechanical properties :
#
#
# Convention : Reuss Voigt Hill
#
# Bulk Modulus (GPa) = 51.53476 51.60396 51.56936
# Shear Modulus (GPa) = -1.01814 15.88428 7.43307
#
# Velocity S-wave (km/s) = -0.72480 2.86284 1.95838
# Velocity P-wave (km/s) = 5.08823 6.12814 5.63224
#
# Compressibility (1/GPa) = 0.01940438
#
# Stress axis : x y z
#
# Youngs Moduli (GPa) = 43.87920 43.87920 91.22031
#
# Poissons Ratio (x) = 0.59619 0.22722
# Poissons Ratio (y) = 0.59619 0.22722
# Poissons Ratio (z) = 0.10930 0.10930
#
# Static dielectric constant tensor:
#      x y z
#    x 1.698540 0.000000 0.000000 
#    y 0.000000 1.698540 0.000000 
#    z 0.000000 0.000000 1.716830 
# 
# From -- ./inp_files/2726.got.cif
#   From: 2010.05.17/outbox.cif.g08.bks.cpg/sg129_2_cif.got.tgz:2726.got - 2010.05.20 12:12:06.
