data_PCOD9565493
_publ_section_title
;
Structure prediction by ZEFSAII (Michael W. Deem and Ramdas Pophale) SiO2 
 PCOD9565493
Probable space group: P 4/N M M
;
_chemical_formula_sum "Si O2"
_cell_formula_units_Z 42
_cell_length_a 16.728619
_cell_length_b 16.728619
_cell_length_c 8.041701
_cell_angle_alpha 90.000000
_cell_angle_beta 90.000000
_cell_angle_gamma 90.000000
_cell_volume 2250.443436
_symmetry_space_group_name_H-M "P 4/N M M"
_symmetry_group_IT_number 129
_symmetry_cell_setting 'tetragonal'
loop_
_space_group_symop_operation_xyz
x,y,z
1/2-y,x,z
1/2-x,1/2-y,z
y,1/2-x,z
1/2+x,-y,-z
-x,1/2+y,-z
1/2+y,1/2+x,-z
-y,-x,-z
-x,-y,-z
1/2+y,-x,-z
1/2+x,1/2+y,-z
-y,1/2+x,-z
1/2-x,y,z
x,1/2-y,z
1/2-y,1/2-x,z
y,x,z
loop_
_atom_site_type_symbol
_atom_site_label
_atom_site_fract_x
_atom_site_fract_y
_atom_site_fract_z
Si Si1 0.156123 0.957562 0.587146
Si Si2 0.750000 0.750000 0.445671
Si Si3 0.958009 0.541992 0.154508
Si Si4 0.657811 0.842190 0.964753
Si Si5 0.624841 0.624841 0.577895
O O1 0.121715 0.878286 0.500000
O O2 0.250000 0.951949 0.632537
O O3 0.094523 0.981036 0.734878
O O4 0.144590 0.033155 0.463076
O O5 0.680450 0.680450 0.463723
O O6 0.896229 0.603772 0.076871
O O7 0.000000 0.500000 0.000000
O O8 0.641899 0.750000 0.001891
O O9 0.644115 0.855886 0.768806
#
# Coordination Sequence:
#
# PCOD9565493 Si02
#       5
#    16   2   8   8   8
#     4  11  23  40  61  84 112 153 204 251 292 347
#     4  12  16  32  60  94 124 148 192 238 296 364
#     4  11  23  38  56  85 122 152 183 235 312 367
#     4  11  19  32  52  84 119 153 180 217 275 355
#     4  11  19  35  59  91 122 154 190 236 300 355
#
# _framework density 18.662989
#
# number of rings (size 3 to 8) (size 9 to 14) (size 15 to 20)
#    0.000    0.952    3.810    5.714    0.000    0.381 
#    0.000    1.905    0.000    0.000    0.000    0.000 
#    0.000    0.000    0.000    0.000    0.000    0.000 
#
# Total GULP energy -234150.742314 kJ/mol
# GULP energy per Si atom -5575.017674 kJ/mol
# Density = 1.862051 g / cm^3
# Si number density = 18.662989 Si / 1000 Ang^3
#
#
#
# Elastic Constant Matrix: (Units=GPa)
#
#
# Indices 1 2 3 4 5 6 
#
# 1 80.2880 48.8233 45.3579 0.0000 0.0000 0.0000
# 2 48.8233 80.3016 45.3606 0.0000 0.0000 0.0000
# 3 45.3579 45.3606 66.3201 0.0000 0.0000 0.0000
# 4 0.0000 0.0000 0.0000 -18.4790 0.0000 0.0000
# 5 0.0000 0.0000 0.0000 0.0000 -18.4749 0.0000
# 6 0.0000 0.0000 0.0000 0.0000 0.0000 44.5733
#
#
#
# Elastic Compliance Matrix: (Units=1/GPa)
#
#
# Indices 1 2 3 4 5 6 
#
# 1 0.023344 -0.008433 -0.010198 0.000000 0.000000 0.000000
# 2 -0.008433 0.023340 -0.010196 0.000000 0.000000 0.000000
# 3 -0.010198 -0.010196 0.029027 0.000000 0.000000 0.000000
# 4 0.000000 0.000000 0.000000 -0.054115 0.000000 0.000000
# 5 0.000000 0.000000 0.000000 0.000000 -0.054128 0.000000
# 6 0.000000 0.000000 0.000000 0.000000 0.000000 0.022435
#
#
# Mechanical properties :
#
#
# Convention : Reuss Voigt Hill
#
# Bulk Modulus (GPa) = 55.38011 56.22149 55.80080
# Shear Modulus (GPa) = 93.32457 7.34841 50.33649
#
# Velocity S-wave (km/s) = 7.07910 1.98645 5.19902
# Velocity P-wave (km/s) = 9.82632 5.95410 8.12428
#
# Compressibility (1/GPa) = 0.01805702
#
# Stress axis : x y z
#
# Youngs Moduli (GPa) = 42.83673 42.84530 34.45060
#
# Poissons Ratio (x) = 0.36130 0.35133
# Poissons Ratio (y) = 0.36123 0.35127
# Poissons Ratio (z) = 0.43686 0.43686
#
# Static dielectric constant tensor:
#      x y z
#    x 1.630250 0.000000 0.000000 
#    y 0.000000 1.630250 0.000000 
#    z 0.000000 0.000000 1.637020 
# 
# From -- ./inp_files/1442.got.cif
#   From: 2010.05.17/outbox.cif.g08.bks.cpg/sg129_1_cif.got.tgz:1442.got - 2010.05.20 12:12:06.
