data_PCOD9565710
_publ_section_title
;
Structure prediction by ZEFSAII (Michael W. Deem and Ramdas Pophale) SiO2 
 PCOD9565710
Probable space group: P 4/N C C
;
_chemical_formula_sum "Si O2"
_cell_formula_units_Z 96
_cell_length_a 15.872213
_cell_length_b 15.872213
_cell_length_c 18.896248
_cell_angle_alpha 90.000000
_cell_angle_beta 90.000000
_cell_angle_gamma 90.000000
_cell_volume 4760.477820
_symmetry_space_group_name_H-M "P 4/N C C"
_symmetry_group_IT_number 130
_symmetry_cell_setting 'tetragonal'
loop_
_space_group_symop_operation_xyz
x,y,z
1/2-y,x,z
1/2-x,1/2-y,z
y,1/2-x,z
1/2+x,-y,1/2-z
-x,1/2+y,1/2-z
1/2+y,1/2+x,1/2-z
-y,-x,1/2-z
-x,-y,-z
1/2+y,-x,-z
1/2+x,1/2+y,-z
-y,1/2+x,-z
1/2-x,y,1/2+z
x,1/2-y,1/2+z
1/2-y,1/2-x,1/2+z
y,x,1/2+z
loop_
_atom_site_type_symbol
_atom_site_label
_atom_site_fract_x
_atom_site_fract_y
_atom_site_fract_z
Si Si1 0.638461 0.324969 0.990293
Si Si2 0.023939 0.664762 0.392929
Si Si3 0.318365 0.998557 0.873114
Si Si4 0.422198 0.793335 0.775124
Si Si5 0.609753 0.735562 0.999966
Si Si6 0.030416 0.502821 0.672913
O O1 0.590841 0.374528 0.051524
O O2 0.731462 0.355975 0.977620
O O3 0.586458 0.318903 0.919312
O O4 0.068558 0.715971 0.329174
O O5 0.962045 0.722679 0.440492
O O6 0.972062 0.585220 0.365567
O O7 0.279619 0.976422 0.796763
O O8 0.418006 0.017255 0.862505
O O9 0.273662 0.066637 0.922795
O O10 0.330657 0.830657 0.750000
O O11 0.464414 0.874719 0.813097
O O12 0.677775 0.660380 0.992681
O O13 0.990485 0.490485 0.750000
#
# Coordination Sequence:
#
# PCOD9565710 Si02
#       6
#    16  16  16  16  16  16
#     4  10  21  35  52  79 111 145 185 225 273 336
#     4  11  21  35  60  82 109 148 185 234 285 337
#     4   9  20  37  58  78 112 149 181 235 289 340
#     4   9  19  37  58  82 112 145 184 232 290 347
#     4  10  22  37  54  81 112 146 191 237 287 346
#     4   9  20  36  54  82 109 138 188 232 275 339
#
# _framework density 20.166043999999999
#
# number of rings (size 3 to 8) (size 9 to 14) (size 15 to 20)
#    0.000    2.667    0.000    3.000    0.000   10.667 
#    0.000    0.000    0.000    8.000    0.000    0.000 
#    0.000    0.000    0.000    0.000    0.000    0.000 
#
# Total GULP energy -535288.108935 kJ/mol
# GULP energy per Si atom -5575.917801 kJ/mol
# Density = 2.012015 g / cm^3
# Si number density = 20.166044 Si / 1000 Ang^3
#
#
#
# Elastic Constant Matrix: (Units=GPa)
#
#
# Indices 1 2 3 4 5 6 
#
# 1 39.8934 -7.2414 9.4852 0.0000 0.0000 0.0000
# 2 -7.2414 39.8934 9.4852 0.0000 0.0000 0.0000
# 3 9.4852 9.4852 56.6345 0.0000 0.0000 0.0000
# 4 0.0000 0.0000 0.0000 20.3248 0.0000 0.0000
# 5 0.0000 0.0000 0.0000 0.0000 20.3248 0.0000
# 6 0.0000 0.0000 0.0000 0.0000 0.0000 15.5071
#
#
#
# Elastic Compliance Matrix: (Units=1/GPa)
#
#
# Indices 1 2 3 4 5 6 
#
# 1 0.027572 0.006356 -0.005682 0.000000 0.000000 0.000000
# 2 0.006356 0.027572 -0.005682 0.000000 0.000000 0.000000
# 3 -0.005682 -0.005682 0.019560 0.000000 0.000000 0.000000
# 4 0.000000 0.000000 0.000000 0.049201 0.000000 0.000000
# 5 0.000000 0.000000 0.000000 0.000000 0.049201 0.000000
# 6 0.000000 0.000000 0.000000 0.000000 0.000000 0.064487
#
#
# Mechanical properties :
#
#
# Convention : Reuss Voigt Hill
#
# Bulk Modulus (GPa) = 15.45922 17.76435 16.61178
# Shear Modulus (GPa) = 18.57553 19.54416 19.05985
#
# Velocity S-wave (km/s) = 3.03830 3.11651 3.07766
# Velocity P-wave (km/s) = 4.47113 4.66673 4.56998
#
# Compressibility (1/GPa) = 0.06468633
#
# Stress axis : x y z
#
# Youngs Moduli (GPa) = 36.26929 36.26929 51.12369
#
# Poissons Ratio (x) = -0.23052 0.29049
# Poissons Ratio (y) = -0.23052 0.29049
# Poissons Ratio (z) = 0.20609 0.20609
#
# Static dielectric constant tensor:
#      x y z
#    x 1.725990 0.000000 0.000000 
#    y 0.000000 1.725990 0.000000 
#    z 0.000000 0.000000 1.751570 
# 
# From -- ./inp_files/3085.got.cif
#   From: 2010.05.17/outbox.cif.g08.bks.cpg/sg130_2_cif.got.tgz:3085.got - 2010.05.20 12:17:35.
