data_PCOD9565149
_publ_section_title
;
Structure prediction by ZEFSAII (Michael W. Deem and Ramdas Pophale) SiO2 
 PCOD9565149
Probable space group: P 4/N M M
;
_chemical_formula_sum "Si O2"
_cell_formula_units_Z 128
_cell_length_a 23.960773
_cell_length_b 23.960773
_cell_length_c 14.502048
_cell_angle_alpha 90.000000
_cell_angle_beta 90.000000
_cell_angle_gamma 90.000000
_cell_volume 8325.896115
_symmetry_space_group_name_H-M "P 4/N M M"
_symmetry_group_IT_number 129
_symmetry_cell_setting 'tetragonal'
loop_
_space_group_symop_operation_xyz
x,y,z
1/2-y,x,z
1/2-x,1/2-y,z
y,1/2-x,z
1/2+x,-y,-z
-x,1/2+y,-z
1/2+y,1/2+x,-z
-y,-x,-z
-x,-y,-z
1/2+y,-x,-z
1/2+x,1/2+y,-z
-y,1/2+x,-z
1/2-x,y,z
x,1/2-y,z
1/2-y,1/2-x,z
y,x,z
loop_
_atom_site_type_symbol
_atom_site_label
_atom_site_fract_x
_atom_site_fract_y
_atom_site_fract_z
Si Si1 0.995729 0.088763 0.246153
Si Si2 0.090771 0.001323 0.027605
Si Si3 0.137197 0.814544 0.595579
Si Si4 0.419891 0.635102 0.285449
Si Si5 0.515785 0.314165 0.881827
Si Si6 0.497164 0.814433 0.611427
Si Si7 0.816620 0.982368 0.407926
Si Si8 0.186110 0.095529 0.758115
O O1 0.999594 0.100577 0.137029
O O2 0.931251 0.075814 0.269364
O O3 0.010848 0.142299 0.308086
O O4 0.036762 0.036762 0.265694
O O5 0.046395 0.953606 0.000000
O O6 0.059797 0.059797 0.004676
O O7 0.145604 0.990125 0.968644
O O8 0.163926 0.836075 0.500000
O O9 0.153191 0.750000 0.612476
O O10 0.151178 0.858942 0.675911
O O11 0.069557 0.816410 0.590803
O O12 0.437619 0.664920 0.190660
O O13 0.464891 0.652736 0.362664
O O14 0.525693 0.250000 0.906826
O O15 0.457667 0.317683 0.825417
O O16 0.510699 0.750000 0.634326
O O17 0.525342 0.830686 0.514593
O O18 0.750000 0.994050 0.402750
O O19 0.827178 0.929556 0.342872
O O20 0.250000 0.115340 0.758747
O O21 0.143047 0.143047 0.783719
#
# Coordination Sequence:
#
# PCOD9565149 Si02
#       8
#    16  16  16  16  16  16  16  16
#     4  10  21  32  48  75 101 124 159 198 246 299
#     4  10  19  34  53  72  96 124 154 198 249 293
#     4  10  19  30  46  66  91 126 166 203 241 284
#     4  10  18  31  48  67  99 125 156 197 241 284
#     4  10  20  33  53  74  93 124 164 201 237 288
#     4   9  18  33  50  67  96 134 163 199 243 284
#     4   9  17  30  48  66  90 128 167 196 230 277
#     4   9  18  30  46  72  99 126 160 193 230 282
#
# _framework density 15.37372
#
# number of rings (size 3 to 8) (size 9 to 14) (size 15 to 20)
#    0.000    2.375    2.500    1.500    0.000    3.750 
#    0.000    0.625    0.000    0.000    0.000    0.000 
#    0.000    0.250    0.000    2.750    0.000    4.500 
#
# Total GULP energy -713355.071507 kJ/mol
# GULP energy per Si atom -5573.086496 kJ/mol
# Density = 1.533873 g / cm^3
# Si number density = 15.373720 Si / 1000 Ang^3
#
#
#
# Elastic Constant Matrix: (Units=GPa)
#
#
# Indices 1 2 3 4 5 6 
#
# 1 75.6954 47.3716 44.6386 0.0000 0.0000 0.0000
# 2 47.3716 75.6953 44.6390 0.0000 0.0000 0.0000
# 3 44.6386 44.6390 92.3194 0.0000 0.0000 0.0000
# 4 0.0000 0.0000 0.0000 21.0663 0.0000 0.0000
# 5 0.0000 0.0000 0.0000 0.0000 21.0664 0.0000
# 6 0.0000 0.0000 0.0000 0.0000 0.0000 13.1954
#
#
#
# Elastic Compliance Matrix: (Units=1/GPa)
#
#
# Indices 1 2 3 4 5 6 
#
# 1 0.023911 -0.011395 -0.006052 0.000000 0.000000 0.000000
# 2 -0.011395 0.023911 -0.006052 0.000000 0.000000 0.000000
# 3 -0.006052 -0.006052 0.016684 0.000000 0.000000 0.000000
# 4 0.000000 0.000000 0.000000 0.047469 0.000000 0.000000
# 5 0.000000 0.000000 0.000000 0.000000 0.047469 0.000000
# 6 0.000000 0.000000 0.000000 0.000000 0.000000 0.075784
#
#
# Mechanical properties :
#
#
# Convention : Reuss Voigt Hill
#
# Bulk Modulus (GPa) = 57.11337 57.44539 57.27938
# Shear Modulus (GPa) = 17.35738 18.20301 17.78020
#
# Velocity S-wave (km/s) = 3.36375 3.44471 3.40447
# Velocity P-wave (km/s) = 7.23305 7.29853 7.26586
#
# Compressibility (1/GPa) = 0.01750904
#
# Stress axis : x y z
#
# Youngs Moduli (GPa) = 41.82203 41.82173 59.93661
#
# Poissons Ratio (x) = 0.47656 0.36271
# Poissons Ratio (y) = 0.47657 0.36273
# Poissons Ratio (z) = 0.25309 0.25310
#
# Static dielectric constant tensor:
#      x y z
#    x 1.503440 0.000000 0.000000 
#    y 0.000000 1.503440 0.000000 
#    z 0.000000 0.000000 1.506870 
# 
# From -- ./inp_files/4229.got.cif
#   From: 2010.05.17/outbox.cif.g08.bks.cpg/sg129_3_cif.got.tgz:4229.got - 2010.05.20 12:12:06.
