data_PCOD9565270
_publ_section_title
;
Structure prediction by ZEFSAII (Michael W. Deem and Ramdas Pophale) SiO2 
 PCOD9565270
Probable space group: P 4/N M M
;
_chemical_formula_sum "Si O2"
_cell_formula_units_Z 72
_cell_length_a 19.446066
_cell_length_b 19.446066
_cell_length_c 13.004945
_cell_angle_alpha 90.000000
_cell_angle_beta 90.000000
_cell_angle_gamma 90.000000
_cell_volume 4917.813227
_symmetry_space_group_name_H-M "P 4/N M M"
_symmetry_group_IT_number 129
_symmetry_cell_setting 'tetragonal'
loop_
_space_group_symop_operation_xyz
x,y,z
1/2-y,x,z
1/2-x,1/2-y,z
y,1/2-x,z
1/2+x,-y,-z
-x,1/2+y,-z
1/2+y,1/2+x,-z
-y,-x,-z
-x,-y,-z
1/2+y,-x,-z
1/2+x,1/2+y,-z
-y,1/2+x,-z
1/2-x,y,z
x,1/2-y,z
1/2-y,1/2-x,z
y,x,z
loop_
_atom_site_type_symbol
_atom_site_label
_atom_site_fract_x
_atom_site_fract_y
_atom_site_fract_z
Si Si1 0.557698 0.829393 0.719211
Si Si2 0.595453 0.331975 0.212900
Si Si3 0.667879 0.404192 0.403198
Si Si4 0.829661 0.557277 0.472438
Si Si5 0.331110 0.831110 0.000000
O O1 0.576824 0.750000 0.740183
O O2 0.617663 0.882338 0.746681
O O3 0.485728 0.844804 0.774448
O O4 0.545653 0.834734 0.595869
O O5 0.606257 0.250000 0.230980
O O6 0.635500 0.373867 0.299925
O O7 0.624520 0.348116 0.100277
O O8 0.635162 0.364839 0.500000
O O9 0.750000 0.395008 0.403876
O O10 0.653704 0.485320 0.417838
O O11 0.750000 0.575376 0.450911
O O12 0.882304 0.617697 0.445046
O O13 0.340789 0.750000 0.023652
#
# Coordination Sequence:
#
# PCOD9565270 Si02
#       5
#    16  16  16  16   8
#     4   9  17  30  47  67  92 120 151 189 232 276
#     4  10  19  32  47  66  93 124 157 191 227 268
#     4  11  20  29  43  67  96 123 152 185 223 272
#     4   9  18  31  46  67  93 121 155 190 228 275
#     4   9  18  32  49  66  86 120 161 192 220 259
#
# _framework density 14.640654
#
# number of rings (size 3 to 8) (size 9 to 14) (size 15 to 20)
#    0.000    2.333    2.222    1.333    0.000    4.222 
#    0.000    2.778    0.000    0.000    0.000    0.000 
#    0.000    0.000    0.000   11.556    0.000    0.444 
#
# Total GULP energy -401442.857337 kJ/mol
# GULP energy per Si atom -5575.595241 kJ/mol
# Density = 1.460733 g / cm^3
# Si number density = 14.640654 Si / 1000 Ang^3
#
#
#
# Elastic Constant Matrix: (Units=GPa)
#
#
# Indices 1 2 3 4 5 6 
#
# 1 106.9798 95.2819 67.7484 0.0000 0.0000 0.0000
# 2 95.2819 106.9803 67.7481 0.0000 0.0000 0.0000
# 3 67.7484 67.7481 86.5541 0.0000 0.0000 0.0000
# 4 0.0000 0.0000 0.0000 18.6099 0.0000 0.0000
# 5 0.0000 0.0000 0.0000 0.0000 18.6101 0.0000
# 6 0.0000 0.0000 0.0000 0.0000 0.0000 27.0203
#
#
#
# Elastic Compliance Matrix: (Units=1/GPa)
#
#
# Indices 1 2 3 4 5 6 
#
# 1 0.047939 -0.037544 -0.008137 0.000000 0.000000 0.000000
# 2 -0.037544 0.047938 -0.008135 0.000000 0.000000 0.000000
# 3 -0.008137 -0.008135 0.024290 0.000000 0.000000 0.000000
# 4 0.000000 0.000000 0.000000 0.053735 0.000000 0.000000
# 5 0.000000 0.000000 0.000000 0.000000 0.053734 0.000000
# 6 0.000000 0.000000 0.000000 0.000000 0.000000 0.037009
#
#
# Mechanical properties :
#
#
# Convention : Reuss Voigt Hill
#
# Bulk Modulus (GPa) = 79.77752 84.67455 82.22603
# Shear Modulus (GPa) = 13.28172 17.49712 15.38942
#
# Velocity S-wave (km/s) = 3.01521 3.46078 3.24565
# Velocity P-wave (km/s) = 8.16889 8.59826 8.38632
#
# Compressibility (1/GPa) = 0.01253486
#
# Stress axis : x y z
#
# Youngs Moduli (GPa) = 20.85971 20.86012 41.16918
#
# Poissons Ratio (x) = 0.78318 0.33498
# Poissons Ratio (y) = 0.78316 0.33493
# Poissons Ratio (z) = 0.16973 0.16971
#
# Static dielectric constant tensor:
#      x y z
#    x 1.477380 0.000000 0.000000 
#    y 0.000000 1.477380 0.000000 
#    z 0.000000 0.000000 1.456470 
# 
# From -- ./inp_files/3534.got.cif
#   From: 2010.05.17/outbox.cif.g08.bks.cpg/sg129_2_cif.got.tgz:3534.got - 2010.05.20 12:12:06.
