data_PCOD9565040
_publ_section_title
;
Structure prediction by ZEFSAII (Michael W. Deem and Ramdas Pophale) SiO2 
 PCOD9565040
Probable space group: P 4/M N C
;
_chemical_formula_sum "Si O2"
_cell_formula_units_Z 50
_cell_length_a 13.567665
_cell_length_b 13.567665
_cell_length_c 12.296006
_cell_angle_alpha 90.000000
_cell_angle_beta 90.000000
_cell_angle_gamma 90.000000
_cell_volume 2263.467641
_symmetry_space_group_name_H-M "P 4/M N C"
_symmetry_group_IT_number 128
_symmetry_cell_setting 'tetragonal'
loop_
_space_group_symop_operation_xyz
x,y,z
-y,x,z
-x,-y,z
y,-x,z
1/2+x,1/2-y,1/2-z
1/2-x,1/2+y,1/2-z
1/2+y,1/2+x,1/2-z
1/2-y,1/2-x,1/2-z
-x,-y,-z
y,-x,-z
x,y,-z
-y,x,-z
1/2-x,1/2+y,1/2+z
1/2+x,1/2-y,1/2+z
1/2-y,1/2-x,1/2+z
1/2+y,1/2+x,1/2+z
loop_
_atom_site_type_symbol
_atom_site_label
_atom_site_fract_x
_atom_site_fract_y
_atom_site_fract_z
Si Si1 0.381881 0.007669 0.000000
Si Si2 0.384872 0.690399 0.500000
Si Si3 0.484965 0.334121 0.880544
Si Si4 0.610519 0.758667 0.318674
Si Si5 0.500000 0.500000 0.500000
O O1 0.343827 0.066991 0.894822
O O2 0.500000 0.000000 0.000000
O O3 0.306306 0.913412 0.000000
O O4 0.324644 0.658324 0.393917
O O5 0.481420 0.620407 0.500000
O O6 0.585326 0.396800 0.878151
O O7 0.470666 0.275338 0.769347
O O8 0.479446 0.283266 0.000000
O O9 0.698666 0.801335 0.250000
#
# Coordination Sequence:
#
# PCOD9565040 Si02
#       5
#     8   8  16  16   2
#     4  11  26  51  70 100 147 202 251 299 374 454
#     4  11  24  45  76 115 134 187 247 317 380 423
#     4   9  19  36  65 102 137 175 222 291 373 432
#     4  11  24  42  69 100 143 185 245 298 360 441
#     4  12  20  44  88 112 142 156 252 340 368 430
#
# _framework density 22.090001000000001
#
# number of rings (size 3 to 8) (size 9 to 14) (size 15 to 20)
#    0.000    1.600    3.200    2.880    4.480    0.640 
#   11.520    0.000    0.000    0.000    0.000    0.000 
#    0.000    0.000    0.000    0.000    0.000    0.000 
#
# Total GULP energy -278706.227207 kJ/mol
# GULP energy per Si atom -5574.124544 kJ/mol
# Density = 2.203972 g / cm^3
# Si number density = 22.090001 Si / 1000 Ang^3
#
#
#
# Elastic Constant Matrix: (Units=GPa)
#
#
# Indices 1 2 3 4 5 6 
#
# 1 112.7990 35.2729 59.6302 0.0000 0.0000 0.0000
# 2 35.2729 112.8007 59.6311 0.0000 0.0000 0.0000
# 3 59.6302 59.6311 179.1745 0.0000 0.0000 0.0000
# 4 0.0000 0.0000 0.0000 -5.6126 0.0000 0.0000
# 5 0.0000 0.0000 0.0000 0.0000 -5.6175 0.0000
# 6 0.0000 0.0000 0.0000 0.0000 0.0000 27.8847
#
#
#
# Elastic Compliance Matrix: (Units=1/GPa)
#
#
# Indices 1 2 3 4 5 6 
#
# 1 0.011063 -0.001836 -0.003071 0.000000 0.000000 0.000000
# 2 -0.001836 0.011063 -0.003071 0.000000 0.000000 0.000000
# 3 -0.003071 -0.003071 0.007625 0.000000 0.000000 0.000000
# 4 0.000000 0.000000 0.000000 -0.178170 0.000000 0.000000
# 5 0.000000 0.000000 0.000000 0.000000 -0.178015 0.000000
# 6 0.000000 0.000000 0.000000 0.000000 0.000000 0.035862
#
#
# Mechanical properties :
#
#
# Convention : Reuss Voigt Hill
#
# Bulk Modulus (GPa) = 72.48710 79.31585 75.90148
# Shear Modulus (GPa) = -18.51715 20.01360 0.74822
#
# Velocity S-wave (km/s) = -2.89841 3.01325 0.58262
# Velocity P-wave (km/s) = 4.65667 6.93469 5.90655
#
# Compressibility (1/GPa) = 0.01379556
#
# Stress axis : x y z
#
# Youngs Moduli (GPa) = 90.39334 90.39446 131.14657
#
# Poissons Ratio (x) = 0.16597 0.40271
# Poissons Ratio (y) = 0.16597 0.40271
# Poissons Ratio (z) = 0.27757 0.27757
#
# Static dielectric constant tensor:
#      x y z
#    x 1.849140 0.000000 0.000000 
#    y 0.000000 1.849140 0.000000 
#    z 0.000000 0.000000 1.831240 
# 
# From -- ./inp_files/2277.got.cif
#   From: 2010.05.17/outbox.cif.g08.bks.cpg/sg128_2_cif.got.tgz:2277.got - 2010.05.20 12:07:25.
