data_PCOD9565517
_publ_section_title
;
Structure prediction by ZEFSAII (Michael W. Deem and Ramdas Pophale) SiO2 
 PCOD9565517
Probable space group: P 4/N M M
;
_chemical_formula_sum "Si O2"
_cell_formula_units_Z 64
_cell_length_a 19.387759
_cell_length_b 19.387759
_cell_length_c 7.969701
_cell_angle_alpha 90.000000
_cell_angle_beta 90.000000
_cell_angle_gamma 90.000000
_cell_volume 2995.692647
_symmetry_space_group_name_H-M "P 4/N M M"
_symmetry_group_IT_number 129
_symmetry_cell_setting 'tetragonal'
loop_
_space_group_symop_operation_xyz
x,y,z
1/2-y,x,z
1/2-x,1/2-y,z
y,1/2-x,z
1/2+x,-y,-z
-x,1/2+y,-z
1/2+y,1/2+x,-z
-y,-x,-z
-x,-y,-z
1/2+y,-x,-z
1/2+x,1/2+y,-z
-y,1/2+x,-z
1/2-x,y,z
x,1/2-y,z
1/2-y,1/2-x,z
y,x,z
loop_
_atom_site_type_symbol
_atom_site_label
_atom_site_fract_x
_atom_site_fract_y
_atom_site_fract_z
Si Si1 0.446572 0.332215 0.676709
Si Si2 0.040744 0.833534 0.629368
Si Si3 0.173170 0.666027 0.808089
Si Si4 0.555012 0.831211 0.945041
O O1 0.433782 0.250000 0.655397
O O2 0.376715 0.376715 0.661947
O O3 0.499301 0.356523 0.533920
O O4 0.473882 0.342379 0.866711
O O5 0.044737 0.750000 0.617433
O O6 0.117198 0.857785 0.676077
O O7 0.996167 0.849800 0.795447
O O8 0.250000 0.638570 0.775656
O O9 0.176850 0.750000 0.800487
O O10 0.151966 0.651966 0.000000
O O11 0.570374 0.750000 0.930337
O O12 0.623277 0.876724 0.930191
#
# Coordination Sequence:
#
# PCOD9565517 Si02
#       4
#    16  16  16  16
#     4   9  17  28  43  65  93 127 167 207 246 289
#     4   9  16  27  45  67  92 123 157 195 243 298
#     4   8  14  26  47  74  97 117 148 194 248 303
#     4   9  17  28  43  65  93 127 167 207 246 289
#
# _framework density 21.364007000000001
#
# number of rings (size 3 to 8) (size 9 to 14) (size 15 to 20)
#    0.000    3.250    0.000    1.500    0.000    0.500 
#    0.000    2.500    0.000   10.500    0.000   21.000 
#    0.000   12.000    0.000    0.000    0.000    0.000 
#
# Total GULP energy -357422.315785 kJ/mol
# GULP energy per Si atom -5584.723684 kJ/mol
# Density = 2.131538 g / cm^3
# Si number density = 21.364007 Si / 1000 Ang^3
#
#
#
# Elastic Constant Matrix: (Units=GPa)
#
#
# Indices 1 2 3 4 5 6 
#
# 1 59.5432 33.6496 63.8903 0.0000 0.0000 0.0000
# 2 33.6496 59.5432 63.8903 0.0000 0.0000 0.0000
# 3 63.8903 63.8903 152.0579 0.0000 0.0000 0.0000
# 4 0.0000 0.0000 0.0000 14.7435 0.0000 0.0000
# 5 0.0000 0.0000 0.0000 0.0000 14.7435 0.0000
# 6 0.0000 0.0000 0.0000 0.0000 0.0000 0.4960
#
#
#
# Elastic Compliance Matrix: (Units=1/GPa)
#
#
# Indices 1 2 3 4 5 6 
#
# 1 0.031967 -0.006653 -0.010636 0.000000 0.000000 0.000000
# 2 -0.006653 0.031967 -0.010636 0.000000 0.000000 0.000000
# 3 -0.010636 -0.010636 0.015515 0.000000 0.000000 0.000000
# 4 0.000000 0.000000 0.000000 0.067826 0.000000 0.000000
# 5 0.000000 0.000000 0.000000 0.000000 0.067826 0.000000
# 6 0.000000 0.000000 0.000000 0.000000 0.000000 2.015973
#
#
# Mechanical properties :
#
#
# Convention : Reuss Voigt Hill
#
# Bulk Modulus (GPa) = 42.37645 66.00053 54.18849
# Shear Modulus (GPa) = 2.17885 13.31088 7.74486
#
# Velocity S-wave (km/s) = 1.01098 2.49881 1.90606
# Velocity P-wave (km/s) = 4.60883 6.26784 5.50123
#
# Compressibility (1/GPa) = 0.02359801
#
# Stress axis : x y z
#
# Youngs Moduli (GPa) = 31.28220 31.28220 64.45501
#
# Poissons Ratio (x) = 0.20811 0.68557
# Poissons Ratio (y) = 0.20811 0.68557
# Poissons Ratio (z) = 0.33273 0.33273
#
# Static dielectric constant tensor:
#      x y z
#    x 1.755220 0.000000 0.000000 
#    y 0.000000 1.755220 0.000000 
#    z 0.000000 0.000000 1.806700 
# 
# From -- ./inp_files/2058.got.cif
#   From: 2010.05.17/outbox.cif.g08.bks.cpg/sg129_2_cif.got.tgz:2058.got - 2010.05.20 12:12:06.
