data_PCOD9565798
_publ_section_title
;
Structure prediction by ZEFSAII (Michael W. Deem and Ramdas Pophale) SiO2 
 PCOD9565798
Probable space group: P 4/N C C
;
_chemical_formula_sum "Si O2"
_cell_formula_units_Z 120
_cell_length_a 20.214735
_cell_length_b 20.214735
_cell_length_c 14.656503
_cell_angle_alpha 90.000000
_cell_angle_beta 90.000000
_cell_angle_gamma 90.000000
_cell_volume 5989.167595
_symmetry_space_group_name_H-M "P 4/N C C"
_symmetry_group_IT_number 130
_symmetry_cell_setting 'tetragonal'
loop_
_space_group_symop_operation_xyz
x,y,z
1/2-y,x,z
1/2-x,1/2-y,z
y,1/2-x,z
1/2+x,-y,1/2-z
-x,1/2+y,1/2-z
1/2+y,1/2+x,1/2-z
-y,-x,1/2-z
-x,-y,-z
1/2+y,-x,-z
1/2+x,1/2+y,-z
-y,1/2+x,-z
1/2-x,y,1/2+z
x,1/2-y,1/2+z
1/2-y,1/2-x,1/2+z
y,x,1/2+z
loop_
_atom_site_type_symbol
_atom_site_label
_atom_site_fract_x
_atom_site_fract_y
_atom_site_fract_z
Si Si1 0.451204 0.454618 0.616076
Si Si2 0.355996 0.818679 0.594865
Si Si3 0.874774 0.274397 0.603519
Si Si4 0.113944 0.613944 0.250000
Si Si5 0.865678 0.526520 0.700139
Si Si6 0.962485 0.162683 0.622073
Si Si7 0.517848 0.218910 0.322319
Si Si8 0.028076 0.413407 0.413783
O O1 0.400473 0.457354 0.701259
O O2 0.475015 0.379647 0.594203
O O3 0.421251 0.481978 0.522175
O O4 0.522478 0.490650 0.632103
O O5 0.282103 0.822814 0.633482
O O6 0.350100 0.809039 0.487178
O O7 0.379094 0.894498 0.611468
O O8 0.407857 0.769073 0.638720
O O9 0.888936 0.323290 0.684855
O O10 0.940402 0.231794 0.576310
O O11 0.113515 0.549884 0.313964
O O12 0.786034 0.522986 0.693334
O O13 0.898062 0.572368 0.623872
O O14 0.972121 0.182644 0.726258
O O15 0.488055 0.161547 0.385732
#
# Coordination Sequence:
#
# PCOD9565798 Si02
#       8
#    16  16  16   8  16  16  16  16
#     4  11  23  42  69  97 130 172 230 279 349 401
#     4  10  24  40  60  86 128 185 234 272 320 405
#     4  10  25  40  57  88 135 183 231 273 324 398
#     4  12  24  40  59  92 136 176 226 275 324 392
#     4  12  25  40  67 100 133 168 227 288 339 411
#     4  10  22  41  64  88 126 181 218 275 333 397
#     4  12  24  43  66  95 133 174 227 281 348 414
#     4  11  24  41  71  94 133 175 219 286 347 412
#
# _framework density 20.036173000000002
#
# number of rings (size 3 to 8) (size 9 to 14) (size 15 to 20)
#    0.800    0.267    5.333    0.400    7.467    0.267 
#    0.000    0.667    0.000    0.400    0.000    0.000 
#    4.000    0.000    0.000    0.000    0.000    0.000 
#
# Total GULP energy -668968.376823 kJ/mol
# GULP energy per Si atom -5574.736474 kJ/mol
# Density = 1.999057 g / cm^3
# Si number density = 20.036173 Si / 1000 Ang^3
#
#
#
# Elastic Constant Matrix: (Units=GPa)
#
#
# Indices 1 2 3 4 5 6 
#
# 1 88.2731 42.4261 16.8767 0.0000 0.0000 0.0000
# 2 42.4261 88.2731 16.8767 0.0000 0.0000 0.0000
# 3 16.8767 16.8767 46.8708 0.0000 0.0000 0.0000
# 4 0.0000 0.0000 0.0000 23.4919 0.0000 0.0000
# 5 0.0000 0.0000 0.0000 0.0000 23.4919 0.0000
# 6 0.0000 0.0000 0.0000 0.0000 0.0000 27.2089
#
#
#
# Elastic Compliance Matrix: (Units=1/GPa)
#
#
# Indices 1 2 3 4 5 6 
#
# 1 0.015124 -0.006688 -0.003037 0.000000 0.000000 0.000000
# 2 -0.006688 0.015124 -0.003037 0.000000 0.000000 0.000000
# 3 -0.003037 -0.003037 0.023523 0.000000 0.000000 0.000000
# 4 0.000000 0.000000 0.000000 0.042568 0.000000 0.000000
# 5 0.000000 0.000000 0.000000 0.000000 0.042568 0.000000
# 6 0.000000 0.000000 0.000000 0.000000 0.000000 0.036753
#
#
# Mechanical properties :
#
#
# Convention : Reuss Voigt Hill
#
# Bulk Modulus (GPa) = 35.40553 41.75289 38.57921
# Shear Modulus (GPa) = 23.74188 24.65440 24.19814
#
# Velocity S-wave (km/s) = 3.44605 3.51165 3.47900
# Velocity P-wave (km/s) = 5.79162 6.10952 5.95269
#
# Compressibility (1/GPa) = 0.02824417
#
# Stress axis : x y z
#
# Youngs Moduli (GPa) = 66.12173 66.12173 42.51239
#
# Poissons Ratio (x) = 0.44223 0.12913
# Poissons Ratio (y) = 0.44223 0.12913
# Poissons Ratio (z) = 0.20084 0.20084
#
# Static dielectric constant tensor:
#      x y z
#    x 1.772910 0.000000 0.000000 
#    y 0.000000 1.772910 0.000000 
#    z 0.000000 0.000000 1.707250 
# 
# From -- ./inp_files/2566.got.cif
#   From: 2010.05.17/outbox.cif.g08.bks.cpg/sg130_2_cif.got.tgz:2566.got - 2010.05.20 12:17:35.
