data_PCOD9565088
_publ_section_title
;
Structure prediction by ZEFSAII (Michael W. Deem and Ramdas Pophale) SiO2 
 PCOD9565088
Probable space group: P 4/M N C
;
_chemical_formula_sum "Si O2"
_cell_formula_units_Z 72
_cell_length_a 21.000000
_cell_length_b 21.000000
_cell_length_c 9.000000
_cell_angle_alpha 90.000000
_cell_angle_beta 90.000000
_cell_angle_gamma 90.000000
_cell_volume 3969.000000
_symmetry_space_group_name_H-M "P 4/M N C"
_symmetry_group_IT_number 128
_symmetry_cell_setting 'tetragonal'
loop_
_space_group_symop_operation_xyz
x,y,z
-y,x,z
-x,-y,z
y,-x,z
1/2+x,1/2-y,1/2-z
1/2-x,1/2+y,1/2-z
1/2+y,1/2+x,1/2-z
1/2-y,1/2-x,1/2-z
-x,-y,-z
y,-x,-z
x,y,-z
-y,x,-z
1/2-x,1/2+y,1/2+z
1/2+x,1/2-y,1/2+z
1/2-y,1/2-x,1/2+z
1/2+y,1/2+x,1/2+z
loop_
_atom_site_type_symbol
_atom_site_label
_atom_site_fract_x
_atom_site_fract_y
_atom_site_fract_z
Si Si1 0.189843 0.589530 0.180511
Si Si2 0.443256 0.847862 0.177293
Si Si3 0.168129 0.100014 0.813165
Si Si4 0.345802 0.751342 0.324018
Si Si5 0.550429 0.596419 0.000000
O O1 0.142809 0.642809 0.250000
O O2 0.160245 0.518690 0.202271
O O3 0.257715 0.591421 0.266805
O O4 0.198179 0.598921 0.000000
O O5 0.409987 0.909987 0.250000
O O6 0.404910 0.788048 0.247830
O O7 0.432430 0.848907 0.000000
O O8 0.152154 0.175342 0.805234
O O9 0.130752 0.068726 0.663642
O O10 0.159258 0.083155 0.000000
O O11 0.283066 0.783066 0.250000
O O12 0.345488 0.765259 0.500000
O O13 0.473661 0.584195 0.000000
#
# Coordination Sequence:
#
# PCOD9565088 Si02
#       5
#    16  16  16  16   8
#     4  11  24  41  63  94 133 175 223 278 335 396
#     4  10  22  38  61  90 126 173 220 272 329 392
#     4  11  25  42  70 101 130 175 222 274 334 400
#     4  10  21  35  58  92 126 165 217 274 328 390
#     4  11  28  50  72 100 136 173 217 275 333 401
#
# _framework density 18.14059
#
# number of rings (size 3 to 8) (size 9 to 14) (size 15 to 20)
#    0.000    1.444    1.111    4.000    6.222    6.667 
#    0.000    3.333    0.000    0.000    0.000    0.000 
#    0.000    0.000    0.000    0.000    0.000    0.000 
#
# Total GULP energy -401054.607205 kJ/mol
# GULP energy per Si atom -5570.202878 kJ/mol
# Density = 1.809930 g / cm^3
# Si number density = 18.140590 Si / 1000 Ang^3
#
#
#
# Elastic Constant Matrix: (Units=GPa)
#
#
# Indices 1 2 3 4 5 6 
#
# 1 116.6421 35.4121 55.8203 0.0000 0.0000 0.0000
# 2 35.4121 116.6421 55.8203 0.0000 0.0000 0.0000
# 3 55.8203 55.8203 175.7107 0.0000 0.0000 0.0000
# 4 0.0000 0.0000 0.0000 43.3984 0.0000 0.0000
# 5 0.0000 0.0000 0.0000 0.0000 43.3984 0.0000
# 6 0.0000 0.0000 0.0000 0.0000 0.0000 23.1679
#
#
#
# Elastic Compliance Matrix: (Units=1/GPa)
#
#
# Indices 1 2 3 4 5 6 
#
# 1 0.010444 -0.001867 -0.002725 0.000000 0.000000 0.000000
# 2 -0.001867 0.010444 -0.002725 0.000000 0.000000 0.000000
# 3 -0.002725 -0.002725 0.007422 0.000000 0.000000 0.000000
# 4 0.000000 0.000000 0.000000 0.023042 0.000000 0.000000
# 5 0.000000 0.000000 0.000000 0.000000 0.023042 0.000000
# 6 0.000000 0.000000 0.000000 0.000000 0.000000 0.043163
#
#
# Mechanical properties :
#
#
# Convention : Reuss Voigt Hill
#
# Bulk Modulus (GPa) = 73.11260 78.12225 75.61743
# Shear Modulus (GPa) = 36.56300 39.45574 38.00937
#
# Velocity S-wave (km/s) = 4.49434 4.66875 4.58237
# Velocity P-wave (km/s) = 8.20506 8.49831 8.35297
#
# Compressibility (1/GPa) = 0.01367753
#
# Stress axis : x y z
#
# Youngs Moduli (GPa) = 95.74903 95.74903 134.72659
#
# Poissons Ratio (x) = 0.17874 0.36711
# Poissons Ratio (y) = 0.17874 0.36711
# Poissons Ratio (z) = 0.26090 0.26090
#
# Static dielectric constant tensor:
#      x y z
#    x 1.632270 0.000000 0.000000 
#    y 0.000000 1.632270 0.000000 
#    z 0.000000 0.000000 1.669770 
# 
# From -- ./inp_files/1201.got.cif
#   From: 2010.05.17/outbox.ucp.g08.bks.cvg/sg128_1_cif.got.tgz:1201.got - 2010.06.11 11:37:33.
