data_PCOD9565320
_publ_section_title
;
Structure prediction by ZEFSAII (Michael W. Deem and Ramdas Pophale) SiO2 
 PCOD9565320
Probable space group: P 4/N M M
;
_chemical_formula_sum "Si O2"
_cell_formula_units_Z 88
_cell_length_a 17.795438
_cell_length_b 17.795438
_cell_length_c 13.571271
_cell_angle_alpha 90.000000
_cell_angle_beta 90.000000
_cell_angle_gamma 90.000000
_cell_volume 4297.717714
_symmetry_space_group_name_H-M "P 4/N M M"
_symmetry_group_IT_number 129
_symmetry_cell_setting 'tetragonal'
loop_
_space_group_symop_operation_xyz
x,y,z
1/2-y,x,z
1/2-x,1/2-y,z
y,1/2-x,z
1/2+x,-y,-z
-x,1/2+y,-z
1/2+y,1/2+x,-z
-y,-x,-z
-x,-y,-z
1/2+y,-x,-z
1/2+x,1/2+y,-z
-y,1/2+x,-z
1/2-x,y,z
x,1/2-y,z
1/2-y,1/2-x,z
y,x,z
loop_
_atom_site_type_symbol
_atom_site_label
_atom_site_fract_x
_atom_site_fract_y
_atom_site_fract_z
Si Si1 0.340005 0.536172 0.996843
Si Si2 0.627158 0.333569 0.284563
Si Si3 0.665382 0.008048 0.211506
Si Si4 0.958449 0.839889 0.428544
Si Si5 0.162824 0.039125 0.208532
Si Si6 0.879364 0.379364 0.500000
O O1 0.250000 0.549644 0.989501
O O2 0.366962 0.494816 0.896640
O O3 0.387501 0.612500 0.000000
O O4 0.351465 0.488723 0.096184
O O5 0.645020 0.250000 0.248150
O O6 0.663932 0.401827 0.226245
O O7 0.537187 0.344669 0.272158
O O8 0.648117 0.341851 0.399127
O O9 0.750000 0.979022 0.206947
O O10 0.636629 0.976955 0.315088
O O11 0.949570 0.750000 0.433513
O O12 0.885689 0.885689 0.461374
O O13 0.032349 0.863048 0.488513
O O14 0.250000 0.064006 0.215995
O O15 0.103311 0.103311 0.234854
#
# Coordination Sequence:
#
# PCOD9565320 Si02
#       6
#    16  16  16  16  16   8
#     4  10  19  34  53  81 116 150 185 222 268 325
#     4  10  20  36  56  80 110 143 184 229 275 331
#     4   9  19  34  52  78 114 148 181 223 270 325
#     4  10  21  37  57  82 111 146 188 233 283 337
#     4  10  22  38  56  80 109 143 186 233 278 327
#     4  10  21  38  58  83 112 147 184 230 289 344
#
# _framework density 20.475984
#
# number of rings (size 3 to 8) (size 9 to 14) (size 15 to 20)
#    0.000    2.182    1.818    0.818    0.000    6.364 
#    0.000    1.818    0.000    3.545    0.000    7.636 
#    0.000    0.000    0.000    0.000    0.000    0.000 
#
# Total GULP energy -490789.004979 kJ/mol
# GULP energy per Si atom -5577.147784 kJ/mol
# Density = 2.042938 g / cm^3
# Si number density = 20.475984 Si / 1000 Ang^3
#
#
#
# Elastic Constant Matrix: (Units=GPa)
#
#
# Indices 1 2 3 4 5 6 
#
# 1 54.1547 57.7505 -16.6844 0.0000 0.0000 0.0000
# 2 57.7505 54.1540 -16.6843 0.0000 0.0000 0.0000
# 3 -16.6844 -16.6843 70.6733 0.0000 0.0000 0.0000
# 4 0.0000 0.0000 0.0000 2.6850 0.0000 0.0000
# 5 0.0000 0.0000 0.0000 0.0000 2.6852 0.0000
# 6 0.0000 0.0000 0.0000 0.0000 0.0000 10.4064
#
#
#
# Elastic Compliance Matrix: (Units=1/GPa)
#
#
# Indices 1 2 3 4 5 6 
#
# 1 -0.134230 0.143843 0.002269 0.000000 0.000000 0.000000
# 2 0.143843 -0.134231 0.002269 0.000000 0.000000 0.000000
# 3 0.002269 0.002269 0.015221 0.000000 0.000000 0.000000
# 4 0.000000 0.000000 0.000000 0.372434 0.000000 0.000000
# 5 0.000000 0.000000 0.000000 0.000000 0.372411 0.000000
# 6 0.000000 0.000000 0.000000 0.000000 0.000000 0.096095
#
#
# Mechanical properties :
#
#
# Convention : Reuss Voigt Hill
#
# Bulk Modulus (GPa) = 22.97565 25.30507 24.14036
# Shear Modulus (GPa) = 16.36960 13.46200 14.91580
#
# Velocity S-wave (km/s) = 2.83053 2.56687 2.70192
# Velocity P-wave (km/s) = 4.68270 4.60112 4.64209
#
# Compressibility (1/GPa) = 0.04352435
#
# Stress axis : x y z
#
# Youngs Moduli (GPa) = -7.44992 -7.44982 65.69820
#
# Poissons Ratio (x) = 1.07161 -0.14910
# Poissons Ratio (y) = 1.07162 -0.14909
# Poissons Ratio (z) = 0.01691 0.01691
#
# Static dielectric constant tensor:
#      x y z
#    x 1.717380 0.000000 0.000000 
#    y 0.000000 1.717390 0.000000 
#    z 0.000000 0.000000 1.781200 
# 
# From -- ./inp_files/4791.got.cif
#   From: 2010.05.17/outbox.cif.g08.bks.cpg/sg129_3_cif.got.tgz:4791.got - 2010.05.20 12:12:06.
