data_PCOD9565260
_publ_section_title
;
Structure prediction by ZEFSAII (Michael W. Deem and Ramdas Pophale) SiO2 
 PCOD9565260
Probable space group: P 4/N M M
;
_chemical_formula_sum "Si O2"
_cell_formula_units_Z 128
_cell_length_a 21.072153
_cell_length_b 21.072153
_cell_length_c 17.797741
_cell_angle_alpha 90.000000
_cell_angle_beta 90.000000
_cell_angle_gamma 90.000000
_cell_volume 7902.831174
_symmetry_space_group_name_H-M "P 4/N M M"
_symmetry_group_IT_number 129
_symmetry_cell_setting 'tetragonal'
loop_
_space_group_symop_operation_xyz
x,y,z
1/2-y,x,z
1/2-x,1/2-y,z
y,1/2-x,z
1/2+x,-y,-z
-x,1/2+y,-z
1/2+y,1/2+x,-z
-y,-x,-z
-x,-y,-z
1/2+y,-x,-z
1/2+x,1/2+y,-z
-y,1/2+x,-z
1/2-x,y,z
x,1/2-y,z
1/2-y,1/2-x,z
y,x,z
loop_
_atom_site_type_symbol
_atom_site_label
_atom_site_fract_x
_atom_site_fract_y
_atom_site_fract_z
Si Si1 0.178521 0.850219 0.085821
Si Si2 0.928821 0.677043 0.585402
Si Si3 0.930256 0.675751 0.412525
Si Si4 0.177231 0.504192 0.131453
Si Si5 0.898830 0.006602 0.291610
Si Si6 0.173814 0.068813 0.981922
Si Si7 0.892479 0.499638 0.710077
Si Si8 0.322809 0.538081 0.857329
O O1 0.250000 0.831365 0.113003
O O2 0.175922 0.926456 0.093128
O O3 0.113353 0.827911 0.125154
O O4 0.171950 0.828051 0.000000
O O5 0.910504 0.750000 0.593712
O O6 0.868521 0.631480 0.595969
O O7 0.951206 0.667391 0.499377
O O8 0.980321 0.658043 0.647413
O O9 0.917656 0.750000 0.399926
O O10 0.867138 0.632863 0.402875
O O11 0.982135 0.649382 0.354738
O O12 0.250000 0.491219 0.153546
O O13 0.135896 0.504889 0.206475
O O14 0.159566 0.454177 0.066918
O O15 0.865861 0.018897 0.212355
O O16 0.935820 0.070810 0.312129
O O17 0.951617 0.951617 0.283569
O O18 0.250000 0.082719 0.977006
O O19 0.128239 0.128239 0.962919
O O20 0.161314 0.008102 0.927662
O O21 0.944989 0.555012 0.711035
O O22 0.250000 0.524585 0.838188
#
# Coordination Sequence:
#
# PCOD9565260 Si02
#       8
#    16  16  16  16  16  16  16  16
#     4  11  21  35  52  73 101 131 168 213 260 311
#     4   9  18  32  51  75 102 132 166 205 252 306
#     4   9  18  33  52  75 102 132 166 206 255 308
#     4  10  19  33  51  71 100 133 166 206 252 300
#     4  10  20  33  50  73 101 132 167 208 253 299
#     4  10  21  36  54  75 101 135 173 215 260 308
#     4  10  19  31  49  73 100 130 166 206 248 295
#     4  11  21  35  52  73 100 132 170 209 257 309
#
# _framework density 16.196726999999999
#
# number of rings (size 3 to 8) (size 9 to 14) (size 15 to 20)
#    0.000    2.000    2.500    1.875    0.000    1.750 
#    0.000    4.375    0.000    0.000    0.000    3.500 
#    0.000    0.000    0.000    5.750    0.000    0.250 
#
# Total GULP energy -713176.474343 kJ/mol
# GULP energy per Si atom -5571.691206 kJ/mol
# Density = 1.615986 g / cm^3
# Si number density = 16.196727 Si / 1000 Ang^3
#
#
#
# Elastic Constant Matrix: (Units=GPa)
#
#
# Indices 1 2 3 4 5 6 
#
# 1 79.0888 35.2253 46.9113 0.0000 0.0000 0.0000
# 2 35.2253 79.0889 46.9115 0.0000 0.0000 0.0000
# 3 46.9113 46.9115 91.6377 0.0000 0.0000 0.0000
# 4 0.0000 0.0000 0.0000 27.4679 0.0000 0.0000
# 5 0.0000 0.0000 0.0000 0.0000 27.4680 0.0000
# 6 0.0000 0.0000 0.0000 0.0000 0.0000 16.7451
#
#
#
# Elastic Compliance Matrix: (Units=1/GPa)
#
#
# Indices 1 2 3 4 5 6 
#
# 1 0.018942 -0.003856 -0.007723 0.000000 0.000000 0.000000
# 2 -0.003856 0.018942 -0.007723 0.000000 0.000000 0.000000
# 3 -0.007723 -0.007723 0.018820 0.000000 0.000000 0.000000
# 4 0.000000 0.000000 0.000000 0.036406 0.000000 0.000000
# 5 0.000000 0.000000 0.000000 0.000000 0.036406 0.000000
# 6 0.000000 0.000000 0.000000 0.000000 0.000000 0.059719
#
#
# Mechanical properties :
#
#
# Convention : Reuss Voigt Hill
#
# Bulk Modulus (GPa) = 55.24749 56.43463 55.84106
# Shear Modulus (GPa) = 21.37914 22.38737 21.88325
#
# Velocity S-wave (km/s) = 3.63708 3.72185 3.67971
# Velocity P-wave (km/s) = 7.19876 7.30674 7.25295
#
# Compressibility (1/GPa) = 0.01810037
#
# Stress axis : x y z
#
# Youngs Moduli (GPa) = 52.79203 52.79189 53.13536
#
# Poissons Ratio (x) = 0.20355 0.41037
# Poissons Ratio (y) = 0.20355 0.41037
# Poissons Ratio (z) = 0.40772 0.40772
#
# Static dielectric constant tensor:
#      x y z
#    x 1.542140 0.000000 0.000000 
#    y 0.000000 1.542140 0.000000 
#    z 0.000000 0.000000 1.530240 
# 
# From -- ./inp_files/6105.got.cif
#   From: 2010.05.17/outbox.cif.g08.bks.cpg/sg129_4_cif.got.tgz:6105.got - 2010.05.20 12:12:06.
