data_PCOD9565415
_publ_section_title
;
Structure prediction by ZEFSAII (Michael W. Deem and Ramdas Pophale) SiO2 
 PCOD9565415
Probable space group: P 4/N M M
;
_chemical_formula_sum "Si O2"
_cell_formula_units_Z 80
_cell_length_a 13.247715
_cell_length_b 13.247715
_cell_length_c 27.154183
_cell_angle_alpha 90.000000
_cell_angle_beta 90.000000
_cell_angle_gamma 90.000000
_cell_volume 4765.612141
_symmetry_space_group_name_H-M "P 4/N M M"
_symmetry_group_IT_number 129
_symmetry_cell_setting 'tetragonal'
loop_
_space_group_symop_operation_xyz
x,y,z
1/2-y,x,z
1/2-x,1/2-y,z
y,1/2-x,z
1/2+x,-y,-z
-x,1/2+y,-z
1/2+y,1/2+x,-z
-y,-x,-z
-x,-y,-z
1/2+y,-x,-z
1/2+x,1/2+y,-z
-y,1/2+x,-z
1/2-x,y,z
x,1/2-y,z
1/2-y,1/2-x,z
y,x,z
loop_
_atom_site_type_symbol
_atom_site_label
_atom_site_fract_x
_atom_site_fract_y
_atom_site_fract_z
Si Si1 0.630022 0.131749 0.846268
Si Si2 0.632047 0.463933 0.356021
Si Si3 0.536118 0.368122 0.451934
Si Si4 0.500576 0.500576 0.078815
Si Si5 0.369088 0.535654 0.260470
Si Si6 0.372178 0.127823 0.000540
O O1 0.750000 0.120483 0.855054
O O2 0.605167 0.250000 0.848432
O O3 0.568268 0.070066 0.886473
O O4 0.609455 0.089683 0.791540
O O5 0.750000 0.484531 0.358395
O O6 0.565560 0.565560 0.356852
O O7 0.596967 0.398881 0.402979
O O8 0.603668 0.405337 0.306039
O O9 0.598626 0.401375 0.500000
O O10 0.515740 0.250000 0.452726
O O11 0.434093 0.434093 0.452017
O O12 0.427853 0.427853 0.046314
O O13 0.572163 0.572163 0.045225
O O14 0.250000 0.517413 0.263889
O O15 0.433022 0.433022 0.262738
O O16 0.388476 0.250000 0.000605
#
# Coordination Sequence:
#
# PCOD9565415 Si02
#       6
#    16  16  16   8  16   8
#     4  10  20  34  54  80 108 139 176 220 268 315
#     4  10  21  36  55  79 107 143 184 226 275 328
#     4  10  21  36  54  79 109 141 183 232 278 330
#     4  11  20  36  58  80 108 142 179 222 262 312
#     4  10  20  35  54  79 110 142 177 218 264 320
#     4  10  22  38  56  80 110 144 180 218 264 314
#
# _framework density 16.786930999999999
#
# number of rings (size 3 to 8) (size 9 to 14) (size 15 to 20)
#    0.000    1.900    1.000    3.000    0.000    4.000 
#    0.000    0.000    0.000   12.000    0.000    0.000 
#    0.000    0.000    0.000    0.000    0.000    0.000 
#
# Total GULP energy -446572.299752 kJ/mol
# GULP energy per Si atom -5582.153747 kJ/mol
# Density = 1.674872 g / cm^3
# Si number density = 16.786931 Si / 1000 Ang^3
#
#
#
# Elastic Constant Matrix: (Units=GPa)
#
#
# Indices 1 2 3 4 5 6 
#
# 1 132.2882 53.3772 72.6513 0.0000 0.0000 0.0000
# 2 53.3772 132.2939 72.6530 0.0000 0.0000 0.0000
# 3 72.6513 72.6530 146.7703 0.0000 0.0000 0.0000
# 4 0.0000 0.0000 0.0000 12.2431 0.0000 0.0000
# 5 0.0000 0.0000 0.0000 0.0000 12.2455 0.0000
# 6 0.0000 0.0000 0.0000 0.0000 0.0000 15.4051
#
#
#
# Elastic Compliance Matrix: (Units=1/GPa)
#
#
# Indices 1 2 3 4 5 6 
#
# 1 0.010732 -0.001940 -0.004352 0.000000 0.000000 0.000000
# 2 -0.001940 0.010732 -0.004352 0.000000 0.000000 0.000000
# 3 -0.004352 -0.004352 0.011122 0.000000 0.000000 0.000000
# 4 0.000000 0.000000 0.000000 0.081679 0.000000 0.000000
# 5 0.000000 0.000000 0.000000 0.000000 0.081663 0.000000
# 6 0.000000 0.000000 0.000000 0.000000 0.000000 0.064914
#
#
# Mechanical properties :
#
#
# Convention : Reuss Voigt Hill
#
# Bulk Modulus (GPa) = 88.51480 89.85726 89.18603
# Shear Modulus (GPa) = 17.48893 22.15679 19.82286
#
# Velocity S-wave (km/s) = 3.23122 3.63696 3.44008
# Velocity P-wave (km/s) = 8.17092 8.44281 8.30797
#
# Compressibility (1/GPa) = 0.01129755
#
# Stress axis : x y z
#
# Youngs Moduli (GPa) = 93.17783 93.18173 89.91265
#
# Poissons Ratio (x) = 0.18078 0.39130
# Poissons Ratio (y) = 0.18077 0.39130
# Poissons Ratio (z) = 0.40551 0.40552
#
# Static dielectric constant tensor:
#      x y z
#    x 1.534820 0.000000 0.000000 
#    y 0.000000 1.534820 0.000000 
#    z 0.000000 0.000000 1.558500 
# 
# From -- ./inp_files/7715.got.cif
#   From: 2010.05.17/outbox.cif.g08.bks.cpg/sg129_4_cif.got.tgz:7715.got - 2010.05.20 12:12:06.
