data_PCOD9565807
_publ_section_title
;
Structure prediction by ZEFSAII (Michael W. Deem and Ramdas Pophale) SiO2 
 PCOD9565807
Probable space group: P 4/N C C
;
_chemical_formula_sum "Si O2"
_cell_formula_units_Z 96
_cell_length_a 15.419354
_cell_length_b 15.419354
_cell_length_c 18.979824
_cell_angle_alpha 90.000000
_cell_angle_beta 90.000000
_cell_angle_gamma 90.000000
_cell_volume 4512.576103
_symmetry_space_group_name_H-M "P 4/N C C"
_symmetry_group_IT_number 130
_symmetry_cell_setting 'tetragonal'
loop_
_space_group_symop_operation_xyz
x,y,z
1/2-y,x,z
1/2-x,1/2-y,z
y,1/2-x,z
1/2+x,-y,1/2-z
-x,1/2+y,1/2-z
1/2+y,1/2+x,1/2-z
-y,-x,1/2-z
-x,-y,-z
1/2+y,-x,-z
1/2+x,1/2+y,-z
-y,1/2+x,-z
1/2-x,y,1/2+z
x,1/2-y,1/2+z
1/2-y,1/2-x,1/2+z
y,x,1/2+z
loop_
_atom_site_type_symbol
_atom_site_label
_atom_site_fract_x
_atom_site_fract_y
_atom_site_fract_z
Si Si1 0.202810 0.841414 0.676423
Si Si2 0.233502 0.023524 0.204357
Si Si3 0.595440 0.895202 0.380089
Si Si4 0.925269 0.118574 0.049644
Si Si5 0.516388 0.701688 0.497794
Si Si6 0.895441 0.731419 0.148478
O O1 0.250000 0.750000 0.673337
O O2 0.152395 0.847606 0.750000
O O3 0.145891 0.855260 0.607995
O O4 0.265333 0.923700 0.681692
O O5 0.138495 0.056533 0.185517
O O6 0.300870 0.074453 0.152892
O O7 0.264194 0.042424 0.283419
O O8 0.503396 0.928731 0.409133
O O9 0.662799 0.909755 0.445085
O O10 0.873090 0.057409 0.997201
O O11 0.971073 0.206482 0.021527
O O12 0.555280 0.715841 0.575300
O O13 0.843078 0.822220 0.151756
#
# Coordination Sequence:
#
# PCOD9565807 Si02
#       6
#    16  16  16  16  16  16
#     4  10  22  43  69 100 133 178 238 287 341 422
#     4  11  22  43  72 101 141 185 235 294 359 423
#     4  11  22  44  69 101 136 182 240 288 349 432
#     4  11  26  43  71  98 140 190 231 298 356 429
#     4  12  25  45  67 101 144 183 242 288 362 424
#     4  11  24  42  70 109 146 183 231 299 361 421
#
# _framework density 21.273879999999998
#
# number of rings (size 3 to 8) (size 9 to 14) (size 15 to 20)
#    0.000    1.000    5.000    2.500    2.333    0.333 
#    0.000    3.333    7.333    0.000    0.000    0.000 
#    0.000    0.000    0.000    0.000    0.000    0.000 
#
# Total GULP energy -535457.311455 kJ/mol
# GULP energy per Si atom -5577.680328 kJ/mol
# Density = 2.122546 g / cm^3
# Si number density = 21.273880 Si / 1000 Ang^3
#
#
#
# Elastic Constant Matrix: (Units=GPa)
#
#
# Indices 1 2 3 4 5 6 
#
# 1 79.4695 45.6238 29.0658 0.0000 0.0000 0.0000
# 2 45.6238 79.4695 29.0660 0.0000 0.0000 0.0000
# 3 29.0658 29.0660 127.9483 0.0000 0.0000 0.0000
# 4 0.0000 0.0000 0.0000 61.2651 0.0000 0.0000
# 5 0.0000 0.0000 0.0000 0.0000 61.2907 0.0000
# 6 0.0000 0.0000 0.0000 0.0000 0.0000 17.0266
#
#
#
# Elastic Compliance Matrix: (Units=1/GPa)
#
#
# Indices 1 2 3 4 5 6 
#
# 1 0.019242 -0.010304 -0.002030 0.000000 0.000000 0.000000
# 2 -0.010304 0.019242 -0.002030 0.000000 0.000000 0.000000
# 3 -0.002030 -0.002030 0.008738 0.000000 0.000000 0.000000
# 4 0.000000 0.000000 0.000000 0.016323 0.000000 0.000000
# 5 0.000000 0.000000 0.000000 0.000000 0.016316 0.000000
# 6 0.000000 0.000000 0.000000 0.000000 0.000000 0.058732
#
#
# Mechanical properties :
#
#
# Convention : Reuss Voigt Hill
#
# Bulk Modulus (GPa) = 54.07782 54.93317 54.50549
# Shear Modulus (GPa) = 28.82094 40.12524 34.47309
#
# Velocity S-wave (km/s) = 3.68470 4.34767 4.02984
# Velocity P-wave (km/s) = 6.60134 7.14709 6.87963
#
# Compressibility (1/GPa) = 0.01849187
#
# Stress axis : x y z
#
# Youngs Moduli (GPa) = 51.97042 51.97036 114.44112
#
# Poissons Ratio (x) = 0.53551 0.23235
# Poissons Ratio (y) = 0.53551 0.23236
# Poissons Ratio (z) = 0.10552 0.10552
#
# Static dielectric constant tensor:
#      x y z
#    x 1.791940 0.000000 0.000000 
#    y 0.000000 1.791940 0.000000 
#    z 0.000000 0.000000 1.797920 
# 
# From -- ./inp_files/3778.got.cif
#   From: 2010.05.17/outbox.cif.g08.bks.cpg/sg130_2_cif.got.tgz:3778.got - 2010.05.20 12:17:35.
