data_PCOD9565922
_publ_section_title
;
Structure prediction by ZEFSAII (Michael W. Deem and Ramdas Pophale) SiO2 
 PCOD9565922
Probable space group: P 4/N C C
;
_chemical_formula_sum "Si O2"
_cell_formula_units_Z 88
_cell_length_a 13.704280
_cell_length_b 13.704280
_cell_length_c 21.197223
_cell_angle_alpha 90.000000
_cell_angle_beta 90.000000
_cell_angle_gamma 90.000000
_cell_volume 3980.993014
_symmetry_space_group_name_H-M "P 4/N C C"
_symmetry_group_IT_number 130
_symmetry_cell_setting 'tetragonal'
loop_
_space_group_symop_operation_xyz
x,y,z
1/2-y,x,z
1/2-x,1/2-y,z
y,1/2-x,z
1/2+x,-y,1/2-z
-x,1/2+y,1/2-z
1/2+y,1/2+x,1/2-z
-y,-x,1/2-z
-x,-y,-z
1/2+y,-x,-z
1/2+x,1/2+y,-z
-y,1/2+x,-z
1/2-x,y,1/2+z
x,1/2-y,1/2+z
1/2-y,1/2-x,1/2+z
y,x,1/2+z
loop_
_atom_site_type_symbol
_atom_site_label
_atom_site_fract_x
_atom_site_fract_y
_atom_site_fract_z
Si Si1 0.000786 0.172177 0.599244
Si Si2 0.357656 0.642345 0.750000
Si Si3 0.636965 0.946865 0.831876
Si Si4 0.409478 0.810671 0.653865
Si Si5 0.097178 0.719164 0.019811
Si Si6 0.665364 0.884992 0.203344
O O1 0.893851 0.165864 0.631834
O O2 0.989018 0.183700 0.524799
O O3 0.053784 0.072739 0.617446
O O4 0.057396 0.262847 0.629433
O O5 0.450200 0.634429 0.796525
O O6 0.370605 0.740156 0.708815
O O7 0.618393 0.865948 0.777017
O O8 0.426680 0.746420 0.591122
O O9 0.509515 0.862258 0.676799
O O10 0.140490 0.816232 0.985899
O O11 0.620901 0.780195 0.185191
#
# Coordination Sequence:
#
# PCOD9565922 Si02
#       6
#    16   8  16  16  16  16
#     4  11  25  43  67 100 135 187 232 284 341 424
#     4  12  24  39  66 106 130 177 226 296 350 411
#     4  12  23  41  65  98 137 177 230 277 353 420
#     4  11  24  44  69 101 140 176 239 295 354 421
#     4   9  20  44  69  95 134 184 230 291 357 408
#     4  11  22  42  63  91 135 186 214 278 356 423
#
# _framework density 22.105038
#
# number of rings (size 3 to 8) (size 9 to 14) (size 15 to 20)
#    0.000    1.091    3.636    2.182    0.000    5.455 
#    3.273    2.727    0.000    0.000    0.000    0.000 
#    0.000    0.000    0.000    0.000    0.000    0.000 
#
# Total GULP energy -491468.420922 kJ/mol
# GULP energy per Si atom -5584.868420 kJ/mol
# Density = 2.205473 g / cm^3
# Si number density = 22.105038 Si / 1000 Ang^3
#
#
#
# Elastic Constant Matrix: (Units=GPa)
#
#
# Indices 1 2 3 4 5 6 
#
# 1 57.3802 29.5401 47.7104 0.0000 0.0000 0.0000
# 2 29.5401 57.3800 47.7109 0.0000 0.0000 0.0000
# 3 47.7104 47.7109 119.7410 0.0000 0.0000 0.0000
# 4 0.0000 0.0000 0.0000 17.7664 0.0000 0.0000
# 5 0.0000 0.0000 0.0000 0.0000 17.7669 0.0000
# 6 0.0000 0.0000 0.0000 0.0000 0.0000 12.4601
#
#
#
# Elastic Compliance Matrix: (Units=1/GPa)
#
#
# Indices 1 2 3 4 5 6 
#
# 1 0.028185 -0.007735 -0.008148 0.000000 0.000000 0.000000
# 2 -0.007735 0.028185 -0.008148 0.000000 0.000000 0.000000
# 3 -0.008148 -0.008148 0.014845 0.000000 0.000000 0.000000
# 4 0.000000 0.000000 0.000000 0.056286 0.000000 0.000000
# 5 0.000000 0.000000 0.000000 0.000000 0.056284 0.000000
# 6 0.000000 0.000000 0.000000 0.000000 0.000000 0.080256
#
#
# Mechanical properties :
#
#
# Convention : Reuss Voigt Hill
#
# Bulk Modulus (GPa) = 43.19355 53.82489 48.50922
# Shear Modulus (GPa) = 15.63378 16.90135 16.26757
#
# Velocity S-wave (km/s) = 2.66230 2.76813 2.71573
# Velocity P-wave (km/s) = 5.38823 5.88381 5.64146
#
# Compressibility (1/GPa) = 0.02315160
#
# Stress axis : x y z
#
# Youngs Moduli (GPa) = 35.48045 35.47990 67.36415
#
# Poissons Ratio (x) = 0.27443 0.54889
# Poissons Ratio (y) = 0.27443 0.54891
# Poissons Ratio (z) = 0.28910 0.28911
#
# Static dielectric constant tensor:
#      x y z
#    x 1.830160 0.000000 0.000000 
#    y 0.000000 1.830160 0.000000 
#    z 0.000000 0.000000 1.809930 
# 
# From -- ./inp_files/3704.got.cif
#   From: 2010.05.17/outbox.cif.g08.bks.cpg/sg130_2_cif.got.tgz:3704.got - 2010.05.20 12:17:35.
