data_PCOD9565777
_publ_section_title
;
Structure prediction by ZEFSAII (Michael W. Deem and Ramdas Pophale) SiO2 
 PCOD9565777
Probable space group: P 4/N C C
;
_chemical_formula_sum "Si O2"
_cell_formula_units_Z 88
_cell_length_a 13.736869
_cell_length_b 13.736869
_cell_length_c 18.074224
_cell_angle_alpha 90.000000
_cell_angle_beta 90.000000
_cell_angle_gamma 90.000000
_cell_volume 3410.634444
_symmetry_space_group_name_H-M "P 4/N C C"
_symmetry_group_IT_number 130
_symmetry_cell_setting 'tetragonal'
loop_
_space_group_symop_operation_xyz
x,y,z
1/2-y,x,z
1/2-x,1/2-y,z
y,1/2-x,z
1/2+x,-y,1/2-z
-x,1/2+y,1/2-z
1/2+y,1/2+x,1/2-z
-y,-x,1/2-z
-x,-y,-z
1/2+y,-x,-z
1/2+x,1/2+y,-z
-y,1/2+x,-z
1/2-x,y,1/2+z
x,1/2-y,1/2+z
1/2-y,1/2-x,1/2+z
y,x,1/2+z
loop_
_atom_site_type_symbol
_atom_site_label
_atom_site_fract_x
_atom_site_fract_y
_atom_site_fract_z
Si Si1 0.846826 0.206490 0.374852
Si Si2 0.750000 0.750000 0.412830
Si Si3 0.882726 0.566629 0.450741
Si Si4 0.375469 0.997289 0.704178
Si Si5 0.538501 0.814521 0.219689
Si Si6 0.250000 0.250000 0.332940
Si Si7 0.696806 0.048014 0.997728
O O1 0.750000 0.250000 0.338612
O O2 0.882825 0.289505 0.432417
O O3 0.819019 0.113567 0.425209
O O4 0.938236 0.181393 0.324337
O O5 0.832384 0.663554 0.417148
O O6 0.909469 0.502463 0.379740
O O7 0.798900 0.510534 0.494820
O O8 0.971130 0.608734 0.498637
O O9 0.430094 0.083258 0.747649
O O10 0.262031 0.021700 0.713683
O O11 0.401432 0.901432 0.750000
O O12 0.631352 0.774287 0.173186
#
# Coordination Sequence:
#
# PCOD9565777 Si02
#       7
#    16   4  16  16  16   4  16
#     4  12  25  46  67  97 147 195 251 295 373 442
#     4   8  16  37  57  96 118 168 205 285 356 418
#     4  10  22  38  71  95 140 175 243 305 363 429
#     4  11  23  41  63 105 136 184 245 291 375 435
#     4  10  23  42  72  97 146 188 236 310 363 443
#     4   8  20  45  69 104 126 180 237 305 368 410
#     4  11  23  44  68 102 136 195 246 309 362 438
#
# _framework density 25.801651
#
# number of rings (size 3 to 8) (size 9 to 14) (size 15 to 20)
#    0.000    1.455    1.818    3.273    2.545    6.545 
#    0.000    3.636    0.000    0.000    0.000    0.000 
#    0.000    0.000    0.000    0.000    0.000    0.000 
#
# Total GULP energy -491292.044248 kJ/mol
# GULP energy per Si atom -5582.864139 kJ/mol
# Density = 2.574293 g / cm^3
# Si number density = 25.801651 Si / 1000 Ang^3
#
#
#
# Elastic Constant Matrix: (Units=GPa)
#
#
# Indices 1 2 3 4 5 6 
#
# 1 157.2661 32.8064 35.0804 0.0000 0.0000 0.0000
# 2 32.8064 157.2661 35.0804 0.0000 0.0000 0.0000
# 3 35.0804 35.0804 74.5784 0.0000 0.0000 0.0000
# 4 0.0000 0.0000 0.0000 31.9444 0.0000 0.0000
# 5 0.0000 0.0000 0.0000 0.0000 31.9444 0.0000
# 6 0.0000 0.0000 0.0000 0.0000 0.0000 55.8257
#
#
#
# Elastic Compliance Matrix: (Units=1/GPa)
#
#
# Indices 1 2 3 4 5 6 
#
# 1 0.007201 -0.000834 -0.002995 0.000000 0.000000 0.000000
# 2 -0.000834 0.007201 -0.002995 0.000000 0.000000 0.000000
# 3 -0.002995 -0.002995 0.016226 0.000000 0.000000 0.000000
# 4 0.000000 0.000000 0.000000 0.031304 0.000000 0.000000
# 5 0.000000 0.000000 0.000000 0.000000 0.031304 0.000000
# 6 0.000000 0.000000 0.000000 0.000000 0.000000 0.017913
#
#
# Mechanical properties :
#
#
# Convention : Reuss Voigt Hill
#
# Bulk Modulus (GPa) = 58.89181 66.11611 62.50396
# Shear Modulus (GPa) = 38.32704 43.01913 40.67309
#
# Velocity S-wave (km/s) = 3.85833 4.08769 3.97467
# Velocity P-wave (km/s) = 6.53631 6.92527 6.73360
#
# Compressibility (1/GPa) = 0.01698029
#
# Stress axis : x y z
#
# Youngs Moduli (GPa) = 138.87629 138.87629 61.62935
#
# Poissons Ratio (x) = 0.11583 0.18456
# Poissons Ratio (y) = 0.11583 0.18456
# Poissons Ratio (z) = 0.41590 0.41590
#
# Static dielectric constant tensor:
#      x y z
#    x 2.015610 0.000000 0.000000 
#    y 0.000000 2.015610 0.000000 
#    z 0.000000 0.000000 2.023190 
# 
# From -- ./inp_files/3718.got.cif
#   From: 2010.05.17/outbox.cif.g08.bks.cpg/sg130_2_cif.got.tgz:3718.got - 2010.05.20 12:17:35.
