data_PCOD9565875
_publ_section_title
;
Structure prediction by ZEFSAII (Michael W. Deem and Ramdas Pophale) SiO2 
 PCOD9565875
Probable space group: P 4/N C C
;
_chemical_formula_sum "Si O2"
_cell_formula_units_Z 80
_cell_length_a 16.710330
_cell_length_b 16.710330
_cell_length_c 14.356823
_cell_angle_alpha 90.000000
_cell_angle_beta 90.000000
_cell_angle_gamma 90.000000
_cell_volume 4008.929318
_symmetry_space_group_name_H-M "P 4/N C C"
_symmetry_group_IT_number 130
_symmetry_cell_setting 'tetragonal'
loop_
_space_group_symop_operation_xyz
x,y,z
1/2-y,x,z
1/2-x,1/2-y,z
y,1/2-x,z
1/2+x,-y,1/2-z
-x,1/2+y,1/2-z
1/2+y,1/2+x,1/2-z
-y,-x,1/2-z
-x,-y,-z
1/2+y,-x,-z
1/2+x,1/2+y,-z
-y,1/2+x,-z
1/2-x,y,1/2+z
x,1/2-y,1/2+z
1/2-y,1/2-x,1/2+z
y,x,1/2+z
loop_
_atom_site_type_symbol
_atom_site_label
_atom_site_fract_x
_atom_site_fract_y
_atom_site_fract_z
Si Si1 0.122742 0.720717 0.020945
Si Si2 0.873730 0.803731 0.236374
Si Si3 0.490503 0.233545 0.116778
Si Si4 0.252416 0.880732 0.768499
Si Si5 0.704615 0.622152 0.526840
O O1 0.095855 0.741791 0.124539
O O2 0.159512 0.802975 0.978672
O O3 0.050130 0.692255 0.956839
O O4 0.790328 0.850638 0.243303
O O5 0.930007 0.820974 0.323636
O O6 0.907860 0.813176 0.131803
O O7 0.547669 0.265177 0.198532
O O8 0.442661 0.298663 0.054957
O O9 0.338757 0.838757 0.750000
O O10 0.188496 0.811505 0.750000
O O11 0.797131 0.652475 0.518739
#
# Coordination Sequence:
#
# PCOD9565875 Si02
#       5
#    16  16  16  16  16
#     4  11  20  36  54  79 109 145 186 228 265 310
#     4   9  19  37  60  85 109 136 179 230 275 322
#     4  12  20  30  58  86 112 140 180 224 274 316
#     4  11  20  36  54  79 109 145 186 228 265 310
#     4   9  19  37  60  85 109 136 179 230 275 322
#
# _framework density 19.955452000000001
#
# number of rings (size 3 to 8) (size 9 to 14) (size 15 to 20)
#    0.000    1.600    4.000    4.800    0.000    1.600 
#    0.000    0.000    0.000    9.600    0.000    0.000 
#    0.000    0.000    0.000    0.000    0.000    0.000 
#
# Total GULP energy -446074.088724 kJ/mol
# GULP energy per Si atom -5575.926109 kJ/mol
# Density = 1.991003 g / cm^3
# Si number density = 19.955452 Si / 1000 Ang^3
#
#
#
# Elastic Constant Matrix: (Units=GPa)
#
#
# Indices 1 2 3 4 5 6 
#
# 1 60.7305 -6.6812 30.0342 0.0000 0.0000 0.0000
# 2 -6.6812 60.7307 30.0340 0.0000 0.0000 0.0000
# 3 30.0342 30.0340 173.3883 0.0000 0.0000 0.0000
# 4 0.0000 0.0000 0.0000 21.6388 0.0000 0.0000
# 5 0.0000 0.0000 0.0000 0.0000 21.6368 0.0000
# 6 0.0000 0.0000 0.0000 0.0000 0.0000 6.3678
#
#
#
# Elastic Compliance Matrix: (Units=1/GPa)
#
#
# Indices 1 2 3 4 5 6 
#
# 1 0.018873 0.004039 -0.003969 0.000000 0.000000 0.000000
# 2 0.004039 0.018873 -0.003969 0.000000 0.000000 0.000000
# 3 -0.003969 -0.003969 0.007142 0.000000 0.000000 0.000000
# 4 0.000000 0.000000 0.000000 0.046213 0.000000 0.000000
# 5 0.000000 0.000000 0.000000 0.000000 0.046218 0.000000
# 6 0.000000 0.000000 0.000000 0.000000 0.000000 0.157040
#
#
# Mechanical properties :
#
#
# Convention : Reuss Voigt Hill
#
# Bulk Modulus (GPa) = 26.96016 44.62482 35.79249
# Shear Modulus (GPa) = 15.89719 26.02617 20.96168
#
# Velocity S-wave (km/s) = 2.82553 3.61531 3.24454
# Velocity P-wave (km/s) = 4.91776 6.31174 5.65784
#
# Compressibility (1/GPa) = 0.03709177
#
# Stress axis : x y z
#
# Youngs Moduli (GPa) = 52.98475 52.98504 140.00966
#
# Poissons Ratio (x) = -0.21401 0.55568
# Poissons Ratio (y) = -0.21401 0.55568
# Poissons Ratio (z) = 0.21029 0.21029
#
# Static dielectric constant tensor:
#      x y z
#    x 1.722150 0.000000 0.000000 
#    y 0.000000 1.722150 0.000000 
#    z 0.000000 0.000000 1.758430 
# 
# From -- ./inp_files/2287.got.cif
#   From: 2010.05.17/outbox.cif.g08.bks.cpg/sg130_2_cif.got.tgz:2287.got - 2010.05.20 12:17:35.
