data_PCOD9565131
_publ_section_title
;
Structure prediction by ZEFSAII (Michael W. Deem and Ramdas Pophale) SiO2 
 PCOD9565131
Probable space group: P 4/N M M
;
_chemical_formula_sum "Si O2"
_cell_formula_units_Z 112
_cell_length_a 25.170850
_cell_length_b 25.170850
_cell_length_c 10.406956
_cell_angle_alpha 90.000000
_cell_angle_beta 90.000000
_cell_angle_gamma 90.000000
_cell_volume 6593.552698
_symmetry_space_group_name_H-M "P 4/N M M"
_symmetry_group_IT_number 129
_symmetry_cell_setting 'tetragonal'
loop_
_space_group_symop_operation_xyz
x,y,z
1/2-y,x,z
1/2-x,1/2-y,z
y,1/2-x,z
1/2+x,-y,-z
-x,1/2+y,-z
1/2+y,1/2+x,-z
-y,-x,-z
-x,-y,-z
1/2+y,-x,-z
1/2+x,1/2+y,-z
-y,1/2+x,-z
1/2-x,y,z
x,1/2-y,z
1/2-y,1/2-x,z
y,x,z
loop_
_atom_site_type_symbol
_atom_site_label
_atom_site_fract_x
_atom_site_fract_y
_atom_site_fract_z
Si Si1 0.188266 0.901557 0.216183
Si Si2 0.430782 0.655580 0.499678
Si Si3 0.052176 0.361647 0.575918
Si Si4 0.187797 0.101939 0.333528
Si Si5 0.186251 0.481209 0.839882
Si Si6 0.897032 0.310261 0.775779
Si Si7 0.016013 0.314418 0.123455
O O1 0.250000 0.890107 0.184576
O O2 0.184320 0.917745 0.366918
O O3 0.148737 0.852487 0.192110
O O4 0.169344 0.954953 0.144378
O O5 0.399820 0.600181 0.500000
O O6 0.492367 0.643628 0.476889
O O7 0.407376 0.687192 0.377964
O O8 0.081244 0.418757 0.568594
O O9 0.085347 0.323905 0.480341
O O10 0.048332 0.342111 0.722700
O O11 0.250000 0.109861 0.313914
O O12 0.153713 0.153713 0.303739
O O13 0.169083 0.054351 0.239221
O O14 0.250000 0.475141 0.824579
O O15 0.175772 0.544786 0.831314
O O16 0.169985 0.463748 0.982590
O O17 0.883588 0.250000 0.814209
O O18 0.014497 0.250000 0.126208
#
# Coordination Sequence:
#
# PCOD9565131 Si02
#       7
#    16  16  16  16  16  16  16
#     4  10  18  29  48  71  99 135 173 215 261 306
#     4   9  17  30  47  69  96 134 169 208 255 304
#     4  10  19  31  51  77 100 127 163 206 253 301
#     4  10  20  34  54  80 107 134 167 207 252 306
#     4   9  18  33  51  70  98 133 170 211 250 299
#     4   9  18  30  46  71 100 133 174 215 260 310
#     4   9  18  32  51  73  96 132 175 210 249 300
#
# _framework density 16.98629
#
# number of rings (size 3 to 8) (size 9 to 14) (size 15 to 20)
#    0.000    2.571    1.429    0.857    0.000    3.000 
#    0.000    0.000    0.000    2.571    0.000    8.000 
#    0.000    3.429    0.000    0.000    0.000    0.000 
#
# Total GULP energy -623979.406215 kJ/mol
# GULP energy per Si atom -5571.244698 kJ/mol
# Density = 1.694763 g / cm^3
# Si number density = 16.986290 Si / 1000 Ang^3
#
#
#
# Elastic Constant Matrix: (Units=GPa)
#
#
# Indices 1 2 3 4 5 6 
#
# 1 69.4865 47.6951 14.4161 0.0000 0.0000 0.0000
# 2 47.6951 69.4898 14.4179 0.0000 0.0000 0.0000
# 3 14.4161 14.4179 82.2528 0.0000 0.0000 0.0000
# 4 0.0000 0.0000 0.0000 10.3880 0.0000 0.0000
# 5 0.0000 0.0000 0.0000 0.0000 10.3879 0.0000
# 6 0.0000 0.0000 0.0000 0.0000 0.0000 13.9727
#
#
#
# Elastic Compliance Matrix: (Units=1/GPa)
#
#
# Indices 1 2 3 4 5 6 
#
# 1 0.027403 -0.018484 -0.001563 0.000000 0.000000 0.000000
# 2 -0.018484 0.027402 -0.001564 0.000000 0.000000 0.000000
# 3 -0.001563 -0.001564 0.012706 0.000000 0.000000 0.000000
# 4 0.000000 0.000000 0.000000 0.096265 0.000000 0.000000
# 5 0.000000 0.000000 0.000000 0.000000 0.096266 0.000000
# 6 0.000000 0.000000 0.000000 0.000000 0.000000 0.071568
#
#
# Mechanical properties :
#
#
# Convention : Reuss Voigt Hill
#
# Bulk Modulus (GPa) = 41.17005 41.58747 41.37876
# Shear Modulus (GPa) = 13.05736 16.59639 14.82687
#
# Velocity S-wave (km/s) = 2.77555 3.12916 2.95765
# Velocity P-wave (km/s) = 5.87890 6.13121 6.00638
#
# Compressibility (1/GPa) = 0.02428950
#
# Stress axis : x y z
#
# Youngs Moduli (GPa) = 36.49264 36.49409 78.70540
#
# Poissons Ratio (x) = 0.67456 0.12300
# Poissons Ratio (y) = 0.67453 0.12306
# Poissons Ratio (z) = 0.05703 0.05706
#
# Static dielectric constant tensor:
#      x y z
#    x 1.557760 0.000000 0.000000 
#    y 0.000000 1.557760 0.000000 
#    z 0.000000 0.000000 1.611040 
# 
# From -- ./inp_files/4133.got.cif
#   From: 2010.05.17/outbox.cif.g08.bks.cpg/sg129_3_cif.got.tgz:4133.got - 2010.05.20 12:12:06.
