data_PCOD9565631
_publ_section_title
;
Structure prediction by ZEFSAII (Michael W. Deem and Ramdas Pophale) SiO2 
 PCOD9565631
Probable space group: P 4/N C C
;
_chemical_formula_sum "Si O2"
_cell_formula_units_Z 128
_cell_length_a 17.802788
_cell_length_b 17.802788
_cell_length_c 22.338054
_cell_angle_alpha 90.000000
_cell_angle_beta 90.000000
_cell_angle_gamma 90.000000
_cell_volume 7079.806317
_symmetry_space_group_name_H-M "P 4/N C C"
_symmetry_group_IT_number 130
_symmetry_cell_setting 'tetragonal'
loop_
_space_group_symop_operation_xyz
x,y,z
1/2-y,x,z
1/2-x,1/2-y,z
y,1/2-x,z
1/2+x,-y,1/2-z
-x,1/2+y,1/2-z
1/2+y,1/2+x,1/2-z
-y,-x,1/2-z
-x,-y,-z
1/2+y,-x,-z
1/2+x,1/2+y,-z
-y,1/2+x,-z
1/2-x,y,1/2+z
x,1/2-y,1/2+z
1/2-y,1/2-x,1/2+z
y,x,1/2+z
loop_
_atom_site_type_symbol
_atom_site_label
_atom_site_fract_x
_atom_site_fract_y
_atom_site_fract_z
Si Si1 0.920192 0.592174 0.710097
Si Si2 0.145897 0.954581 0.588564
Si Si3 0.529702 0.289693 0.655683
Si Si4 0.238909 0.039490 0.781645
Si Si5 0.685164 0.198833 0.357109
Si Si6 0.389456 0.833062 0.189436
Si Si7 0.458492 0.477435 0.158454
Si Si8 0.688122 0.356861 0.516498
O O1 0.829075 0.597922 0.711982
O O2 0.945344 0.677223 0.696623
O O3 0.940073 0.560683 0.776818
O O4 0.973106 0.536963 0.669513
O O5 0.229724 0.983708 0.603348
O O6 0.132869 0.884035 0.633707
O O7 0.147043 0.919990 0.522633
O O8 0.083426 0.013331 0.610224
O O9 0.487482 0.255602 0.713396
O O10 0.619259 0.290466 0.667728
O O11 0.510006 0.376185 0.642266
O O12 0.197824 0.972328 0.816156
O O13 0.750000 0.250000 0.386980
O O14 0.656907 0.256163 0.307738
O O15 0.629381 0.185398 0.412425
O O16 0.379462 0.879462 0.250000
O O17 0.775272 0.349796 0.495883
#
# Coordination Sequence:
#
# PCOD9565631 Si02
#       8
#    16  16  16  16  16  16  16  16
#     4  10  20  35  54  72 114 146 186 229 279 337
#     4  12  20  35  58  75 105 158 180 227 277 348
#     4  11  21  34  51  77 110 144 183 225 277 331
#     4  11  21  34  52  78 105 149 187 225 276 335
#     4  12  20  32  51  81 113 142 175 232 275 345
#     4  12  20  31  51  80 111 142 184 218 278 346
#     4  10  21  36  51  77 111 151 179 230 286 329
#     4  11  18  33  51  77 108 143 183 217 284 327
#
# _framework density 18.079591000000001
#
# number of rings (size 3 to 8) (size 9 to 14) (size 15 to 20)
#    0.000    0.875    8.750    0.750    0.000    3.000 
#    0.000    0.625    0.000    0.375    0.000    0.000 
#    0.000    0.000    0.000    0.000    0.000    0.000 
#
# Total GULP energy -712813.777251 kJ/mol
# GULP energy per Si atom -5568.857635 kJ/mol
# Density = 1.803844 g / cm^3
# Si number density = 18.079591 Si / 1000 Ang^3
#
#
#
# Elastic Constant Matrix: (Units=GPa)
#
#
# Indices 1 2 3 4 5 6 
#
# 1 91.8859 38.9792 16.6789 0.0000 0.0000 0.0000
# 2 38.9792 91.8859 16.6789 0.0000 0.0000 0.0000
# 3 16.6789 16.6789 45.9317 0.0000 0.0000 0.0000
# 4 0.0000 0.0000 0.0000 13.2844 0.0000 0.0000
# 5 0.0000 0.0000 0.0000 0.0000 13.2844 0.0000
# 6 0.0000 0.0000 0.0000 0.0000 0.0000 33.8015
#
#
#
# Elastic Compliance Matrix: (Units=1/GPa)
#
#
# Indices 1 2 3 4 5 6 
#
# 1 0.013661 -0.005240 -0.003058 0.000000 0.000000 0.000000
# 2 -0.005240 0.013661 -0.003058 0.000000 0.000000 0.000000
# 3 -0.003058 -0.003058 0.023992 0.000000 0.000000 0.000000
# 4 0.000000 0.000000 0.000000 0.075276 0.000000 0.000000
# 5 0.000000 0.000000 0.000000 0.000000 0.075276 0.000000
# 6 0.000000 0.000000 0.000000 0.000000 0.000000 0.029584
#
#
# Mechanical properties :
#
#
# Convention : Reuss Voigt Hill
#
# Bulk Modulus (GPa) = 34.96177 41.59752 38.27964
# Shear Modulus (GPa) = 18.96112 22.56514 20.76313
#
# Velocity S-wave (km/s) = 3.24197 3.53668 3.39252
# Velocity P-wave (km/s) = 5.77871 6.30360 6.04685
#
# Compressibility (1/GPa) = 0.02860267
#
# Stress axis : x y z
#
# Youngs Moduli (GPa) = 73.20076 73.20076 41.68015
#
# Poissons Ratio (x) = 0.38358 0.12745
# Poissons Ratio (y) = 0.38358 0.12745
# Poissons Ratio (z) = 0.22384 0.22384
#
# Static dielectric constant tensor:
#      x y z
#    x 1.729820 0.000000 0.000000 
#    y 0.000000 1.729820 0.000000 
#    z 0.000000 0.000000 1.666460 
# 
# From -- ./inp_files/4409.got.cif
#   From: 2010.05.17/outbox.cif.g08.bks.cpg/sg130_3_cif.got.tgz:4409.got - 2010.05.20 12:17:35.
