data_PCOD9565459
_publ_section_title
;
Structure prediction by ZEFSAII (Michael W. Deem and Ramdas Pophale) SiO2 
 PCOD9565459
Probable space group: P 4/N M M
;
_chemical_formula_sum "Si O2"
_cell_formula_units_Z 96
_cell_length_a 25.554981
_cell_length_b 25.554981
_cell_length_c 8.941044
_cell_angle_alpha 90.000000
_cell_angle_beta 90.000000
_cell_angle_gamma 90.000000
_cell_volume 5839.011854
_symmetry_space_group_name_H-M "P 4/N M M"
_symmetry_group_IT_number 129
_symmetry_cell_setting 'tetragonal'
loop_
_space_group_symop_operation_xyz
x,y,z
1/2-y,x,z
1/2-x,1/2-y,z
y,1/2-x,z
1/2+x,-y,-z
-x,1/2+y,-z
1/2+y,1/2+x,-z
-y,-x,-z
-x,-y,-z
1/2+y,-x,-z
1/2+x,1/2+y,-z
-y,1/2+x,-z
1/2-x,y,z
x,1/2-y,z
1/2-y,1/2-x,z
y,x,z
loop_
_atom_site_type_symbol
_atom_site_label
_atom_site_fract_x
_atom_site_fract_y
_atom_site_fract_z
Si Si1 0.000536 0.586409 0.168690
Si Si2 0.085311 0.502728 0.189364
Si Si3 0.976961 0.308406 0.701543
Si Si4 0.308956 0.971206 0.342419
Si Si5 0.630173 0.192271 0.889686
Si Si6 0.308889 0.647360 0.359179
O O1 0.052703 0.555918 0.224999
O O2 0.991066 0.641511 0.246455
O O3 0.953593 0.546408 0.196359
O O4 0.004422 0.593683 0.989721
O O5 0.046043 0.453958 0.220764
O O6 0.140751 0.500387 0.273070
O O7 0.997835 0.250000 0.734083
O O8 0.969310 0.311336 0.523171
O O9 0.923291 0.313604 0.797051
O O10 0.250000 0.990293 0.301886
O O11 0.312857 0.910725 0.292916
O O12 0.630179 0.250000 0.961854
O O13 0.675181 0.188570 0.765132
O O14 0.645232 0.145232 0.000000
O O15 0.346565 0.653436 0.500000
O O16 0.250000 0.654849 0.413946
#
# Coordination Sequence:
#
# PCOD9565459 Si02
#       6
#    16  16  16  16  16  16
#     4   9  19  34  52  76 102 128 162 207 251 292
#     4   9  19  34  53  77 101 127 163 207 250 293
#     4  10  21  35  50  71  98 127 161 200 244 297
#     4  10  21  35  50  71  98 127 161 200 244 298
#     4  11  23  35  45  62  86 117 161 209 251 290
#     4  11  21  33  47  62  84 119 160 204 250 288
#
# _framework density 16.441137999999999
#
# number of rings (size 3 to 8) (size 9 to 14) (size 15 to 20)
#    0.000    2.000    1.667    3.000    4.667    3.333 
#    0.000    1.667    0.000    0.000    0.000    0.000 
#    0.000    0.667    0.000    7.333    0.000    5.333 
#
# Total GULP energy -535241.057564 kJ/mol
# GULP energy per Si atom -5575.427683 kJ/mol
# Density = 1.640372 g / cm^3
# Si number density = 16.441138 Si / 1000 Ang^3
#
#
#
# Elastic Constant Matrix: (Units=GPa)
#
#
# Indices 1 2 3 4 5 6 
#
# 1 80.1522 29.0032 26.3952 0.0000 0.0000 0.0000
# 2 29.0032 80.1529 26.3954 0.0000 0.0000 0.0000
# 3 26.3952 26.3954 38.9107 0.0000 0.0000 0.0000
# 4 0.0000 0.0000 0.0000 26.2004 0.0000 0.0000
# 5 0.0000 0.0000 0.0000 0.0000 26.2000 0.0000
# 6 0.0000 0.0000 0.0000 0.0000 0.0000 17.1745
#
#
#
# Elastic Compliance Matrix: (Units=1/GPa)
#
#
# Indices 1 2 3 4 5 6 
#
# 1 0.016592 -0.002958 -0.009249 0.000000 0.000000 0.000000
# 2 -0.002958 0.016592 -0.009249 0.000000 0.000000 0.000000
# 3 -0.009249 -0.009249 0.038248 0.000000 0.000000 0.000000
# 4 0.000000 0.000000 0.000000 0.038167 0.000000 0.000000
# 5 0.000000 0.000000 0.000000 0.000000 0.038168 0.000000
# 6 0.000000 0.000000 0.000000 0.000000 0.000000 0.058226
#
#
# Mechanical properties :
#
#
# Convention : Reuss Voigt Hill
#
# Bulk Modulus (GPa) = 35.06199 40.31151 37.68675
# Shear Modulus (GPa) = 19.34892 21.74312 20.54602
#
# Velocity S-wave (km/s) = 3.43426 3.64054 3.53890
# Velocity P-wave (km/s) = 6.09078 6.49948 6.29845
#
# Compressibility (1/GPa) = 0.02852091
#
# Stress axis : x y z
#
# Youngs Moduli (GPa) = 60.26832 60.26882 26.14526
#
# Poissons Ratio (x) = 0.17829 0.24181
# Poissons Ratio (y) = 0.17829 0.24181
# Poissons Ratio (z) = 0.55741 0.55742
#
# Static dielectric constant tensor:
#      x y z
#    x 1.563880 0.000000 0.000000 
#    y 0.000000 1.563880 0.000000 
#    z 0.000000 0.000000 1.595180 
# 
# From -- ./inp_files/2598.got.cif
#   From: 2010.05.17/outbox.cif.g08.bks.cpg/sg129_2_cif.got.tgz:2598.got - 2010.05.20 12:12:06.
