data_PCOD9565733
_publ_section_title
;
Structure prediction by ZEFSAII (Michael W. Deem and Ramdas Pophale) SiO2 
 PCOD9565733
Probable space group: P 4/N C C
;
_chemical_formula_sum "Si O2"
_cell_formula_units_Z 72
_cell_length_a 16.244872
_cell_length_b 16.244872
_cell_length_c 12.732470
_cell_angle_alpha 90.000000
_cell_angle_beta 90.000000
_cell_angle_gamma 90.000000
_cell_volume 3360.046201
_symmetry_space_group_name_H-M "P 4/N C C"
_symmetry_group_IT_number 130
_symmetry_cell_setting 'tetragonal'
loop_
_space_group_symop_operation_xyz
x,y,z
1/2-y,x,z
1/2-x,1/2-y,z
y,1/2-x,z
1/2+x,-y,1/2-z
-x,1/2+y,1/2-z
1/2+y,1/2+x,1/2-z
-y,-x,1/2-z
-x,-y,-z
1/2+y,-x,-z
1/2+x,1/2+y,-z
-y,1/2+x,-z
1/2-x,y,1/2+z
x,1/2-y,1/2+z
1/2-y,1/2-x,1/2+z
y,x,1/2+z
loop_
_atom_site_type_symbol
_atom_site_label
_atom_site_fract_x
_atom_site_fract_y
_atom_site_fract_z
Si Si1 0.632243 0.543981 0.486219
Si Si2 0.753085 0.475069 0.640905
Si Si3 0.875183 0.124818 0.750000
Si Si4 0.382872 0.210870 0.713253
Si Si5 0.118002 0.543552 0.523220
O O1 0.678342 0.530022 0.595251
O O2 0.695084 0.579274 0.401551
O O3 0.592942 0.454415 0.463781
O O4 0.553272 0.602160 0.488593
O O5 0.714552 0.401396 0.708771
O O6 0.804505 0.540570 0.708670
O O7 0.798766 0.439414 0.539224
O O8 0.932164 0.113890 0.645948
O O9 0.348138 0.303639 0.724929
#
# Coordination Sequence:
#
# PCOD9565733 Si02
#       5
#    16  16   8  16  16
#     4  10  21  38  61  88 124 167 213 257 304 368
#     4  11  21  38  62  90 124 162 206 256 311 367
#     4  10  22  40  64  89 122 158 208 261 306 372
#     4  11  23  37  59  93 130 165 201 250 312 375
#     4  10  22  39  62  90 121 167 214 260 310 364
#
# _framework density 21.428276
#
# number of rings (size 3 to 8) (size 9 to 14) (size 15 to 20)
#    0.000    1.556    0.000    5.333    0.000    4.444 
#    0.000    2.222    0.000   40.000    0.000    0.000 
#    0.000    0.000    0.000    0.000    0.000    0.000 
#
# Total GULP energy -401600.318698 kJ/mol
# GULP energy per Si atom -5577.782204 kJ/mol
# Density = 2.137950 g / cm^3
# Si number density = 21.428276 Si / 1000 Ang^3
#
#
#
# Elastic Constant Matrix: (Units=GPa)
#
#
# Indices 1 2 3 4 5 6 
#
# 1 64.9733 31.4372 43.7348 0.0000 0.0000 0.0000
# 2 31.4372 64.9748 43.7350 0.0000 0.0000 0.0000
# 3 43.7348 43.7350 91.4602 0.0000 0.0000 0.0000
# 4 0.0000 0.0000 0.0000 27.1371 0.0000 0.0000
# 5 0.0000 0.0000 0.0000 0.0000 27.1373 0.0000
# 6 0.0000 0.0000 0.0000 0.0000 0.0000 26.8012
#
#
#
# Elastic Compliance Matrix: (Units=1/GPa)
#
#
# Indices 1 2 3 4 5 6 
#
# 1 0.024069 -0.005749 -0.008761 0.000000 0.000000 0.000000
# 2 -0.005749 0.024069 -0.008760 0.000000 0.000000 0.000000
# 3 -0.008761 -0.008760 0.019312 0.000000 0.000000 0.000000
# 4 0.000000 0.000000 0.000000 0.036850 0.000000 0.000000
# 5 0.000000 0.000000 0.000000 0.000000 0.036850 0.000000
# 6 0.000000 0.000000 0.000000 0.000000 0.000000 0.037312
#
#
# Mechanical properties :
#
#
# Convention : Reuss Voigt Hill
#
# Bulk Modulus (GPa) = 47.82272 51.02470 49.42371
# Shear Modulus (GPa) = 21.55441 23.04855 22.30148
#
# Velocity S-wave (km/s) = 3.17501 3.28321 3.22957
# Velocity P-wave (km/s) = 5.98389 6.18354 6.08454
#
# Compressibility (1/GPa) = 0.02091056
#
# Stress axis : x y z
#
# Youngs Moduli (GPa) = 41.54650 41.54767 51.78147
#
# Poissons Ratio (x) = 0.23885 0.45363
# Poissons Ratio (y) = 0.23885 0.45362
# Poissons Ratio (z) = 0.36397 0.36397
#
# Static dielectric constant tensor:
#      x y z
#    x 1.813010 0.000000 0.000000 
#    y 0.000000 1.813000 0.000000 
#    z 0.000000 0.000000 1.756830 
# 
# From -- ./inp_files/1631.got.cif
#   From: 2010.05.17/outbox.cif.g08.bks.cpg/sg130_1_cif.got.tgz:1631.got - 2010.05.20 12:17:35.
