data_PCOD9565092
_publ_section_title
;
Structure prediction by ZEFSAII (Michael W. Deem and Ramdas Pophale) SiO2 
 PCOD9565092
Probable space group: P 4/M N C
;
_chemical_formula_sum "Si O2"
_cell_formula_units_Z 60
_cell_length_a 12.000000
_cell_length_b 12.000000
_cell_length_c 21.000000
_cell_angle_alpha 90.000000
_cell_angle_beta 90.000000
_cell_angle_gamma 90.000000
_cell_volume 3024.000000
_symmetry_space_group_name_H-M "P 4/M N C"
_symmetry_group_IT_number 128
_symmetry_cell_setting 'tetragonal'
loop_
_space_group_symop_operation_xyz
x,y,z
-y,x,z
-x,-y,z
y,-x,z
1/2+x,1/2-y,1/2-z
1/2-x,1/2+y,1/2-z
1/2+y,1/2+x,1/2-z
1/2-y,1/2-x,1/2-z
-x,-y,-z
y,-x,-z
x,y,-z
-y,x,-z
1/2-x,1/2+y,1/2+z
1/2+x,1/2-y,1/2+z
1/2-y,1/2-x,1/2+z
1/2+y,1/2+x,1/2+z
loop_
_atom_site_type_symbol
_atom_site_label
_atom_site_fract_x
_atom_site_fract_y
_atom_site_fract_z
Si Si1 0.000000 0.000000 0.745779
Si Si2 0.584051 0.251796 0.712726
Si Si3 0.925605 0.171812 0.423275
Si Si4 0.557257 0.679006 0.500000
Si Si5 0.865710 0.279199 0.132213
O O1 0.134303 0.957057 0.750800
O O2 0.657664 0.157664 0.750000
O O3 0.471601 0.201850 0.679402
O O4 0.671298 0.300602 0.660193
O O5 0.915317 0.194138 0.500000
O O6 0.875661 0.273892 0.382182
O O7 0.055729 0.141604 0.410742
O O8 0.430933 0.634956 0.500000
O O9 0.583265 0.746721 0.436261
#
# Coordination Sequence:
#
# PCOD9565092 Si02
#       5
#     4  16  16   8  16
#     4   8  20  44  76  89 132 189 248 300 364 398
#     4  10  22  41  67 100 139 192 244 295 355 442
#     4   9  19  38  64  97 136 181 232 286 362 446
#     4  11  20  32  68 113 146 176 222 283 374 449
#     4  11  20  39  69 101 143 178 230 301 362 429
#
# _framework density 19.841270000000002
#
# number of rings (size 3 to 8) (size 9 to 14) (size 15 to 20)
#    0.000    2.000    4.000    0.800    0.000    0.000 
#    9.600    1.333   23.467    4.800    0.000    0.000 
#    0.000    0.000    0.000    0.000    0.000    0.000 
#
# Total GULP energy -334027.500443 kJ/mol
# GULP energy per Si atom -5567.125007 kJ/mol
# Density = 1.979611 g / cm^3
# Si number density = 19.841270 Si / 1000 Ang^3
#
#
#
# Elastic Constant Matrix: (Units=GPa)
#
#
# Indices 1 2 3 4 5 6 
#
# 1 -76.1650 281.5580 44.2554 0.0000 0.0000 0.0000
# 2 281.5580 -76.1650 44.2554 0.0000 0.0000 0.0000
# 3 44.2554 44.2554 74.8733 0.0000 0.0000 0.0000
# 4 0.0000 0.0000 0.0000 36.8966 0.0000 0.0000
# 5 0.0000 0.0000 0.0000 0.0000 36.8966 0.0000
# 6 0.0000 0.0000 0.0000 0.0000 0.0000 35.4202
#
#
#
# Elastic Compliance Matrix: (Units=1/GPa)
#
#
# Indices 1 2 3 4 5 6 
#
# 1 0.001869 0.004664 -0.003861 0.000000 0.000000 0.000000
# 2 0.004664 0.001869 -0.003861 0.000000 0.000000 0.000000
# 3 -0.003861 -0.003861 0.017920 0.000000 0.000000 0.000000
# 4 0.000000 0.000000 0.000000 0.027103 0.000000 0.000000
# 5 0.000000 0.000000 0.000000 0.000000 0.027103 0.000000
# 6 0.000000 0.000000 0.000000 0.000000 0.000000 0.028232
#
#
# Mechanical properties :
#
#
# Convention : Reuss Voigt Hill
#
# Bulk Modulus (GPa) = 64.34709 73.63124 68.98917
# Shear Modulus (GPa) = 43.33024 -7.99235 17.66895
#
# Velocity S-wave (km/s) = 4.67823 -2.00920 2.98739
# Velocity P-wave (km/s) = 7.85382 5.63987 6.83706
#
# Compressibility (1/GPa) = 0.01554072
#
# Stress axis : x y z
#
# Youngs Moduli (GPa) = 535.15919 535.15919 55.80216
#
# Poissons Ratio (x) = -2.49602 0.21547
# Poissons Ratio (y) = -2.49602 0.21547
# Poissons Ratio (z) = 2.06639 2.06639
#
# Static dielectric constant tensor:
#      x y z
#    x 1.691330 0.000000 0.000000 
#    y 0.000000 1.691330 0.000000 
#    z 0.000000 0.000000 1.752630 
# 
# From -- ./inp_files/5434.got.cif
#   From: 2010.05.17/outbox.ucp.g08.bks.cvg/sg128_3_cif.got.tgz:5434.got - 2010.06.11 11:37:33.
