data_PCOD9565649
_publ_section_title
;
Structure prediction by ZEFSAII (Michael W. Deem and Ramdas Pophale) SiO2 
 PCOD9565649
Probable space group: P 4/N C C
;
_chemical_formula_sum "Si O2"
_cell_formula_units_Z 84
_cell_length_a 16.057834
_cell_length_b 16.057834
_cell_length_c 17.184972
_cell_angle_alpha 90.000000
_cell_angle_beta 90.000000
_cell_angle_gamma 90.000000
_cell_volume 4431.214333
_symmetry_space_group_name_H-M "P 4/N C C"
_symmetry_group_IT_number 130
_symmetry_cell_setting 'tetragonal'
loop_
_space_group_symop_operation_xyz
x,y,z
1/2-y,x,z
1/2-x,1/2-y,z
y,1/2-x,z
1/2+x,-y,1/2-z
-x,1/2+y,1/2-z
1/2+y,1/2+x,1/2-z
-y,-x,1/2-z
-x,-y,-z
1/2+y,-x,-z
1/2+x,1/2+y,-z
-y,1/2+x,-z
1/2-x,y,1/2+z
x,1/2-y,1/2+z
1/2-y,1/2-x,1/2+z
y,x,1/2+z
loop_
_atom_site_type_symbol
_atom_site_label
_atom_site_fract_x
_atom_site_fract_y
_atom_site_fract_z
Si Si1 0.474012 0.173767 0.614360
Si Si2 0.750000 0.250000 0.000000
Si Si3 0.654349 0.849166 0.623434
Si Si4 0.440560 0.151806 0.038145
Si Si5 0.998216 0.627475 0.218344
Si Si6 0.149594 0.602177 0.433840
O O1 0.437591 0.256642 0.575390
O O2 0.414975 0.093931 0.599350
O O3 0.486360 0.185216 0.706563
O O4 0.562731 0.150797 0.576710
O O5 0.720285 0.330209 0.048759
O O6 0.636448 0.752913 0.636348
O O7 0.640396 0.878617 0.535260
O O8 0.606009 0.909617 0.681083
O O9 0.532940 0.141026 0.001891
O O10 0.048256 0.548256 0.250000
O O11 0.052078 0.664220 0.146724
#
# Coordination Sequence:
#
# PCOD9565649 Si02
#       6
#    16   4  16  16  16  16
#     4  11  22  38  60  90 130 164 208 261 319 376
#     4  12  20  40  78  96 112 168 222 272 324 372
#     4  10  20  36  58  88 122 162 208 261 313 374
#     4  11  21  37  64  91 124 165 213 257 313 384
#     4   9  22  41  58  84 130 166 200 262 319 372
#     4  10  22  42  65  92 124 161 215 269 318 378
#
# _framework density 18.956429
#
# number of rings (size 3 to 8) (size 9 to 14) (size 15 to 20)
#    0.000    1.714    3.810    0.571    2.667    0.381 
#    0.000    4.286    0.000    0.000    0.000    0.000 
#    0.000    0.000    0.000    0.000    0.000    0.000 
#
# Total GULP energy -468600.503525 kJ/mol
# GULP energy per Si atom -5578.577423 kJ/mol
# Density = 1.891328 g / cm^3
# Si number density = 18.956429 Si / 1000 Ang^3
#
#
#
# Elastic Constant Matrix: (Units=GPa)
#
#
# Indices 1 2 3 4 5 6 
#
# 1 58.5908 0.6949 25.5761 0.0000 0.0000 0.0000
# 2 0.6949 58.5908 25.5761 0.0000 0.0000 0.0000
# 3 25.5761 25.5761 68.5676 0.0000 0.0000 0.0000
# 4 0.0000 0.0000 0.0000 14.7422 0.0000 0.0000
# 5 0.0000 0.0000 0.0000 0.0000 14.7422 0.0000
# 6 0.0000 0.0000 0.0000 0.0000 0.0000 14.2892
#
#
#
# Elastic Compliance Matrix: (Units=1/GPa)
#
#
# Indices 1 2 3 4 5 6 
#
# 1 0.021072 0.003800 -0.009277 0.000000 0.000000 0.000000
# 2 0.003800 0.021072 -0.009277 0.000000 0.000000 0.000000
# 3 -0.009277 -0.009277 0.021505 0.000000 0.000000 0.000000
# 4 0.000000 0.000000 0.000000 0.067833 0.000000 0.000000
# 5 0.000000 0.000000 0.000000 0.000000 0.067833 0.000000
# 6 0.000000 0.000000 0.000000 0.000000 0.000000 0.069983
#
#
# Mechanical properties :
#
#
# Convention : Reuss Voigt Hill
#
# Bulk Modulus (GPa) = 29.29141 32.16037 30.72589
# Shear Modulus (GPa) = 16.11926 17.68151 16.90039
#
# Velocity S-wave (km/s) = 2.91921 3.05740 2.98910
# Velocity P-wave (km/s) = 5.18149 5.42824 5.30630
#
# Compressibility (1/GPa) = 0.03413970
#
# Stress axis : x y z
#
# Youngs Moduli (GPa) = 47.45582 47.45582 46.50044
#
# Poissons Ratio (x) = -0.18032 0.43140
# Poissons Ratio (y) = -0.18032 0.43140
# Poissons Ratio (z) = 0.44027 0.44027
#
# Static dielectric constant tensor:
#      x y z
#    x 1.654220 0.000000 0.000000 
#    y 0.000000 1.654220 0.000000 
#    z 0.000000 0.000000 1.678990 
# 
# From -- ./inp_files/3020.got.cif
#   From: 2010.05.17/outbox.cif.g08.bks.cpg/sg130_2_cif.got.tgz:3020.got - 2010.05.20 12:17:35.
