data_PCOD9565023
_publ_section_title
;
Structure prediction by ZEFSAII (Michael W. Deem and Ramdas Pophale) SiO2 
 PCOD9565023
Probable space group: P 4/M N C
;
_chemical_formula_sum "Si O2"
_cell_formula_units_Z 48
_cell_length_a 9.732766
_cell_length_b 9.732766
_cell_length_c 25.731889
_cell_angle_alpha 90.000000
_cell_angle_beta 90.000000
_cell_angle_gamma 90.000000
_cell_volume 2437.497805
_symmetry_space_group_name_H-M "P 4/M N C"
_symmetry_group_IT_number 128
_symmetry_cell_setting 'tetragonal'
loop_
_space_group_symop_operation_xyz
x,y,z
-y,x,z
-x,-y,z
y,-x,z
1/2+x,1/2-y,1/2-z
1/2-x,1/2+y,1/2-z
1/2+y,1/2+x,1/2-z
1/2-y,1/2-x,1/2-z
-x,-y,-z
y,-x,-z
x,y,-z
-y,x,-z
1/2-x,1/2+y,1/2+z
1/2+x,1/2-y,1/2+z
1/2-y,1/2-x,1/2+z
1/2+y,1/2+x,1/2+z
loop_
_atom_site_type_symbol
_atom_site_label
_atom_site_fract_x
_atom_site_fract_y
_atom_site_fract_z
Si Si1 0.115106 0.799005 0.712689
Si Si2 0.620205 0.149769 0.441115
Si Si3 0.643340 0.829939 0.901251
O O1 0.189944 0.689944 0.750000
O O2 0.137498 0.743149 0.654342
O O3 0.950799 0.818447 0.720210
O O4 0.566224 0.152160 0.500000
O O5 0.732726 0.264692 0.432854
O O6 0.494140 0.164809 0.401128
O O7 0.688316 0.002604 0.429506
#
# Coordination Sequence:
#
# PCOD9565023 Si02
#       3
#    16  16  16
#     4  11  26  46  70 100 132 176 225 277 342 403
#     4  11  23  41  66  97 136 180 222 271 335 396
#     4  11  23  42  65  97 135 173 225 276 328 401
#
# _framework density 19.692323999999999
#
# number of rings (size 3 to 8) (size 9 to 14) (size 15 to 20)
#    0.000    1.000    3.333    4.000    4.667    2.000 
#    0.000    3.333    0.000    0.000    0.000    0.000 
#    0.000    0.000    0.000    0.000    0.000    0.000 
#
# Total GULP energy -268127.358034 kJ/mol
# GULP energy per Si atom -5585.986626 kJ/mol
# Density = 1.964750 g / cm^3
# Si number density = 19.692324 Si / 1000 Ang^3
#
#
#
# Elastic Constant Matrix: (Units=GPa)
#
#
# Indices 1 2 3 4 5 6 
#
# 1 71.0981 97.1394 33.2265 0.0000 0.0000 0.0000
# 2 97.1394 71.0981 33.2265 0.0000 0.0000 0.0000
# 3 33.2265 33.2265 78.0695 0.0000 0.0000 0.0000
# 4 0.0000 0.0000 0.0000 32.7287 0.0000 0.0000
# 5 0.0000 0.0000 0.0000 0.0000 32.7287 0.0000
# 6 0.0000 0.0000 0.0000 0.0000 0.0000 46.9604
#
#
#
# Elastic Compliance Matrix: (Units=1/GPa)
#
#
# Indices 1 2 3 4 5 6 
#
# 1 -0.015628 0.022773 -0.003041 0.000000 0.000000 0.000000
# 2 0.022773 -0.015628 -0.003041 0.000000 0.000000 0.000000
# 3 -0.003041 -0.003041 0.015398 0.000000 0.000000 0.000000
# 4 0.000000 0.000000 0.000000 0.030554 0.000000 0.000000
# 5 0.000000 0.000000 0.000000 0.000000 0.030554 0.000000
# 6 0.000000 0.000000 0.000000 0.000000 0.000000 0.021295
#
#
# Mechanical properties :
#
#
# Convention : Reuss Voigt Hill
#
# Bulk Modulus (GPa) = 57.06474 60.82782 58.94628
# Shear Modulus (GPa) = 128.18945 26.26178 77.22562
#
# Velocity S-wave (km/s) = 8.07697 3.65582 6.26907
# Velocity P-wave (km/s) = 10.77146 6.98399 9.07746
#
# Compressibility (1/GPa) = 0.01752396
#
# Stress axis : x y z
#
# Youngs Moduli (GPa) = -63.98897 -63.98897 64.94522
#
# Poissons Ratio (x) = 1.45721 0.19750
# Poissons Ratio (y) = 1.45721 0.19750
# Poissons Ratio (z) = -0.19459 -0.19459
#
# Static dielectric constant tensor:
#      x y z
#    x 1.677040 0.000000 0.000000 
#    y 0.000000 1.677040 0.000000 
#    z 0.000000 0.000000 1.675620 
# 
# From -- ./inp_files/6982.got.cif
#   From: 2010.05.17/outbox.cif.g08.bks.cpg/sg128_4_cif.got.tgz:6982.got - 2010.05.20 12:07:25.
