data_PCOD9565816
_publ_section_title
;
Structure prediction by ZEFSAII (Michael W. Deem and Ramdas Pophale) SiO2 
 PCOD9565816
Probable space group: P 4/N C C
;
_chemical_formula_sum "Si O2"
_cell_formula_units_Z 72
_cell_length_a 12.631823
_cell_length_b 12.631823
_cell_length_c 24.505674
_cell_angle_alpha 90.000000
_cell_angle_beta 90.000000
_cell_angle_gamma 90.000000
_cell_volume 3910.197692
_symmetry_space_group_name_H-M "P 4/N C C"
_symmetry_group_IT_number 130
_symmetry_cell_setting 'tetragonal'
loop_
_space_group_symop_operation_xyz
x,y,z
1/2-y,x,z
1/2-x,1/2-y,z
y,1/2-x,z
1/2+x,-y,1/2-z
-x,1/2+y,1/2-z
1/2+y,1/2+x,1/2-z
-y,-x,1/2-z
-x,-y,-z
1/2+y,-x,-z
1/2+x,1/2+y,-z
-y,1/2+x,-z
1/2-x,y,1/2+z
x,1/2-y,1/2+z
1/2-y,1/2-x,1/2+z
y,x,1/2+z
loop_
_atom_site_type_symbol
_atom_site_label
_atom_site_fract_x
_atom_site_fract_y
_atom_site_fract_z
Si Si1 0.602430 0.649761 0.069236
Si Si2 0.024693 0.976379 0.644039
Si Si3 0.279968 0.630921 0.804787
Si Si4 0.566103 0.433898 0.750000
Si Si5 0.101368 0.347749 0.554446
O O1 0.723707 0.609261 0.074666
O O2 0.533882 0.588012 0.113445
O O3 0.565205 0.626990 0.007329
O O4 0.066997 0.858700 0.657047
O O5 0.102896 0.030959 0.601425
O O6 0.014197 0.042110 0.700430
O O7 0.250000 0.750000 0.825957
O O8 0.344659 0.655342 0.750000
O O9 0.178408 0.568138 0.781787
O O10 0.109014 0.221068 0.559438
#
# Coordination Sequence:
#
# PCOD9565816 Si02
#       5
#    16  16  16   8  16
#     4   9  19  38  57  83 117 146 186 240 290 336
#     4  12  20  34  63  85 107 158 196 226 286 354
#     4   9  21  39  51  76 121 153 179 235 284 331
#     4  10  23  34  55  84 116 142 198 226 287 334
#     4   9  21  37  56  83 116 148 188 242 286 333
#
# _framework density 18.413391000000001
#
# number of rings (size 3 to 8) (size 9 to 14) (size 15 to 20)
#    0.000    2.444    1.111    3.333    6.222    0.000 
#    0.000    0.000    0.000    2.667    0.000    0.000 
#    0.000    0.000    0.000    0.000    0.000    0.000 
#
# Total GULP energy -401088.961625 kJ/mol
# GULP energy per Si atom -5570.680023 kJ/mol
# Density = 1.837148 g / cm^3
# Si number density = 18.413391 Si / 1000 Ang^3
#
#
#
# Elastic Constant Matrix: (Units=GPa)
#
#
# Indices 1 2 3 4 5 6 
#
# 1 38.0521 34.9342 45.3912 0.0000 0.0000 0.0000
# 2 34.9342 38.0522 45.3912 0.0000 0.0000 0.0000
# 3 45.3912 45.3912 124.6867 0.0000 0.0000 0.0000
# 4 0.0000 0.0000 0.0000 31.3420 0.0000 0.0000
# 5 0.0000 0.0000 0.0000 0.0000 31.3422 0.0000
# 6 0.0000 0.0000 0.0000 0.0000 0.0000 28.0558
#
#
#
# Elastic Compliance Matrix: (Units=1/GPa)
#
#
# Indices 1 2 3 4 5 6 
#
# 1 0.172879 -0.147840 -0.009115 0.000000 0.000000 0.000000
# 2 -0.147840 0.172878 -0.009115 0.000000 0.000000 0.000000
# 3 -0.009115 -0.009115 0.014657 0.000000 0.000000 0.000000
# 4 0.000000 0.000000 0.000000 0.031906 0.000000 0.000000
# 5 0.000000 0.000000 0.000000 0.000000 0.031906 0.000000
# 6 0.000000 0.000000 0.000000 0.000000 0.000000 0.035643
#
#
# Mechanical properties :
#
#
# Convention : Reuss Voigt Hill
#
# Bulk Modulus (GPa) = 35.36850 50.24714 42.80782
# Shear Modulus (GPa) = 6.23881 23.15296 14.69589
#
# Velocity S-wave (km/s) = 1.84270 3.54983 2.82815
# Velocity P-wave (km/s) = 4.87618 6.64449 5.82780
#
# Compressibility (1/GPa) = 0.02827374
#
# Stress axis : x y z
#
# Youngs Moduli (GPa) = 5.78439 5.78441 68.22791
#
# Poissons Ratio (x) = 0.85517 0.62192
# Poissons Ratio (y) = 0.85516 0.62191
# Poissons Ratio (z) = 0.05273 0.05273
#
# Static dielectric constant tensor:
#      x y z
#    x 1.645390 0.000000 0.000000 
#    y 0.000000 1.645390 0.000000 
#    z 0.000000 0.000000 1.633430 
# 
# From -- ./inp_files/4477.got.cif
#   From: 2010.05.17/outbox.cif.g08.bks.cpg/sg130_3_cif.got.tgz:4477.got - 2010.05.20 12:17:35.
