data_PCOD9565019
_publ_section_title
;
Structure prediction by ZEFSAII (Michael W. Deem and Ramdas Pophale) SiO2 
 PCOD9565019
Probable space group: P 4/M N C
;
_chemical_formula_sum "Si O2"
_cell_formula_units_Z 112
_cell_length_a 13.801285
_cell_length_b 13.801285
_cell_length_c 28.474908
_cell_angle_alpha 90.000000
_cell_angle_beta 90.000000
_cell_angle_gamma 90.000000
_cell_volume 5423.771418
_symmetry_space_group_name_H-M "P 4/M N C"
_symmetry_group_IT_number 128
_symmetry_cell_setting 'tetragonal'
loop_
_space_group_symop_operation_xyz
x,y,z
-y,x,z
-x,-y,z
y,-x,z
1/2+x,1/2-y,1/2-z
1/2-x,1/2+y,1/2-z
1/2+y,1/2+x,1/2-z
1/2-y,1/2-x,1/2-z
-x,-y,-z
y,-x,-z
x,y,-z
-y,x,-z
1/2-x,1/2+y,1/2+z
1/2+x,1/2-y,1/2+z
1/2-y,1/2-x,1/2+z
1/2+y,1/2+x,1/2+z
loop_
_atom_site_type_symbol
_atom_site_label
_atom_site_fract_x
_atom_site_fract_y
_atom_site_fract_z
Si Si1 0.503405 0.334978 0.221219
Si Si2 0.162154 0.014942 0.172134
Si Si3 0.076715 0.725630 0.917977
Si Si4 0.635142 0.719002 0.093822
Si Si5 0.416439 0.919341 0.052082
Si Si6 0.937323 0.741964 0.368739
Si Si7 0.616616 0.614294 0.000000
Si Si8 0.409995 0.365006 0.500000
O O1 0.594494 0.409559 0.215168
O O2 0.492067 0.299219 0.274746
O O3 0.521436 0.248117 0.184354
O O4 0.237243 0.035405 0.131264
O O5 0.083662 0.101079 0.166821
O O6 0.166761 0.653665 0.909220
O O7 0.117629 0.808541 0.952560
O O8 0.985966 0.677990 0.944095
O O9 0.523452 0.698093 0.105726
O O10 0.704817 0.665818 0.130357
O O11 0.658683 0.667596 0.045086
O O12 0.425383 0.851199 0.097714
O O13 0.500000 0.000000 0.053558
O O14 0.421544 0.870963 0.000000
O O15 0.500420 0.631486 0.000000
O O16 0.526378 0.372704 0.500000
#
# Coordination Sequence:
#
# PCOD9565019 Si02
#       8
#    16  16  16  16  16  16   8   8
#     4   9  18  38  68  99 129 163 208 269 338 393
#     4   9  20  40  69  98 127 163 214 283 341 382
#     4  12  24  43  65  92 131 177 224 266 330 402
#     4  12  26  38  63  97 131 172 221 273 333 400
#     4  11  26  45  62  86 132 185 219 257 320 404
#     4  12  24  41  65  97 130 170 221 273 328 396
#     4  11  23  38  56  89 132 172 213 280 346 389
#     4  11  25  42  65  96 127 161 224 293 337 369
#
# _framework density 20.649837000000002
#
# number of rings (size 3 to 8) (size 9 to 14) (size 15 to 20)
#    0.000    1.143    5.000    2.143    6.000    1.429 
#    0.000    1.429    0.000    0.857    0.000    0.000 
#    0.000    0.000    0.000    0.000    0.000    0.000 
#
# Total GULP energy -624767.807631 kJ/mol
# GULP energy per Si atom -5578.283997 kJ/mol
# Density = 2.060284 g / cm^3
# Si number density = 20.649837 Si / 1000 Ang^3
#
#
#
# Elastic Constant Matrix: (Units=GPa)
#
#
# Indices 1 2 3 4 5 6 
#
# 1 58.8564 9.8268 28.8670 0.0000 0.0000 0.0000
# 2 9.8268 58.8564 28.8670 0.0000 0.0000 0.0000
# 3 28.8670 28.8670 143.5055 0.0000 0.0000 0.0000
# 4 0.0000 0.0000 0.0000 23.1604 0.0000 0.0000
# 5 0.0000 0.0000 0.0000 0.0000 23.1604 0.0000
# 6 0.0000 0.0000 0.0000 0.0000 0.0000 13.1046
#
#
#
# Elastic Compliance Matrix: (Units=1/GPa)
#
#
# Indices 1 2 3 4 5 6 
#
# 1 0.018959 -0.001437 -0.003525 0.000000 0.000000 0.000000
# 2 -0.001437 0.018959 -0.003525 0.000000 0.000000 0.000000
# 3 -0.003525 -0.003525 0.008386 0.000000 0.000000 0.000000
# 4 0.000000 0.000000 0.000000 0.043177 0.000000 0.000000
# 5 0.000000 0.000000 0.000000 0.000000 0.043177 0.000000
# 6 0.000000 0.000000 0.000000 0.000000 0.000000 0.076309
#
#
# Mechanical properties :
#
#
# Convention : Reuss Voigt Hill
#
# Bulk Modulus (GPa) = 34.09208 44.03775 39.06492
# Shear Modulus (GPa) = 21.21179 24.79559 23.00369
#
# Velocity S-wave (km/s) = 3.20849 3.46896 3.34127
# Velocity P-wave (km/s) = 5.50194 6.11696 5.81758
#
# Compressibility (1/GPa) = 0.02933232
#
# Stress axis : x y z
#
# Youngs Moduli (GPa) = 52.74499 52.74499 119.24045
#
# Poissons Ratio (x) = 0.07578 0.42029
# Poissons Ratio (y) = 0.07578 0.42029
# Poissons Ratio (z) = 0.18591 0.18591
#
# Static dielectric constant tensor:
#      x y z
#    x 1.746230 0.000000 0.000000 
#    y 0.000000 1.746230 0.000000 
#    z 0.000000 0.000000 1.788450 
# 
# From -- ./inp_files/6956.got.cif
#   From: 2010.05.17/outbox.cif.g08.bks.cpg/sg128_4_cif.got.tgz:6956.got - 2010.05.20 12:07:25.
