data_PCOD9565107
_publ_section_title
;
Structure prediction by ZEFSAII (Michael W. Deem and Ramdas Pophale) SiO2 
 PCOD9565107
Probable space group: P 4/N M M
;
_chemical_formula_sum "Si O2"
_cell_formula_units_Z 96
_cell_length_a 23.192805
_cell_length_b 23.192805
_cell_length_c 12.770760
_cell_angle_alpha 90.000000
_cell_angle_beta 90.000000
_cell_angle_gamma 90.000000
_cell_volume 6869.471031
_symmetry_space_group_name_H-M "P 4/N M M"
_symmetry_group_IT_number 129
_symmetry_cell_setting 'tetragonal'
loop_
_space_group_symop_operation_xyz
x,y,z
1/2-y,x,z
1/2-x,1/2-y,z
y,1/2-x,z
1/2+x,-y,-z
-x,1/2+y,-z
1/2+y,1/2+x,-z
-y,-x,-z
-x,-y,-z
1/2+y,-x,-z
1/2+x,1/2+y,-z
-y,1/2+x,-z
1/2-x,y,z
x,1/2-y,z
1/2-y,1/2-x,z
y,x,z
loop_
_atom_site_type_symbol
_atom_site_label
_atom_site_fract_x
_atom_site_fract_y
_atom_site_fract_z
Si Si1 0.988918 0.815423 0.674326
Si Si2 0.622251 0.976156 0.295957
Si Si3 0.086397 0.317432 0.883986
Si Si4 0.964808 0.438404 0.378183
Si Si5 0.315367 0.411452 0.526263
Si Si6 0.684151 0.911211 0.871725
O O1 0.013679 0.750000 0.665577
O O2 0.936564 0.817497 0.590688
O O3 0.962918 0.822822 0.790108
O O4 0.026224 0.871316 0.645860
O O5 0.571819 0.928182 0.298806
O O6 0.657987 0.963322 0.191340
O O7 0.662232 0.961045 0.395142
O O8 0.587677 0.035057 0.311065
O O9 0.096927 0.250000 0.862259
O O10 0.143391 0.356610 0.865038
O O11 0.071592 0.323615 0.006793
O O12 0.949607 0.449607 0.500000
O O13 0.023392 0.476609 0.358201
O O14 0.250000 0.396139 0.552743
O O15 0.357757 0.357757 0.537026
O O16 0.750000 0.889818 0.860909
O O17 0.638720 0.861280 0.847788
#
# Coordination Sequence:
#
# PCOD9565107 Si02
#       6
#    16  16  16  16  16  16
#     4  10  19  30  44  63  86 110 142 183 226 264
#     4   9  17  28  42  61  83 108 143 185 221 254
#     4   9  17  29  43  61  88 121 156 189 219 252
#     4  10  17  28  47  66  86 113 146 180 219 270
#     4  10  18  27  40  59  86 116 145 178 213 249
#     4   9  17  28  42  59  84 120 155 186 217 250
#
# _framework density 13.974875000000001
#
# number of rings (size 3 to 8) (size 9 to 14) (size 15 to 20)
#    0.000    2.500    1.667    2.000    0.000    0.500 
#    0.000    2.500    0.000   10.000    0.000    0.000 
#    0.000    5.667    0.000    0.000    0.000   28.000 
#
# Total GULP energy -534431.644358 kJ/mol
# GULP energy per Si atom -5566.996295 kJ/mol
# Density = 1.394307 g / cm^3
# Si number density = 13.974875 Si / 1000 Ang^3
#
#
#
# Elastic Constant Matrix: (Units=GPa)
#
#
# Indices 1 2 3 4 5 6 
#
# 1 82.6332 51.5336 33.9975 0.0000 0.0000 0.0000
# 2 51.5336 82.6332 33.9975 0.0000 0.0000 0.0000
# 3 33.9975 33.9975 56.0386 0.0000 0.0000 0.0000
# 4 0.0000 0.0000 0.0000 18.1850 0.0000 0.0000
# 5 0.0000 0.0000 0.0000 0.0000 18.1850 0.0000
# 6 0.0000 0.0000 0.0000 0.0000 0.0000 20.6262
#
#
#
# Elastic Compliance Matrix: (Units=1/GPa)
#
#
# Indices 1 2 3 4 5 6 
#
# 1 0.021459 -0.010696 -0.006529 0.000000 0.000000 0.000000
# 2 -0.010696 0.021459 -0.006529 0.000000 0.000000 0.000000
# 3 -0.006529 -0.006529 0.025767 0.000000 0.000000 0.000000
# 4 0.000000 0.000000 0.000000 0.054990 0.000000 0.000000
# 5 0.000000 0.000000 0.000000 0.000000 0.054990 0.000000
# 6 0.000000 0.000000 0.000000 0.000000 0.000000 0.048482
#
#
# Mechanical properties :
#
#
# Convention : Reuss Voigt Hill
#
# Bulk Modulus (GPa) = 47.22602 51.15134 49.18868
# Shear Modulus (GPa) = 17.74840 18.18432 17.96636
#
# Velocity S-wave (km/s) = 3.56760 3.61115 3.58944
# Velocity P-wave (km/s) = 7.13003 7.35316 7.24245
#
# Compressibility (1/GPa) = 0.02117477
#
# Stress axis : x y z
#
# Youngs Moduli (GPa) = 46.60138 46.60138 38.80883
#
# Poissons Ratio (x) = 0.49845 0.25340
# Poissons Ratio (y) = 0.49845 0.25340
# Poissons Ratio (z) = 0.30428 0.30428
#
# Static dielectric constant tensor:
#      x y z
#    x 1.452120 0.000000 0.000000 
#    y 0.000000 1.452120 0.000000 
#    z 0.000000 0.000000 1.482580 
# 
# From -- ./inp_files/3893.got.cif
#   From: 2010.05.17/outbox.cif.g08.bks.cpg/sg129_2_cif.got.tgz:3893.got - 2010.05.20 12:12:06.
