data_PCOD9565881
_publ_section_title
;
Structure prediction by ZEFSAII (Michael W. Deem and Ramdas Pophale) SiO2 
 PCOD9565881
Probable space group: P 4/N C C
;
_chemical_formula_sum "Si O2"
_cell_formula_units_Z 88
_cell_length_a 13.910769
_cell_length_b 13.910769
_cell_length_c 20.983128
_cell_angle_alpha 90.000000
_cell_angle_beta 90.000000
_cell_angle_gamma 90.000000
_cell_volume 4060.434485
_symmetry_space_group_name_H-M "P 4/N C C"
_symmetry_group_IT_number 130
_symmetry_cell_setting 'tetragonal'
loop_
_space_group_symop_operation_xyz
x,y,z
1/2-y,x,z
1/2-x,1/2-y,z
y,1/2-x,z
1/2+x,-y,1/2-z
-x,1/2+y,1/2-z
1/2+y,1/2+x,1/2-z
-y,-x,1/2-z
-x,-y,-z
1/2+y,-x,-z
1/2+x,1/2+y,-z
-y,1/2+x,-z
1/2-x,y,1/2+z
x,1/2-y,1/2+z
1/2-y,1/2-x,1/2+z
y,x,1/2+z
loop_
_atom_site_type_symbol
_atom_site_label
_atom_site_fract_x
_atom_site_fract_y
_atom_site_fract_z
Si Si1 0.661825 0.615784 0.458957
Si Si2 0.990540 0.869504 0.089662
Si Si3 0.071430 0.928571 0.750000
Si Si4 0.148570 0.873778 0.004626
Si Si5 0.117551 0.155110 0.188366
Si Si6 0.348774 0.977117 0.374038
O O1 0.776694 0.621900 0.466421
O O2 0.627467 0.554946 0.518565
O O3 0.641125 0.589563 0.386134
O O4 0.991916 0.761781 0.117190
O O5 0.923862 0.935640 0.132426
O O6 0.098101 0.903007 0.070928
O O7 0.089084 0.863540 0.687487
O O8 0.963048 0.901104 0.771913
O O9 0.122312 0.929508 0.940858
O O10 0.263079 0.878491 0.008197
O O11 0.228286 0.120408 0.198931
#
# Coordination Sequence:
#
# PCOD9565881 Si02
#       6
#    16  16   8  16  16  16
#     4   9  16  32  61  99 129 153 205 279 352 406
#     4  11  20  38  64  97 127 161 205 273 345 387
#     4  12  26  44  60  92 138 178 230 264 318 402
#     4   9  20  40  63  89 123 163 212 266 326 388
#     4   9  21  42  70  95 127 181 232 284 339 404
#     4  11  25  39  61  95 128 171 213 269 326 399
#
# _framework density 21.672557999999999
#
# number of rings (size 3 to 8) (size 9 to 14) (size 15 to 20)
#    0.000    2.000    1.818    2.727    2.545    0.364 
#    6.545    0.000    0.000    8.182    0.000    0.000 
#    0.000    0.000    0.000    0.000    0.000    0.000 
#
# Total GULP energy -491358.280041 kJ/mol
# GULP energy per Si atom -5583.616819 kJ/mol
# Density = 2.162323 g / cm^3
# Si number density = 21.672558 Si / 1000 Ang^3
#
#
#
# Elastic Constant Matrix: (Units=GPa)
#
#
# Indices 1 2 3 4 5 6 
#
# 1 76.1899 42.5200 36.7518 0.0000 0.0000 0.0000
# 2 42.5200 76.1907 36.7519 0.0000 0.0000 0.0000
# 3 36.7518 36.7519 89.5228 0.0000 0.0000 0.0000
# 4 0.0000 0.0000 0.0000 25.0005 0.0000 0.0000
# 5 0.0000 0.0000 0.0000 0.0000 25.0005 0.0000
# 6 0.0000 0.0000 0.0000 0.0000 0.0000 -4.7172
#
#
#
# Elastic Compliance Matrix: (Units=1/GPa)
#
#
# Indices 1 2 3 4 5 6 
#
# 1 0.020498 -0.009202 -0.004637 0.000000 0.000000 0.000000
# 2 -0.009202 0.020497 -0.004637 0.000000 0.000000 0.000000
# 3 -0.004637 -0.004637 0.014978 0.000000 0.000000 0.000000
# 4 0.000000 0.000000 0.000000 0.039999 0.000000 0.000000
# 5 0.000000 0.000000 0.000000 0.000000 0.039999 0.000000
# 6 0.000000 0.000000 0.000000 0.000000 0.000000 -0.211989
#
#
# Mechanical properties :
#
#
# Convention : Reuss Voigt Hill
#
# Bulk Modulus (GPa) = 52.57685 52.66120 52.61902
# Shear Modulus (GPa) = -152.78522 17.44873 -67.66825
#
# Velocity S-wave (km/s) = -8.40536 2.84052 -5.59382
# Velocity P-wave (km/s) = 8.35990 5.92532 4.17004
#
# Compressibility (1/GPa) = 0.01901978
#
# Stress axis : x y z
#
# Youngs Moduli (GPa) = 48.78635 48.78704 66.76654
#
# Poissons Ratio (x) = 0.44896 0.30960
# Poissons Ratio (y) = 0.44895 0.30959
# Poissons Ratio (z) = 0.22622 0.22622
#
# Static dielectric constant tensor:
#      x y z
#    x 1.835280 0.000000 0.000000 
#    y 0.000000 1.835280 0.000000 
#    z 0.000000 0.000000 1.778020 
# 
# From -- ./inp_files/3684.got.cif
#   From: 2010.05.17/outbox.cif.g08.bks.cpg/sg130_2_cif.got.tgz:3684.got - 2010.05.20 12:17:35.
