data_PCOD9565792
_publ_section_title
;
Structure prediction by ZEFSAII (Michael W. Deem and Ramdas Pophale) SiO2 
 PCOD9565792
Probable space group: P 4/N C C
;
_chemical_formula_sum "Si O2"
_cell_formula_units_Z 84
_cell_length_a 17.549692
_cell_length_b 17.549692
_cell_length_c 14.210797
_cell_angle_alpha 90.000000
_cell_angle_beta 90.000000
_cell_angle_gamma 90.000000
_cell_volume 4376.807374
_symmetry_space_group_name_H-M "P 4/N C C"
_symmetry_group_IT_number 130
_symmetry_cell_setting 'tetragonal'
loop_
_space_group_symop_operation_xyz
x,y,z
1/2-y,x,z
1/2-x,1/2-y,z
y,1/2-x,z
1/2+x,-y,1/2-z
-x,1/2+y,1/2-z
1/2+y,1/2+x,1/2-z
-y,-x,1/2-z
-x,-y,-z
1/2+y,-x,-z
1/2+x,1/2+y,-z
-y,1/2+x,-z
1/2-x,y,1/2+z
x,1/2-y,1/2+z
1/2-y,1/2-x,1/2+z
y,x,1/2+z
loop_
_atom_site_type_symbol
_atom_site_label
_atom_site_fract_x
_atom_site_fract_y
_atom_site_fract_z
Si Si1 0.899423 0.399423 0.750000
Si Si2 0.542335 0.983175 0.597644
Si Si3 0.576007 0.076007 0.250000
Si Si4 0.020515 0.743015 0.760374
Si Si5 0.791919 0.910665 0.102501
Si Si6 0.754786 0.876221 0.393390
Si Si7 0.750000 0.750000 0.173403
O O1 0.932939 0.442733 0.658274
O O2 0.811529 0.419721 0.760750
O O3 0.482411 0.941400 0.665551
O O4 0.621102 0.937038 0.583895
O O5 0.500000 0.000000 0.500000
O O6 0.559419 0.162487 0.221829
O O7 0.976435 0.749573 0.660749
O O8 0.953913 0.756883 0.836604
O O9 0.791806 0.833613 0.162880
O O10 0.750599 0.892205 0.004441
O O11 0.679588 0.825536 0.372066
#
# Coordination Sequence:
#
# PCOD9565792 Si02
#       7
#     8  16   8  16  16  16   4
#     4   9  24  43  60  92 120 171 213 260 324 360
#     4  10  22  40  65  89 127 164 212 258 308 386
#     4  11  24  41  60  98 114 171 221 254 322 364
#     4  11  26  41  64  87 127 166 218 264 310 374
#     4  11  22  39  59  92 129 169 200 255 323 382
#     4  11  24  37  60  97 130 168 205 250 322 395
#     4  12  20  32  54  88 128 154 188 236 314 388
#
# _framework density 19.192070000000001
#
# number of rings (size 3 to 8) (size 9 to 14) (size 15 to 20)
#    0.000    1.333    1.905    2.286   13.333    0.381 
#    0.000    0.000    0.000    0.000    0.000    5.333 
#    0.000    0.000    0.000    0.000    0.000    0.000 
#
# Total GULP energy -468672.397886 kJ/mol
# GULP energy per Si atom -5579.433308 kJ/mol
# Density = 1.914839 g / cm^3
# Si number density = 19.192070 Si / 1000 Ang^3
#
#
#
# Elastic Constant Matrix: (Units=GPa)
#
#
# Indices 1 2 3 4 5 6 
#
# 1 78.1114 31.2572 -1.1769 0.0000 0.0000 0.0000
# 2 31.2572 78.1114 -1.1769 0.0000 0.0000 0.0000
# 3 -1.1769 -1.1769 73.4238 0.0000 0.0000 0.0000
# 4 0.0000 0.0000 0.0000 19.9652 0.0000 0.0000
# 5 0.0000 0.0000 0.0000 0.0000 19.9652 0.0000
# 6 0.0000 0.0000 0.0000 0.0000 0.0000 -24.6635
#
#
#
# Elastic Compliance Matrix: (Units=1/GPa)
#
#
# Indices 1 2 3 4 5 6 
#
# 1 0.015245 -0.006098 0.000147 0.000000 0.000000 0.000000
# 2 -0.006098 0.015245 0.000147 0.000000 0.000000 0.000000
# 3 0.000147 0.000147 0.013624 0.000000 0.000000 0.000000
# 4 0.000000 0.000000 0.000000 0.050087 0.000000 0.000000
# 5 0.000000 0.000000 0.000000 0.000000 0.050087 0.000000
# 6 0.000000 0.000000 0.000000 0.000000 0.000000 -0.040546
#
#
# Mechanical properties :
#
#
# Convention : Reuss Voigt Hill
#
# Bulk Modulus (GPa) = 30.76565 31.93927 31.35246
# Shear Modulus (GPa) = 39.62391 16.43627 28.03009
#
# Velocity S-wave (km/s) = 4.54871 2.92962 3.82580
# Velocity P-wave (km/s) = 6.60704 5.30298 5.99060
#
# Compressibility (1/GPa) = 0.03250378
#
# Stress axis : x y z
#
# Youngs Moduli (GPa) = 65.59663 65.59663 73.39852
#
# Poissons Ratio (x) = 0.40002 -0.01076
# Poissons Ratio (y) = 0.40002 -0.01076
# Poissons Ratio (z) = -0.00962 -0.00962
#
# Static dielectric constant tensor:
#      x y z
#    x 1.651350 0.000000 0.000000 
#    y 0.000000 1.651350 0.000000 
#    z 0.000000 0.000000 1.727250 
# 
# From -- ./inp_files/2416.got.cif
#   From: 2010.05.17/outbox.cif.g08.bks.cpg/sg130_2_cif.got.tgz:2416.got - 2010.05.20 12:17:35.
