data_PCOD9565711
_publ_section_title
;
Structure prediction by ZEFSAII (Michael W. Deem and Ramdas Pophale) SiO2 
 PCOD9565711
Probable space group: P 4/N C C
;
_chemical_formula_sum "Si O2"
_cell_formula_units_Z 128
_cell_length_a 17.356200
_cell_length_b 17.356200
_cell_length_c 25.484774
_cell_angle_alpha 90.000000
_cell_angle_beta 90.000000
_cell_angle_gamma 90.000000
_cell_volume 7676.974155
_symmetry_space_group_name_H-M "P 4/N C C"
_symmetry_group_IT_number 130
_symmetry_cell_setting 'tetragonal'
loop_
_space_group_symop_operation_xyz
x,y,z
1/2-y,x,z
1/2-x,1/2-y,z
y,1/2-x,z
1/2+x,-y,1/2-z
-x,1/2+y,1/2-z
1/2+y,1/2+x,1/2-z
-y,-x,1/2-z
-x,-y,-z
1/2+y,-x,-z
1/2+x,1/2+y,-z
-y,1/2+x,-z
1/2-x,y,1/2+z
x,1/2-y,1/2+z
1/2-y,1/2-x,1/2+z
y,x,1/2+z
loop_
_atom_site_type_symbol
_atom_site_label
_atom_site_fract_x
_atom_site_fract_y
_atom_site_fract_z
Si Si1 0.161597 0.344296 0.948019
Si Si2 0.329817 0.775946 0.691281
Si Si3 0.150580 0.323697 0.737126
Si Si4 0.099779 0.110296 0.338740
Si Si5 0.938570 0.412519 0.311953
Si Si6 0.334719 0.348863 0.567477
Si Si7 0.384456 0.922826 0.309207
Si Si8 0.951339 0.588699 0.343437
O O1 0.145435 0.253301 0.943109
O O2 0.119656 0.383233 0.899509
O O3 0.143003 0.368805 0.007439
O O4 0.250000 0.750000 0.664617
O O5 0.304770 0.804770 0.750000
O O6 0.376960 0.848844 0.669261
O O7 0.380479 0.697971 0.691566
O O8 0.145978 0.234698 0.721217
O O9 0.143692 0.332185 0.799723
O O10 0.085712 0.372655 0.708323
O O11 0.010195 0.125825 0.327552
O O12 0.119584 0.024283 0.319878
O O13 0.925860 0.425860 0.250000
O O14 0.938352 0.496568 0.338885
O O15 0.241938 0.354279 0.574371
O O16 0.376596 0.403896 0.608374
O O17 0.416762 0.916762 0.250000
O O18 0.457195 0.892869 0.343581
#
# Coordination Sequence:
#
# PCOD9565711 Si02
#       8
#    16  16  16  16  16  16  16  16
#     4   9  19  35  55  80 111 144 182 220 266 332
#     4  10  21  35  53  72 102 154 202 229 265 328
#     4  11  22  29  44  80 114 142 173 208 267 344
#     4  11  20  33  53  79 109 146 176 224 279 332
#     4  10  21  36  50  76 111 144 182 226 281 332
#     4   9  19  37  57  80 111 145 183 222 266 338
#     4  11  21  36  51  78 110 145 190 233 271 329
#     4  11  20  35  53  77 112 148 181 226 288 332
#
# _framework density 16.673237
#
# number of rings (size 3 to 8) (size 9 to 14) (size 15 to 20)
#    0.000    1.750    3.750    3.000    3.500    4.000 
#    0.000    2.500    0.000    0.000    0.000    0.000 
#    0.000    0.000    0.000    0.000    0.000    0.000 
#
# Total GULP energy -713387.362794 kJ/mol
# GULP energy per Si atom -5573.338772 kJ/mol
# Density = 1.663529 g / cm^3
# Si number density = 16.673237 Si / 1000 Ang^3
#
#
#
# Elastic Constant Matrix: (Units=GPa)
#
#
# Indices 1 2 3 4 5 6 
#
# 1 68.4481 49.3663 27.3142 0.0000 0.0000 0.0000
# 2 49.3663 68.4481 27.3142 0.0000 0.0000 0.0000
# 3 27.3142 27.3142 91.8249 0.0000 0.0000 0.0000
# 4 0.0000 0.0000 0.0000 21.5166 0.0000 0.0000
# 5 0.0000 0.0000 0.0000 0.0000 21.5166 0.0000
# 6 0.0000 0.0000 0.0000 0.0000 0.0000 27.4583
#
#
#
# Elastic Compliance Matrix: (Units=1/GPa)
#
#
# Indices 1 2 3 4 5 6 
#
# 1 0.031126 -0.021280 -0.002929 0.000000 0.000000 0.000000
# 2 -0.021280 0.031126 -0.002929 0.000000 0.000000 0.000000
# 3 -0.002929 -0.002929 0.012633 0.000000 0.000000 0.000000
# 4 0.000000 0.000000 0.000000 0.046476 0.000000 0.000000
# 5 0.000000 0.000000 0.000000 0.000000 0.046476 0.000000
# 6 0.000000 0.000000 0.000000 0.000000 0.000000 0.036419
#
#
# Mechanical properties :
#
#
# Convention : Reuss Voigt Hill
#
# Bulk Modulus (GPa) = 48.52134 48.52337 48.52235
# Shear Modulus (GPa) = 18.83950 22.41341 20.62645
#
# Velocity S-wave (km/s) = 3.36508 3.67041 3.52106
# Velocity P-wave (km/s) = 6.65303 6.86501 6.75985
#
# Compressibility (1/GPa) = 0.02060949
#
# Stress axis : x y z
#
# Youngs Moduli (GPa) = 32.12748 32.12748 79.15984
#
# Poissons Ratio (x) = 0.68367 0.23184
# Poissons Ratio (y) = 0.68367 0.23184
# Poissons Ratio (z) = 0.09409 0.09409
#
# Static dielectric constant tensor:
#      x y z
#    x 1.579040 0.000000 0.000000 
#    y 0.000000 1.579040 0.000000 
#    z 0.000000 0.000000 1.559320 
# 
# From -- ./inp_files/4407.got.cif
#   From: 2010.05.17/outbox.cif.g08.bks.cpg/sg130_3_cif.got.tgz:4407.got - 2010.05.20 12:17:35.
