data_PCOD9565552
_publ_section_title
;
Structure prediction by ZEFSAII (Michael W. Deem and Ramdas Pophale) SiO2 
 PCOD9565552
Probable space group: P 4/N C C
;
_chemical_formula_sum "Si O2"
_cell_formula_units_Z 120
_cell_length_a 21.027720
_cell_length_b 21.027720
_cell_length_c 14.032569
_cell_angle_alpha 90.000000
_cell_angle_beta 90.000000
_cell_angle_gamma 90.000000
_cell_volume 6204.710990
_symmetry_space_group_name_H-M "P 4/N C C"
_symmetry_group_IT_number 130
_symmetry_cell_setting 'tetragonal'
loop_
_space_group_symop_operation_xyz
x,y,z
1/2-y,x,z
1/2-x,1/2-y,z
y,1/2-x,z
1/2+x,-y,1/2-z
-x,1/2+y,1/2-z
1/2+y,1/2+x,1/2-z
-y,-x,1/2-z
-x,-y,-z
1/2+y,-x,-z
1/2+x,1/2+y,-z
-y,1/2+x,-z
1/2-x,y,1/2+z
x,1/2-y,1/2+z
1/2-y,1/2-x,1/2+z
y,x,1/2+z
loop_
_atom_site_type_symbol
_atom_site_label
_atom_site_fract_x
_atom_site_fract_y
_atom_site_fract_z
Si Si1 0.963276 0.546134 0.644488
Si Si2 0.037599 0.276020 0.111800
Si Si3 0.119147 0.872062 0.560571
Si Si4 0.356086 0.264749 0.974989
Si Si5 0.570526 0.264400 0.966348
Si Si6 0.074151 0.925850 0.750000
Si Si7 0.494752 0.415733 0.554648
Si Si8 0.961509 0.806019 0.173877
O O1 0.920703 0.496512 0.704320
O O2 0.943740 0.546843 0.532294
O O3 0.957938 0.617374 0.682011
O O4 0.032961 0.512600 0.635737
O O5 0.038670 0.351724 0.089238
O O6 0.034743 0.272021 0.224687
O O7 0.097537 0.239508 0.066375
O O8 0.975370 0.252634 0.055395
O O9 0.102524 0.798676 0.574149
O O10 0.183767 0.880783 0.503832
O O11 0.118455 0.909928 0.660239
O O12 0.061916 0.899403 0.495604
O O13 0.302365 0.318955 0.973648
O O14 0.402647 0.277795 0.886172
O O15 0.524614 0.292892 0.886587
#
# Coordination Sequence:
#
# PCOD9565552 Si02
#       8
#    16  16  16  16  16   8  16  16
#     4  10  18  34  59  96 131 159 197 262 327 390
#     4  10  22  38  60  89 119 160 212 262 320 378
#     4  10  21  41  61  87 127 171 210 260 318 385
#     4  10  23  44  61  83 125 172 219 269 315 380
#     4  10  23  42  62  88 127 168 207 269 320 387
#     4  10  22  34  64  99 126 164 209 268 326 396
#     4   9  18  35  58  90 129 162 196 250 328 379
#     4  11  22  39  63  96 123 167 215 266 326 391
#
# _framework density 19.340143000000001
#
# number of rings (size 3 to 8) (size 9 to 14) (size 15 to 20)
#    0.000    2.000    1.333    1.600    1.867    2.400 
#    4.800    1.333    0.000    0.800    0.000    0.000 
#    0.000    0.000    0.000    0.000    0.000    0.000 
#
# Total GULP energy -669748.935363 kJ/mol
# GULP energy per Si atom -5581.241128 kJ/mol
# Density = 1.929612 g / cm^3
# Si number density = 19.340143 Si / 1000 Ang^3
#
#
#
# Elastic Constant Matrix: (Units=GPa)
#
#
# Indices 1 2 3 4 5 6 
#
# 1 62.0867 23.3491 17.2482 0.0000 0.0000 0.0000
# 2 23.3491 62.0865 17.2486 0.0000 0.0000 0.0000
# 3 17.2482 17.2486 99.7742 0.0000 0.0000 0.0000
# 4 0.0000 0.0000 0.0000 19.2642 0.0000 0.0000
# 5 0.0000 0.0000 0.0000 0.0000 19.2641 0.0000
# 6 0.0000 0.0000 0.0000 0.0000 0.0000 23.0028
#
#
#
# Elastic Compliance Matrix: (Units=1/GPa)
#
#
# Indices 1 2 3 4 5 6 
#
# 1 0.019199 -0.006616 -0.002175 0.000000 0.000000 0.000000
# 2 -0.006616 0.019199 -0.002175 0.000000 0.000000 0.000000
# 3 -0.002175 -0.002175 0.010775 0.000000 0.000000 0.000000
# 4 0.000000 0.000000 0.000000 0.051910 0.000000 0.000000
# 5 0.000000 0.000000 0.000000 0.000000 0.051910 0.000000
# 6 0.000000 0.000000 0.000000 0.000000 0.000000 0.043473
#
#
# Mechanical properties :
#
#
# Convention : Reuss Voigt Hill
#
# Bulk Modulus (GPa) = 36.71119 37.73772 37.22445
# Shear Modulus (GPa) = 21.98014 23.37965 22.67989
#
# Velocity S-wave (km/s) = 3.37486 3.48065 3.42816
# Velocity P-wave (km/s) = 5.84888 5.97563 5.91259
#
# Compressibility (1/GPa) = 0.02723965
#
# Stress axis : x y z
#
# Youngs Moduli (GPa) = 52.08650 52.08617 92.80974
#
# Poissons Ratio (x) = 0.34459 0.20188
# Poissons Ratio (y) = 0.34460 0.20189
# Poissons Ratio (z) = 0.11330 0.11331
#
# Static dielectric constant tensor:
#      x y z
#    x 1.675910 0.000000 0.000000 
#    y 0.000000 1.675910 0.000000 
#    z 0.000000 0.000000 1.686430 
# 
# From -- ./inp_files/2580.got.cif
#   From: 2010.05.17/outbox.cif.g08.bks.cpg/sg130_2_cif.got.tgz:2580.got - 2010.05.20 12:17:35.
