data_PCOD9565426
_publ_section_title
;
Structure prediction by ZEFSAII (Michael W. Deem and Ramdas Pophale) SiO2 
 PCOD9565426
Probable space group: P 4/N M M
;
_chemical_formula_sum "Si O2"
_cell_formula_units_Z 88
_cell_length_a 16.494681
_cell_length_b 16.494681
_cell_length_c 16.639172
_cell_angle_alpha 90.000000
_cell_angle_beta 90.000000
_cell_angle_gamma 90.000000
_cell_volume 4527.094424
_symmetry_space_group_name_H-M "P 4/N M M"
_symmetry_group_IT_number 129
_symmetry_cell_setting 'tetragonal'
loop_
_space_group_symop_operation_xyz
x,y,z
1/2-y,x,z
1/2-x,1/2-y,z
y,1/2-x,z
1/2+x,-y,-z
-x,1/2+y,-z
1/2+y,1/2+x,-z
-y,-x,-z
-x,-y,-z
1/2+y,-x,-z
1/2+x,1/2+y,-z
-y,1/2+x,-z
1/2-x,y,z
x,1/2-y,z
1/2-y,1/2-x,z
y,x,z
loop_
_atom_site_type_symbol
_atom_site_label
_atom_site_fract_x
_atom_site_fract_y
_atom_site_fract_z
Si Si1 0.459003 0.910139 0.630745
Si Si2 0.568618 0.931383 0.173582
Si Si3 0.945006 0.554995 0.905945
Si Si4 0.586527 0.342525 0.763097
Si Si5 0.342331 0.027974 0.528391
Si Si6 0.154431 0.345570 0.962892
Si Si7 0.588642 0.155531 0.082633
O O1 0.404979 0.872726 0.700908
O O2 0.495986 0.852069 0.563101
O O3 0.532585 0.967416 0.661840
O O4 0.397039 0.969043 0.582861
O O5 0.503797 0.879202 0.223538
O O6 0.627835 0.872165 0.125882
O O7 0.514648 0.985353 0.110184
O O8 0.869768 0.498477 0.879484
O O9 0.901388 0.598612 0.981079
O O10 0.585233 0.250000 0.735181
O O11 0.629657 0.347976 0.849443
O O12 0.250000 0.028004 0.553610
O O13 0.384766 0.115235 0.532343
O O14 0.139015 0.250000 0.975848
O O15 0.592285 0.250000 0.064149
O O16 0.606239 0.106239 0.000000
#
# Coordination Sequence:
#
# PCOD9565426 Si02
#       7
#    16   8   8  16  16   8  16
#     4   9  18  35  56  80 112 148 186 218 261 323
#     4  10  20  35  50  74 105 135 176 221 265 313
#     4  10  20  35  56  73  92 130 179 221 265 327
#     4  11  21  34  57  81 106 144 185 222 268 327
#     4   9  18  33  57  86 115 146 180 222 267 318
#     4  11  21  32  50  76 104 132 167 218 280 335
#     4  11  23  38  55  77 107 141 182 234 282 323
#
# _framework density 19.438517000000001
#
# number of rings (size 3 to 8) (size 9 to 14) (size 15 to 20)
#    0.000    1.909    0.909    6.000    0.000    2.182 
#    0.000    0.000    0.000    8.727    0.000    0.000 
#    0.000    0.000    0.000    0.000    0.000    0.000 
#
# Total GULP energy -489953.556798 kJ/mol
# GULP energy per Si atom -5567.654055 kJ/mol
# Density = 1.939427 g / cm^3
# Si number density = 19.438517 Si / 1000 Ang^3
#
#
#
# Elastic Constant Matrix: (Units=GPa)
#
#
# Indices 1 2 3 4 5 6 
#
# 1 42.9193 2.6725 -7.8337 0.0000 0.0000 0.0000
# 2 2.6725 42.9193 -7.8337 0.0000 0.0000 0.0000
# 3 -7.8337 -7.8337 50.3710 0.0000 0.0000 0.0000
# 4 0.0000 0.0000 0.0000 18.8444 0.0000 0.0000
# 5 0.0000 0.0000 0.0000 0.0000 18.8444 0.0000
# 6 0.0000 0.0000 0.0000 0.0000 0.0000 -0.2879
#
#
#
# Elastic Compliance Matrix: (Units=1/GPa)
#
#
# Indices 1 2 3 4 5 6 
#
# 1 0.024009 -0.000837 0.003604 0.000000 0.000000 0.000000
# 2 -0.000837 0.024009 0.003604 0.000000 0.000000 0.000000
# 3 0.003604 0.003604 0.020974 0.000000 0.000000 0.000000
# 4 0.000000 0.000000 0.000000 0.053066 0.000000 0.000000
# 5 0.000000 0.000000 0.000000 0.000000 0.053066 0.000000
# 6 0.000000 0.000000 0.000000 0.000000 0.000000 -3.473709
#
#
# Mechanical properties :
#
#
# Convention : Reuss Voigt Hill
#
# Bulk Modulus (GPa) = 12.23498 12.24665 12.24081
# Shear Modulus (GPa) = -1.52250 17.42712 7.95231
#
# Velocity S-wave (km/s) = -0.88597 2.99745 2.02482
# Velocity P-wave (km/s) = 2.29375 4.27709 3.43182
#
# Compressibility (1/GPa) = 0.08173287
#
# Stress axis : x y z
#
# Youngs Moduli (GPa) = 41.65026 41.65026 47.67896
#
# Poissons Ratio (x) = 0.03487 -0.17182
# Poissons Ratio (y) = 0.03487 -0.17182
# Poissons Ratio (z) = -0.15010 -0.15010
#
# Static dielectric constant tensor:
#      x y z
#    x 1.672460 0.000000 0.000000 
#    y 0.000000 1.672460 0.000000 
#    z 0.000000 0.000000 1.729370 
# 
# From -- ./inp_files/4818.got.cif
#   From: 2010.05.17/outbox.cif.g08.bks.cpg/sg129_3_cif.got.tgz:4818.got - 2010.05.20 12:12:06.
