data_PCOD9565879
_publ_section_title
;
Structure prediction by ZEFSAII (Michael W. Deem and Ramdas Pophale) SiO2 
 PCOD9565879
Probable space group: P 4/N C C
;
_chemical_formula_sum "Si O2"
_cell_formula_units_Z 128
_cell_length_a 20.129072
_cell_length_b 20.129072
_cell_length_c 17.409566
_cell_angle_alpha 90.000000
_cell_angle_beta 90.000000
_cell_angle_gamma 90.000000
_cell_volume 7053.999936
_symmetry_space_group_name_H-M "P 4/N C C"
_symmetry_group_IT_number 130
_symmetry_cell_setting 'tetragonal'
loop_
_space_group_symop_operation_xyz
x,y,z
1/2-y,x,z
1/2-x,1/2-y,z
y,1/2-x,z
1/2+x,-y,1/2-z
-x,1/2+y,1/2-z
1/2+y,1/2+x,1/2-z
-y,-x,1/2-z
-x,-y,-z
1/2+y,-x,-z
1/2+x,1/2+y,-z
-y,1/2+x,-z
1/2-x,y,1/2+z
x,1/2-y,1/2+z
1/2-y,1/2-x,1/2+z
y,x,1/2+z
loop_
_atom_site_type_symbol
_atom_site_label
_atom_site_fract_x
_atom_site_fract_y
_atom_site_fract_z
Si Si1 0.384339 0.030521 0.921526
Si Si2 0.921823 0.667061 0.836041
Si Si3 0.650809 0.796514 0.983294
Si Si4 0.233543 0.057472 0.887140
Si Si5 0.484767 0.605527 0.902592
Si Si6 0.122638 0.984953 0.947946
Si Si7 0.436720 0.314379 0.216639
Si Si8 0.476304 0.922748 0.879458
O O1 0.313444 0.055460 0.890398
O O2 0.446338 0.082456 0.926789
O O3 0.413054 0.970162 0.869224
O O4 0.374055 0.006035 0.010393
O O5 0.901666 0.669835 0.926344
O O6 0.868523 0.621364 0.793021
O O7 0.914806 0.742353 0.811640
O O8 0.995504 0.636474 0.826997
O O9 0.665228 0.719057 0.967724
O O10 0.623989 0.792338 0.069958
O O11 0.199967 0.998329 0.935948
O O12 0.199496 0.048350 0.805041
O O13 0.410638 0.575901 0.901785
O O14 0.504703 0.659308 0.839013
O O15 0.529202 0.540576 0.883461
O O16 0.106211 0.968315 0.035480
#
# Coordination Sequence:
#
# PCOD9565879 Si02
#       8
#    16  16  16  16  16  16  16  16
#     4   9  18  34  57  79 104 135 186 231 265 317
#     4  11  20  38  54  74 106 146 187 224 265 322
#     4  11  22  35  52  71  98 149 196 221 255 315
#     4  12  23  32  51  81 113 142 174 225 277 331
#     4   8  17  36  54  77 100 141 185 230 266 314
#     4   9  17  32  57  78 104 136 182 229 275 310
#     4  11  25  33  50  77 115 148 177 217 268 329
#     4   8  16  33  58  78  94 134 188 236 269 302
#
# _framework density 18.145733
#
# number of rings (size 3 to 8) (size 9 to 14) (size 15 to 20)
#    0.000    2.125    2.500    3.000    5.250    0.750 
#    0.000    0.625    0.000    0.000    0.000    0.875 
#    0.000    2.000    0.000    0.000    0.000    0.000 
#
# Total GULP energy -712802.571124 kJ/mol
# GULP energy per Si atom -5568.770087 kJ/mol
# Density = 1.810443 g / cm^3
# Si number density = 18.145733 Si / 1000 Ang^3
#
#
#
# Elastic Constant Matrix: (Units=GPa)
#
#
# Indices 1 2 3 4 5 6 
#
# 1 45.7853 33.6168 8.7586 0.0000 0.0000 0.0000
# 2 33.6168 45.7853 8.7586 0.0000 0.0000 0.0000
# 3 8.7586 8.7586 44.2381 0.0000 0.0000 0.0000
# 4 0.0000 0.0000 0.0000 13.6096 0.0000 0.0000
# 5 0.0000 0.0000 0.0000 0.0000 13.6096 0.0000
# 6 0.0000 0.0000 0.0000 0.0000 0.0000 24.4695
#
#
#
# Elastic Compliance Matrix: (Units=1/GPa)
#
#
# Indices 1 2 3 4 5 6 
#
# 1 0.047675 -0.034505 -0.002607 0.000000 0.000000 0.000000
# 2 -0.034505 0.047675 -0.002607 0.000000 0.000000 0.000000
# 3 -0.002607 -0.002607 0.023637 0.000000 0.000000 0.000000
# 4 0.000000 0.000000 0.000000 0.073478 0.000000 0.000000
# 5 0.000000 0.000000 0.000000 0.000000 0.073478 0.000000
# 6 0.000000 0.000000 0.000000 0.000000 0.000000 0.040867
#
#
# Mechanical properties :
#
#
# Convention : Reuss Voigt Hill
#
# Bulk Modulus (GPa) = 25.28661 26.45296 25.86979
# Shear Modulus (GPa) = 12.51780 15.98271 14.25026
#
# Velocity S-wave (km/s) = 2.62935 2.97104 2.80540
# Velocity P-wave (km/s) = 4.81492 5.13607 4.97808
#
# Compressibility (1/GPa) = 0.03954662
#
# Stress axis : x y z
#
# Youngs Moduli (GPa) = 20.97554 20.97554 42.30586
#
# Poissons Ratio (x) = 0.72377 0.11031
# Poissons Ratio (y) = 0.72377 0.11031
# Poissons Ratio (z) = 0.05469 0.05469
#
# Static dielectric constant tensor:
#      x y z
#    x 1.659470 0.000000 0.000000 
#    y 0.000000 1.659470 0.000000 
#    z 0.000000 0.000000 1.723650 
# 
# From -- ./inp_files/3295.got.cif
#   From: 2010.05.17/outbox.cif.g08.bks.cpg/sg130_2_cif.got.tgz:3295.got - 2010.05.20 12:17:35.
