data_PCOD9565747
_publ_section_title
;
Structure prediction by ZEFSAII (Michael W. Deem and Ramdas Pophale) SiO2 
 PCOD9565747
Probable space group: P 4/N C C
;
_chemical_formula_sum "Si O2"
_cell_formula_units_Z 88
_cell_length_a 14.442819
_cell_length_b 14.442819
_cell_length_c 20.389371
_cell_angle_alpha 90.000000
_cell_angle_beta 90.000000
_cell_angle_gamma 90.000000
_cell_volume 4253.121265
_symmetry_space_group_name_H-M "P 4/N C C"
_symmetry_group_IT_number 130
_symmetry_cell_setting 'tetragonal'
loop_
_space_group_symop_operation_xyz
x,y,z
1/2-y,x,z
1/2-x,1/2-y,z
y,1/2-x,z
1/2+x,-y,1/2-z
-x,1/2+y,1/2-z
1/2+y,1/2+x,1/2-z
-y,-x,1/2-z
-x,-y,-z
1/2+y,-x,-z
1/2+x,1/2+y,-z
-y,1/2+x,-z
1/2-x,y,1/2+z
x,1/2-y,1/2+z
1/2-y,1/2-x,1/2+z
y,x,1/2+z
loop_
_atom_site_type_symbol
_atom_site_label
_atom_site_fract_x
_atom_site_fract_y
_atom_site_fract_z
Si Si1 0.993342 0.151086 0.601853
Si Si2 0.358541 0.641460 0.750000
Si Si3 0.667846 0.955740 0.835268
Si Si4 0.407934 0.796167 0.653708
Si Si5 0.112377 0.700560 0.016098
Si Si6 0.731187 0.893154 0.207848
O O1 0.897767 0.133109 0.641839
O O2 0.961140 0.141714 0.525956
O O3 0.076314 0.089928 0.632828
O O4 0.021695 0.257786 0.609373
O O5 0.452800 0.642008 0.793218
O O6 0.354135 0.727329 0.701052
O O7 0.732824 0.897750 0.783756
O O8 0.418970 0.742351 0.584872
O O9 0.507056 0.801424 0.687660
O O10 0.143808 0.792257 0.975404
O O11 0.651119 0.825725 0.181859
#
# Coordination Sequence:
#
# PCOD9565747 Si02
#       6
#    16   8  16  16  16  16
#     4  11  24  41  65  95 131 175 224 269 326 397
#     4  10  24  37  64  96 130 163 216 272 334 395
#     4  11  23  39  63  95 128 172 214 267 329 397
#     4  10  23  41  66  97 129 169 222 278 335 397
#     4   9  19  42  66  90 129 175 216 277 345 393
#     4  10  21  40  64  88 129 177 210 264 336 402
#
# _framework density 20.690687
#
# number of rings (size 3 to 8) (size 9 to 14) (size 15 to 20)
#    0.000    1.818    1.818    1.091    5.091    6.182 
#    3.273    2.727    0.000    0.000    0.000    0.000 
#    0.000    0.000    0.000    0.000    0.000    0.000 
#
# Total GULP energy -490222.540415 kJ/mol
# GULP energy per Si atom -5570.710687 kJ/mol
# Density = 2.064359 g / cm^3
# Si number density = 20.690687 Si / 1000 Ang^3
#
#
#
# Elastic Constant Matrix: (Units=GPa)
#
#
# Indices 1 2 3 4 5 6 
#
# 1 129.5923 17.0560 33.5919 0.0000 0.0000 0.0000
# 2 17.0560 129.5925 33.5915 0.0000 0.0000 0.0000
# 3 33.5919 33.5915 50.7319 0.0000 0.0000 0.0000
# 4 0.0000 0.0000 0.0000 10.9829 0.0000 0.0000
# 5 0.0000 0.0000 0.0000 0.0000 10.9830 0.0000
# 6 0.0000 0.0000 0.0000 0.0000 0.0000-1594.9010
#
#
#
# Elastic Compliance Matrix: (Units=1/GPa)
#
#
# Indices 1 2 3 4 5 6 
#
# 1 0.009337 0.000451 -0.006481 0.000000 0.000000 0.000000
# 2 0.000451 0.009337 -0.006481 0.000000 0.000000 0.000000
# 3 -0.006481 -0.006481 0.028294 0.000000 0.000000 0.000000
# 4 0.000000 0.000000 0.000000 0.091050 0.000000 0.000000
# 5 0.000000 0.000000 0.000000 0.000000 0.091050 0.000000
# 6 0.000000 0.000000 0.000000 0.000000 0.000000 -0.000627
#
#
# Mechanical properties :
#
#
# Convention : Reuss Voigt Hill
#
# Bulk Modulus (GPa) = 45.56622 53.15505 49.36063
# Shear Modulus (GPa) = 19.17325 -299.54187 -140.18431
#
# Velocity S-wave (km/s) = 3.04741 -12.04515 -8.24011
# Velocity P-wave (km/s) = 5.86964 12.94996 8.16237
#
# Compressibility (1/GPa) = 0.02194608
#
# Stress axis : x y z
#
# Youngs Moduli (GPa) = 107.09893 107.09977 35.34270
#
# Poissons Ratio (x) = -0.04831 0.22907
# Poissons Ratio (y) = -0.04831 0.22906
# Poissons Ratio (z) = 0.69414 0.69413
#
# Static dielectric constant tensor:
#      x y z
#    x 1.791360 0.000000 0.000000 
#    y 0.000000 1.791360 0.000000 
#    z 0.000000 0.000000 1.810710 
# 
# From -- ./inp_files/3705.got.cif
#   From: 2010.05.17/outbox.cif.g08.bks.cpg/sg130_2_cif.got.tgz:3705.got - 2010.05.20 12:17:35.
