data_PCOD9565548
_publ_section_title
;
Structure prediction by ZEFSAII (Michael W. Deem and Ramdas Pophale) SiO2 
 PCOD9565548
Probable space group: P 4/N C C
;
_chemical_formula_sum "Si O2"
_cell_formula_units_Z 80
_cell_length_a 27.853515
_cell_length_b 27.853515
_cell_length_c 5.442771
_cell_angle_alpha 90.000000
_cell_angle_beta 90.000000
_cell_angle_gamma 90.000000
_cell_volume 4222.601333
_symmetry_space_group_name_H-M "P 4/N C C"
_symmetry_group_IT_number 130
_symmetry_cell_setting 'tetragonal'
loop_
_space_group_symop_operation_xyz
x,y,z
1/2-y,x,z
1/2-x,1/2-y,z
y,1/2-x,z
1/2+x,-y,1/2-z
-x,1/2+y,1/2-z
1/2+y,1/2+x,1/2-z
-y,-x,1/2-z
-x,-y,-z
1/2+y,-x,-z
1/2+x,1/2+y,-z
-y,1/2+x,-z
1/2-x,y,1/2+z
x,1/2-y,1/2+z
1/2-y,1/2-x,1/2+z
y,x,1/2+z
loop_
_atom_site_type_symbol
_atom_site_label
_atom_site_fract_x
_atom_site_fract_y
_atom_site_fract_z
Si Si1 0.974255 0.948534 0.040260
Si Si2 0.344738 0.726197 0.666861
Si Si3 0.304795 0.549771 0.840682
Si Si4 0.851389 0.477917 0.159389
Si Si5 0.264246 0.454911 0.341452
O O1 0.954342 0.937337 0.767458
O O2 0.009714 0.906872 0.128162
O O3 0.000000 0.000000 0.000000
O O4 0.325595 0.674406 0.750000
O O5 0.328094 0.740903 0.395169
O O6 0.402025 0.725734 0.653661
O O7 0.333976 0.548913 0.586344
O O8 0.269452 0.503568 0.843674
O O9 0.337918 0.547223 0.083645
O O10 0.818791 0.526452 0.161281
O O11 0.250466 0.429191 0.592148
#
# Coordination Sequence:
#
# PCOD9565548 Si02
#       5
#    16  16  16  16  16
#     4  10  21  37  49  65 100 141 174 209 237 286
#     4  12  25  42  59  77 105 130 161 204 262 342
#     4  10  19  35  56  81  99 118 157 226 280 312
#     4  10  18  32  55  73  95 132 164 198 267 313
#     4   8  14  25  46  71  92 110 142 197 265 306
#
# _framework density 18.945668000000001
#
# number of rings (size 3 to 8) (size 9 to 14) (size 15 to 20)
#    0.000    2.000    0.000    6.600    0.000    1.200 
#   10.800    0.000    0.000    0.000    0.000    0.000 
#    0.000    0.000    0.000    0.000    0.000    0.000 
#
# Total GULP energy -445954.367790 kJ/mol
# GULP energy per Si atom -5574.429597 kJ/mol
# Density = 1.890255 g / cm^3
# Si number density = 18.945668 Si / 1000 Ang^3
#
#
#
# Elastic Constant Matrix: (Units=GPa)
#
#
# Indices 1 2 3 4 5 6 
#
# 1 -50.2349 103.1152 18.2421 0.0000 0.0000 0.0000
# 2 103.1152 -50.2998 18.2309 0.0000 0.0000 0.0000
# 3 18.2421 18.2309 193.0198 0.0000 0.0000 0.0000
# 4 0.0000 0.0000 0.0000 19.6652 0.0000 0.0000
# 5 0.0000 0.0000 0.0000 0.0000 19.6641 0.0000
# 6 0.0000 0.0000 0.0000 0.0000 0.0000 18.5391
#
#
#
# Elastic Compliance Matrix: (Units=1/GPa)
#
#
# Indices 1 2 3 4 5 6 
#
# 1 0.006865 0.013381 -0.001913 0.000000 0.000000 0.000000
# 2 0.013381 0.006857 -0.001912 0.000000 0.000000 0.000000
# 3 -0.001913 -0.001912 0.005542 0.000000 0.000000 0.000000
# 4 0.000000 0.000000 0.000000 0.050851 0.000000 0.000000
# 5 0.000000 0.000000 0.000000 0.000000 0.050854 0.000000
# 6 0.000000 0.000000 0.000000 0.000000 0.000000 0.053940
#
#
# Mechanical properties :
#
#
# Convention : Reuss Voigt Hill
#
# Bulk Modulus (GPa) = 26.05753 41.29571 33.67662
# Shear Modulus (GPa) = 29.65765 8.43346 19.04556
#
# Velocity S-wave (km/s) = 3.96081 2.11212 3.17404
# Velocity P-wave (km/s) = 5.89076 5.27184 5.58987
#
# Compressibility (1/GPa) = 0.03837663
#
# Stress axis : x y z
#
# Youngs Moduli (GPa) = 145.65777 145.83373 180.43381
#
# Poissons Ratio (x) = -1.95139 0.34511
# Poissons Ratio (y) = -1.94903 0.34504
# Poissons Ratio (z) = 0.27860 0.27887
#
# Static dielectric constant tensor:
#      x y z
#    x 1.657450 0.000000 0.000000 
#    y 0.000000 1.657450 0.000000 
#    z 0.000000 0.000000 1.838690 
# 
# From -- ./inp_files/220.got.cif
#   From: 2010.05.17/outbox.cif.g08.bks.cpg/sg130_1_cif.got.tgz:220.got - 2010.05.20 12:17:35.
