data_PCOD9565106
_publ_section_title
;
Structure prediction by ZEFSAII (Michael W. Deem and Ramdas Pophale) SiO2 
 PCOD9565106
Probable space group: P 4/N M M
;
_chemical_formula_sum "Si O2"
_cell_formula_units_Z 112
_cell_length_a 24.593668
_cell_length_b 24.593668
_cell_length_c 12.781612
_cell_angle_alpha 90.000000
_cell_angle_beta 90.000000
_cell_angle_gamma 90.000000
_cell_volume 7730.938919
_symmetry_space_group_name_H-M "P 4/N M M"
_symmetry_group_IT_number 129
_symmetry_cell_setting 'tetragonal'
loop_
_space_group_symop_operation_xyz
x,y,z
1/2-y,x,z
1/2-x,1/2-y,z
y,1/2-x,z
1/2+x,-y,-z
-x,1/2+y,-z
1/2+y,1/2+x,-z
-y,-x,-z
-x,-y,-z
1/2+y,-x,-z
1/2+x,1/2+y,-z
-y,1/2+x,-z
1/2-x,y,z
x,1/2-y,z
1/2-y,1/2-x,z
y,x,z
loop_
_atom_site_type_symbol
_atom_site_label
_atom_site_fract_x
_atom_site_fract_y
_atom_site_fract_z
Si Si1 0.315707 0.979668 0.966402
Si Si2 0.686521 0.902469 0.710122
Si Si3 0.685471 0.397927 0.211357
Si Si4 0.481415 0.684332 0.634482
Si Si5 0.813620 0.903025 0.961265
Si Si6 0.185374 0.600457 0.542208
Si Si7 0.592996 0.315441 0.165990
O O1 0.250000 0.982589 0.970860
O O2 0.330413 0.949867 0.858932
O O3 0.331560 0.940920 0.063082
O O4 0.333694 0.041556 0.983985
O O5 0.750000 0.892785 0.684281
O O6 0.648826 0.851175 0.686279
O O7 0.684263 0.912465 0.835590
O O8 0.665898 0.957078 0.653541
O O9 0.750000 0.388063 0.195588
O O10 0.676358 0.407051 0.334545
O O11 0.649429 0.347229 0.174176
O O12 0.390858 0.750000 0.474178
O O13 0.451389 0.668534 0.527744
O O14 0.443044 0.669807 0.732404
O O15 0.750000 0.893032 0.987226
O O16 0.852110 0.852110 0.985607
O O17 0.151514 0.651514 0.500000
O O18 0.250000 0.515378 0.363964
O O19 0.600656 0.250000 0.165206
#
# Coordination Sequence:
#
# PCOD9565106 Si02
#       7
#    16  16  16  16  16  16  16
#     4   9  17  30  45  63  89 121 155 182 214 267
#     4   9  16  27  46  72  97 119 145 177 217 267
#     4  10  20  30  43  65  88 116 155 197 236 267
#     4   9  16  28  45  64  86 119 156 181 211 268
#     4   9  16  27  46  71  97 121 143 174 216 264
#     4  10  19  30  44  64  88 116 152 193 235 272
#     4  10  17  28  46  64  86 119 152 187 229 272
#
# _framework density 14.487244
#
# number of rings (size 3 to 8) (size 9 to 14) (size 15 to 20)
#    0.000    2.571    2.857    0.429    0.000    0.714 
#    0.000    2.857    0.000    6.429    0.000    0.000 
#    0.000    0.000    0.000   11.143    0.000    0.286 
#
# Total GULP energy -623550.106200 kJ/mol
# GULP energy per Si atom -5567.411663 kJ/mol
# Density = 1.445427 g / cm^3
# Si number density = 14.487244 Si / 1000 Ang^3
#
#
#
# Elastic Constant Matrix: (Units=GPa)
#
#
# Indices 1 2 3 4 5 6 
#
# 1 82.5258 54.5999 45.1997 0.0000 0.0000 0.0000
# 2 54.5999 82.5258 45.1997 0.0000 0.0000 0.0000
# 3 45.1997 45.1997 78.6588 0.0000 0.0000 0.0000
# 4 0.0000 0.0000 0.0000 13.7349 0.0000 0.0000
# 5 0.0000 0.0000 0.0000 0.0000 13.7349 0.0000
# 6 0.0000 0.0000 0.0000 0.0000 0.0000 -0.5480
#
#
#
# Elastic Compliance Matrix: (Units=1/GPa)
#
#
# Indices 1 2 3 4 5 6 
#
# 1 0.023775 -0.012035 -0.006746 0.000000 0.000000 0.000000
# 2 -0.012035 0.023775 -0.006746 0.000000 0.000000 0.000000
# 3 -0.006746 -0.006746 0.020466 0.000000 0.000000 0.000000
# 4 0.000000 0.000000 0.000000 0.072807 0.000000 0.000000
# 5 0.000000 0.000000 0.000000 0.000000 0.072807 0.000000
# 6 0.000000 0.000000 0.000000 0.000000 0.000000 -1.824845
#
#
# Mechanical properties :
#
#
# Convention : Reuss Voigt Hill
#
# Bulk Modulus (GPa) = 58.95681 59.30100 59.12891
# Shear Modulus (GPa) = -3.21645 11.96508 4.37432
#
# Velocity S-wave (km/s) = -1.49165 2.87697 1.73953
# Velocity P-wave (km/s) = 6.14958 7.21513 6.70356
#
# Compressibility (1/GPa) = 0.01696157
#
# Stress axis : x y z
#
# Youngs Moduli (GPa) = 42.06181 42.06181 48.86110
#
# Poissons Ratio (x) = 0.50620 0.32962
# Poissons Ratio (y) = 0.50620 0.32962
# Poissons Ratio (z) = 0.28375 0.28375
#
# Static dielectric constant tensor:
#      x y z
#    x 1.472170 0.000000 0.000000 
#    y 0.000000 1.472170 0.000000 
#    z 0.000000 0.000000 1.483440 
# 
# From -- ./inp_files/4060.got.cif
#   From: 2010.05.17/outbox.cif.g08.bks.cpg/sg129_3_cif.got.tgz:4060.got - 2010.05.20 12:12:06.
