data_PCOD9565455
_publ_section_title
;
Structure prediction by ZEFSAII (Michael W. Deem and Ramdas Pophale) SiO2 
 PCOD9565455
Probable space group: P 4/N M M
;
_chemical_formula_sum "Si O2"
_cell_formula_units_Z 96
_cell_length_a 22.122629
_cell_length_b 22.122629
_cell_length_c 12.814689
_cell_angle_alpha 90.000000
_cell_angle_beta 90.000000
_cell_angle_gamma 90.000000
_cell_volume 6271.646092
_symmetry_space_group_name_H-M "P 4/N M M"
_symmetry_group_IT_number 129
_symmetry_cell_setting 'tetragonal'
loop_
_space_group_symop_operation_xyz
x,y,z
1/2-y,x,z
1/2-x,1/2-y,z
y,1/2-x,z
1/2+x,-y,-z
-x,1/2+y,-z
1/2+y,1/2+x,-z
-y,-x,-z
-x,-y,-z
1/2+y,-x,-z
1/2+x,1/2+y,-z
-y,1/2+x,-z
1/2-x,y,z
x,1/2-y,z
1/2-y,1/2-x,z
y,x,z
loop_
_atom_site_type_symbol
_atom_site_label
_atom_site_fract_x
_atom_site_fract_y
_atom_site_fract_z
Si Si1 0.908349 0.322430 0.060867
Si Si2 0.583194 0.818997 0.229781
Si Si3 0.083772 0.907574 0.754846
Si Si4 0.029128 0.681165 0.386396
Si Si5 0.907411 0.497687 0.562182
Si Si6 0.507527 0.604778 0.070394
O O1 0.912531 0.250000 0.051720
O O2 0.905622 0.347078 0.178977
O O3 0.850384 0.350384 0.000000
O O4 0.965738 0.357684 0.009176
O O5 0.600077 0.750000 0.211337
O O6 0.639492 0.860509 0.258141
O O7 0.532578 0.821469 0.319591
O O8 0.551294 0.848192 0.128853
O O9 0.139171 0.924325 0.677715
O O10 0.025881 0.904696 0.680146
O O11 0.080132 0.961786 0.839882
O O12 0.049970 0.750000 0.391482
O O13 0.013761 0.653686 0.498961
O O14 0.954940 0.454940 0.500000
O O15 0.935464 0.564537 0.555996
O O16 0.549891 0.549891 0.030396
#
# Coordination Sequence:
#
# PCOD9565455 Si02
#       6
#    16  16  16  16  16  16
#     4  10  21  34  48  67  92 122 157 194 230 271
#     4   9  16  26  41  61  86 115 145 177 214 259
#     4   9  18  29  45  67  90 114 144 183 223 265
#     4   9  17  29  44  62  85 115 147 178 216 260
#     4   9  16  27  44  66  89 111 137 173 219 270
#     4   9  17  30  48  68  90 116 146 183 230 279
#
# _framework density 15.306986
#
# number of rings (size 3 to 8) (size 9 to 14) (size 15 to 20)
#    0.000    2.833    0.000    1.500    0.000   12.667 
#    0.000    0.000    0.000    0.000    0.000    0.000 
#    0.000    0.000    0.000    1.333    0.000    0.333 
#
# Total GULP energy -534458.439571 kJ/mol
# GULP energy per Si atom -5567.275412 kJ/mol
# Density = 1.527215 g / cm^3
# Si number density = 15.306986 Si / 1000 Ang^3
#
#
#
# Elastic Constant Matrix: (Units=GPa)
#
#
# Indices 1 2 3 4 5 6 
#
# 1 66.0996 43.6224 29.9602 0.0000 0.0000 0.0000
# 2 43.6224 66.0996 29.9602 0.0000 0.0000 0.0000
# 3 29.9602 29.9602 68.0396 0.0000 0.0000 0.0000
# 4 0.0000 0.0000 0.0000 12.6850 0.0000 0.0000
# 5 0.0000 0.0000 0.0000 0.0000 12.6850 0.0000
# 6 0.0000 0.0000 0.0000 0.0000 0.0000 12.9248
#
#
#
# Elastic Compliance Matrix: (Units=1/GPa)
#
#
# Indices 1 2 3 4 5 6 
#
# 1 0.028245 -0.016245 -0.005284 0.000000 0.000000 0.000000
# 2 -0.016245 0.028245 -0.005284 0.000000 0.000000 0.000000
# 3 -0.005284 -0.005284 0.019351 0.000000 0.000000 0.000000
# 4 0.000000 0.000000 0.000000 0.078833 0.000000 0.000000
# 5 0.000000 0.000000 0.000000 0.000000 0.078833 0.000000
# 6 0.000000 0.000000 0.000000 0.000000 0.000000 0.077371
#
#
# Mechanical properties :
#
#
# Convention : Reuss Voigt Hill
#
# Bulk Modulus (GPa) = 45.01584 45.25827 45.13706
# Shear Modulus (GPa) = 13.44423 14.10536 13.77480
#
# Velocity S-wave (km/s) = 2.96684 3.03891 3.00309
# Velocity P-wave (km/s) = 6.41940 6.47646 6.44800
#
# Compressibility (1/GPa) = 0.02221440
#
# Stress axis : x y z
#
# Youngs Moduli (GPa) = 35.40508 35.40508 51.67798
#
# Poissons Ratio (x) = 0.57516 0.27306
# Poissons Ratio (y) = 0.57516 0.27306
# Poissons Ratio (z) = 0.18707 0.18707
#
# Static dielectric constant tensor:
#      x y z
#    x 1.509320 0.000000 0.000000 
#    y 0.000000 1.509320 0.000000 
#    z 0.000000 0.000000 1.518570 
# 
# From -- ./inp_files/3879.got.cif
#   From: 2010.05.17/outbox.cif.g08.bks.cpg/sg129_2_cif.got.tgz:3879.got - 2010.05.20 12:12:06.
