data_PCOD9565625
_publ_section_title
;
Structure prediction by ZEFSAII (Michael W. Deem and Ramdas Pophale) SiO2 
 PCOD9565625
Probable space group: P 4/N C C
;
_chemical_formula_sum "Si O2"
_cell_formula_units_Z 88
_cell_length_a 10.826475
_cell_length_b 10.826475
_cell_length_c 33.183783
_cell_angle_alpha 90.000000
_cell_angle_beta 90.000000
_cell_angle_gamma 90.000000
_cell_volume 3889.556187
_symmetry_space_group_name_H-M "P 4/N C C"
_symmetry_group_IT_number 130
_symmetry_cell_setting 'tetragonal'
loop_
_space_group_symop_operation_xyz
x,y,z
1/2-y,x,z
1/2-x,1/2-y,z
y,1/2-x,z
1/2+x,-y,1/2-z
-x,1/2+y,1/2-z
1/2+y,1/2+x,1/2-z
-y,-x,1/2-z
-x,-y,-z
1/2+y,-x,-z
1/2+x,1/2+y,-z
-y,1/2+x,-z
1/2-x,y,1/2+z
x,1/2-y,1/2+z
1/2-y,1/2-x,1/2+z
y,x,1/2+z
loop_
_atom_site_type_symbol
_atom_site_label
_atom_site_fract_x
_atom_site_fract_y
_atom_site_fract_z
Si Si1 0.834954 0.560734 0.320912
Si Si2 0.834954 0.560734 0.679088
Si Si3 0.500000 0.500000 0.389281
Si Si4 0.000000 0.500000 0.750000
Si Si5 0.171578 0.943181 0.544537
Si Si6 0.556819 0.328422 0.955463
O O1 0.907668 0.691842 0.322127
O O2 0.884050 0.485801 0.359325
O O3 0.882372 0.500932 0.279601
O O4 0.907668 0.691842 0.677873
O O5 0.884050 0.485801 0.640675
O O6 0.882372 0.500932 0.720399
O O7 0.616850 0.519277 0.418615
O O8 0.383151 0.480723 0.418615
O O9 0.095708 0.813962 0.546907
O O10 0.313962 0.904292 0.546907
O O11 0.150310 0.998325 0.500000
#
# Coordination Sequence:
#
# PCOD9565625 Si02
#       6
#    16  16  16   8  16  16
#     4  10  21  36  54  77 104 131 161 202 252 303
#     4  10  21  36  54  77 104 131 161 202 252 303
#     4  11  19  31  53  78 102 132 173 211 249 295
#     4  10  20  34  58  74  90 126 166 194 232 300
#     4   9  18  32  49  71 102 139 176 213 252 293
#     4   9  18  32  49  71 102 139 176 213 252 293
#
# _framework density 22.624687999999999
#
# number of rings (size 3 to 8) (size 9 to 14) (size 15 to 20)
#    0.000    2.182    0.000    4.909    0.000    1.455 
#    0.000    0.000    0.000   41.455    0.000   15.273 
#    0.000    0.000    0.000    0.000    0.000    0.000 
#
# Total GULP energy -491695.567824 kJ/mol
# GULP energy per Si atom -5587.449634 kJ/mol
# Density = 2.257319 g / cm^3
# Si number density = 22.624688 Si / 1000 Ang^3
#
#
#
# Elastic Constant Matrix: (Units=GPa)
#
#
# Indices 1 2 3 4 5 6 
#
# 1 39.6028 0.6711 17.6114 0.0000 0.0000 0.0000
# 2 0.6711 39.6028 17.6114 0.0000 0.0000 0.0000
# 3 17.6114 17.6114 169.3836 0.0000 0.0000 0.0000
# 4 0.0000 0.0000 0.0000 22.6173 0.0000 0.0000
# 5 0.0000 0.0000 0.0000 0.0000 22.6173 0.0000
# 6 0.0000 0.0000 0.0000 0.0000 0.0000 31.7821
#
#
#
# Elastic Compliance Matrix: (Units=1/GPa)
#
#
# Indices 1 2 3 4 5 6 
#
# 1 0.026500 0.000814 -0.002840 0.000000 0.000000 0.000000
# 2 0.000814 0.026500 -0.002840 0.000000 0.000000 0.000000
# 3 -0.002840 -0.002840 0.006494 0.000000 0.000000 0.000000
# 4 0.000000 0.000000 0.000000 0.044214 0.000000 0.000000
# 5 0.000000 0.000000 0.000000 0.000000 0.044214 0.000000
# 6 0.000000 0.000000 0.000000 0.000000 0.000000 0.031464
#
#
# Mechanical properties :
#
#
# Convention : Reuss Voigt Hill
#
# Bulk Modulus (GPa) = 20.09564 35.59745 27.84654
# Shear Modulus (GPa) = 24.30660 29.58302 26.94481
#
# Velocity S-wave (km/s) = 3.28127 3.61994 3.45475
# Velocity P-wave (km/s) = 4.82256 5.76541 5.31493
#
# Compressibility (1/GPa) = 0.04976204
#
# Stress axis : x y z
#
# Youngs Moduli (GPa) = 37.73609 37.73609 153.98104
#
# Poissons Ratio (x) = -0.03071 0.43729
# Poissons Ratio (y) = -0.03071 0.43729
# Poissons Ratio (z) = 0.10717 0.10717
#
# Static dielectric constant tensor:
#      x y z
#    x 1.844360 0.000000 0.000000 
#    y 0.000000 1.844360 0.000000 
#    z 0.000000 0.000000 1.861310 
# 
# From -- ./inp_files/4838.got.cif
#   From: 2010.05.17/outbox.cif.g08.bks.cpg/sg130_3_cif.got.tgz:4838.got - 2010.05.20 12:17:35.
