data_PCOD9565585
_publ_section_title
;
Structure prediction by ZEFSAII (Michael W. Deem and Ramdas Pophale) SiO2 
 PCOD9565585
Probable space group: P 4/N C C
;
_chemical_formula_sum "Si O2"
_cell_formula_units_Z 96
_cell_length_a 20.379873
_cell_length_b 20.379873
_cell_length_c 11.771300
_cell_angle_alpha 90.000000
_cell_angle_beta 90.000000
_cell_angle_gamma 90.000000
_cell_volume 4889.082602
_symmetry_space_group_name_H-M "P 4/N C C"
_symmetry_group_IT_number 130
_symmetry_cell_setting 'tetragonal'
loop_
_space_group_symop_operation_xyz
x,y,z
1/2-y,x,z
1/2-x,1/2-y,z
y,1/2-x,z
1/2+x,-y,1/2-z
-x,1/2+y,1/2-z
1/2+y,1/2+x,1/2-z
-y,-x,1/2-z
-x,-y,-z
1/2+y,-x,-z
1/2+x,1/2+y,-z
-y,1/2+x,-z
1/2-x,y,1/2+z
x,1/2-y,1/2+z
1/2-y,1/2-x,1/2+z
y,x,1/2+z
loop_
_atom_site_type_symbol
_atom_site_label
_atom_site_fract_x
_atom_site_fract_y
_atom_site_fract_z
Si Si1 0.467682 0.074341 0.262084
Si Si2 0.336138 0.933988 0.410480
Si Si3 0.510947 0.296905 0.638289
Si Si4 0.168597 0.027482 0.697628
Si Si5 0.456736 0.871157 0.530311
Si Si6 0.776024 0.127829 0.696889
O O1 0.500406 0.129066 0.181069
O O2 0.391397 0.075369 0.227328
O O3 0.489255 0.096205 0.387927
O O4 0.503747 0.003747 0.250000
O O5 0.298468 0.978073 0.503794
O O6 0.404727 0.917402 0.467132
O O7 0.292179 0.871434 0.372093
O O8 0.342806 0.974595 0.296376
O O9 0.457272 0.246633 0.691076
O O10 0.578675 0.272534 0.695677
O O11 0.159564 0.996242 0.573706
O O12 0.410387 0.825552 0.610263
O O13 0.807148 0.192853 0.750000
#
# Coordination Sequence:
#
# PCOD9565585 Si02
#       6
#    16  16  16  16  16  16
#     4  11  22  38  63  89 128 162 203 271 332 388
#     4  11  20  35  59  82 120 160 205 258 313 387
#     4  10  20  39  58  84 118 161 205 251 321 391
#     4  11  25  35  56  94 117 159 207 258 326 392
#     4  11  20  37  57  87 120 157 204 263 320 380
#     4  10  19  35  59  78 110 161 204 252 315 371
#
# _framework density 19.635586
#
# number of rings (size 3 to 8) (size 9 to 14) (size 15 to 20)
#    0.000    1.333    5.000    2.500    2.333    1.333 
#    0.000    0.000    0.000   20.000    0.000    0.000 
#    0.000    0.000    0.000    0.000    0.000    0.000 
#
# Total GULP energy -534679.153033 kJ/mol
# GULP energy per Si atom -5569.574511 kJ/mol
# Density = 1.959089 g / cm^3
# Si number density = 19.635586 Si / 1000 Ang^3
#
#
#
# Elastic Constant Matrix: (Units=GPa)
#
#
# Indices 1 2 3 4 5 6 
#
# 1 46.4681 11.7626 6.8123 0.0000 0.0000 0.0000
# 2 11.7626 46.4673 6.8118 0.0000 0.0000 0.0000
# 3 6.8123 6.8118 107.6539 0.0000 0.0000 0.0000
# 4 0.0000 0.0000 0.0000 7.7599 0.0000 0.0000
# 5 0.0000 0.0000 0.0000 0.0000 7.7605 0.0000
# 6 0.0000 0.0000 0.0000 0.0000 0.0000 17.3459
#
#
#
# Elastic Compliance Matrix: (Units=1/GPa)
#
#
# Indices 1 2 3 4 5 6 
#
# 1 0.023123 -0.005691 -0.001103 0.000000 0.000000 0.000000
# 2 -0.005691 0.023123 -0.001103 0.000000 0.000000 0.000000
# 3 -0.001103 -0.001103 0.009429 0.000000 0.000000 0.000000
# 4 0.000000 0.000000 0.000000 0.128868 0.000000 0.000000
# 5 0.000000 0.000000 0.000000 0.000000 0.128857 0.000000
# 6 0.000000 0.000000 0.000000 0.000000 0.000000 0.057651
#
#
# Mechanical properties :
#
#
# Convention : Reuss Voigt Hill
#
# Bulk Modulus (GPa) = 25.07579 27.92920 26.50249
# Shear Modulus (GPa) = 12.49569 18.25343 15.37456
#
# Velocity S-wave (km/s) = 2.52539 3.05226 2.80124
# Velocity P-wave (km/s) = 4.61539 5.16492 4.89786
#
# Compressibility (1/GPa) = 0.03987911
#
# Stress axis : x y z
#
# Youngs Moduli (GPa) = 43.24785 43.24711 106.06014
#
# Poissons Ratio (x) = 0.24614 0.11699
# Poissons Ratio (y) = 0.24614 0.11698
# Poissons Ratio (z) = 0.04771 0.04770
#
# Static dielectric constant tensor:
#      x y z
#    x 1.789950 0.000000 0.000000 
#    y 0.000000 1.789950 0.000000 
#    z 0.000000 0.000000 1.707930 
# 
# From -- ./inp_files/1766.got.cif
#   From: 2010.05.17/outbox.cif.g08.bks.cpg/sg130_1_cif.got.tgz:1766.got - 2010.05.20 12:17:35.
