data_PCOD9565491
_publ_section_title
;
Structure prediction by ZEFSAII (Michael W. Deem and Ramdas Pophale) SiO2 
 PCOD9565491
Probable space group: P 4/N M M
;
_chemical_formula_sum "Si O2"
_cell_formula_units_Z 96
_cell_length_a 22.198547
_cell_length_b 22.198547
_cell_length_c 12.612900
_cell_angle_alpha 90.000000
_cell_angle_beta 90.000000
_cell_angle_gamma 90.000000
_cell_volume 6215.327964
_symmetry_space_group_name_H-M "P 4/N M M"
_symmetry_group_IT_number 129
_symmetry_cell_setting 'tetragonal'
loop_
_space_group_symop_operation_xyz
x,y,z
1/2-y,x,z
1/2-x,1/2-y,z
y,1/2-x,z
1/2+x,-y,-z
-x,1/2+y,-z
1/2+y,1/2+x,-z
-y,-x,-z
-x,-y,-z
1/2+y,-x,-z
1/2+x,1/2+y,-z
-y,1/2+x,-z
1/2-x,y,z
x,1/2-y,z
1/2-y,1/2-x,z
y,x,z
loop_
_atom_site_type_symbol
_atom_site_label
_atom_site_fract_x
_atom_site_fract_y
_atom_site_fract_z
Si Si1 0.011572 0.681243 0.325117
Si Si2 0.180888 0.948949 0.302651
Si Si3 0.103094 0.005474 0.877905
Si Si4 0.153698 0.681906 0.376624
Si Si5 0.098563 0.496457 0.484614
Si Si6 0.902404 0.499536 0.876474
O O1 0.989531 0.750000 0.333872
O O2 0.005042 0.655427 0.206631
O O3 0.081836 0.681464 0.359415
O O4 0.982828 0.633788 0.406815
O O5 0.250000 0.965571 0.309485
O O6 0.176387 0.875988 0.310970
O O7 0.145042 0.976727 0.401287
O O8 0.149938 0.978209 0.200534
O O9 0.053441 0.952420 0.867883
O O10 0.067191 0.067191 0.855034
O O11 0.119475 0.005090 0.002144
O O12 0.170010 0.670010 0.500000
O O13 0.174731 0.750000 0.348872
O O14 0.048645 0.548645 0.500000
O O15 0.061917 0.438084 0.446904
O O16 0.939190 0.560811 0.849327
#
# Coordination Sequence:
#
# PCOD9565491 Si02
#       6
#    16  16  16  16  16  16
#     4  11  19  30  48  72 101 126 159 201 241 286
#     4  12  21  32  48  71 101 129 168 208 239 282
#     4   9  17  32  53  71  93 125 162 199 243 302
#     4  11  21  33  46  64  97 137 173 207 233 269
#     4  11  20  32  50  70  95 127 162 202 254 302
#     4   9  18  33  51  71  95 126 162 200 249 300
#
# _framework density 15.445684999999999
#
# number of rings (size 3 to 8) (size 9 to 14) (size 15 to 20)
#    0.000    1.500    5.000    3.000    0.000    4.500 
#    0.000    0.000    0.000    0.000    0.000    0.000 
#    0.000   27.333    0.000   14.667    0.000    0.000 
#
# Total GULP energy -535243.234032 kJ/mol
# GULP energy per Si atom -5575.450354 kJ/mol
# Density = 1.541053 g / cm^3
# Si number density = 15.445685 Si / 1000 Ang^3
#
#
#
# Elastic Constant Matrix: (Units=GPa)
#
#
# Indices 1 2 3 4 5 6 
#
# 1 78.2204 49.2742 44.8499 0.0000 0.0000 0.0000
# 2 49.2742 78.2204 44.8499 0.0000 0.0000 0.0000
# 3 44.8499 44.8499 71.1586 0.0000 0.0000 0.0000
# 4 0.0000 0.0000 0.0000 2.4888 0.0000 0.0000
# 5 0.0000 0.0000 0.0000 0.0000 2.4888 0.0000
# 6 0.0000 0.0000 0.0000 0.0000 0.0000 12.1310
#
#
#
# Elastic Compliance Matrix: (Units=1/GPa)
#
#
# Indices 1 2 3 4 5 6 
#
# 1 0.024320 -0.010227 -0.008882 0.000000 0.000000 0.000000
# 2 -0.010227 0.024320 -0.008882 0.000000 0.000000 0.000000
# 3 -0.008882 -0.008882 0.025250 0.000000 0.000000 0.000000
# 4 0.000000 0.000000 0.000000 0.401803 0.000000 0.000000
# 5 0.000000 0.000000 0.000000 0.000000 0.401803 0.000000
# 6 0.000000 0.000000 0.000000 0.000000 0.000000 0.082434
#
#
# Mechanical properties :
#
#
# Convention : Reuss Voigt Hill
#
# Bulk Modulus (GPa) = 55.84766 56.17193 56.00979
# Shear Modulus (GPa) = 4.89293 9.33007 7.11150
#
# Velocity S-wave (km/s) = 1.78177 2.46042 2.14807
# Velocity P-wave (km/s) = 6.36152 6.67217 6.51870
#
# Compressibility (1/GPa) = 0.01790585
#
# Stress axis : x y z
#
# Youngs Moduli (GPa) = 41.11880 41.11880 39.60414
#
# Poissons Ratio (x) = 0.42052 0.35178
# Poissons Ratio (y) = 0.42052 0.35178
# Poissons Ratio (z) = 0.36523 0.36523
#
# Static dielectric constant tensor:
#      x y z
#    x 1.500460 0.000000 0.000000 
#    y 0.000000 1.500460 0.000000 
#    z 0.000000 0.000000 1.532170 
# 
# From -- ./inp_files/3871.got.cif
#   From: 2010.05.17/outbox.cif.g08.bks.cpg/sg129_2_cif.got.tgz:3871.got - 2010.05.20 12:12:06.
