data_PCOD9565152
_publ_section_title
;
Structure prediction by ZEFSAII (Michael W. Deem and Ramdas Pophale) SiO2 
 PCOD9565152
Probable space group: P 4/N M M
;
_chemical_formula_sum "Si O2"
_cell_formula_units_Z 112
_cell_length_a 25.218658
_cell_length_b 25.218658
_cell_length_c 11.018356
_cell_angle_alpha 90.000000
_cell_angle_beta 90.000000
_cell_angle_gamma 90.000000
_cell_volume 7007.461886
_symmetry_space_group_name_H-M "P 4/N M M"
_symmetry_group_IT_number 129
_symmetry_cell_setting 'tetragonal'
loop_
_space_group_symop_operation_xyz
x,y,z
1/2-y,x,z
1/2-x,1/2-y,z
y,1/2-x,z
1/2+x,-y,-z
-x,1/2+y,-z
1/2+y,1/2+x,-z
-y,-x,-z
-x,-y,-z
1/2+y,-x,-z
1/2+x,1/2+y,-z
-y,1/2+x,-z
1/2-x,y,z
x,1/2-y,z
1/2-y,1/2-x,z
y,x,z
loop_
_atom_site_type_symbol
_atom_site_label
_atom_site_fract_x
_atom_site_fract_y
_atom_site_fract_z
Si Si1 0.894834 0.981832 0.536902
Si Si2 0.898105 0.688539 0.621478
Si Si3 0.502800 0.691889 0.102469
Si Si4 0.911012 0.999018 0.255623
Si Si5 0.043812 0.612399 0.774609
Si Si6 0.151166 0.435422 0.117409
Si Si7 0.687781 0.104883 0.947629
O O1 0.946663 0.946663 0.575088
O O2 0.845513 0.941201 0.546092
O O3 0.904665 0.001124 0.401122
O O4 0.884385 0.028194 0.633007
O O5 0.895832 0.750000 0.589049
O O6 0.842614 0.657387 0.609029
O O7 0.916622 0.681943 0.762037
O O8 0.506020 0.750000 0.158617
O O9 0.513221 0.644867 0.194787
O O10 0.544496 0.686845 0.992281
O O11 0.444336 0.685677 0.042623
O O12 0.953834 0.953834 0.227762
O O13 0.930991 0.055131 0.205390
O O14 0.081827 0.657849 0.828476
O O15 0.987484 0.618133 0.842430
O O16 0.111034 0.388967 0.081754
O O17 0.750000 0.116688 0.926499
O O18 0.654045 0.154045 0.000000
#
# Coordination Sequence:
#
# PCOD9565152 Si02
#       7
#    16  16  16  16  16  16  16
#     4   9  19  32  47  70 101 135 165 195 242 303
#     4   9  17  30  47  67  92 123 164 208 248 294
#     4  10  20  32  46  68 102 135 165 205 246 293
#     4  11  20  31  50  74 102 135 167 204 251 302
#     4  10  18  31  50  75 101 128 157 201 249 297
#     4   9  17  29  47  70  96 127 160 199 250 303
#     4  10  20  36  53  74 100 128 167 207 249 294
#
# _framework density 15.982962000000001
#
# number of rings (size 3 to 8) (size 9 to 14) (size 15 to 20)
#    0.000    2.286    1.429    3.429    0.000    5.429 
#    0.000    2.143    0.000    0.000    0.000    0.000 
#    0.000    2.571    0.000    0.571    0.000    0.000 
#
# Total GULP energy -624425.078705 kJ/mol
# GULP energy per Si atom -5575.223917 kJ/mol
# Density = 1.594658 g / cm^3
# Si number density = 15.982962 Si / 1000 Ang^3
#
#
#
# Elastic Constant Matrix: (Units=GPa)
#
#
# Indices 1 2 3 4 5 6 
#
# 1 92.5574 43.1907 22.6145 0.0000 0.0000 0.0000
# 2 43.1907 92.5574 22.6145 0.0000 0.0000 0.0000
# 3 22.6145 22.6145 37.2797 0.0000 0.0000 0.0000
# 4 0.0000 0.0000 0.0000 12.0887 0.0000 0.0000
# 5 0.0000 0.0000 0.0000 0.0000 12.0887 0.0000
# 6 0.0000 0.0000 0.0000 0.0000 0.0000 11.6017
#
#
#
# Elastic Compliance Matrix: (Units=1/GPa)
#
#
# Indices 1 2 3 4 5 6 
#
# 1 0.014745 -0.005512 -0.005601 0.000000 0.000000 0.000000
# 2 -0.005512 0.014745 -0.005601 0.000000 0.000000 0.000000
# 3 -0.005601 -0.005601 0.033619 0.000000 0.000000 0.000000
# 4 0.000000 0.000000 0.000000 0.082722 0.000000 0.000000
# 5 0.000000 0.000000 0.000000 0.000000 0.082722 0.000000
# 6 0.000000 0.000000 0.000000 0.000000 0.000000 0.086194
#
#
# Mechanical properties :
#
#
# Convention : Reuss Voigt Hill
#
# Bulk Modulus (GPa) = 33.69072 44.35933 39.02503
# Shear Modulus (GPa) = 13.96386 16.08747 15.02567
#
# Velocity S-wave (km/s) = 2.95900 3.17604 3.06944
# Velocity P-wave (km/s) = 5.72705 6.42371 6.08536
#
# Compressibility (1/GPa) = 0.02968176
#
# Stress axis : x y z
#
# Youngs Moduli (GPa) = 67.82144 67.82144 29.74489
#
# Poissons Ratio (x) = 0.37383 0.16659
# Poissons Ratio (y) = 0.37383 0.16659
# Poissons Ratio (z) = 0.37985 0.37985
#
# Static dielectric constant tensor:
#      x y z
#    x 1.530510 0.000000 0.000000 
#    y 0.000000 1.530510 0.000000 
#    z 0.000000 0.000000 1.541710 
# 
# From -- ./inp_files/4070.got.cif
#   From: 2010.05.17/outbox.cif.g08.bks.cpg/sg129_3_cif.got.tgz:4070.got - 2010.05.20 12:12:06.
