data_PCOD9565473
_publ_section_title
;
Structure prediction by ZEFSAII (Michael W. Deem and Ramdas Pophale) SiO2 
 PCOD9565473
Probable space group: P 4/N M M
;
_chemical_formula_sum "Si O2"
_cell_formula_units_Z 96
_cell_length_a 20.849246
_cell_length_b 20.849246
_cell_length_c 12.225253
_cell_angle_alpha 90.000000
_cell_angle_beta 90.000000
_cell_angle_gamma 90.000000
_cell_volume 5314.208170
_symmetry_space_group_name_H-M "P 4/N M M"
_symmetry_group_IT_number 129
_symmetry_cell_setting 'tetragonal'
loop_
_space_group_symop_operation_xyz
x,y,z
1/2-y,x,z
1/2-x,1/2-y,z
y,1/2-x,z
1/2+x,-y,-z
-x,1/2+y,-z
1/2+y,1/2+x,-z
-y,-x,-z
-x,-y,-z
1/2+y,-x,-z
1/2+x,1/2+y,-z
-y,1/2+x,-z
1/2-x,y,z
x,1/2-y,z
1/2-y,1/2-x,z
y,x,z
loop_
_atom_site_type_symbol
_atom_site_label
_atom_site_fract_x
_atom_site_fract_y
_atom_site_fract_z
Si Si1 0.931817 0.676654 0.385505
Si Si2 0.826288 0.176720 0.369377
Si Si3 0.507562 0.399212 0.437513
Si Si4 0.821309 0.425065 0.986731
Si Si5 0.592452 0.011579 0.804844
Si Si6 0.354012 0.547268 0.772028
O O1 0.909993 0.750000 0.394234
O O2 0.873646 0.626355 0.370685
O O3 0.972649 0.653717 0.490532
O O4 0.985863 0.670130 0.292560
O O5 0.835818 0.164183 0.500000
O O6 0.750000 0.180722 0.354693
O O7 0.851853 0.250000 0.345621
O O8 0.845292 0.115044 0.294441
O O9 0.568222 0.431778 0.500000
O O10 0.458597 0.458597 0.425954
O O11 0.514956 0.374258 0.314243
O O12 0.750000 0.417264 0.944459
O O13 0.861957 0.469078 0.904337
O O14 0.857854 0.357854 0.000000
O O15 0.821698 0.450701 0.110015
O O16 0.541928 0.069923 0.793430
O O17 0.554461 0.945540 0.821487
#
# Coordination Sequence:
#
# PCOD9565473 Si02
#       6
#    16  16  16  16  16  16
#     4  11  23  37  57  84 114 153 195 239 294 348
#     4   9  19  34  51  78 117 155 190 230 278 334
#     4   9  17  34  58  84 112 138 173 226 289 348
#     4  10  23  39  55  79 112 150 193 232 275 333
#     4  10  21  37  59  83 110 143 182 233 286 336
#     4  11  21  35  56  82 112 147 190 237 288 342
#
# _framework density 18.064779000000001
#
# number of rings (size 3 to 8) (size 9 to 14) (size 15 to 20)
#    0.000    2.000    1.667    2.500    2.333    7.333 
#    0.000    0.000    0.000    0.000    0.000    0.000 
#    0.000    0.333    0.000    0.333    0.000    0.000 
#
# Total GULP energy -534939.550147 kJ/mol
# GULP energy per Si atom -5572.286981 kJ/mol
# Density = 1.802366 g / cm^3
# Si number density = 18.064779 Si / 1000 Ang^3
#
#
#
# Elastic Constant Matrix: (Units=GPa)
#
#
# Indices 1 2 3 4 5 6 
#
# 1 87.4296 72.6747 50.8654 0.0000 0.0000 0.0000
# 2 72.6747 87.4317 50.8647 0.0000 0.0000 0.0000
# 3 50.8654 50.8647 121.9737 0.0000 0.0000 0.0000
# 4 0.0000 0.0000 0.0000 -56.0023 0.0000 0.0000
# 5 0.0000 0.0000 0.0000 0.0000 -56.0200 0.0000
# 6 0.0000 0.0000 0.0000 0.0000 0.0000 1.9371
#
#
#
# Elastic Compliance Matrix: (Units=1/GPa)
#
#
# Indices 1 2 3 4 5 6 
#
# 1 0.038134 -0.029636 -0.003544 0.000000 0.000000 0.000000
# 2 -0.029636 0.038133 -0.003543 0.000000 0.000000 0.000000
# 3 -0.003544 -0.003543 0.011154 0.000000 0.000000 0.000000
# 4 0.000000 0.000000 0.000000 -0.017856 0.000000 0.000000
# 5 0.000000 0.000000 0.000000 0.000000 -0.017851 0.000000
# 6 0.000000 0.000000 0.000000 0.000000 0.000000 0.516231
#
#
# Mechanical properties :
#
#
# Convention : Reuss Voigt Hill
#
# Bulk Modulus (GPa) = 71.55867 71.73829 71.64848
# Shear Modulus (GPa) = 7.73934 -13.85505 -3.05785
#
# Velocity S-wave (km/s) = 2.07208 -2.77242 -1.30246
# Velocity P-wave (km/s) = 6.73965 5.43595 6.12260
#
# Compressibility (1/GPa) = 0.01397455
#
# Stress axis : x y z
#
# Youngs Moduli (GPa) = 26.22312 26.22419 89.65430
#
# Poissons Ratio (x) = 0.77718 0.31774
# Poissons Ratio (y) = 0.77715 0.31765
# Poissons Ratio (z) = 0.09294 0.09291
#
# Static dielectric constant tensor:
#      x y z
#    x 1.632840 0.000000 0.000000 
#    y 0.000000 1.632840 0.000000 
#    z 0.000000 0.000000 1.675090 
# 
# From -- ./inp_files/3857.got.cif
#   From: 2010.05.17/outbox.cif.g08.bks.cpg/sg129_2_cif.got.tgz:3857.got - 2010.05.20 12:12:06.
