data_PCOD9565087
_publ_section_title
;
Structure prediction by ZEFSAII (Michael W. Deem and Ramdas Pophale) SiO2 
 PCOD9565087
Probable space group: P 4/M N C
;
_chemical_formula_sum "Si O2"
_cell_formula_units_Z 120
_cell_length_a 21.000000
_cell_length_b 21.000000
_cell_length_c 15.000000
_cell_angle_alpha 90.000000
_cell_angle_beta 90.000000
_cell_angle_gamma 90.000000
_cell_volume 6615.000000
_symmetry_space_group_name_H-M "P 4/M N C"
_symmetry_group_IT_number 128
_symmetry_cell_setting 'tetragonal'
loop_
_space_group_symop_operation_xyz
x,y,z
-y,x,z
-x,-y,z
y,-x,z
1/2+x,1/2-y,1/2-z
1/2-x,1/2+y,1/2-z
1/2+y,1/2+x,1/2-z
1/2-y,1/2-x,1/2-z
-x,-y,-z
y,-x,-z
x,y,-z
-y,x,-z
1/2-x,1/2+y,1/2+z
1/2+x,1/2-y,1/2+z
1/2-y,1/2-x,1/2+z
1/2+y,1/2+x,1/2+z
loop_
_atom_site_type_symbol
_atom_site_label
_atom_site_fract_x
_atom_site_fract_y
_atom_site_fract_z
Si Si1 0.256312 0.361344 0.098301
Si Si2 0.390415 0.498619 0.798722
Si Si3 0.393057 0.494534 0.000000
Si Si4 0.749345 0.346385 0.393017
Si Si5 0.739691 0.356146 0.893544
Si Si6 0.426144 0.821729 0.748611
Si Si7 0.755507 0.958495 0.242571
Si Si8 0.850244 0.748412 0.901317
O O1 0.321324 0.327622 0.127042
O O2 0.220487 0.405723 0.166491
O O3 0.208288 0.301235 0.090929
O O4 0.264582 0.389737 0.000000
O O5 0.438966 0.437588 0.786903
O O6 0.324816 0.505274 0.741920
O O7 0.364285 0.494163 0.901203
O O8 0.441797 0.435718 0.000000
O O9 0.748321 0.353299 0.500000
O O10 0.807545 0.297926 0.372576
O O11 0.750855 0.411444 0.340685
O O12 0.683670 0.311305 0.365844
O O13 0.744541 0.416681 0.831977
O O14 0.740378 0.368000 0.000000
O O15 0.389783 0.889783 0.750000
O O16 0.500267 0.809253 0.743388
O O17 0.398478 0.784207 0.664146
O O18 0.876511 0.759181 0.000000
#
# Coordination Sequence:
#
# PCOD9565087 Si02
#       8
#    16  16   8  16  16  16  16  16
#     4   8  15  31  52  74 101 134 163 203 267 319
#     4   9  20  35  48  70 112 153 185 212 245 304
#     4   7  12  30  50  60  90 150 186 201 234 284
#     4   9  19  37  57  77 101 130 177 232 273 311
#     4   9  19  35  55  81 108 131 166 221 274 323
#     4  10  21  34  48  75 111 141 173 216 264 317
#     4  12  23  30  55  81 102 140 183 214 267 311
#     4   8  15  31  56  74  93 128 168 218 271 309
#
# _framework density 18.14059
#
# number of rings (size 3 to 8) (size 9 to 14) (size 15 to 20)
#    0.000    2.867    0.000    3.600    4.667    3.200 
#    0.000    0.000    0.000    1.600    0.000    2.800 
#    0.000    0.000    0.000    0.000    0.000    0.000 
#
# Total GULP energy -668086.543646 kJ/mol
# GULP energy per Si atom -5567.387864 kJ/mol
# Density = 1.809930 g / cm^3
# Si number density = 18.140590 Si / 1000 Ang^3
#
#
#
# Elastic Constant Matrix: (Units=GPa)
#
#
# Indices 1 2 3 4 5 6 
#
# 1 30.7400 -14.7315 -0.4300 0.0000 0.0000 0.0000
# 2 -14.7315 30.7400 -0.4300 0.0000 0.0000 0.0000
# 3 -0.4300 -0.4300 18.8653 0.0000 0.0000 0.0000
# 4 0.0000 0.0000 0.0000 19.5844 0.0000 0.0000
# 5 0.0000 0.0000 0.0000 0.0000 19.5844 0.0000
# 6 0.0000 0.0000 0.0000 0.0000 0.0000 18.0526
#
#
#
# Elastic Compliance Matrix: (Units=1/GPa)
#
#
# Indices 1 2 3 4 5 6 
#
# 1 0.042268 0.020276 0.001426 0.000000 0.000000 0.000000
# 2 0.020276 0.042268 0.001426 0.000000 0.000000 0.000000
# 3 0.001426 0.001426 0.053072 0.000000 0.000000 0.000000
# 4 0.000000 0.000000 0.000000 0.051061 0.000000 0.000000
# 5 0.000000 0.000000 0.000000 0.000000 0.051061 0.000000
# 6 0.000000 0.000000 0.000000 0.000000 0.000000 0.055394
#
#
# Mechanical properties :
#
#
# Convention : Reuss Voigt Hill
#
# Bulk Modulus (GPa) = 5.43887 5.46246 5.45067
# Shear Modulus (GPa) = 16.12091 17.84007 16.98049
#
# Velocity S-wave (km/s) = 2.98428 3.13938 3.06281
# Velocity P-wave (km/s) = 3.85737 4.01978 3.93941
#
# Compressibility (1/GPa) = 0.18386178
#
# Stress axis : x y z
#
# Youngs Moduli (GPa) = 23.65881 23.65881 18.84218
#
# Poissons Ratio (x) = -0.47970 -0.02686
# Poissons Ratio (y) = -0.47970 -0.02686
# Poissons Ratio (z) = -0.03373 -0.03373
#
# Static dielectric constant tensor:
#      x y z
#    x 1.662230 0.000000 0.000000 
#    y 0.000000 1.662230 0.000000 
#    z 0.000000 0.000000 1.679190 
# 
# From -- ./inp_files/4093.got.cif
#   From: 2010.05.17/outbox.ucp.g08.bks.cvg/sg128_3_cif.got.tgz:4093.got - 2010.06.11 11:37:33.
