data_PCOD9565850
_publ_section_title
;
Structure prediction by ZEFSAII (Michael W. Deem and Ramdas Pophale) SiO2 
 PCOD9565850
Probable space group: P 4/N C C
;
_chemical_formula_sum "Si O2"
_cell_formula_units_Z 88
_cell_length_a 10.127317
_cell_length_b 10.127317
_cell_length_c 33.535254
_cell_angle_alpha 90.000000
_cell_angle_beta 90.000000
_cell_angle_gamma 90.000000
_cell_volume 3439.461152
_symmetry_space_group_name_H-M "P 4/N C C"
_symmetry_group_IT_number 130
_symmetry_cell_setting 'tetragonal'
loop_
_space_group_symop_operation_xyz
x,y,z
1/2-y,x,z
1/2-x,1/2-y,z
y,1/2-x,z
1/2+x,-y,1/2-z
-x,1/2+y,1/2-z
1/2+y,1/2+x,1/2-z
-y,-x,1/2-z
-x,-y,-z
1/2+y,-x,-z
1/2+x,1/2+y,-z
-y,1/2+x,-z
1/2-x,y,1/2+z
x,1/2-y,1/2+z
1/2-y,1/2-x,1/2+z
y,x,1/2+z
loop_
_atom_site_type_symbol
_atom_site_label
_atom_site_fract_x
_atom_site_fract_y
_atom_site_fract_z
Si Si1 0.096724 0.096855 0.137960
Si Si2 0.750000 0.250000 0.882491
Si Si3 0.655142 0.421012 0.682962
Si Si4 0.270035 0.465675 0.236218
Si Si5 0.308253 0.525095 0.559476
Si Si6 0.046976 0.312636 0.977424
O O1 0.250392 0.072939 0.148915
O O2 0.068854 0.112826 0.090554
O O3 0.025433 0.974483 0.159198
O O4 0.872051 0.250705 0.852083
O O5 0.735076 0.374503 0.910801
O O6 0.722263 0.509170 0.716411
O O7 0.596061 0.301668 0.710858
O O8 0.134419 0.391252 0.227658
O O9 0.413796 0.620435 0.537185
O O10 0.215733 0.464966 0.525002
O O11 0.090817 0.166064 0.964365
#
# Coordination Sequence:
#
# PCOD9565850 Si02
#       6
#    16   8  16  16  16  16
#     4  11  23  42  71 105 139 190 249 310 367 443
#     4  12  28  42  66 112 140 188 238 310 370 436
#     4  11  25  43  69 103 144 180 242 304 368 430
#     4  10  24  45  70  99 140 194 241 291 363 444
#     4  12  25  45  71 101 151 188 250 305 385 448
#     4  11  26  47  73 104 142 198 250 306 380 463
#
# _framework density 25.585402999999999
#
# number of rings (size 3 to 8) (size 9 to 14) (size 15 to 20)
#    0.000    0.909    1.818    3.818    5.091    5.818 
#    0.000    0.000    0.000    0.000    0.000    0.000 
#    0.000    0.000    0.000    0.000    0.000    0.000 
#
# Total GULP energy -491789.549243 kJ/mol
# GULP energy per Si atom -5588.517605 kJ/mol
# Density = 2.552717 g / cm^3
# Si number density = 25.585403 Si / 1000 Ang^3
#
#
#
# Elastic Constant Matrix: (Units=GPa)
#
#
# Indices 1 2 3 4 5 6 
#
# 1 56.1408 4.1393 10.1522 0.0000 0.0000 0.0000
# 2 4.1393 56.1408 10.1522 0.0000 0.0000 0.0000
# 3 10.1522 10.1522 110.2353 0.0000 0.0000 0.0000
# 4 0.0000 0.0000 0.0000 63.3235 0.0000 0.0000
# 5 0.0000 0.0000 0.0000 0.0000 63.3235 0.0000
# 6 0.0000 0.0000 0.0000 0.0000 0.0000 30.5631
#
#
#
# Elastic Compliance Matrix: (Units=1/GPa)
#
#
# Indices 1 2 3 4 5 6 
#
# 1 0.018175 -0.001055 -0.001577 0.000000 0.000000 0.000000
# 2 -0.001055 0.018175 -0.001577 0.000000 0.000000 0.000000
# 3 -0.001577 -0.001577 0.009362 0.000000 0.000000 0.000000
# 4 0.000000 0.000000 0.000000 0.015792 0.000000 0.000000
# 5 0.000000 0.000000 0.000000 0.000000 0.015792 0.000000
# 6 0.000000 0.000000 0.000000 0.000000 0.000000 0.032719
#
#
# Mechanical properties :
#
#
# Convention : Reuss Voigt Hill
#
# Bulk Modulus (GPa) = 26.81272 30.15603 28.48438
# Shear Modulus (GPa) = 38.20757 44.64692 41.42724
#
# Velocity S-wave (km/s) = 3.86856 4.18187 4.02826
# Velocity P-wave (km/s) = 5.51877 5.92700 5.72653
#
# Compressibility (1/GPa) = 0.03729573
#
# Stress axis : x y z
#
# Youngs Moduli (GPa) = 55.01980 55.01980 106.81574
#
# Poissons Ratio (x) = 0.05804 0.16842
# Poissons Ratio (y) = 0.05804 0.16842
# Poissons Ratio (z) = 0.08675 0.08675
#
# Static dielectric constant tensor:
#      x y z
#    x 2.026020 0.000000 0.000000 
#    y 0.000000 2.026020 0.000000 
#    z 0.000000 0.000000 2.082190 
# 
# From -- ./inp_files/4864.got.cif
#   From: 2010.05.17/outbox.cif.g08.bks.cpg/sg130_3_cif.got.tgz:4864.got - 2010.05.20 12:17:35.
