data_PCOD9565324
_publ_section_title
;
Structure prediction by ZEFSAII (Michael W. Deem and Ramdas Pophale) SiO2 
 PCOD9565324
Probable space group: P 4/N M M
;
_chemical_formula_sum "Si O2"
_cell_formula_units_Z 72
_cell_length_a 21.377841
_cell_length_b 21.377841
_cell_length_c 8.787756
_cell_angle_alpha 90.000000
_cell_angle_beta 90.000000
_cell_angle_gamma 90.000000
_cell_volume 4016.110699
_symmetry_space_group_name_H-M "P 4/N M M"
_symmetry_group_IT_number 129
_symmetry_cell_setting 'tetragonal'
loop_
_space_group_symop_operation_xyz
x,y,z
1/2-y,x,z
1/2-x,1/2-y,z
y,1/2-x,z
1/2+x,-y,-z
-x,1/2+y,-z
1/2+y,1/2+x,-z
-y,-x,-z
-x,-y,-z
1/2+y,-x,-z
1/2+x,1/2+y,-z
-y,1/2+x,-z
1/2-x,y,z
x,1/2-y,z
1/2-y,1/2-x,z
y,x,z
loop_
_atom_site_type_symbol
_atom_site_label
_atom_site_fract_x
_atom_site_fract_y
_atom_site_fract_z
Si Si1 0.429582 0.323661 0.727775
Si Si2 0.319170 0.819170 0.500000
Si Si3 0.048796 0.680844 0.100273
Si Si4 0.000243 0.103898 0.461670
Si Si5 0.587713 0.147686 0.231132
O O1 0.414309 0.250000 0.706431
O O2 0.369548 0.369548 0.734756
O O3 0.474761 0.329204 0.875508
O O4 0.474660 0.349487 0.591639
O O5 0.324943 0.750000 0.431270
O O6 0.369013 0.824074 0.635782
O O7 0.061988 0.750000 0.167034
O O8 0.084942 0.625078 0.184202
O O9 0.074389 0.680822 0.928461
O O10 0.939259 0.060742 0.500000
O O11 0.978833 0.138158 0.310283
O O12 0.055495 0.055495 0.433911
#
# Coordination Sequence:
#
# PCOD9565324 Si02
#       5
#    16   8  16  16  16
#     4  10  21  38  59  83 113 146 183 229 278 332
#     4  11  22  34  49  70 100 142 189 228 264 319
#     4  10  21  34  51  77 109 144 182 227 277 329
#     4  10  19  34  55  82 109 137 176 224 279 331
#     4  11  20  34  54  76 106 143 182 229 279 331
#
# _framework density 17.927792
#
# number of rings (size 3 to 8) (size 9 to 14) (size 15 to 20)
#    0.000    1.667    3.333    1.333    0.000    4.667 
#    0.000    2.222    0.000    5.333    0.000    0.000 
#    0.000    3.556    0.000    0.000    0.000    0.000 
#
# Total GULP energy -400807.802360 kJ/mol
# GULP energy per Si atom -5566.775033 kJ/mol
# Density = 1.788699 g / cm^3
# Si number density = 17.927792 Si / 1000 Ang^3
#
#
#
# Elastic Constant Matrix: (Units=GPa)
#
#
# Indices 1 2 3 4 5 6 
#
# 1 99.4500 50.9219 36.8507 0.0000 0.0000 0.0000
# 2 50.9219 99.4499 36.8507 0.0000 0.0000 0.0000
# 3 36.8507 36.8507 77.4351 0.0000 0.0000 0.0000
# 4 0.0000 0.0000 0.0000 12.5929 0.0000 0.0000
# 5 0.0000 0.0000 0.0000 0.0000 12.5923 0.0000
# 6 0.0000 0.0000 0.0000 0.0000 0.0000 17.3520
#
#
#
# Elastic Compliance Matrix: (Units=1/GPa)
#
#
# Indices 1 2 3 4 5 6 
#
# 1 0.014640 -0.005967 -0.004127 0.000000 0.000000 0.000000
# 2 -0.005967 0.014640 -0.004127 0.000000 0.000000 0.000000
# 3 -0.004127 -0.004127 0.016843 0.000000 0.000000 0.000000
# 4 0.000000 0.000000 0.000000 0.079410 0.000000 0.000000
# 5 0.000000 0.000000 0.000000 0.000000 0.079413 0.000000
# 6 0.000000 0.000000 0.000000 0.000000 0.000000 0.057630
#
#
# Mechanical properties :
#
#
# Convention : Reuss Voigt Hill
#
# Bulk Modulus (GPa) = 56.56458 58.39796 57.48127
# Shear Modulus (GPa) = 16.84000 18.62156 17.73078
#
# Velocity S-wave (km/s) = 3.06816 3.22638 3.14827
# Velocity P-wave (km/s) = 6.64615 6.82086 6.73407
#
# Compressibility (1/GPa) = 0.01767891
#
# Stress axis : x y z
#
# Youngs Moduli (GPa) = 68.30641 68.30642 59.37355
#
# Poissons Ratio (x) = 0.40757 0.24506
# Poissons Ratio (y) = 0.40757 0.24506
# Poissons Ratio (z) = 0.28193 0.28193
#
# Static dielectric constant tensor:
#      x y z
#    x 1.635360 0.000000 0.000000 
#    y 0.000000 1.635360 0.000000 
#    z 0.000000 0.000000 1.644550 
# 
# From -- ./inp_files/2246.got.cif
#   From: 2010.05.17/outbox.cif.g08.bks.cpg/sg129_2_cif.got.tgz:2246.got - 2010.05.20 12:12:06.
