data_PCOD9565081
_publ_section_title
;
Structure prediction by ZEFSAII (Michael W. Deem and Ramdas Pophale) SiO2 
 PCOD9565081
Probable space group: P 4/M N C
;
_chemical_formula_sum "Si O2"
_cell_formula_units_Z 120
_cell_length_a 27.000000
_cell_length_b 27.000000
_cell_length_c 9.000000
_cell_angle_alpha 90.000000
_cell_angle_beta 90.000000
_cell_angle_gamma 90.000000
_cell_volume 6561.000000
_symmetry_space_group_name_H-M "P 4/M N C"
_symmetry_group_IT_number 128
_symmetry_cell_setting 'tetragonal'
loop_
_space_group_symop_operation_xyz
x,y,z
-y,x,z
-x,-y,z
y,-x,z
1/2+x,1/2-y,1/2-z
1/2-x,1/2+y,1/2-z
1/2+y,1/2+x,1/2-z
1/2-y,1/2-x,1/2-z
-x,-y,-z
y,-x,-z
x,y,-z
-y,x,-z
1/2-x,1/2+y,1/2+z
1/2+x,1/2-y,1/2+z
1/2-y,1/2-x,1/2+z
1/2+y,1/2+x,1/2+z
loop_
_atom_site_type_symbol
_atom_site_label
_atom_site_fract_x
_atom_site_fract_y
_atom_site_fract_z
Si Si1 0.771943 0.659257 0.171622
Si Si2 0.843731 0.915617 0.331268
Si Si3 0.781725 0.071103 0.825229
Si Si4 0.952505 0.882554 0.323025
Si Si5 0.775691 0.823422 0.332835
Si Si6 0.512892 0.418500 0.500000
Si Si7 0.535334 0.744379 0.326093
Si Si8 0.191432 0.622538 0.674598
O O1 0.820593 0.679408 0.250000
O O2 0.748635 0.618051 0.276145
O O3 0.731169 0.703095 0.169622
O O4 0.778655 0.643685 0.000000
O O5 0.832320 0.929280 0.500000
O O6 0.902297 0.914986 0.314242
O O7 0.822019 0.860492 0.308389
O O8 0.809636 0.950314 0.233295
O O9 0.826580 0.064444 0.709472
O O10 0.748340 0.022364 0.807955
O O11 0.798269 0.073605 0.000000
O O12 0.969879 0.887609 0.500000
O O13 0.981194 0.894255 0.166306
O O14 0.755789 0.833546 0.500000
O O15 0.735155 0.838315 0.212661
O O16 0.555284 0.460095 0.500000
O O17 0.546401 0.742732 0.500000
O O18 0.571529 0.785944 0.262228
O O19 0.142350 0.642350 0.750000
O O20 0.183657 0.619591 0.500000
#
# Coordination Sequence:
#
# PCOD9565081 Si02
#       8
#    16  16  16  16  16   8  16  16
#     4  11  22  36  52  76 110 147 188 228 273 332
#     4   9  18  32  51  78 107 133 171 221 276 329
#     4  11  22  38  58  81 111 147 186 232 285 334
#     4  11  23  39  62  88 109 138 182 240 297 354
#     4   9  17  31  48  70 101 135 171 209 255 315
#     4  11  28  48  62  80 108 146 190 244 310 367
#     4   9  21  35  53  78 106 140 181 224 271 329
#     4  10  19  32  49  74 106 140 174 213 261 319
#
# _framework density 18.289895000000001
#
# number of rings (size 3 to 8) (size 9 to 14) (size 15 to 20)
#    0.000    1.933    2.000    1.600    2.800    4.267 
#    0.000    0.667    0.000    0.000    0.000    0.000 
#    0.000    0.533    0.000    6.133    0.000    1.867 
#
# Total GULP energy -668264.419053 kJ/mol
# GULP energy per Si atom -5568.870159 kJ/mol
# Density = 1.824827 g / cm^3
# Si number density = 18.289895 Si / 1000 Ang^3
#
#
#
# Elastic Constant Matrix: (Units=GPa)
#
#
# Indices 1 2 3 4 5 6 
#
# 1 26.1664 31.6802 19.0620 0.0000 0.0000 0.0000
# 2 31.6802 26.1755 19.0665 0.0000 0.0000 0.0000
# 3 19.0620 19.0665 66.4826 0.0000 0.0000 0.0000
# 4 0.0000 0.0000 0.0000 11.7237 0.0000 0.0000
# 5 0.0000 0.0000 0.0000 0.0000 11.7236 0.0000
# 6 0.0000 0.0000 0.0000 0.0000 0.0000 37.1837
#
#
#
# Elastic Compliance Matrix: (Units=1/GPa)
#
#
# Indices 1 2 3 4 5 6 
#
# 1 -0.080112 0.101414 -0.006114 0.000000 0.000000 0.000000
# 2 0.101414 -0.080087 -0.006109 0.000000 0.000000 0.000000
# 3 -0.006114 -0.006109 0.018547 0.000000 0.000000 0.000000
# 4 0.000000 0.000000 0.000000 0.085297 0.000000 0.000000
# 5 0.000000 0.000000 0.000000 0.000000 0.085298 0.000000
# 6 0.000000 0.000000 0.000000 0.000000 0.000000 0.026893
#
#
# Mechanical properties :
#
#
# Convention : Reuss Voigt Hill
#
# Bulk Modulus (GPa) = 27.22786 28.71578 27.97182
# Shear Modulus (GPa) = -45.33019 15.39394 -14.96812
#
# Velocity S-wave (km/s) = -4.98378 2.90429 -2.86384
# Velocity P-wave (km/s) = 4.26595 5.19432 2.09555
#
# Compressibility (1/GPa) = 0.03672709
#
# Stress axis : x y z
#
# Youngs Moduli (GPa) = -12.48247 -12.48640 53.91779
#
# Poissons Ratio (x) = 1.26629 0.32968
# Poissons Ratio (y) = 1.26589 0.32940
# Poissons Ratio (z) = -0.07632 -0.07628
#
# Static dielectric constant tensor:
#      x y z
#    x 1.680920 0.000000 0.000000 
#    y 0.000000 1.680920 0.000000 
#    z 0.000000 0.000000 1.652760 
# 
# From -- ./inp_files/1774.got.cif
#   From: 2010.05.17/outbox.ucp.g08.bks.cvg/sg128_1_cif.got.tgz:1774.got - 2010.06.11 11:37:33.
