data_PCOD9565619
_publ_section_title
;
Structure prediction by ZEFSAII (Michael W. Deem and Ramdas Pophale) SiO2 
 PCOD9565619
Probable space group: P 4/N C C
;
_chemical_formula_sum "Si O2"
_cell_formula_units_Z 120
_cell_length_a 25.755192
_cell_length_b 25.755192
_cell_length_c 8.754533
_cell_angle_alpha 90.000000
_cell_angle_beta 90.000000
_cell_angle_gamma 90.000000
_cell_volume 5807.143630
_symmetry_space_group_name_H-M "P 4/N C C"
_symmetry_group_IT_number 130
_symmetry_cell_setting 'tetragonal'
loop_
_space_group_symop_operation_xyz
x,y,z
1/2-y,x,z
1/2-x,1/2-y,z
y,1/2-x,z
1/2+x,-y,1/2-z
-x,1/2+y,1/2-z
1/2+y,1/2+x,1/2-z
-y,-x,1/2-z
-x,-y,-z
1/2+y,-x,-z
1/2+x,1/2+y,-z
-y,1/2+x,-z
1/2-x,y,1/2+z
x,1/2-y,1/2+z
1/2-y,1/2-x,1/2+z
y,x,1/2+z
loop_
_atom_site_type_symbol
_atom_site_label
_atom_site_fract_x
_atom_site_fract_y
_atom_site_fract_z
Si Si1 0.432298 0.331341 0.896091
Si Si2 0.895028 0.104973 0.750000
Si Si3 0.638409 0.860927 0.857662
Si Si4 0.463259 0.796139 0.729277
Si Si5 0.488932 0.800391 0.069545
Si Si6 0.607437 0.715738 0.617588
Si Si7 0.194326 0.689536 0.562228
Si Si8 0.379963 0.597160 0.927090
O O1 0.411007 0.361911 0.751568
O O2 0.492438 0.319675 0.880124
O O3 0.399069 0.277345 0.892588
O O4 0.413012 0.360196 0.044144
O O5 0.835338 0.083787 0.754983
O O6 0.909193 0.083958 0.579894
O O7 0.690770 0.861214 0.757361
O O8 0.631150 0.811816 0.968648
O O9 0.452164 0.741052 0.655010
O O10 0.490902 0.785746 0.891103
O O11 0.546962 0.801422 0.132407
O O12 0.458687 0.853107 0.078827
O O13 0.192381 0.692381 0.750000
O O14 0.179709 0.746264 0.493064
O O15 0.156877 0.645662 0.485393
O O16 0.393840 0.606160 0.750000
#
# Coordination Sequence:
#
# PCOD9565619 Si02
#       8
#    16   8  16  16  16  16  16  16
#     4  10  20  36  60  88 121 157 203 249 295 358
#     4  10  24  40  56  87 120 154 200 254 334 376
#     4  10  20  33  60  90 118 163 197 250 298 358
#     4  10  22  39  61  87 119 155 198 263 308 371
#     4  10  23  37  60  89 116 155 204 257 304 370
#     4  10  20  37  58  90 121 152 206 249 298 354
#     4  11  22  37  54  77 110 156 204 247 296 375
#     4  11  24  38  58  84 117 156 200 257 315 382
#
# _framework density 20.664204000000002
#
# number of rings (size 3 to 8) (size 9 to 14) (size 15 to 20)
#    0.000    1.733    2.000    2.400    9.333    1.067 
#    0.000    0.000    0.000   28.800    6.933    0.000 
#    0.000    0.000    0.000    0.000    0.000    0.000 
#
# Total GULP energy -668232.290904 kJ/mol
# GULP energy per Si atom -5568.602424 kJ/mol
# Density = 2.061717 g / cm^3
# Si number density = 20.664204 Si / 1000 Ang^3
#
#
#
# Elastic Constant Matrix: (Units=GPa)
#
#
# Indices 1 2 3 4 5 6 
#
# 1 31.6426 23.7694 17.8637 0.0000 0.0000 0.0000
# 2 23.7694 31.6444 17.8636 0.0000 0.0000 0.0000
# 3 17.8637 17.8636 140.0159 0.0000 0.0000 0.0000
# 4 0.0000 0.0000 0.0000 23.7281 0.0000 0.0000
# 5 0.0000 0.0000 0.0000 0.0000 23.7276 0.0000
# 6 0.0000 0.0000 0.0000 0.0000 0.0000 26.5616
#
#
#
# Elastic Compliance Matrix: (Units=1/GPa)
#
#
# Indices 1 2 3 4 5 6 
#
# 1 0.073333 -0.053667 -0.002509 0.000000 0.000000 0.000000
# 2 -0.053667 0.073329 -0.002508 0.000000 0.000000 0.000000
# 3 -0.002509 -0.002508 0.007782 0.000000 0.000000 0.000000
# 4 0.000000 0.000000 0.000000 0.042144 0.000000 0.000000
# 5 0.000000 0.000000 0.000000 0.000000 0.042145 0.000000
# 6 0.000000 0.000000 0.000000 0.000000 0.000000 0.037648
#
#
# Mechanical properties :
#
#
# Convention : Reuss Voigt Hill
#
# Bulk Modulus (GPa) = 26.97247 35.81070 31.39159
# Shear Modulus (GPa) = 12.31197 24.39055 18.35126
#
# Velocity S-wave (km/s) = 2.44357 3.43932 2.98328
# Velocity P-wave (km/s) = 4.58721 5.75668 5.20489
#
# Compressibility (1/GPa) = 0.03707484
#
# Stress axis : x y z
#
# Youngs Moduli (GPa) = 13.63641 13.63722 128.49839
#
# Poissons Ratio (x) = 0.73187 0.32241
# Poissons Ratio (y) = 0.73183 0.32233
# Poissons Ratio (z) = 0.03421 0.03421
#
# Static dielectric constant tensor:
#      x y z
#    x 1.739600 0.000000 0.000000 
#    y 0.000000 1.739590 0.000000 
#    z 0.000000 0.000000 1.850740 
# 
# From -- ./inp_files/1077.got.cif
#   From: 2010.05.17/outbox.cif.g08.bks.cpg/sg130_1_cif.got.tgz:1077.got - 2010.05.20 12:17:35.
