data_PCOD9565761
_publ_section_title
;
Structure prediction by ZEFSAII (Michael W. Deem and Ramdas Pophale) SiO2 
 PCOD9565761
Probable space group: P 4/N C C
;
_chemical_formula_sum "Si O2"
_cell_formula_units_Z 96
_cell_length_a 15.755351
_cell_length_b 15.755351
_cell_length_c 21.073245
_cell_angle_alpha 90.000000
_cell_angle_beta 90.000000
_cell_angle_gamma 90.000000
_cell_volume 5231.034474
_symmetry_space_group_name_H-M "P 4/N C C"
_symmetry_group_IT_number 130
_symmetry_cell_setting 'tetragonal'
loop_
_space_group_symop_operation_xyz
x,y,z
1/2-y,x,z
1/2-x,1/2-y,z
y,1/2-x,z
1/2+x,-y,1/2-z
-x,1/2+y,1/2-z
1/2+y,1/2+x,1/2-z
-y,-x,1/2-z
-x,-y,-z
1/2+y,-x,-z
1/2+x,1/2+y,-z
-y,1/2+x,-z
1/2-x,y,1/2+z
x,1/2-y,1/2+z
1/2-y,1/2-x,1/2+z
y,x,1/2+z
loop_
_atom_site_type_symbol
_atom_site_label
_atom_site_fract_x
_atom_site_fract_y
_atom_site_fract_z
Si Si1 0.320774 0.951138 0.374782
Si Si2 0.008046 0.242814 0.502449
Si Si3 0.557267 0.566713 0.955787
Si Si4 0.767760 0.348032 0.920831
Si Si5 0.845097 0.380411 0.177744
Si Si6 0.009507 0.007905 0.326876
O O1 0.362421 0.866309 0.405149
O O2 0.251151 0.909275 0.330026
O O3 0.393077 0.005636 0.342370
O O4 0.273159 0.006316 0.427573
O O5 0.042214 0.335307 0.522959
O O6 0.046943 0.157328 0.533221
O O7 0.909522 0.243536 0.522719
O O8 0.533843 0.552388 0.881075
O O9 0.500000 0.500000 0.000000
O O10 0.750000 0.250000 0.932909
O O11 0.702524 0.367020 0.863456
O O12 0.861058 0.361058 0.250000
O O13 0.903926 0.458773 0.158059
O O14 0.997788 0.002213 0.250000
#
# Coordination Sequence:
#
# PCOD9565761 Si02
#       6
#    16  16  16  16  16  16
#     4  11  24  36  64  93 128 168 213 268 336 397
#     4  12  24  40  67  92 132 173 224 275 330 397
#     4  12  24  45  68  95 136 174 226 284 329 397
#     4  10  22  32  57  91 123 157 201 263 331 390
#     4  10  23  39  59  89 128 166 206 267 325 399
#     4  11  23  41  64  93 130 177 215 267 341 398
#
# _framework density 18.35201
#
# number of rings (size 3 to 8) (size 9 to 14) (size 15 to 20)
#    0.000    1.000    5.000    1.000    9.333    2.667 
#    0.000    0.000    0.000    0.500    0.000    0.000 
#    0.000    0.000    0.000    0.000    0.000    0.000 
#
# Total GULP energy -535160.862280 kJ/mol
# GULP energy per Si atom -5574.592315 kJ/mol
# Density = 1.831024 g / cm^3
# Si number density = 18.352010 Si / 1000 Ang^3
#
#
#
# Elastic Constant Matrix: (Units=GPa)
#
#
# Indices 1 2 3 4 5 6 
#
# 1 90.1088 38.0641 33.6921 0.0000 0.0000 0.0000
# 2 38.0641 90.1089 33.6920 0.0000 0.0000 0.0000
# 3 33.6921 33.6920 79.6575 0.0000 0.0000 0.0000
# 4 0.0000 0.0000 0.0000 25.2811 0.0000 0.0000
# 5 0.0000 0.0000 0.0000 0.0000 25.2807 0.0000
# 6 0.0000 0.0000 0.0000 0.0000 0.0000 30.7214
#
#
#
# Elastic Compliance Matrix: (Units=1/GPa)
#
#
# Indices 1 2 3 4 5 6 
#
# 1 0.014624 -0.004591 -0.004244 0.000000 0.000000 0.000000
# 2 -0.004591 0.014624 -0.004244 0.000000 0.000000 0.000000
# 3 -0.004244 -0.004244 0.016143 0.000000 0.000000 0.000000
# 4 0.000000 0.000000 0.000000 0.039555 0.000000 0.000000
# 5 0.000000 0.000000 0.000000 0.000000 0.039556 0.000000
# 6 0.000000 0.000000 0.000000 0.000000 0.000000 0.032551
#
#
# Mechanical properties :
#
#
# Convention : Reuss Voigt Hill
#
# Bulk Modulus (GPa) = 51.98823 52.30796 52.14809
# Shear Modulus (GPa) = 26.36859 26.55175 26.46017
#
# Velocity S-wave (km/s) = 3.79466 3.80781 3.80124
# Velocity P-wave (km/s) = 6.89848 6.92077 6.90964
#
# Compressibility (1/GPa) = 0.01923512
#
# Stress axis : x y z
#
# Youngs Moduli (GPa) = 68.38269 68.38281 61.94465
#
# Poissons Ratio (x) = 0.31392 0.26286
# Poissons Ratio (y) = 0.31392 0.26286
# Poissons Ratio (z) = 0.29018 0.29018
#
# Static dielectric constant tensor:
#      x y z
#    x 1.657680 0.000000 0.000000 
#    y 0.000000 1.657680 0.000000 
#    z 0.000000 0.000000 1.687290 
# 
# From -- ./inp_files/3786.got.cif
#   From: 2010.05.17/outbox.cif.g08.bks.cpg/sg130_2_cif.got.tgz:3786.got - 2010.05.20 12:17:35.
