data_PCOD9565099
_publ_section_title
;
Structure prediction by ZEFSAII (Michael W. Deem and Ramdas Pophale) SiO2 
 PCOD9565099
Probable space group: P 4/N M M
;
_chemical_formula_sum "Si O2"
_cell_formula_units_Z 112
_cell_length_a 21.885183
_cell_length_b 21.885183
_cell_length_c 17.846338
_cell_angle_alpha 90.000000
_cell_angle_beta 90.000000
_cell_angle_gamma 90.000000
_cell_volume 8547.704088
_symmetry_space_group_name_H-M "P 4/N M M"
_symmetry_group_IT_number 129
_symmetry_cell_setting 'tetragonal'
loop_
_space_group_symop_operation_xyz
x,y,z
1/2-y,x,z
1/2-x,1/2-y,z
y,1/2-x,z
1/2+x,-y,-z
-x,1/2+y,-z
1/2+y,1/2+x,-z
-y,-x,-z
-x,-y,-z
1/2+y,-x,-z
1/2+x,1/2+y,-z
-y,1/2+x,-z
1/2-x,y,z
x,1/2-y,z
1/2-y,1/2-x,z
y,x,z
loop_
_atom_site_type_symbol
_atom_site_label
_atom_site_fract_x
_atom_site_fract_y
_atom_site_fract_z
Si Si1 0.503851 0.821007 0.059334
Si Si2 0.250000 0.823623 0.152991
Si Si3 0.447788 0.823082 0.285687
Si Si4 0.323708 0.631559 0.576924
Si Si5 0.085633 0.990459 0.062673
Si Si6 0.630930 0.116656 0.138457
Si Si7 0.924104 0.677173 0.212355
Si Si8 0.323455 0.750000 0.674787
O O1 0.508139 0.750000 0.043235
O O2 0.434780 0.835865 0.087339
O O3 0.548061 0.835039 0.129411
O O4 0.518613 0.860455 0.986722
O O5 0.250000 0.750000 0.149447
O O6 0.185341 0.847185 0.121294
O O7 0.250000 0.845063 0.239986
O O8 0.439546 0.750000 0.274729
O O9 0.426118 0.836939 0.369762
O O10 0.404239 0.853590 0.223137
O O11 0.518250 0.836748 0.266726
O O12 0.360096 0.639905 0.500000
O O13 0.250000 0.633588 0.561701
O O14 0.339504 0.690011 0.628334
O O15 0.109655 0.940495 0.120440
O O16 0.046306 0.953695 0.000000
O O17 0.041339 0.041339 0.096326
O O18 0.910592 0.750000 0.217712
O O19 0.866453 0.633547 0.225730
O O20 0.250000 0.750000 0.680205
#
# Coordination Sequence:
#
# PCOD9565099 Si02
#       8
#    16   8  16  16  16  16  16   8
#     4   9  17  29  44  58  78 100 129 165 203 249
#     4  11  18  26  38  54  84 117 138 166 203 239
#     4   9  17  28  40  57  80 108 138 166 197 240
#     4  10  16  23  36  57  82 108 139 172 198 220
#     4   9  18  30  42  55  72  98 136 176 205 232
#     4  10  18  26  39  56  77 109 142 169 195 233
#     4   9  17  29  46  65  80 100 126 160 207 254
#     4   9  16  22  34  54  78 107 139 170 201 223
#
# _framework density 13.102933999999999
#
# number of rings (size 3 to 8) (size 9 to 14) (size 15 to 20)
#    0.000    2.571    2.143    2.571    1.000    3.571 
#    0.000    0.000    0.000    0.429    0.000    0.000 
#    0.000    0.000    0.000    0.000    0.000    0.000 
#
# Total GULP energy -623525.152087 kJ/mol
# GULP energy per Si atom -5567.188858 kJ/mol
# Density = 1.307311 g / cm^3
# Si number density = 13.102934 Si / 1000 Ang^3
#
#
#
# Elastic Constant Matrix: (Units=GPa)
#
#
# Indices 1 2 3 4 5 6 
#
# 1 64.7009 51.1370 27.4407 0.0000 0.0000 0.0000
# 2 51.1370 64.7008 27.4403 0.0000 0.0000 0.0000
# 3 27.4407 27.4403 40.1587 0.0000 0.0000 0.0000
# 4 0.0000 0.0000 0.0000 11.1483 0.0000 0.0000
# 5 0.0000 0.0000 0.0000 0.0000 11.1481 0.0000
# 6 0.0000 0.0000 0.0000 0.0000 0.0000 21.5345
#
#
#
# Elastic Compliance Matrix: (Units=1/GPa)
#
#
# Indices 1 2 3 4 5 6 
#
# 1 0.043245 -0.030480 -0.008723 0.000000 0.000000 0.000000
# 2 -0.030480 0.043245 -0.008722 0.000000 0.000000 0.000000
# 3 -0.008723 -0.008722 0.036821 0.000000 0.000000 0.000000
# 4 0.000000 0.000000 0.000000 0.089700 0.000000 0.000000
# 5 0.000000 0.000000 0.000000 0.000000 0.089701 0.000000
# 6 0.000000 0.000000 0.000000 0.000000 0.000000 0.046437
#
#
# Mechanical properties :
#
#
# Convention : Reuss Voigt Hill
#
# Bulk Modulus (GPa) = 36.41416 42.39961 39.40688
# Shear Modulus (GPa) = 11.00947 13.00234 12.00590
#
# Velocity S-wave (km/s) = 2.90182 3.15353 3.03029
# Velocity P-wave (km/s) = 6.25128 6.75935 6.51028
#
# Compressibility (1/GPa) = 0.02746184
#
# Stress axis : x y z
#
# Youngs Moduli (GPa) = 23.12382 23.12396 27.15814
#
# Poissons Ratio (x) = 0.70482 0.23690
# Poissons Ratio (y) = 0.70482 0.23688
# Poissons Ratio (z) = 0.20171 0.20169
#
# Static dielectric constant tensor:
#      x y z
#    x 1.434420 0.000000 0.000000 
#    y 0.000000 1.434420 0.000000 
#    z 0.000000 0.000000 1.435190 
# 
# From -- ./inp_files/6050.got.cif
#   From: 2010.05.17/outbox.cif.g08.bks.cpg/sg129_4_cif.got.tgz:6050.got - 2010.05.20 12:12:06.
