data_PCOD9565663
_publ_section_title
;
Structure prediction by ZEFSAII (Michael W. Deem and Ramdas Pophale) SiO2 
 PCOD9565663
Probable space group: P 4/N C C
;
_chemical_formula_sum "Si O2"
_cell_formula_units_Z 64
_cell_length_a 14.373319
_cell_length_b 14.373319
_cell_length_c 14.342498
_cell_angle_alpha 90.000000
_cell_angle_beta 90.000000
_cell_angle_gamma 90.000000
_cell_volume 2963.049636
_symmetry_space_group_name_H-M "P 4/N C C"
_symmetry_group_IT_number 130
_symmetry_cell_setting 'tetragonal'
loop_
_space_group_symop_operation_xyz
x,y,z
1/2-y,x,z
1/2-x,1/2-y,z
y,1/2-x,z
1/2+x,-y,1/2-z
-x,1/2+y,1/2-z
1/2+y,1/2+x,1/2-z
-y,-x,1/2-z
-x,-y,-z
1/2+y,-x,-z
1/2+x,1/2+y,-z
-y,1/2+x,-z
1/2-x,y,1/2+z
x,1/2-y,1/2+z
1/2-y,1/2-x,1/2+z
y,x,1/2+z
loop_
_atom_site_type_symbol
_atom_site_label
_atom_site_fract_x
_atom_site_fract_y
_atom_site_fract_z
Si Si1 0.063626 0.658617 0.960409
Si Si2 0.474885 0.489624 0.347812
Si Si3 0.884262 0.827163 0.569266
Si Si4 0.841524 0.113797 0.355670
O O1 0.076755 0.553551 0.923163
O O2 0.088610 0.737699 0.886794
O O3 0.117765 0.675720 0.058102
O O4 0.953625 0.658329 0.982916
O O5 0.461387 0.538614 0.250000
O O6 0.436471 0.384529 0.349894
O O7 0.585694 0.473017 0.359237
O O8 0.782444 0.870710 0.571934
O O9 0.847341 0.152660 0.250000
#
# Coordination Sequence:
#
# PCOD9565663 Si02
#       4
#    16  16  16  16
#     4  11  21  40  64  89 127 171 211 267 334 401
#     4  10  22  38  61  92 127 168 210 262 328 395
#     4  10  20  37  63  91 121 161 213 272 330 387
#     4  10  23  41  62  92 128 165 217 272 328 405
#
# _framework density 21.599366
#
# number of rings (size 3 to 8) (size 9 to 14) (size 15 to 20)
#    0.000    1.750    0.000    6.000    0.000    8.500 
#    0.000    1.250    0.000    4.500    0.000    0.000 
#    0.000    0.000    0.000    0.000    0.000    0.000 
#
# Total GULP energy -356466.419835 kJ/mol
# GULP energy per Si atom -5569.787810 kJ/mol
# Density = 2.155021 g / cm^3
# Si number density = 21.599366 Si / 1000 Ang^3
#
#
#
# Elastic Constant Matrix: (Units=GPa)
#
#
# Indices 1 2 3 4 5 6 
#
# 1 85.2049 48.1730 43.9718 0.0000 0.0000 0.0000
# 2 48.1730 85.2049 43.9719 0.0000 0.0000 0.0000
# 3 43.9718 43.9719 155.3525 0.0000 0.0000 0.0000
# 4 0.0000 0.0000 0.0000 26.3439 0.0000 0.0000
# 5 0.0000 0.0000 0.0000 0.0000 26.3439 0.0000
# 6 0.0000 0.0000 0.0000 0.0000 0.0000 24.6644
#
#
#
# Elastic Compliance Matrix: (Units=1/GPa)
#
#
# Indices 1 2 3 4 5 6 
#
# 1 0.018111 -0.008893 -0.002609 0.000000 0.000000 0.000000
# 2 -0.008893 0.018111 -0.002609 0.000000 0.000000 0.000000
# 3 -0.002609 -0.002609 0.007914 0.000000 0.000000 0.000000
# 4 0.000000 0.000000 0.000000 0.037960 0.000000 0.000000
# 5 0.000000 0.000000 0.000000 0.000000 0.037959 0.000000
# 6 0.000000 0.000000 0.000000 0.000000 0.000000 0.040544
#
#
# Mechanical properties :
#
#
# Convention : Reuss Voigt Hill
#
# Bulk Modulus (GPa) = 62.84052 66.44397 64.64225
# Shear Modulus (GPa) = 25.75655 28.11347 26.93501
#
# Velocity S-wave (km/s) = 3.45696 3.61167 3.53516
# Velocity P-wave (km/s) = 6.71498 6.94413 6.83052
#
# Compressibility (1/GPa) = 0.01591330
#
# Stress axis : x y z
#
# Youngs Moduli (GPa) = 55.21578 55.21572 126.35931
#
# Poissons Ratio (x) = 0.49103 0.32968
# Poissons Ratio (y) = 0.49103 0.32968
# Poissons Ratio (z) = 0.14406 0.14406
#
# Static dielectric constant tensor:
#      x y z
#    x 1.821810 0.000000 0.000000 
#    y 0.000000 1.821810 0.000000 
#    z 0.000000 0.000000 1.840060 
# 
# From -- ./inp_files/2193.got.cif
#   From: 2010.05.17/outbox.cif.g08.bks.cpg/sg130_2_cif.got.tgz:2193.got - 2010.05.20 12:17:35.
