data_PCOD9565051
_publ_section_title
;
Structure prediction by ZEFSAII (Michael W. Deem and Ramdas Pophale) SiO2 
 PCOD9565051
Probable space group: P 4/M N C
;
_chemical_formula_sum "Si O2"
_cell_formula_units_Z 88
_cell_length_a 11.514797
_cell_length_b 11.514797
_cell_length_c 33.592068
_cell_angle_alpha 90.000000
_cell_angle_beta 90.000000
_cell_angle_gamma 90.000000
_cell_volume 4453.990770
_symmetry_space_group_name_H-M "P 4/M N C"
_symmetry_group_IT_number 128
_symmetry_cell_setting 'tetragonal'
loop_
_space_group_symop_operation_xyz
x,y,z
-y,x,z
-x,-y,z
y,-x,z
1/2+x,1/2-y,1/2-z
1/2-x,1/2+y,1/2-z
1/2+y,1/2+x,1/2-z
1/2-y,1/2-x,1/2-z
-x,-y,-z
y,-x,-z
x,y,-z
-y,x,-z
1/2-x,1/2+y,1/2+z
1/2+x,1/2-y,1/2+z
1/2-y,1/2-x,1/2+z
1/2+y,1/2+x,1/2+z
loop_
_atom_site_type_symbol
_atom_site_label
_atom_site_fract_x
_atom_site_fract_y
_atom_site_fract_z
Si Si1 0.190488 0.039688 0.276330
Si Si2 0.454526 0.312064 0.684283
Si Si3 0.114342 0.571896 0.842028
Si Si4 0.624179 0.940058 0.568104
Si Si5 0.006144 0.804525 0.500000
Si Si6 0.065977 0.823359 0.951728
O O1 0.229335 0.051286 0.230393
O O2 0.288690 0.057019 0.308695
O O3 0.086794 0.132433 0.281192
O O4 0.582059 0.365419 0.678685
O O5 0.423816 0.205833 0.656620
O O6 0.153825 0.534510 0.885945
O O7 0.000000 0.500000 0.831072
O O8 0.721336 0.986440 0.538246
O O9 0.608482 0.801687 0.562328
O O10 0.500000 0.000000 0.559325
O O11 0.891635 0.883910 0.500000
O O12 0.933604 0.854900 0.939287
O O13 0.066979 0.821106 0.000000
#
# Coordination Sequence:
#
# PCOD9565051 Si02
#       6
#    16  16  16  16   8  16
#     4   9  20  40  64  87 118 166 214 256 305 360
#     4   9  20  40  64  90 123 164 206 252 310 368
#     4  11  25  39  57  95 129 160 205 255 312 371
#     4  11  25  41  64  90 126 167 201 253 319 368
#     4  11  27  48  70  93 118 162 216 259 303 368
#     4   9  19  36  62  93 116 147 198 251 304 364
#
# _framework density 19.757562
#
# number of rings (size 3 to 8) (size 9 to 14) (size 15 to 20)
#    0.000    2.091    0.909    2.455    5.091    4.364 
#    0.000    3.636    0.000    0.000    0.000    0.000 
#    0.000    0.000    0.000    0.000    0.000    0.000 
#
# Total GULP energy -491808.883949 kJ/mol
# GULP energy per Si atom -5588.737318 kJ/mol
# Density = 1.971259 g / cm^3
# Si number density = 19.757562 Si / 1000 Ang^3
#
#
#
# Elastic Constant Matrix: (Units=GPa)
#
#
# Indices 1 2 3 4 5 6 
#
# 1 50.7663 23.0425 40.1683 0.0000 0.0000 0.0000
# 2 23.0425 50.7663 40.1683 0.0000 0.0000 0.0000
# 3 40.1683 40.1683 78.0874 0.0000 0.0000 0.0000
# 4 0.0000 0.0000 0.0000 -22.9722 0.0000 0.0000
# 5 0.0000 0.0000 0.0000 0.0000 -22.9722 0.0000
# 6 0.0000 0.0000 0.0000 0.0000 0.0000 5.6224
#
#
#
# Elastic Compliance Matrix: (Units=1/GPa)
#
#
# Indices 1 2 3 4 5 6 
#
# 1 0.033427 -0.002643 -0.015836 0.000000 0.000000 0.000000
# 2 -0.002643 0.033427 -0.015836 0.000000 0.000000 0.000000
# 3 -0.015836 -0.015836 0.029098 0.000000 0.000000 0.000000
# 4 0.000000 0.000000 0.000000 -0.043531 0.000000 0.000000
# 5 0.000000 0.000000 0.000000 0.000000 -0.043531 0.000000
# 6 0.000000 0.000000 0.000000 0.000000 0.000000 0.177861
#
#
# Mechanical properties :
#
#
# Convention : Reuss Voigt Hill
#
# Bulk Modulus (GPa) = 36.59698 42.93088 39.76393
# Shear Modulus (GPa) = 18.90441 -2.98167 7.96137
#
# Velocity S-wave (km/s) = 3.09661 -1.22980 2.00955
# Velocity P-wave (km/s) = 5.59897 4.44516 5.05510
#
# Compressibility (1/GPa) = 0.02732466
#
# Stress axis : x y z
#
# Youngs Moduli (GPa) = 29.91551 29.91551 34.36652
#
# Poissons Ratio (x) = 0.07906 0.54422
# Poissons Ratio (y) = 0.07906 0.54422
# Poissons Ratio (z) = 0.47374 0.47374
#
# Static dielectric constant tensor:
#      x y z
#    x 1.671640 0.000000 0.000000 
#    y 0.000000 1.671640 0.000000 
#    z 0.000000 0.000000 2.028760 
# 
# From -- ./inp_files/7253.got.cif
#   From: 2010.05.17/outbox.cif.g08.bks.cpg/sg128_4_cif.got.tgz:7253.got - 2010.05.20 12:07:25.
