data_PCOD9565636
_publ_section_title
;
Structure prediction by ZEFSAII (Michael W. Deem and Ramdas Pophale) SiO2 
 PCOD9565636
Probable space group: P 4/N C C
;
_chemical_formula_sum "Si O2"
_cell_formula_units_Z 88
_cell_length_a 15.534627
_cell_length_b 15.534627
_cell_length_c 19.750193
_cell_angle_alpha 90.000000
_cell_angle_beta 90.000000
_cell_angle_gamma 90.000000
_cell_volume 4766.208137
_symmetry_space_group_name_H-M "P 4/N C C"
_symmetry_group_IT_number 130
_symmetry_cell_setting 'tetragonal'
loop_
_space_group_symop_operation_xyz
x,y,z
1/2-y,x,z
1/2-x,1/2-y,z
y,1/2-x,z
1/2+x,-y,1/2-z
-x,1/2+y,1/2-z
1/2+y,1/2+x,1/2-z
-y,-x,1/2-z
-x,-y,-z
1/2+y,-x,-z
1/2+x,1/2+y,-z
-y,1/2+x,-z
1/2-x,y,1/2+z
x,1/2-y,1/2+z
1/2-y,1/2-x,1/2+z
y,x,1/2+z
loop_
_atom_site_type_symbol
_atom_site_label
_atom_site_fract_x
_atom_site_fract_y
_atom_site_fract_z
Si Si1 0.150953 0.648740 0.994303
Si Si2 0.561623 0.081041 0.138372
Si Si3 0.359481 0.859481 0.250000
Si Si4 0.387983 0.975459 0.118015
Si Si5 0.776348 0.891993 0.314323
Si Si6 0.030447 0.795908 0.233377
O O1 0.098883 0.630564 0.925984
O O2 0.137524 0.746956 0.017606
O O3 0.122656 0.582580 0.052249
O O4 0.639004 0.024648 0.171061
O O5 0.536825 0.146450 0.198780
O O6 0.477931 0.026286 0.119270
O O7 0.383937 0.916163 0.184832
O O8 0.384115 0.762294 0.230650
O O9 0.308723 0.042360 0.127895
O O10 0.684303 0.845677 0.317206
O O11 0.768520 0.950511 0.246516
#
# Coordination Sequence:
#
# PCOD9565636 Si02
#       6
#    16  16   8  16  16  16
#     4  11  24  41  60  85 120 161 203 252 307 363
#     4  11  22  38  57  90 120 160 202 250 300 367
#     4  10  20  35  58  92 118 161 192 250 304 360
#     4  11  22  38  62  87 123 158 202 250 305 361
#     4  10  20  36  60  88 118 156 200 246 296 360
#     4  10  21  36  61  90 126 153 201 249 307 360
#
# _framework density 18.463314
#
# number of rings (size 3 to 8) (size 9 to 14) (size 15 to 20)
#    0.000    1.455    1.818    4.909    2.545    2.909 
#    0.000    0.000    0.000    0.000    0.000    2.545 
#    0.000    0.000    0.000    0.000    0.000    0.000 
#
# Total GULP energy -490953.735730 kJ/mol
# GULP energy per Si atom -5579.019724 kJ/mol
# Density = 1.842129 g / cm^3
# Si number density = 18.463314 Si / 1000 Ang^3
#
#
#
# Elastic Constant Matrix: (Units=GPa)
#
#
# Indices 1 2 3 4 5 6 
#
# 1 170.2721 -30.6189 15.3272 0.0000 0.0000 0.0000
# 2 -30.6189 170.2721 15.3272 0.0000 0.0000 0.0000
# 3 15.3272 15.3272 38.8286 0.0000 0.0000 0.0000
# 4 0.0000 0.0000 0.0000 18.4329 0.0000 0.0000
# 5 0.0000 0.0000 0.0000 0.0000 18.4329 0.0000
# 6 0.0000 0.0000 0.0000 0.0000 0.0000 38.8903
#
#
#
# Elastic Compliance Matrix: (Units=1/GPa)
#
#
# Indices 1 2 3 4 5 6 
#
# 1 0.006409 0.001431 -0.003095 0.000000 0.000000 0.000000
# 2 0.001431 0.006409 -0.003095 0.000000 0.000000 0.000000
# 3 -0.003095 -0.003095 0.028197 0.000000 0.000000 0.000000
# 4 0.000000 0.000000 0.000000 0.054251 0.000000 0.000000
# 5 0.000000 0.000000 0.000000 0.000000 0.054251 0.000000
# 6 0.000000 0.000000 0.000000 0.000000 0.000000 0.025713
#
#
# Mechanical properties :
#
#
# Convention : Reuss Voigt Hill
#
# Bulk Modulus (GPa) = 31.74771 42.16043 36.95407
# Shear Modulus (GPa) = 25.60866 40.44037 33.02451
#
# Velocity S-wave (km/s) = 3.72829 4.68515 4.23384
# Velocity P-wave (km/s) = 5.98046 7.22162 6.63015
#
# Compressibility (1/GPa) = 0.03149833
#
# Stress axis : x y z
#
# Youngs Moduli (GPa) = 156.03389 156.03389 35.46421
#
# Poissons Ratio (x) = -0.22329 0.10975
# Poissons Ratio (y) = -0.22329 0.10975
# Poissons Ratio (z) = 0.48288 0.48288
#
# Static dielectric constant tensor:
#      x y z
#    x 1.675080 0.000000 0.000000 
#    y 0.000000 1.675080 0.000000 
#    z 0.000000 0.000000 1.591770 
# 
# From -- ./inp_files/3690.got.cif
#   From: 2010.05.17/outbox.cif.g08.bks.cpg/sg130_2_cif.got.tgz:3690.got - 2010.05.20 12:17:35.
