data_PCOD9565543
_publ_section_title
;
Structure prediction by ZEFSAII (Michael W. Deem and Ramdas Pophale) SiO2 
 PCOD9565543
Probable space group: P 4/N C C
;
_chemical_formula_sum "Si O2"
_cell_formula_units_Z 116
_cell_length_a 29.407235
_cell_length_b 29.407235
_cell_length_c 10.183138
_cell_angle_alpha 90.000000
_cell_angle_beta 90.000000
_cell_angle_gamma 90.000000
_cell_volume 8806.229785
_symmetry_space_group_name_H-M "P 4/N C C"
_symmetry_group_IT_number 130
_symmetry_cell_setting 'tetragonal'
loop_
_space_group_symop_operation_xyz
x,y,z
1/2-y,x,z
1/2-x,1/2-y,z
y,1/2-x,z
1/2+x,-y,1/2-z
-x,1/2+y,1/2-z
1/2+y,1/2+x,1/2-z
-y,-x,1/2-z
-x,-y,-z
1/2+y,-x,-z
1/2+x,1/2+y,-z
-y,1/2+x,-z
1/2-x,y,1/2+z
x,1/2-y,1/2+z
1/2-y,1/2-x,1/2+z
y,x,1/2+z
loop_
_atom_site_type_symbol
_atom_site_label
_atom_site_fract_x
_atom_site_fract_y
_atom_site_fract_z
Si Si1 0.821189 0.178812 0.902695
Si Si2 0.579911 0.209972 0.404660
Si Si3 0.088466 0.510514 0.250000
Si Si4 0.963332 0.114560 0.532716
Si Si5 0.963332 0.385440 0.467285
Si Si6 0.014986 0.437322 0.250000
Si Si7 0.209972 0.920089 0.095341
Si Si8 0.750000 0.250000 0.000000
O O1 0.830079 0.169922 0.750000
O O2 0.869300 0.196414 0.955218
O O3 0.803586 0.130700 0.955216
O O4 0.782985 0.217015 0.918953
O O5 0.551039 0.163925 0.417544
O O6 0.581964 0.223401 0.250000
O O7 0.563302 0.250000 0.500000
O O8 0.047938 0.547938 0.250000
O O9 0.115466 0.520016 0.383030
O O10 0.063587 0.461670 0.250000
O O11 0.115466 0.520016 0.116970
O O12 0.919580 0.080420 0.542657
O O13 0.948961 0.163924 0.582457
O O14 0.002281 0.092248 0.622911
O O15 0.002281 0.407752 0.377089
O O16 0.978336 0.478336 0.250000
#
# Coordination Sequence:
#
# PCOD9565543 Si02
#       8
#    16  16  16  16  16  16  16   4
#     4  10  21  33  47  58  76  99 134 178 235 277
#     4  11  22  35  47  62  80 109 143 177 222 274
#     4   9  18  28  43  70  92 104 131 164 205 262
#     4  10  18  30  47  64  87 113 135 169 216 267
#     4  10  18  30  47  64  87 113 135 169 216 267
#     4   9  16  28  47  66  86 112 133 160 205 264
#     4  11  22  35  47  62  80 109 143 177 222 274
#     4  12  18  36  44  66  68  96 134 200 230 268
#
# _framework density 13.172492999999999
#
# number of rings (size 3 to 8) (size 9 to 14) (size 15 to 20)
#    0.000    1.931    4.138    1.034    1.931    3.310 
#    0.000    0.690    0.000    0.000    0.000    0.000 
#    0.000    0.000    0.000    0.000    0.000    0.000 
#
# Total GULP energy -646352.745752 kJ/mol
# GULP energy per Si atom -5572.006429 kJ/mol
# Density = 1.314251 g / cm^3
# Si number density = 13.172493 Si / 1000 Ang^3
#
#
#
# Elastic Constant Matrix: (Units=GPa)
#
#
# Indices 1 2 3 4 5 6 
#
# 1 33.6004 18.1202 10.9823 0.0000 0.0000 0.0000
# 2 18.1202 33.6004 10.9824 0.0000 0.0000 0.0000
# 3 10.9823 10.9824 77.6061 0.0000 0.0000 0.0000
# 4 0.0000 0.0000 0.0000 14.6161 0.0000 0.0000
# 5 0.0000 0.0000 0.0000 0.0000 14.6161 0.0000
# 6 0.0000 0.0000 0.0000 0.0000 0.0000 7.3215
#
#
#
# Elastic Compliance Matrix: (Units=1/GPa)
#
#
# Indices 1 2 3 4 5 6 
#
# 1 0.042585 -0.022014 -0.002911 0.000000 0.000000 0.000000
# 2 -0.022014 0.042585 -0.002911 0.000000 0.000000 0.000000
# 3 -0.002911 -0.002911 0.013709 0.000000 0.000000 0.000000
# 4 0.000000 0.000000 0.000000 0.068418 0.000000 0.000000
# 5 0.000000 0.000000 0.000000 0.000000 0.068418 0.000000
# 6 0.000000 0.000000 0.000000 0.000000 0.000000 0.136583
#
#
# Mechanical properties :
#
#
# Convention : Reuss Voigt Hill
#
# Bulk Modulus (GPa) = 23.14438 24.99743 24.07091
# Shear Modulus (GPa) = 11.30270 14.29221 12.79745
#
# Velocity S-wave (km/s) = 2.93243 3.29751 3.12032
# Velocity P-wave (km/s) = 5.39202 5.78933 5.59420
#
# Compressibility (1/GPa) = 0.04320703
#
# Stress axis : x y z
#
# Youngs Moduli (GPa) = 23.48260 23.48256 72.94215
#
# Poissons Ratio (x) = 0.51694 0.21234
# Poissons Ratio (y) = 0.51694 0.21234
# Poissons Ratio (z) = 0.06836 0.06836
#
# Static dielectric constant tensor:
#      x y z
#    x 1.421480 0.000000 0.000000 
#    y 0.000000 1.421480 0.000000 
#    z 0.000000 0.000000 1.453380 
# 
# From -- ./inp_files/1106.got.cif
#   From: 2010.05.17/outbox.cif.g08.bks.cpg/sg130_1_cif.got.tgz:1106.got - 2010.05.20 12:17:35.
