data_PCOD9565959
_publ_section_title
;
Structure prediction by ZEFSAII (Michael W. Deem and Ramdas Pophale) SiO2 
 PCOD9565959
Probable space group: P 4/N C C
;
_chemical_formula_sum "Si O2"
_cell_formula_units_Z 84
_cell_length_a 12.643168
_cell_length_b 12.643168
_cell_length_c 24.473429
_cell_angle_alpha 90.000000
_cell_angle_beta 90.000000
_cell_angle_gamma 90.000000
_cell_volume 3912.070212
_symmetry_space_group_name_H-M "P 4/N C C"
_symmetry_group_IT_number 130
_symmetry_cell_setting 'tetragonal'
loop_
_space_group_symop_operation_xyz
x,y,z
1/2-y,x,z
1/2-x,1/2-y,z
y,1/2-x,z
1/2+x,-y,1/2-z
-x,1/2+y,1/2-z
1/2+y,1/2+x,1/2-z
-y,-x,1/2-z
-x,-y,-z
1/2+y,-x,-z
1/2+x,1/2+y,-z
-y,1/2+x,-z
1/2-x,y,1/2+z
x,1/2-y,1/2+z
1/2-y,1/2-x,1/2+z
y,x,1/2+z
loop_
_atom_site_type_symbol
_atom_site_label
_atom_site_fract_x
_atom_site_fract_y
_atom_site_fract_z
Si Si1 0.353708 0.388970 0.525551
Si Si2 0.354308 0.111796 0.894567
Si Si3 0.505388 0.059105 0.624031
Si Si4 0.125401 0.459596 0.724087
Si Si5 0.298595 0.865795 0.193681
Si Si6 0.750000 0.750000 0.238969
O O1 0.229190 0.393110 0.538990
O O2 0.362033 0.400528 0.460342
O O3 0.414891 0.471079 0.562884
O O4 0.391786 0.230927 0.880402
O O5 0.435098 0.029240 0.869784
O O6 0.604965 0.127864 0.642930
O O7 0.416788 0.091359 0.667598
O O8 0.028209 0.528209 0.750000
O O9 0.209326 0.547740 0.705165
O O10 0.180343 0.363972 0.757358
O O11 0.250000 0.750000 0.186548
O O12 0.363658 0.863658 0.250000
#
# Coordination Sequence:
#
# PCOD9565959 Si02
#       6
#    16  16  16  16  16   4
#     4   9  19  38  64  89 125 166 210 275 344 406
#     4   9  21  41  59  89 131 171 217 274 338 415
#     4  12  23  36  67  98 121 167 226 279 340 413
#     4  12  26  45  68  99 134 179 229 295 354 421
#     4  11  24  45  66  87 138 181 220 279 367 429
#     4  12  28  48  72 104 140 174 256 292 352 448
#
# _framework density 21.472006
#
# number of rings (size 3 to 8) (size 9 to 14) (size 15 to 20)
#    0.000    1.333    3.810    3.429    2.667    0.000 
#    0.000    0.000    0.000    0.000    0.000    0.000 
#    0.000    0.000    0.000    0.000    0.000    0.000 
#
# Total GULP energy -468329.498726 kJ/mol
# GULP energy per Si atom -5575.351175 kJ/mol
# Density = 2.142313 g / cm^3
# Si number density = 21.472006 Si / 1000 Ang^3
#
#
#
# Elastic Constant Matrix: (Units=GPa)
#
#
# Indices 1 2 3 4 5 6 
#
# 1 -90.5806 218.9008 20.7241 0.0000 0.0000 0.0000
# 2 218.9008 -90.5806 20.7241 0.0000 0.0000 0.0000
# 3 20.7241 20.7241 62.1610 0.0000 0.0000 0.0000
# 4 0.0000 0.0000 0.0000 28.8239 0.0000 0.0000
# 5 0.0000 0.0000 0.0000 0.0000 28.8239 0.0000
# 6 0.0000 0.0000 0.0000 0.0000 0.0000 54.9442
#
#
#
# Elastic Compliance Matrix: (Units=1/GPa)
#
#
# Indices 1 2 3 4 5 6 
#
# 1 0.002751 0.005982 -0.002912 0.000000 0.000000 0.000000
# 2 0.005982 0.002751 -0.002912 0.000000 0.000000 0.000000
# 3 -0.002912 -0.002912 0.018029 0.000000 0.000000 0.000000
# 4 0.000000 0.000000 0.000000 0.034693 0.000000 0.000000
# 5 0.000000 0.000000 0.000000 0.000000 0.034693 0.000000
# 6 0.000000 0.000000 0.000000 0.000000 0.000000 0.018200
#
#
# Mechanical properties :
#
#
# Convention : Reuss Voigt Hill
#
# Bulk Modulus (GPa) = 41.93053 44.63307 43.28180
# Shear Modulus (GPa) = 42.10534 -2.77153 19.66690
#
# Velocity S-wave (km/s) = 4.43306 -1.13735 3.02972
# Velocity P-wave (km/s) = 6.76558 4.37116 5.69561
#
# Compressibility (1/GPa) = 0.02384897
#
# Stress axis : x y z
#
# Youngs Moduli (GPa) = 363.48545 363.48545 55.46703
#
# Poissons Ratio (x) = -2.17450 0.16150
# Poissons Ratio (y) = -2.17450 0.16150
# Poissons Ratio (z) = 1.05836 1.05836
#
# Static dielectric constant tensor:
#      x y z
#    x 1.863970 0.000000 0.000000 
#    y 0.000000 1.863970 0.000000 
#    z 0.000000 0.000000 1.803190 
# 
# From -- ./inp_files/4870.got.cif
#   From: 2010.05.17/outbox.cif.g08.bks.cpg/sg130_3_cif.got.tgz:4870.got - 2010.05.20 12:17:35.
