data_PCOD9565360
_publ_section_title
;
Structure prediction by ZEFSAII (Michael W. Deem and Ramdas Pophale) SiO2 
 PCOD9565360
Probable space group: P 4/N M M
;
_chemical_formula_sum "Si O2"
_cell_formula_units_Z 112
_cell_length_a 18.532660
_cell_length_b 18.532660
_cell_length_c 22.051578
_cell_angle_alpha 90.000000
_cell_angle_beta 90.000000
_cell_angle_gamma 90.000000
_cell_volume 7573.823660
_symmetry_space_group_name_H-M "P 4/N M M"
_symmetry_group_IT_number 129
_symmetry_cell_setting 'tetragonal'
loop_
_space_group_symop_operation_xyz
x,y,z
1/2-y,x,z
1/2-x,1/2-y,z
y,1/2-x,z
1/2+x,-y,-z
-x,1/2+y,-z
1/2+y,1/2+x,-z
-y,-x,-z
-x,-y,-z
1/2+y,-x,-z
1/2+x,1/2+y,-z
-y,1/2+x,-z
1/2-x,y,z
x,1/2-y,z
1/2-y,1/2-x,z
y,x,z
loop_
_atom_site_type_symbol
_atom_site_label
_atom_site_fract_x
_atom_site_fract_y
_atom_site_fract_z
Si Si1 0.832267 0.401868 0.940935
Si Si2 0.167077 0.896914 0.438682
Si Si3 0.019961 0.597574 0.127367
Si Si4 0.551925 0.831577 0.010231
Si Si5 0.044903 0.163749 0.752324
Si Si6 0.048856 0.333624 0.502547
Si Si7 0.034575 0.664169 0.373708
O O1 0.750000 0.385021 0.921688
O O2 0.896113 0.397706 0.891466
O O3 0.853960 0.353960 0.000000
O O4 0.834215 0.483779 0.965580
O O5 0.147558 0.852443 0.500000
O O6 0.250000 0.883438 0.421945
O O7 0.109215 0.875731 0.388142
O O8 0.158834 0.980268 0.458314
O O9 0.982122 0.517879 0.126133
O O10 0.978318 0.642179 0.075090
O O11 0.001433 0.633715 0.191354
O O12 0.578378 0.750000 0.014576
O O13 0.613601 0.886400 0.990850
O O14 0.054745 0.250000 0.756832
O O15 0.120066 0.120066 0.752975
O O16 0.003303 0.147391 0.689636
O O17 0.071588 0.250000 0.502351
O O18 0.112596 0.387405 0.486805
O O19 0.018404 0.351134 0.569723
O O20 0.049002 0.750000 0.375617
#
# Coordination Sequence:
#
# PCOD9565360 Si02
#       7
#    16  16  16  16  16  16  16
#     4   9  17  29  45  64  85 110 141 175 211 252
#     4   9  17  28  44  66  88 111 141 175 210 251
#     4   9  17  30  46  62  83 112 144 176 210 249
#     4   9  16  26  42  64  88 113 140 171 208 250
#     4  10  20  33  48  65  86 113 144 176 208 244
#     4   9  17  28  42  62  86 111 141 176 213 253
#     4   9  18  30  43  62  87 113 142 173 206 247
#
# _framework density 14.787775999999999
#
# number of rings (size 3 to 8) (size 9 to 14) (size 15 to 20)
#    0.000    2.857    0.000    2.571    0.000    7.000 
#    0.000    0.714    0.000    6.000    0.000    0.000 
#    0.000    0.000    0.000    0.000    0.000   36.286 
#
# Total GULP energy -623828.352528 kJ/mol
# GULP energy per Si atom -5569.896005 kJ/mol
# Density = 1.475412 g / cm^3
# Si number density = 14.787776 Si / 1000 Ang^3
#
#
#
# Elastic Constant Matrix: (Units=GPa)
#
#
# Indices 1 2 3 4 5 6 
#
# 1 90.9183 59.9916 28.1356 0.0000 0.0000 0.0000
# 2 59.9916 90.9186 28.1351 0.0000 0.0000 0.0000
# 3 28.1356 28.1351 55.7432 0.0000 0.0000 0.0000
# 4 0.0000 0.0000 0.0000 14.3294 0.0000 0.0000
# 5 0.0000 0.0000 0.0000 0.0000 14.3293 0.0000
# 6 0.0000 0.0000 0.0000 0.0000 0.0000 37.1449
#
#
#
# Elastic Compliance Matrix: (Units=1/GPa)
#
#
# Indices 1 2 3 4 5 6 
#
# 1 0.020249 -0.012086 -0.004120 0.000000 0.000000 0.000000
# 2 -0.012086 0.020248 -0.004120 0.000000 0.000000 0.000000
# 3 -0.004120 -0.004120 0.022098 0.000000 0.000000 0.000000
# 4 0.000000 0.000000 0.000000 0.069787 0.000000 0.000000
# 5 0.000000 0.000000 0.000000 0.000000 0.069787 0.000000
# 6 0.000000 0.000000 0.000000 0.000000 0.000000 0.026922
#
#
# Mechanical properties :
#
#
# Convention : Reuss Voigt Hill
#
# Bulk Modulus (GPa) = 45.57079 52.23386 48.90232
# Shear Modulus (GPa) = 18.04682 21.24856 19.64769
#
# Velocity S-wave (km/s) = 3.49719 3.79476 3.64901
# Velocity P-wave (km/s) = 6.86954 7.38913 7.13407
#
# Compressibility (1/GPa) = 0.02194388
#
# Stress axis : x y z
#
# Youngs Moduli (GPa) = 49.38603 49.38658 45.25223
#
# Poissons Ratio (x) = 0.59688 0.18645
# Poissons Ratio (y) = 0.59687 0.18643
# Poissons Ratio (z) = 0.20348 0.20346
#
# Static dielectric constant tensor:
#      x y z
#    x 1.490250 0.000000 0.000000 
#    y 0.000000 1.490250 0.000000 
#    z 0.000000 0.000000 1.471360 
# 
# From -- ./inp_files/6658.got.cif
#   From: 2010.05.17/outbox.cif.g08.bks.cpg/sg129_4_cif.got.tgz:6658.got - 2010.05.20 12:12:06.
