data_PCOD9565432
_publ_section_title
;
Structure prediction by ZEFSAII (Michael W. Deem and Ramdas Pophale) SiO2 
 PCOD9565432
Probable space group: P 4/N M M
;
_chemical_formula_sum "Si O2"
_cell_formula_units_Z 96
_cell_length_a 22.495563
_cell_length_b 22.495563
_cell_length_c 9.227548
_cell_angle_alpha 90.000000
_cell_angle_beta 90.000000
_cell_angle_gamma 90.000000
_cell_volume 4669.603938
_symmetry_space_group_name_H-M "P 4/N M M"
_symmetry_group_IT_number 129
_symmetry_cell_setting 'tetragonal'
loop_
_space_group_symop_operation_xyz
x,y,z
1/2-y,x,z
1/2-x,1/2-y,z
y,1/2-x,z
1/2+x,-y,-z
-x,1/2+y,-z
1/2+y,1/2+x,-z
-y,-x,-z
-x,-y,-z
1/2+y,-x,-z
1/2+x,1/2+y,-z
-y,1/2+x,-z
1/2-x,y,z
x,1/2-y,z
1/2-y,1/2-x,z
y,x,z
loop_
_atom_site_type_symbol
_atom_site_label
_atom_site_fract_x
_atom_site_fract_y
_atom_site_fract_z
Si Si1 0.390135 0.979274 0.554740
Si Si2 0.082860 0.681809 0.686698
Si Si3 0.180643 0.180643 0.236699
Si Si4 0.679794 0.820207 0.282715
Si Si5 0.376957 0.376957 0.981983
Si Si6 0.615301 0.615301 0.528843
Si Si7 0.814281 0.506576 0.943289
Si Si8 0.426351 0.875097 0.141281
O O1 0.452981 0.952981 0.500000
O O2 0.343151 0.936856 0.469342
O O3 0.390930 0.970455 0.727508
O O4 0.375656 0.046140 0.508700
O O5 0.102915 0.750000 0.680972
O O6 0.126141 0.636773 0.774216
O O7 0.023737 0.679010 0.787360
O O8 0.250000 0.168624 0.270059
O O9 0.167134 0.167134 0.069520
O O10 0.134806 0.134806 0.311307
O O11 0.668772 0.750000 0.262458
O O12 0.658727 0.841274 0.439911
O O13 0.639034 0.860967 0.181354
O O14 0.362221 0.444366 0.020165
O O15 0.750000 0.536165 0.951060
O O16 0.818494 0.453909 0.061434
O O17 0.418150 0.918150 0.000000
#
# Coordination Sequence:
#
# PCOD9565432 Si02
#       8
#    16  16   8   8   8   8  16  16
#     4  10  21  36  54  81 113 146 189 242 301 359
#     4   9  19  36  58  83 114 150 189 237 294 359
#     4  11  24  41  60  85 120 165 218 269 311 354
#     4  11  24  39  52  72 105 143 187 241 294 342
#     4  12  22  35  57  84 113 155 205 250 300 356
#     4  12  23  37  57  77 106 149 197 249 304 367
#     4  10  20  35  55  83 117 153 199 249 296 352
#     4   9  19  37  58  83 116 155 192 236 297 359
#
# _framework density 20.558488000000001
#
# number of rings (size 3 to 8) (size 9 to 14) (size 15 to 20)
#    0.000    1.833    0.000    4.250    0.000    4.667 
#    0.000   10.000    0.000    0.500    0.000    3.500 
#    0.000    0.000    0.000    0.000    0.000    0.000 
#
# Total GULP energy -534956.090462 kJ/mol
# GULP energy per Si atom -5572.459276 kJ/mol
# Density = 2.051170 g / cm^3
# Si number density = 20.558488 Si / 1000 Ang^3
#
#
#
# Elastic Constant Matrix: (Units=GPa)
#
#
# Indices 1 2 3 4 5 6 
#
# 1 288.5254 -179.5749 8.9830 0.0000 0.0000 0.0000
# 2 -179.5749 288.5254 8.9830 0.0000 0.0000 0.0000
# 3 8.9830 8.9830 103.6854 0.0000 0.0000 0.0000
# 4 0.0000 0.0000 0.0000 41.2481 0.0000 0.0000
# 5 0.0000 0.0000 0.0000 0.0000 41.2481 0.0000
# 6 0.0000 0.0000 0.0000 0.0000 0.0000 27.8371
#
#
#
# Elastic Compliance Matrix: (Units=1/GPa)
#
#
# Indices 1 2 3 4 5 6 
#
# 1 0.005724 0.003588 -0.000807 0.000000 0.000000 0.000000
# 2 0.003588 0.005724 -0.000807 0.000000 0.000000 0.000000
# 3 -0.000807 -0.000807 0.009784 0.000000 0.000000 0.000000
# 4 0.000000 0.000000 0.000000 0.024244 0.000000 0.000000
# 5 0.000000 0.000000 0.000000 0.000000 0.024244 0.000000
# 6 0.000000 0.000000 0.000000 0.000000 0.000000 0.035923
#
#
# Mechanical properties :
#
#
# Convention : Reuss Voigt Hill
#
# Bulk Modulus (GPa) = 39.71331 39.72426 39.71878
# Shear Modulus (GPa) = 45.41833 78.22299 61.82066
#
# Velocity S-wave (km/s) = 4.70534 6.17508 5.48962
# Velocity P-wave (km/s) = 6.99138 8.37894 7.71641
#
# Compressibility (1/GPa) = 0.02518048
#
# Stress axis : x y z
#
# Youngs Moduli (GPa) = 174.70595 174.70595 102.20413
#
# Poissons Ratio (x) = -0.62678 0.08245
# Poissons Ratio (y) = -0.62678 0.08245
# Poissons Ratio (z) = 0.14094 0.14094
#
# Static dielectric constant tensor:
#      x y z
#    x 1.735790 0.000000 0.000000 
#    y 0.000000 1.735790 0.000000 
#    z 0.000000 0.000000 1.737950 
# 
# From -- ./inp_files/2732.got.cif
#   From: 2010.05.17/outbox.cif.g08.bks.cpg/sg129_2_cif.got.tgz:2732.got - 2010.05.20 12:12:06.
