data_PCOD9565852
_publ_section_title
;
Structure prediction by ZEFSAII (Michael W. Deem and Ramdas Pophale) SiO2 
 PCOD9565852
Probable space group: P 4/N C C
;
_chemical_formula_sum "Si O2"
_cell_formula_units_Z 88
_cell_length_a 16.921601
_cell_length_b 16.921601
_cell_length_c 14.511087
_cell_angle_alpha 90.000000
_cell_angle_beta 90.000000
_cell_angle_gamma 90.000000
_cell_volume 4155.113074
_symmetry_space_group_name_H-M "P 4/N C C"
_symmetry_group_IT_number 130
_symmetry_cell_setting 'tetragonal'
loop_
_space_group_symop_operation_xyz
x,y,z
1/2-y,x,z
1/2-x,1/2-y,z
y,1/2-x,z
1/2+x,-y,1/2-z
-x,1/2+y,1/2-z
1/2+y,1/2+x,1/2-z
-y,-x,1/2-z
-x,-y,-z
1/2+y,-x,-z
1/2+x,1/2+y,-z
-y,1/2+x,-z
1/2-x,y,1/2+z
x,1/2-y,1/2+z
1/2-y,1/2-x,1/2+z
y,x,1/2+z
loop_
_atom_site_type_symbol
_atom_site_label
_atom_site_fract_x
_atom_site_fract_y
_atom_site_fract_z
Si Si1 0.142214 0.506736 0.406450
Si Si2 0.751893 0.377427 0.498363
Si Si3 0.471806 0.217147 0.616701
Si Si4 0.989220 0.489220 0.750000
Si Si5 0.445036 0.102909 0.089884
Si Si6 0.877902 0.785667 0.699283
O O1 0.209676 0.571670 0.419776
O O2 0.080463 0.518201 0.324826
O O3 0.094628 0.502544 0.502546
O O4 0.188523 0.424488 0.391403
O O5 0.822408 0.319169 0.468265
O O6 0.725542 0.437863 0.417704
O O7 0.434863 0.302833 0.597432
O O8 0.436948 0.139156 0.569049
O O9 0.444084 0.203809 0.721675
O O10 0.980205 0.566585 0.815121
O O11 0.802440 0.843337 0.706346
#
# Coordination Sequence:
#
# PCOD9565852 Si02
#       6
#    16  16  16   8  16  16
#     4  11  25  43  72 101 136 184 233 293 349 420
#     4  10  24  46  69  93 136 185 238 294 342 412
#     4  11  21  45  67 100 137 181 227 291 349 425
#     4  12  22  46  66  99 142 179 234 294 348 422
#     4  11  25  41  68 101 141 181 232 287 359 418
#     4  11  23  43  69 103 145 181 226 287 353 432
#
# _framework density 21.178728
#
# number of rings (size 3 to 8) (size 9 to 14) (size 15 to 20)
#    0.000    1.091    3.636    1.636    5.091    1.818 
#    6.545    0.000    0.000    0.000    0.000    0.000 
#    0.000    0.000    0.000    0.000    0.000    0.000 
#
# Total GULP energy -490790.368424 kJ/mol
# GULP energy per Si atom -5577.163278 kJ/mol
# Density = 2.113052 g / cm^3
# Si number density = 21.178728 Si / 1000 Ang^3
#
#
#
# Elastic Constant Matrix: (Units=GPa)
#
#
# Indices 1 2 3 4 5 6 
#
# 1 100.8226 53.3358 22.0461 0.0000 0.0000 0.0000
# 2 53.3358 100.8226 22.0461 0.0000 0.0000 0.0000
# 3 22.0461 22.0461 99.0588 0.0000 0.0000 0.0000
# 4 0.0000 0.0000 0.0000 31.1728 0.0000 0.0000
# 5 0.0000 0.0000 0.0000 0.0000 31.1728 0.0000
# 6 0.0000 0.0000 0.0000 0.0000 0.0000 38.5970
#
#
#
# Elastic Compliance Matrix: (Units=1/GPa)
#
#
# Indices 1 2 3 4 5 6 
#
# 1 0.013993 -0.007065 -0.001542 0.000000 0.000000 0.000000
# 2 -0.007065 0.013993 -0.001542 0.000000 0.000000 0.000000
# 3 -0.001542 -0.001542 0.010781 0.000000 0.000000 0.000000
# 4 0.000000 0.000000 0.000000 0.032079 0.000000 0.000000
# 5 0.000000 0.000000 0.000000 0.000000 0.032079 0.000000
# 6 0.000000 0.000000 0.000000 0.000000 0.000000 0.025909
#
#
# Mechanical properties :
#
#
# Convention : Reuss Voigt Hill
#
# Bulk Modulus (GPa) = 54.14288 55.06220 54.60254
# Shear Modulus (GPa) = 32.19796 33.74026 32.96911
#
# Velocity S-wave (km/s) = 3.90333 3.99572 3.94980
# Velocity P-wave (km/s) = 6.77753 6.88062 6.82927
#
# Compressibility (1/GPa) = 0.01846965
#
# Stress axis : x y z
#
# Youngs Moduli (GPa) = 71.46354 71.46354 92.75325
#
# Poissons Ratio (x) = 0.50491 0.14301
# Poissons Ratio (y) = 0.50491 0.14301
# Poissons Ratio (z) = 0.11018 0.11018
#
# Static dielectric constant tensor:
#      x y z
#    x 1.789410 0.000000 0.000000 
#    y 0.000000 1.789410 0.000000 
#    z 0.000000 0.000000 1.822600 
# 
# From -- ./inp_files/2363.got.cif
#   From: 2010.05.17/outbox.cif.g08.bks.cpg/sg130_2_cif.got.tgz:2363.got - 2010.05.20 12:17:35.
