data_PCOD9565454
_publ_section_title
;
Structure prediction by ZEFSAII (Michael W. Deem and Ramdas Pophale) SiO2 
 PCOD9565454
Probable space group: P 4/N M M
;
_chemical_formula_sum "Si O2"
_cell_formula_units_Z 96
_cell_length_a 22.387990
_cell_length_b 22.387990
_cell_length_c 11.541546
_cell_angle_alpha 90.000000
_cell_angle_beta 90.000000
_cell_angle_gamma 90.000000
_cell_volume 5784.877880
_symmetry_space_group_name_H-M "P 4/N M M"
_symmetry_group_IT_number 129
_symmetry_cell_setting 'tetragonal'
loop_
_space_group_symop_operation_xyz
x,y,z
1/2-y,x,z
1/2-x,1/2-y,z
y,1/2-x,z
1/2+x,-y,-z
-x,1/2+y,-z
1/2+y,1/2+x,-z
-y,-x,-z
-x,-y,-z
1/2+y,-x,-z
1/2+x,1/2+y,-z
-y,1/2+x,-z
1/2-x,y,z
x,1/2-y,z
1/2-y,1/2-x,z
y,x,z
loop_
_atom_site_type_symbol
_atom_site_label
_atom_site_fract_x
_atom_site_fract_y
_atom_site_fract_z
Si Si1 0.457632 0.680488 0.488803
Si Si2 0.086294 0.183175 0.398358
Si Si3 0.016777 0.915842 0.898451
Si Si4 0.820549 0.579704 0.879913
Si Si5 0.105607 0.890737 0.691310
Si Si6 0.318038 0.821599 0.128085
O O1 0.443550 0.750000 0.464921
O O2 0.525654 0.676356 0.530582
O O3 0.419126 0.655722 0.596472
O O4 0.442823 0.638016 0.380614
O O5 0.110010 0.250000 0.416983
O O6 0.133738 0.133738 0.431502
O O7 0.074102 0.177610 0.260415
O O8 0.053366 0.909418 0.779327
O O9 0.979703 0.854889 0.925295
O O10 0.060054 0.939947 0.000000
O O11 0.965702 0.965702 0.882924
O O12 0.750000 0.584200 0.912564
O O13 0.861765 0.638236 0.909036
O O14 0.153780 0.858610 0.771677
O O15 0.250000 0.843337 0.143535
O O16 0.316695 0.750000 0.127935
O O17 0.339622 0.839622 0.000000
#
# Coordination Sequence:
#
# PCOD9565454 Si02
#       6
#    16  16  16  16  16  16
#     4  10  21  33  47  71 102 132 168 214 254 301
#     4   9  17  31  50  73 101 129 160 200 248 302
#     4  10  21  36  52  75 106 137 175 220 262 313
#     4   9  17  31  52  77 106 137 169 211 264 317
#     4  11  20  32  51  70  94 135 175 206 253 310
#     4   9  18  32  49  69  93 121 159 211 261 302
#
# _framework density 16.594991
#
# number of rings (size 3 to 8) (size 9 to 14) (size 15 to 20)
#    0.000    2.333    1.667    2.000    0.000    1.667 
#    0.000    5.000    0.000    4.000    0.000    0.000 
#    0.000    0.000    0.000    5.000    0.000    0.333 
#
# Total GULP energy -534947.505604 kJ/mol
# GULP energy per Si atom -5572.369850 kJ/mol
# Density = 1.655722 g / cm^3
# Si number density = 16.594991 Si / 1000 Ang^3
#
#
#
# Elastic Constant Matrix: (Units=GPa)
#
#
# Indices 1 2 3 4 5 6 
#
# 1 83.4057 53.7684 25.8060 0.0000 0.0000 0.0000
# 2 53.7684 83.4054 25.8054 0.0000 0.0000 0.0000
# 3 25.8060 25.8054 58.9305 0.0000 0.0000 0.0000
# 4 0.0000 0.0000 0.0000 15.7160 0.0000 0.0000
# 5 0.0000 0.0000 0.0000 0.0000 15.7145 0.0000
# 6 0.0000 0.0000 0.0000 0.0000 0.0000 28.0663
#
#
#
# Elastic Compliance Matrix: (Units=1/GPa)
#
#
# Indices 1 2 3 4 5 6 
#
# 1 0.021235 -0.012507 -0.003822 0.000000 0.000000 0.000000
# 2 -0.012507 0.021235 -0.003822 0.000000 0.000000 0.000000
# 3 -0.003822 -0.003822 0.020316 0.000000 0.000000 0.000000
# 4 0.000000 0.000000 0.000000 0.063630 0.000000 0.000000
# 5 0.000000 0.000000 0.000000 0.000000 0.063636 0.000000
# 6 0.000000 0.000000 0.000000 0.000000 0.000000 0.035630
#
#
# Mechanical properties :
#
#
# Convention : Reuss Voigt Hill
#
# Bulk Modulus (GPa) = 44.47513 48.50016 46.48764
# Shear Modulus (GPa) = 18.28305 19.92346 19.10326
#
# Velocity S-wave (km/s) = 3.32282 3.46868 3.39654
# Velocity P-wave (km/s) = 6.44826 6.73287 6.59210
#
# Compressibility (1/GPa) = 0.02248448
#
# Stress axis : x y z
#
# Youngs Moduli (GPa) = 47.09254 47.09266 49.22116
#
# Poissons Ratio (x) = 0.58897 0.18813
# Poissons Ratio (y) = 0.58897 0.18812
# Poissons Ratio (z) = 0.18000 0.17998
#
# Static dielectric constant tensor:
#      x y z
#    x 1.568040 0.000000 0.000000 
#    y 0.000000 1.568030 0.000000 
#    z 0.000000 0.000000 1.534420 
# 
# From -- ./inp_files/3897.got.cif
#   From: 2010.05.17/outbox.cif.g08.bks.cpg/sg129_2_cif.got.tgz:3897.got - 2010.05.20 12:12:06.
