data_PCOD9565004
_publ_section_title
;
Structure prediction by ZEFSAII (Michael W. Deem and Ramdas Pophale) SiO2 
 PCOD9565004
Probable space group: P 4/M N C
;
_chemical_formula_sum "Si O2"
_cell_formula_units_Z 88
_cell_length_a 12.388979
_cell_length_b 12.388979
_cell_length_c 29.434079
_cell_angle_alpha 90.000000
_cell_angle_beta 90.000000
_cell_angle_gamma 90.000000
_cell_volume 4517.742616
_symmetry_space_group_name_H-M "P 4/M N C"
_symmetry_group_IT_number 128
_symmetry_cell_setting 'tetragonal'
loop_
_space_group_symop_operation_xyz
x,y,z
-y,x,z
-x,-y,z
y,-x,z
1/2+x,1/2-y,1/2-z
1/2-x,1/2+y,1/2-z
1/2+y,1/2+x,1/2-z
1/2-y,1/2-x,1/2-z
-x,-y,-z
y,-x,-z
x,y,-z
-y,x,-z
1/2-x,1/2+y,1/2+z
1/2+x,1/2-y,1/2+z
1/2-y,1/2-x,1/2+z
1/2+y,1/2+x,1/2+z
loop_
_atom_site_type_symbol
_atom_site_label
_atom_site_fract_x
_atom_site_fract_y
_atom_site_fract_z
Si Si1 0.722943 0.246605 0.871535
Si Si2 0.642277 0.091354 0.552798
Si Si3 0.900426 0.848033 0.712231
Si Si4 0.150578 0.601731 0.426428
Si Si5 0.589512 0.342986 0.313564
Si Si6 0.665619 0.421186 0.500000
O O1 0.651106 0.230077 0.916359
O O2 0.650941 0.287964 0.830038
O O3 0.826217 0.321683 0.882610
O O4 0.770993 0.134263 0.853638
O O5 0.644192 0.124501 0.500000
O O6 0.525665 0.123401 0.574008
O O7 0.650742 0.961367 0.554342
O O8 0.879227 0.803442 0.762986
O O9 0.029644 0.856585 0.709691
O O10 0.258174 0.608390 0.457428
O O11 0.640932 0.462000 0.316960
O O12 0.637933 0.549630 0.500000
#
# Coordination Sequence:
#
# PCOD9565004 Si02
#       6
#    16  16  16  16  16   8
#     4  12  22  33  59  90 110 141 198 246 276 328
#     4  11  23  39  57  77 114 160 195 226 288 355
#     4   9  19  38  59  80 112 149 187 231 287 346
#     4  11  22  39  57  77 117 153 190 233 290 342
#     4   9  19  37  58  82 116 151 178 227 297 353
#     4  11  22  37  60  86 108 143 192 240 284 333
#
# _framework density 19.478753999999999
#
# number of rings (size 3 to 8) (size 9 to 14) (size 15 to 20)
#    0.000    1.545    1.818    5.455    1.273    0.000 
#    0.000    1.818    0.000    0.000    0.000   19.091 
#    0.000    0.000    0.000    0.000    0.000    0.000 
#
# Total GULP energy -490865.299779 kJ/mol
# GULP energy per Si atom -5578.014770 kJ/mol
# Density = 1.943442 g / cm^3
# Si number density = 19.478754 Si / 1000 Ang^3
#
#
#
# Elastic Constant Matrix: (Units=GPa)
#
#
# Indices 1 2 3 4 5 6 
#
# 1 59.3835 26.0703 38.9837 0.0000 0.0000 0.0000
# 2 26.0703 59.3835 38.9837 0.0000 0.0000 0.0000
# 3 38.9837 38.9837 92.2334 0.0000 0.0000 0.0000
# 4 0.0000 0.0000 0.0000 33.7275 0.0000 0.0000
# 5 0.0000 0.0000 0.0000 0.0000 33.7275 0.0000
# 6 0.0000 0.0000 0.0000 0.0000 0.0000 20.2488
#
#
#
# Elastic Compliance Matrix: (Units=1/GPa)
#
#
# Indices 1 2 3 4 5 6 
#
# 1 0.024533 -0.005485 -0.008051 0.000000 0.000000 0.000000
# 2 -0.005485 0.024533 -0.008051 0.000000 0.000000 0.000000
# 3 -0.008051 -0.008051 0.017648 0.000000 0.000000 0.000000
# 4 0.000000 0.000000 0.000000 0.029649 0.000000 0.000000
# 5 0.000000 0.000000 0.000000 0.000000 0.029649 0.000000
# 6 0.000000 0.000000 0.000000 0.000000 0.000000 0.049386
#
#
# Mechanical properties :
#
#
# Convention : Reuss Voigt Hill
#
# Bulk Modulus (GPa) = 42.48106 46.56398 44.52252
# Shear Modulus (GPa) = 22.08306 24.67162 23.37734
#
# Velocity S-wave (km/s) = 3.37070 3.56278 3.46807
# Velocity P-wave (km/s) = 6.08318 6.39386 6.24045
#
# Compressibility (1/GPa) = 0.02353990
#
# Stress axis : x y z
#
# Youngs Moduli (GPa) = 40.76159 40.76159 56.66496
#
# Poissons Ratio (x) = 0.22359 0.45620
# Poissons Ratio (y) = 0.22359 0.45620
# Poissons Ratio (z) = 0.32816 0.32816
#
# Static dielectric constant tensor:
#      x y z
#    x 1.685520 0.000000 0.000000 
#    y 0.000000 1.685520 0.000000 
#    z 0.000000 0.000000 1.690180 
# 
# From -- ./inp_files/7245.got.cif
#   From: 2010.05.17/outbox.cif.g08.bks.cpg/sg128_4_cif.got.tgz:7245.got - 2010.05.20 12:07:25.
