data_PCOD9565635
_publ_section_title
;
Structure prediction by ZEFSAII (Michael W. Deem and Ramdas Pophale) SiO2 
 PCOD9565635
Probable space group: P 4/N C C
;
_chemical_formula_sum "Si O2"
_cell_formula_units_Z 96
_cell_length_a 23.980036
_cell_length_b 23.980036
_cell_length_c 8.720221
_cell_angle_alpha 90.000000
_cell_angle_beta 90.000000
_cell_angle_gamma 90.000000
_cell_volume 5014.494428
_symmetry_space_group_name_H-M "P 4/N C C"
_symmetry_group_IT_number 130
_symmetry_cell_setting 'tetragonal'
loop_
_space_group_symop_operation_xyz
x,y,z
1/2-y,x,z
1/2-x,1/2-y,z
y,1/2-x,z
1/2+x,-y,1/2-z
-x,1/2+y,1/2-z
1/2+y,1/2+x,1/2-z
-y,-x,1/2-z
-x,-y,-z
1/2+y,-x,-z
1/2+x,1/2+y,-z
-y,1/2+x,-z
1/2-x,y,1/2+z
x,1/2-y,1/2+z
1/2-y,1/2-x,1/2+z
y,x,1/2+z
loop_
_atom_site_type_symbol
_atom_site_label
_atom_site_fract_x
_atom_site_fract_y
_atom_site_fract_z
Si Si1 0.402357 0.199929 0.630270
Si Si2 0.701830 0.369778 0.344632
Si Si3 0.326853 0.504388 0.151573
Si Si4 0.873714 0.330079 0.103639
Si Si5 0.709963 0.012578 0.696730
Si Si6 0.891823 0.823333 0.231901
O O1 0.464850 0.186674 0.690646
O O2 0.395633 0.189256 0.449197
O O3 0.359285 0.161456 0.722708
O O4 0.391533 0.264317 0.677187
O O5 0.686681 0.313320 0.250000
O O6 0.763006 0.375977 0.420358
O O7 0.656085 0.366215 0.476186
O O8 0.692490 0.424780 0.241265
O O9 0.353540 0.565207 0.142941
O O10 0.275953 0.511367 0.271280
O O11 0.354918 0.447640 0.207346
O O12 0.303715 0.497411 0.977942
O O13 0.834965 0.334965 0.250000
#
# Coordination Sequence:
#
# PCOD9565635 Si02
#       6
#    16  16  16  16  16  16
#     4  11  22  38  62  91 121 155 187 234 276 338
#     4  11  22  38  53  83 112 154 190 244 292 351
#     4  10  20  36  56  82 109 153 195 238 276 341
#     4  11  24  34  57  79 116 150 196 237 299 347
#     4  10  20  35  58  79 113 149 199 233 282 333
#     4  11  22  38  62  90 123 151 193 227 284 329
#
# _framework density 19.144503
#
# number of rings (size 3 to 8) (size 9 to 14) (size 15 to 20)
#    0.000    1.333    1.667    7.000    9.333    2.333 
#    0.000    1.667    0.000    2.000    0.000    0.000 
#    0.000    0.000    0.000    0.000    0.000    0.000 
#
# Total GULP energy -535257.456364 kJ/mol
# GULP energy per Si atom -5575.598504 kJ/mol
# Density = 1.910093 g / cm^3
# Si number density = 19.144503 Si / 1000 Ang^3
#
#
#
# Elastic Constant Matrix: (Units=GPa)
#
#
# Indices 1 2 3 4 5 6 
#
# 1 69.4271 28.7746 9.8056 0.0000 0.0000 0.0000
# 2 28.7746 69.4280 9.8053 0.0000 0.0000 0.0000
# 3 9.8056 9.8053 96.8929 0.0000 0.0000 0.0000
# 4 0.0000 0.0000 0.0000 30.2343 0.0000 0.0000
# 5 0.0000 0.0000 0.0000 0.0000 30.2341 0.0000
# 6 0.0000 0.0000 0.0000 0.0000 0.0000 6.9921
#
#
#
# Elastic Compliance Matrix: (Units=1/GPa)
#
#
# Indices 1 2 3 4 5 6 
#
# 1 0.017496 -0.007103 -0.001052 0.000000 0.000000 0.000000
# 2 -0.007103 0.017496 -0.001052 0.000000 0.000000 0.000000
# 3 -0.001052 -0.001052 0.010534 0.000000 0.000000 0.000000
# 4 0.000000 0.000000 0.000000 0.033075 0.000000 0.000000
# 5 0.000000 0.000000 0.000000 0.000000 0.033075 0.000000
# 6 0.000000 0.000000 0.000000 0.000000 0.000000 0.143019
#
#
# Mechanical properties :
#
#
# Convention : Reuss Voigt Hill
#
# Bulk Modulus (GPa) = 36.88307 36.94653 36.91480
# Shear Modulus (GPa) = 17.72145 25.98295 21.85220
#
# Velocity S-wave (km/s) = 3.04578 3.68802 3.38218
# Velocity P-wave (km/s) = 5.62819 6.12176 5.88015
#
# Compressibility (1/GPa) = 0.02711271
#
# Stress axis : x y z
#
# Youngs Moduli (GPa) = 57.15630 57.15707 94.93477
#
# Poissons Ratio (x) = 0.40597 0.09985
# Poissons Ratio (y) = 0.40596 0.09984
# Poissons Ratio (z) = 0.06012 0.06011
#
# Static dielectric constant tensor:
#      x y z
#    x 1.690470 0.000000 0.000000 
#    y 0.000000 1.690470 0.000000 
#    z 0.000000 0.000000 1.616820 
# 
# From -- ./inp_files/919.got.cif
#   From: 2010.05.17/outbox.cif.g08.bks.cpg/sg130_1_cif.got.tgz:919.got - 2010.05.20 12:17:35.
