data_PCOD9565259
_publ_section_title
;
Structure prediction by ZEFSAII (Michael W. Deem and Ramdas Pophale) SiO2 
 PCOD9565259
Probable space group: P 4/N M M
;
_chemical_formula_sum "Si O2"
_cell_formula_units_Z 96
_cell_length_a 16.326384
_cell_length_b 16.326384
_cell_length_c 20.145389
_cell_angle_alpha 90.000000
_cell_angle_beta 90.000000
_cell_angle_gamma 90.000000
_cell_volume 5369.769847
_symmetry_space_group_name_H-M "P 4/N M M"
_symmetry_group_IT_number 129
_symmetry_cell_setting 'tetragonal'
loop_
_space_group_symop_operation_xyz
x,y,z
1/2-y,x,z
1/2-x,1/2-y,z
y,1/2-x,z
1/2+x,-y,-z
-x,1/2+y,-z
1/2+y,1/2+x,-z
-y,-x,-z
-x,-y,-z
1/2+y,-x,-z
1/2+x,1/2+y,-z
-y,1/2+x,-z
1/2-x,y,z
x,1/2-y,z
1/2-y,1/2-x,z
y,x,z
loop_
_atom_site_type_symbol
_atom_site_label
_atom_site_fract_x
_atom_site_fract_y
_atom_site_fract_z
Si Si1 0.477281 0.341772 0.126049
Si Si2 0.840415 0.978324 0.263316
Si Si3 0.394939 0.658041 0.142507
Si Si4 0.901019 0.459132 0.398359
Si Si5 0.027161 0.159060 0.966443
Si Si6 0.480594 0.157960 0.462163
O O1 0.446159 0.250000 0.142765
O O2 0.415275 0.415275 0.147733
O O3 0.571565 0.348775 0.150045
O O4 0.481150 0.347070 0.045671
O O5 0.750000 0.940824 0.267849
O O6 0.909582 0.909582 0.260008
O O7 0.843350 0.035622 0.199123
O O8 0.854993 0.032909 0.329186
O O9 0.355793 0.750000 0.145866
O O10 0.441979 0.652721 0.072081
O O11 0.848929 0.483248 0.463142
O O12 0.972469 0.527532 0.396417
O O13 0.948080 0.375156 0.413840
O O14 0.060703 0.250000 0.951381
O O15 0.088072 0.088072 0.943486
O O16 0.456291 0.250000 0.447412
O O17 0.404870 0.095130 0.458205
#
# Coordination Sequence:
#
# PCOD9565259 Si02
#       6
#    16  16  16  16  16  16
#     4  10  20  34  53  74  97 128 165 208 256 300
#     4  10  19  31  49  72  99 130 162 196 234 281
#     4  10  20  33  50  73 100 131 166 200 239 293
#     4   8  16  30  46  66  93 128 163 187 219 274
#     4   9  17  29  46  69  97 129 165 205 248 295
#     4   9  16  28  48  71  95 122 153 192 234 276
#
# _framework density 17.877860999999999
#
# number of rings (size 3 to 8) (size 9 to 14) (size 15 to 20)
#    0.000    2.667    0.000    3.500    0.000    2.333 
#    0.000    2.500    0.000   18.500    0.000    0.000 
#    0.000    4.000    0.000    0.000    0.000    0.167 
#
# Total GULP energy -534507.171561 kJ/mol
# GULP energy per Si atom -5567.783037 kJ/mol
# Density = 1.783717 g / cm^3
# Si number density = 17.877861 Si / 1000 Ang^3
#
#
#
# Elastic Constant Matrix: (Units=GPa)
#
#
# Indices 1 2 3 4 5 6 
#
# 1 79.2918 53.0447 9.8077 0.0000 0.0000 0.0000
# 2 53.0447 79.2918 9.8077 0.0000 0.0000 0.0000
# 3 9.8077 9.8077 30.2334 0.0000 0.0000 0.0000
# 4 0.0000 0.0000 0.0000 13.2071 0.0000 0.0000
# 5 0.0000 0.0000 0.0000 0.0000 13.2071 0.0000
# 6 0.0000 0.0000 0.0000 0.0000 0.0000 7.3395
#
#
#
# Elastic Compliance Matrix: (Units=1/GPa)
#
#
# Indices 1 2 3 4 5 6 
#
# 1 0.023019 -0.015081 -0.002575 0.000000 0.000000 0.000000
# 2 -0.015081 0.023019 -0.002575 0.000000 0.000000 0.000000
# 3 -0.002575 -0.002575 0.034747 0.000000 0.000000 0.000000
# 4 0.000000 0.000000 0.000000 0.075717 0.000000 0.000000
# 5 0.000000 0.000000 0.000000 0.000000 0.075717 0.000000
# 6 0.000000 0.000000 0.000000 0.000000 0.000000 0.136249
#
#
# Mechanical properties :
#
#
# Convention : Reuss Voigt Hill
#
# Bulk Modulus (GPa) = 24.80000 37.12633 30.96317
# Shear Modulus (GPa) = 11.83797 14.49454 13.16626
#
# Velocity S-wave (km/s) = 2.57604 2.85046 2.71672
# Velocity P-wave (km/s) = 4.76969 5.62541 5.21513
#
# Compressibility (1/GPa) = 0.04032258
#
# Stress axis : x y z
#
# Youngs Moduli (GPa) = 43.44273 43.44273 28.77968
#
# Poissons Ratio (x) = 0.65514 0.07411
# Poissons Ratio (y) = 0.65514 0.07411
# Poissons Ratio (z) = 0.11187 0.11187
#
# Static dielectric constant tensor:
#      x y z
#    x 1.622710 0.000000 0.000000 
#    y 0.000000 1.622710 0.000000 
#    z 0.000000 0.000000 1.614030 
# 
# From -- ./inp_files/6507.got.cif
#   From: 2010.05.17/outbox.cif.g08.bks.cpg/sg129_4_cif.got.tgz:6507.got - 2010.05.20 12:12:06.
