data_PCOD9565690
_publ_section_title
;
Structure prediction by ZEFSAII (Michael W. Deem and Ramdas Pophale) SiO2 
 PCOD9565690
Probable space group: P 4/N C C
;
_chemical_formula_sum "Si O2"
_cell_formula_units_Z 96
_cell_length_a 16.310623
_cell_length_b 16.310623
_cell_length_c 18.703471
_cell_angle_alpha 90.000000
_cell_angle_beta 90.000000
_cell_angle_gamma 90.000000
_cell_volume 4975.804516
_symmetry_space_group_name_H-M "P 4/N C C"
_symmetry_group_IT_number 130
_symmetry_cell_setting 'tetragonal'
loop_
_space_group_symop_operation_xyz
x,y,z
1/2-y,x,z
1/2-x,1/2-y,z
y,1/2-x,z
1/2+x,-y,1/2-z
-x,1/2+y,1/2-z
1/2+y,1/2+x,1/2-z
-y,-x,1/2-z
-x,-y,-z
1/2+y,-x,-z
1/2+x,1/2+y,-z
-y,1/2+x,-z
1/2-x,y,1/2+z
x,1/2-y,1/2+z
1/2-y,1/2-x,1/2+z
y,x,1/2+z
loop_
_atom_site_type_symbol
_atom_site_label
_atom_site_fract_x
_atom_site_fract_y
_atom_site_fract_z
Si Si1 0.612857 0.492297 0.636138
Si Si2 0.666455 0.640523 0.732091
Si Si3 0.950928 0.191046 0.543666
Si Si4 0.821978 0.317146 0.336086
Si Si5 0.537237 0.375247 0.020673
Si Si6 0.418649 0.056861 0.634354
O O1 0.634328 0.576908 0.672960
O O2 0.682398 0.420514 0.644696
O O3 0.591598 0.503962 0.552184
O O4 0.528779 0.452714 0.666136
O O5 0.765033 0.639457 0.726797
O O6 0.628962 0.607607 0.806374
O O7 0.893837 0.203755 0.614081
O O8 0.905224 0.130691 0.488558
O O9 0.967706 0.278444 0.512513
O O10 0.030645 0.145194 0.572771
O O11 0.750000 0.250000 0.352195
O O12 0.823384 0.323384 0.250000
O O13 0.493241 0.399400 0.093661
#
# Coordination Sequence:
#
# PCOD9565690 Si02
#       6
#    16  16  16  16  16  16
#     4  10  21  39  61  87 124 166 199 265 322 387
#     4  11  24  41  64  88 118 160 213 268 323 378
#     4  10  21  34  57  86 120 157 199 254 309 377
#     4   9  18  33  54  82 120 163 200 250 314 376
#     4  10  22  35  61  87 121 160 201 252 311 383
#     4  10  20  41  61  84 116 161 206 250 312 384
#
# _framework density 19.293361999999998
#
# number of rings (size 3 to 8) (size 9 to 14) (size 15 to 20)
#    0.000    2.333    0.000    5.500    4.667    2.667 
#    0.000    0.000    3.667    2.000    0.000    0.000 
#    0.000    0.000    0.000    0.000    0.000    0.000 
#
# Total GULP energy -534457.276511 kJ/mol
# GULP energy per Si atom -5567.263297 kJ/mol
# Density = 1.924945 g / cm^3
# Si number density = 19.293362 Si / 1000 Ang^3
#
#
#
# Elastic Constant Matrix: (Units=GPa)
#
#
# Indices 1 2 3 4 5 6 
#
# 1 91.2582 40.2102 18.9131 0.0000 0.0000 0.0000
# 2 40.2102 91.2582 18.9131 0.0000 0.0000 0.0000
# 3 18.9131 18.9131 50.1932 0.0000 0.0000 0.0000
# 4 0.0000 0.0000 0.0000 27.6255 0.0000 0.0000
# 5 0.0000 0.0000 0.0000 0.0000 27.6255 0.0000
# 6 0.0000 0.0000 0.0000 0.0000 0.0000 13.0151
#
#
#
# Elastic Compliance Matrix: (Units=1/GPa)
#
#
# Indices 1 2 3 4 5 6 
#
# 1 0.014060 -0.005529 -0.003215 0.000000 0.000000 0.000000
# 2 -0.005529 0.014060 -0.003215 0.000000 0.000000 0.000000
# 3 -0.003215 -0.003215 0.022346 0.000000 0.000000 0.000000
# 4 0.000000 0.000000 0.000000 0.036198 0.000000 0.000000
# 5 0.000000 0.000000 0.000000 0.000000 0.036198 0.000000
# 6 0.000000 0.000000 0.000000 0.000000 0.000000 0.076834
#
#
# Mechanical properties :
#
#
# Convention : Reuss Voigt Hill
#
# Bulk Modulus (GPa) = 37.66531 43.19805 40.43168
# Shear Modulus (GPa) = 21.50874 23.96475 22.73674
#
# Velocity S-wave (km/s) = 3.34252 3.52820 3.43662
# Velocity P-wave (km/s) = 5.87038 6.24791 6.06208
#
# Compressibility (1/GPa) = 0.02654963
#
# Stress axis : x y z
#
# Youngs Moduli (GPa) = 71.12190 71.12190 44.75147
#
# Poissons Ratio (x) = 0.39324 0.14386
# Poissons Ratio (y) = 0.39324 0.14386
# Poissons Ratio (z) = 0.22863 0.22863
#
# Static dielectric constant tensor:
#      x y z
#    x 1.696430 0.000000 0.000000 
#    y 0.000000 1.696430 0.000000 
#    z 0.000000 0.000000 1.685440 
# 
# From -- ./inp_files/3793.got.cif
#   From: 2010.05.17/outbox.cif.g08.bks.cpg/sg130_2_cif.got.tgz:3793.got - 2010.05.20 12:17:35.
