data_PCOD9565501
_publ_section_title
;
Structure prediction by ZEFSAII (Michael W. Deem and Ramdas Pophale) SiO2 
 PCOD9565501
Probable space group: P 4/N M M
;
_chemical_formula_sum "Si O2"
_cell_formula_units_Z 120
_cell_length_a 27.656265
_cell_length_b 27.656265
_cell_length_c 7.796483
_cell_angle_alpha 90.000000
_cell_angle_beta 90.000000
_cell_angle_gamma 90.000000
_cell_volume 5963.288107
_symmetry_space_group_name_H-M "P 4/N M M"
_symmetry_group_IT_number 129
_symmetry_cell_setting 'tetragonal'
loop_
_space_group_symop_operation_xyz
x,y,z
1/2-y,x,z
1/2-x,1/2-y,z
y,1/2-x,z
1/2+x,-y,-z
-x,1/2+y,-z
1/2+y,1/2+x,-z
-y,-x,-z
-x,-y,-z
1/2+y,-x,-z
1/2+x,1/2+y,-z
-y,1/2+x,-z
1/2-x,y,z
x,1/2-y,z
1/2-y,1/2-x,z
y,x,z
loop_
_atom_site_type_symbol
_atom_site_label
_atom_site_fract_x
_atom_site_fract_y
_atom_site_fract_z
Si Si1 0.303619 0.381241 0.937641
Si Si2 0.194972 0.694730 0.208691
Si Si3 0.878171 0.388980 0.794207
Si Si4 0.534490 0.302578 0.132720
Si Si5 0.304619 0.488434 0.775259
Si Si6 0.935737 0.435737 0.500000
Si Si7 0.696365 0.928587 0.700405
Si Si8 0.611480 0.964184 0.471206
O O1 0.250000 0.361232 0.903865
O O2 0.345556 0.345556 0.880171
O O3 0.307793 0.391829 0.141149
O O4 0.305870 0.433832 0.850166
O O5 0.250000 0.680695 0.260981
O O6 0.186852 0.750000 0.265338
O O7 0.151445 0.659124 0.257088
O O8 0.194783 0.694783 0.000000
O O9 0.840729 0.432880 0.775458
O O10 0.920166 0.403544 0.664288
O O11 0.888410 0.388410 0.000000
O O12 0.557916 0.250000 0.143865
O O13 0.481923 0.300748 0.216358
O O14 0.525071 0.312729 0.932322
O O15 0.250000 0.496986 0.707807
O O16 0.348065 0.489469 0.644937
O O17 0.922048 0.491759 0.540474
O O18 0.750000 0.920147 0.616308
O O19 0.647150 0.932672 0.593453
O O20 0.574145 0.925856 0.388295
#
# Coordination Sequence:
#
# PCOD9565501 Si02
#       8
#    16  16  16  16  16   8  16  16
#     4   9  17  31  52  82 116 147 185 227 274 342
#     4   8  15  30  53  82 114 148 187 229 284 358
#     4  11  21  37  59  79 113 152 189 239 292 342
#     4   9  17  34  58  81 106 138 180 234 289 333
#     4   9  19  35  59  88 111 139 188 239 281 339
#     4  12  27  42  54  85 116 146 204 252 284 349
#     4   9  18  34  57  81 105 138 187 237 277 330
#     4  12  23  39  58  77 114 154 184 234 296 343
#
# _framework density 20.123125999999999
#
# number of rings (size 3 to 8) (size 9 to 14) (size 15 to 20)
#    0.000    2.267    1.333    4.600    0.000    0.667 
#    0.000    2.667    0.000    2.400    0.000    0.000 
#    0.000    9.600    0.000    0.000    0.000    0.000 
#
# Total GULP energy -668488.196660 kJ/mol
# GULP energy per Si atom -5570.734972 kJ/mol
# Density = 2.007733 g / cm^3
# Si number density = 20.123126 Si / 1000 Ang^3
#
#
#
# Elastic Constant Matrix: (Units=GPa)
#
#
# Indices 1 2 3 4 5 6 
#
# 1 68.2516 39.2135 5.1600 0.0000 0.0000 0.0000
# 2 39.2135 68.2516 5.1600 0.0000 0.0000 0.0000
# 3 5.1600 5.1600 25.0827 0.0000 0.0000 0.0000
# 4 0.0000 0.0000 0.0000 16.5989 0.0000 0.0000
# 5 0.0000 0.0000 0.0000 0.0000 16.5989 0.0000
# 6 0.0000 0.0000 0.0000 0.0000 0.0000 29.7254
#
#
#
# Elastic Compliance Matrix: (Units=1/GPa)
#
#
# Indices 1 2 3 4 5 6 
#
# 1 0.021965 -0.012472 -0.001953 0.000000 0.000000 0.000000
# 2 -0.012472 0.021965 -0.001953 0.000000 0.000000 0.000000
# 3 -0.001953 -0.001953 0.040672 0.000000 0.000000 0.000000
# 4 0.000000 0.000000 0.000000 0.060245 0.000000 0.000000
# 5 0.000000 0.000000 0.000000 0.000000 0.060245 0.000000
# 6 0.000000 0.000000 0.000000 0.000000 0.000000 0.033641
#
#
# Mechanical properties :
#
#
# Convention : Reuss Voigt Hill
#
# Bulk Modulus (GPa) = 19.28795 28.96144 24.12469
# Shear Modulus (GPa) = 17.31475 20.05480 18.68478
#
# Velocity S-wave (km/s) = 2.93651 3.16033 3.05047
# Velocity P-wave (km/s) = 4.59382 5.26690 4.94184
#
# Compressibility (1/GPa) = 0.05184584
#
# Stress axis : x y z
#
# Youngs Moduli (GPa) = 45.52656 45.52656 24.58719
#
# Poissons Ratio (x) = 0.56782 0.04802
# Poissons Ratio (y) = 0.56782 0.04802
# Poissons Ratio (z) = 0.08891 0.08891
#
# Static dielectric constant tensor:
#      x y z
#    x 1.677970 0.000000 0.000000 
#    y 0.000000 1.677970 0.000000 
#    z 0.000000 0.000000 1.764810 
# 
# From -- ./inp_files/2894.got.cif
#   From: 2010.05.17/outbox.cif.g08.bks.cpg/sg129_2_cif.got.tgz:2894.got - 2010.05.20 12:12:06.
