data_PCOD9565122
_publ_section_title
;
Structure prediction by ZEFSAII (Michael W. Deem and Ramdas Pophale) SiO2 
 PCOD9565122
Probable space group: P 4/N M M
;
_chemical_formula_sum "Si O2"
_cell_formula_units_Z 128
_cell_length_a 17.856293
_cell_length_b 17.856293
_cell_length_c 27.421579
_cell_angle_alpha 90.000000
_cell_angle_beta 90.000000
_cell_angle_gamma 90.000000
_cell_volume 8743.293676
_symmetry_space_group_name_H-M "P 4/N M M"
_symmetry_group_IT_number 129
_symmetry_cell_setting 'tetragonal'
loop_
_space_group_symop_operation_xyz
x,y,z
1/2-y,x,z
1/2-x,1/2-y,z
y,1/2-x,z
1/2+x,-y,-z
-x,1/2+y,-z
1/2+y,1/2+x,-z
-y,-x,-z
-x,-y,-z
1/2+y,-x,-z
1/2+x,1/2+y,-z
-y,1/2+x,-z
1/2-x,y,z
x,1/2-y,z
1/2-y,1/2-x,z
y,x,z
loop_
_atom_site_type_symbol
_atom_site_label
_atom_site_fract_x
_atom_site_fract_y
_atom_site_fract_z
Si Si1 0.162362 0.662926 0.806090
Si Si2 0.935084 0.056024 0.377240
Si Si3 0.661772 0.163780 0.310927
Si Si4 0.561597 0.061274 0.126023
Si Si5 0.540542 0.662227 0.942920
Si Si6 0.959473 0.837776 0.056677
Si Si7 0.662717 0.053414 0.472470
Si Si8 0.664034 0.952836 0.565702
O O1 0.250000 0.647377 0.817853
O O2 0.147478 0.750000 0.819770
O O3 0.154577 0.657987 0.747556
O O4 0.106867 0.606364 0.833039
O O5 0.887485 0.100949 0.337242
O O6 0.880808 0.036766 0.422664
O O7 0.994196 0.114977 0.399734
O O8 0.983445 0.983445 0.361448
O O9 0.750000 0.154376 0.322953
O O10 0.641210 0.250000 0.324892
O O11 0.516963 0.119898 0.092130
O O12 0.500250 0.999751 0.143723
O O13 0.619993 0.016992 0.091774
O O14 0.545505 0.750000 0.932263
O O15 0.619759 0.619759 0.937489
O O16 0.517950 0.653155 0.999798
O O17 0.954476 0.750000 0.067313
O O18 0.880290 0.880290 0.062118
O O19 0.622966 0.122966 0.500000
O O20 0.750000 0.068566 0.463506
O O21 0.656031 0.986018 0.511159
O O22 0.750000 0.955820 0.579640
O O23 0.628970 0.871031 0.567609
#
# Coordination Sequence:
#
# PCOD9565122 Si02
#       8
#    16  16  16  16  16  16  16  16
#     4   9  18  32  48  64  83 109 140 173 210 254
#     4  10  18  28  44  64  87 113 138 168 210 256
#     4   9  18  32  48  65  85 109 138 174 215 256
#     4  10  18  28  44  64  87 112 138 172 212 252
#     4   9  17  28  42  61  85 113 144 175 207 245
#     4   9  17  28  42  61  85 113 143 174 208 246
#     4   9  17  28  41  60  86 114 143 173 206 244
#     4   9  17  28  41  58  81 109 140 170 199 234
#
# _framework density 14.639791000000001
#
# number of rings (size 3 to 8) (size 9 to 14) (size 15 to 20)
#    0.000    2.750    0.000    3.000    0.000    4.500 
#    0.000    1.250    0.000    0.000    0.000    5.250 
#    0.000    2.250    0.000   32.500    0.000    0.375 
#
# Total GULP energy -712928.218823 kJ/mol
# GULP energy per Si atom -5569.751710 kJ/mol
# Density = 1.460647 g / cm^3
# Si number density = 14.639791 Si / 1000 Ang^3
#
#
#
# Elastic Constant Matrix: (Units=GPa)
#
#
# Indices 1 2 3 4 5 6 
#
# 1 87.4833 55.2633 41.4754 0.0000 0.0000 0.0000
# 2 55.2633 87.4833 41.4754 0.0000 0.0000 0.0000
# 3 41.4754 41.4754 48.2784 0.0000 0.0000 0.0000
# 4 0.0000 0.0000 0.0000 20.1696 0.0000 0.0000
# 5 0.0000 0.0000 0.0000 0.0000 20.1696 0.0000
# 6 0.0000 0.0000 0.0000 0.0000 0.0000 22.2680
#
#
#
# Elastic Compliance Matrix: (Units=1/GPa)
#
#
# Indices 1 2 3 4 5 6 
#
# 1 0.022513 -0.008524 -0.012018 0.000000 0.000000 0.000000
# 2 -0.008524 0.022513 -0.012018 0.000000 0.000000 0.000000
# 3 -0.012018 -0.012018 0.041362 0.000000 0.000000 0.000000
# 4 0.000000 0.000000 0.000000 0.049580 0.000000 0.000000
# 5 0.000000 0.000000 0.000000 0.000000 0.049580 0.000000
# 6 0.000000 0.000000 0.000000 0.000000 0.000000 0.044907
#
#
# Mechanical properties :
#
#
# Convention : Reuss Voigt Hill
#
# Bulk Modulus (GPa) = 47.01739 55.51926 51.26833
# Shear Modulus (GPa) = 16.52004 18.19017 17.35510
#
# Velocity S-wave (km/s) = 3.36286 3.52876 3.44681
# Velocity P-wave (km/s) = 6.87491 7.38977 7.13698
#
# Compressibility (1/GPa) = 0.02126872
#
# Stress axis : x y z
#
# Youngs Moduli (GPa) = 44.41913 44.41913 24.17680
#
# Poissons Ratio (x) = 0.37862 0.29055
# Poissons Ratio (y) = 0.37862 0.29055
# Poissons Ratio (z) = 0.53382 0.53382
#
# Static dielectric constant tensor:
#      x y z
#    x 1.474940 0.000000 0.000000 
#    y 0.000000 1.474940 0.000000 
#    z 0.000000 0.000000 1.467220 
# 
# From -- ./inp_files/7262.got.cif
#   From: 2010.05.17/outbox.cif.g08.bks.cpg/sg129_4_cif.got.tgz:7262.got - 2010.05.20 12:12:06.
