data_PCOD9565083
_publ_section_title
;
Structure prediction by ZEFSAII (Michael W. Deem and Ramdas Pophale) SiO2 
 PCOD9565083
Probable space group: P 4/M N C
;
_chemical_formula_sum "Si O2"
_cell_formula_units_Z 88
_cell_length_a 18.000000
_cell_length_b 18.000000
_cell_length_c 15.000000
_cell_angle_alpha 90.000000
_cell_angle_beta 90.000000
_cell_angle_gamma 90.000000
_cell_volume 4860.000000
_symmetry_space_group_name_H-M "P 4/M N C"
_symmetry_group_IT_number 128
_symmetry_cell_setting 'tetragonal'
loop_
_space_group_symop_operation_xyz
x,y,z
-y,x,z
-x,-y,z
y,-x,z
1/2+x,1/2-y,1/2-z
1/2-x,1/2+y,1/2-z
1/2+y,1/2+x,1/2-z
1/2-y,1/2-x,1/2-z
-x,-y,-z
y,-x,-z
x,y,-z
-y,x,-z
1/2-x,1/2+y,1/2+z
1/2+x,1/2-y,1/2+z
1/2-y,1/2-x,1/2+z
1/2+y,1/2+x,1/2+z
loop_
_atom_site_type_symbol
_atom_site_label
_atom_site_fract_x
_atom_site_fract_y
_atom_site_fract_z
Si Si1 0.268027 0.975027 0.900486
Si Si2 0.632417 0.329026 0.176901
Si Si3 0.880224 0.031817 0.175080
Si Si4 0.305765 0.776945 0.607192
Si Si5 0.237740 0.630765 0.700624
Si Si6 0.092804 0.917837 0.500000
O O1 0.278232 0.051335 0.844827
O O2 0.178893 0.963495 0.902723
O O3 0.291721 0.892297 0.868871
O O4 0.297712 0.986745 0.000000
O O5 0.559472 0.334827 0.238342
O O6 0.664713 0.247616 0.156887
O O7 0.698598 0.373794 0.224770
O O8 0.614389 0.368295 0.085723
O O9 0.950259 0.085945 0.173080
O O10 0.299422 0.782933 0.500000
O O11 0.274290 0.695139 0.636388
O O12 0.166900 0.666900 0.750000
O O13 0.006267 0.899839 0.500000
#
# Coordination Sequence:
#
# PCOD9565083 Si02
#       6
#    16  16  16  16  16   8
#     4  11  21  36  58  87 122 156 196 247 301 357
#     4  11  20  37  54  78 118 158 201 241 286 353
#     4  11  21  33  53  83 123 159 187 230 289 365
#     4  10  20  35  56  83 116 154 201 253 297 355
#     4  10  21  36  59  83 118 161 198 245 299 360
#     4  11  24  36  54  82 120 158 192 239 300 368
#
# _framework density 18.106995999999999
#
# number of rings (size 3 to 8) (size 9 to 14) (size 15 to 20)
#    0.000    1.364    4.545    1.636    0.000    3.636 
#    0.000    0.909    0.000    0.000    0.000    2.545 
#    0.000   13.091    0.000    0.000    0.000    0.000 
#
# Total GULP energy -490219.046571 kJ/mol
# GULP energy per Si atom -5570.670984 kJ/mol
# Density = 1.806578 g / cm^3
# Si number density = 18.106996 Si / 1000 Ang^3
#
#
#
# Elastic Constant Matrix: (Units=GPa)
#
#
# Indices 1 2 3 4 5 6 
#
# 1 89.0466 28.6391 15.2153 0.0000 0.0000 0.0000
# 2 28.6391 89.0466 15.2153 0.0000 0.0000 0.0000
# 3 15.2153 15.2153 74.2041 0.0000 0.0000 0.0000
# 4 0.0000 0.0000 0.0000 23.1479 0.0000 0.0000
# 5 0.0000 0.0000 0.0000 0.0000 23.1479 0.0000
# 6 0.0000 0.0000 0.0000 0.0000 0.0000 18.2103
#
#
#
# Elastic Compliance Matrix: (Units=1/GPa)
#
#
# Indices 1 2 3 4 5 6 
#
# 1 0.012764 -0.003791 -0.001840 0.000000 0.000000 0.000000
# 2 -0.003791 0.012764 -0.001840 0.000000 0.000000 0.000000
# 3 -0.001840 -0.001840 0.014231 0.000000 0.000000 0.000000
# 4 0.000000 0.000000 0.000000 0.043201 0.000000 0.000000
# 5 0.000000 0.000000 0.000000 0.000000 0.043201 0.000000
# 6 0.000000 0.000000 0.000000 0.000000 0.000000 0.054914
#
#
# Mechanical properties :
#
#
# Convention : Reuss Voigt Hill
#
# Bulk Modulus (GPa) = 40.29454 41.15966 40.72710
# Shear Modulus (GPa) = 24.47547 25.78305 25.12926
#
# Velocity S-wave (km/s) = 3.68055 3.77759 3.72939
# Velocity P-wave (km/s) = 6.35326 6.46588 6.40982
#
# Compressibility (1/GPa) = 0.02481726
#
# Stress axis : x y z
#
# Youngs Moduli (GPa) = 78.34787 78.34787 70.26983
#
# Poissons Ratio (x) = 0.29699 0.12929
# Poissons Ratio (y) = 0.29699 0.12929
# Poissons Ratio (z) = 0.14415 0.14415
#
# Static dielectric constant tensor:
#      x y z
#    x 1.638830 0.000000 0.000000 
#    y 0.000000 1.638830 0.000000 
#    z 0.000000 0.000000 1.667880 
# 
# From -- ./inp_files/3861.got.cif
#   From: 2010.05.17/outbox.ucp.g08.bks.cvg/sg128_2_cif.got.tgz:3861.got - 2010.06.11 11:37:33.
