data_PCOD9565269
_publ_section_title
;
Structure prediction by ZEFSAII (Michael W. Deem and Ramdas Pophale) SiO2 
 PCOD9565269
Probable space group: P 4/N M M
;
_chemical_formula_sum "Si O2"
_cell_formula_units_Z 128
_cell_length_a 23.588561
_cell_length_b 23.588561
_cell_length_c 13.279076
_cell_angle_alpha 90.000000
_cell_angle_beta 90.000000
_cell_angle_gamma 90.000000
_cell_volume 7388.746257
_symmetry_space_group_name_H-M "P 4/N M M"
_symmetry_group_IT_number 129
_symmetry_cell_setting 'tetragonal'
loop_
_space_group_symop_operation_xyz
x,y,z
1/2-y,x,z
1/2-x,1/2-y,z
y,1/2-x,z
1/2+x,-y,-z
-x,1/2+y,-z
1/2+y,1/2+x,-z
-y,-x,-z
-x,-y,-z
1/2+y,-x,-z
1/2+x,1/2+y,-z
-y,1/2+x,-z
1/2-x,y,z
x,1/2-y,z
1/2-y,1/2-x,z
y,x,z
loop_
_atom_site_type_symbol
_atom_site_label
_atom_site_fract_x
_atom_site_fract_y
_atom_site_fract_z
Si Si1 0.526453 0.878445 0.767353
Si Si2 0.895922 0.095964 0.241712
Si Si3 0.487403 0.183257 0.443980
Si Si4 0.183658 0.619686 0.419406
Si Si5 0.091244 0.317207 0.629266
Si Si6 0.967993 0.625064 0.185877
Si Si7 0.007812 0.315441 0.022791
Si Si8 0.187252 0.623077 0.074243
O O1 0.575132 0.924868 0.775247
O O2 0.464143 0.906022 0.762399
O O3 0.530517 0.845400 0.661194
O O4 0.526030 0.839654 0.867904
O O5 0.877094 0.134151 0.336040
O O6 0.876391 0.135609 0.150708
O O7 0.875894 0.031960 0.228589
O O8 0.476961 0.250000 0.432400
O O9 0.555051 0.176790 0.460023
O O10 0.452154 0.163520 0.540957
O O11 0.167188 0.667188 0.500000
O O12 0.250000 0.624549 0.386689
O O13 0.097531 0.250000 0.623841
O O14 0.149556 0.350445 0.613751
O O15 0.066633 0.335169 0.737616
O O16 0.935577 0.564424 0.187167
O O17 0.970208 0.648486 0.071831
O O18 0.025585 0.250000 0.013257
O O19 0.938936 0.316274 0.022423
O O20 0.250000 0.626480 0.120289
O O21 0.174530 0.674530 0.000000
#
# Coordination Sequence:
#
# PCOD9565269 Si02
#       8
#    16  16  16  16  16  16  16  16
#     4  10  19  31  52  80 109 138 175 222 270 322
#     4  10  20  35  52  77 106 139 174 215 274 325
#     4   9  18  34  54  77 105 140 178 217 265 321
#     4  10  20  35  55  77 105 142 183 227 270 319
#     4  10  21  36  55  78 104 135 172 215 261 317
#     4  11  21  34  54  80 110 140 177 222 269 326
#     4  10  20  34  52  74 106 145 180 216 267 324
#     4  10  19  34  52  72  99 135 176 219 260 307
#
# _framework density 17.323643000000001
#
# number of rings (size 3 to 8) (size 9 to 14) (size 15 to 20)
#    0.000    2.000    1.250    3.000    0.000    3.375 
#    0.000    3.125    0.000    7.500    0.000    0.000 
#    0.000   10.250    0.000    0.000    0.000    0.000 
#
# Total GULP energy -713168.309069 kJ/mol
# GULP energy per Si atom -5571.627415 kJ/mol
# Density = 1.728421 g / cm^3
# Si number density = 17.323643 Si / 1000 Ang^3
#
#
#
# Elastic Constant Matrix: (Units=GPa)
#
#
# Indices 1 2 3 4 5 6 
#
# 1 67.3495 30.4620 29.5815 0.0000 0.0000 0.0000
# 2 30.4620 67.3495 29.5815 0.0000 0.0000 0.0000
# 3 29.5815 29.5815 83.7348 0.0000 0.0000 0.0000
# 4 0.0000 0.0000 0.0000 17.9920 0.0000 0.0000
# 5 0.0000 0.0000 0.0000 0.0000 17.9920 0.0000
# 6 0.0000 0.0000 0.0000 0.0000 0.0000 21.8412
#
#
#
# Elastic Compliance Matrix: (Units=1/GPa)
#
#
# Indices 1 2 3 4 5 6 
#
# 1 0.020056 -0.007054 -0.004593 0.000000 0.000000 0.000000
# 2 -0.007054 0.020056 -0.004593 0.000000 0.000000 0.000000
# 3 -0.004593 -0.004593 0.015188 0.000000 0.000000 0.000000
# 4 0.000000 0.000000 0.000000 0.055580 0.000000 0.000000
# 5 0.000000 0.000000 0.000000 0.000000 0.055580 0.000000
# 6 0.000000 0.000000 0.000000 0.000000 0.000000 0.045785
#
#
# Mechanical properties :
#
#
# Convention : Reuss Voigt Hill
#
# Bulk Modulus (GPa) = 43.82358 44.18711 44.00535
# Shear Modulus (GPa) = 19.81516 20.15228 19.98372
#
# Velocity S-wave (km/s) = 3.38571 3.41439 3.40008
# Velocity P-wave (km/s) = 6.37463 6.41142 6.39305
#
# Compressibility (1/GPa) = 0.02281876
#
# Stress axis : x y z
#
# Youngs Moduli (GPa) = 49.86089 49.86089 65.84189
#
# Poissons Ratio (x) = 0.35170 0.30243
# Poissons Ratio (y) = 0.35170 0.30243
# Poissons Ratio (z) = 0.22903 0.22903
#
# Static dielectric constant tensor:
#      x y z
#    x 1.570340 0.000000 0.000000 
#    y 0.000000 1.570340 0.000000 
#    z 0.000000 0.000000 1.617610 
# 
# From -- ./inp_files/4179.got.cif
#   From: 2010.05.17/outbox.cif.g08.bks.cpg/sg129_3_cif.got.tgz:4179.got - 2010.05.20 12:12:06.
