data_PCOD9565623
_publ_section_title
;
Structure prediction by ZEFSAII (Michael W. Deem and Ramdas Pophale) SiO2 
 PCOD9565623
Probable space group: P 4/N C C
;
_chemical_formula_sum "Si O2"
_cell_formula_units_Z 56
_cell_length_a 12.196570
_cell_length_b 12.196570
_cell_length_c 18.199597
_cell_angle_alpha 90.000000
_cell_angle_beta 90.000000
_cell_angle_gamma 90.000000
_cell_volume 2707.305071
_symmetry_space_group_name_H-M "P 4/N C C"
_symmetry_group_IT_number 130
_symmetry_cell_setting 'tetragonal'
loop_
_space_group_symop_operation_xyz
x,y,z
1/2-y,x,z
1/2-x,1/2-y,z
y,1/2-x,z
1/2+x,-y,1/2-z
-x,1/2+y,1/2-z
1/2+y,1/2+x,1/2-z
-y,-x,1/2-z
-x,-y,-z
1/2+y,-x,-z
1/2+x,1/2+y,-z
-y,1/2+x,-z
1/2-x,y,1/2+z
x,1/2-y,1/2+z
1/2-y,1/2-x,1/2+z
y,x,1/2+z
loop_
_atom_site_type_symbol
_atom_site_label
_atom_site_fract_x
_atom_site_fract_y
_atom_site_fract_z
Si Si1 0.250000 0.750000 0.000000
Si Si2 0.908286 0.657102 0.198511
Si Si3 0.584888 0.292098 0.616021
Si Si4 0.576660 0.989988 0.857807
Si Si5 0.250000 0.750000 0.250000
O O1 0.175011 0.681981 0.944757
O O2 0.895620 0.787395 0.188010
O O3 0.948203 0.628765 0.280740
O O4 0.000157 0.597002 0.150501
O O5 0.501445 0.391019 0.620664
O O6 0.521739 0.181003 0.594238
O O7 0.647769 0.263674 0.693327
#
# Coordination Sequence:
#
# PCOD9565623 Si02
#       5
#     4  16  16  16   4
#     4  10  28  46  64  86 116 178 220 270 304 386
#     4  10  20  34  56  98 136 159 198 252 321 374
#     4  11  24  41  64  93 129 164 216 252 321 365
#     4  11  22  35  62  90 128 172 200 260 311 377
#     4  10  20  38  64  98 128 158 208 254 292 382
#
# _framework density 20.684775999999999
#
# number of rings (size 3 to 8) (size 9 to 14) (size 15 to 20)
#    0.000    1.429    2.857    3.429    8.000    1.714 
#    0.000    0.000    0.000    0.000    0.000    0.000 
#    0.000    0.000    0.000    0.000    0.000    0.000 
#
# Total GULP energy -312650.849727 kJ/mol
# GULP energy per Si atom -5583.050888 kJ/mol
# Density = 2.063770 g / cm^3
# Si number density = 20.684776 Si / 1000 Ang^3
#
#
#
# Elastic Constant Matrix: (Units=GPa)
#
#
# Indices 1 2 3 4 5 6 
#
# 1 91.6446 -3.6613 9.4740 0.0000 0.0000 0.0000
# 2 -3.6613 91.6446 9.4740 0.0000 0.0000 0.0000
# 3 9.4740 9.4740 49.8412 0.0000 0.0000 0.0000
# 4 0.0000 0.0000 0.0000 -3.3751 0.0000 0.0000
# 5 0.0000 0.0000 0.0000 0.0000 -3.3751 0.0000
# 6 0.0000 0.0000 0.0000 0.0000 0.0000 51.2501
#
#
#
# Elastic Compliance Matrix: (Units=1/GPa)
#
#
# Indices 1 2 3 4 5 6 
#
# 1 0.011172 0.000679 -0.002253 0.000000 0.000000 0.000000
# 2 0.000679 0.011172 -0.002253 0.000000 0.000000 0.000000
# 3 -0.002253 -0.002253 0.020920 0.000000 0.000000 0.000000
# 4 0.000000 0.000000 0.000000 -0.296287 0.000000 0.000000
# 5 0.000000 0.000000 0.000000 0.000000 -0.296287 0.000000
# 6 0.000000 0.000000 0.000000 0.000000 0.000000 0.019512
#
#
# Mechanical properties :
#
#
# Convention : Reuss Voigt Hill
#
# Bulk Modulus (GPa) = 28.08100 29.30045 28.69072
# Shear Modulus (GPa) = -9.79863 23.42288 6.81213
#
# Velocity S-wave (km/s) = -2.17885 3.36873 1.81672
# Velocity P-wave (km/s) = 2.69727 5.41545 4.27799
#
# Compressibility (1/GPa) = 0.03561127
#
# Stress axis : x y z
#
# Youngs Moduli (GPa) = 89.51166 89.51166 47.80086
#
# Poissons Ratio (x) = -0.06080 0.10768
# Poissons Ratio (y) = -0.06080 0.10768
# Poissons Ratio (z) = 0.20164 0.20164
#
# Static dielectric constant tensor:
#      x y z
#    x 1.750170 0.000000 0.000000 
#    y 0.000000 1.750170 0.000000 
#    z 0.000000 0.000000 1.735470 
# 
# From -- ./inp_files/4078.got.cif
#   From: 2010.05.17/outbox.cif.g08.bks.cpg/sg130_3_cif.got.tgz:4078.got - 2010.05.20 12:17:35.
