data_PCOD9565262
_publ_section_title
;
Structure prediction by ZEFSAII (Michael W. Deem and Ramdas Pophale) SiO2 
 PCOD9565262
Probable space group: P 4/N M M
;
_chemical_formula_sum "Si O2"
_cell_formula_units_Z 64
_cell_length_a 19.476922
_cell_length_b 19.476922
_cell_length_c 10.164368
_cell_angle_alpha 90.000000
_cell_angle_beta 90.000000
_cell_angle_gamma 90.000000
_cell_volume 3855.857987
_symmetry_space_group_name_H-M "P 4/N M M"
_symmetry_group_IT_number 129
_symmetry_cell_setting 'tetragonal'
loop_
_space_group_symop_operation_xyz
x,y,z
1/2-y,x,z
1/2-x,1/2-y,z
y,1/2-x,z
1/2+x,-y,-z
-x,1/2+y,-z
1/2+y,1/2+x,-z
-y,-x,-z
-x,-y,-z
1/2+y,-x,-z
1/2+x,1/2+y,-z
-y,1/2+x,-z
1/2-x,y,z
x,1/2-y,z
1/2-y,1/2-x,z
y,x,z
loop_
_atom_site_type_symbol
_atom_site_label
_atom_site_fract_x
_atom_site_fract_y
_atom_site_fract_z
Si Si1 0.169700 0.557716 0.027844
Si Si2 0.472333 0.672542 0.266072
Si Si3 0.561901 0.828601 0.512124
Si Si4 0.587193 0.473251 0.717042
O O1 0.250000 0.568202 0.058489
O O2 0.129881 0.521843 0.147375
O O3 0.129077 0.629077 0.000000
O O4 0.165097 0.516430 0.890251
O O5 0.442885 0.750000 0.285445
O O6 0.537685 0.668244 0.360706
O O7 0.426123 0.607407 0.304756
O O8 0.563197 0.750000 0.553892
O O9 0.633748 0.866253 0.529067
O O10 0.507200 0.870254 0.599533
O O11 0.515834 0.515834 0.727474
#
# Coordination Sequence:
#
# PCOD9565262 Si02
#       4
#    16  16  16  16
#     4   9  18  31  47  69  97 127 159 197 239 284
#     4   9  18  31  47  70  98 124 154 194 239 285
#     4  10  20  33  50  71  95 125 159 198 243 288
#     4  10  19  31  50  73  96 125 163 204 242 283
#
# _framework density 16.598122
#
# number of rings (size 3 to 8) (size 9 to 14) (size 15 to 20)
#    0.000    2.500    0.000    2.250    0.000    8.000 
#    0.000    0.000    0.000    2.250    0.000   17.500 
#    0.000    6.000    0.000    0.000    0.000    0.000 
#
# Total GULP energy -356327.438805 kJ/mol
# GULP energy per Si atom -5567.616231 kJ/mol
# Density = 1.656034 g / cm^3
# Si number density = 16.598122 Si / 1000 Ang^3
#
#
#
# Elastic Constant Matrix: (Units=GPa)
#
#
# Indices 1 2 3 4 5 6 
#
# 1 72.5207 46.8756 33.3638 0.0000 0.0000 0.0000
# 2 46.8756 72.5207 33.3638 0.0000 0.0000 0.0000
# 3 33.3638 33.3638 63.8845 0.0000 0.0000 0.0000
# 4 0.0000 0.0000 0.0000 21.2356 0.0000 0.0000
# 5 0.0000 0.0000 0.0000 0.0000 21.2356 0.0000
# 6 0.0000 0.0000 0.0000 0.0000 0.0000 10.4031
#
#
#
# Elastic Compliance Matrix: (Units=1/GPa)
#
#
# Indices 1 2 3 4 5 6 
#
# 1 0.025411 -0.013583 -0.006177 0.000000 0.000000 0.000000
# 2 -0.013583 0.025411 -0.006177 0.000000 0.000000 0.000000
# 3 -0.006177 -0.006177 0.022105 0.000000 0.000000 0.000000
# 4 0.000000 0.000000 0.000000 0.047091 0.000000 0.000000
# 5 0.000000 0.000000 0.000000 0.000000 0.047091 0.000000
# 6 0.000000 0.000000 0.000000 0.000000 0.000000 0.096125
#
#
# Mechanical properties :
#
#
# Convention : Reuss Voigt Hill
#
# Bulk Modulus (GPa) = 47.50049 48.45913 47.97981
# Shear Modulus (GPa) = 15.52191 16.92969 16.22580
#
# Velocity S-wave (km/s) = 3.06136 3.19717 3.13000
# Velocity P-wave (km/s) = 6.41685 6.54890 6.48321
#
# Compressibility (1/GPa) = 0.02105241
#
# Stress axis : x y z
#
# Youngs Moduli (GPa) = 39.35340 39.35340 45.23828
#
# Poissons Ratio (x) = 0.53454 0.27944
# Poissons Ratio (y) = 0.53454 0.27944
# Poissons Ratio (z) = 0.24309 0.24309
#
# Static dielectric constant tensor:
#      x y z
#    x 1.550500 0.000000 0.000000 
#    y 0.000000 1.550500 0.000000 
#    z 0.000000 0.000000 1.578090 
# 
# From -- ./inp_files/2036.got.cif
#   From: 2010.05.17/outbox.cif.g08.bks.cpg/sg129_2_cif.got.tgz:2036.got - 2010.05.20 12:12:06.
