data_PCOD9565709
_publ_section_title
;
Structure prediction by ZEFSAII (Michael W. Deem and Ramdas Pophale) SiO2 
 PCOD9565709
Probable space group: P 4/N C C
;
_chemical_formula_sum "Si O2"
_cell_formula_units_Z 128
_cell_length_a 18.934982
_cell_length_b 18.934982
_cell_length_c 20.354644
_cell_angle_alpha 90.000000
_cell_angle_beta 90.000000
_cell_angle_gamma 90.000000
_cell_volume 7297.822637
_symmetry_space_group_name_H-M "P 4/N C C"
_symmetry_group_IT_number 130
_symmetry_cell_setting 'tetragonal'
loop_
_space_group_symop_operation_xyz
x,y,z
1/2-y,x,z
1/2-x,1/2-y,z
y,1/2-x,z
1/2+x,-y,1/2-z
-x,1/2+y,1/2-z
1/2+y,1/2+x,1/2-z
-y,-x,1/2-z
-x,-y,-z
1/2+y,-x,-z
1/2+x,1/2+y,-z
-y,1/2+x,-z
1/2-x,y,1/2+z
x,1/2-y,1/2+z
1/2-y,1/2-x,1/2+z
y,x,1/2+z
loop_
_atom_site_type_symbol
_atom_site_label
_atom_site_fract_x
_atom_site_fract_y
_atom_site_fract_z
Si Si1 0.568230 0.815929 0.766435
Si Si2 0.687281 0.149776 0.572579
Si Si3 0.306933 0.594023 0.208624
Si Si4 0.642045 0.414925 0.312501
Si Si5 0.859106 0.798672 0.981618
Si Si6 0.924466 0.667493 0.342625
Si Si7 0.640397 0.702392 0.128048
Si Si8 0.181631 0.846100 0.071641
O O1 0.484172 0.825481 0.768134
O O2 0.583750 0.740478 0.801512
O O3 0.610077 0.874391 0.808187
O O4 0.594506 0.815827 0.691342
O O5 0.640408 0.120710 0.631255
O O6 0.665951 0.123487 0.500252
O O7 0.672260 0.234421 0.570059
O O8 0.771250 0.142492 0.582446
O O9 0.346455 0.653546 0.250000
O O10 0.222163 0.603690 0.210602
O O11 0.329268 0.603240 0.132702
O O12 0.592419 0.407582 0.250000
O O13 0.645428 0.494061 0.338662
O O14 0.784281 0.839518 0.977748
O O15 0.903743 0.819577 0.918256
O O16 0.889831 0.811306 0.054815
O O17 0.714759 0.660808 0.131849
#
# Coordination Sequence:
#
# PCOD9565709 Si02
#       8
#    16  16  16  16  16  16  16  16
#     4  11  21  34  56  79 110 148 180 217 267 324
#     4   8  14  28  53  78  98 129 166 224 281 314
#     4  10  21  35  52  79 107 137 181 224 267 320
#     4  10  21  35  54  79 106 137 184 224 268 322
#     4   9  17  31  55  85 109 137 177 226 274 318
#     4  11  21  34  56  80 109 144 184 216 266 326
#     4   9  17  31  55  86 112 137 177 227 273 319
#     4   8  14  28  53  78  99 125 171 221 274 322
#
# _framework density 17.539477000000002
#
# number of rings (size 3 to 8) (size 9 to 14) (size 15 to 20)
#    0.000    2.500    2.500    2.250    0.000    2.000 
#    2.250    0.000   11.000    0.750    0.000    0.000 
#    0.000    0.000    0.000    0.000    0.000    0.000 
#
# Total GULP energy -713591.744691 kJ/mol
# GULP energy per Si atom -5574.935505 kJ/mol
# Density = 1.749956 g / cm^3
# Si number density = 17.539477 Si / 1000 Ang^3
#
#
#
# Elastic Constant Matrix: (Units=GPa)
#
#
# Indices 1 2 3 4 5 6 
#
# 1 33.1559 16.5106 34.8717 0.0000 0.0000 0.0000
# 2 16.5106 33.1533 34.8711 0.0000 0.0000 0.0000
# 3 34.8717 34.8711 173.3634 0.0000 0.0000 0.0000
# 4 0.0000 0.0000 0.0000 10.3443 0.0000 0.0000
# 5 0.0000 0.0000 0.0000 0.0000 10.3418 0.0000
# 6 0.0000 0.0000 0.0000 0.0000 0.0000 13.5765
#
#
#
# Elastic Compliance Matrix: (Units=1/GPa)
#
#
# Indices 1 2 3 4 5 6 
#
# 1 0.044069 -0.016010 -0.005644 0.000000 0.000000 0.000000
# 2 -0.016010 0.044073 -0.005645 0.000000 0.000000 0.000000
# 3 -0.005644 -0.005645 0.008039 0.000000 0.000000 0.000000
# 4 0.000000 0.000000 0.000000 0.096672 0.000000 0.000000
# 5 0.000000 0.000000 0.000000 0.000000 0.096695 0.000000
# 6 0.000000 0.000000 0.000000 0.000000 0.000000 0.073657
#
#
# Mechanical properties :
#
#
# Convention : Reuss Voigt Hill
#
# Bulk Modulus (GPa) = 24.04805 45.79769 34.92287
# Shear Modulus (GPa) = 11.58308 17.08047 14.33177
#
# Velocity S-wave (km/s) = 2.57261 3.12401 2.86162
# Velocity P-wave (km/s) = 4.75027 6.25943 5.55633
#
# Compressibility (1/GPa) = 0.04158341
#
# Stress axis : x y z
#
# Youngs Moduli (GPa) = 22.69150 22.68949 124.39499
#
# Poissons Ratio (x) = 0.36327 0.70209
# Poissons Ratio (y) = 0.36330 0.70216
# Poissons Ratio (z) = 0.12807 0.12807
#
# Static dielectric constant tensor:
#      x y z
#    x 1.581430 0.000000 0.000000 
#    y 0.000000 1.581430 0.000000 
#    z 0.000000 0.000000 1.619020 
# 
# From -- ./inp_files/3307.got.cif
#   From: 2010.05.17/outbox.cif.g08.bks.cpg/sg130_2_cif.got.tgz:3307.got - 2010.05.20 12:17:35.
