data_PCOD9565010
_publ_section_title
;
Structure prediction by ZEFSAII (Michael W. Deem and Ramdas Pophale) SiO2 
 PCOD9565010
Probable space group: P 4/M N C
;
_chemical_formula_sum "Si O2"
_cell_formula_units_Z 64
_cell_length_a 12.816061
_cell_length_b 12.816061
_cell_length_c 17.067786
_cell_angle_alpha 90.000000
_cell_angle_beta 90.000000
_cell_angle_gamma 90.000000
_cell_volume 2803.408079
_symmetry_space_group_name_H-M "P 4/M N C"
_symmetry_group_IT_number 128
_symmetry_cell_setting 'tetragonal'
loop_
_space_group_symop_operation_xyz
x,y,z
-y,x,z
-x,-y,z
y,-x,z
1/2+x,1/2-y,1/2-z
1/2-x,1/2+y,1/2-z
1/2+y,1/2+x,1/2-z
1/2-y,1/2-x,1/2-z
-x,-y,-z
y,-x,-z
x,y,-z
-y,x,-z
1/2-x,1/2+y,1/2+z
1/2+x,1/2-y,1/2+z
1/2-y,1/2-x,1/2+z
1/2+y,1/2+x,1/2+z
loop_
_atom_site_type_symbol
_atom_site_label
_atom_site_fract_x
_atom_site_fract_y
_atom_site_fract_z
Si Si1 0.818291 0.840835 0.413968
Si Si2 0.147015 0.597529 0.356591
Si Si3 0.870263 0.599349 0.840076
Si Si4 0.154410 0.067764 0.247676
O O1 0.854359 0.873083 0.500000
O O2 0.692510 0.830443 0.414407
O O3 0.868226 0.730687 0.388566
O O4 0.839851 0.918375 0.341589
O O5 0.475582 0.855850 0.379263
O O6 0.025783 0.615875 0.332460
O O7 0.241099 0.605541 0.293980
O O8 0.862071 0.637930 0.750000
O O9 0.051712 0.132643 0.225139
#
# Coordination Sequence:
#
# PCOD9565010 Si02
#       4
#    16  16  16  16
#     4  12  25  39  58  90 134 174 209 258 320 386
#     4  11  22  41  67  94 123 161 217 275 320 372
#     4  11  22  39  68  96 120 161 217 274 323 370
#     4  11  23  40  65  93 124 166 213 264 322 383
#
# _framework density 22.829355
#
# number of rings (size 3 to 8) (size 9 to 14) (size 15 to 20)
#    0.000    0.750    0.000   11.250    0.000    5.000 
#    0.000    3.750    0.000    0.000    0.000    5.250 
#    0.000    0.000    0.000    0.000    0.000    0.000 
#
# Total GULP energy -357738.668837 kJ/mol
# GULP energy per Si atom -5589.666701 kJ/mol
# Density = 2.277739 g / cm^3
# Si number density = 22.829355 Si / 1000 Ang^3
#
#
#
# Elastic Constant Matrix: (Units=GPa)
#
#
# Indices 1 2 3 4 5 6 
#
# 1 145.2570 47.1255 28.4442 0.0000 0.0000 0.0000
# 2 47.1255 145.2574 28.4441 0.0000 0.0000 0.0000
# 3 28.4442 28.4441 87.4295 0.0000 0.0000 0.0000
# 4 0.0000 0.0000 0.0000 -3.1810 0.0000 0.0000
# 5 0.0000 0.0000 0.0000 0.0000 -3.1810 0.0000
# 6 0.0000 0.0000 0.0000 0.0000 0.0000 46.0240
#
#
#
# Elastic Compliance Matrix: (Units=1/GPa)
#
#
# Indices 1 2 3 4 5 6 
#
# 1 0.007971 -0.002220 -0.001871 0.000000 0.000000 0.000000
# 2 -0.002220 0.007971 -0.001871 0.000000 0.000000 0.000000
# 3 -0.001871 -0.001871 0.012655 0.000000 0.000000 0.000000
# 4 0.000000 0.000000 0.000000 -0.314365 0.000000 0.000000
# 5 0.000000 0.000000 0.000000 0.000000 -0.314362 0.000000
# 6 0.000000 0.000000 0.000000 0.000000 0.000000 0.021728
#
#
# Mechanical properties :
#
#
# Convention : Reuss Voigt Hill
#
# Bulk Modulus (GPa) = 59.97585 65.10796 62.54190
# Shear Modulus (GPa) = -8.91391 26.19439 8.64024
#
# Velocity S-wave (km/s) = -1.97815 3.39100 1.94754
# Velocity P-wave (km/s) = 4.59467 6.62670 5.70194
#
# Compressibility (1/GPa) = 0.01667338
#
# Stress axis : x y z
#
# Youngs Moduli (GPa) = 125.45731 125.45772 79.01845
#
# Poissons Ratio (x) = 0.27846 0.14785
# Poissons Ratio (y) = 0.27846 0.14785
# Poissons Ratio (z) = 0.23474 0.23474
#
# Static dielectric constant tensor:
#      x y z
#    x 1.876870 0.000000 0.000000 
#    y 0.000000 1.876870 0.000000 
#    z 0.000000 0.000000 1.837650 
# 
# From -- ./inp_files/4451.got.cif
#   From: 2010.05.17/outbox.cif.g08.bks.cpg/sg128_3_cif.got.tgz:4451.got - 2010.05.20 12:07:25.
