data_PCOD9565224
_publ_section_title
;
Structure prediction by ZEFSAII (Michael W. Deem and Ramdas Pophale) SiO2 
 PCOD9565224
Probable space group: P 4/N M M
;
_chemical_formula_sum "Si O2"
_cell_formula_units_Z 112
_cell_length_a 15.365529
_cell_length_b 15.365529
_cell_length_c 26.498511
_cell_angle_alpha 90.000000
_cell_angle_beta 90.000000
_cell_angle_gamma 90.000000
_cell_volume 6256.284706
_symmetry_space_group_name_H-M "P 4/N M M"
_symmetry_group_IT_number 129
_symmetry_cell_setting 'tetragonal'
loop_
_space_group_symop_operation_xyz
x,y,z
1/2-y,x,z
1/2-x,1/2-y,z
y,1/2-x,z
1/2+x,-y,-z
-x,1/2+y,-z
1/2+y,1/2+x,-z
-y,-x,-z
-x,-y,-z
1/2+y,-x,-z
1/2+x,1/2+y,-z
-y,1/2+x,-z
1/2-x,y,z
x,1/2-y,z
1/2-y,1/2-x,z
y,x,z
loop_
_atom_site_type_symbol
_atom_site_label
_atom_site_fract_x
_atom_site_fract_y
_atom_site_fract_z
Si Si1 0.144548 0.848658 0.442500
Si Si2 0.347760 0.010104 0.151256
Si Si3 0.347185 0.929718 0.261875
Si Si4 0.845193 0.984327 0.232119
Si Si5 0.851957 0.506661 0.628252
Si Si6 0.345823 0.944360 0.879644
Si Si7 0.354555 0.498292 0.990314
O O1 0.124185 0.875816 0.500000
O O2 0.250000 0.844321 0.440365
O O3 0.112485 0.750000 0.433036
O O4 0.117929 0.921269 0.402503
O O5 0.250000 0.036266 0.139886
O O6 0.416524 0.083477 0.138683
O O7 0.354170 0.987093 0.210949
O O8 0.374707 0.922724 0.122228
O O9 0.250000 0.891606 0.262647
O O10 0.422167 0.858954 0.257379
O O11 0.358388 0.985283 0.312291
O O12 0.750000 0.948757 0.242501
O O13 0.921101 0.921101 0.248963
O O14 0.853684 0.001160 0.171986
O O15 0.750000 0.521981 0.616816
O O16 0.911772 0.588229 0.615725
O O17 0.250000 0.902450 0.878927
O O18 0.351518 0.002299 0.929293
O O19 0.250000 0.499734 0.006352
O O20 0.415439 0.415439 0.007395
O O21 0.413298 0.586703 0.000000
#
# Coordination Sequence:
#
# PCOD9565224 Si02
#       7
#    16  16  16  16  16  16  16
#     4   8  15  29  47  66  89 117 151 193 238 279
#     4  10  19  31  48  68  95 130 163 198 237 280
#     4   9  18  32  48  66  90 122 161 203 243 276
#     4  10  19  31  49  72 100 130 157 190 231 279
#     4  10  19  30  46  68  95 125 155 190 232 280
#     4   9  18  34  55  75  96 125 160 199 244 286
#     4  10  21  37  57  80 105 133 166 204 246 293
#
# _framework density 17.902000000000001
#
# number of rings (size 3 to 8) (size 9 to 14) (size 15 to 20)
#    0.000    2.571    0.000    3.857    0.000    2.714 
#    0.000    5.714    0.000    5.143    0.000    2.000 
#    0.000    0.286    0.000    0.286    0.000    0.000 
#
# Total GULP energy -623858.514769 kJ/mol
# GULP energy per Si atom -5570.165310 kJ/mol
# Density = 1.786125 g / cm^3
# Si number density = 17.902000 Si / 1000 Ang^3
#
#
#
# Elastic Constant Matrix: (Units=GPa)
#
#
# Indices 1 2 3 4 5 6 
#
# 1 95.0135 69.6751 23.6679 0.0000 0.0000 0.0000
# 2 69.6751 95.0135 23.6684 0.0000 0.0000 0.0000
# 3 23.6679 23.6684 45.6350 0.0000 0.0000 0.0000
# 4 0.0000 0.0000 0.0000 9.6061 0.0000 0.0000
# 5 0.0000 0.0000 0.0000 0.0000 9.6063 0.0000
# 6 0.0000 0.0000 0.0000 0.0000 0.0000 1.3665
#
#
#
# Elastic Compliance Matrix: (Units=1/GPa)
#
#
# Indices 1 2 3 4 5 6 
#
# 1 0.023301 -0.016165 -0.003701 0.000000 0.000000 0.000000
# 2 -0.016165 0.023301 -0.003701 0.000000 0.000000 0.000000
# 3 -0.003701 -0.003701 0.025752 0.000000 0.000000 0.000000
# 4 0.000000 0.000000 0.000000 0.104100 0.000000 0.000000
# 5 0.000000 0.000000 0.000000 0.000000 0.104098 0.000000
# 6 0.000000 0.000000 0.000000 0.000000 0.000000 0.731802
#
#
# Mechanical properties :
#
#
# Convention : Reuss Voigt Hill
#
# Bulk Modulus (GPa) = 39.65132 52.18719 45.91926
# Shear Modulus (GPa) = 4.68211 12.02582 8.35397
#
# Velocity S-wave (km/s) = 1.61898 2.59464 2.16255
# Velocity P-wave (km/s) = 5.06872 6.17990 5.65168
#
# Compressibility (1/GPa) = 0.02521984
#
# Stress axis : x y z
#
# Youngs Moduli (GPa) = 42.91717 42.91690 38.83211
#
# Poissons Ratio (x) = 0.69375 0.14370
# Poissons Ratio (y) = 0.69375 0.14373
# Poissons Ratio (z) = 0.15882 0.15884
#
# Static dielectric constant tensor:
#      x y z
#    x 1.613840 0.000000 0.000000 
#    y 0.000000 1.613840 0.000000 
#    z 0.000000 0.000000 1.634140 
# 
# From -- ./inp_files/7573.got.cif
#   From: 2010.05.17/outbox.cif.g08.bks.cpg/sg129_4_cif.got.tgz:7573.got - 2010.05.20 12:12:06.
