data_PCOD9565797
_publ_section_title
;
Structure prediction by ZEFSAII (Michael W. Deem and Ramdas Pophale) SiO2 
 PCOD9565797
Probable space group: P 4/N C C
;
_chemical_formula_sum "Si O2"
_cell_formula_units_Z 96
_cell_length_a 15.005870
_cell_length_b 15.005870
_cell_length_c 22.957332
_cell_angle_alpha 90.000000
_cell_angle_beta 90.000000
_cell_angle_gamma 90.000000
_cell_volume 5169.443277
_symmetry_space_group_name_H-M "P 4/N C C"
_symmetry_group_IT_number 130
_symmetry_cell_setting 'tetragonal'
loop_
_space_group_symop_operation_xyz
x,y,z
1/2-y,x,z
1/2-x,1/2-y,z
y,1/2-x,z
1/2+x,-y,1/2-z
-x,1/2+y,1/2-z
1/2+y,1/2+x,1/2-z
-y,-x,1/2-z
-x,-y,-z
1/2+y,-x,-z
1/2+x,1/2+y,-z
-y,1/2+x,-z
1/2-x,y,1/2+z
x,1/2-y,1/2+z
1/2-y,1/2-x,1/2+z
y,x,1/2+z
loop_
_atom_site_type_symbol
_atom_site_label
_atom_site_fract_x
_atom_site_fract_y
_atom_site_fract_z
Si Si1 0.031800 0.255317 0.841396
Si Si2 0.685802 0.618112 0.278670
Si Si3 0.006987 0.612413 0.373121
Si Si4 0.919115 0.921727 0.595002
Si Si5 0.311041 0.835273 0.318890
Si Si6 0.382289 0.324106 0.022537
O O1 0.086306 0.298494 0.787768
O O2 0.055211 0.318526 0.895625
O O3 0.055404 0.155381 0.857309
O O4 0.927750 0.260322 0.828395
O O5 0.789392 0.636414 0.293798
O O6 0.630561 0.544081 0.312706
O O7 0.025011 0.509912 0.391464
O O8 0.102397 0.658774 0.360478
O O9 0.943216 0.654123 0.421886
O O10 0.870617 0.930477 0.532893
O O11 0.250000 0.750000 0.331306
O O12 0.334003 0.834003 0.250000
O O13 0.282521 0.366216 0.022560
#
# Coordination Sequence:
#
# PCOD9565797 Si02
#       6
#    16  16  16  16  16  16
#     4  11  21  38  64  93 121 166 211 268 322 375
#     4  11  22  37  60  93 131 161 204 268 330 382
#     4  11  24  41  61  94 132 167 216 263 328 402
#     4  11  23  40  66  91 127 164 219 266 319 389
#     4  10  22  41  62  89 130 174 214 259 316 393
#     4  11  23  42  68  94 126 168 214 273 339 385
#
# _framework density 18.570665000000002
#
# number of rings (size 3 to 8) (size 9 to 14) (size 15 to 20)
#    0.000    1.167    5.000    1.500    0.000    4.333 
#    0.000    0.000    0.000    0.000    0.000    0.000 
#    0.000    0.000    0.000    0.000    0.000    0.000 
#
# Total GULP energy -534877.822364 kJ/mol
# GULP energy per Si atom -5571.643983 kJ/mol
# Density = 1.852840 g / cm^3
# Si number density = 18.570665 Si / 1000 Ang^3
#
#
#
# Elastic Constant Matrix: (Units=GPa)
#
#
# Indices 1 2 3 4 5 6 
#
# 1 94.2054 58.4493 31.5705 0.0000 0.0000 0.0000
# 2 58.4493 94.2054 31.5705 0.0000 0.0000 0.0000
# 3 31.5705 31.5705 86.3561 0.0000 0.0000 0.0000
# 4 0.0000 0.0000 0.0000 37.2641 0.0000 0.0000
# 5 0.0000 0.0000 0.0000 0.0000 37.2641 0.0000
# 6 0.0000 0.0000 0.0000 0.0000 0.0000 23.4952
#
#
#
# Elastic Compliance Matrix: (Units=1/GPa)
#
#
# Indices 1 2 3 4 5 6 
#
# 1 0.017843 -0.010125 -0.002821 0.000000 0.000000 0.000000
# 2 -0.010125 0.017843 -0.002821 0.000000 0.000000 0.000000
# 3 -0.002821 -0.002821 0.013643 0.000000 0.000000 0.000000
# 4 0.000000 0.000000 0.000000 0.026835 0.000000 0.000000
# 5 0.000000 0.000000 0.000000 0.000000 0.026835 0.000000
# 6 0.000000 0.000000 0.000000 0.000000 0.000000 0.042562
#
#
# Mechanical properties :
#
#
# Convention : Reuss Voigt Hill
#
# Bulk Modulus (GPa) = 56.20353 57.54974 56.87664
# Shear Modulus (GPa) = 27.31836 29.81646 28.56741
#
# Velocity S-wave (km/s) = 3.83959 4.01130 3.92638
# Velocity P-wave (km/s) = 7.07015 7.24644 7.15884
#
# Compressibility (1/GPa) = 0.01779248
#
# Stress axis : x y z
#
# Youngs Moduli (GPa) = 56.04596 56.04596 73.29793
#
# Poissons Ratio (x) = 0.56745 0.20681
# Poissons Ratio (y) = 0.56745 0.20681
# Poissons Ratio (z) = 0.15813 0.15813
#
# Static dielectric constant tensor:
#      x y z
#    x 1.628640 0.000000 0.000000 
#    y 0.000000 1.628640 0.000000 
#    z 0.000000 0.000000 1.679750 
# 
# From -- ./inp_files/3805.got.cif
#   From: 2010.05.17/outbox.cif.g08.bks.cpg/sg130_2_cif.got.tgz:3805.got - 2010.05.20 12:17:35.
