data_PCOD9565330
_publ_section_title
;
Structure prediction by ZEFSAII (Michael W. Deem and Ramdas Pophale) SiO2 
 PCOD9565330
Probable space group: P 4/N M M
;
_chemical_formula_sum "Si O2"
_cell_formula_units_Z 120
_cell_length_a 27.937352
_cell_length_b 27.937352
_cell_length_c 7.995240
_cell_angle_alpha 90.000000
_cell_angle_beta 90.000000
_cell_angle_gamma 90.000000
_cell_volume 6240.249935
_symmetry_space_group_name_H-M "P 4/N M M"
_symmetry_group_IT_number 129
_symmetry_cell_setting 'tetragonal'
loop_
_space_group_symop_operation_xyz
x,y,z
1/2-y,x,z
1/2-x,1/2-y,z
y,1/2-x,z
1/2+x,-y,-z
-x,1/2+y,-z
1/2+y,1/2+x,-z
-y,-x,-z
-x,-y,-z
1/2+y,-x,-z
1/2+x,1/2+y,-z
-y,1/2+x,-z
1/2-x,y,z
x,1/2-y,z
1/2-y,1/2-x,z
y,x,z
loop_
_atom_site_type_symbol
_atom_site_label
_atom_site_fract_x
_atom_site_fract_y
_atom_site_fract_z
Si Si1 0.303753 0.381060 0.970128
Si Si2 0.196022 0.695408 0.203542
Si Si3 0.870505 0.389084 0.804050
Si Si4 0.525661 0.304219 0.132689
Si Si5 0.301871 0.483764 0.783365
Si Si6 0.931493 0.431493 0.500000
Si Si7 0.641051 0.932574 0.765014
Si Si8 0.607455 0.967062 0.424587
O O1 0.250000 0.362164 0.966471
O O2 0.342652 0.342652 0.911163
O O3 0.319158 0.397693 0.156710
O O4 0.304640 0.430548 0.865807
O O5 0.250000 0.679716 0.253639
O O6 0.189615 0.750000 0.260454
O O7 0.152084 0.661515 0.250250
O O8 0.195716 0.695716 0.000000
O O9 0.825161 0.424951 0.805132
O O10 0.908106 0.408279 0.667405
O O11 0.887564 0.387564 0.000000
O O12 0.515366 0.250000 0.193261
O O13 0.484831 0.342464 0.179314
O O14 0.522154 0.301755 0.932318
O O15 0.250000 0.486978 0.695160
O O16 0.350289 0.488834 0.683900
O O17 0.920996 0.488136 0.501145
O O18 0.590788 0.909213 0.827820
O O19 0.634848 0.937281 0.568142
O O20 0.569589 0.930412 0.342076
#
# Coordination Sequence:
#
# PCOD9565330 Si02
#       8
#    16  16  16  16  16   8  16  16
#     4   9  17  31  52  80 114 149 190 236 282 344
#     4   8  15  31  56  82 108 145 190 232 285 355
#     4  11  22  38  59  82 117 152 189 242 301 349
#     4  10  19  36  58  82 112 148 189 239 292 346
#     4   9  19  34  57  87 113 144 191 238 285 345
#     4  12  25  42  56  87 116 148 202 244 288 353
#     4   9  18  33  54  77 105 144 185 229 283 337
#     4  11  22  39  59  79 114 154 187 238 294 341
#
# _framework density 19.229997999999998
#
# number of rings (size 3 to 8) (size 9 to 14) (size 15 to 20)
#    0.000    2.267    1.333    3.400    0.000    2.267 
#    0.000    2.000    0.000    2.800    0.000    0.000 
#    0.000    3.200    0.000    0.000    0.000    0.000 
#
# Total GULP energy -668073.966474 kJ/mol
# GULP energy per Si atom -5567.283054 kJ/mol
# Density = 1.918623 g / cm^3
# Si number density = 19.229998 Si / 1000 Ang^3
#
#
#
# Elastic Constant Matrix: (Units=GPa)
#
#
# Indices 1 2 3 4 5 6 
#
# 1 55.5944 21.5243 2.1420 0.0000 0.0000 0.0000
# 2 21.5243 55.5944 2.1420 0.0000 0.0000 0.0000
# 3 2.1420 2.1420 25.4821 0.0000 0.0000 0.0000
# 4 0.0000 0.0000 0.0000 14.5505 0.0000 0.0000
# 5 0.0000 0.0000 0.0000 0.0000 14.5505 0.0000
# 6 0.0000 0.0000 0.0000 0.0000 0.0000 22.0064
#
#
#
# Elastic Compliance Matrix: (Units=1/GPa)
#
#
# Indices 1 2 3 4 5 6 
#
# 1 0.021190 -0.008162 -0.001095 0.000000 0.000000 0.000000
# 2 -0.008162 0.021190 -0.001095 0.000000 0.000000 0.000000
# 3 -0.001095 -0.001095 0.039427 0.000000 0.000000 0.000000
# 4 0.000000 0.000000 0.000000 0.068726 0.000000 0.000000
# 5 0.000000 0.000000 0.000000 0.000000 0.068726 0.000000
# 6 0.000000 0.000000 0.000000 0.000000 0.000000 0.045441
#
#
# Mechanical properties :
#
#
# Convention : Reuss Voigt Hill
#
# Bulk Modulus (GPa) = 16.36590 20.92081 18.64335
# Shear Modulus (GPa) = 16.35207 17.61231 16.98219
#
# Velocity S-wave (km/s) = 2.91923 3.02963 2.97494
# Velocity P-wave (km/s) = 4.46000 4.81052 4.63857
#
# Compressibility (1/GPa) = 0.06110268
#
# Stress axis : x y z
#
# Youngs Moduli (GPa) = 47.19303 47.19303 25.36312
#
# Poissons Ratio (x) = 0.38518 0.02777
# Poissons Ratio (y) = 0.38518 0.02777
# Poissons Ratio (z) = 0.05168 0.05168
#
# Static dielectric constant tensor:
#      x y z
#    x 1.686830 0.000000 0.000000 
#    y 0.000000 1.686830 0.000000 
#    z 0.000000 0.000000 1.698990 
# 
# From -- ./inp_files/2893.got.cif
#   From: 2010.05.17/outbox.cif.g08.bks.cpg/sg129_2_cif.got.tgz:2893.got - 2010.05.20 12:12:06.
