data_PCOD9565628
_publ_section_title
;
Structure prediction by ZEFSAII (Michael W. Deem and Ramdas Pophale) SiO2 
 PCOD9565628
Probable space group: P 4/N C C
;
_chemical_formula_sum "Si O2"
_cell_formula_units_Z 48
_cell_length_a 12.172826
_cell_length_b 12.172826
_cell_length_c 12.288928
_cell_angle_alpha 90.000000
_cell_angle_beta 90.000000
_cell_angle_gamma 90.000000
_cell_volume 1820.944998
_symmetry_space_group_name_H-M "P 4/N C C"
_symmetry_group_IT_number 130
_symmetry_cell_setting 'tetragonal'
loop_
_space_group_symop_operation_xyz
x,y,z
1/2-y,x,z
1/2-x,1/2-y,z
y,1/2-x,z
1/2+x,-y,1/2-z
-x,1/2+y,1/2-z
1/2+y,1/2+x,1/2-z
-y,-x,1/2-z
-x,-y,-z
1/2+y,-x,-z
1/2+x,1/2+y,-z
-y,1/2+x,-z
1/2-x,y,1/2+z
x,1/2-y,1/2+z
1/2-y,1/2-x,1/2+z
y,x,1/2+z
loop_
_atom_site_type_symbol
_atom_site_label
_atom_site_fract_x
_atom_site_fract_y
_atom_site_fract_z
Si Si1 0.891056 0.636672 0.904229
Si Si2 0.109269 0.973313 0.422209
Si Si3 0.633845 0.183813 0.865116
O O1 0.898080 0.765790 0.878897
O O2 0.001079 0.574828 0.864686
O O3 0.898834 0.596316 0.031432
O O4 0.127282 0.896084 0.531183
O O5 0.220924 0.955934 0.360751
O O6 0.750000 0.250000 0.869719
O O7 0.625310 0.125310 0.750000
#
# Coordination Sequence:
#
# PCOD9565628 Si02
#       3
#    16  16  16
#     4  10  20  34  66  96 124 182 212 255 341 401
#     4  11  19  38  62  95 134 164 213 274 325 389
#     4  11  20  34  63  98 122 157 213 269 323 374
#
# _framework density 26.359939000000001
#
# number of rings (size 3 to 8) (size 9 to 14) (size 15 to 20)
#    0.000    1.333    6.667    0.000    0.000    0.000 
#    0.000    0.000   44.000    0.000   34.667    0.000 
#    0.000    0.000    0.000    0.000    0.000    0.000 
#
# Total GULP energy -268037.163514 kJ/mol
# GULP energy per Si atom -5584.107573 kJ/mol
# Density = 2.629994 g / cm^3
# Si number density = 26.359939 Si / 1000 Ang^3
#
#
#
# Elastic Constant Matrix: (Units=GPa)
#
#
# Indices 1 2 3 4 5 6 
#
# 1 129.8471 29.5416 50.2997 0.0000 0.0000 0.0000
# 2 29.5416 129.8471 50.2997 0.0000 0.0000 0.0000
# 3 50.2997 50.2997 91.4977 0.0000 0.0000 0.0000
# 4 0.0000 0.0000 0.0000 23.0729 0.0000 0.0000
# 5 0.0000 0.0000 0.0000 0.0000 23.0729 0.0000
# 6 0.0000 0.0000 0.0000 0.0000 0.0000 57.0586
#
#
#
# Elastic Compliance Matrix: (Units=1/GPa)
#
#
# Indices 1 2 3 4 5 6 
#
# 1 0.009789 -0.000181 -0.005282 0.000000 0.000000 0.000000
# 2 -0.000181 0.009789 -0.005282 0.000000 0.000000 0.000000
# 3 -0.005282 -0.005282 0.016736 0.000000 0.000000 0.000000
# 4 0.000000 0.000000 0.000000 0.043341 0.000000 0.000000
# 5 0.000000 0.000000 0.000000 0.000000 0.043341 0.000000
# 6 0.000000 0.000000 0.000000 0.000000 0.000000 0.017526
#
#
# Mechanical properties :
#
#
# Convention : Reuss Voigt Hill
#
# Bulk Modulus (GPa) = 67.45447 67.94154 67.69800
# Shear Modulus (GPa) = 29.94894 35.37761 32.66328
#
# Velocity S-wave (km/s) = 3.37434 3.66744 3.52394
# Velocity P-wave (km/s) = 6.38959 6.61543 6.50350
#
# Compressibility (1/GPa) = 0.01482482
#
# Stress axis : x y z
#
# Youngs Moduli (GPa) = 102.16051 102.16051 59.75073
#
# Poissons Ratio (x) = 0.01849 0.31558
# Poissons Ratio (y) = 0.01849 0.31558
# Poissons Ratio (z) = 0.53957 0.53957
#
# Static dielectric constant tensor:
#      x y z
#    x 2.152120 0.000000 0.000000 
#    y 0.000000 2.152120 0.000000 
#    z 0.000000 0.000000 2.104560 
# 
# From -- ./inp_files/2057.got.cif
#   From: 2010.05.17/outbox.cif.g08.bks.cpg/sg130_2_cif.got.tgz:2057.got - 2010.05.20 12:17:35.
