data_PCOD9565189
_publ_section_title
;
Structure prediction by ZEFSAII (Michael W. Deem and Ramdas Pophale) SiO2 
 PCOD9565189
Probable space group: P 4/N M M
;
_chemical_formula_sum "Si O2"
_cell_formula_units_Z 64
_cell_length_a 14.065209
_cell_length_b 14.065209
_cell_length_c 20.909406
_cell_angle_alpha 90.000000
_cell_angle_beta 90.000000
_cell_angle_gamma 90.000000
_cell_volume 4136.509968
_symmetry_space_group_name_H-M "P 4/N M M"
_symmetry_group_IT_number 129
_symmetry_cell_setting 'tetragonal'
loop_
_space_group_symop_operation_xyz
x,y,z
1/2-y,x,z
1/2-x,1/2-y,z
y,1/2-x,z
1/2+x,-y,-z
-x,1/2+y,-z
1/2+y,1/2+x,-z
-y,-x,-z
-x,-y,-z
1/2+y,-x,-z
1/2+x,1/2+y,-z
-y,1/2+x,-z
1/2-x,y,z
x,1/2-y,z
1/2-y,1/2-x,z
y,x,z
loop_
_atom_site_type_symbol
_atom_site_label
_atom_site_fract_x
_atom_site_fract_y
_atom_site_fract_z
Si Si1 0.483004 0.636688 0.807369
Si Si2 0.979300 0.363370 0.552646
Si Si3 0.359275 0.865759 0.929333
Si Si4 0.638302 0.139441 0.318942
O O1 0.495979 0.750000 0.810873
O O2 0.581005 0.581005 0.805319
O O3 0.423648 0.605749 0.869883
O O4 0.423503 0.616242 0.743137
O O5 0.909018 0.409018 0.500000
O O6 0.990934 0.250000 0.543228
O O7 0.929306 0.379121 0.621387
O O8 0.077373 0.422627 0.549457
O O9 0.250000 0.897126 0.920490
O O10 0.357447 0.750000 0.930529
O O11 0.394426 0.894426 0.000000
O O12 0.750000 0.133522 0.302133
O O13 0.619422 0.250000 0.337038
#
# Coordination Sequence:
#
# PCOD9565189 Si02
#       4
#    16  16  16  16
#     4  10  19  29  42  61  87 118 148 177 211 255
#     4  10  20  33  50  72  97 124 154 188 226 269
#     4   8  14  26  44  64  84 105 134 178 227 265
#     4   9  17  30  49  70  89 111 144 187 230 267
#
# _framework density 15.471981
#
# number of rings (size 3 to 8) (size 9 to 14) (size 15 to 20)
#    0.000    2.750    0.000    3.000    0.000    5.250 
#    0.000    0.000    0.000    0.000    0.000    3.500 
#    0.000    4.500    0.000    1.000    0.000    0.000 
#
# Total GULP energy -356544.720667 kJ/mol
# GULP energy per Si atom -5571.011260 kJ/mol
# Density = 1.543677 g / cm^3
# Si number density = 15.471981 Si / 1000 Ang^3
#
#
#
# Elastic Constant Matrix: (Units=GPa)
#
#
# Indices 1 2 3 4 5 6 
#
# 1 69.1186 53.7753 60.1957 0.0000 0.0000 0.0000
# 2 53.7753 69.1186 60.1957 0.0000 0.0000 0.0000
# 3 60.1957 60.1957 116.2940 0.0000 0.0000 0.0000
# 4 0.0000 0.0000 0.0000 5.1660 0.0000 0.0000
# 5 0.0000 0.0000 0.0000 0.0000 5.1660 0.0000
# 6 0.0000 0.0000 0.0000 0.0000 0.0000 21.1546
#
#
#
# Elastic Compliance Matrix: (Units=1/GPa)
#
#
# Indices 1 2 3 4 5 6 
#
# 1 0.040842 -0.024334 -0.008545 0.000000 0.000000 0.000000
# 2 -0.024334 0.040842 -0.008545 0.000000 0.000000 0.000000
# 3 -0.008545 -0.008545 0.017445 0.000000 0.000000 0.000000
# 4 0.000000 0.000000 0.000000 0.193574 0.000000 0.000000
# 5 0.000000 0.000000 0.000000 0.000000 0.193574 0.000000
# 6 0.000000 0.000000 0.000000 0.000000 0.000000 0.047271
#
#
# Mechanical properties :
#
#
# Convention : Reuss Voigt Hill
#
# Bulk Modulus (GPa) = 61.41965 66.98496 64.20231
# Shear Modulus (GPa) = 8.04090 11.65494 9.84792
#
# Velocity S-wave (km/s) = 2.28218 2.74760 2.52563
# Velocity P-wave (km/s) = 6.83579 7.31123 7.07750
#
# Compressibility (1/GPa) = 0.01628143
#
# Stress axis : x y z
#
# Youngs Moduli (GPa) = 24.48485 24.48485 57.32400
#
# Poissons Ratio (x) = 0.59581 0.48982
# Poissons Ratio (y) = 0.59581 0.48982
# Poissons Ratio (z) = 0.20922 0.20922
#
# Static dielectric constant tensor:
#      x y z
#    x 1.494260 0.000000 0.000000 
#    y 0.000000 1.494260 0.000000 
#    z 0.000000 0.000000 1.521100 
# 
# From -- ./inp_files/5365.got.cif
#   From: 2010.05.17/outbox.cif.g08.bks.cpg/sg129_3_cif.got.tgz:5365.got - 2010.05.20 12:12:06.
