data_PCOD9565646
_publ_section_title
;
Structure prediction by ZEFSAII (Michael W. Deem and Ramdas Pophale) SiO2 
 PCOD9565646
Probable space group: P 4/N C C
;
_chemical_formula_sum "Si O2"
_cell_formula_units_Z 80
_cell_length_a 12.166645
_cell_length_b 12.166645
_cell_length_c 27.006501
_cell_angle_alpha 90.000000
_cell_angle_beta 90.000000
_cell_angle_gamma 90.000000
_cell_volume 3997.698090
_symmetry_space_group_name_H-M "P 4/N C C"
_symmetry_group_IT_number 130
_symmetry_cell_setting 'tetragonal'
loop_
_space_group_symop_operation_xyz
x,y,z
1/2-y,x,z
1/2-x,1/2-y,z
y,1/2-x,z
1/2+x,-y,1/2-z
-x,1/2+y,1/2-z
1/2+y,1/2+x,1/2-z
-y,-x,1/2-z
-x,-y,-z
1/2+y,-x,-z
1/2+x,1/2+y,-z
-y,1/2+x,-z
1/2-x,y,1/2+z
x,1/2-y,1/2+z
1/2-y,1/2-x,1/2+z
y,x,1/2+z
loop_
_atom_site_type_symbol
_atom_site_label
_atom_site_fract_x
_atom_site_fract_y
_atom_site_fract_z
Si Si1 0.377388 0.122260 0.291077
Si Si2 0.754186 0.126017 0.374129
Si Si3 0.144467 0.943551 0.953774
Si Si4 0.904655 0.016878 0.297183
Si Si5 0.105480 0.949209 0.438305
O O1 0.400518 0.248968 0.302732
O O2 0.454475 0.028583 0.314912
O O3 0.395093 0.097991 0.232040
O O4 0.750000 0.250000 0.352858
O O5 0.831484 0.134390 0.422693
O O6 0.813535 0.043796 0.336789
O O7 0.634936 0.092876 0.393180
O O8 0.267828 0.983486 0.944495
O O9 0.117001 0.923750 0.011244
O O10 0.054018 0.028477 0.934963
O O11 0.898459 0.101542 0.250000
#
# Coordination Sequence:
#
# PCOD9565646 Si02
#       5
#    16  16  16  16  16
#     4   8  16  36  57  75 112 155 187 237 297 343
#     4  10  20  37  57  83 111 152 190 234 290 345
#     4  10  20  36  57  87 112 155 193 236 292 342
#     4   8  20  35  51  87 106 145 195 232 284 346
#     4  10  20  36  61  80 119 151 192 241 287 350
#
# _framework density 20.011517000000001
#
# number of rings (size 3 to 8) (size 9 to 14) (size 15 to 20)
#    1.200    1.400    2.000    0.000    0.000    2.400 
#   14.400    0.000    0.000    0.600    0.000    0.000 
#    0.000    0.000    0.000    0.000    0.000    0.000 
#
# Total GULP energy -445706.479342 kJ/mol
# GULP energy per Si atom -5571.330992 kJ/mol
# Density = 1.996597 g / cm^3
# Si number density = 20.011517 Si / 1000 Ang^3
#
#
#
# Elastic Constant Matrix: (Units=GPa)
#
#
# Indices 1 2 3 4 5 6 
#
# 1 73.0352 45.1799 4.6602 0.0000 0.0000 0.0000
# 2 45.1799 73.0351 4.6602 0.0000 0.0000 0.0000
# 3 4.6602 4.6602 47.4445 0.0000 0.0000 0.0000
# 4 0.0000 0.0000 0.0000 12.2237 0.0000 0.0000
# 5 0.0000 0.0000 0.0000 0.0000 12.2237 0.0000
# 6 0.0000 0.0000 0.0000 0.0000 0.0000 19.4199
#
#
#
# Elastic Compliance Matrix: (Units=1/GPa)
#
#
# Indices 1 2 3 4 5 6 
#
# 1 0.022213 -0.013687 -0.000837 0.000000 0.000000 0.000000
# 2 -0.013687 0.022213 -0.000837 0.000000 0.000000 0.000000
# 3 -0.000837 -0.000837 0.021242 0.000000 0.000000 0.000000
# 4 0.000000 0.000000 0.000000 0.081808 0.000000 0.000000
# 5 0.000000 0.000000 0.000000 0.000000 0.081808 0.000000
# 6 0.000000 0.000000 0.000000 0.000000 0.000000 0.051494
#
#
# Mechanical properties :
#
#
# Convention : Reuss Voigt Hill
#
# Bulk Modulus (GPa) = 28.61836 33.61283 31.11560
# Shear Modulus (GPa) = 15.47274 18.04109 16.75691
#
# Velocity S-wave (km/s) = 2.78365 3.00582 2.89686
# Velocity P-wave (km/s) = 4.96625 5.37399 5.17414
#
# Compressibility (1/GPa) = 0.03494260
#
# Stress axis : x y z
#
# Youngs Moduli (GPa) = 45.01965 45.01956 47.07709
#
# Poissons Ratio (x) = 0.61620 0.03942
# Poissons Ratio (y) = 0.61620 0.03942
# Poissons Ratio (z) = 0.03770 0.03770
#
# Static dielectric constant tensor:
#      x y z
#    x 1.694640 0.000000 0.000000 
#    y 0.000000 1.694640 0.000000 
#    z 0.000000 0.000000 1.760460 
# 
# From -- ./inp_files/4766.got.cif
#   From: 2010.05.17/outbox.cif.g08.bks.cpg/sg130_3_cif.got.tgz:4766.got - 2010.05.20 12:17:35.
