data_PCOD9565141
_publ_section_title
;
Structure prediction by ZEFSAII (Michael W. Deem and Ramdas Pophale) SiO2 
 PCOD9565141
Probable space group: P 4/N M M
;
_chemical_formula_sum "Si O2"
_cell_formula_units_Z 112
_cell_length_a 20.201106
_cell_length_b 20.201106
_cell_length_c 17.812220
_cell_angle_alpha 90.000000
_cell_angle_beta 90.000000
_cell_angle_gamma 90.000000
_cell_volume 7268.894163
_symmetry_space_group_name_H-M "P 4/N M M"
_symmetry_group_IT_number 129
_symmetry_cell_setting 'tetragonal'
loop_
_space_group_symop_operation_xyz
x,y,z
1/2-y,x,z
1/2-x,1/2-y,z
y,1/2-x,z
1/2+x,-y,-z
-x,1/2+y,-z
1/2+y,1/2+x,-z
-y,-x,-z
-x,-y,-z
1/2+y,-x,-z
1/2+x,1/2+y,-z
-y,1/2+x,-z
1/2-x,y,z
x,1/2-y,z
1/2-y,1/2-x,z
y,x,z
loop_
_atom_site_type_symbol
_atom_site_label
_atom_site_fract_x
_atom_site_fract_y
_atom_site_fract_z
Si Si1 0.574655 0.171936 0.603028
Si Si2 0.504085 0.390149 0.019530
Si Si3 0.489681 0.600877 0.257550
Si Si4 0.112165 0.998796 0.188733
Si Si5 0.437883 0.327156 0.879757
Si Si6 0.054857 0.672465 0.570246
Si Si7 0.326414 0.436478 0.326185
O O1 0.590225 0.250000 0.614586
O O2 0.529325 0.143713 0.669786
O O3 0.544638 0.165770 0.519118
O O4 0.636532 0.121679 0.596834
O O5 0.447013 0.447013 0.019689
O O6 0.509819 0.363248 0.103908
O O7 0.571447 0.428554 0.000000
O O8 0.481654 0.340892 0.954214
O O9 0.542545 0.542545 0.276066
O O10 0.424433 0.565387 0.222997
O O11 0.522277 0.644826 0.191977
O O12 0.165466 0.027585 0.245946
O O13 0.053757 0.053757 0.185710
O O14 0.423529 0.250000 0.871884
O O15 0.371893 0.371893 0.886164
O O16 0.061151 0.750000 0.587312
O O17 0.990764 0.647334 0.614542
O O18 0.250000 0.421205 0.341676
O O19 0.372221 0.372221 0.327459
#
# Coordination Sequence:
#
# PCOD9565141 Si02
#       7
#    16  16  16  16  16  16  16
#     4  10  19  31  49  73 100 128 163 207 249 296
#     4   9  15  27  47  69  92 119 154 198 243 282
#     4  10  18  30  48  72  99 127 161 202 250 296
#     4   9  16  28  48  71  94 121 155 199 249 291
#     4  10  20  32  48  71 100 133 167 202 241 290
#     4   9  19  33  48  70  99 131 164 199 248 303
#     4  10  20  34  51  71  98 130 164 203 245 293
#
# _framework density 15.408121
#
# number of rings (size 3 to 8) (size 9 to 14) (size 15 to 20)
#    0.000    2.429    2.857    0.429    0.000    1.714 
#    0.000    2.857    0.000    0.000    0.000    4.000 
#    0.000    4.857    0.000    0.000    0.000    0.000 
#
# Total GULP energy -623638.801340 kJ/mol
# GULP energy per Si atom -5568.203583 kJ/mol
# Density = 1.537305 g / cm^3
# Si number density = 15.408121 Si / 1000 Ang^3
#
#
#
# Elastic Constant Matrix: (Units=GPa)
#
#
# Indices 1 2 3 4 5 6 
#
# 1 69.3455 42.9625 40.7601 0.0000 0.0000 0.0000
# 2 42.9625 69.3457 40.7602 0.0000 0.0000 0.0000
# 3 40.7601 40.7602 99.7379 0.0000 0.0000 0.0000
# 4 0.0000 0.0000 0.0000 20.6416 0.0000 0.0000
# 5 0.0000 0.0000 0.0000 0.0000 20.6417 0.0000
# 6 0.0000 0.0000 0.0000 0.0000 0.0000 12.9922
#
#
#
# Elastic Compliance Matrix: (Units=1/GPa)
#
#
# Indices 1 2 3 4 5 6 
#
# 1 0.025281 -0.012622 -0.005174 0.000000 0.000000 0.000000
# 2 -0.012622 0.025281 -0.005174 0.000000 0.000000 0.000000
# 3 -0.005174 -0.005174 0.014255 0.000000 0.000000 0.000000
# 4 0.000000 0.000000 0.000000 0.048446 0.000000 0.000000
# 5 0.000000 0.000000 0.000000 0.000000 0.048446 0.000000
# 6 0.000000 0.000000 0.000000 0.000000 0.000000 0.076969
#
#
# Mechanical properties :
#
#
# Convention : Reuss Voigt Hill
#
# Bulk Modulus (GPa) = 52.96771 54.15496 53.56134
# Shear Modulus (GPa) = 17.18751 18.45153 17.81952
#
# Velocity S-wave (km/s) = 3.34351 3.46427 3.40443
# Velocity P-wave (km/s) = 7.02542 7.15716 7.09160
#
# Compressibility (1/GPa) = 0.01887943
#
# Stress axis : x y z
#
# Youngs Moduli (GPa) = 39.55502 39.55513 70.15162
#
# Poissons Ratio (x) = 0.49926 0.36293
# Poissons Ratio (y) = 0.49926 0.36293
# Poissons Ratio (z) = 0.20464 0.20464
#
# Static dielectric constant tensor:
#      x y z
#    x 1.500370 0.000000 0.000000 
#    y 0.000000 1.500370 0.000000 
#    z 0.000000 0.000000 1.531340 
# 
# From -- ./inp_files/6045.got.cif
#   From: 2010.05.17/outbox.cif.g08.bks.cpg/sg129_4_cif.got.tgz:6045.got - 2010.05.20 12:12:06.
