data_PCOD9565073
_publ_section_title
;
Structure prediction by ZEFSAII (Michael W. Deem and Ramdas Pophale) SiO2 
 PCOD9565073
Probable space group: P 4/M N C
;
_chemical_formula_sum "Si O2"
_cell_formula_units_Z 48
_cell_length_a 7.166395
_cell_length_b 7.166395
_cell_length_c 34.568213
_cell_angle_alpha 90.000000
_cell_angle_beta 90.000000
_cell_angle_gamma 90.000000
_cell_volume 1775.327227
_symmetry_space_group_name_H-M "P 4/M N C"
_symmetry_group_IT_number 128
_symmetry_cell_setting 'tetragonal'
loop_
_space_group_symop_operation_xyz
x,y,z
-y,x,z
-x,-y,z
y,-x,z
1/2+x,1/2-y,1/2-z
1/2-x,1/2+y,1/2-z
1/2+y,1/2+x,1/2-z
1/2-y,1/2-x,1/2-z
-x,-y,-z
y,-x,-z
x,y,-z
-y,x,-z
1/2-x,1/2+y,1/2+z
1/2+x,1/2-y,1/2+z
1/2-y,1/2-x,1/2+z
1/2+y,1/2+x,1/2+z
loop_
_atom_site_type_symbol
_atom_site_label
_atom_site_fract_x
_atom_site_fract_y
_atom_site_fract_z
Si Si1 0.218491 0.631408 0.793782
Si Si2 0.223467 0.656855 0.041424
Si Si3 0.348101 0.220307 0.875778
O O1 0.261688 0.413598 0.795824
O O2 0.152939 0.652939 0.750000
O O3 0.123087 0.690605 0.834371
O O4 0.257595 0.432701 0.041386
O O5 0.131602 0.702286 0.082822
O O6 0.133672 0.704966 0.000000
O O7 0.571584 0.259566 0.876088
#
# Coordination Sequence:
#
# PCOD9565073 Si02
#       3
#    16  16  16
#     4   9  17  28  41  57  78 104 132 161 193 228
#     4   7   8  10  19  37  61  88 114 137 166 211
#     4   7  10  17  28  43  66  94 119 144 178 219
#
# _framework density 27.037267
#
# number of rings (size 3 to 8) (size 9 to 14) (size 15 to 20)
#    0.000    4.333    0.000    5.000    0.000    0.667 
#    0.000    0.000    0.000    0.000    0.000    0.000 
#    0.000    2.667    0.000   29.667    0.000   26.667 
#
# Total GULP energy -267700.388259 kJ/mol
# GULP energy per Si atom -5577.091422 kJ/mol
# Density = 2.697573 g / cm^3
# Si number density = 27.037267 Si / 1000 Ang^3
#
#
#
# Elastic Constant Matrix: (Units=GPa)
#
#
# Indices 1 2 3 4 5 6 
#
# 1 72.5172 -2.5407 37.0466 0.0000 0.0000 0.0000
# 2 -2.5407 72.5172 37.0466 0.0000 0.0000 0.0000
# 3 37.0466 37.0466 433.2642 0.0000 0.0000 0.0000
# 4 0.0000 0.0000 0.0000 25.0137 0.0000 0.0000
# 5 0.0000 0.0000 0.0000 0.0000 25.0137 0.0000
# 6 0.0000 0.0000 0.0000 0.0000 0.0000 11.0430
#
#
#
# Elastic Compliance Matrix: (Units=1/GPa)
#
#
# Indices 1 2 3 4 5 6 
#
# 1 0.014518 0.001195 -0.001344 0.000000 0.000000 0.000000
# 2 0.001195 0.014518 -0.001344 0.000000 0.000000 0.000000
# 3 -0.001344 -0.001344 0.002538 0.000000 0.000000 0.000000
# 4 0.000000 0.000000 0.000000 0.039978 0.000000 0.000000
# 5 0.000000 0.000000 0.000000 0.000000 0.039978 0.000000
# 6 0.000000 0.000000 0.000000 0.000000 0.000000 0.090555
#
#
# Mechanical properties :
#
#
# Convention : Reuss Voigt Hill
#
# Bulk Modulus (GPa) = 34.97750 80.15596 57.56673
# Shear Modulus (GPa) = 23.29919 45.99712 34.64816
#
# Velocity S-wave (km/s) = 2.93873 4.12909 3.58368
# Velocity P-wave (km/s) = 4.94770 7.24178 6.20174
#
# Compressibility (1/GPa) = 0.02858981
#
# Stress axis : x y z
#
# Youngs Moduli (GPa) = 68.87958 68.87958 394.03808
#
# Poissons Ratio (x) = -0.08231 0.52942
# Poissons Ratio (y) = -0.08231 0.52942
# Poissons Ratio (z) = 0.09254 0.09254
#
# Static dielectric constant tensor:
#      x y z
#    x 2.119970 0.000000 0.000000 
#    y 0.000000 2.119970 0.000000 
#    z 0.000000 0.000000 2.224320 
# 
# From -- ./inp_files/6983.got.cif
#   From: 2010.05.17/outbox.cif.g08.bks.cpg/sg128_4_cif.got.tgz:6983.got - 2010.05.20 12:07:25.
