data_PCOD9565629
_publ_section_title
;
Structure prediction by ZEFSAII (Michael W. Deem and Ramdas Pophale) SiO2 
 PCOD9565629
Probable space group: P 4/N C C
;
_chemical_formula_sum "Si O2"
_cell_formula_units_Z 72
_cell_length_a 27.925693
_cell_length_b 27.925693
_cell_length_c 5.417976
_cell_angle_alpha 90.000000
_cell_angle_beta 90.000000
_cell_angle_gamma 90.000000
_cell_volume 4225.177861
_symmetry_space_group_name_H-M "P 4/N C C"
_symmetry_group_IT_number 130
_symmetry_cell_setting 'tetragonal'
loop_
_space_group_symop_operation_xyz
x,y,z
1/2-y,x,z
1/2-x,1/2-y,z
y,1/2-x,z
1/2+x,-y,1/2-z
-x,1/2+y,1/2-z
1/2+y,1/2+x,1/2-z
-y,-x,1/2-z
-x,-y,-z
1/2+y,-x,-z
1/2+x,1/2+y,-z
-y,1/2+x,-z
1/2-x,y,1/2+z
x,1/2-y,1/2+z
1/2-y,1/2-x,1/2+z
y,x,1/2+z
loop_
_atom_site_type_symbol
_atom_site_label
_atom_site_fract_x
_atom_site_fract_y
_atom_site_fract_z
Si Si1 0.545512 0.275363 0.191370
Si Si2 0.549247 0.381293 0.093058
Si Si3 0.347164 0.736525 0.393825
Si Si4 0.974411 0.554689 0.698587
Si Si5 0.864083 0.135917 0.750000
O O1 0.527496 0.245194 0.427820
O O2 0.535770 0.331990 0.230783
O O3 0.602881 0.265118 0.159461
O O4 0.578065 0.421936 0.250000
O O5 0.507079 0.405981 0.937820
O O6 0.587309 0.362377 0.895693
O O7 0.322314 0.757457 0.630739
O O8 0.360724 0.681309 0.426829
O O9 0.935809 0.542776 0.480887
O O10 0.008837 0.508837 0.750000
#
# Coordination Sequence:
#
# PCOD9565629 Si02
#       5
#    16  16  16  16   8
#     4  10  20  35  46  67  93 107 141 196 231 265
#     4  12  22  31  53  72  88 121 156 177 237 297
#     4  10  20  35  45  64  87 103 132 189 225 267
#     4  10  21  35  46  67  99 122 145 186 222 272
#     4  12  22  30  54  69  82 112 150 176 236 298
#
# _framework density 17.040704000000002
#
# number of rings (size 3 to 8) (size 9 to 14) (size 15 to 20)
#    0.000    1.333    5.556    4.667    0.000    0.000 
#    0.000    0.000    0.000    2.000    0.000    0.000 
#    0.000    0.000    0.000    0.000    0.000    0.000 
#
# Total GULP energy -401382.432262 kJ/mol
# GULP energy per Si atom -5574.756004 kJ/mol
# Density = 1.700192 g / cm^3
# Si number density = 17.040704 Si / 1000 Ang^3
#
#
#
# Elastic Constant Matrix: (Units=GPa)
#
#
# Indices 1 2 3 4 5 6 
#
# 1 44.2686 33.2966 15.3160 0.0000 0.0000 0.0000
# 2 33.2966 44.2691 15.3174 0.0000 0.0000 0.0000
# 3 15.3160 15.3174 112.5518 0.0000 0.0000 0.0000
# 4 0.0000 0.0000 0.0000 14.4998 0.0000 0.0000
# 5 0.0000 0.0000 0.0000 0.0000 14.5001 0.0000
# 6 0.0000 0.0000 0.0000 0.0000 0.0000 18.5394
#
#
#
# Elastic Compliance Matrix: (Units=1/GPa)
#
#
# Indices 1 2 3 4 5 6 
#
# 1 0.052382 -0.038757 -0.001854 0.000000 0.000000 0.000000
# 2 -0.038757 0.052382 -0.001855 0.000000 0.000000 0.000000
# 3 -0.001854 -0.001855 0.009389 0.000000 0.000000 0.000000
# 4 0.000000 0.000000 0.000000 0.068967 0.000000 0.000000
# 5 0.000000 0.000000 0.000000 0.000000 0.068965 0.000000
# 6 0.000000 0.000000 0.000000 0.000000 0.000000 0.053939
#
#
# Mechanical properties :
#
#
# Convention : Reuss Voigt Hill
#
# Bulk Modulus (GPa) = 34.22058 36.54994 35.38526
# Shear Modulus (GPa) = 12.47832 18.65183 15.56507
#
# Velocity S-wave (km/s) = 2.70898 3.31198 3.02554
# Velocity P-wave (km/s) = 5.46900 6.01006 5.74590
#
# Compressibility (1/GPa) = 0.02922218
#
# Stress axis : x y z
#
# Youngs Moduli (GPa) = 19.09061 19.09068 106.50269
#
# Poissons Ratio (x) = 0.73990 0.19741
# Poissons Ratio (y) = 0.73990 0.19753
# Poissons Ratio (z) = 0.03539 0.03541
#
# Static dielectric constant tensor:
#      x y z
#    x 1.617440 0.000000 0.000000 
#    y 0.000000 1.617440 0.000000 
#    z 0.000000 0.000000 1.714600 
# 
# From -- ./inp_files/208.got.cif
#   From: 2010.05.17/outbox.cif.g08.bks.cpg/sg130_1_cif.got.tgz:208.got - 2010.05.20 12:17:35.
