data_PCOD9565782
_publ_section_title
;
Structure prediction by ZEFSAII (Michael W. Deem and Ramdas Pophale) SiO2 
 PCOD9565782
Probable space group: P 4/N C C
;
_chemical_formula_sum "Si O2"
_cell_formula_units_Z 40
_cell_length_a 11.940834
_cell_length_b 11.940834
_cell_length_c 12.086416
_cell_angle_alpha 90.000000
_cell_angle_beta 90.000000
_cell_angle_gamma 90.000000
_cell_volume 1723.323697
_symmetry_space_group_name_H-M "P 4/N C C"
_symmetry_group_IT_number 130
_symmetry_cell_setting 'tetragonal'
loop_
_space_group_symop_operation_xyz
x,y,z
1/2-y,x,z
1/2-x,1/2-y,z
y,1/2-x,z
1/2+x,-y,1/2-z
-x,1/2+y,1/2-z
1/2+y,1/2+x,1/2-z
-y,-x,1/2-z
-x,-y,-z
1/2+y,-x,-z
1/2+x,1/2+y,-z
-y,1/2+x,-z
1/2-x,y,1/2+z
x,1/2-y,1/2+z
1/2-y,1/2-x,1/2+z
y,x,1/2+z
loop_
_atom_site_type_symbol
_atom_site_label
_atom_site_fract_x
_atom_site_fract_y
_atom_site_fract_z
Si Si1 0.902749 0.207583 0.439654
Si Si2 0.083629 0.165239 0.586927
Si Si3 0.615442 0.115442 0.250000
O O1 0.803222 0.121536 0.465907
O O2 0.891177 0.273445 0.325912
O O3 0.022630 0.154604 0.466996
O O4 0.202810 0.107804 0.599815
O O5 0.993089 0.118103 0.672261
#
# Coordination Sequence:
#
# PCOD9565782 Si02
#       3
#    16  16   8
#     4   9  20  37  59  87 120 159 207 261 315 376
#     4  10  23  40  59  90 128 165 210 266 323 375
#     4  10  22  39  64  91 124 172 218 257 316 390
#
# _framework density 23.21096
#
# number of rings (size 3 to 8) (size 9 to 14) (size 15 to 20)
#    0.000    2.400    0.000    0.000    0.000   25.600 
#    0.000    4.000    0.000    0.000    0.000    0.000 
#    0.000    0.000    0.000    0.000    0.000    0.000 
#
# Total GULP energy -223557.011876 kJ/mol
# GULP energy per Si atom -5588.925297 kJ/mol
# Density = 2.315813 g / cm^3
# Si number density = 23.210960 Si / 1000 Ang^3
#
#
#
# Elastic Constant Matrix: (Units=GPa)
#
#
# Indices 1 2 3 4 5 6 
#
# 1 120.7455 34.0271 26.6917 0.0000 0.0000 0.0000
# 2 34.0271 120.7455 26.6917 0.0000 0.0000 0.0000
# 3 26.6917 26.6917 86.5211 0.0000 0.0000 0.0000
# 4 0.0000 0.0000 0.0000 22.1089 0.0000 0.0000
# 5 0.0000 0.0000 0.0000 0.0000 22.1089 0.0000
# 6 0.0000 0.0000 0.0000 0.0000 0.0000 4.2683
#
#
#
# Elastic Compliance Matrix: (Units=1/GPa)
#
#
# Indices 1 2 3 4 5 6 
#
# 1 0.009381 -0.002151 -0.002231 0.000000 0.000000 0.000000
# 2 -0.002151 0.009381 -0.002231 0.000000 0.000000 0.000000
# 3 -0.002231 -0.002231 0.012934 0.000000 0.000000 0.000000
# 4 0.000000 0.000000 0.000000 0.045231 0.000000 0.000000
# 5 0.000000 0.000000 0.000000 0.000000 0.045231 0.000000
# 6 0.000000 0.000000 0.000000 0.000000 0.000000 0.234287
#
#
# Mechanical properties :
#
#
# Convention : Reuss Voigt Hill
#
# Bulk Modulus (GPa) = 54.13396 55.87036 55.00216
# Shear Modulus (GPa) = 13.30404 25.73730 19.52067
#
# Velocity S-wave (km/s) = 2.39671 3.33354 2.90316
# Velocity P-wave (km/s) = 5.57066 6.24016 5.91489
#
# Compressibility (1/GPa) = 0.01847269
#
# Stress axis : x y z
#
# Youngs Moduli (GPa) = 106.59824 106.59824 77.31465
#
# Poissons Ratio (x) = 0.22925 0.17246
# Poissons Ratio (y) = 0.22925 0.17246
# Poissons Ratio (z) = 0.23778 0.23778
#
# Static dielectric constant tensor:
#      x y z
#    x 1.911160 0.000000 0.000000 
#    y 0.000000 1.911160 0.000000 
#    z 0.000000 0.000000 1.894610 
# 
# From -- ./inp_files/396.got.cif
#   From: 2010.05.17/outbox.cif.g08.bks.cpg/sg130_1_cif.got.tgz:396.got - 2010.05.20 12:17:35.
