data_PCOD9565738
_publ_section_title
;
Structure prediction by ZEFSAII (Michael W. Deem and Ramdas Pophale) SiO2 
 PCOD9565738
Probable space group: P 4/N C C
;
_chemical_formula_sum "Si O2"
_cell_formula_units_Z 56
_cell_length_a 14.873452
_cell_length_b 14.873452
_cell_length_c 12.803602
_cell_angle_alpha 90.000000
_cell_angle_beta 90.000000
_cell_angle_gamma 90.000000
_cell_volume 2832.407385
_symmetry_space_group_name_H-M "P 4/N C C"
_symmetry_group_IT_number 130
_symmetry_cell_setting 'tetragonal'
loop_
_space_group_symop_operation_xyz
x,y,z
1/2-y,x,z
1/2-x,1/2-y,z
y,1/2-x,z
1/2+x,-y,1/2-z
-x,1/2+y,1/2-z
1/2+y,1/2+x,1/2-z
-y,-x,1/2-z
-x,-y,-z
1/2+y,-x,-z
1/2+x,1/2+y,-z
-y,1/2+x,-z
1/2-x,y,1/2+z
x,1/2-y,1/2+z
1/2-y,1/2-x,1/2+z
y,x,1/2+z
loop_
_atom_site_type_symbol
_atom_site_label
_atom_site_fract_x
_atom_site_fract_y
_atom_site_fract_z
Si Si1 0.158962 0.658962 0.250000
Si Si2 0.018957 0.146523 0.658505
Si Si3 0.329554 0.922931 0.868916
Si Si4 0.507295 0.666450 0.907127
O O1 0.137260 0.749366 0.181478
O O2 0.153766 0.578349 0.167596
O O3 0.056950 0.244117 0.632734
O O4 0.080399 0.069984 0.609580
O O5 0.997786 0.142723 0.782190
O O6 0.917673 0.137895 0.613326
O O7 0.312978 0.973163 0.976657
#
# Coordination Sequence:
#
# PCOD9565738 Si02
#       4
#     8  16  16  16
#     4  10  22  39  62  92 120 157 212 268 334 399
#     4  10  23  37  57  88 118 158 209 248 300 384
#     4  10  21  39  61  89 121 155 204 270 331 383
#     4  11  22  39  61  85 123 166 205 260 321 377
#
# _framework density 19.771167999999999
#
# number of rings (size 3 to 8) (size 9 to 14) (size 15 to 20)
#    0.000    1.714    0.000    4.286    0.000   14.286 
#    0.000    8.571    0.000    6.857    0.000    0.000 
#    0.000    0.000    0.000    0.000    0.000    0.000 
#
# Total GULP energy -312299.542015 kJ/mol
# GULP energy per Si atom -5576.777536 kJ/mol
# Density = 1.972617 g / cm^3
# Si number density = 19.771168 Si / 1000 Ang^3
#
#
#
# Elastic Constant Matrix: (Units=GPa)
#
#
# Indices 1 2 3 4 5 6 
#
# 1 106.5526 73.8467 37.5513 0.0000 0.0000 0.0000
# 2 73.8467 106.5526 37.5513 0.0000 0.0000 0.0000
# 3 37.5513 37.5513 126.2066 0.0000 0.0000 0.0000
# 4 0.0000 0.0000 0.0000 19.4241 0.0000 0.0000
# 5 0.0000 0.0000 0.0000 0.0000 19.4241 0.0000
# 6 0.0000 0.0000 0.0000 0.0000 0.0000 27.9549
#
#
#
# Elastic Compliance Matrix: (Units=1/GPa)
#
#
# Indices 1 2 3 4 5 6 
#
# 1 0.018451 -0.012124 -0.001883 0.000000 0.000000 0.000000
# 2 -0.012124 0.018451 -0.001883 0.000000 0.000000 0.000000
# 3 -0.001883 -0.001883 0.009044 0.000000 0.000000 0.000000
# 4 0.000000 0.000000 0.000000 0.051482 0.000000 0.000000
# 5 0.000000 0.000000 0.000000 0.000000 0.051482 0.000000
# 6 0.000000 0.000000 0.000000 0.000000 0.000000 0.035772
#
#
# Mechanical properties :
#
#
# Convention : Reuss Voigt Hill
#
# Bulk Modulus (GPa) = 70.58340 70.80116 70.69228
# Shear Modulus (GPa) = 22.60559 26.05145 24.32852
#
# Velocity S-wave (km/s) = 3.38503 3.63388 3.51166
# Velocity P-wave (km/s) = 7.14532 7.31402 7.23016
#
# Compressibility (1/GPa) = 0.01416764
#
# Stress axis : x y z
#
# Youngs Moduli (GPa) = 54.19686 54.19686 110.57353
#
# Poissons Ratio (x) = 0.65710 0.20816
# Poissons Ratio (y) = 0.65710 0.20816
# Poissons Ratio (z) = 0.10203 0.10203
#
# Static dielectric constant tensor:
#      x y z
#    x 1.728110 0.000000 0.000000 
#    y 0.000000 1.728110 0.000000 
#    z 0.000000 0.000000 1.722740 
# 
# From -- ./inp_files/1403.got.cif
#   From: 2010.05.17/outbox.cif.g08.bks.cpg/sg130_1_cif.got.tgz:1403.got - 2010.05.20 12:17:35.
