data_PCOD9565111
_publ_section_title
;
Structure prediction by ZEFSAII (Michael W. Deem and Ramdas Pophale) SiO2 
 PCOD9565111
Probable space group: P 4/N M M
;
_chemical_formula_sum "Si O2"
_cell_formula_units_Z 96
_cell_length_a 23.552865
_cell_length_b 23.552865
_cell_length_c 10.598519
_cell_angle_alpha 90.000000
_cell_angle_beta 90.000000
_cell_angle_gamma 90.000000
_cell_volume 5879.395401
_symmetry_space_group_name_H-M "P 4/N M M"
_symmetry_group_IT_number 129
_symmetry_cell_setting 'tetragonal'
loop_
_space_group_symop_operation_xyz
x,y,z
1/2-y,x,z
1/2-x,1/2-y,z
y,1/2-x,z
1/2+x,-y,-z
-x,1/2+y,-z
1/2+y,1/2+x,-z
-y,-x,-z
-x,-y,-z
1/2+y,-x,-z
1/2+x,1/2+y,-z
-y,1/2+x,-z
1/2-x,y,z
x,1/2-y,z
1/2-y,1/2-x,z
y,x,z
loop_
_atom_site_type_symbol
_atom_site_label
_atom_site_fract_x
_atom_site_fract_y
_atom_site_fract_z
Si Si1 0.183998 0.819246 0.866911
Si Si2 0.584697 0.012548 0.166722
Si Si3 0.314680 0.494215 0.345141
Si Si4 0.605994 0.509178 0.891246
Si Si5 0.371591 0.814761 0.616306
Si Si6 0.407208 0.503458 0.551312
O O1 0.250000 0.833378 0.857488
O O2 0.180098 0.750000 0.870867
O O3 0.153023 0.839982 0.744529
O O4 0.160050 0.839951 0.000000
O O5 0.544612 0.067809 0.152400
O O6 0.539943 0.960058 0.166236
O O7 0.613000 0.013764 0.304656
O O8 0.620547 0.003434 0.038315
O O9 0.250000 0.471668 0.354100
O O10 0.343592 0.482989 0.209106
O O11 0.311124 0.561871 0.364371
O O12 0.358836 0.480275 0.457348
O O13 0.563514 0.563514 0.886064
O O14 0.350903 0.850903 0.500000
O O15 0.349560 0.750000 0.599658
O O16 0.440269 0.559732 0.500000
O O17 0.544041 0.544041 0.444035
#
# Coordination Sequence:
#
# PCOD9565111 Si02
#       6
#    16  16  16  16  16  16
#     4   8  14  27  45  57  64  84 130 189 233 264
#     4   8  15  27  51  79  91 105 151 210 248 273
#     4  11  22  32  41  64 102 131 151 184 241 306
#     4   9  16  31  51  72  93 116 153 200 243 287
#     4  10  20  31  41  55  77 108 148 190 229 271
#     4  10  17  30  53  75  92 120 162 204 243 286
#
# _framework density 16.328209999999999
#
# number of rings (size 3 to 8) (size 9 to 14) (size 15 to 20)
#    0.000    2.667    1.667    3.000    0.000    0.833 
#    3.000    0.833    0.000    0.000    0.000    0.000 
#    0.000    5.333    0.000    0.000    0.000   37.333 
#
# Total GULP energy -534680.056679 kJ/mol
# GULP energy per Si atom -5569.583924 kJ/mol
# Density = 1.629105 g / cm^3
# Si number density = 16.328210 Si / 1000 Ang^3
#
#
#
# Elastic Constant Matrix: (Units=GPa)
#
#
# Indices 1 2 3 4 5 6 
#
# 1 50.9988 -1.3995 29.2136 0.0000 0.0000 0.0000
# 2 -1.3995 50.9979 29.2132 0.0000 0.0000 0.0000
# 3 29.2136 29.2132 131.9768 0.0000 0.0000 0.0000
# 4 0.0000 0.0000 0.0000 16.7943 0.0000 0.0000
# 5 0.0000 0.0000 0.0000 0.0000 16.7942 0.0000
# 6 0.0000 0.0000 0.0000 0.0000 0.0000 -1.4620
#
#
#
# Elastic Compliance Matrix: (Units=1/GPa)
#
#
# Indices 1 2 3 4 5 6 
#
# 1 0.023179 0.004094 -0.006037 0.000000 0.000000 0.000000
# 2 0.004094 0.023179 -0.006037 0.000000 0.000000 0.000000
# 3 -0.006037 -0.006037 0.010250 0.000000 0.000000 0.000000
# 4 0.000000 0.000000 0.000000 0.059544 0.000000 0.000000
# 5 0.000000 0.000000 0.000000 0.000000 0.059544 0.000000
# 6 0.000000 0.000000 0.000000 0.000000 0.000000 -0.683984
#
#
# Mechanical properties :
#
#
# Convention : Reuss Voigt Hill
#
# Bulk Modulus (GPa) = 24.60131 38.66978 31.63555
# Shear Modulus (GPa) = -10.44323 18.22171 3.88924
#
# Velocity S-wave (km/s) = -2.53174 3.34423 1.54502
# Velocity P-wave (km/s) = 2.55992 6.21659 4.75391
#
# Compressibility (1/GPa) = 0.04064824
#
# Stress axis : x y z
#
# Youngs Moduli (GPa) = 43.14281 43.14207 97.56374
#
# Poissons Ratio (x) = -0.17663 0.58899
# Poissons Ratio (y) = -0.17664 0.58900
# Poissons Ratio (z) = 0.26045 0.26045
#
# Static dielectric constant tensor:
#      x y z
#    x 1.551470 0.000000 0.000000 
#    y 0.000000 1.551470 0.000000 
#    z 0.000000 0.000000 1.613110 
# 
# From -- ./inp_files/3880.got.cif
#   From: 2010.05.17/outbox.cif.g08.bks.cpg/sg129_2_cif.got.tgz:3880.got - 2010.05.20 12:12:06.
