data_PCOD9565474
_publ_section_title
;
Structure prediction by ZEFSAII (Michael W. Deem and Ramdas Pophale) SiO2 
 PCOD9565474
Probable space group: P 4/N M M
;
_chemical_formula_sum "Si O2"
_cell_formula_units_Z 112
_cell_length_a 31.404795
_cell_length_b 31.404795
_cell_length_c 5.477225
_cell_angle_alpha 90.000000
_cell_angle_beta 90.000000
_cell_angle_gamma 90.000000
_cell_volume 5401.974222
_symmetry_space_group_name_H-M "P 4/N M M"
_symmetry_group_IT_number 129
_symmetry_cell_setting 'tetragonal'
loop_
_space_group_symop_operation_xyz
x,y,z
1/2-y,x,z
1/2-x,1/2-y,z
y,1/2-x,z
1/2+x,-y,-z
-x,1/2+y,-z
1/2+y,1/2+x,-z
-y,-x,-z
-x,-y,-z
1/2+y,-x,-z
1/2+x,1/2+y,-z
-y,1/2+x,-z
1/2-x,y,z
x,1/2-y,z
1/2-y,1/2-x,z
y,x,z
loop_
_atom_site_type_symbol
_atom_site_label
_atom_site_fract_x
_atom_site_fract_y
_atom_site_fract_z
Si Si1 0.406954 0.664963 0.517674
Si Si2 0.297325 0.450470 0.823696
Si Si3 0.982445 0.053802 0.754863
Si Si4 0.131939 0.299279 0.514739
Si Si5 0.499399 0.138403 0.539309
Si Si6 0.927202 0.638068 0.801573
Si Si7 0.700570 0.128324 0.014399
O O1 0.374984 0.625017 0.500000
O O2 0.454384 0.648101 0.563201
O O3 0.394570 0.692853 0.753765
O O4 0.399953 0.687831 0.253590
O O5 0.250000 0.461936 0.895997
O O6 0.298096 0.400928 0.741174
O O7 0.315927 0.479522 0.610642
O O8 0.332117 0.454568 0.028564
O O9 0.958665 0.041336 0.500000
O O10 0.992817 0.103565 0.747740
O O11 0.956720 0.043281 0.000000
O O12 0.024623 0.024623 0.762662
O O13 0.137875 0.250000 0.435781
O O14 0.175766 0.324235 0.566978
O O15 0.105665 0.329034 0.327583
O O16 0.461290 0.117905 0.381098
O O17 0.898370 0.601631 0.921925
O O18 0.750000 0.140167 0.038544
O O19 0.669237 0.169237 0.000000
#
# Coordination Sequence:
#
# PCOD9565474 Si02
#       7
#    16  16  16  16  16  16  16
#     4  10  23  41  63  91 130 172 213 257 317 379
#     4  10  22  38  57  84 117 154 201 255 313 375
#     4  10  23  41  63  92 127 163 208 268 326 380
#     4   9  18  34  54  79 111 147 189 242 305 373
#     4  11  24  39  61  87 119 165 212 258 307 381
#     4  10  21  37  59  85 116 155 202 258 317 374
#     4  10  22  42  67  97 130 168 212 263 318 380
#
# _framework density 20.733162
#
# number of rings (size 3 to 8) (size 9 to 14) (size 15 to 20)
#    0.000    2.000    0.000    2.143    4.000    5.429 
#    0.000    0.000    0.000    2.571    0.000    2.000 
#    0.000    0.000    0.000    0.000    0.000    0.000 
#
# Total GULP energy -624535.725513 kJ/mol
# GULP energy per Si atom -5576.211835 kJ/mol
# Density = 2.068597 g / cm^3
# Si number density = 20.733162 Si / 1000 Ang^3
#
#
#
# Elastic Constant Matrix: (Units=GPa)
#
#
# Indices 1 2 3 4 5 6 
#
# 1 84.6971 31.8857 19.8590 0.0000 0.0000 0.0000
# 2 31.8857 84.7022 19.8581 0.0000 0.0000 0.0000
# 3 19.8590 19.8581 79.0346 0.0000 0.0000 0.0000
# 4 0.0000 0.0000 0.0000 14.4035 0.0000 0.0000
# 5 0.0000 0.0000 0.0000 0.0000 14.4026 0.0000
# 6 0.0000 0.0000 0.0000 0.0000 0.0000 14.4458
#
#
#
# Elastic Compliance Matrix: (Units=1/GPa)
#
#
# Indices 1 2 3 4 5 6 
#
# 1 0.014158 -0.004777 -0.002357 0.000000 0.000000 0.000000
# 2 -0.004777 0.014157 -0.002357 0.000000 0.000000 0.000000
# 3 -0.002357 -0.002357 0.013837 0.000000 0.000000 0.000000
# 4 0.000000 0.000000 0.000000 0.069427 0.000000 0.000000
# 5 0.000000 0.000000 0.000000 0.000000 0.069432 0.000000
# 6 0.000000 0.000000 0.000000 0.000000 0.000000 0.069224
#
#
# Mechanical properties :
#
#
# Convention : Reuss Voigt Hill
#
# Bulk Modulus (GPa) = 43.15920 43.51551 43.33736
# Shear Modulus (GPa) = 18.05441 20.43913 19.24677
#
# Velocity S-wave (km/s) = 2.95413 3.14318 3.05012
# Velocity P-wave (km/s) = 5.70066 5.84865 5.77513
#
# Compressibility (1/GPa) = 0.02317003
#
# Stress axis : x y z
#
# Youngs Moduli (GPa) = 70.63212 70.63710 72.26944
#
# Poissons Ratio (x) = 0.33744 0.17035
# Poissons Ratio (y) = 0.33741 0.17032
# Poissons Ratio (z) = 0.16649 0.16647
#
# Static dielectric constant tensor:
#      x y z
#    x 1.738990 0.000000 0.000000 
#    y 0.000000 1.738990 0.000000 
#    z 0.000000 0.000000 1.872180 
# 
# From -- ./inp_files/1190.got.cif
#   From: 2010.05.17/outbox.cif.g08.bks.cpg/sg129_1_cif.got.tgz:1190.got - 2010.05.20 12:12:06.
