data_PCOD9565475
_publ_section_title
;
Structure prediction by ZEFSAII (Michael W. Deem and Ramdas Pophale) SiO2 
 PCOD9565475
Probable space group: P 4/N M M
;
_chemical_formula_sum "Si O2"
_cell_formula_units_Z 96
_cell_length_a 24.720533
_cell_length_b 24.720533
_cell_length_c 8.014066
_cell_angle_alpha 90.000000
_cell_angle_beta 90.000000
_cell_angle_gamma 90.000000
_cell_volume 4897.433814
_symmetry_space_group_name_H-M "P 4/N M M"
_symmetry_group_IT_number 129
_symmetry_cell_setting 'tetragonal'
loop_
_space_group_symop_operation_xyz
x,y,z
1/2-y,x,z
1/2-x,1/2-y,z
y,1/2-x,z
1/2+x,-y,-z
-x,1/2+y,-z
1/2+y,1/2+x,-z
-y,-x,-z
-x,-y,-z
1/2+y,-x,-z
1/2+x,1/2+y,-z
-y,1/2+x,-z
1/2-x,y,z
x,1/2-y,z
1/2-y,1/2-x,z
y,x,z
loop_
_atom_site_type_symbol
_atom_site_label
_atom_site_fract_x
_atom_site_fract_y
_atom_site_fract_z
Si Si1 0.401234 0.312501 0.866954
Si Si2 0.576672 0.489977 0.364263
Si Si3 0.188719 0.463613 0.526150
Si Si4 0.591892 0.118490 0.183621
Si Si5 0.310599 0.812362 0.795297
Si Si6 0.686832 0.517242 0.842363
O O1 0.389646 0.250000 0.907699
O O2 0.350839 0.350839 0.894348
O O3 0.419303 0.314624 0.673109
O O4 0.449545 0.329812 0.992911
O O5 0.539617 0.460383 0.500000
O O6 0.545551 0.545551 0.316958
O O7 0.636619 0.500200 0.433736
O O8 0.581564 0.443521 0.229013
O O9 0.250000 0.487328 0.541887
O O10 0.183081 0.448459 0.330503
O O11 0.640965 0.150246 0.273455
O O12 0.536672 0.152347 0.185882
O O13 0.614183 0.114183 0.000000
O O14 0.250000 0.830592 0.746891
O O15 0.318270 0.750000 0.742306
O O16 0.310701 0.810701 0.000000
O O17 0.750000 0.502435 0.865014
#
# Coordination Sequence:
#
# PCOD9565475 Si02
#       6
#    16  16  16  16  16  16
#     4  10  22  39  62  92 121 153 196 244 300 366
#     4  11  23  38  54  78 114 150 187 235 296 353
#     4  10  21  40  63  84 114 157 200 244 295 353
#     4  11  21  33  55  84 113 151 199 248 297 352
#     4   8  15  29  50  78 112 149 190 240 296 347
#     4  10  21  38  59  86 118 155 202 249 296 353
#
# _framework density 19.602101000000001
#
# number of rings (size 3 to 8) (size 9 to 14) (size 15 to 20)
#    0.000    2.000    1.667    2.500    0.000    3.833 
#    0.000    0.000    0.000    0.000    0.000    5.833 
#    0.000    0.000    0.000    0.000    0.000    0.000 
#
# Total GULP energy -534545.762068 kJ/mol
# GULP energy per Si atom -5568.185022 kJ/mol
# Density = 1.955749 g / cm^3
# Si number density = 19.602101 Si / 1000 Ang^3
#
#
#
# Elastic Constant Matrix: (Units=GPa)
#
#
# Indices 1 2 3 4 5 6 
#
# 1 85.0693 65.7795 20.1841 0.0000 0.0000 0.0000
# 2 65.7795 85.0723 20.1854 0.0000 0.0000 0.0000
# 3 20.1841 20.1854 56.4145 0.0000 0.0000 0.0000
# 4 0.0000 0.0000 0.0000 15.5923 0.0000 0.0000
# 5 0.0000 0.0000 0.0000 0.0000 15.5924 0.0000
# 6 0.0000 0.0000 0.0000 0.0000 0.0000 34.4101
#
#
#
# Elastic Compliance Matrix: (Units=1/GPa)
#
#
# Indices 1 2 3 4 5 6 
#
# 1 0.029584 -0.022253 -0.002623 0.000000 0.000000 0.000000
# 2 -0.022253 0.029584 -0.002623 0.000000 0.000000 0.000000
# 3 -0.002623 -0.002623 0.019603 0.000000 0.000000 0.000000
# 4 0.000000 0.000000 0.000000 0.064134 0.000000 0.000000
# 5 0.000000 0.000000 0.000000 0.000000 0.064134 0.000000
# 6 0.000000 0.000000 0.000000 0.000000 0.000000 0.029061
#
#
# Mechanical properties :
#
#
# Convention : Reuss Voigt Hill
#
# Bulk Modulus (GPa) = 42.06451 48.76157 45.41304
# Shear Modulus (GPa) = 16.72116 21.14611 18.93364
#
# Velocity S-wave (km/s) = 2.92383 3.28802 3.11126
# Velocity P-wave (km/s) = 5.73622 6.27252 6.01035
#
# Compressibility (1/GPa) = 0.02377301
#
# Stress axis : x y z
#
# Youngs Moduli (GPa) = 33.80163 33.80255 51.01279
#
# Poissons Ratio (x) = 0.75221 0.13378
# Poissons Ratio (y) = 0.75219 0.13383
# Poissons Ratio (z) = 0.08865 0.08868
#
# Static dielectric constant tensor:
#      x y z
#    x 1.704970 0.000000 0.000000 
#    y 0.000000 1.704970 0.000000 
#    z 0.000000 0.000000 1.733950 
# 
# From -- ./inp_files/2676.got.cif
#   From: 2010.05.17/outbox.cif.g08.bks.cpg/sg129_2_cif.got.tgz:2676.got - 2010.05.20 12:12:06.
