data_PCOD9565969
_publ_section_title
;
Structure prediction by ZEFSAII (Michael W. Deem and Ramdas Pophale) SiO2 
 PCOD9565969
Probable space group: P 4/N C C
;
_chemical_formula_sum "Si O2"
_cell_formula_units_Z 64
_cell_length_a 15.977598
_cell_length_b 15.977598
_cell_length_c 9.360083
_cell_angle_alpha 90.000000
_cell_angle_beta 90.000000
_cell_angle_gamma 90.000000
_cell_volume 2389.476039
_symmetry_space_group_name_H-M "P 4/N C C"
_symmetry_group_IT_number 130
_symmetry_cell_setting 'tetragonal'
loop_
_space_group_symop_operation_xyz
x,y,z
1/2-y,x,z
1/2-x,1/2-y,z
y,1/2-x,z
1/2+x,-y,1/2-z
-x,1/2+y,1/2-z
1/2+y,1/2+x,1/2-z
-y,-x,1/2-z
-x,-y,-z
1/2+y,-x,-z
1/2+x,1/2+y,-z
-y,1/2+x,-z
1/2-x,y,1/2+z
x,1/2-y,1/2+z
1/2-y,1/2-x,1/2+z
y,x,1/2+z
loop_
_atom_site_type_symbol
_atom_site_label
_atom_site_fract_x
_atom_site_fract_y
_atom_site_fract_z
Si Si1 0.253910 0.884712 0.707774
Si Si2 0.744112 0.002470 0.040213
Si Si3 0.372181 0.183059 0.148852
Si Si4 0.067689 0.485385 0.122038
O O1 0.337235 0.837235 0.750000
O O2 0.178784 0.821217 0.750000
O O3 0.267734 0.912745 0.545168
O O4 0.248542 0.970800 0.796878
O O5 0.799142 0.920798 0.003291
O O6 0.652948 0.989653 0.970289
O O7 0.354411 0.280291 0.181800
O O8 0.431300 0.106139 0.197271
O O9 0.050596 0.550596 0.250000
O O10 0.000000 0.500000 0.000000
#
# Coordination Sequence:
#
# PCOD9565969 Si02
#       4
#    16  16  16  16
#     4  11  25  43  69 108 152 201 255 326 400 472
#     4  11  25  43  75 105 149 199 253 323 388 478
#     4   9  22  48  72 103 151 203 256 317 396 474
#     4  11  27  45  75 111 145 196 260 323 394 475
#
# _framework density 26.784113000000001
#
# number of rings (size 3 to 8) (size 9 to 14) (size 15 to 20)
#    0.000    1.500    0.000    2.250   14.000    2.000 
#    0.000    0.000   11.000    0.000    0.000    0.000 
#    0.000    0.000    0.000    0.000    0.000    0.000 
#
# Total GULP energy -356685.814397 kJ/mol
# GULP energy per Si atom -5573.215850 kJ/mol
# Density = 2.672315 g / cm^3
# Si number density = 26.784113 Si / 1000 Ang^3
#
#
#
# Elastic Constant Matrix: (Units=GPa)
#
#
# Indices 1 2 3 4 5 6 
#
# 1 130.2484 45.6413 24.3871 0.0000 0.0000 0.0000
# 2 45.6413 130.2495 24.3874 0.0000 0.0000 0.0000
# 3 24.3871 24.3874 97.2442 0.0000 0.0000 0.0000
# 4 0.0000 0.0000 0.0000 23.8277 0.0000 0.0000
# 5 0.0000 0.0000 0.0000 0.0000 23.8276 0.0000
# 6 0.0000 0.0000 0.0000 0.0000 0.0000 53.1770
#
#
#
# Elastic Compliance Matrix: (Units=1/GPa)
#
#
# Indices 1 2 3 4 5 6 
#
# 1 0.008965 -0.002854 -0.001532 0.000000 0.000000 0.000000
# 2 -0.002854 0.008965 -0.001532 0.000000 0.000000 0.000000
# 3 -0.001532 -0.001532 0.011052 0.000000 0.000000 0.000000
# 4 0.000000 0.000000 0.000000 0.041968 0.000000 0.000000
# 5 0.000000 0.000000 0.000000 0.000000 0.041968 0.000000
# 6 0.000000 0.000000 0.000000 0.000000 0.000000 0.018805
#
#
# Mechanical properties :
#
#
# Convention : Reuss Voigt Hill
#
# Bulk Modulus (GPa) = 58.33247 60.73040 59.53143
# Shear Modulus (GPa) = 33.49513 37.72155 35.60834
#
# Velocity S-wave (km/s) = 3.54016 3.75688 3.65013
# Velocity P-wave (km/s) = 6.20777 6.44532 6.32766
#
# Compressibility (1/GPa) = 0.01714311
#
# Stress axis : x y z
#
# Youngs Moduli (GPa) = 111.54730 111.54811 90.48156
#
# Poissons Ratio (x) = 0.31841 0.13865
# Poissons Ratio (y) = 0.31841 0.13865
# Poissons Ratio (z) = 0.17093 0.17093
#
# Static dielectric constant tensor:
#      x y z
#    x 2.276390 0.000000 0.000000 
#    y 0.000000 2.276420 0.000000 
#    z 0.000000 0.000000 2.074300 
# 
# From -- ./inp_files/1536.got.cif
#   From: 2010.05.17/outbox.cif.g08.bks.cpg/sg130_1_cif.got.tgz:1536.got - 2010.05.20 12:17:35.
