data_PCOD9565936
_publ_section_title
;
Structure prediction by ZEFSAII (Michael W. Deem and Ramdas Pophale) SiO2 
 PCOD9565936
Probable space group: P 4/N C C
;
_chemical_formula_sum "Si O2"
_cell_formula_units_Z 120
_cell_length_a 27.150757
_cell_length_b 27.150757
_cell_length_c 8.049414
_cell_angle_alpha 90.000000
_cell_angle_beta 90.000000
_cell_angle_gamma 90.000000
_cell_volume 5933.735048
_symmetry_space_group_name_H-M "P 4/N C C"
_symmetry_group_IT_number 130
_symmetry_cell_setting 'tetragonal'
loop_
_space_group_symop_operation_xyz
x,y,z
1/2-y,x,z
1/2-x,1/2-y,z
y,1/2-x,z
1/2+x,-y,1/2-z
-x,1/2+y,1/2-z
1/2+y,1/2+x,1/2-z
-y,-x,1/2-z
-x,-y,-z
1/2+y,-x,-z
1/2+x,1/2+y,-z
-y,1/2+x,-z
1/2-x,y,1/2+z
x,1/2-y,1/2+z
1/2-y,1/2-x,1/2+z
y,x,1/2+z
loop_
_atom_site_type_symbol
_atom_site_label
_atom_site_fract_x
_atom_site_fract_y
_atom_site_fract_z
Si Si1 0.224039 0.005086 0.547535
Si Si2 0.052243 0.520988 0.066831
Si Si3 0.929193 0.856177 0.399701
Si Si4 0.130665 0.053782 0.714965
Si Si5 0.326890 0.281237 0.159277
Si Si6 0.027852 0.821375 0.259736
Si Si7 0.739540 0.603382 0.056774
Si Si8 0.413922 0.913922 0.750000
O O1 0.184070 0.032090 0.664857
O O2 0.239906 0.049074 0.421092
O O3 0.195829 0.967462 0.429865
O O4 0.272275 0.980922 0.629414
O O5 0.045465 0.545465 0.250000
O O6 0.091083 0.478553 0.113647
O O7 0.071731 0.554170 0.914101
O O8 0.000000 0.500000 0.000000
O O9 0.947312 0.871513 0.584543
O O10 0.886656 0.891669 0.336137
O O11 0.907346 0.801159 0.415340
O O12 0.977697 0.853516 0.286154
O O13 0.276185 0.309621 0.161053
O O14 0.365724 0.288269 0.304948
O O15 0.360527 0.283552 0.996872
O O16 0.072451 0.857969 0.297421
#
# Coordination Sequence:
#
# PCOD9565936 Si02
#       8
#    16  16  16  16  16  16  16   8
#     4  11  23  41  64  89 126 168 212 270 333 403
#     4  12  24  39  64  96 139 182 226 278 340 409
#     4  11  25  37  60  89 125 166 228 281 334 411
#     4  12  23  40  60  94 125 175 223 276 340 401
#     4  11  24  38  52  72  99 138 197 271 343 396
#     4  11  23  45  65  96 133 177 222 276 340 405
#     4  11  23  39  57  77 107 150 203 269 333 390
#     4  12  24  44  68 100 138 181 230 280 344 421
#
# _framework density 20.223348999999999
#
# number of rings (size 3 to 8) (size 9 to 14) (size 15 to 20)
#    0.000    0.667    2.000    8.000    5.600    1.067 
#    0.000    0.000    0.000    0.000    0.000    0.000 
#    0.000    1.600    0.000    0.000    0.000    0.000 
#
# Total GULP energy -670325.197367 kJ/mol
# GULP energy per Si atom -5586.043311 kJ/mol
# Density = 2.017732 g / cm^3
# Si number density = 20.223349 Si / 1000 Ang^3
#
#
#
# Elastic Constant Matrix: (Units=GPa)
#
#
# Indices 1 2 3 4 5 6 
#
# 1 80.7698 45.5627 18.7886 0.0000 0.0000 0.0000
# 2 45.5627 80.7698 18.7886 0.0000 0.0000 0.0000
# 3 18.7886 18.7886 96.3378 0.0000 0.0000 0.0000
# 4 0.0000 0.0000 0.0000 32.6646 0.0000 0.0000
# 5 0.0000 0.0000 0.0000 0.0000 32.6646 0.0000
# 6 0.0000 0.0000 0.0000 0.0000 0.0000 35.7962
#
#
#
# Elastic Compliance Matrix: (Units=1/GPa)
#
#
# Indices 1 2 3 4 5 6 
#
# 1 0.018403 -0.010000 -0.001639 0.000000 0.000000 0.000000
# 2 -0.010000 0.018403 -0.001639 0.000000 0.000000 0.000000
# 3 -0.001639 -0.001639 0.011019 0.000000 0.000000 0.000000
# 4 0.000000 0.000000 0.000000 0.030614 0.000000 0.000000
# 5 0.000000 0.000000 0.000000 0.000000 0.030614 0.000000
# 6 0.000000 0.000000 0.000000 0.000000 0.000000 0.027936
#
#
# Mechanical properties :
#
#
# Convention : Reuss Voigt Hill
#
# Bulk Modulus (GPa) = 47.01413 47.12856 47.07134
# Shear Modulus (GPa) = 29.30216 31.87424 30.58820
#
# Velocity S-wave (km/s) = 3.81061 3.97433 3.89333
# Velocity P-wave (km/s) = 6.53138 6.66446 6.59826
#
# Compressibility (1/GPa) = 0.02127020
#
# Stress axis : x y z
#
# Youngs Moduli (GPa) = 54.33828 54.33828 90.74919
#
# Poissons Ratio (x) = 0.54339 0.14872
# Poissons Ratio (y) = 0.54339 0.14872
# Poissons Ratio (z) = 0.08905 0.08905
#
# Static dielectric constant tensor:
#      x y z
#    x 1.747010 0.000000 0.000000 
#    y 0.000000 1.747010 0.000000 
#    z 0.000000 0.000000 1.813260 
# 
# From -- ./inp_files/1083.got.cif
#   From: 2010.05.17/outbox.cif.g08.bks.cpg/sg130_1_cif.got.tgz:1083.got - 2010.05.20 12:17:35.
