data_PCOD9565230
_publ_section_title
;
Structure prediction by ZEFSAII (Michael W. Deem and Ramdas Pophale) SiO2 
 PCOD9565230
Probable space group: P 4/N M M
;
_chemical_formula_sum "Si O2"
_cell_formula_units_Z 112
_cell_length_a 29.898599
_cell_length_b 29.898599
_cell_length_c 8.781517
_cell_angle_alpha 90.000000
_cell_angle_beta 90.000000
_cell_angle_gamma 90.000000
_cell_volume 7850.028317
_symmetry_space_group_name_H-M "P 4/N M M"
_symmetry_group_IT_number 129
_symmetry_cell_setting 'tetragonal'
loop_
_space_group_symop_operation_xyz
x,y,z
1/2-y,x,z
1/2-x,1/2-y,z
y,1/2-x,z
1/2+x,-y,-z
-x,1/2+y,-z
1/2+y,1/2+x,-z
-y,-x,-z
-x,-y,-z
1/2+y,-x,-z
1/2+x,1/2+y,-z
-y,1/2+x,-z
1/2-x,y,z
x,1/2-y,z
1/2-y,1/2-x,z
y,x,z
loop_
_atom_site_type_symbol
_atom_site_label
_atom_site_fract_x
_atom_site_fract_y
_atom_site_fract_z
Si Si1 0.652675 0.299421 0.618761
Si Si2 0.035166 0.035166 0.934395
Si Si3 0.465572 0.606352 0.063731
Si Si4 0.534869 0.965132 0.430820
Si Si5 0.800368 0.058222 0.919756
Si Si6 0.441989 0.800372 0.552084
Si Si7 0.605429 0.034133 0.430415
Si Si8 0.700894 0.158250 0.872462
O O1 0.692363 0.307638 0.500000
O O2 0.654064 0.250000 0.685699
O O3 0.607234 0.304290 0.523914
O O4 0.661928 0.335002 0.750208
O O5 0.033553 0.033553 0.751765
O O6 0.013125 0.082609 0.978279
O O7 0.000000 0.000000 0.000000
O O8 0.461108 0.606148 0.247177
O O9 0.425333 0.574668 0.000000
O O10 0.463418 0.656403 0.997147
O O11 0.513074 0.917984 0.474354
O O12 0.500000 0.000000 0.500000
O O13 0.750000 0.042322 0.963062
O O14 0.803016 0.057663 0.735390
O O15 0.803027 0.110923 0.955261
O O16 0.458225 0.750000 0.511967
O O17 0.466029 0.844154 0.489844
O O18 0.574658 0.074658 0.500000
O O19 0.750000 0.159543 0.798699
O O20 0.695537 0.195537 0.000000
#
# Coordination Sequence:
#
# PCOD9565230 Si02
#       8
#    16   8  16   8  16  16  16  16
#     4  11  21  33  47  58  71  96 132 172 215 260
#     4   8  16  30  44  66  92 106 132 169 206 255
#     4  10  19  30  48  68  86 112 138 171 215 255
#     4   8  16  30  44  68  92 108 132 165 208 255
#     4  10  21  35  46  60  84 110 139 173 210 254
#     4  10  21  34  45  61  83 108 139 174 209 251
#     4  10  19  30  49  68  88 112 137 172 213 257
#     4  11  23  35  44  57  77  99 129 172 218 262
#
# _framework density 14.267464
#
# number of rings (size 3 to 8) (size 9 to 14) (size 15 to 20)
#    0.000    2.000    1.429    2.571    4.000    3.429 
#    0.000    0.000    0.000    0.000    0.000    0.000 
#    0.000    0.000    0.000    0.000    0.000    0.714 
#
# Total GULP energy -623550.832112 kJ/mol
# GULP energy per Si atom -5567.418144 kJ/mol
# Density = 1.423499 g / cm^3
# Si number density = 14.267464 Si / 1000 Ang^3
#
#
#
# Elastic Constant Matrix: (Units=GPa)
#
#
# Indices 1 2 3 4 5 6 
#
# 1 87.7041 60.1522 26.4761 0.0000 0.0000 0.0000
# 2 60.1522 87.7035 26.4769 0.0000 0.0000 0.0000
# 3 26.4761 26.4769 39.2738 0.0000 0.0000 0.0000
# 4 0.0000 0.0000 0.0000 18.4443 0.0000 0.0000
# 5 0.0000 0.0000 0.0000 0.0000 18.4443 0.0000
# 6 0.0000 0.0000 0.0000 0.0000 0.0000 25.4443
#
#
#
# Elastic Compliance Matrix: (Units=1/GPa)
#
#
# Indices 1 2 3 4 5 6 
#
# 1 0.022605 -0.013690 -0.006010 0.000000 0.000000 0.000000
# 2 -0.013690 0.022606 -0.006011 0.000000 0.000000 0.000000
# 3 -0.006010 -0.006011 0.033567 0.000000 0.000000 0.000000
# 4 0.000000 0.000000 0.000000 0.054217 0.000000 0.000000
# 5 0.000000 0.000000 0.000000 0.000000 0.054217 0.000000
# 6 0.000000 0.000000 0.000000 0.000000 0.000000 0.039302
#
#
# Mechanical properties :
#
#
# Convention : Reuss Voigt Hill
#
# Bulk Modulus (GPa) = 36.55556 48.98800 42.77178
# Shear Modulus (GPa) = 17.41823 19.23831 18.32827
#
# Velocity S-wave (km/s) = 3.49784 3.67605 3.58805
# Velocity P-wave (km/s) = 6.48000 7.24070 6.87089
#
# Compressibility (1/GPa) = 0.02735562
#
# Stress axis : x y z
#
# Youngs Moduli (GPa) = 44.23708 44.23601 29.79148
#
# Poissons Ratio (x) = 0.60558 0.17905
# Poissons Ratio (y) = 0.60559 0.17909
# Poissons Ratio (z) = 0.26587 0.26592
#
# Static dielectric constant tensor:
#      x y z
#    x 1.489460 0.000000 0.000000 
#    y 0.000000 1.489460 0.000000 
#    z 0.000000 0.000000 1.518560 
# 
# From -- ./inp_files/2970.got.cif
#   From: 2010.05.17/outbox.cif.g08.bks.cpg/sg129_2_cif.got.tgz:2970.got - 2010.05.20 12:12:06.
