data_PCOD9565301
_publ_section_title
;
Structure prediction by ZEFSAII (Michael W. Deem and Ramdas Pophale) SiO2 
 PCOD9565301
Probable space group: P 4/N M M
;
_chemical_formula_sum "Si O2"
_cell_formula_units_Z 56
_cell_length_a 17.165314
_cell_length_b 17.165314
_cell_length_c 10.452840
_cell_angle_alpha 90.000000
_cell_angle_beta 90.000000
_cell_angle_gamma 90.000000
_cell_volume 3079.908450
_symmetry_space_group_name_H-M "P 4/N M M"
_symmetry_group_IT_number 129
_symmetry_cell_setting 'tetragonal'
loop_
_space_group_symop_operation_xyz
x,y,z
1/2-y,x,z
1/2-x,1/2-y,z
y,1/2-x,z
1/2+x,-y,-z
-x,1/2+y,-z
1/2+y,1/2+x,-z
-y,-x,-z
-x,-y,-z
1/2+y,-x,-z
1/2+x,1/2+y,-z
-y,1/2+x,-z
1/2-x,y,z
x,1/2-y,z
1/2-y,1/2-x,z
y,x,z
loop_
_atom_site_type_symbol
_atom_site_label
_atom_site_fract_x
_atom_site_fract_y
_atom_site_fract_z
Si Si1 0.538805 0.160133 0.948079
Si Si2 0.659862 0.159862 0.500000
Si Si3 0.042141 0.338628 0.214993
Si Si4 0.083042 0.539259 0.681260
O O1 0.557591 0.250000 0.926440
O O2 0.514064 0.121149 0.815506
O O3 0.613480 0.113480 0.000000
O O4 0.477258 0.155214 0.063641
O O5 0.653459 0.250000 0.450967
O O6 0.644813 0.088136 0.401994
O O7 0.031943 0.250000 0.254704
O O8 0.127196 0.372805 0.238968
O O9 0.981284 0.395196 0.284355
O O10 0.035009 0.464992 0.626213
#
# Coordination Sequence:
#
# PCOD9565301 Si02
#       4
#    16   8  16  16
#     4   9  17  29  46  70  98 127 158 190 228 274
#     4  11  23  36  50  70  97 125 154 196 250 301
#     4   9  17  29  46  68  93 120 151 188 228 271
#     4  10  19  33  51  69  92 124 162 198 233 280
#
# _framework density 18.182359000000002
#
# number of rings (size 3 to 8) (size 9 to 14) (size 15 to 20)
#    0.000    2.429    0.000    3.000    0.000    5.143 
#    0.000    0.000    0.000    0.000    0.000    0.000 
#    0.000   23.429    0.000    0.000    0.000    0.000 
#
# Total GULP energy -311811.283083 kJ/mol
# GULP energy per Si atom -5568.058626 kJ/mol
# Density = 1.814098 g / cm^3
# Si number density = 18.182359 Si / 1000 Ang^3
#
#
#
# Elastic Constant Matrix: (Units=GPa)
#
#
# Indices 1 2 3 4 5 6 
#
# 1 50.7554 34.3842 -5.8485 0.0000 0.0000 0.0000
# 2 34.3842 50.7554 -5.8485 0.0000 0.0000 0.0000
# 3 -5.8485 -5.8485 24.2007 0.0000 0.0000 0.0000
# 4 0.0000 0.0000 0.0000 13.6722 0.0000 0.0000
# 5 0.0000 0.0000 0.0000 0.0000 13.6722 0.0000
# 6 0.0000 0.0000 0.0000 0.0000 0.0000 21.2297
#
#
#
# Elastic Compliance Matrix: (Units=1/GPa)
#
#
# Indices 1 2 3 4 5 6 
#
# 1 0.036616 -0.024467 0.002936 0.000000 0.000000 0.000000
# 2 -0.024467 0.036616 0.002936 0.000000 0.000000 0.000000
# 3 0.002936 0.002936 0.042740 0.000000 0.000000 0.000000
# 4 0.000000 0.000000 0.000000 0.073141 0.000000 0.000000
# 5 0.000000 0.000000 0.000000 0.000000 0.073141 0.000000
# 6 0.000000 0.000000 0.000000 0.000000 0.000000 0.047104
#
#
# Mechanical properties :
#
#
# Convention : Reuss Voigt Hill
#
# Bulk Modulus (GPa) = 12.69334 19.00955 15.85145
# Shear Modulus (GPa) = 13.41172 16.58311 14.99742
#
# Velocity S-wave (km/s) = 2.71887 3.02328 2.87511
# Velocity P-wave (km/s) = 4.10519 4.76074 4.44507
#
# Compressibility (1/GPa) = 0.07878145
#
# Stress axis : x y z
#
# Youngs Moduli (GPa) = 27.31066 27.31066 23.39720
#
# Poissons Ratio (x) = 0.66821 -0.06869
# Poissons Ratio (y) = 0.66821 -0.06869
# Poissons Ratio (z) = -0.08018 -0.08018
#
# Static dielectric constant tensor:
#      x y z
#    x 1.618540 0.000000 0.000000 
#    y 0.000000 1.618540 0.000000 
#    z 0.000000 0.000000 1.669950 
# 
# From -- ./inp_files/3322.got.cif
#   From: 2010.05.17/outbox.cif.g08.bks.cpg/sg129_2_cif.got.tgz:3322.got - 2010.05.20 12:12:06.
