data_PCOD9565398
_publ_section_title
;
Structure prediction by ZEFSAII (Michael W. Deem and Ramdas Pophale) SiO2 
 PCOD9565398
Probable space group: P 4/N M M
;
_chemical_formula_sum "Si O2"
_cell_formula_units_Z 112
_cell_length_a 18.895599
_cell_length_b 18.895599
_cell_length_c 18.249872
_cell_angle_alpha 90.000000
_cell_angle_beta 90.000000
_cell_angle_gamma 90.000000
_cell_volume 6516.001122
_symmetry_space_group_name_H-M "P 4/N M M"
_symmetry_group_IT_number 129
_symmetry_cell_setting 'tetragonal'
loop_
_space_group_symop_operation_xyz
x,y,z
1/2-y,x,z
1/2-x,1/2-y,z
y,1/2-x,z
1/2+x,-y,-z
-x,1/2+y,-z
1/2+y,1/2+x,-z
-y,-x,-z
-x,-y,-z
1/2+y,-x,-z
1/2+x,1/2+y,-z
-y,1/2+x,-z
1/2-x,y,z
x,1/2-y,z
1/2-y,1/2-x,z
y,x,z
loop_
_atom_site_type_symbol
_atom_site_label
_atom_site_fract_x
_atom_site_fract_y
_atom_site_fract_z
Si Si1 0.059095 0.556771 0.813617
Si Si2 0.559639 0.672516 0.982518
Si Si3 0.413069 0.528275 0.655602
Si Si4 0.331132 0.052475 0.532699
Si Si5 0.669279 0.943392 0.805232
Si Si6 0.669714 0.091438 0.060895
Si Si7 0.588774 0.331540 0.436837
O O1 0.099018 0.527258 0.742451
O O2 0.112096 0.585240 0.874883
O O3 0.003989 0.496012 0.841283
O O4 0.009346 0.620339 0.784308
O O5 0.589121 0.750000 0.001191
O O6 0.610473 0.610473 0.007807
O O7 0.483110 0.666193 0.017971
O O8 0.554366 0.669379 0.894306
O O9 0.489251 0.489251 0.643116
O O10 0.357834 0.482356 0.608776
O O11 0.409403 0.607907 0.624823
O O12 0.250000 0.075408 0.537561
O O13 0.384295 0.115706 0.514176
O O14 0.336110 0.988636 0.474346
O O15 0.750000 0.946624 0.779683
O O16 0.628021 0.871980 0.783312
O O17 0.750000 0.101801 0.087615
O O18 0.649046 0.149046 0.000000
O O19 0.644136 0.355864 0.500000
O O20 0.601010 0.250000 0.414259
#
# Coordination Sequence:
#
# PCOD9565398 Si02
#       7
#    16  16  16  16  16  16  16
#     4  10  20  33  52  74  97 127 162 205 248 290
#     4   9  17  29  47  70  93 118 148 185 232 287
#     4   9  18  32  49  73 101 130 166 203 244 291
#     4   9  17  30  50  74 102 134 165 201 241 285
#     4   9  17  29  46  69  95 122 153 190 235 287
#     4  11  22  35  51  69  90 121 161 204 250 299
#     4   9  17  30  49  73 100 132 167 203 242 285
#
# _framework density 17.188455999999999
#
# number of rings (size 3 to 8) (size 9 to 14) (size 15 to 20)
#    0.000    2.571    1.429    0.857    0.000    4.143 
#    0.000    1.429    0.000    0.000    0.000    2.000 
#    0.000    6.857    0.000    0.000    0.000    0.000 
#
# Total GULP energy -624018.030556 kJ/mol
# GULP energy per Si atom -5571.589559 kJ/mol
# Density = 1.714933 g / cm^3
# Si number density = 17.188456 Si / 1000 Ang^3
#
#
#
# Elastic Constant Matrix: (Units=GPa)
#
#
# Indices 1 2 3 4 5 6 
#
# 1 74.0936 16.1392 -1.7673 0.0000 0.0000 0.0000
# 2 16.1392 74.0952 -1.7670 0.0000 0.0000 0.0000
# 3 -1.7673 -1.7670 24.1589 0.0000 0.0000 0.0000
# 4 0.0000 0.0000 0.0000 10.0406 0.0000 0.0000
# 5 0.0000 0.0000 0.0000 0.0000 10.0406 0.0000
# 6 0.0000 0.0000 0.0000 0.0000 0.0000 14.6820
#
#
#
# Elastic Compliance Matrix: (Units=1/GPa)
#
#
# Indices 1 2 3 4 5 6 
#
# 1 0.014185 -0.003070 0.000813 0.000000 0.000000 0.000000
# 2 -0.003070 0.014184 0.000813 0.000000 0.000000 0.000000
# 3 0.000813 0.000813 0.041512 0.000000 0.000000 0.000000
# 4 0.000000 0.000000 0.000000 0.099595 0.000000 0.000000
# 5 0.000000 0.000000 0.000000 0.000000 0.099595 0.000000
# 6 0.000000 0.000000 0.000000 0.000000 0.000000 0.068111
#
#
# Mechanical properties :
#
#
# Convention : Reuss Voigt Hill
#
# Bulk Modulus (GPa) = 14.92721 21.95084 18.43902
# Shear Modulus (GPa) = 13.79686 17.60216 15.69951
#
# Velocity S-wave (km/s) = 2.83624 3.20358 3.02549
# Velocity P-wave (km/s) = 4.40783 5.14610 4.79120
#
# Compressibility (1/GPa) = 0.06699177
#
# Stress axis : x y z
#
# Youngs Moduli (GPa) = 70.49897 70.50049 24.08968
#
# Poissons Ratio (x) = 0.21646 -0.01959
# Poissons Ratio (y) = 0.21645 -0.01958
# Poissons Ratio (z) = -0.05732 -0.05731
#
# Static dielectric constant tensor:
#      x y z
#    x 1.587960 0.000000 0.000000 
#    y 0.000000 1.587960 0.000000 
#    z 0.000000 0.000000 1.580240 
# 
# From -- ./inp_files/6697.got.cif
#   From: 2010.05.17/outbox.cif.g08.bks.cpg/sg129_4_cif.got.tgz:6697.got - 2010.05.20 12:12:06.
