data_PCOD9565820
_publ_section_title
;
Structure prediction by ZEFSAII (Michael W. Deem and Ramdas Pophale) SiO2 
 PCOD9565820
Probable space group: P 4/N C C
;
_chemical_formula_sum "Si O2"
_cell_formula_units_Z 80
_cell_length_a 12.310086
_cell_length_b 12.310086
_cell_length_c 27.596833
_cell_angle_alpha 90.000000
_cell_angle_beta 90.000000
_cell_angle_gamma 90.000000
_cell_volume 4181.974877
_symmetry_space_group_name_H-M "P 4/N C C"
_symmetry_group_IT_number 130
_symmetry_cell_setting 'tetragonal'
loop_
_space_group_symop_operation_xyz
x,y,z
1/2-y,x,z
1/2-x,1/2-y,z
y,1/2-x,z
1/2+x,-y,1/2-z
-x,1/2+y,1/2-z
1/2+y,1/2+x,1/2-z
-y,-x,1/2-z
-x,-y,-z
1/2+y,-x,-z
1/2+x,1/2+y,-z
-y,1/2+x,-z
1/2-x,y,1/2+z
x,1/2-y,1/2+z
1/2-y,1/2-x,1/2+z
y,x,1/2+z
loop_
_atom_site_type_symbol
_atom_site_label
_atom_site_fract_x
_atom_site_fract_y
_atom_site_fract_z
Si Si1 0.649455 0.470982 0.837586
Si Si2 0.621687 0.256999 0.374289
Si Si3 0.042468 0.620926 0.301866
Si Si4 0.930073 0.720943 0.936495
Si Si5 0.732894 0.565830 0.046223
O O1 0.600144 0.351385 0.842819
O O2 0.561484 0.559142 0.822820
O O3 0.749720 0.475609 0.800710
O O4 0.698684 0.494490 0.891073
O O5 0.750000 0.250000 0.388758
O O6 0.606616 0.359451 0.339526
O O7 0.535175 0.266626 0.417512
O O8 0.074277 0.574277 0.250000
O O9 0.869700 0.836091 0.932783
O O10 0.975921 0.719972 0.990862
O O11 0.844746 0.635939 0.052248
#
# Coordination Sequence:
#
# PCOD9565820 Si02
#       5
#    16  16  16  16  16
#     4  11  22  42  67  89 127 165 206 269 307 376
#     4  10  23  41  58  90 132 169 203 249 321 388
#     4  11  26  42  66  93 119 165 214 257 325 369
#     4   9  17  35  63  93 120 158 214 266 302 351
#     4   9  18  37  65  91 123 166 211 262 310 357
#
# _framework density 19.129719000000001
#
# number of rings (size 3 to 8) (size 9 to 14) (size 15 to 20)
#    0.000    2.000    2.000    2.400    2.800    3.200 
#    7.200    3.000    0.000    0.000    0.000    0.000 
#    0.000    0.000    0.000    0.000    0.000    0.000 
#
# Total GULP energy -446511.664792 kJ/mol
# GULP energy per Si atom -5581.395810 kJ/mol
# Density = 1.908618 g / cm^3
# Si number density = 19.129719 Si / 1000 Ang^3
#
#
#
# Elastic Constant Matrix: (Units=GPa)
#
#
# Indices 1 2 3 4 5 6 
#
# 1 76.6467 8.9594 50.5400 0.0000 0.0000 0.0000
# 2 8.9594 76.6467 50.5400 0.0000 0.0000 0.0000
# 3 50.5400 50.5400 103.7235 0.0000 0.0000 0.0000
# 4 0.0000 0.0000 0.0000 57.0410 0.0000 0.0000
# 5 0.0000 0.0000 0.0000 0.0000 57.0410 0.0000
# 6 0.0000 0.0000 0.0000 0.0000 0.0000 22.3510
#
#
#
# Elastic Compliance Matrix: (Units=1/GPa)
#
#
# Indices 1 2 3 4 5 6 
#
# 1 0.021140 0.006367 -0.013403 0.000000 0.000000 0.000000
# 2 0.006367 0.021140 -0.013403 0.000000 0.000000 0.000000
# 3 -0.013403 -0.013403 0.022702 0.000000 0.000000 0.000000
# 4 0.000000 0.000000 0.000000 0.017531 0.000000 0.000000
# 5 0.000000 0.000000 0.000000 0.000000 0.017531 0.000000
# 6 0.000000 0.000000 0.000000 0.000000 0.000000 0.044741
#
#
# Mechanical properties :
#
#
# Convention : Reuss Voigt Hill
#
# Bulk Modulus (GPa) = 41.48587 53.01061 47.24824
# Shear Modulus (GPa) = 25.81306 37.08510 31.44908
#
# Velocity S-wave (km/s) = 3.67736 4.40774 4.05901
# Velocity P-wave (km/s) = 6.30590 7.32636 6.83520
#
# Compressibility (1/GPa) = 0.02410459
#
# Stress axis : x y z
#
# Youngs Moduli (GPa) = 47.30258 47.30258 44.04804
#
# Poissons Ratio (x) = -0.30116 0.59038
# Poissons Ratio (y) = -0.30116 0.59038
# Poissons Ratio (z) = 0.63400 0.63400
#
# Static dielectric constant tensor:
#      x y z
#    x 1.669810 0.000000 0.000000 
#    y 0.000000 1.669810 0.000000 
#    z 0.000000 0.000000 1.647950 
# 
# From -- ./inp_files/4793.got.cif
#   From: 2010.05.17/outbox.cif.g08.bks.cpg/sg130_3_cif.got.tgz:4793.got - 2010.05.20 12:17:35.
