data_PCOD9565032
_publ_section_title
;
Structure prediction by ZEFSAII (Michael W. Deem and Ramdas Pophale) SiO2 
 PCOD9565032
Probable space group: P 4/M N C
;
_chemical_formula_sum "Si O2"
_cell_formula_units_Z 48
_cell_length_a 8.373147
_cell_length_b 8.373147
_cell_length_c 32.907413
_cell_angle_alpha 90.000000
_cell_angle_beta 90.000000
_cell_angle_gamma 90.000000
_cell_volume 2307.125256
_symmetry_space_group_name_H-M "P 4/M N C"
_symmetry_group_IT_number 128
_symmetry_cell_setting 'tetragonal'
loop_
_space_group_symop_operation_xyz
x,y,z
-y,x,z
-x,-y,z
y,-x,z
1/2+x,1/2-y,1/2-z
1/2-x,1/2+y,1/2-z
1/2+y,1/2+x,1/2-z
1/2-y,1/2-x,1/2-z
-x,-y,-z
y,-x,-z
x,y,-z
-y,x,-z
1/2-x,1/2+y,1/2+z
1/2+x,1/2-y,1/2+z
1/2-y,1/2-x,1/2+z
1/2+y,1/2+x,1/2+z
loop_
_atom_site_type_symbol
_atom_site_label
_atom_site_fract_x
_atom_site_fract_y
_atom_site_fract_z
Si Si1 0.046139 0.736285 0.216916
Si Si2 0.500000 0.000000 0.143218
Si Si3 0.263001 0.052646 0.570012
Si Si4 0.571438 0.761396 0.500000
O O1 0.110159 0.610159 0.250000
O O2 0.023005 0.648457 0.173830
O O3 0.877329 0.824469 0.221319
O O4 0.525258 0.849971 0.113101
O O5 0.389815 0.128624 0.538798
O O6 0.117914 0.178260 0.564241
O O7 0.393603 0.688605 0.500000
#
# Coordination Sequence:
#
# PCOD9565032 Si02
#       4
#    16   8  16   8
#     4  11  24  43  69 100 136 179 225 277 337 403
#     4  12  23  41  64  94 134 174 222 277 331 400
#     4  11  24  41  64  94 130 174 222 275 334 398
#     4  11  24  43  68  97 130 172 222 277 340 408
#
# _framework density 20.805115000000001
#
# number of rings (size 3 to 8) (size 9 to 14) (size 15 to 20)
#    0.000    0.833    0.000    7.500    0.000    3.333 
#    0.000    6.667    0.000    0.000    0.000    0.000 
#    0.000    0.000    0.000    0.000    0.000    0.000 
#
# Total GULP energy -267370.655997 kJ/mol
# GULP energy per Si atom -5570.222000 kJ/mol
# Density = 2.075776 g / cm^3
# Si number density = 20.805115 Si / 1000 Ang^3
#
#
#
# Elastic Constant Matrix: (Units=GPa)
#
#
# Indices 1 2 3 4 5 6 
#
# 1 57.2935 200.7855 80.2922 0.0000 0.0000 0.0000
# 2 200.7855 57.2935 80.2922 0.0000 0.0000 0.0000
# 3 80.2922 80.2922 129.6724 0.0000 0.0000 0.0000
# 4 0.0000 0.0000 0.0000 43.4650 0.0000 0.0000
# 5 0.0000 0.0000 0.0000 0.0000 43.4650 0.0000
# 6 0.0000 0.0000 0.0000 0.0000 0.0000 46.0972
#
#
#
# Elastic Compliance Matrix: (Units=1/GPa)
#
#
# Indices 1 2 3 4 5 6 
#
# 1 -0.000333 0.006636 -0.003903 0.000000 0.000000 0.000000
# 2 0.006636 -0.000333 -0.003903 0.000000 0.000000 0.000000
# 3 -0.003903 -0.003903 0.012545 0.000000 0.000000 0.000000
# 4 0.000000 0.000000 0.000000 0.023007 0.000000 0.000000
# 5 0.000000 0.000000 0.000000 0.000000 0.023007 0.000000
# 6 0.000000 0.000000 0.000000 0.000000 0.000000 0.021693
#
#
# Mechanical properties :
#
#
# Convention : Reuss Voigt Hill
#
# Bulk Modulus (GPa) = 104.82305 107.44435 106.13370
# Shear Modulus (GPa) = 58.75004 18.79805 38.77405
#
# Velocity S-wave (km/s) = 5.31973 3.00914 4.32172
# Velocity P-wave (km/s) = 9.39284 7.98928 8.71935
#
# Compressibility (1/GPa) = 0.00953989
#
# Stress axis : x y z
#
# Youngs Moduli (GPa) = -3004.34107 -3004.34107 79.71219
#
# Poissons Ratio (x) = 19.93735 0.31111
# Poissons Ratio (y) = 19.93735 0.31111
# Poissons Ratio (z) = -11.72587 -11.72587
#
# Static dielectric constant tensor:
#      x y z
#    x 1.794720 0.000000 0.000000 
#    y 0.000000 1.794720 0.000000 
#    z 0.000000 0.000000 1.728750 
# 
# From -- ./inp_files/7021.got.cif
#   From: 2010.05.17/outbox.cif.g08.bks.cpg/sg128_4_cif.got.tgz:7021.got - 2010.05.20 12:07:25.
