data_PCOD9565679
_publ_section_title
;
Structure prediction by ZEFSAII (Michael W. Deem and Ramdas Pophale) SiO2 
 PCOD9565679
Probable space group: P 4/N C C
;
_chemical_formula_sum "Si O2"
_cell_formula_units_Z 112
_cell_length_a 14.879435
_cell_length_b 14.879435
_cell_length_c 23.997250
_cell_angle_alpha 90.000000
_cell_angle_beta 90.000000
_cell_angle_gamma 90.000000
_cell_volume 5312.933219
_symmetry_space_group_name_H-M "P 4/N C C"
_symmetry_group_IT_number 130
_symmetry_cell_setting 'tetragonal'
loop_
_space_group_symop_operation_xyz
x,y,z
1/2-y,x,z
1/2-x,1/2-y,z
y,1/2-x,z
1/2+x,-y,1/2-z
-x,1/2+y,1/2-z
1/2+y,1/2+x,1/2-z
-y,-x,1/2-z
-x,-y,-z
1/2+y,-x,-z
1/2+x,1/2+y,-z
-y,1/2+x,-z
1/2-x,y,1/2+z
x,1/2-y,1/2+z
1/2-y,1/2-x,1/2+z
y,x,1/2+z
loop_
_atom_site_type_symbol
_atom_site_label
_atom_site_fract_x
_atom_site_fract_y
_atom_site_fract_z
Si Si1 0.567625 0.557525 0.902397
Si Si2 0.305246 0.587934 0.570118
Si Si3 0.098119 0.626480 0.555657
Si Si4 0.820331 0.468690 0.240673
Si Si5 0.516417 0.947511 0.192571
Si Si6 0.217787 0.395832 0.666606
Si Si7 0.566501 0.215116 0.862961
O O1 0.506151 0.644249 0.914761
O O2 0.554541 0.472916 0.943327
O O3 0.532262 0.516794 0.843843
O O4 0.673110 0.579775 0.893516
O O5 0.199646 0.606124 0.575766
O O6 0.331756 0.602126 0.505583
O O7 0.352307 0.662133 0.608869
O O8 0.051346 0.698723 0.597020
O O9 0.894254 0.394254 0.250000
O O10 0.879600 0.545122 0.209650
O O11 0.782708 0.515622 0.295358
O O12 0.751181 0.422785 0.199306
O O13 0.504725 0.863656 0.150810
O O14 0.457549 0.957549 0.250000
O O15 0.148218 0.314142 0.678092
#
# Coordination Sequence:
#
# PCOD9565679 Si02
#       7
#    16  16  16  16  16  16  16
#     4  11  22  40  65  91 123 169 215 254 321 386
#     4  11  25  41  67  94 129 171 213 279 327 386
#     4  12  22  44  65  93 130 166 221 267 332 387
#     4  11  20  39  61  88 129 169 208 257 315 394
#     4  10  20  39  57  88 125 166 206 253 316 387
#     4  11  22  37  62  93 126 166 211 262 318 381
#     4  11  23  38  63  89 125 172 208 267 323 387
#
# _framework density 21.080634
#
# number of rings (size 3 to 8) (size 9 to 14) (size 15 to 20)
#    0.000    1.000    5.714    2.571    0.000    0.000 
#    5.143    0.000    0.000    0.000    0.000    0.000 
#    0.000    0.000    0.000    0.000    0.000    0.000 
#
# Total GULP energy -623728.575189 kJ/mol
# GULP energy per Si atom -5569.005136 kJ/mol
# Density = 2.103265 g / cm^3
# Si number density = 21.080634 Si / 1000 Ang^3
#
#
#
# Elastic Constant Matrix: (Units=GPa)
#
#
# Indices 1 2 3 4 5 6 
#
# 1 58.6368 2.9116 13.4660 0.0000 0.0000 0.0000
# 2 2.9116 58.6368 13.4660 0.0000 0.0000 0.0000
# 3 13.4660 13.4660 51.5355 0.0000 0.0000 0.0000
# 4 0.0000 0.0000 0.0000 24.3566 0.0000 0.0000
# 5 0.0000 0.0000 0.0000 0.0000 24.3566 0.0000
# 6 0.0000 0.0000 0.0000 0.0000 0.0000 21.8397
#
#
#
# Elastic Compliance Matrix: (Units=1/GPa)
#
#
# Indices 1 2 3 4 5 6 
#
# 1 0.018145 0.000200 -0.004793 0.000000 0.000000 0.000000
# 2 0.000200 0.018145 -0.004793 0.000000 0.000000 0.000000
# 3 -0.004793 -0.004793 0.021909 0.000000 0.000000 0.000000
# 4 0.000000 0.000000 0.000000 0.041057 0.000000 0.000000
# 5 0.000000 0.000000 0.000000 0.000000 0.041057 0.000000
# 6 0.000000 0.000000 0.000000 0.000000 0.000000 0.045788
#
#
# Mechanical properties :
#
#
# Convention : Reuss Voigt Hill
#
# Bulk Modulus (GPa) = 25.36455 25.38847 25.37651
# Shear Modulus (GPa) = 22.93406 23.37495 23.15451
#
# Velocity S-wave (km/s) = 3.30194 3.33353 3.31777
# Velocity P-wave (km/s) = 5.15707 5.18519 5.17115
#
# Compressibility (1/GPa) = 0.03942511
#
# Stress axis : x y z
#
# Youngs Moduli (GPa) = 55.11153 55.11153 45.64316
#
# Poissons Ratio (x) = -0.01101 0.21879
# Poissons Ratio (y) = -0.01101 0.21879
# Poissons Ratio (z) = 0.26417 0.26417
#
# Static dielectric constant tensor:
#      x y z
#    x 1.899240 0.000000 0.000000 
#    y 0.000000 1.899240 0.000000 
#    z 0.000000 0.000000 1.769230 
# 
# From -- ./inp_files/4307.got.cif
#   From: 2010.05.17/outbox.cif.g08.bks.cpg/sg130_3_cif.got.tgz:4307.got - 2010.05.20 12:17:35.
