data_PCOD9565127
_publ_section_title
;
Structure prediction by ZEFSAII (Michael W. Deem and Ramdas Pophale) SiO2 
 PCOD9565127
Probable space group: P 4/N M M
;
_chemical_formula_sum "Si O2"
_cell_formula_units_Z 112
_cell_length_a 18.082594
_cell_length_b 18.082594
_cell_length_c 22.150084
_cell_angle_alpha 90.000000
_cell_angle_beta 90.000000
_cell_angle_gamma 90.000000
_cell_volume 7242.639024
_symmetry_space_group_name_H-M "P 4/N M M"
_symmetry_group_IT_number 129
_symmetry_cell_setting 'tetragonal'
loop_
_space_group_symop_operation_xyz
x,y,z
1/2-y,x,z
1/2-x,1/2-y,z
y,1/2-x,z
1/2+x,-y,-z
-x,1/2+y,-z
1/2+y,1/2+x,-z
-y,-x,-z
-x,-y,-z
1/2+y,-x,-z
1/2+x,1/2+y,-z
-y,1/2+x,-z
1/2-x,y,z
x,1/2-y,z
1/2-y,1/2-x,z
y,x,z
loop_
_atom_site_type_symbol
_atom_site_label
_atom_site_fract_x
_atom_site_fract_y
_atom_site_fract_z
Si Si1 0.027757 0.665672 0.252409
Si Si2 0.664288 0.335337 0.572703
Si Si3 0.837345 0.385584 0.065812
Si Si4 0.832714 0.103945 0.811318
Si Si5 0.935132 0.052402 0.646649
Si Si6 0.459655 0.337734 0.260396
Si Si7 0.454368 0.164939 0.876262
O O1 0.017529 0.750000 0.273210
O O2 0.109561 0.654644 0.224332
O O3 0.023564 0.605275 0.304759
O O4 0.976014 0.652692 0.194194
O O5 0.660615 0.339385 0.500000
O O6 0.750000 0.350051 0.590218
O O7 0.647333 0.250000 0.590160
O O8 0.608855 0.393609 0.602180
O O9 0.750000 0.367566 0.068380
O O10 0.841354 0.379435 0.881745
O O11 0.867625 0.367625 0.000000
O O12 0.845530 0.471248 0.084899
O O13 0.750000 0.120159 0.790706
O O14 0.848134 0.018570 0.794178
O O15 0.875029 0.003188 0.683352
O O16 0.995398 0.995398 0.620205
O O17 0.446911 0.250000 0.268384
O O18 0.385612 0.385612 0.251108
O O19 0.431135 0.250000 0.882364
O O20 0.391723 0.108278 0.894393
#
# Coordination Sequence:
#
# PCOD9565127 Si02
#       7
#    16  16  16  16  16  16  16
#     4   9  17  28  43  64  90 119 147 176 213 258
#     4   9  18  32  48  66  91 123 156 189 224 264
#     4  10  20  31  45  66  89 114 142 171 208 258
#     4   9  17  28  42  63  89 114 142 177 216 257
#     4  10  18  28  45  68  94 121 149 183 223 267
#     4   9  18  31  46  65  88 115 148 185 224 265
#     4   9  18  32  47  64  86 110 141 179 215 253
#
# _framework density 15.463976000000001
#
# number of rings (size 3 to 8) (size 9 to 14) (size 15 to 20)
#    0.000    2.714    0.000    3.429    0.000    6.714 
#    0.000    0.000    0.000    0.000    0.000    0.000 
#    0.000    7.143    0.000   10.571    0.000    0.286 
#
# Total GULP energy -623954.643027 kJ/mol
# GULP energy per Si atom -5571.023598 kJ/mol
# Density = 1.542878 g / cm^3
# Si number density = 15.463976 Si / 1000 Ang^3
#
#
#
# Elastic Constant Matrix: (Units=GPa)
#
#
# Indices 1 2 3 4 5 6 
#
# 1 84.1589 69.7474 30.8715 0.0000 0.0000 0.0000
# 2 69.7474 84.1588 30.8715 0.0000 0.0000 0.0000
# 3 30.8715 30.8715 45.5085 0.0000 0.0000 0.0000
# 4 0.0000 0.0000 0.0000 12.9789 0.0000 0.0000
# 5 0.0000 0.0000 0.0000 0.0000 12.9790 0.0000
# 6 0.0000 0.0000 0.0000 0.0000 0.0000 17.8278
#
#
#
# Elastic Compliance Matrix: (Units=1/GPa)
#
#
# Indices 1 2 3 4 5 6 
#
# 1 0.039158 -0.030231 -0.006056 0.000000 0.000000 0.000000
# 2 -0.030231 0.039158 -0.006056 0.000000 0.000000 0.000000
# 3 -0.006056 -0.006056 0.030190 0.000000 0.000000 0.000000
# 4 0.000000 0.000000 0.000000 0.077048 0.000000 0.000000
# 5 0.000000 0.000000 0.000000 0.000000 0.077048 0.000000
# 6 0.000000 0.000000 0.000000 0.000000 0.000000 0.056092
#
#
# Mechanical properties :
#
#
# Convention : Reuss Voigt Hill
#
# Bulk Modulus (GPa) = 41.98009 52.97857 47.47933
# Shear Modulus (GPa) = 12.15600 14.24619 13.20109
#
# Velocity S-wave (km/s) = 2.80676 3.03850 2.92493
# Velocity P-wave (km/s) = 6.14083 6.82962 6.49437
#
# Compressibility (1/GPa) = 0.02382082
#
# Stress axis : x y z
#
# Youngs Moduli (GPa) = 25.53754 25.53749 33.12371
#
# Poissons Ratio (x) = 0.77203 0.20058
# Poissons Ratio (y) = 0.77203 0.20059
# Poissons Ratio (z) = 0.15465 0.15465
#
# Static dielectric constant tensor:
#      x y z
#    x 1.513010 0.000000 0.000000 
#    y 0.000000 1.513010 0.000000 
#    z 0.000000 0.000000 1.511840 
# 
# From -- ./inp_files/6700.got.cif
#   From: 2010.05.17/outbox.cif.g08.bks.cpg/sg129_4_cif.got.tgz:6700.got - 2010.05.20 12:12:06.
