data_PCOD9565737
_publ_section_title
;
Structure prediction by ZEFSAII (Michael W. Deem and Ramdas Pophale) SiO2 
 PCOD9565737
Probable space group: P 4/N C C
;
_chemical_formula_sum "Si O2"
_cell_formula_units_Z 84
_cell_length_a 11.127404
_cell_length_b 11.127404
_cell_length_c 28.570544
_cell_angle_alpha 90.000000
_cell_angle_beta 90.000000
_cell_angle_gamma 90.000000
_cell_volume 3537.579610
_symmetry_space_group_name_H-M "P 4/N C C"
_symmetry_group_IT_number 130
_symmetry_cell_setting 'tetragonal'
loop_
_space_group_symop_operation_xyz
x,y,z
1/2-y,x,z
1/2-x,1/2-y,z
y,1/2-x,z
1/2+x,-y,1/2-z
-x,1/2+y,1/2-z
1/2+y,1/2+x,1/2-z
-y,-x,1/2-z
-x,-y,-z
1/2+y,-x,-z
1/2+x,1/2+y,-z
-y,1/2+x,-z
1/2-x,y,1/2+z
x,1/2-y,1/2+z
1/2-y,1/2-x,1/2+z
y,x,1/2+z
loop_
_atom_site_type_symbol
_atom_site_label
_atom_site_fract_x
_atom_site_fract_y
_atom_site_fract_z
Si Si1 0.437914 0.052052 0.573208
Si Si2 0.625341 0.991962 0.649465
Si Si3 0.750000 0.750000 0.118405
Si Si4 0.281231 0.436332 0.155494
Si Si5 0.922161 0.158786 0.991610
Si Si6 0.853625 0.409934 0.196821
O O1 0.312567 0.074191 0.600064
O O2 0.470461 0.126781 0.527006
O O3 0.543617 0.062325 0.611744
O O4 0.439616 0.913339 0.556168
O O5 0.700494 0.889882 0.622351
O O6 0.535354 0.922461 0.684988
O O7 0.719550 0.071141 0.678536
O O8 0.158232 0.381600 0.174251
O O9 0.311947 0.570232 0.168464
O O10 0.799501 0.101502 0.012944
O O11 0.870806 0.370806 0.250000
#
# Coordination Sequence:
#
# PCOD9565737 Si02
#       6
#    16  16   4  16  16  16
#     4  10  21  39  61  88 127 165 214 259 324 383
#     4   9  20  38  60  90 122 168 207 268 312 389
#     4   8  16  32  56  88 108 156 214 252 304 356
#     4  10  22  40  63  88 118 163 211 261 317 388
#     4  10  22  37  59  91 127 168 208 271 322 388
#     4  10  22  38  63  90 129 161 216 264 325 376
#
# _framework density 23.745048000000001
#
# number of rings (size 3 to 8) (size 9 to 14) (size 15 to 20)
#    0.000    2.286    0.000    1.143   10.667    0.000 
#    0.000    2.857    0.000    2.286    0.000    0.000 
#    0.000    0.000    0.000    0.000    0.000    0.000 
#
# Total GULP energy -468115.309996 kJ/mol
# GULP energy per Si atom -5572.801309 kJ/mol
# Density = 2.369100 g / cm^3
# Si number density = 23.745048 Si / 1000 Ang^3
#
#
#
# Elastic Constant Matrix: (Units=GPa)
#
#
# Indices 1 2 3 4 5 6 
#
# 1 81.8409 18.1791 6.4326 0.0000 0.0000 0.0000
# 2 18.1791 81.8409 6.4326 0.0000 0.0000 0.0000
# 3 6.4326 6.4326 58.8515 0.0000 0.0000 0.0000
# 4 0.0000 0.0000 0.0000 30.9193 0.0000 0.0000
# 5 0.0000 0.0000 0.0000 0.0000 30.9193 0.0000
# 6 0.0000 0.0000 0.0000 0.0000 0.0000 52.8550
#
#
#
# Elastic Compliance Matrix: (Units=1/GPa)
#
#
# Indices 1 2 3 4 5 6 
#
# 1 0.012924 -0.002784 -0.001108 0.000000 0.000000 0.000000
# 2 -0.002784 0.012924 -0.001108 0.000000 0.000000 0.000000
# 3 -0.001108 -0.001108 0.017234 0.000000 0.000000 0.000000
# 4 0.000000 0.000000 0.000000 0.032342 0.000000 0.000000
# 5 0.000000 0.000000 0.000000 0.000000 0.032342 0.000000
# 6 0.000000 0.000000 0.000000 0.000000 0.000000 0.018920
#
#
# Mechanical properties :
#
#
# Convention : Reuss Voigt Hill
#
# Bulk Modulus (GPa) = 30.22809 31.62465 30.92637
# Shear Modulus (GPa) = 33.84893 35.70468 34.77680
#
# Velocity S-wave (km/s) = 3.77970 3.88192 3.83115
# Velocity P-wave (km/s) = 5.63968 5.78271 5.71165
#
# Compressibility (1/GPa) = 0.03308181
#
# Stress axis : x y z
#
# Youngs Moduli (GPa) = 77.37368 77.37368 58.02413
#
# Poissons Ratio (x) = 0.21539 0.06431
# Poissons Ratio (y) = 0.21539 0.06431
# Poissons Ratio (z) = 0.08576 0.08576
#
# Static dielectric constant tensor:
#      x y z
#    x 1.935050 0.000000 0.000000 
#    y 0.000000 1.935050 0.000000 
#    z 0.000000 0.000000 1.903790 
# 
# From -- ./inp_files/4860.got.cif
#   From: 2010.05.17/outbox.cif.g08.bks.cpg/sg130_3_cif.got.tgz:4860.got - 2010.05.20 12:17:35.
