data_PCOD9565234
_publ_section_title
;
Structure prediction by ZEFSAII (Michael W. Deem and Ramdas Pophale) SiO2 
 PCOD9565234
Probable space group: P 4/N M M
;
_chemical_formula_sum "Si O2"
_cell_formula_units_Z 128
_cell_length_a 22.076055
_cell_length_b 22.076055
_cell_length_c 16.602168
_cell_angle_alpha 90.000000
_cell_angle_beta 90.000000
_cell_angle_gamma 90.000000
_cell_volume 8091.103172
_symmetry_space_group_name_H-M "P 4/N M M"
_symmetry_group_IT_number 129
_symmetry_cell_setting 'tetragonal'
loop_
_space_group_symop_operation_xyz
x,y,z
1/2-y,x,z
1/2-x,1/2-y,z
y,1/2-x,z
1/2+x,-y,-z
-x,1/2+y,-z
1/2+y,1/2+x,-z
-y,-x,-z
-x,-y,-z
1/2+y,-x,-z
1/2+x,1/2+y,-z
-y,1/2+x,-z
1/2-x,y,z
x,1/2-y,z
1/2-y,1/2-x,z
y,x,z
loop_
_atom_site_type_symbol
_atom_site_label
_atom_site_fract_x
_atom_site_fract_y
_atom_site_fract_z
Si Si1 0.920161 0.822007 0.239654
Si Si2 0.102043 0.678575 0.060555
Si Si3 0.897374 0.506241 0.106393
Si Si4 0.531802 0.062845 0.244630
Si Si5 0.678007 0.077886 0.501418
Si Si6 0.318511 0.680334 0.780001
Si Si7 0.818215 0.062231 0.687547
Si Si8 0.608587 0.509436 0.377757
O O1 0.917880 0.750000 0.234430
O O2 0.855006 0.855006 0.239703
O O3 0.957402 0.851800 0.165543
O O4 0.954619 0.844619 0.320205
O O5 0.093362 0.750000 0.047641
O O6 0.131518 0.671063 0.149733
O O7 0.039222 0.641935 0.052891
O O8 0.150433 0.650433 0.000000
O O9 0.944289 0.555712 0.070343
O O10 0.937088 0.462698 0.164358
O O11 0.529925 0.133693 0.256321
O O12 0.466477 0.033524 0.250142
O O13 0.571533 0.035078 0.318037
O O14 0.641210 0.141210 0.500000
O O15 0.750000 0.083946 0.483125
O O16 0.672544 0.053746 0.592987
O O17 0.643782 0.030742 0.442750
O O18 0.250000 0.672729 0.750637
O O19 0.323992 0.750000 0.811366
O O20 0.366822 0.673601 0.709530
O O21 0.750000 0.045348 0.708114
O O22 0.559168 0.559168 0.408569
#
# Coordination Sequence:
#
# PCOD9565234 Si02
#       8
#    16  16  16  16  16  16  16  16
#     4   9  17  30  49  72  97 125 159 199 241 289
#     4  11  21  32  50  74  98 125 159 196 234 274
#     4   9  18  32  49  70  95 125 161 194 232 280
#     4   9  16  30  50  70  87 112 155 198 233 278
#     4  11  22  32  43  62  90 123 161 200 238 284
#     4   9  18  32  47  62  87 123 159 194 231 275
#     4  10  19  31  44  63  88 118 156 193 234 283
#     4   9  18  32  49  67  88 118 158 201 247 289
#
# _framework density 15.819846
#
# number of rings (size 3 to 8) (size 9 to 14) (size 15 to 20)
#    0.000    2.375    2.500    2.625    0.000    2.375 
#    0.000    1.250    0.000    0.000    0.000    0.000 
#    0.000    0.250    0.000    2.750    0.000    1.875 
#
# Total GULP energy -713243.661866 kJ/mol
# GULP energy per Si atom -5572.216108 kJ/mol
# Density = 1.578384 g / cm^3
# Si number density = 15.819846 Si / 1000 Ang^3
#
#
#
# Elastic Constant Matrix: (Units=GPa)
#
#
# Indices 1 2 3 4 5 6 
#
# 1 66.5851 16.1354 -1.1785 0.0000 0.0000 0.0000
# 2 16.1354 66.5851 -1.1785 0.0000 0.0000 0.0000
# 3 -1.1785 -1.1785 11.7837 0.0000 0.0000 0.0000
# 4 0.0000 0.0000 0.0000 19.7070 0.0000 0.0000
# 5 0.0000 0.0000 0.0000 0.0000 19.7070 0.0000
# 6 0.0000 0.0000 0.0000 0.0000 0.0000 22.0645
#
#
#
# Elastic Compliance Matrix: (Units=1/GPa)
#
#
# Indices 1 2 3 4 5 6 
#
# 1 0.015973 -0.003849 0.001212 0.000000 0.000000 0.000000
# 2 -0.003849 0.015973 0.001212 0.000000 0.000000 0.000000
# 3 0.001212 0.001212 0.085106 0.000000 0.000000 0.000000
# 4 0.000000 0.000000 0.000000 0.050743 0.000000 0.000000
# 5 0.000000 0.000000 0.000000 0.000000 0.050743 0.000000
# 6 0.000000 0.000000 0.000000 0.000000 0.000000 0.045322
#
#
# Mechanical properties :
#
#
# Convention : Reuss Voigt Hill
#
# Bulk Modulus (GPa) = 8.75639 19.16788 13.96213
# Shear Modulus (GPa) = 16.40553 21.04072 18.72312
#
# Velocity S-wave (km/s) = 3.22378 3.65090 3.44397
# Velocity P-wave (km/s) = 4.40500 5.46944 4.96582
#
# Compressibility (1/GPa) = 0.11420237
#
# Stress axis : x y z
#
# Youngs Moduli (GPa) = 62.60726 62.60726 11.75009
#
# Poissons Ratio (x) = 0.24098 -0.01425
# Poissons Ratio (y) = 0.24098 -0.01425
# Poissons Ratio (z) = -0.07591 -0.07591
#
# Static dielectric constant tensor:
#      x y z
#    x 1.536560 0.000000 0.000000 
#    y 0.000000 1.536560 0.000000 
#    z 0.000000 0.000000 1.538730 
# 
# From -- ./inp_files/6137.got.cif
#   From: 2010.05.17/outbox.cif.g08.bks.cpg/sg129_4_cif.got.tgz:6137.got - 2010.05.20 12:12:06.
