data_PCOD9565527
_publ_section_title
;
Structure prediction by ZEFSAII (Michael W. Deem and Ramdas Pophale) SiO2 
 PCOD9565527
Probable space group: P 4/N M M
;
_chemical_formula_sum "Si O2"
_cell_formula_units_Z 96
_cell_length_a 24.000000
_cell_length_b 24.000000
_cell_length_c 9.000000
_cell_angle_alpha 90.000000
_cell_angle_beta 90.000000
_cell_angle_gamma 90.000000
_cell_volume 5184.000000
_symmetry_space_group_name_H-M "P 4/N M M"
_symmetry_group_IT_number 129
_symmetry_cell_setting 'tetragonal'
loop_
_space_group_symop_operation_xyz
x,y,z
1/2-y,x,z
1/2-x,1/2-y,z
y,1/2-x,z
1/2+x,-y,-z
-x,1/2+y,-z
1/2+y,1/2+x,-z
-y,-x,-z
-x,-y,-z
1/2+y,-x,-z
1/2+x,1/2+y,-z
-y,1/2+x,-z
1/2-x,y,z
x,1/2-y,z
1/2-y,1/2-x,z
y,x,z
loop_
_atom_site_type_symbol
_atom_site_label
_atom_site_fract_x
_atom_site_fract_y
_atom_site_fract_z
Si Si1 0.909194 0.684355 0.484902
Si Si2 0.187520 0.687173 0.822636
Si Si3 0.012865 0.398511 0.339331
Si Si4 0.103689 0.879764 0.350193
Si Si5 0.684879 0.999181 0.241372
Si Si6 0.090663 0.498466 0.995751
O O1 0.900618 0.750000 0.520051
O O2 0.853390 0.646611 0.488916
O O3 0.954665 0.653933 0.590943
O O4 0.940033 0.681579 0.325155
O O5 0.250000 0.670542 0.770963
O O6 0.175864 0.750000 0.768597
O O7 0.140913 0.643148 0.779826
O O8 0.189620 0.689620 0.000000
O O9 0.046594 0.453406 0.393646
O O10 0.946431 0.403262 0.360036
O O11 0.018679 0.396225 0.162497
O O12 0.135805 0.864196 0.500000
O O13 0.046286 0.846226 0.338693
O O14 0.750000 0.012637 0.218785
O O15 0.647083 0.999614 0.095637
O O16 0.046399 0.453602 0.930145
O O17 0.056749 0.556749 0.000000
#
# Coordination Sequence:
#
# PCOD9565527 Si02
#       6
#    16  16  16  16  16  16
#     4  10  22  41  63  88 119 152 189 235 290 352
#     4   9  21  41  60  78 106 150 201 247 287 330
#     4  10  22  38  58  85 117 151 190 235 286 344
#     4  12  23  36  55  83 115 153 196 236 288 344
#     4  11  23  37  55  86 122 154 193 241 291 342
#     4  10  20  36  60  86 114 152 198 239 289 353
#
# _framework density 18.518519000000001
#
# number of rings (size 3 to 8) (size 9 to 14) (size 15 to 20)
#    0.000    1.667    3.333    1.500    2.333    3.833 
#    0.000    0.833    0.000    0.000    0.000    0.000 
#    0.000    4.000    0.000    0.000    0.000    0.000 
#
# Total GULP energy -535088.856105 kJ/mol
# GULP energy per Si atom -5573.842251 kJ/mol
# Density = 1.847637 g / cm^3
# Si number density = 18.518519 Si / 1000 Ang^3
#
#
#
# Elastic Constant Matrix: (Units=GPa)
#
#
# Indices 1 2 3 4 5 6 
#
# 1 151.5264 78.2331 33.6345 0.0000 0.0000 0.0000
# 2 78.2331 151.5268 33.6346 0.0000 0.0000 0.0000
# 3 33.6345 33.6346 59.2443 0.0000 0.0000 0.0000
# 4 0.0000 0.0000 0.0000 20.5598 0.0000 0.0000
# 5 0.0000 0.0000 0.0000 0.0000 20.5599 0.0000
# 6 0.0000 0.0000 0.0000 0.0000 0.0000 23.0759
#
#
#
# Elastic Compliance Matrix: (Units=1/GPa)
#
#
# Indices 1 2 3 4 5 6 
#
# 1 0.009432 -0.004212 -0.002964 0.000000 0.000000 0.000000
# 2 -0.004212 0.009432 -0.002964 0.000000 0.000000 0.000000
# 3 -0.002964 -0.002964 0.020244 0.000000 0.000000 0.000000
# 4 0.000000 0.000000 0.000000 0.048639 0.000000 0.000000
# 5 0.000000 0.000000 0.000000 0.000000 0.048638 0.000000
# 6 0.000000 0.000000 0.000000 0.000000 0.000000 0.043335
#
#
# Mechanical properties :
#
#
# Convention : Reuss Voigt Hill
#
# Bulk Modulus (GPa) = 53.10645 72.58912 62.84778
# Shear Modulus (GPa) = 24.23949 27.29213 25.76581
#
# Velocity S-wave (km/s) = 3.62184 3.84314 3.73413
# Velocity P-wave (km/s) = 6.79927 7.67960 7.25280
#
# Compressibility (1/GPa) = 0.01883010
#
# Stress axis : x y z
#
# Youngs Moduli (GPa) = 106.02298 106.02319 49.39672
#
# Poissons Ratio (x) = 0.44656 0.14639
# Poissons Ratio (y) = 0.44655 0.14639
# Poissons Ratio (z) = 0.31420 0.31421
#
# Static dielectric constant tensor:
#      x y z
#    x 1.676040 0.000000 0.000000 
#    y 0.000000 1.676070 0.000000 
#    z 0.000000 0.000000 1.717330 
# 
# From -- ./inp_files/2596.got.cif
#   From: 2010.05.17/outbox.ucp.g08.bks.cvg/sg129_2_cif.got.tgz:2596.got - 2010.06.11 11:38:03.
