data_PCOD9565598
_publ_section_title
;
Structure prediction by ZEFSAII (Michael W. Deem and Ramdas Pophale) SiO2 
 PCOD9565598
Probable space group: P 4/N C C
;
_chemical_formula_sum "Si O2"
_cell_formula_units_Z 64
_cell_length_a 13.426368
_cell_length_b 13.426368
_cell_length_c 18.164471
_cell_angle_alpha 90.000000
_cell_angle_beta 90.000000
_cell_angle_gamma 90.000000
_cell_volume 3274.461191
_symmetry_space_group_name_H-M "P 4/N C C"
_symmetry_group_IT_number 130
_symmetry_cell_setting 'tetragonal'
loop_
_space_group_symop_operation_xyz
x,y,z
1/2-y,x,z
1/2-x,1/2-y,z
y,1/2-x,z
1/2+x,-y,1/2-z
-x,1/2+y,1/2-z
1/2+y,1/2+x,1/2-z
-y,-x,1/2-z
-x,-y,-z
1/2+y,-x,-z
1/2+x,1/2+y,-z
-y,1/2+x,-z
1/2-x,y,1/2+z
x,1/2-y,1/2+z
1/2-y,1/2-x,1/2+z
y,x,1/2+z
loop_
_atom_site_type_symbol
_atom_site_label
_atom_site_fract_x
_atom_site_fract_y
_atom_site_fract_z
Si Si1 0.024442 0.528696 0.083367
Si Si2 0.630091 0.512233 0.699356
Si Si3 0.652064 0.875212 0.342119
Si Si4 0.195800 0.857550 0.833216
O O1 0.052948 0.422780 0.118050
O O2 0.107433 0.611271 0.108070
O O3 0.926447 0.556738 0.129438
O O4 0.000000 0.500000 0.000000
O O5 0.560245 0.439756 0.750000
O O6 0.898934 0.652670 0.755556
O O7 0.721133 0.443531 0.673382
O O8 0.615357 0.766106 0.363220
O O9 0.250000 0.750000 0.848020
O O10 0.150207 0.849794 0.750000
#
# Coordination Sequence:
#
# PCOD9565598 Si02
#       4
#    16  16  16  16
#     4  11  25  39  58  93 139 174 210 264 345 412
#     4  10  19  38  63  91 122 162 221 279 327 380
#     4  10  21  38  66  89 118 164 219 270 325 394
#     4  11  21  40  69  97 127 170 234 290 326 390
#
# _framework density 19.545200999999999
#
# number of rings (size 3 to 8) (size 9 to 14) (size 15 to 20)
#    0.000    1.500    2.500    5.250    3.500    2.000 
#    0.000    0.000    0.000    3.000    0.000    0.000 
#    0.000    0.000    0.000    0.000    0.000    0.000 
#
# Total GULP energy -356516.377494 kJ/mol
# GULP energy per Si atom -5570.568398 kJ/mol
# Density = 1.950071 g / cm^3
# Si number density = 19.545201 Si / 1000 Ang^3
#
#
#
# Elastic Constant Matrix: (Units=GPa)
#
#
# Indices 1 2 3 4 5 6 
#
# 1 89.7279 -3.6777 33.6404 0.0000 0.0000 0.0000
# 2 -3.6777 89.7255 33.6395 0.0000 0.0000 0.0000
# 3 33.6404 33.6395 123.9905 0.0000 0.0000 0.0000
# 4 0.0000 0.0000 0.0000 13.0476 0.0000 0.0000
# 5 0.0000 0.0000 0.0000 0.0000 13.0473 0.0000
# 6 0.0000 0.0000 0.0000 0.0000 0.0000 43.2290
#
#
#
# Elastic Compliance Matrix: (Units=1/GPa)
#
#
# Indices 1 2 3 4 5 6 
#
# 1 0.012728 0.002022 -0.004002 0.000000 0.000000 0.000000
# 2 0.002022 0.012728 -0.004002 0.000000 0.000000 0.000000
# 3 -0.004002 -0.004002 0.010237 0.000000 0.000000 0.000000
# 4 0.000000 0.000000 0.000000 0.076642 0.000000 0.000000
# 5 0.000000 0.000000 0.000000 0.000000 0.076644 0.000000
# 6 0.000000 0.000000 0.000000 0.000000 0.000000 0.023133
#
#
# Mechanical properties :
#
#
# Convention : Reuss Voigt Hill
#
# Bulk Modulus (GPa) = 42.14144 47.84979 44.99562
# Shear Modulus (GPa) = 21.55309 29.85425 25.70367
#
# Velocity S-wave (km/s) = 3.32434 3.91250 3.63035
# Velocity P-wave (km/s) = 6.02850 6.70410 6.37525
#
# Compressibility (1/GPa) = 0.02372961
#
# Stress axis : x y z
#
# Youngs Moduli (GPa) = 78.56655 78.56468 97.68823
#
# Poissons Ratio (x) = -0.15886 0.39094
# Poissons Ratio (y) = -0.15887 0.39094
# Poissons Ratio (z) = 0.31442 0.31441
#
# Static dielectric constant tensor:
#      x y z
#    x 2.110580 0.000000 0.000000 
#    y 0.000000 2.111950 0.000000 
#    z 0.000000 0.000000 1.713190 
# 
# From -- ./inp_files/2839.got.cif
#   From: 2010.05.17/outbox.cif.g08.bks.cpg/sg130_2_cif.got.tgz:2839.got - 2010.05.20 12:17:35.
