data_PCOD9565691
_publ_section_title
;
Structure prediction by ZEFSAII (Michael W. Deem and Ramdas Pophale) SiO2 
 PCOD9565691
Probable space group: P 4/N C C
;
_chemical_formula_sum "Si O2"
_cell_formula_units_Z 112
_cell_length_a 16.973909
_cell_length_b 16.973909
_cell_length_c 19.169218
_cell_angle_alpha 90.000000
_cell_angle_beta 90.000000
_cell_angle_gamma 90.000000
_cell_volume 5522.912153
_symmetry_space_group_name_H-M "P 4/N C C"
_symmetry_group_IT_number 130
_symmetry_cell_setting 'tetragonal'
loop_
_space_group_symop_operation_xyz
x,y,z
1/2-y,x,z
1/2-x,1/2-y,z
y,1/2-x,z
1/2+x,-y,1/2-z
-x,1/2+y,1/2-z
1/2+y,1/2+x,1/2-z
-y,-x,1/2-z
-x,-y,-z
1/2+y,-x,-z
1/2+x,1/2+y,-z
-y,1/2+x,-z
1/2-x,y,1/2+z
x,1/2-y,1/2+z
1/2-y,1/2-x,1/2+z
y,x,1/2+z
loop_
_atom_site_type_symbol
_atom_site_label
_atom_site_fract_x
_atom_site_fract_y
_atom_site_fract_z
Si Si1 0.075313 0.697140 0.217364
Si Si2 0.241102 0.123976 0.556156
Si Si3 0.763489 0.875150 0.611871
Si Si4 0.806181 0.132278 0.490395
Si Si5 0.835874 0.462455 0.128912
Si Si6 0.479764 0.677585 0.867568
Si Si7 0.993600 0.032848 0.330461
O O1 0.152042 0.652042 0.250000
O O2 0.092648 0.780613 0.179050
O O3 0.026340 0.708673 0.288938
O O4 0.028683 0.627532 0.173138
O O5 0.320067 0.168697 0.577282
O O6 0.239163 0.120642 0.472290
O O7 0.229808 0.040718 0.590064
O O8 0.683087 0.833826 0.633678
O O9 0.782277 0.960334 0.637621
O O10 0.714076 0.148475 0.501429
O O11 0.833946 0.073091 0.551230
O O12 0.818174 0.099415 0.412975
O O13 0.924465 0.495908 0.142126
O O14 0.502589 0.584935 0.866148
O O15 0.991127 0.008874 0.250000
#
# Coordination Sequence:
#
# PCOD9565691 Si02
#       7
#    16  16  16  16  16  16  16
#     4   9  21  40  62  84 123 162 198 249 313 371
#     4   9  18  33  54  84 120 154 190 233 300 384
#     4   9  18  33  54  87 122 151 191 243 303 377
#     4  11  25  41  58  86 120 157 212 262 302 369
#     4  12  21  38  65  89 117 161 204 255 314 359
#     4  10  20  41  61  85 123 162 194 256 321 357
#     4   9  22  40  58  90 121 150 207 257 294 373
#
# _framework density 20.279156
#
# number of rings (size 3 to 8) (size 9 to 14) (size 15 to 20)
#    0.000    2.429    1.429    3.429    0.000    5.143 
#    0.000    0.000    0.000    6.857    0.000    0.000 
#    0.000    0.000    0.000    0.000    0.000    0.000 
#
# Total GULP energy -623649.178688 kJ/mol
# GULP energy per Si atom -5568.296238 kJ/mol
# Density = 2.023300 g / cm^3
# Si number density = 20.279156 Si / 1000 Ang^3
#
#
#
# Elastic Constant Matrix: (Units=GPa)
#
#
# Indices 1 2 3 4 5 6 
#
# 1 2.9413 12.2674 -1.3433 0.0000 0.0000 0.0000
# 2 12.2674 2.9416 -1.3438 0.0000 0.0000 0.0000
# 3 -1.3433 -1.3438 22.9912 0.0000 0.0000 0.0000
# 4 0.0000 0.0000 0.0000 13.4039 0.0000 0.0000
# 5 0.0000 0.0000 0.0000 0.0000 13.4042 0.0000
# 6 0.0000 0.0000 0.0000 0.0000 0.0000 7.6338
#
#
#
# Elastic Compliance Matrix: (Units=1/GPa)
#
#
# Indices 1 2 3 4 5 6 
#
# 1 -0.020396 0.086833 0.003884 0.000000 0.000000 0.000000
# 2 0.086833 -0.020395 0.003881 0.000000 0.000000 0.000000
# 3 0.003884 0.003881 0.043949 0.000000 0.000000 0.000000
# 4 0.000000 0.000000 0.000000 0.074605 0.000000 0.000000
# 5 0.000000 0.000000 0.000000 0.000000 0.074604 0.000000
# 6 0.000000 0.000000 0.000000 0.000000 0.000000 0.130996
#
#
# Mechanical properties :
#
#
# Convention : Reuss Voigt Hill
#
# Bulk Modulus (GPa) = 5.19879 5.33719 5.26799
# Shear Modulus (GPa) = 31.58857 8.17463 19.88160
#
# Velocity S-wave (km/s) = 3.95104 2.00993 3.13452
# Velocity P-wave (km/s) = 4.83564 2.83266 3.96279
#
# Compressibility (1/GPa) = 0.19235257
#
# Stress axis : x y z
#
# Youngs Moduli (GPa) = -49.02830 -49.03235 22.75379
#
# Poissons Ratio (x) = 4.25761 -0.08837
# Poissons Ratio (y) = 4.25726 -0.08831
# Poissons Ratio (z) = 0.19040 0.19030
#
# Static dielectric constant tensor:
#      x y z
#    x 1.757610 0.000000 0.000000 
#    y 0.000000 1.757610 0.000000 
#    z 0.000000 0.000000 1.717820 
# 
# From -- ./inp_files/3947.got.cif
#   From: 2010.05.17/outbox.cif.g08.bks.cpg/sg130_2_cif.got.tgz:3947.got - 2010.05.20 12:17:35.
