data_PCOD9565334
_publ_section_title
;
Structure prediction by ZEFSAII (Michael W. Deem and Ramdas Pophale) SiO2 
 PCOD9565334
Probable space group: P 4/N M M
;
_chemical_formula_sum "Si O2"
_cell_formula_units_Z 96
_cell_length_a 19.139287
_cell_length_b 19.139287
_cell_length_c 16.219613
_cell_angle_alpha 90.000000
_cell_angle_beta 90.000000
_cell_angle_gamma 90.000000
_cell_volume 5941.443855
_symmetry_space_group_name_H-M "P 4/N M M"
_symmetry_group_IT_number 129
_symmetry_cell_setting 'tetragonal'
loop_
_space_group_symop_operation_xyz
x,y,z
1/2-y,x,z
1/2-x,1/2-y,z
y,1/2-x,z
1/2+x,-y,-z
-x,1/2+y,-z
1/2+y,1/2+x,-z
-y,-x,-z
-x,-y,-z
1/2+y,-x,-z
1/2+x,1/2+y,-z
-y,1/2+x,-z
1/2-x,y,z
x,1/2-y,z
1/2-y,1/2-x,z
y,x,z
loop_
_atom_site_type_symbol
_atom_site_label
_atom_site_fract_x
_atom_site_fract_y
_atom_site_fract_z
Si Si1 0.404067 0.834223 0.579690
Si Si2 0.832652 0.949514 0.149423
Si Si3 0.945757 0.668463 0.331925
Si Si4 0.831510 0.165623 0.250551
Si Si5 0.666839 0.949564 0.514373
Si Si6 0.903652 0.333648 0.921638
O O1 0.366484 0.866484 0.500000
O O2 0.396507 0.750000 0.573848
O O3 0.371696 0.856678 0.666894
O O4 0.486461 0.850100 0.574216
O O5 0.750000 0.930865 0.144687
O O6 0.883944 0.883944 0.136901
O O7 0.845760 0.978941 0.242887
O O8 0.846086 0.013688 0.088652
O O9 0.931208 0.750000 0.333103
O O10 0.874279 0.625722 0.331118
O O11 0.978462 0.652706 0.420905
O O12 0.750000 0.145979 0.261259
O O13 0.835583 0.250000 0.244969
O O14 0.855660 0.133553 0.163904
O O15 0.750000 0.933405 0.520290
O O16 0.617442 0.882559 0.526669
O O17 0.892633 0.250000 0.929481
O O18 0.871627 0.371627 0.000000
#
# Coordination Sequence:
#
# PCOD9565334 Si02
#       6
#    16  16  16  16  16  16
#     4  10  20  31  46  68  96 129 163 199 238 284
#     4   9  18  31  48  71  98 128 162 199 240 289
#     4   8  14  25  41  62  89 121 156 194 235 278
#     4   9  18  32  49  69  94 126 163 199 237 286
#     4   9  18  31  47  68  95 128 166 207 247 288
#     4  10  20  33  52  75  99 127 160 199 243 291
#
# _framework density 16.157689999999999
#
# number of rings (size 3 to 8) (size 9 to 14) (size 15 to 20)
#    0.000    2.833    0.000    1.000    2.333    2.833 
#    0.000    4.167    0.000    0.000    0.000    0.000 
#    0.000    0.000    0.000    8.667    0.000    0.333 
#
# Total GULP energy -534502.568434 kJ/mol
# GULP energy per Si atom -5567.735088 kJ/mol
# Density = 1.612091 g / cm^3
# Si number density = 16.157690 Si / 1000 Ang^3
#
#
#
# Elastic Constant Matrix: (Units=GPa)
#
#
# Indices 1 2 3 4 5 6 
#
# 1 66.9241 42.4096 59.8989 0.0000 0.0000 0.0000
# 2 42.4096 66.9241 59.8989 0.0000 0.0000 0.0000
# 3 59.8989 59.8989 122.5356 0.0000 0.0000 0.0000
# 4 0.0000 0.0000 0.0000 23.8240 0.0000 0.0000
# 5 0.0000 0.0000 0.0000 0.0000 23.8240 0.0000
# 6 0.0000 0.0000 0.0000 0.0000 0.0000 17.3637
#
#
#
# Elastic Compliance Matrix: (Units=1/GPa)
#
#
# Indices 1 2 3 4 5 6 
#
# 1 0.030244 -0.010548 -0.009628 0.000000 0.000000 0.000000
# 2 -0.010548 0.030244 -0.009628 0.000000 0.000000 0.000000
# 3 -0.009628 -0.009628 0.017573 0.000000 0.000000 0.000000
# 4 0.000000 0.000000 0.000000 0.041975 0.000000 0.000000
# 5 0.000000 0.000000 0.000000 0.000000 0.041975 0.000000
# 6 0.000000 0.000000 0.000000 0.000000 0.000000 0.057592
#
#
# Mechanical properties :
#
#
# Convention : Reuss Voigt Hill
#
# Bulk Modulus (GPa) = 54.18999 64.53318 59.36159
# Shear Modulus (GPa) = 17.52170 19.28075 18.40123
#
# Velocity S-wave (km/s) = 3.29662 3.45815 3.37835
# Velocity P-wave (km/s) = 6.93551 7.48140 7.21362
#
# Compressibility (1/GPa) = 0.01845359
#
# Stress axis : x y z
#
# Youngs Moduli (GPa) = 33.06462 33.06462 56.90394
#
# Poissons Ratio (x) = 0.34878 0.54785
# Poissons Ratio (y) = 0.34878 0.54785
# Poissons Ratio (z) = 0.31834 0.31834
#
# Static dielectric constant tensor:
#      x y z
#    x 1.548870 0.000000 0.000000 
#    y 0.000000 1.548870 0.000000 
#    z 0.000000 0.000000 1.556030 
# 
# From -- ./inp_files/4915.got.cif
#   From: 2010.05.17/outbox.cif.g08.bks.cpg/sg129_3_cif.got.tgz:4915.got - 2010.05.20 12:12:06.
