data_PCOD9565497
_publ_section_title
;
Structure prediction by ZEFSAII (Michael W. Deem and Ramdas Pophale) SiO2 
 PCOD9565497
Probable space group: P 4/N M M
;
_chemical_formula_sum "Si O2"
_cell_formula_units_Z 96
_cell_length_a 22.555589
_cell_length_b 22.555589
_cell_length_c 11.528529
_cell_angle_alpha 90.000000
_cell_angle_beta 90.000000
_cell_angle_gamma 90.000000
_cell_volume 5865.192104
_symmetry_space_group_name_H-M "P 4/N M M"
_symmetry_group_IT_number 129
_symmetry_cell_setting 'tetragonal'
loop_
_space_group_symop_operation_xyz
x,y,z
1/2-y,x,z
1/2-x,1/2-y,z
y,1/2-x,z
1/2+x,-y,-z
-x,1/2+y,-z
1/2+y,1/2+x,-z
-y,-x,-z
-x,-y,-z
1/2+y,-x,-z
1/2+x,1/2+y,-z
-y,1/2+x,-z
1/2-x,y,z
x,1/2-y,z
1/2-y,1/2-x,z
y,x,z
loop_
_atom_site_type_symbol
_atom_site_label
_atom_site_fract_x
_atom_site_fract_y
_atom_site_fract_z
Si Si1 0.319667 0.416260 0.619993
Si Si2 0.317440 0.016350 0.860903
Si Si3 0.678888 0.464133 0.496165
Si Si4 0.180907 0.891801 0.726535
Si Si5 0.002151 0.593237 0.939993
Si Si6 0.431304 0.820163 0.762950
O O1 0.250000 0.406188 0.596778
O O2 0.358612 0.358612 0.602257
O O3 0.324926 0.440013 0.751898
O O4 0.342685 0.471014 0.541850
O O5 0.250000 0.022598 0.904684
O O6 0.323148 0.949690 0.808888
O O7 0.365554 0.025018 0.959506
O O8 0.750000 0.466589 0.479243
O O9 0.660484 0.415557 0.400463
O O10 0.668731 0.450246 0.629633
O O11 0.250000 0.873828 0.721179
O O12 0.137021 0.841104 0.769696
O O13 0.030875 0.637137 0.846037
O O14 0.952362 0.547639 0.894025
O O15 0.052984 0.552984 0.000000
O O16 0.438041 0.750000 0.788540
#
# Coordination Sequence:
#
# PCOD9565497 Si02
#       6
#    16  16  16  16  16  16
#     4   9  17  30  51  76 101 131 166 209 264 320
#     4   9  17  33  54  72  96 132 170 206 251 301
#     4   8  17  32  49  70  97 132 167 202 244 296
#     4   9  17  32  53  74 101 133 165 203 249 299
#     4  11  22  35  50  70  99 132 172 215 251 291
#     4  11  21  34  52  75 104 133 169 211 253 299
#
# _framework density 16.367749
#
# number of rings (size 3 to 8) (size 9 to 14) (size 15 to 20)
#    0.000    2.500    1.667    3.500    0.000    1.167 
#    0.000    0.000    0.000    6.000    0.000    0.000 
#    0.000    3.000    0.000    0.667    0.000    0.000 
#
# Total GULP energy -534882.536020 kJ/mol
# GULP energy per Si atom -5571.693084 kJ/mol
# Density = 1.633050 g / cm^3
# Si number density = 16.367749 Si / 1000 Ang^3
#
#
#
# Elastic Constant Matrix: (Units=GPa)
#
#
# Indices 1 2 3 4 5 6 
#
# 1 91.6974 58.1932 34.1731 0.0000 0.0000 0.0000
# 2 58.1932 91.6974 34.1731 0.0000 0.0000 0.0000
# 3 34.1731 34.1731 37.8324 0.0000 0.0000 0.0000
# 4 0.0000 0.0000 0.0000 18.7396 0.0000 0.0000
# 5 0.0000 0.0000 0.0000 0.0000 18.7396 0.0000
# 6 0.0000 0.0000 0.0000 0.0000 0.0000 30.7052
#
#
#
# Elastic Compliance Matrix: (Units=1/GPa)
#
#
# Indices 1 2 3 4 5 6 
#
# 1 0.020595 -0.009252 -0.010246 0.000000 0.000000 0.000000
# 2 -0.009252 0.020595 -0.010246 0.000000 0.000000 0.000000
# 3 -0.010246 -0.010246 0.044943 0.000000 0.000000 0.000000
# 4 0.000000 0.000000 0.000000 0.053363 0.000000 0.000000
# 5 0.000000 0.000000 0.000000 0.000000 0.053363 0.000000
# 6 0.000000 0.000000 0.000000 0.000000 0.000000 0.032568
#
#
# Mechanical properties :
#
#
# Convention : Reuss Voigt Hill
#
# Bulk Modulus (GPa) = 37.53104 52.70066 45.11585
# Shear Modulus (GPa) = 17.01850 19.94940 18.48395
#
# Velocity S-wave (km/s) = 3.22803 3.49495 3.36414
# Velocity P-wave (km/s) = 6.07233 6.96807 6.53556
#
# Compressibility (1/GPa) = 0.02664461
#
# Stress axis : x y z
#
# Youngs Moduli (GPa) = 48.55469 48.55469 22.25042
#
# Poissons Ratio (x) = 0.44921 0.22799
# Poissons Ratio (y) = 0.44921 0.22799
# Poissons Ratio (z) = 0.49751 0.49751
#
# Static dielectric constant tensor:
#      x y z
#    x 1.548090 0.000000 0.000000 
#    y 0.000000 1.548090 0.000000 
#    z 0.000000 0.000000 1.556560 
# 
# From -- ./inp_files/3811.got.cif
#   From: 2010.05.17/outbox.cif.g08.bks.cpg/sg129_2_cif.got.tgz:3811.got - 2010.05.20 12:12:06.
