data_PCOD9565214
_publ_section_title
;
Structure prediction by ZEFSAII (Michael W. Deem and Ramdas Pophale) SiO2 
 PCOD9565214
Probable space group: P 4/N M M
;
_chemical_formula_sum "Si O2"
_cell_formula_units_Z 56
_cell_length_a 13.831142
_cell_length_b 13.831142
_cell_length_c 18.416453
_cell_angle_alpha 90.000000
_cell_angle_beta 90.000000
_cell_angle_gamma 90.000000
_cell_volume 3523.076465
_symmetry_space_group_name_H-M "P 4/N M M"
_symmetry_group_IT_number 129
_symmetry_cell_setting 'tetragonal'
loop_
_space_group_symop_operation_xyz
x,y,z
1/2-y,x,z
1/2-x,1/2-y,z
y,1/2-x,z
1/2+x,-y,-z
-x,1/2+y,-z
1/2+y,1/2+x,-z
-y,-x,-z
-x,-y,-z
1/2+y,-x,-z
1/2+x,1/2+y,-z
-y,1/2+x,-z
1/2-x,y,z
x,1/2-y,z
1/2-y,1/2-x,z
y,x,z
loop_
_atom_site_type_symbol
_atom_site_label
_atom_site_fract_x
_atom_site_fract_y
_atom_site_fract_z
Si Si1 0.860067 0.367096 0.290013
Si Si2 0.024765 0.865920 0.563572
Si Si3 0.022367 0.634308 0.852855
Si Si4 0.136005 0.636005 0.000000
O O1 0.750000 0.403200 0.295902
O O2 0.855298 0.250000 0.288582
O O3 0.924187 0.391503 0.359934
O O4 0.910829 0.396215 0.215017
O O5 0.094058 0.905943 0.500000
O O6 0.013608 0.750000 0.559043
O O7 0.924197 0.924197 0.558255
O O8 0.009473 0.750000 0.849113
O O9 0.075003 0.611421 0.928772
O O10 0.922417 0.577584 0.848470
O O11 0.122239 0.750000 0.015749
#
# Coordination Sequence:
#
# PCOD9565214 Si02
#       4
#    16  16  16   8
#     4   9  17  30  48  68  90 118 153 193 235 277
#     4  10  20  33  50  73 100 130 164 201 243 291
#     4  10  19  30  45  66  93 123 154 189 231 281
#     4   9  17  30  48  68  89 115 150 194 240 277
#
# _framework density 15.895199
#
# number of rings (size 3 to 8) (size 9 to 14) (size 15 to 20)
#    0.000    2.429    0.000    3.000    0.000    5.429 
#    0.000    0.000    0.000    5.143    0.000    0.000 
#    0.000   23.429    0.000    0.000    0.000    0.000 
#
# Total GULP energy -312145.280832 kJ/mol
# GULP energy per Si atom -5574.022872 kJ/mol
# Density = 1.585902 g / cm^3
# Si number density = 15.895199 Si / 1000 Ang^3
#
#
#
# Elastic Constant Matrix: (Units=GPa)
#
#
# Indices 1 2 3 4 5 6 
#
# 1 76.2652 52.4629 51.5708 0.0000 0.0000 0.0000
# 2 52.4629 76.2649 51.5716 0.0000 0.0000 0.0000
# 3 51.5708 51.5716 128.6352 0.0000 0.0000 0.0000
# 4 0.0000 0.0000 0.0000 17.5025 0.0000 0.0000
# 5 0.0000 0.0000 0.0000 0.0000 17.5024 0.0000
# 6 0.0000 0.0000 0.0000 0.0000 0.0000 18.8211
#
#
#
# Elastic Compliance Matrix: (Units=1/GPa)
#
#
# Indices 1 2 3 4 5 6 
#
# 1 0.026729 -0.015284 -0.004588 0.000000 0.000000 0.000000
# 2 -0.015284 0.026729 -0.004588 0.000000 0.000000 0.000000
# 3 -0.004588 -0.004588 0.011453 0.000000 0.000000 0.000000
# 4 0.000000 0.000000 0.000000 0.057135 0.000000 0.000000
# 5 0.000000 0.000000 0.000000 0.000000 0.057135 0.000000
# 6 0.000000 0.000000 0.000000 0.000000 0.000000 0.053132
#
#
# Mechanical properties :
#
#
# Convention : Reuss Voigt Hill
#
# Bulk Modulus (GPa) = 62.54269 65.81955 64.18112
# Shear Modulus (GPa) = 17.44817 19.13589 18.29203
#
# Velocity S-wave (km/s) = 3.31675 3.47346 3.39601
# Velocity P-wave (km/s) = 7.35528 7.58847 7.47278
#
# Compressibility (1/GPa) = 0.01598908
#
# Stress axis : x y z
#
# Youngs Moduli (GPa) = 37.41311 37.41249 87.31411
#
# Poissons Ratio (x) = 0.57182 0.40060
# Poissons Ratio (y) = 0.57183 0.40064
# Poissons Ratio (z) = 0.17165 0.17167
#
# Static dielectric constant tensor:
#      x y z
#    x 1.514820 0.000000 0.000000 
#    y 0.000000 1.514820 0.000000 
#    z 0.000000 0.000000 1.531690 
# 
# From -- ./inp_files/4409.got.cif
#   From: 2010.05.17/outbox.cif.g08.bks.cpg/sg129_3_cif.got.tgz:4409.got - 2010.05.20 12:12:06.
