data_PCOD9565838
_publ_section_title
;
Structure prediction by ZEFSAII (Michael W. Deem and Ramdas Pophale) SiO2 
 PCOD9565838
Probable space group: P 4/N C C
;
_chemical_formula_sum "Si O2"
_cell_formula_units_Z 96
_cell_length_a 23.002212
_cell_length_b 23.002212
_cell_length_c 9.276138
_cell_angle_alpha 90.000000
_cell_angle_beta 90.000000
_cell_angle_gamma 90.000000
_cell_volume 4908.020913
_symmetry_space_group_name_H-M "P 4/N C C"
_symmetry_group_IT_number 130
_symmetry_cell_setting 'tetragonal'
loop_
_space_group_symop_operation_xyz
x,y,z
1/2-y,x,z
1/2-x,1/2-y,z
y,1/2-x,z
1/2+x,-y,1/2-z
-x,1/2+y,1/2-z
1/2+y,1/2+x,1/2-z
-y,-x,1/2-z
-x,-y,-z
1/2+y,-x,-z
1/2+x,1/2+y,-z
-y,1/2+x,-z
1/2-x,y,1/2+z
x,1/2-y,1/2+z
1/2-y,1/2-x,1/2+z
y,x,1/2+z
loop_
_atom_site_type_symbol
_atom_site_label
_atom_site_fract_x
_atom_site_fract_y
_atom_site_fract_z
Si Si1 0.478866 0.828236 0.499140
Si Si2 0.548851 0.040633 0.577288
Si Si3 0.114057 0.145832 0.033563
Si Si4 0.181591 0.314935 0.280025
Si Si5 0.473249 0.336262 0.470984
Si Si6 0.006293 0.755951 0.265402
O O1 0.460190 0.893900 0.477881
O O2 0.549914 0.829533 0.486885
O O3 0.457688 0.786784 0.369514
O O4 0.463680 0.798680 0.650841
O O5 0.538602 0.038602 0.750000
O O6 0.500000 0.000000 0.500000
O O7 0.616219 0.023999 0.546139
O O8 0.137805 0.144835 0.194779
O O9 0.121132 0.081431 0.975050
O O10 0.162773 0.181130 0.945609
O O11 0.170966 0.248028 0.244641
O O12 0.472187 0.289444 0.340172
O O13 0.474980 0.298183 0.618197
#
# Coordination Sequence:
#
# PCOD9565838 Si02
#       6
#    16  16  16  16  16  16
#     4  11  24  42  64  91 129 163 220 259 330 391
#     4  12  26  44  64  98 138 171 215 272 336 423
#     4  12  24  34  60  82 108 164 200 268 320 368
#     4  11  26  40  50  73 110 156 222 273 310 344
#     4  11  24  42  64  91 129 163 220 259 330 391
#     4  10  24  40  62  90 123 171 212 266 308 388
#
# _framework density 19.559819000000001
#
# number of rings (size 3 to 8) (size 9 to 14) (size 15 to 20)
#    0.000    0.833    3.333    3.000   16.333    1.333 
#    0.000    0.000    0.000    0.000    0.000    0.000 
#    0.000   46.667    0.000    0.000    0.000    0.000 
#
# Total GULP energy -535580.250754 kJ/mol
# GULP energy per Si atom -5578.960945 kJ/mol
# Density = 1.951530 g / cm^3
# Si number density = 19.559819 Si / 1000 Ang^3
#
#
#
# Elastic Constant Matrix: (Units=GPa)
#
#
# Indices 1 2 3 4 5 6 
#
# 1 92.1912 39.6646 31.7685 0.0000 0.0000 0.0000
# 2 39.6646 92.1912 31.7685 0.0000 0.0000 0.0000
# 3 31.7685 31.7685 128.8523 0.0000 0.0000 0.0000
# 4 0.0000 0.0000 0.0000 18.3245 0.0000 0.0000
# 5 0.0000 0.0000 0.0000 0.0000 18.3245 0.0000
# 6 0.0000 0.0000 0.0000 0.0000 0.0000 18.6091
#
#
#
# Elastic Compliance Matrix: (Units=1/GPa)
#
#
# Indices 1 2 3 4 5 6 
#
# 1 0.013822 -0.005216 -0.002122 0.000000 0.000000 0.000000
# 2 -0.005216 0.013822 -0.002122 0.000000 0.000000 0.000000
# 3 -0.002122 -0.002122 0.008807 0.000000 0.000000 0.000000
# 4 0.000000 0.000000 0.000000 0.054572 0.000000 0.000000
# 5 0.000000 0.000000 0.000000 0.000000 0.054572 0.000000
# 6 0.000000 0.000000 0.000000 0.000000 0.000000 0.053737
#
#
# Mechanical properties :
#
#
# Convention : Reuss Voigt Hill
#
# Bulk Modulus (GPa) = 57.03704 57.73755 57.38729
# Shear Modulus (GPa) = 22.31190 25.05383 23.68287
#
# Velocity S-wave (km/s) = 3.38109 3.58282 3.48342
# Velocity P-wave (km/s) = 6.66828 6.83360 6.75144
#
# Compressibility (1/GPa) = 0.01753247
#
# Stress axis : x y z
#
# Youngs Moduli (GPa) = 72.34713 72.34713 113.54405
#
# Poissons Ratio (x) = 0.37734 0.24093
# Poissons Ratio (y) = 0.37734 0.24093
# Poissons Ratio (z) = 0.15352 0.15352
#
# Static dielectric constant tensor:
#      x y z
#    x 1.744050 0.000000 0.000000 
#    y 0.000000 1.744050 0.000000 
#    z 0.000000 0.000000 1.728000 
# 
# From -- ./inp_files/899.got.cif
#   From: 2010.05.17/outbox.cif.g08.bks.cpg/sg130_1_cif.got.tgz:899.got - 2010.05.20 12:17:35.
