data_PCOD9565647
_publ_section_title
;
Structure prediction by ZEFSAII (Michael W. Deem and Ramdas Pophale) SiO2 
 PCOD9565647
Probable space group: P 4/N C C
;
_chemical_formula_sum "Si O2"
_cell_formula_units_Z 44
_cell_length_a 7.807325
_cell_length_b 7.807325
_cell_length_c 32.860952
_cell_angle_alpha 90.000000
_cell_angle_beta 90.000000
_cell_angle_gamma 90.000000
_cell_volume 2003.017104
_symmetry_space_group_name_H-M "P 4/N C C"
_symmetry_group_IT_number 130
_symmetry_cell_setting 'tetragonal'
loop_
_space_group_symop_operation_xyz
x,y,z
1/2-y,x,z
1/2-x,1/2-y,z
y,1/2-x,z
1/2+x,-y,1/2-z
-x,1/2+y,1/2-z
1/2+y,1/2+x,1/2-z
-y,-x,1/2-z
-x,-y,-z
1/2+y,-x,-z
1/2+x,1/2+y,-z
-y,1/2+x,-z
1/2-x,y,1/2+z
x,1/2-y,1/2+z
1/2-y,1/2-x,1/2+z
y,x,1/2+z
loop_
_atom_site_type_symbol
_atom_site_label
_atom_site_fract_x
_atom_site_fract_y
_atom_site_fract_z
Si Si1 0.750000 0.250000 0.139429
Si Si2 0.250000 0.750000 0.500000
Si Si3 0.480983 0.649853 0.292601
Si Si4 0.151355 0.520765 0.429904
O O1 0.644119 0.126189 0.169301
O O2 0.629603 0.359815 0.109490
O O3 0.133710 0.634896 0.470274
O O4 0.652311 0.538159 0.294486
O O5 0.391248 0.608753 0.250000
O O6 0.038843 0.350777 0.429431
#
# Coordination Sequence:
#
# PCOD9565647 Si02
#       4
#     8   4  16  16
#     4  11  21  37  57  82 114 148 189 235 285 343
#     4  10  20  36  58  80 110 144 182 228 276 338
#     4  11  23  39  60  85 116 154 196 243 292 345
#     4  10  21  36  56  82 111 145 184 229 281 337
#
# _framework density 21.96686
#
# number of rings (size 3 to 8) (size 9 to 14) (size 15 to 20)
#    0.000    1.455    0.000    6.000    0.000    0.000 
#    0.000    3.636    0.000   17.455    0.000    0.000 
#    0.000    0.000    0.000    0.000    0.000    0.000 
#
# Total GULP energy -246148.069482 kJ/mol
# GULP energy per Si atom -5594.274306 kJ/mol
# Density = 2.191686 g / cm^3
# Si number density = 21.966860 Si / 1000 Ang^3
#
#
#
# Elastic Constant Matrix: (Units=GPa)
#
#
# Indices 1 2 3 4 5 6 
#
# 1 54.5217 -12.5388 20.4904 0.0000 0.0000 0.0000
# 2 -12.5388 54.5217 20.4905 0.0000 0.0000 0.0000
# 3 20.4904 20.4905 164.8002 0.0000 0.0000 0.0000
# 4 0.0000 0.0000 0.0000 22.6788 0.0000 0.0000
# 5 0.0000 0.0000 0.0000 0.0000 22.6786 0.0000
# 6 0.0000 0.0000 0.0000 0.0000 0.0000 30.8166
#
#
#
# Elastic Compliance Matrix: (Units=1/GPa)
#
#
# Indices 1 2 3 4 5 6 
#
# 1 0.021011 0.006099 -0.003371 0.000000 0.000000 0.000000
# 2 0.006099 0.021011 -0.003371 0.000000 0.000000 0.000000
# 3 -0.003371 -0.003371 0.006906 0.000000 0.000000 0.000000
# 4 0.000000 0.000000 0.000000 0.044094 0.000000 0.000000
# 5 0.000000 0.000000 0.000000 0.000000 0.044094 0.000000
# 6 0.000000 0.000000 0.000000 0.000000 0.000000 0.032450
#
#
# Mechanical properties :
#
#
# Convention : Reuss Voigt Hill
#
# Bulk Modulus (GPa) = 20.98969 36.74752 28.86861
# Shear Modulus (GPa) = 26.77635 31.59490 29.18562
#
# Velocity S-wave (km/s) = 3.49512 3.79660 3.64898
# Velocity P-wave (km/s) = 5.08564 5.99866 5.56092
#
# Compressibility (1/GPa) = 0.04764244
#
# Stress axis : x y z
#
# Youngs Moduli (GPa) = 47.59483 47.59483 144.79874
#
# Poissons Ratio (x) = -0.29027 0.48807
# Poissons Ratio (y) = -0.29027 0.48807
# Poissons Ratio (z) = 0.16043 0.16043
#
# Static dielectric constant tensor:
#      x y z
#    x 1.810560 0.000000 0.000000 
#    y 0.000000 1.810560 0.000000 
#    z 0.000000 0.000000 1.780240 
# 
# From -- ./inp_files/4672.got.cif
#   From: 2010.05.17/outbox.cif.g08.bks.cpg/sg130_3_cif.got.tgz:4672.got - 2010.05.20 12:17:35.
