data_PCOD9565132
_publ_section_title
;
Structure prediction by ZEFSAII (Michael W. Deem and Ramdas Pophale) SiO2 
 PCOD9565132
Probable space group: P 4/N M M
;
_chemical_formula_sum "Si O2"
_cell_formula_units_Z 128
_cell_length_a 22.358093
_cell_length_b 22.358093
_cell_length_c 14.288238
_cell_angle_alpha 90.000000
_cell_angle_beta 90.000000
_cell_angle_gamma 90.000000
_cell_volume 7142.466174
_symmetry_space_group_name_H-M "P 4/N M M"
_symmetry_group_IT_number 129
_symmetry_cell_setting 'tetragonal'
loop_
_space_group_symop_operation_xyz
x,y,z
1/2-y,x,z
1/2-x,1/2-y,z
y,1/2-x,z
1/2+x,-y,-z
-x,1/2+y,-z
1/2+y,1/2+x,-z
-y,-x,-z
-x,-y,-z
1/2+y,-x,-z
1/2+x,1/2+y,-z
-y,1/2+x,-z
1/2-x,y,z
x,1/2-y,z
1/2-y,1/2-x,z
y,x,z
loop_
_atom_site_type_symbol
_atom_site_label
_atom_site_fract_x
_atom_site_fract_y
_atom_site_fract_z
Si Si1 0.624941 0.526227 0.764364
Si Si2 0.921449 0.821381 0.950046
Si Si3 0.905185 0.111054 0.753117
Si Si4 0.181999 0.986270 0.891603
Si Si5 0.317154 0.994186 0.422857
Si Si6 0.411472 0.183086 0.733842
Si Si7 0.009398 0.395949 0.601661
Si Si8 0.683659 0.146785 0.606453
O O1 0.561532 0.561532 0.763259
O O2 0.664221 0.557017 0.844980
O O3 0.618570 0.454757 0.780925
O O4 0.657275 0.531223 0.664049
O O5 0.909917 0.750000 0.963394
O O6 0.864171 0.864171 0.970241
O O7 0.977973 0.838599 0.016279
O O8 0.935258 0.142094 0.843315
O O9 0.860720 0.155499 0.694823
O O10 0.955582 0.098457 0.674263
O O11 0.250000 0.964581 0.906913
O O12 0.184166 0.039119 0.814705
O O13 0.250000 0.013556 0.450783
O O14 0.312646 0.925064 0.393527
O O15 0.364692 0.992890 0.505779
O O16 0.394999 0.250000 0.708131
O O17 0.354954 0.145047 0.765465
O O18 0.443126 0.148812 0.649268
O O19 0.040977 0.459024 0.587121
O O20 0.664478 0.164478 0.500000
O O21 0.750000 0.171846 0.622488
#
# Coordination Sequence:
#
# PCOD9565132 Si02
#       8
#    16  16  16  16  16  16  16  16
#     4  10  21  34  51  77 109 141 181 227 272 327
#     4  10  21  38  59  84 113 145 182 227 275 325
#     4  10  20  35  53  80 109 146 179 217 274 333
#     4   9  19  35  55  76 103 137 178 224 273 332
#     4  10  19  32  50  70 100 141 177 214 264 320
#     4   9  17  28  43  67  96 129 169 213 261 318
#     4  10  18  29  49  73 100 133 174 220 262 314
#     4  10  20  34  50  73 104 139 179 220 263 313
#
# _framework density 17.920981000000001
#
# number of rings (size 3 to 8) (size 9 to 14) (size 15 to 20)
#    0.000    2.250    1.250    1.875    0.000    3.875 
#    0.000    3.125    0.000    2.250    0.000    0.000 
#    0.000   10.000    0.000    0.000    0.000    0.125 
#
# Total GULP energy -712887.424495 kJ/mol
# GULP energy per Si atom -5569.433004 kJ/mol
# Density = 1.788019 g / cm^3
# Si number density = 17.920981 Si / 1000 Ang^3
#
#
#
# Elastic Constant Matrix: (Units=GPa)
#
#
# Indices 1 2 3 4 5 6 
#
# 1 55.8548 17.8639 4.3360 0.0000 0.0000 0.0000
# 2 17.8639 55.8548 4.3360 0.0000 0.0000 0.0000
# 3 4.3360 4.3360 54.0648 0.0000 0.0000 0.0000
# 4 0.0000 0.0000 0.0000 15.9913 0.0000 0.0000
# 5 0.0000 0.0000 0.0000 0.0000 15.9913 0.0000
# 6 0.0000 0.0000 0.0000 0.0000 0.0000 -22.1790
#
#
#
# Elastic Compliance Matrix: (Units=1/GPa)
#
#
# Indices 1 2 3 4 5 6 
#
# 1 0.020008 -0.006314 -0.001098 0.000000 0.000000 0.000000
# 2 -0.006314 0.020008 -0.001098 0.000000 0.000000 0.000000
# 3 -0.001098 -0.001098 0.018672 0.000000 0.000000 0.000000
# 4 0.000000 0.000000 0.000000 0.062534 0.000000 0.000000
# 5 0.000000 0.000000 0.000000 0.000000 0.062534 0.000000
# 6 0.000000 0.000000 0.000000 0.000000 0.000000 -0.045088
#
#
# Mechanical properties :
#
#
# Convention : Reuss Voigt Hill
#
# Bulk Modulus (GPa) = 23.99929 24.31625 24.15777
# Shear Modulus (GPa) = 29.48469 11.24328 20.36398
#
# Velocity S-wave (km/s) = 4.06058 2.50747 3.37459
# Velocity P-wave (km/s) = 5.95023 4.68842 5.35661
#
# Compressibility (1/GPa) = 0.04166790
#
# Stress axis : x y z
#
# Youngs Moduli (GPa) = 49.97950 49.97950 53.55477
#
# Poissons Ratio (x) = 0.31557 0.05882
# Poissons Ratio (y) = 0.31557 0.05882
# Poissons Ratio (z) = 0.05489 0.05489
#
# Static dielectric constant tensor:
#      x y z
#    x 1.638510 0.000000 0.000000 
#    y 0.000000 1.638510 0.000000 
#    z 0.000000 0.000000 1.629720 
# 
# From -- ./inp_files/4236.got.cif
#   From: 2010.05.17/outbox.cif.g08.bks.cpg/sg129_3_cif.got.tgz:4236.got - 2010.05.20 12:12:06.
