data_PCOD9565603
_publ_section_title
;
Structure prediction by ZEFSAII (Michael W. Deem and Ramdas Pophale) SiO2 
 PCOD9565603
Probable space group: P 4/N C C
;
_chemical_formula_sum "Si O2"
_cell_formula_units_Z 112
_cell_length_a 14.700474
_cell_length_b 14.700474
_cell_length_c 26.371320
_cell_angle_alpha 90.000000
_cell_angle_beta 90.000000
_cell_angle_gamma 90.000000
_cell_volume 5698.946045
_symmetry_space_group_name_H-M "P 4/N C C"
_symmetry_group_IT_number 130
_symmetry_cell_setting 'tetragonal'
loop_
_space_group_symop_operation_xyz
x,y,z
1/2-y,x,z
1/2-x,1/2-y,z
y,1/2-x,z
1/2+x,-y,1/2-z
-x,1/2+y,1/2-z
1/2+y,1/2+x,1/2-z
-y,-x,1/2-z
-x,-y,-z
1/2+y,-x,-z
1/2+x,1/2+y,-z
-y,1/2+x,-z
1/2-x,y,1/2+z
x,1/2-y,1/2+z
1/2-y,1/2-x,1/2+z
y,x,1/2+z
loop_
_atom_site_type_symbol
_atom_site_label
_atom_site_fract_x
_atom_site_fract_y
_atom_site_fract_z
Si Si1 0.749165 0.900820 0.561092
Si Si2 0.551335 0.025448 0.191756
Si Si3 0.127731 0.863094 0.440175
Si Si4 0.466453 0.013248 0.091779
Si Si5 0.967652 0.196939 0.027420
Si Si6 0.843934 0.989620 0.145560
Si Si7 0.724530 0.146196 0.162832
O O1 0.661869 0.837055 0.555583
O O2 0.756543 0.974464 0.517166
O O3 0.739007 0.939787 0.617961
O O4 0.525093 0.025093 0.250000
O O5 0.472112 0.048869 0.150172
O O6 0.632928 0.098023 0.184354
O O7 0.568655 0.919397 0.175745
O O8 0.205639 0.858031 0.397981
O O9 0.059528 0.947671 0.430829
O O10 0.067482 0.773153 0.434463
O O11 0.159551 0.879744 0.497309
O O12 0.379967 0.025829 0.056235
O O13 0.473148 0.904973 0.098961
O O14 0.805545 0.076126 0.175348
O O15 0.750000 0.250000 0.176897
#
# Coordination Sequence:
#
# PCOD9565603 Si02
#       7
#    16  16  16  16  16  16  16
#     4  11  21  33  55  85 118 162 217 260 307 381
#     4   9  22  44  63  89 126 166 212 270 329 395
#     4  11  23  34  54  86 127 166 205 258 305 397
#     4   9  21  39  58  79 123 166 207 256 323 381
#     4  12  21  34  53  85 124 174 211 249 322 380
#     4  10  19  40  61  84 120 168 201 260 322 381
#     4  11  22  39  62  95 130 157 211 271 323 380
#
# _framework density 19.652757999999999
#
# number of rings (size 3 to 8) (size 9 to 14) (size 15 to 20)
#    0.857    0.714    1.429    4.714    2.000    0.286 
#    2.571    0.000    0.000    0.000    0.000    0.000 
#    0.000    8.000    0.000    0.000    0.000    0.000 
#
# Total GULP energy -623538.773667 kJ/mol
# GULP energy per Si atom -5567.310479 kJ/mol
# Density = 1.960803 g / cm^3
# Si number density = 19.652758 Si / 1000 Ang^3
#
#
#
# Elastic Constant Matrix: (Units=GPa)
#
#
# Indices 1 2 3 4 5 6 
#
# 1 80.0156 35.4193 23.6930 0.0000 0.0000 0.0000
# 2 35.4193 80.0156 23.6930 0.0000 0.0000 0.0000
# 3 23.6930 23.6930 89.0574 0.0000 0.0000 0.0000
# 4 0.0000 0.0000 0.0000 12.7151 0.0000 0.0000
# 5 0.0000 0.0000 0.0000 0.0000 12.7151 0.0000
# 6 0.0000 0.0000 0.0000 0.0000 0.0000 22.5685
#
#
#
# Elastic Compliance Matrix: (Units=1/GPa)
#
#
# Indices 1 2 3 4 5 6 
#
# 1 0.016074 -0.006349 -0.002587 0.000000 0.000000 0.000000
# 2 -0.006349 0.016074 -0.002587 0.000000 0.000000 0.000000
# 3 -0.002587 -0.002587 0.012605 0.000000 0.000000 0.000000
# 4 0.000000 0.000000 0.000000 0.078646 0.000000 0.000000
# 5 0.000000 0.000000 0.000000 0.000000 0.078646 0.000000
# 6 0.000000 0.000000 0.000000 0.000000 0.000000 0.044309
#
#
# Mechanical properties :
#
#
# Convention : Reuss Voigt Hill
#
# Bulk Modulus (GPa) = 46.06965 46.07771 46.07368
# Shear Modulus (GPa) = 18.07410 20.68531 19.37971
#
# Velocity S-wave (km/s) = 3.03590 3.24781 3.14364
# Velocity P-wave (km/s) = 5.98178 6.12872 6.05569
#
# Compressibility (1/GPa) = 0.02170626
#
# Stress axis : x y z
#
# Youngs Moduli (GPa) = 62.21159 62.21159 79.33142
#
# Poissons Ratio (x) = 0.39499 0.20525
# Poissons Ratio (y) = 0.39499 0.20525
# Poissons Ratio (z) = 0.16096 0.16096
#
# Static dielectric constant tensor:
#      x y z
#    x 1.743830 0.000000 0.000000 
#    y 0.000000 1.743830 0.000000 
#    z 0.000000 0.000000 1.703150 
# 
# From -- ./inp_files/4965.got.cif
#   From: 2010.05.17/outbox.cif.g08.bks.cpg/sg130_3_cif.got.tgz:4965.got - 2010.05.20 12:17:35.
