data_PCOD9565103
_publ_section_title
;
Structure prediction by ZEFSAII (Michael W. Deem and Ramdas Pophale) SiO2 
 PCOD9565103
Probable space group: P 4/N M M
;
_chemical_formula_sum "Si O2"
_cell_formula_units_Z 112
_cell_length_a 25.055313
_cell_length_b 25.055313
_cell_length_c 12.919178
_cell_angle_alpha 90.000000
_cell_angle_beta 90.000000
_cell_angle_gamma 90.000000
_cell_volume 8110.255701
_symmetry_space_group_name_H-M "P 4/N M M"
_symmetry_group_IT_number 129
_symmetry_cell_setting 'tetragonal'
loop_
_space_group_symop_operation_xyz
x,y,z
1/2-y,x,z
1/2-x,1/2-y,z
y,1/2-x,z
1/2+x,-y,-z
-x,1/2+y,-z
1/2+y,1/2+x,-z
-y,-x,-z
-x,-y,-z
1/2+y,-x,-z
1/2+x,1/2+y,-z
-y,1/2+x,-z
1/2-x,y,z
x,1/2-y,z
1/2-y,1/2-x,z
y,x,z
loop_
_atom_site_type_symbol
_atom_site_label
_atom_site_fract_x
_atom_site_fract_y
_atom_site_fract_z
Si Si1 0.580759 0.008403 0.073086
Si Si2 0.374830 0.033469 0.574844
Si Si3 0.900575 0.811884 0.817713
Si Si4 0.052842 0.961598 0.696773
Si Si5 0.810852 0.956337 0.037984
Si Si6 0.688178 0.900839 0.260830
Si Si7 0.624090 0.967798 0.659165
O O1 0.577379 0.029668 0.189933
O O2 0.547646 0.952355 0.069428
O O3 0.641005 0.998299 0.038272
O O4 0.548726 0.048726 0.000000
O O5 0.421637 0.078364 0.574880
O O6 0.332774 0.054522 0.658799
O O7 0.354344 0.030069 0.457870
O O8 0.403457 0.979250 0.612639
O O9 0.889490 0.750000 0.796209
O O10 0.849247 0.849247 0.801483
O O11 0.947506 0.833824 0.743317
O O12 0.919876 0.816859 0.936386
O O13 0.023538 0.905231 0.684213
O O14 0.005443 0.005443 0.687981
O O15 0.750000 0.977798 0.037073
O O16 0.817317 0.923107 0.144176
O O17 0.750000 0.888553 0.279603
O O18 0.650352 0.849649 0.272855
O O19 0.577377 0.922624 0.661184
#
# Coordination Sequence:
#
# PCOD9565103 Si02
#       7
#    16  16  16  16  16  16  16
#     4  10  17  25  42  66  91 114 140 178 220 266
#     4   9  16  27  42  59  81 106 135 171 211 260
#     4  10  20  32  45  59  78 107 144 186 225 259
#     4   9  15  24  40  62  84 105 130 163 207 261
#     4  10  19  31  45  61  86 116 145 178 220 271
#     4  10  19  30  44  60  81 113 151 191 228 259
#     4   9  17  28  42  61  82 104 133 170 215 263
#
# _framework density 13.809676
#
# number of rings (size 3 to 8) (size 9 to 14) (size 15 to 20)
#    0.000    2.429    1.429    2.571    0.000    4.857 
#    0.000    0.000    0.000    2.571    0.000    4.000 
#    0.000    0.286    0.000    0.000    0.000    0.857 
#
# Total GULP energy -623892.568425 kJ/mol
# GULP energy per Si atom -5570.469361 kJ/mol
# Density = 1.377824 g / cm^3
# Si number density = 13.809676 Si / 1000 Ang^3
#
#
#
# Elastic Constant Matrix: (Units=GPa)
#
#
# Indices 1 2 3 4 5 6 
#
# 1 63.6845 50.3141 36.4556 0.0000 0.0000 0.0000
# 2 50.3141 63.6845 36.4556 0.0000 0.0000 0.0000
# 3 36.4556 36.4556 70.5375 0.0000 0.0000 0.0000
# 4 0.0000 0.0000 0.0000 11.5961 0.0000 0.0000
# 5 0.0000 0.0000 0.0000 0.0000 11.5961 0.0000
# 6 0.0000 0.0000 0.0000 0.0000 0.0000 16.0310
#
#
#
# Elastic Compliance Matrix: (Units=1/GPa)
#
#
# Indices 1 2 3 4 5 6 
#
# 1 0.043948 -0.030844 -0.006772 0.000000 0.000000 0.000000
# 2 -0.030844 0.043948 -0.006772 0.000000 0.000000 0.000000
# 3 -0.006772 -0.006772 0.021177 0.000000 0.000000 0.000000
# 4 0.000000 0.000000 0.000000 0.086236 0.000000 0.000000
# 5 0.000000 0.000000 0.000000 0.000000 0.086236 0.000000
# 6 0.000000 0.000000 0.000000 0.000000 0.000000 0.062379
#
#
# Mechanical properties :
#
#
# Convention : Reuss Voigt Hill
#
# Bulk Modulus (GPa) = 49.27320 49.37303 49.32312
# Shear Modulus (GPa) = 11.37745 12.82338 12.10042
#
# Velocity S-wave (km/s) = 2.87344 3.05057 2.96333
# Velocity P-wave (km/s) = 6.83860 6.94536 6.89219
#
# Compressibility (1/GPa) = 0.02029501
#
# Stress axis : x y z
#
# Youngs Moduli (GPa) = 22.75422 22.75422 47.22117
#
# Poissons Ratio (x) = 0.70184 0.31979
# Poissons Ratio (y) = 0.70184 0.31979
# Poissons Ratio (z) = 0.15410 0.15410
#
# Static dielectric constant tensor:
#      x y z
#    x 1.440730 0.000000 0.000000 
#    y 0.000000 1.440730 0.000000 
#    z 0.000000 0.000000 1.473910 
# 
# From -- ./inp_files/4074.got.cif
#   From: 2010.05.17/outbox.cif.g08.bks.cpg/sg129_3_cif.got.tgz:4074.got - 2010.05.20 12:12:06.
