data_PCOD9565250
_publ_section_title
;
Structure prediction by ZEFSAII (Michael W. Deem and Ramdas Pophale) SiO2 
 PCOD9565250
Probable space group: P 4/N M M
;
_chemical_formula_sum "Si O2"
_cell_formula_units_Z 128
_cell_length_a 20.470513
_cell_length_b 20.470513
_cell_length_c 18.239564
_cell_angle_alpha 90.000000
_cell_angle_beta 90.000000
_cell_angle_gamma 90.000000
_cell_volume 7643.141599
_symmetry_space_group_name_H-M "P 4/N M M"
_symmetry_group_IT_number 129
_symmetry_cell_setting 'tetragonal'
loop_
_space_group_symop_operation_xyz
x,y,z
1/2-y,x,z
1/2-x,1/2-y,z
y,1/2-x,z
1/2+x,-y,-z
-x,1/2+y,-z
1/2+y,1/2+x,-z
-y,-x,-z
-x,-y,-z
1/2+y,-x,-z
1/2+x,1/2+y,-z
-y,1/2+x,-z
1/2-x,y,z
x,1/2-y,z
1/2-y,1/2-x,z
y,x,z
loop_
_atom_site_type_symbol
_atom_site_label
_atom_site_fract_x
_atom_site_fract_y
_atom_site_fract_z
Si Si1 0.928480 0.824100 0.006625
Si Si2 0.076919 0.672986 0.044093
Si Si3 0.324532 0.071478 0.168979
Si Si4 0.172927 0.436122 0.517545
Si Si5 0.492643 0.600743 0.612205
Si Si6 0.583950 0.173628 0.779951
Si Si7 0.495717 0.112316 0.658093
Si Si8 0.554332 0.326244 0.249729
O O1 0.918057 0.750000 0.034431
O O2 0.875541 0.875541 0.035228
O O3 0.922249 0.822110 0.918552
O O4 0.002738 0.843557 0.022367
O O5 0.088245 0.750000 0.026307
O O6 0.078694 0.666312 0.132229
O O7 0.127855 0.627855 0.000000
O O8 0.250000 0.079455 0.196704
O O9 0.373742 0.126259 0.198091
O O10 0.348345 0.998944 0.189515
O O11 0.250000 0.429158 0.502254
O O12 0.131285 0.368716 0.511165
O O13 0.137180 0.486924 0.462127
O O14 0.160885 0.464197 0.599046
O O15 0.553459 0.553459 0.631235
O O16 0.429555 0.552854 0.616498
O O17 0.478818 0.653942 0.674050
O O18 0.595389 0.250000 0.764355
O O19 0.524156 0.147961 0.729680
O O20 0.640899 0.124234 0.757299
O O21 0.441031 0.058970 0.678941
O O22 0.562276 0.250000 0.241994
#
# Coordination Sequence:
#
# PCOD9565250 Si02
#       8
#    16  16  16  16  16  16  16  16
#     4   9  18  32  49  70  95 122 154 194 240 292
#     4  10  21  36  52  72  99 130 166 206 248 297
#     4   9  17  29  46  68  95 127 161 197 238 285
#     4  10  19  31  49  72 100 133 165 198 237 284
#     4   9  17  30  49  73  98 124 159 202 245 287
#     4  10  21  35  51  72  98 127 161 205 253 299
#     4   9  18  33  53  75  97 123 159 203 250 296
#     4  10  19  31  48  69  96 130 165 201 241 288
#
# _framework density 16.747040999999999
#
# number of rings (size 3 to 8) (size 9 to 14) (size 15 to 20)
#    0.000    2.500    0.000    2.250    0.000    5.000 
#    0.000    2.500    0.000    0.000    0.000    1.750 
#    0.000   12.000    0.000    0.000    0.000    0.000 
#
# Total GULP energy -712810.526921 kJ/mol
# GULP energy per Si atom -5568.832242 kJ/mol
# Density = 1.670892 g / cm^3
# Si number density = 16.747041 Si / 1000 Ang^3
#
#
#
# Elastic Constant Matrix: (Units=GPa)
#
#
# Indices 1 2 3 4 5 6 
#
# 1 96.3481 66.0432 36.3814 0.0000 0.0000 0.0000
# 2 66.0432 96.3481 36.3814 0.0000 0.0000 0.0000
# 3 36.3814 36.3814 55.5082 0.0000 0.0000 0.0000
# 4 0.0000 0.0000 0.0000 19.3868 0.0000 0.0000
# 5 0.0000 0.0000 0.0000 0.0000 19.3868 0.0000
# 6 0.0000 0.0000 0.0000 0.0000 0.0000 17.8232
#
#
#
# Elastic Compliance Matrix: (Units=1/GPa)
#
#
# Indices 1 2 3 4 5 6 
#
# 1 0.020858 -0.012140 -0.005714 0.000000 0.000000 0.000000
# 2 -0.012140 0.020858 -0.005714 0.000000 0.000000 0.000000
# 3 -0.005714 -0.005714 0.025506 0.000000 0.000000 0.000000
# 4 0.000000 0.000000 0.000000 0.051581 0.000000 0.000000
# 5 0.000000 0.000000 0.000000 0.000000 0.051581 0.000000
# 6 0.000000 0.000000 0.000000 0.000000 0.000000 0.056107
#
#
# Mechanical properties :
#
#
# Convention : Reuss Voigt Hill
#
# Bulk Modulus (GPa) = 49.78679 58.42406 54.10543
# Shear Modulus (GPa) = 17.83656 18.61261 18.22459
#
# Velocity S-wave (km/s) = 3.26706 3.33738 3.30241
# Velocity P-wave (km/s) = 6.63512 7.05781 6.84973
#
# Compressibility (1/GPa) = 0.02008565
#
# Stress axis : x y z
#
# Youngs Moduli (GPa) = 47.94289 47.94289 39.20680
#
# Poissons Ratio (x) = 0.58202 0.22404
# Poissons Ratio (y) = 0.58202 0.22404
# Poissons Ratio (z) = 0.27396 0.27396
#
# Static dielectric constant tensor:
#      x y z
#    x 1.562050 0.000000 0.000000 
#    y 0.000000 1.562050 0.000000 
#    z 0.000000 0.000000 1.574300 
# 
# From -- ./inp_files/6126.got.cif
#   From: 2010.05.17/outbox.cif.g08.bks.cpg/sg129_4_cif.got.tgz:6126.got - 2010.05.20 12:12:06.
