data_PCOD9565529
_publ_section_title
;
Structure prediction by ZEFSAII (Michael W. Deem and Ramdas Pophale) SiO2 
 PCOD9565529
Probable space group: P 4/N M M
;
_chemical_formula_sum "Si O2"
_cell_formula_units_Z 96
_cell_length_a 24.000000
_cell_length_b 24.000000
_cell_length_c 9.000000
_cell_angle_alpha 90.000000
_cell_angle_beta 90.000000
_cell_angle_gamma 90.000000
_cell_volume 5184.000000
_symmetry_space_group_name_H-M "P 4/N M M"
_symmetry_group_IT_number 129
_symmetry_cell_setting 'tetragonal'
loop_
_space_group_symop_operation_xyz
x,y,z
1/2-y,x,z
1/2-x,1/2-y,z
y,1/2-x,z
1/2+x,-y,-z
-x,1/2+y,-z
1/2+y,1/2+x,-z
-y,-x,-z
-x,-y,-z
1/2+y,-x,-z
1/2+x,1/2+y,-z
-y,1/2+x,-z
1/2-x,y,z
x,1/2-y,z
1/2-y,1/2-x,z
y,x,z
loop_
_atom_site_type_symbol
_atom_site_label
_atom_site_fract_x
_atom_site_fract_y
_atom_site_fract_z
Si Si1 0.008104 0.810627 0.453248
Si Si2 0.993531 0.087383 0.075362
Si Si3 0.372907 0.687868 0.619825
Si Si4 0.810133 0.488297 0.098531
Si Si5 0.991317 0.084122 0.409005
Si Si6 0.189133 0.637446 0.870384
O O1 0.984871 0.750000 0.492962
O O2 0.068385 0.815408 0.533773
O O3 0.012667 0.813511 0.276423
O O4 0.978243 0.865727 0.507906
O O5 0.979239 0.102932 0.242798
O O6 0.939817 0.060184 0.000000
O O7 0.015975 0.138607 0.981082
O O8 0.040003 0.040003 0.077259
O O9 0.325771 0.674230 0.500000
O O10 0.367941 0.750000 0.680759
O O11 0.359191 0.645744 0.751536
O O12 0.750000 0.511040 0.054739
O O13 0.813135 0.423263 0.056453
O O14 0.937940 0.062061 0.500000
O O15 0.031936 0.031936 0.398097
O O16 0.250000 0.641901 0.797364
O O17 0.181503 0.681503 0.000000
#
# Coordination Sequence:
#
# PCOD9565529 Si02
#       6
#    16  16  16  16  16  16
#     4  10  21  35  51  73  99 129 166 205 251 308
#     4  10  21  35  53  78 103 132 171 212 255 303
#     4  11  21  33  48  64  85 121 165 209 254 295
#     4  10  21  36  52  72 100 132 165 205 254 306
#     4  10  21  35  54  79 104 133 169 211 257 303
#     4  11  23  35  45  63  90 123 165 211 256 299
#
# _framework density 18.518519000000001
#
# number of rings (size 3 to 8) (size 9 to 14) (size 15 to 20)
#    0.000    1.667    1.667    3.000    4.667    4.667 
#    0.000    0.000    0.000    0.000    0.000    0.000 
#    0.000    0.667    0.000    7.333    0.000    5.333 
#
# Total GULP energy -534832.392667 kJ/mol
# GULP energy per Si atom -5571.170757 kJ/mol
# Density = 1.847637 g / cm^3
# Si number density = 18.518519 Si / 1000 Ang^3
#
#
#
# Elastic Constant Matrix: (Units=GPa)
#
#
# Indices 1 2 3 4 5 6 
#
# 1 30.7820 15.5309 25.6414 0.0000 0.0000 0.0000
# 2 15.5309 30.7819 25.6320 0.0000 0.0000 0.0000
# 3 25.6414 25.6320 68.9442 0.0000 0.0000 0.0000
# 4 0.0000 0.0000 0.0000 21.1672 0.0000 0.0000
# 5 0.0000 0.0000 0.0000 0.0000 21.1674 0.0000
# 6 0.0000 0.0000 0.0000 0.0000 0.0000 8.8202
#
#
#
# Elastic Compliance Matrix: (Units=1/GPa)
#
#
# Indices 1 2 3 4 5 6 
#
# 1 0.051144 -0.014434 -0.013655 0.000000 0.000000 0.000000
# 2 -0.014434 0.051127 -0.013640 0.000000 0.000000 0.000000
# 3 -0.013655 -0.013640 0.024654 0.000000 0.000000 0.000000
# 4 0.000000 0.000000 0.000000 0.047243 0.000000 0.000000
# 5 0.000000 0.000000 0.000000 0.000000 0.047242 0.000000
# 6 0.000000 0.000000 0.000000 0.000000 0.000000 0.113376
#
#
# Mechanical properties :
#
#
# Convention : Reuss Voigt Hill
#
# Bulk Modulus (GPa) = 23.00573 29.34631 26.17602
# Shear Modulus (GPa) = 11.55448 14.47787 13.01617
#
# Velocity S-wave (km/s) = 2.50059 2.79911 2.65405
# Velocity P-wave (km/s) = 4.55931 5.13109 4.85363
#
# Compressibility (1/GPa) = 0.04346743
#
# Stress axis : x y z
#
# Youngs Moduli (GPa) = 19.55276 19.55915 40.56142
#
# Poissons Ratio (x) = 0.28231 0.55386
# Poissons Ratio (y) = 0.28222 0.55325
# Poissons Ratio (z) = 0.26699 0.26678
#
# Static dielectric constant tensor:
#      x y z
#    x 1.684530 0.000000 0.000000 
#    y 0.000000 1.684530 0.000000 
#    z 0.000000 0.000000 1.692020 
# 
# From -- ./inp_files/2644.got.cif
#   From: 2010.05.17/outbox.ucp.g08.bks.cvg/sg129_2_cif.got.tgz:2644.got - 2010.06.11 11:38:03.
