data_PCOD9565014
_publ_section_title
;
Structure prediction by ZEFSAII (Michael W. Deem and Ramdas Pophale) SiO2 
 PCOD9565014
Probable space group: P 4/M N C
;
_chemical_formula_sum "Si O2"
_cell_formula_units_Z 88
_cell_length_a 14.149647
_cell_length_b 14.149647
_cell_length_c 20.343782
_cell_angle_alpha 90.000000
_cell_angle_beta 90.000000
_cell_angle_gamma 90.000000
_cell_volume 4073.079662
_symmetry_space_group_name_H-M "P 4/M N C"
_symmetry_group_IT_number 128
_symmetry_cell_setting 'tetragonal'
loop_
_space_group_symop_operation_xyz
x,y,z
-y,x,z
-x,-y,z
y,-x,z
1/2+x,1/2-y,1/2-z
1/2-x,1/2+y,1/2-z
1/2+y,1/2+x,1/2-z
1/2-y,1/2-x,1/2-z
-x,-y,-z
y,-x,-z
x,y,-z
-y,x,-z
1/2-x,1/2+y,1/2+z
1/2+x,1/2-y,1/2+z
1/2-y,1/2-x,1/2+z
1/2+y,1/2+x,1/2+z
loop_
_atom_site_type_symbol
_atom_site_label
_atom_site_fract_x
_atom_site_fract_y
_atom_site_fract_z
Si Si1 0.231844 0.900682 0.867713
Si Si2 0.873501 0.096309 0.000000
Si Si3 0.405931 0.215599 0.842835
Si Si4 0.881706 0.897576 0.422937
Si Si5 0.099209 0.442975 0.077997
Si Si6 0.595362 0.733118 0.303107
O O1 0.343435 0.901443 0.883320
O O2 0.186407 0.833690 0.812311
O O3 0.202443 0.006535 0.846438
O O4 0.180269 0.871330 0.934999
O O5 0.981967 0.127811 0.000000
O O6 0.351600 0.299767 0.880659
O O7 0.488844 0.175376 0.888138
O O8 0.435963 0.256685 0.772354
O O9 0.334916 0.130477 0.827690
O O10 0.865793 0.881760 0.500000
O O11 0.989940 0.873551 0.409068
O O12 0.000000 0.500000 0.082099
O O13 0.118727 0.427332 0.000000
#
# Coordination Sequence:
#
# PCOD9565014 Si02
#       6
#    16   8  16  16  16  16
#     4  12  24  47  70 105 137 185 237 295 356 429
#     4  11  22  42  73 102 142 182 234 301 364 413
#     4  11  25  46  62 102 136 183 232 286 354 428
#     4   9  20  40  65  94 128 172 227 287 350 412
#     4  11  24  44  75 106 140 185 233 291 363 430
#     4  11  28  43  68  97 142 183 239 291 356 430
#
# _framework density 21.605271999999999
#
# number of rings (size 3 to 8) (size 9 to 14) (size 15 to 20)
#    0.000    1.182    4.545    1.091    5.091    2.545 
#    4.909    0.000    0.000    0.000    0.000    0.000 
#    0.000    0.000    0.000    0.000    0.000    0.000 
#
# Total GULP energy -491744.563417 kJ/mol
# GULP energy per Si atom -5588.006402 kJ/mol
# Density = 2.155610 g / cm^3
# Si number density = 21.605272 Si / 1000 Ang^3
#
#
#
# Elastic Constant Matrix: (Units=GPa)
#
#
# Indices 1 2 3 4 5 6 
#
# 1 74.2942 11.8614 29.4085 0.0000 0.0000 0.0000
# 2 11.8614 74.2942 29.4085 0.0000 0.0000 0.0000
# 3 29.4085 29.4085 64.9255 0.0000 0.0000 0.0000
# 4 0.0000 0.0000 0.0000 13.9537 0.0000 0.0000
# 5 0.0000 0.0000 0.0000 0.0000 13.9537 0.0000
# 6 0.0000 0.0000 0.0000 0.0000 0.0000 16.3253
#
#
#
# Elastic Compliance Matrix: (Units=1/GPa)
#
#
# Indices 1 2 3 4 5 6 
#
# 1 0.016410 0.000393 -0.007611 0.000000 0.000000 0.000000
# 2 0.000393 0.016410 -0.007611 0.000000 0.000000 0.000000
# 3 -0.007611 -0.007611 0.022297 0.000000 0.000000 0.000000
# 4 0.000000 0.000000 0.000000 0.071666 0.000000 0.000000
# 5 0.000000 0.000000 0.000000 0.000000 0.071666 0.000000
# 6 0.000000 0.000000 0.000000 0.000000 0.000000 0.061255
#
#
# Mechanical properties :
#
#
# Convention : Reuss Voigt Hill
#
# Bulk Modulus (GPa) = 39.27899 39.43008 39.35454
# Shear Modulus (GPa) = 16.78712 18.36890 17.57801
#
# Velocity S-wave (km/s) = 2.79048 2.91899 2.85546
# Velocity P-wave (km/s) = 5.34810 5.44523 5.39688
#
# Compressibility (1/GPa) = 0.02545890
#
# Stress axis : x y z
#
# Youngs Moduli (GPa) = 60.93847 60.93847 44.84887
#
# Poissons Ratio (x) = -0.02393 0.34134
# Poissons Ratio (y) = -0.02393 0.34134
# Poissons Ratio (z) = 0.46380 0.46380
#
# Static dielectric constant tensor:
#      x y z
#    x 1.805280 0.000000 0.000000 
#    y 0.000000 1.805280 0.000000 
#    z 0.000000 0.000000 1.780340 
# 
# From -- ./inp_files/5636.got.cif
#   From: 2010.05.17/outbox.cif.g08.bks.cpg/sg128_3_cif.got.tgz:5636.got - 2010.05.20 12:07:25.
