data_PCOD9565511
_publ_section_title
;
Structure prediction by ZEFSAII (Michael W. Deem and Ramdas Pophale) SiO2 
 PCOD9565511
Probable space group: P 4/N M M
;
_chemical_formula_sum "Si O2"
_cell_formula_units_Z 52
_cell_length_a 14.556794
_cell_length_b 14.556794
_cell_length_c 11.988422
_cell_angle_alpha 90.000000
_cell_angle_beta 90.000000
_cell_angle_gamma 90.000000
_cell_volume 2540.349638
_symmetry_space_group_name_H-M "P 4/N M M"
_symmetry_group_IT_number 129
_symmetry_cell_setting 'tetragonal'
loop_
_space_group_symop_operation_xyz
x,y,z
1/2-y,x,z
1/2-x,1/2-y,z
y,1/2-x,z
1/2+x,-y,-z
-x,1/2+y,-z
1/2+y,1/2+x,-z
-y,-x,-z
-x,-y,-z
1/2+y,-x,-z
1/2+x,1/2+y,-z
-y,1/2+x,-z
1/2-x,y,z
x,1/2-y,z
1/2-y,1/2-x,z
y,x,z
loop_
_atom_site_type_symbol
_atom_site_label
_atom_site_fract_x
_atom_site_fract_y
_atom_site_fract_z
Si Si1 0.991140 0.250000 0.189489
Si Si2 0.250000 0.403790 0.423050
Si Si3 0.250000 0.750000 0.500000
Si Si4 0.901437 0.446462 0.195873
Si Si5 0.960958 0.750000 0.054995
Si Si6 0.250000 0.250000 0.878749
Si Si7 0.750000 0.446177 0.383028
O O1 0.928856 0.340684 0.187709
O O2 0.052001 0.250000 0.300524
O O3 0.051890 0.250000 0.077443
O O4 0.161341 0.338660 0.436730
O O5 0.250000 0.484005 0.514217
O O6 0.157934 0.750000 0.426668
O O7 0.838894 0.481907 0.093972
O O8 0.838606 0.461173 0.305058
O O9 0.992400 0.507601 0.201842
O O10 0.863356 0.750000 0.115723
#
# Coordination Sequence:
#
# PCOD9565511 Si02
#       7
#     8   8   2  16   8   2   8
#     4  12  26  41  66  97 138 180 217 267 329 403
#     4  11  25  42  65 100 133 172 221 273 334 394
#     4  12  24  40  64  92 126 164 224 260 344 406
#     4  11  24  44  67  98 131 175 225 272 329 387
#     4  11  26  42  71  98 134 175 218 279 324 398
#     4  12  24  44  68 104 130 176 224 264 344 378
#     4  11  23  43  67  92 126 173 215 284 325 392
#
# _framework density 20.469624
#
# number of rings (size 3 to 8) (size 9 to 14) (size 15 to 20)
#    0.000    0.769    1.538    5.538    4.308    3.077 
#    0.000    7.692    0.000    0.000    0.000    0.000 
#    0.000    0.000    0.000    0.000    0.000    0.000 
#
# Total GULP energy -290603.776191 kJ/mol
# GULP energy per Si atom -5588.534158 kJ/mol
# Density = 2.042303 g / cm^3
# Si number density = 20.469624 Si / 1000 Ang^3
#
#
#
# Elastic Constant Matrix: (Units=GPa)
#
#
# Indices 1 2 3 4 5 6 
#
# 1 157.1765 57.2183 28.8661 0.0000 0.0000 0.0000
# 2 57.2183 157.1765 28.8661 0.0000 0.0000 0.0000
# 3 28.8661 28.8661 106.9651 0.0000 0.0000 0.0000
# 4 0.0000 0.0000 0.0000 -3.6993 0.0000 0.0000
# 5 0.0000 0.0000 0.0000 0.0000 -3.6993 0.0000
# 6 0.0000 0.0000 0.0000 0.0000 0.0000 25.5704
#
#
#
# Elastic Compliance Matrix: (Units=1/GPa)
#
#
# Indices 1 2 3 4 5 6 
#
# 1 0.007517 -0.002487 -0.001357 0.000000 0.000000 0.000000
# 2 -0.002487 0.007517 -0.001357 0.000000 0.000000 0.000000
# 3 -0.001357 -0.001357 0.010081 0.000000 0.000000 0.000000
# 4 0.000000 0.000000 0.000000 -0.270322 0.000000 0.000000
# 5 0.000000 0.000000 0.000000 0.000000 -0.270322 0.000000
# 6 0.000000 0.000000 0.000000 0.000000 0.000000 0.039108
#
#
# Mechanical properties :
#
#
# Convention : Reuss Voigt Hill
#
# Bulk Modulus (GPa) = 67.97357 72.35766 70.16562
# Shear Modulus (GPa) = -10.84332 24.05887 6.60778
#
# Velocity S-wave (km/s) = -2.30408 3.43205 1.79864
# Velocity P-wave (km/s) = 5.11867 7.15058 6.21818
#
# Compressibility (1/GPa) = 0.01471160
#
# Stress axis : x y z
#
# Youngs Moduli (GPa) = 133.03190 133.03190 99.19202
#
# Poissons Ratio (x) = 0.33088 0.13464
# Poissons Ratio (y) = 0.33088 0.13464
# Poissons Ratio (z) = 0.18057 0.18057
#
# Static dielectric constant tensor:
#      x y z
#    x 1.695870 0.000000 0.000000 
#    y 0.000000 1.695870 0.000000 
#    z 0.000000 0.000000 1.731090 
# 
# From -- ./inp_files/3312.got.cif
#   From: 2010.05.17/outbox.cif.g08.bks.cpg/sg129_2_cif.got.tgz:3312.got - 2010.05.20 12:12:06.
