data_PCOD9565643
_publ_section_title
;
Structure prediction by ZEFSAII (Michael W. Deem and Ramdas Pophale) SiO2 
 PCOD9565643
Probable space group: P 4/N C C
;
_chemical_formula_sum "Si O2"
_cell_formula_units_Z 80
_cell_length_a 27.443746
_cell_length_b 27.443746
_cell_length_c 5.654352
_cell_angle_alpha 90.000000
_cell_angle_beta 90.000000
_cell_angle_gamma 90.000000
_cell_volume 4258.627198
_symmetry_space_group_name_H-M "P 4/N C C"
_symmetry_group_IT_number 130
_symmetry_cell_setting 'tetragonal'
loop_
_space_group_symop_operation_xyz
x,y,z
1/2-y,x,z
1/2-x,1/2-y,z
y,1/2-x,z
1/2+x,-y,1/2-z
-x,1/2+y,1/2-z
1/2+y,1/2+x,1/2-z
-y,-x,1/2-z
-x,-y,-z
1/2+y,-x,-z
1/2+x,1/2+y,-z
-y,1/2+x,-z
1/2-x,y,1/2+z
x,1/2-y,1/2+z
1/2-y,1/2-x,1/2+z
y,x,1/2+z
loop_
_atom_site_type_symbol
_atom_site_label
_atom_site_fract_x
_atom_site_fract_y
_atom_site_fract_z
Si Si1 0.032577 0.532577 0.750000
Si Si2 0.736231 0.153284 0.576244
Si Si3 0.440426 0.081072 0.702135
Si Si4 0.958227 0.227044 0.865396
Si Si5 0.373175 0.966461 0.051886
Si Si6 0.637024 0.137024 0.750000
O O1 0.041962 0.476218 0.682675
O O2 0.043523 0.573495 0.555248
O O3 0.754185 0.176285 0.333937
O O4 0.762726 0.100323 0.613270
O O5 0.678184 0.145499 0.554127
O O6 0.415823 0.088859 0.446132
O O7 0.486215 0.117324 0.709036
O O8 0.975738 0.251835 0.620764
O O9 0.972394 0.169898 0.861487
O O10 0.356335 0.918592 0.184131
#
# Coordination Sequence:
#
# PCOD9565643 Si02
#       6
#     8  16  16  16  16   8
#     4  10  21  32  50  78 106 120 164 202 234 336
#     4  10  22  39  49  72  97 108 148 218 237 300
#     4  10  20  36  46  73 110 119 153 203 225 309
#     4  10  21  38  47  71 102 115 161 213 230 298
#     4  11  21  31  57  76  93 139 155 191 277 300
#     4  12  21  32  60  73  88 127 160 190 267 322
#
# _framework density 18.785397
#
# number of rings (size 3 to 8) (size 9 to 14) (size 15 to 20)
#    0.000    1.600    4.000    4.200    5.600    4.000 
#    0.000    0.000    0.000    1.800    0.000    0.000 
#    0.000    0.000    0.000    0.000    0.000    0.000 
#
# Total GULP energy -445984.424521 kJ/mol
# GULP energy per Si atom -5574.805307 kJ/mol
# Density = 1.874264 g / cm^3
# Si number density = 18.785397 Si / 1000 Ang^3
#
#
#
# Elastic Constant Matrix: (Units=GPa)
#
#
# Indices 1 2 3 4 5 6 
#
# 1 41.2636 35.0352 19.4163 0.0000 0.0000 0.0000
# 2 35.0352 41.2636 19.4163 0.0000 0.0000 0.0000
# 3 19.4163 19.4163 149.5317 0.0000 0.0000 0.0000
# 4 0.0000 0.0000 0.0000 17.7525 0.0000 0.0000
# 5 0.0000 0.0000 0.0000 0.0000 17.7525 0.0000
# 6 0.0000 0.0000 0.0000 0.0000 0.0000 21.3223
#
#
#
# Elastic Compliance Matrix: (Units=1/GPa)
#
#
# Indices 1 2 3 4 5 6 
#
# 1 0.087294 -0.073261 -0.001822 0.000000 0.000000 0.000000
# 2 -0.073261 0.087294 -0.001822 0.000000 0.000000 0.000000
# 3 -0.001822 -0.001822 0.007161 0.000000 0.000000 0.000000
# 4 0.000000 0.000000 0.000000 0.056330 0.000000 0.000000
# 5 0.000000 0.000000 0.000000 0.000000 0.056330 0.000000
# 6 0.000000 0.000000 0.000000 0.000000 0.000000 0.046899
#
#
# Mechanical properties :
#
#
# Convention : Reuss Voigt Hill
#
# Bulk Modulus (GPa) = 35.79179 42.19939 38.99559
# Shear Modulus (GPa) = 9.91212 21.91152 15.91182
#
# Velocity S-wave (km/s) = 2.29956 3.41898 2.91354
# Velocity P-wave (km/s) = 5.11321 6.17241 5.66761
#
# Compressibility (1/GPa) = 0.02793936
#
# Stress axis : x y z
#
# Youngs Moduli (GPa) = 11.45548 11.45548 139.64976
#
# Poissons Ratio (x) = 0.83924 0.25448
# Poissons Ratio (y) = 0.83924 0.25448
# Poissons Ratio (z) = 0.02087 0.02087
#
# Static dielectric constant tensor:
#      x y z
#    x 1.676240 0.000000 0.000000 
#    y 0.000000 1.676240 0.000000 
#    z 0.000000 0.000000 1.835540 
# 
# From -- ./inp_files/227.got.cif
#   From: 2010.05.17/outbox.cif.g08.bks.cpg/sg130_1_cif.got.tgz:227.got - 2010.05.20 12:17:35.
