data_PCOD9565062
_publ_section_title
;
Structure prediction by ZEFSAII (Michael W. Deem and Ramdas Pophale) SiO2 
 PCOD9565062
Probable space group: P 4/M N C
;
_chemical_formula_sum "Si O2"
_cell_formula_units_Z 60
_cell_length_a 11.838506
_cell_length_b 11.838506
_cell_length_c 18.506708
_cell_angle_alpha 90.000000
_cell_angle_beta 90.000000
_cell_angle_gamma 90.000000
_cell_volume 2593.719277
_symmetry_space_group_name_H-M "P 4/M N C"
_symmetry_group_IT_number 128
_symmetry_cell_setting 'tetragonal'
loop_
_space_group_symop_operation_xyz
x,y,z
-y,x,z
-x,-y,z
y,-x,z
1/2+x,1/2-y,1/2-z
1/2-x,1/2+y,1/2-z
1/2+y,1/2+x,1/2-z
1/2-y,1/2-x,1/2-z
-x,-y,-z
y,-x,-z
x,y,-z
-y,x,-z
1/2-x,1/2+y,1/2+z
1/2+x,1/2-y,1/2+z
1/2-y,1/2-x,1/2+z
1/2+y,1/2+x,1/2+z
loop_
_atom_site_type_symbol
_atom_site_label
_atom_site_fract_x
_atom_site_fract_y
_atom_site_fract_z
Si Si1 0.559810 0.326689 0.392875
Si Si2 0.989252 0.807794 0.500000
Si Si3 0.160007 0.404721 0.128627
Si Si4 0.348770 0.402020 0.779102
Si Si5 0.500000 0.000000 0.250000
O O1 0.639057 0.432451 0.416080
O O2 0.587013 0.195666 0.407881
O O3 0.580208 0.334766 0.306115
O O4 0.975354 0.724630 0.431839
O O5 0.102284 0.884289 0.500000
O O6 0.253727 0.339987 0.176569
O O7 0.099023 0.479595 0.190884
O O8 0.467309 0.351637 0.801812
#
# Coordination Sequence:
#
# PCOD9565062 Si02
#       5
#    16   8  16  16   4
#     4   9  19  37  62  98 139 182 236 296 370 440
#     4  11  28  53  76 103 146 205 252 287 368 472
#     4  12  23  44  67 106 144 184 241 311 366 422
#     4   9  17  33  59  92 131 177 225 285 353 425
#     4  12  28  42  68 116 144 180 240 314 376 426
#
# _framework density 23.132802000000002
#
# number of rings (size 3 to 8) (size 9 to 14) (size 15 to 20)
#    0.000    1.733    2.667    3.200    0.000    6.933 
#    0.000    1.333    0.000    1.600    0.000    0.000 
#    0.000    0.000    0.000    0.000    0.000    0.000 
#
# Total GULP energy -334078.129633 kJ/mol
# GULP energy per Si atom -5567.968827 kJ/mol
# Density = 2.308015 g / cm^3
# Si number density = 23.132802 Si / 1000 Ang^3
#
#
#
# Elastic Constant Matrix: (Units=GPa)
#
#
# Indices 1 2 3 4 5 6 
#
# 1 128.0825 8.1848 38.5550 0.0000 0.0000 0.0000
# 2 8.1848 128.0825 38.5550 0.0000 0.0000 0.0000
# 3 38.5550 38.5550 153.2060 0.0000 0.0000 0.0000
# 4 0.0000 0.0000 0.0000 -1.8827 0.0000 0.0000
# 5 0.0000 0.0000 0.0000 0.0000 -1.8827 0.0000
# 6 0.0000 0.0000 0.0000 0.0000 0.0000 20.8887
#
#
#
# Elastic Compliance Matrix: (Units=1/GPa)
#
#
# Indices 1 2 3 4 5 6 
#
# 1 0.008449 0.000108 -0.002153 0.000000 0.000000 0.000000
# 2 0.000108 0.008449 -0.002153 0.000000 0.000000 0.000000
# 3 -0.002153 -0.002153 0.007611 0.000000 0.000000 0.000000
# 4 0.000000 0.000000 0.000000 -0.531155 0.000000 0.000000
# 5 0.000000 0.000000 0.000000 0.000000 -0.531155 0.000000
# 6 0.000000 0.000000 0.000000 0.000000 0.000000 0.047873
#
#
# Mechanical properties :
#
#
# Convention : Reuss Voigt Hill
#
# Bulk Modulus (GPa) = 62.06764 64.44005 63.25385
# Shear Modulus (GPa) = -5.12211 25.02974 9.95382
#
# Velocity S-wave (km/s) = -1.48964 3.29295 2.07659
# Velocity P-wave (km/s) = 4.89189 6.50961 5.75785
#
# Compressibility (1/GPa) = 0.01611146
#
# Stress axis : x y z
#
# Youngs Moduli (GPa) = 118.36048 118.36048 131.38872
#
# Poissons Ratio (x) = -0.01282 0.28294
# Poissons Ratio (y) = -0.01282 0.28294
# Poissons Ratio (z) = 0.25488 0.25488
#
# Static dielectric constant tensor:
#      x y z
#    x 1.960370 0.000000 0.000000 
#    y 0.000000 1.960370 0.000000 
#    z 0.000000 0.000000 1.909040 
# 
# From -- ./inp_files/5461.got.cif
#   From: 2010.05.17/outbox.cif.g08.bks.cpg/sg128_3_cif.got.tgz:5461.got - 2010.05.20 12:07:25.
