data_PCOD9565425
_publ_section_title
;
Structure prediction by ZEFSAII (Michael W. Deem and Ramdas Pophale) SiO2 
 PCOD9565425
Probable space group: P 4/N M M
;
_chemical_formula_sum "Si O2"
_cell_formula_units_Z 96
_cell_length_a 18.757256
_cell_length_b 18.757256
_cell_length_c 12.717280
_cell_angle_alpha 90.000000
_cell_angle_beta 90.000000
_cell_angle_gamma 90.000000
_cell_volume 4474.379791
_symmetry_space_group_name_H-M "P 4/N M M"
_symmetry_group_IT_number 129
_symmetry_cell_setting 'tetragonal'
loop_
_space_group_symop_operation_xyz
x,y,z
1/2-y,x,z
1/2-x,1/2-y,z
y,1/2-x,z
1/2+x,-y,-z
-x,1/2+y,-z
1/2+y,1/2+x,-z
-y,-x,-z
-x,-y,-z
1/2+y,-x,-z
1/2+x,1/2+y,-z
-y,1/2+x,-z
1/2-x,y,z
x,1/2-y,z
1/2-y,1/2-x,z
y,x,z
loop_
_atom_site_type_symbol
_atom_site_label
_atom_site_fract_x
_atom_site_fract_y
_atom_site_fract_z
Si Si1 0.444328 0.169158 0.844591
Si Si2 0.331769 0.667272 0.372772
Si Si3 0.053849 0.332764 0.494811
Si Si4 0.450274 0.168089 0.249633
Si Si5 0.417532 0.530501 0.671280
Si Si6 0.611373 0.009301 0.950890
O O1 0.445156 0.250000 0.808211
O O2 0.366694 0.133307 0.839763
O O3 0.496099 0.119692 0.568203
O O4 0.473081 0.162181 0.963143
O O5 0.334256 0.665744 0.500000
O O6 0.250000 0.651111 0.341795
O O7 0.348080 0.750000 0.342151
O O8 0.389310 0.611402 0.331730
O O9 0.051555 0.250000 0.525467
O O10 0.132249 0.367751 0.503863
O O11 0.031752 0.338239 0.372965
O O12 0.431867 0.250000 0.230831
O O13 0.382217 0.117784 0.231186
O O14 0.508895 0.144874 0.164263
O O15 0.499325 0.499325 0.671986
O O16 0.380020 0.493906 0.771561
O O17 0.543191 0.956810 0.941762
O O18 0.582443 0.082443 0.000000
#
# Coordination Sequence:
#
# PCOD9565425 Si02
#       6
#    16  16  16  16  16  16
#     4  10  20  34  56  85 118 160 201 242 295 353
#     4   9  18  34  56  79 109 152 198 248 305 359
#     4   9  17  29  47  74 112 158 200 241 287 337
#     4   9  17  30  50  77 109 146 188 233 283 337
#     4  10  20  35  55  84 123 163 201 243 295 358
#     4   9  18  34  53  71  98 137 185 241 293 346
#
# _framework density 21.455487999999999
#
# number of rings (size 3 to 8) (size 9 to 14) (size 15 to 20)
#    0.000    2.667    0.000    2.500    0.000    0.833 
#    3.000    1.667    0.000    7.000    0.000    0.000 
#    0.000    3.333    0.000    4.333    0.000    0.000 
#
# Total GULP energy -536367.620103 kJ/mol
# GULP energy per Si atom -5587.162709 kJ/mol
# Density = 2.140665 g / cm^3
# Si number density = 21.455488 Si / 1000 Ang^3
#
#
#
# Elastic Constant Matrix: (Units=GPa)
#
#
# Indices 1 2 3 4 5 6 
#
# 1 125.5053 67.0667 25.0393 0.0000 0.0000 0.0000
# 2 67.0667 125.5052 25.0395 0.0000 0.0000 0.0000
# 3 25.0393 25.0395 100.6294 0.0000 0.0000 0.0000
# 4 0.0000 0.0000 0.0000 11.1238 0.0000 0.0000
# 5 0.0000 0.0000 0.0000 0.0000 11.1238 0.0000
# 6 0.0000 0.0000 0.0000 0.0000 0.0000 17.7399
#
#
#
# Elastic Compliance Matrix: (Units=1/GPa)
#
#
# Indices 1 2 3 4 5 6 
#
# 1 0.011332 -0.005780 -0.001382 0.000000 0.000000 0.000000
# 2 -0.005780 0.011332 -0.001382 0.000000 0.000000 0.000000
# 3 -0.001382 -0.001382 0.010625 0.000000 0.000000 0.000000
# 4 0.000000 0.000000 0.000000 0.089897 0.000000 0.000000
# 5 0.000000 0.000000 0.000000 0.000000 0.089897 0.000000
# 6 0.000000 0.000000 0.000000 0.000000 0.000000 0.056370
#
#
# Mechanical properties :
#
#
# Convention : Reuss Voigt Hill
#
# Bulk Modulus (GPa) = 61.71639 65.10340 63.40990
# Shear Modulus (GPa) = 17.12675 23.63045 20.37860
#
# Velocity S-wave (km/s) = 2.82839 3.32229 3.08524
# Velocity P-wave (km/s) = 6.28440 6.71760 6.50461
#
# Compressibility (1/GPa) = 0.01620315
#
# Stress axis : x y z
#
# Youngs Moduli (GPa) = 88.24529 88.24514 94.11783
#
# Poissons Ratio (x) = 0.51005 0.13002
# Poissons Ratio (y) = 0.51005 0.13003
# Poissons Ratio (z) = 0.12191 0.12191
#
# Static dielectric constant tensor:
#      x y z
#    x 1.789350 0.000000 0.000000 
#    y 0.000000 1.789350 0.000000 
#    z 0.000000 0.000000 1.784520 
# 
# From -- ./inp_files/3876.got.cif
#   From: 2010.05.17/outbox.cif.g08.bks.cpg/sg129_2_cif.got.tgz:3876.got - 2010.05.20 12:12:06.
