data_PCOD9565699
_publ_section_title
;
Structure prediction by ZEFSAII (Michael W. Deem and Ramdas Pophale) SiO2 
 PCOD9565699
Probable space group: P 4/N C C
;
_chemical_formula_sum "Si O2"
_cell_formula_units_Z 128
_cell_length_a 26.289447
_cell_length_b 26.289447
_cell_length_c 11.336611
_cell_angle_alpha 90.000000
_cell_angle_beta 90.000000
_cell_angle_gamma 90.000000
_cell_volume 7835.128911
_symmetry_space_group_name_H-M "P 4/N C C"
_symmetry_group_IT_number 130
_symmetry_cell_setting 'tetragonal'
loop_
_space_group_symop_operation_xyz
x,y,z
1/2-y,x,z
1/2-x,1/2-y,z
y,1/2-x,z
1/2+x,-y,1/2-z
-x,1/2+y,1/2-z
1/2+y,1/2+x,1/2-z
-y,-x,1/2-z
-x,-y,-z
1/2+y,-x,-z
1/2+x,1/2+y,-z
-y,1/2+x,-z
1/2-x,y,1/2+z
x,1/2-y,1/2+z
1/2-y,1/2-x,1/2+z
y,x,1/2+z
loop_
_atom_site_type_symbol
_atom_site_label
_atom_site_fract_x
_atom_site_fract_y
_atom_site_fract_z
Si Si1 0.359978 0.557699 0.251563
Si Si2 0.594077 0.823725 0.038159
Si Si3 0.498574 0.714800 0.404016
Si Si4 0.553195 0.971527 0.240032
Si Si5 0.579101 0.739514 0.200924
Si Si6 0.938358 0.591681 0.482737
Si Si7 0.499237 0.812987 0.535301
Si Si8 0.277487 0.169198 0.646245
O O1 0.388570 0.611431 0.250000
O O2 0.320934 0.545066 0.147177
O O3 0.403622 0.514550 0.244489
O O4 0.330356 0.542578 0.370346
O O5 0.536680 0.816972 0.987875
O O6 0.634066 0.789221 0.966167
O O7 0.590682 0.797747 0.165975
O O8 0.609756 0.881250 0.013303
O O9 0.537586 0.733962 0.303300
O O10 0.478301 0.766062 0.461700
O O11 0.561034 0.935832 0.355023
O O12 0.560751 0.951517 0.105022
O O13 0.498827 0.998827 0.250000
O O14 0.550372 0.710513 0.095989
O O15 0.631436 0.714273 0.243408
O O16 0.979222 0.636989 0.472999
O O17 0.311888 0.219290 0.646850
#
# Coordination Sequence:
#
# PCOD9565699 Si02
#       8
#    16  16  16  16  16  16  16  16
#     4   9  17  34  55  76 106 143 177 214 266 326
#     4  10  21  31  49  68  91 132 179 223 279 324
#     4   9  17  35  49  71 104 129 179 218 271 317
#     4  10  21  37  54  78 109 140 180 221 264 325
#     4   9  20  33  49  65  91 133 174 231 273 318
#     4  11  22  33  56  77 103 139 183 218 275 323
#     4   9  20  32  50  79 101 134 174 225 265 325
#     4  10  23  35  44  60  88 126 180 239 288 323
#
# _framework density 16.336680999999999
#
# number of rings (size 3 to 8) (size 9 to 14) (size 15 to 20)
#    0.000    2.375    1.250    0.375   10.500    0.000 
#    0.000    1.250    0.000    0.000    0.000    0.000 
#    0.000    1.500    0.000    0.000    0.000    0.000 
#
# Total GULP energy -712544.307780 kJ/mol
# GULP energy per Si atom -5566.752405 kJ/mol
# Density = 1.629950 g / cm^3
# Si number density = 16.336681 Si / 1000 Ang^3
#
#
#
# Elastic Constant Matrix: (Units=GPa)
#
#
# Indices 1 2 3 4 5 6 
#
# 1 63.5887 38.1710 21.0084 0.0000 0.0000 0.0000
# 2 38.1710 63.5875 21.0073 0.0000 0.0000 0.0000
# 3 21.0084 21.0073 37.6745 0.0000 0.0000 0.0000
# 4 0.0000 0.0000 0.0000 15.2601 0.0000 0.0000
# 5 0.0000 0.0000 0.0000 0.0000 15.2593 0.0000
# 6 0.0000 0.0000 0.0000 0.0000 0.0000 22.8558
#
#
#
# Elastic Compliance Matrix: (Units=1/GPa)
#
#
# Indices 1 2 3 4 5 6 
#
# 1 0.026055 -0.013289 -0.007119 0.000000 0.000000 0.000000
# 2 -0.013289 0.026055 -0.007118 0.000000 0.000000 0.000000
# 3 -0.007119 -0.007118 0.034482 0.000000 0.000000 0.000000
# 4 0.000000 0.000000 0.000000 0.065531 0.000000 0.000000
# 5 0.000000 0.000000 0.000000 0.000000 0.065534 0.000000
# 6 0.000000 0.000000 0.000000 0.000000 0.000000 0.043753
#
#
# Mechanical properties :
#
#
# Convention : Reuss Voigt Hill
#
# Bulk Modulus (GPa) = 31.70574 36.13601 33.92088
# Shear Modulus (GPa) = 15.29170 16.31928 15.80549
#
# Velocity S-wave (km/s) = 3.06279 3.16402 3.11382
# Velocity P-wave (km/s) = 5.65309 5.95950 5.80831
#
# Compressibility (1/GPa) = 0.03154003
#
# Stress axis : x y z
#
# Youngs Moduli (GPa) = 38.38030 38.38028 29.00052
#
# Poissons Ratio (x) = 0.51002 0.20646
# Poissons Ratio (y) = 0.51002 0.20643
# Poissons Ratio (z) = 0.27324 0.27320
#
# Static dielectric constant tensor:
#      x y z
#    x 1.549970 0.000000 0.000000 
#    y 0.000000 1.549970 0.000000 
#    z 0.000000 0.000000 1.612310 
# 
# From -- ./inp_files/1887.got.cif
#   From: 2010.05.17/outbox.cif.g08.bks.cpg/sg130_1_cif.got.tgz:1887.got - 2010.05.20 12:17:35.
