data_PCOD9565387
_publ_section_title
;
Structure prediction by ZEFSAII (Michael W. Deem and Ramdas Pophale) SiO2 
 PCOD9565387
Probable space group: P 4/N M M
;
_chemical_formula_sum "Si O2"
_cell_formula_units_Z 64
_cell_length_a 13.487029
_cell_length_b 13.487029
_cell_length_c 21.066282
_cell_angle_alpha 90.000000
_cell_angle_beta 90.000000
_cell_angle_gamma 90.000000
_cell_volume 3831.955669
_symmetry_space_group_name_H-M "P 4/N M M"
_symmetry_group_IT_number 129
_symmetry_cell_setting 'tetragonal'
loop_
_space_group_symop_operation_xyz
x,y,z
1/2-y,x,z
1/2-x,1/2-y,z
y,1/2-x,z
1/2+x,-y,-z
-x,1/2+y,-z
1/2+y,1/2+x,-z
-y,-x,-z
-x,-y,-z
1/2+y,-x,-z
1/2+x,1/2+y,-z
-y,1/2+x,-z
1/2-x,y,z
x,1/2-y,z
1/2-y,1/2-x,z
y,x,z
loop_
_atom_site_type_symbol
_atom_site_label
_atom_site_fract_x
_atom_site_fract_y
_atom_site_fract_z
Si Si1 0.370123 0.636998 0.310580
Si Si2 0.532167 0.367354 0.939581
Si Si3 0.529884 0.132022 0.441390
Si Si4 0.470267 0.868546 0.820649
O O1 0.250000 0.641254 0.311102
O O2 0.407202 0.750000 0.308937
O O3 0.398538 0.582095 0.375336
O O4 0.396595 0.577730 0.247086
O O5 0.517032 0.250000 0.941879
O O6 0.429851 0.429851 0.939952
O O7 0.591814 0.399823 0.876653
O O8 0.594849 0.405152 0.000000
O O9 0.598213 0.098213 0.500000
O O10 0.516514 0.250000 0.441613
O O11 0.427242 0.072759 0.447043
O O12 0.480662 0.750000 0.824041
O O13 0.574272 0.925729 0.827542
#
# Coordination Sequence:
#
# PCOD9565387 Si02
#       4
#    16  16  16  16
#     4   9  17  30  49  71  95 126 164 205 248 292
#     4  10  21  36  54  77 103 132 168 208 251 301
#     4  10  20  33  50  73 100 131 168 208 251 301
#     4  10  20  33  50  74 103 135 172 211 252 299
#
# _framework density 16.701654000000001
#
# number of rings (size 3 to 8) (size 9 to 14) (size 15 to 20)
#    0.000    2.250    0.000    3.000    0.000    4.750 
#    0.000    0.000    0.000    9.000    0.000    0.000 
#    0.000   18.000    0.000    0.000    0.000    0.000 
#
# Total GULP energy -357008.128136 kJ/mol
# GULP energy per Si atom -5578.252002 kJ/mol
# Density = 1.666364 g / cm^3
# Si number density = 16.701654 Si / 1000 Ang^3
#
#
#
# Elastic Constant Matrix: (Units=GPa)
#
#
# Indices 1 2 3 4 5 6 
#
# 1 113.6293 66.6224 51.0864 0.0000 0.0000 0.0000
# 2 66.6224 113.6278 51.0873 0.0000 0.0000 0.0000
# 3 51.0864 51.0873 149.3148 0.0000 0.0000 0.0000
# 4 0.0000 0.0000 0.0000 24.4463 0.0000 0.0000
# 5 0.0000 0.0000 0.0000 0.0000 24.4465 0.0000
# 6 0.0000 0.0000 0.0000 0.0000 0.0000 6.2889
#
#
#
# Elastic Compliance Matrix: (Units=1/GPa)
#
#
# Indices 1 2 3 4 5 6 
#
# 1 0.014078 -0.007196 -0.002355 0.000000 0.000000 0.000000
# 2 -0.007196 0.014078 -0.002355 0.000000 0.000000 0.000000
# 3 -0.002355 -0.002355 0.008309 0.000000 0.000000 0.000000
# 4 0.000000 0.000000 0.000000 0.040906 0.000000 0.000000
# 5 0.000000 0.000000 0.000000 0.000000 0.040906 0.000000
# 6 0.000000 0.000000 0.000000 0.000000 0.000000 0.159010
#
#
# Mechanical properties :
#
#
# Convention : Reuss Voigt Hill
#
# Bulk Modulus (GPa) = 79.02288 79.35155 79.18721
# Shear Modulus (GPa) = 16.37650 24.88808 20.63229
#
# Velocity S-wave (km/s) = 3.13474 3.86444 3.51856
# Velocity P-wave (km/s) = 7.77941 8.21743 8.00142
#
# Compressibility (1/GPa) = 0.01265456
#
# Stress axis : x y z
#
# Youngs Moduli (GPa) = 71.03249 71.03097 120.35667
#
# Poissons Ratio (x) = 0.51111 0.28341
# Poissons Ratio (y) = 0.51112 0.28343
# Poissons Ratio (z) = 0.16726 0.16727
#
# Static dielectric constant tensor:
#      x y z
#    x 1.540850 0.000000 0.000000 
#    y 0.000000 1.540850 0.000000 
#    z 0.000000 0.000000 1.564730 
# 
# From -- ./inp_files/5370.got.cif
#   From: 2010.05.17/outbox.cif.g08.bks.cpg/sg129_3_cif.got.tgz:5370.got - 2010.05.20 12:12:06.
