data_PCOD9565179
_publ_section_title
;
Structure prediction by ZEFSAII (Michael W. Deem and Ramdas Pophale) SiO2 
 PCOD9565179
Probable space group: P 4/N M M
;
_chemical_formula_sum "Si O2"
_cell_formula_units_Z 112
_cell_length_a 18.778509
_cell_length_b 18.778509
_cell_length_c 19.671848
_cell_angle_alpha 90.000000
_cell_angle_beta 90.000000
_cell_angle_gamma 90.000000
_cell_volume 6936.930978
_symmetry_space_group_name_H-M "P 4/N M M"
_symmetry_group_IT_number 129
_symmetry_cell_setting 'tetragonal'
loop_
_space_group_symop_operation_xyz
x,y,z
1/2-y,x,z
1/2-x,1/2-y,z
y,1/2-x,z
1/2+x,-y,-z
-x,1/2+y,-z
1/2+y,1/2+x,-z
-y,-x,-z
-x,-y,-z
1/2+y,-x,-z
1/2+x,1/2+y,-z
-y,1/2+x,-z
1/2-x,y,z
x,1/2-y,z
1/2-y,1/2-x,z
y,x,z
loop_
_atom_site_type_symbol
_atom_site_label
_atom_site_fract_x
_atom_site_fract_y
_atom_site_fract_z
Si Si1 0.399056 0.667896 0.327845
Si Si2 0.913698 0.334045 0.207404
Si Si3 0.664591 0.550294 0.711584
Si Si4 0.058266 0.171470 0.682334
Si Si5 0.554907 0.831852 0.482002
Si Si6 0.527778 0.412311 0.412321
Si Si7 0.163088 0.832298 0.076003
O O1 0.387074 0.750000 0.349476
O O2 0.346247 0.641058 0.269626
O O3 0.477464 0.664475 0.294221
O O4 0.402052 0.608410 0.387015
O O5 0.921629 0.250000 0.197696
O O6 0.881220 0.363243 0.137602
O O7 0.990667 0.359556 0.233365
O O8 0.750000 0.556102 0.710990
O O9 0.624117 0.624117 0.723287
O O10 0.635936 0.517979 0.640568
O O11 0.086032 0.250000 0.699452
O O12 0.109609 0.109609 0.706007
O O13 0.052998 0.168121 0.599807
O O14 0.551726 0.750000 0.504369
O O15 0.627583 0.872418 0.502221
O O16 0.492253 0.878649 0.515083
O O17 0.491464 0.491464 0.407607
O O18 0.250000 0.831894 0.076677
O O19 0.141063 0.750000 0.086357
O O20 0.143335 0.856666 0.000000
#
# Coordination Sequence:
#
# PCOD9565179 Si02
#       7
#    16  16  16  16  16  16  16
#     4  10  19  29  42  60  82 110 143 174 198 229
#     4   9  17  29  44  62  86 115 142 168 202 243
#     4   9  17  28  42  61  83 108 139 172 208 250
#     4   9  18  31  46  65  85 104 131 168 211 257
#     4   9  17  29  45  63  82 104 130 165 211 259
#     4   9  17  29  44  60  80 107 136 168 210 256
#     4   8  13  22  39  64  90 113 138 167 198 235
#
# _framework density 16.145468999999999
#
# number of rings (size 3 to 8) (size 9 to 14) (size 15 to 20)
#    0.000    3.000    0.000    1.714    0.000    3.000 
#    0.000    3.571    0.000    3.857    0.000    2.000 
#    0.000    0.000    0.000    0.000    0.000   18.000 
#
# Total GULP energy -623664.133643 kJ/mol
# GULP energy per Si atom -5568.429765 kJ/mol
# Density = 1.610872 g / cm^3
# Si number density = 16.145469 Si / 1000 Ang^3
#
#
#
# Elastic Constant Matrix: (Units=GPa)
#
#
# Indices 1 2 3 4 5 6 
#
# 1 58.3935 11.3171 2.9332 0.0000 0.0000 0.0000
# 2 11.3171 58.3934 2.9332 0.0000 0.0000 0.0000
# 3 2.9332 2.9332 51.4576 0.0000 0.0000 0.0000
# 4 0.0000 0.0000 0.0000 13.4127 0.0000 0.0000
# 5 0.0000 0.0000 0.0000 0.0000 13.4127 0.0000
# 6 0.0000 0.0000 0.0000 0.0000 0.0000 15.9094
#
#
#
# Elastic Compliance Matrix: (Units=1/GPa)
#
#
# Indices 1 2 3 4 5 6 
#
# 1 0.017828 -0.003414 -0.000822 0.000000 0.000000 0.000000
# 2 -0.003414 0.017828 -0.000822 0.000000 0.000000 0.000000
# 3 -0.000822 -0.000822 0.019527 0.000000 0.000000 0.000000
# 4 0.000000 0.000000 0.000000 0.074556 0.000000 0.000000
# 5 0.000000 0.000000 0.000000 0.000000 0.074556 0.000000
# 6 0.000000 0.000000 0.000000 0.000000 0.000000 0.062856
#
#
# Mechanical properties :
#
#
# Convention : Reuss Voigt Hill
#
# Bulk Modulus (GPa) = 22.18824 22.51240 22.35032
# Shear Modulus (GPa) = 17.10635 18.61769 17.86202
#
# Velocity S-wave (km/s) = 3.25855 3.39945 3.32974
# Velocity P-wave (km/s) = 5.28489 5.42052 5.35314
#
# Compressibility (1/GPa) = 0.04506892
#
# Stress axis : x y z
#
# Youngs Moduli (GPa) = 56.09116 56.09104 51.21077
#
# Poissons Ratio (x) = 0.19149 0.04208
# Poissons Ratio (y) = 0.19149 0.04208
# Poissons Ratio (z) = 0.04609 0.04609
#
# Static dielectric constant tensor:
#      x y z
#    x 1.566340 0.000000 0.000000 
#    y 0.000000 1.566340 0.000000 
#    z 0.000000 0.000000 1.568670 
# 
# From -- ./inp_files/6655.got.cif
#   From: 2010.05.17/outbox.cif.g08.bks.cpg/sg129_4_cif.got.tgz:6655.got - 2010.05.20 12:12:06.
