data_PCOD9565326
_publ_section_title
;
Structure prediction by ZEFSAII (Michael W. Deem and Ramdas Pophale) SiO2 
 PCOD9565326
Probable space group: P 4/N M M
;
_chemical_formula_sum "Si O2"
_cell_formula_units_Z 128
_cell_length_a 23.984739
_cell_length_b 23.984739
_cell_length_c 12.205432
_cell_angle_alpha 90.000000
_cell_angle_beta 90.000000
_cell_angle_gamma 90.000000
_cell_volume 7021.390854
_symmetry_space_group_name_H-M "P 4/N M M"
_symmetry_group_IT_number 129
_symmetry_cell_setting 'tetragonal'
loop_
_space_group_symop_operation_xyz
x,y,z
1/2-y,x,z
1/2-x,1/2-y,z
y,1/2-x,z
1/2+x,-y,-z
-x,1/2+y,-z
1/2+y,1/2+x,-z
-y,-x,-z
-x,-y,-z
1/2+y,-x,-z
1/2+x,1/2+y,-z
-y,1/2+x,-z
1/2-x,y,z
x,1/2-y,z
1/2-y,1/2-x,z
y,x,z
loop_
_atom_site_type_symbol
_atom_site_label
_atom_site_fract_x
_atom_site_fract_y
_atom_site_fract_z
Si Si1 0.183913 0.012990 0.526774
Si Si2 0.907407 0.998045 0.283901
Si Si3 0.407266 0.315001 0.333613
Si Si4 0.687983 0.364741 0.101219
Si Si5 0.029744 0.611633 0.047172
Si Si6 0.873073 0.186855 0.288923
Si Si7 0.065709 0.895309 0.605096
Si Si8 0.507280 0.184902 0.161747
O O1 0.250000 0.001324 0.542367
O O2 0.147067 0.006457 0.637070
O O3 0.179343 0.070903 0.459357
O O4 0.154987 0.972806 0.436613
O O5 0.950500 0.950500 0.318282
O O6 0.894124 0.992552 0.155203
O O7 0.937345 0.058993 0.298896
O O8 0.392796 0.250000 0.317407
O O9 0.357064 0.357064 0.314145
O O10 0.457946 0.327462 0.248202
O O11 0.750000 0.386926 0.097011
O O12 0.645682 0.416047 0.090613
O O13 0.676005 0.328235 0.207384
O O14 0.675187 0.324814 0.000000
O O15 0.053560 0.553560 0.000000
O O16 0.005636 0.646181 0.944856
O O17 0.871079 0.250000 0.329045
O O18 0.876592 0.137069 0.375099
O O19 0.931649 0.179527 0.220094
O O20 0.065312 0.934689 0.500000
O O21 0.502685 0.250000 0.130794
#
# Coordination Sequence:
#
# PCOD9565326 Si02
#       8
#    16  16  16  16  16  16  16  16
#     4  10  21  38  61  85 111 147 190 232 282 346
#     4  11  24  39  57  84 118 153 192 240 293 341
#     4  10  21  37  61  90 116 145 183 228 286 352
#     4  11  21  33  51  75 104 142 188 239 286 328
#     4  11  21  37  54  79 117 152 195 237 291 344
#     4  11  19  34  53  73 105 141 186 236 276 327
#     4  10  20  36  53  79 109 140 183 230 281 330
#     4  10  19  34  57  80 108 150 192 235 282 335
#
# _framework density 18.230005999999999
#
# number of rings (size 3 to 8) (size 9 to 14) (size 15 to 20)
#    0.000    1.500    5.000    1.500    0.000    5.500 
#    0.000    0.625    0.000    0.000    0.000    0.000 
#    0.000    0.000    0.000    6.500    0.000    0.000 
#
# Total GULP energy -712613.197096 kJ/mol
# GULP energy per Si atom -5567.290602 kJ/mol
# Density = 1.818851 g / cm^3
# Si number density = 18.230006 Si / 1000 Ang^3
#
#
#
# Elastic Constant Matrix: (Units=GPa)
#
#
# Indices 1 2 3 4 5 6 
#
# 1 61.0494 40.1064 25.8728 0.0000 0.0000 0.0000
# 2 40.1064 61.0500 25.8731 0.0000 0.0000 0.0000
# 3 25.8728 25.8731 99.0930 0.0000 0.0000 0.0000
# 4 0.0000 0.0000 0.0000 12.7789 0.0000 0.0000
# 5 0.0000 0.0000 0.0000 0.0000 12.7824 0.0000
# 6 0.0000 0.0000 0.0000 0.0000 0.0000 22.9108
#
#
#
# Elastic Compliance Matrix: (Units=1/GPa)
#
#
# Indices 1 2 3 4 5 6 
#
# 1 0.029579 -0.018169 -0.002979 0.000000 0.000000 0.000000
# 2 -0.018169 0.029579 -0.002979 0.000000 0.000000 0.000000
# 3 -0.002979 -0.002979 0.011647 0.000000 0.000000 0.000000
# 4 0.000000 0.000000 0.000000 0.078254 0.000000 0.000000
# 5 0.000000 0.000000 0.000000 0.000000 0.078233 0.000000
# 6 0.000000 0.000000 0.000000 0.000000 0.000000 0.043647
#
#
# Mechanical properties :
#
#
# Convention : Reuss Voigt Hill
#
# Bulk Modulus (GPa) = 44.34531 44.98856 44.66693
# Shear Modulus (GPa) = 15.30409 18.31710 16.81060
#
# Velocity S-wave (km/s) = 2.90056 3.17326 3.03997
# Velocity P-wave (km/s) = 5.96623 6.17722 6.07264
#
# Compressibility (1/GPa) = 0.02255030
#
# Stress axis : x y z
#
# Youngs Moduli (GPa) = 33.80783 33.80812 85.85783
#
# Poissons Ratio (x) = 0.61427 0.25577
# Poissons Ratio (y) = 0.61426 0.25578
# Poissons Ratio (z) = 0.10071 0.10072
#
# Static dielectric constant tensor:
#      x y z
#    x 1.651800 0.000000 0.000000 
#    y 0.000000 1.651800 0.000000 
#    z 0.000000 0.000000 1.694680 
# 
# From -- ./inp_files/4235.got.cif
#   From: 2010.05.17/outbox.cif.g08.bks.cpg/sg129_3_cif.got.tgz:4235.got - 2010.05.20 12:12:06.
