data_PCOD9565794
_publ_section_title
;
Structure prediction by ZEFSAII (Michael W. Deem and Ramdas Pophale) SiO2 
 PCOD9565794
Probable space group: P 4/N C C
;
_chemical_formula_sum "Si O2"
_cell_formula_units_Z 68
_cell_length_a 12.366054
_cell_length_b 12.366054
_cell_length_c 18.149858
_cell_angle_alpha 90.000000
_cell_angle_beta 90.000000
_cell_angle_gamma 90.000000
_cell_volume 2775.463427
_symmetry_space_group_name_H-M "P 4/N C C"
_symmetry_group_IT_number 130
_symmetry_cell_setting 'tetragonal'
loop_
_space_group_symop_operation_xyz
x,y,z
1/2-y,x,z
1/2-x,1/2-y,z
y,1/2-x,z
1/2+x,-y,1/2-z
-x,1/2+y,1/2-z
1/2+y,1/2+x,1/2-z
-y,-x,1/2-z
-x,-y,-z
1/2+y,-x,-z
1/2+x,1/2+y,-z
-y,1/2+x,-z
1/2-x,y,1/2+z
x,1/2-y,1/2+z
1/2-y,1/2-x,1/2+z
y,x,1/2+z
loop_
_atom_site_type_symbol
_atom_site_label
_atom_site_fract_x
_atom_site_fract_y
_atom_site_fract_z
Si Si1 0.972330 0.314238 0.223049
Si Si2 0.963457 0.881315 0.874815
Si Si3 0.843815 0.101598 0.503924
Si Si4 0.250000 0.250000 0.079328
Si Si5 0.919608 0.696263 0.620198
O O1 0.978077 0.200224 0.181970
O O2 0.023533 0.406643 0.170474
O O3 0.050385 0.307299 0.293882
O O4 0.856477 0.356477 0.250000
O O5 0.866730 0.814297 0.913399
O O6 0.047517 0.911071 0.938253
O O7 0.720124 0.115216 0.475515
O O8 0.834804 0.022093 0.572215
O O9 0.878895 0.817210 0.603176
#
# Coordination Sequence:
#
# PCOD9565794 Si02
#       5
#    16  16  16   4  16
#     4  11  22  40  66 100 132 173 224 282 347 408
#     4  10  22  40  67  91 133 177 220 273 348 414
#     4  11  27  47  66  98 144 188 231 282 345 423
#     4   8  20  36  60  90 116 156 212 274 328 388
#     4  11  25  42  68 104 140 173 232 303 345 404
#
# _framework density 24.500412000000001
#
# number of rings (size 3 to 8) (size 9 to 14) (size 15 to 20)
#    0.000    1.412    2.353    1.412    9.882    0.941 
#    0.000    0.000    0.000    4.235    0.000    0.000 
#    0.000    0.000    0.000    0.000    0.000    0.000 
#
# Total GULP energy -380311.433686 kJ/mol
# GULP energy per Si atom -5592.815201 kJ/mol
# Density = 2.444465 g / cm^3
# Si number density = 24.500412 Si / 1000 Ang^3
#
#
#
# Elastic Constant Matrix: (Units=GPa)
#
#
# Indices 1 2 3 4 5 6 
#
# 1 93.8285 11.5419 24.8448 0.0000 0.0000 0.0000
# 2 11.5419 93.8285 24.8448 0.0000 0.0000 0.0000
# 3 24.8448 24.8448 105.9072 0.0000 0.0000 0.0000
# 4 0.0000 0.0000 0.0000 33.6007 0.0000 0.0000
# 5 0.0000 0.0000 0.0000 0.0000 33.6007 0.0000
# 6 0.0000 0.0000 0.0000 0.0000 0.0000 33.0125
#
#
#
# Elastic Compliance Matrix: (Units=1/GPa)
#
#
# Indices 1 2 3 4 5 6 
#
# 1 0.011412 -0.000741 -0.002503 0.000000 0.000000 0.000000
# 2 -0.000741 0.011412 -0.002503 0.000000 0.000000 0.000000
# 3 -0.002503 -0.002503 0.010617 0.000000 0.000000 0.000000
# 4 0.000000 0.000000 0.000000 0.029761 0.000000 0.000000
# 5 0.000000 0.000000 0.000000 0.000000 0.029761 0.000000
# 6 0.000000 0.000000 0.000000 0.000000 0.000000 0.030292
#
#
# Mechanical properties :
#
#
# Convention : Reuss Voigt Hill
#
# Bulk Modulus (GPa) = 45.56798 46.22527 45.89663
# Shear Modulus (GPa) = 35.19535 35.53164 35.36349
#
# Velocity S-wave (km/s) = 3.79426 3.81234 3.80331
# Velocity P-wave (km/s) = 6.15097 6.18762 6.16932
#
# Compressibility (1/GPa) = 0.02194523
#
# Stress axis : x y z
#
# Youngs Moduli (GPa) = 87.62923 87.62923 94.19115
#
# Poissons Ratio (x) = 0.06493 0.23579
# Poissons Ratio (y) = 0.06493 0.23579
# Poissons Ratio (z) = 0.21936 0.21936
#
# Static dielectric constant tensor:
#      x y z
#    x 1.920790 0.000000 0.000000 
#    y 0.000000 1.920790 0.000000 
#    z 0.000000 0.000000 1.940860 
# 
# From -- ./inp_files/2850.got.cif
#   From: 2010.05.17/outbox.cif.g08.bks.cpg/sg130_2_cif.got.tgz:2850.got - 2010.05.20 12:17:35.
