data_PCOD9565856
_publ_section_title
;
Structure prediction by ZEFSAII (Michael W. Deem and Ramdas Pophale) SiO2 
 PCOD9565856
Probable space group: P 4/N C C
;
_chemical_formula_sum "Si O2"
_cell_formula_units_Z 108
_cell_length_a 14.020058
_cell_length_b 14.020058
_cell_length_c 24.774612
_cell_angle_alpha 90.000000
_cell_angle_beta 90.000000
_cell_angle_gamma 90.000000
_cell_volume 4869.747936
_symmetry_space_group_name_H-M "P 4/N C C"
_symmetry_group_IT_number 130
_symmetry_cell_setting 'tetragonal'
loop_
_space_group_symop_operation_xyz
x,y,z
1/2-y,x,z
1/2-x,1/2-y,z
y,1/2-x,z
1/2+x,-y,1/2-z
-x,1/2+y,1/2-z
1/2+y,1/2+x,1/2-z
-y,-x,1/2-z
-x,-y,-z
1/2+y,-x,-z
1/2+x,1/2+y,-z
-y,1/2+x,-z
1/2-x,y,1/2+z
x,1/2-y,1/2+z
1/2-y,1/2-x,1/2+z
y,x,1/2+z
loop_
_atom_site_type_symbol
_atom_site_label
_atom_site_fract_x
_atom_site_fract_y
_atom_site_fract_z
Si Si1 0.370321 0.157534 0.983586
Si Si2 0.075540 0.897384 0.531242
Si Si3 0.081230 0.125889 0.095346
Si Si4 0.481356 0.518645 0.750000
Si Si5 0.042601 0.277229 0.706310
Si Si6 0.750000 0.750000 0.756454
Si Si7 0.293392 0.643448 0.426906
Si Si8 0.397709 0.563809 0.163580
O O1 0.379570 0.267144 0.964620
O O2 0.461007 0.089667 0.973023
O O3 0.365662 0.158939 0.048732
O O4 0.130323 0.875544 0.475060
O O5 0.080671 0.799281 0.563896
O O6 0.129356 0.980030 0.563896
O O7 0.081897 0.196824 0.145934
O O8 0.090628 0.021442 0.120624
O O9 0.374271 0.500585 0.730048
O O10 0.510556 0.447437 0.798543
O O11 0.132826 0.238979 0.739030
O O12 0.964627 0.195075 0.698442
O O13 0.250000 0.750000 0.430175
O O14 0.342013 0.620841 0.370162
#
# Coordination Sequence:
#
# PCOD9565856 Si02
#       8
#    16  16  16   8  16   4  16  16
#     4  11  24  35  56  91 131 176 226 281 332 393
#     4  12  23  40  64  94 144 187 232 281 347 417
#     4  11  22  38  67  99 127 173 225 290 343 406
#     4  10  24  48  69 105 144 174 226 314 376 428
#     4  11  23  43  74 106 133 168 228 299 362 431
#     4  12  20  40  72 108 132 166 228 296 352 420
#     4  12  24  42  63  98 141 193 237 283 341 432
#     4  11  24  45  68 100 134 177 239 287 364 430
#
# _framework density 22.17774
#
# number of rings (size 3 to 8) (size 9 to 14) (size 15 to 20)
#    0.000    0.741    5.926    3.111    2.074    0.000 
#    8.000    0.000    0.000    0.000    0.000    0.000 
#    0.000    0.000    0.000    0.000    0.000    0.000 
#
# Total GULP energy -602739.899242 kJ/mol
# GULP energy per Si atom -5580.924993 kJ/mol
# Density = 2.212726 g / cm^3
# Si number density = 22.177740 Si / 1000 Ang^3
#
#
#
# Elastic Constant Matrix: (Units=GPa)
#
#
# Indices 1 2 3 4 5 6 
#
# 1 87.1940 8.2841 22.8496 0.0000 0.0000 0.0000
# 2 8.2841 87.1939 22.8498 0.0000 0.0000 0.0000
# 3 22.8496 22.8498 40.0918 0.0000 0.0000 0.0000
# 4 0.0000 0.0000 0.0000 27.1547 0.0000 0.0000
# 5 0.0000 0.0000 0.0000 0.0000 27.1544 0.0000
# 6 0.0000 0.0000 0.0000 0.0000 0.0000 551.0284
#
#
#
# Elastic Compliance Matrix: (Units=1/GPa)
#
#
# Indices 1 2 3 4 5 6 
#
# 1 0.013538 0.000865 -0.008208 0.000000 0.000000 0.000000
# 2 0.000865 0.013538 -0.008208 0.000000 0.000000 0.000000
# 3 -0.008208 -0.008208 0.034299 0.000000 0.000000 0.000000
# 4 0.000000 0.000000 0.000000 0.036826 0.000000 0.000000
# 5 0.000000 0.000000 0.000000 0.000000 0.036826 0.000000
# 6 0.000000 0.000000 0.000000 0.000000 0.000000 0.001815
#
#
# Mechanical properties :
#
#
# Convention : Reuss Voigt Hill
#
# Bulk Modulus (GPa) = 33.03557 35.82743 34.43150
# Shear Modulus (GPa) = 28.08421 131.76725 79.92573
#
# Velocity S-wave (km/s) = 3.56241 7.71642 6.00974
# Velocity P-wave (km/s) = 5.64350 9.77654 7.98216
#
# Compressibility (1/GPa) = 0.03027041
#
# Stress axis : x y z
#
# Youngs Moduli (GPa) = 73.86854 73.86830 29.15512
#
# Poissons Ratio (x) = -0.06389 0.23932
# Poissons Ratio (y) = -0.06389 0.23932
# Poissons Ratio (z) = 0.60634 0.60635
#
# Static dielectric constant tensor:
#      x y z
#    x 1.859100 0.000000 0.000000 
#    y 0.000000 1.859100 0.000000 
#    z 0.000000 0.000000 1.843100 
# 
# From -- ./inp_files/4322.got.cif
#   From: 2010.05.17/outbox.cif.g08.bks.cpg/sg130_3_cif.got.tgz:4322.got - 2010.05.20 12:17:35.
