data_PCOD9565340
_publ_section_title
;
Structure prediction by ZEFSAII (Michael W. Deem and Ramdas Pophale) SiO2 
 PCOD9565340
Probable space group: P 4/N M M
;
_chemical_formula_sum "Si O2"
_cell_formula_units_Z 80
_cell_length_a 13.567384
_cell_length_b 13.567384
_cell_length_c 26.514656
_cell_angle_alpha 90.000000
_cell_angle_beta 90.000000
_cell_angle_gamma 90.000000
_cell_volume 4880.656365
_symmetry_space_group_name_H-M "P 4/N M M"
_symmetry_group_IT_number 129
_symmetry_cell_setting 'tetragonal'
loop_
_space_group_symop_operation_xyz
x,y,z
1/2-y,x,z
1/2-x,1/2-y,z
y,1/2-x,z
1/2+x,-y,-z
-x,1/2+y,-z
1/2+y,1/2+x,-z
-y,-x,-z
-x,-y,-z
1/2+y,-x,-z
1/2+x,1/2+y,-z
-y,1/2+x,-z
1/2-x,y,z
x,1/2-y,z
1/2-y,1/2-x,z
y,x,z
loop_
_atom_site_type_symbol
_atom_site_label
_atom_site_fract_x
_atom_site_fract_y
_atom_site_fract_z
Si Si1 0.367877 0.527307 0.639845
Si Si2 0.630155 0.136767 0.853271
Si Si3 0.363174 0.869661 0.257306
Si Si4 0.633116 0.030746 0.547416
Si Si5 0.366875 0.526604 0.044562
O O1 0.250000 0.519040 0.635834
O O2 0.424037 0.424037 0.632512
O O3 0.394338 0.570777 0.694819
O O4 0.410194 0.600817 0.597512
O O5 0.750000 0.139148 0.851494
O O6 0.596690 0.250000 0.859780
O O7 0.599717 0.098425 0.797982
O O8 0.602961 0.073104 0.901602
O O9 0.250000 0.903292 0.264793
O O10 0.360016 0.750000 0.254676
O O11 0.593907 0.093907 0.500000
O O12 0.750000 0.016512 0.545090
O O13 0.571318 0.928683 0.547015
O O14 0.250000 0.513880 0.043943
O O15 0.425456 0.425456 0.037079
O O16 0.400613 0.599387 0.000000
#
# Coordination Sequence:
#
# PCOD9565340 Si02
#       5
#    16  16  16  16  16
#     4  10  20  32  47  69  96 128 166 204 242 283
#     4   8  14  26  45  68  92 117 148 189 233 275
#     4   8  14  26  45  68  92 118 151 193 238 279
#     4  10  21  36  54  77 102 128 160 196 236 283
#     4  10  20  32  47  68  92 120 154 190 231 278
#
# _framework density 16.391238000000001
#
# number of rings (size 3 to 8) (size 9 to 14) (size 15 to 20)
#    0.000    2.800    0.000    3.000    0.000    4.600 
#    0.000    0.000    0.000    3.600    0.000    0.000 
#    0.000    9.600    0.000    0.000    0.000    0.000 
#
# Total GULP energy -445685.867285 kJ/mol
# GULP energy per Si atom -5571.073341 kJ/mol
# Density = 1.635393 g / cm^3
# Si number density = 16.391238 Si / 1000 Ang^3
#
#
#
# Elastic Constant Matrix: (Units=GPa)
#
#
# Indices 1 2 3 4 5 6 
#
# 1 40.7940 95.3967 41.3382 0.0000 0.0000 0.0000
# 2 95.3967 40.8629 41.3600 0.0000 0.0000 0.0000
# 3 41.3382 41.3600 127.5434 0.0000 0.0000 0.0000
# 4 0.0000 0.0000 0.0000 10.4060 0.0000 0.0000
# 5 0.0000 0.0000 0.0000 0.0000 10.4033 0.0000
# 6 0.0000 0.0000 0.0000 0.0000 0.0000 7.4404
#
#
#
# Elastic Compliance Matrix: (Units=1/GPa)
#
#
# Indices 1 2 3 4 5 6 
#
# 1 -0.004598 0.013733 -0.002963 0.000000 0.000000 0.000000
# 2 0.013733 -0.004588 -0.002963 0.000000 0.000000 0.000000
# 3 -0.002963 -0.002963 0.009762 0.000000 0.000000 0.000000
# 4 0.000000 0.000000 0.000000 0.096098 0.000000 0.000000
# 5 0.000000 0.000000 0.000000 0.000000 0.096123 0.000000
# 6 0.000000 0.000000 0.000000 0.000000 0.000000 0.134401
#
#
# Mechanical properties :
#
#
# Convention : Reuss Voigt Hill
#
# Bulk Modulus (GPa) = 61.77143 62.82113 62.29628
# Shear Modulus (GPa) = 15.77379 7.72364 11.74871
#
# Velocity S-wave (km/s) = 3.10551 2.17308 2.68016
# Velocity P-wave (km/s) = 7.11522 6.68623 6.90406
#
# Compressibility (1/GPa) = 0.01618871
#
# Stress axis : x y z
#
# Youngs Moduli (GPa) = -217.50214 -217.93677 102.44163
#
# Poissons Ratio (x) = 2.99284 0.30354
# Poissons Ratio (y) = 2.98687 0.30353
# Poissons Ratio (z) = -0.64448 -0.64573
#
# Static dielectric constant tensor:
#      x y z
#    x 1.527470 0.000000 0.000000 
#    y 0.000000 1.527470 0.000000 
#    z 0.000000 0.000000 1.579140 
# 
# From -- ./inp_files/6925.got.cif
#   From: 2010.05.17/outbox.cif.g08.bks.cpg/sg129_4_cif.got.tgz:6925.got - 2010.05.20 12:12:06.
