data_PCOD9565076
_publ_section_title
;
Structure prediction by ZEFSAII (Michael W. Deem and Ramdas Pophale) SiO2 
 PCOD9565076
Probable space group: P 4/M N C
;
_chemical_formula_sum "Si O2"
_cell_formula_units_Z 48
_cell_length_a 9.123376
_cell_length_b 9.123376
_cell_length_c 22.074648
_cell_angle_alpha 90.000000
_cell_angle_beta 90.000000
_cell_angle_gamma 90.000000
_cell_volume 1837.405172
_symmetry_space_group_name_H-M "P 4/M N C"
_symmetry_group_IT_number 128
_symmetry_cell_setting 'tetragonal'
loop_
_space_group_symop_operation_xyz
x,y,z
-y,x,z
-x,-y,z
y,-x,z
1/2+x,1/2-y,1/2-z
1/2-x,1/2+y,1/2-z
1/2+y,1/2+x,1/2-z
1/2-y,1/2-x,1/2-z
-x,-y,-z
y,-x,-z
x,y,-z
-y,x,-z
1/2-x,1/2+y,1/2+z
1/2+x,1/2-y,1/2+z
1/2-y,1/2-x,1/2+z
1/2+y,1/2+x,1/2+z
loop_
_atom_site_type_symbol
_atom_site_label
_atom_site_fract_x
_atom_site_fract_y
_atom_site_fract_z
Si Si1 0.774568 0.935859 0.927101
Si Si2 0.462205 0.273537 0.899130
Si Si3 0.542731 0.273253 0.756885
O O1 0.615200 0.880715 0.908688
O O2 0.903462 0.824921 0.906191
O O3 0.777575 0.938681 0.000000
O O4 0.613447 0.338403 0.924417
O O5 0.502375 0.284174 0.828068
O O6 0.664919 0.388805 0.731800
O O7 0.615295 0.115295 0.750000
#
# Coordination Sequence:
#
# PCOD9565076 Si02
#       3
#    16  16  16
#     4   9  19  37  61  92 129 166 208 256 303 359
#     4   9  19  37  57  86 125 161 202 254 310 367
#     4   9  19  39  62  88 122 158 202 257 312 368
#
# _framework density 26.123798000000001
#
# number of rings (size 3 to 8) (size 9 to 14) (size 15 to 20)
#    0.000    3.000    0.000    3.000    0.000    3.333 
#    0.000   38.333    0.000   16.000    0.000    0.000 
#    0.000    0.000    0.000    0.000    0.000    0.000 
#
# Total GULP energy -267568.428569 kJ/mol
# GULP energy per Si atom -5574.342262 kJ/mol
# Density = 2.606434 g / cm^3
# Si number density = 26.123798 Si / 1000 Ang^3
#
#
#
# Elastic Constant Matrix: (Units=GPa)
#
#
# Indices 1 2 3 4 5 6 
#
# 1 103.6190 159.7435 18.8707 0.0000 0.0000 0.0000
# 2 159.7435 103.6190 18.8707 0.0000 0.0000 0.0000
# 3 18.8707 18.8707 78.3026 0.0000 0.0000 0.0000
# 4 0.0000 0.0000 0.0000 47.9101 0.0000 0.0000
# 5 0.0000 0.0000 0.0000 0.0000 47.9101 0.0000
# 6 0.0000 0.0000 0.0000 0.0000 0.0000 87.0658
#
#
#
# Elastic Compliance Matrix: (Units=1/GPa)
#
#
# Indices 1 2 3 4 5 6 
#
# 1 -0.006942 0.010875 -0.000948 0.000000 0.000000 0.000000
# 2 0.010875 -0.006942 -0.000948 0.000000 0.000000 0.000000
# 3 -0.000948 -0.000948 0.013228 0.000000 0.000000 0.000000
# 4 0.000000 0.000000 0.000000 0.020872 0.000000 0.000000
# 5 0.000000 0.000000 0.000000 0.000000 0.020872 0.000000
# 6 0.000000 0.000000 0.000000 0.000000 0.000000 0.011486
#
#
# Mechanical properties :
#
#
# Convention : Reuss Voigt Hill
#
# Bulk Modulus (GPa) = 57.79574 75.61225 66.70399
# Shear Modulus (GPa) = 123.81801 42.44758 83.13279
#
# Velocity S-wave (km/s) = 6.89199 4.03533 5.64727
# Velocity P-wave (km/s) = 9.24687 7.12169 8.25297
#
# Compressibility (1/GPa) = 0.01730231
#
# Stress axis : x y z
#
# Youngs Moduli (GPa) = -144.04395 -144.04395 75.59833
#
# Poissons Ratio (x) = 1.56651 0.07165
# Poissons Ratio (y) = 1.56651 0.07165
# Poissons Ratio (z) = -0.13653 -0.13653
#
# Static dielectric constant tensor:
#      x y z
#    x 2.095290 0.000000 0.000000 
#    y 0.000000 2.095290 0.000000 
#    z 0.000000 0.000000 2.054080 
# 
# From -- ./inp_files/6980.got.cif
#   From: 2010.05.17/outbox.cif.g08.bks.cpg/sg128_4_cif.got.tgz:6980.got - 2010.05.20 12:07:25.
