data_PCOD9565078
_publ_section_title
;
Structure prediction by ZEFSAII (Michael W. Deem and Ramdas Pophale) SiO2 
 PCOD9565078
Probable space group: P 4/M N C
;
_chemical_formula_sum "Si O2"
_cell_formula_units_Z 96
_cell_length_a 24.000000
_cell_length_b 24.000000
_cell_length_c 9.000000
_cell_angle_alpha 90.000000
_cell_angle_beta 90.000000
_cell_angle_gamma 90.000000
_cell_volume 5184.000000
_symmetry_space_group_name_H-M "P 4/M N C"
_symmetry_group_IT_number 128
_symmetry_cell_setting 'tetragonal'
loop_
_space_group_symop_operation_xyz
x,y,z
-y,x,z
-x,-y,z
y,-x,z
1/2+x,1/2-y,1/2-z
1/2-x,1/2+y,1/2-z
1/2+y,1/2+x,1/2-z
1/2-y,1/2-x,1/2-z
-x,-y,-z
y,-x,-z
x,y,-z
-y,x,-z
1/2-x,1/2+y,1/2+z
1/2+x,1/2-y,1/2+z
1/2-y,1/2-x,1/2+z
1/2+y,1/2+x,1/2+z
loop_
_atom_site_type_symbol
_atom_site_label
_atom_site_fract_x
_atom_site_fract_y
_atom_site_fract_z
Si Si1 0.431746 0.740093 0.679813
Si Si2 0.569044 0.847777 0.178332
Si Si3 0.363473 0.644154 0.673861
Si Si4 0.077889 0.948720 0.334723
Si Si5 0.953164 0.632203 0.179364
Si Si6 0.556319 0.727255 0.318412
O O1 0.429976 0.737137 0.500000
O O2 0.379034 0.704885 0.736757
O O3 0.433272 0.804984 0.717859
O O4 0.492039 0.714766 0.723772
O O5 0.620384 0.879617 0.250000
O O6 0.513137 0.874996 0.245326
O O7 0.569187 0.785553 0.242098
O O8 0.569312 0.849240 0.000000
O O9 0.351247 0.649934 0.500000
O O10 0.420776 0.611551 0.703352
O O11 0.316556 0.602724 0.733728
O O12 0.100107 0.933804 0.500000
O O13 0.014890 0.926285 0.325977
O O14 0.911091 0.588910 0.250000
O O15 0.957018 0.627814 0.000000
O O16 0.557645 0.731803 0.500000
#
# Coordination Sequence:
#
# PCOD9565078 Si02
#       6
#    16  16  16  16  16  16
#     4   8  16  31  50  74 106 142 177 219 267 312
#     4  11  22  38  60  84 110 140 174 212 261 317
#     4  10  18  30  51  75  99 135 183 226 265 312
#     4   9  18  30  41  59  93 132 169 219 280 328
#     4  10  20  37  59  84 114 143 174 213 260 314
#     4   9  18  33  52  76 109 144 179 223 271 316
#
# _framework density 18.518519000000001
#
# number of rings (size 3 to 8) (size 9 to 14) (size 15 to 20)
#    0.000    2.500    0.000    4.500    0.000    3.000 
#    0.000    9.167    0.000    2.000    0.000    0.000 
#    0.000    0.000    0.000    0.000    0.000    0.000 
#
# Total GULP energy -534573.972620 kJ/mol
# GULP energy per Si atom -5568.478881 kJ/mol
# Density = 1.847637 g / cm^3
# Si number density = 18.518519 Si / 1000 Ang^3
#
#
#
# Elastic Constant Matrix: (Units=GPa)
#
#
# Indices 1 2 3 4 5 6 
#
# 1 64.3798 57.5601 17.2803 0.0000 0.0000 0.0000
# 2 57.5601 64.3953 17.2813 0.0000 0.0000 0.0000
# 3 17.2803 17.2813 35.4285 0.0000 0.0000 0.0000
# 4 0.0000 0.0000 0.0000 16.1730 0.0000 0.0000
# 5 0.0000 0.0000 0.0000 0.0000 16.1724 0.0000
# 6 0.0000 0.0000 0.0000 0.0000 0.0000 38.2122
#
#
#
# Elastic Compliance Matrix: (Units=1/GPa)
#
#
# Indices 1 2 3 4 5 6 
#
# 1 0.078001 -0.068475 -0.004644 0.000000 0.000000 0.000000
# 2 -0.068475 0.077981 -0.004639 0.000000 0.000000 0.000000
# 3 -0.004644 -0.004639 0.032754 0.000000 0.000000 0.000000
# 4 0.000000 0.000000 0.000000 0.061832 0.000000 0.000000
# 5 0.000000 0.000000 0.000000 0.000000 0.061834 0.000000
# 6 0.000000 0.000000 0.000000 0.000000 0.000000 0.026170
#
#
# Mechanical properties :
#
#
# Convention : Reuss Voigt Hill
#
# Bulk Modulus (GPa) = 30.10289 38.71633 34.40961
# Shear Modulus (GPa) = 9.89785 18.91699 14.40742
#
# Velocity S-wave (km/s) = 2.31440 3.19959 2.79229
# Velocity P-wave (km/s) = 4.84074 5.88235 5.38678
#
# Compressibility (1/GPa) = 0.03321940
#
# Stress axis : x y z
#
# Youngs Moduli (GPa) = 12.82033 12.82365 30.53087
#
# Poissons Ratio (x) = 0.87810 0.14179
# Poissons Ratio (y) = 0.87788 0.14162
# Poissons Ratio (z) = 0.05954 0.05948
#
# Static dielectric constant tensor:
#      x y z
#    x 1.672960 0.000000 0.000000 
#    y 0.000000 1.672960 0.000000 
#    z 0.000000 0.000000 1.627160 
# 
# From -- ./inp_files/1416.got.cif
#   From: 2010.05.17/outbox.ucp.g08.bks.cvg/sg128_1_cif.got.tgz:1416.got - 2010.06.11 11:37:33.
