data_PCOD9565705
_publ_section_title
;
Structure prediction by ZEFSAII (Michael W. Deem and Ramdas Pophale) SiO2 
 PCOD9565705
Probable space group: P 4/N C C
;
_chemical_formula_sum "Si O2"
_cell_formula_units_Z 80
_cell_length_a 25.858345
_cell_length_b 25.858345
_cell_length_c 5.497009
_cell_angle_alpha 90.000000
_cell_angle_beta 90.000000
_cell_angle_gamma 90.000000
_cell_volume 3675.597090
_symmetry_space_group_name_H-M "P 4/N C C"
_symmetry_group_IT_number 130
_symmetry_cell_setting 'tetragonal'
loop_
_space_group_symop_operation_xyz
x,y,z
1/2-y,x,z
1/2-x,1/2-y,z
y,1/2-x,z
1/2+x,-y,1/2-z
-x,1/2+y,1/2-z
1/2+y,1/2+x,1/2-z
-y,-x,1/2-z
-x,-y,-z
1/2+y,-x,-z
1/2+x,1/2+y,-z
-y,1/2+x,-z
1/2-x,y,1/2+z
x,1/2-y,1/2+z
1/2-y,1/2-x,1/2+z
y,x,1/2+z
loop_
_atom_site_type_symbol
_atom_site_label
_atom_site_fract_x
_atom_site_fract_y
_atom_site_fract_z
Si Si1 0.421523 0.622140 0.001432
Si Si2 0.278835 0.030750 0.477370
Si Si3 0.258674 0.583749 0.487715
Si Si4 0.938247 0.526000 0.093843
Si Si5 0.864251 0.614412 0.578115
O O1 0.390763 0.609238 0.250000
O O2 0.434515 0.682404 0.002834
O O3 0.393047 0.606954 0.750000
O O4 0.474602 0.590834 0.018005
O O5 0.255257 0.045395 0.740316
O O6 0.332437 0.060791 0.441089
O O7 0.277608 0.967797 0.481630
O O8 0.248586 0.613066 0.736598
O O9 0.976036 0.541095 0.870499
O O10 0.898811 0.574651 0.093595
O O11 0.853143 0.642592 0.832241
#
# Coordination Sequence:
#
# PCOD9565705 Si02
#       5
#    16  16  16  16  16
#     4  12  26  43  62  92 136 180 224 261 312 390
#     4  10  21  34  59  86 117 160 210 277 321 356
#     4  10  23  38  67  88 121 165 226 266 326 357
#     4  10  23  35  60  77 127 175 226 249 300 353
#     4  10  21  34  56  87 122 160 203 269 317 362
#
# _framework density 21.765170000000001
#
# number of rings (size 3 to 8) (size 9 to 14) (size 15 to 20)
#    0.000    1.600    0.000    3.600   22.400    2.400 
#    0.000    0.000    0.000    0.000    0.000    0.000 
#    0.000   56.000    0.000    0.000    0.000    0.000 
#
# Total GULP energy -446811.837108 kJ/mol
# GULP energy per Si atom -5585.147964 kJ/mol
# Density = 2.171563 g / cm^3
# Si number density = 21.765170 Si / 1000 Ang^3
#
#
#
# Elastic Constant Matrix: (Units=GPa)
#
#
# Indices 1 2 3 4 5 6 
#
# 1 31.3050 6.9546 22.2977 0.0000 0.0000 0.0000
# 2 6.9546 31.3079 22.2974 0.0000 0.0000 0.0000
# 3 22.2977 22.2974 240.8351 0.0000 0.0000 0.0000
# 4 0.0000 0.0000 0.0000 26.6875 0.0000 0.0000
# 5 0.0000 0.0000 0.0000 0.0000 26.6858 0.0000
# 6 0.0000 0.0000 0.0000 0.0000 0.0000 13.5470
#
#
#
# Elastic Compliance Matrix: (Units=1/GPa)
#
#
# Indices 1 2 3 4 5 6 
#
# 1 0.035183 -0.005883 -0.002713 0.000000 0.000000 0.000000
# 2 -0.005883 0.035179 -0.002712 0.000000 0.000000 0.000000
# 3 -0.002713 -0.002712 0.004654 0.000000 0.000000 0.000000
# 4 0.000000 0.000000 0.000000 0.037471 0.000000 0.000000
# 5 0.000000 0.000000 0.000000 0.000000 0.037473 0.000000
# 6 0.000000 0.000000 0.000000 0.000000 0.000000 0.073817
#
#
# Mechanical properties :
#
#
# Convention : Reuss Voigt Hill
#
# Bulk Modulus (GPa) = 19.08395 45.17191 32.12793
# Shear Modulus (GPa) = 18.94936 30.17730 24.56333
#
# Velocity S-wave (km/s) = 2.95384 3.72761 3.36305
# Velocity P-wave (km/s) = 4.51893 6.27105 5.46565
#
# Compressibility (1/GPa) = 0.05240006
#
# Stress axis : x y z
#
# Youngs Moduli (GPa) = 28.42286 28.42571 214.84635
#
# Poissons Ratio (x) = 0.16724 0.58281
# Poissons Ratio (y) = 0.16722 0.58273
# Poissons Ratio (z) = 0.07710 0.07710
#
# Static dielectric constant tensor:
#      x y z
#    x 1.792310 0.000000 0.000000 
#    y 0.000000 1.792310 0.000000 
#    z 0.000000 0.000000 1.955680 
# 
# From -- ./inp_files/218.got.cif
#   From: 2010.05.17/outbox.cif.g08.bks.cpg/sg130_1_cif.got.tgz:218.got - 2010.05.20 12:17:35.
