data_PCOD9565617
_publ_section_title
;
Structure prediction by ZEFSAII (Michael W. Deem and Ramdas Pophale) SiO2 
 PCOD9565617
Probable space group: P 4/N C C
;
_chemical_formula_sum "Si O2"
_cell_formula_units_Z 96
_cell_length_a 20.405073
_cell_length_b 20.405073
_cell_length_c 10.573630
_cell_angle_alpha 90.000000
_cell_angle_beta 90.000000
_cell_angle_gamma 90.000000
_cell_volume 4402.510646
_symmetry_space_group_name_H-M "P 4/N C C"
_symmetry_group_IT_number 130
_symmetry_cell_setting 'tetragonal'
loop_
_space_group_symop_operation_xyz
x,y,z
1/2-y,x,z
1/2-x,1/2-y,z
y,1/2-x,z
1/2+x,-y,1/2-z
-x,1/2+y,1/2-z
1/2+y,1/2+x,1/2-z
-y,-x,1/2-z
-x,-y,-z
1/2+y,-x,-z
1/2+x,1/2+y,-z
-y,1/2+x,-z
1/2-x,y,1/2+z
x,1/2-y,1/2+z
1/2-y,1/2-x,1/2+z
y,x,1/2+z
loop_
_atom_site_type_symbol
_atom_site_label
_atom_site_fract_x
_atom_site_fract_y
_atom_site_fract_z
Si Si1 0.398711 0.805903 0.463749
Si Si2 0.581643 0.562984 0.936928
Si Si3 0.696977 0.539210 0.771341
Si Si4 0.056649 0.291608 0.509934
Si Si5 0.884862 0.222650 0.768141
Si Si6 0.443047 0.925626 0.102448
O O1 0.478209 0.800854 0.467467
O O2 0.375771 0.763821 0.583454
O O3 0.369440 0.777259 0.335436
O O4 0.390337 0.884238 0.472673
O O5 0.620874 0.546761 0.808854
O O6 0.591166 0.639181 0.965259
O O7 0.503713 0.555073 0.920451
O O8 0.601759 0.511792 0.048297
O O9 0.736096 0.571415 0.887823
O O10 0.721296 0.567263 0.637968
O O11 0.708071 0.461374 0.756750
O O12 0.840949 0.159052 0.750000
O O13 0.423175 0.923175 0.250000
#
# Coordination Sequence:
#
# PCOD9565617 Si02
#       6
#    16  16  16  16  16  16
#     4   9  20  35  53  80 112 149 197 242 295 355
#     4  10  20  34  55  86 119 149 190 246 304 362
#     4  10  20  35  57  83 117 155 195 241 294 359
#     4   9  20  35  53  82 116 155 194 234 290 358
#     4  10  20  36  57  80 109 150 198 247 295 352
#     4  10  20  33  55  85 117 150 190 247 309 364
#
# _framework density 21.805741000000001
#
# number of rings (size 3 to 8) (size 9 to 14) (size 15 to 20)
#    0.000    2.333    0.000    2.000    0.000   12.667 
#    0.000    0.000    0.000    4.500    0.000    2.333 
#    0.000    0.000    0.000    0.000    0.000    0.000 
#
# Total GULP energy -535398.843139 kJ/mol
# GULP energy per Si atom -5577.071283 kJ/mol
# Density = 2.175611 g / cm^3
# Si number density = 21.805741 Si / 1000 Ang^3
#
#
#
# Elastic Constant Matrix: (Units=GPa)
#
#
# Indices 1 2 3 4 5 6 
#
# 1 45.2160 27.2960 53.9879 0.0000 0.0000 0.0000
# 2 27.2960 45.2225 53.9835 0.0000 0.0000 0.0000
# 3 53.9879 53.9835 128.9215 0.0000 0.0000 0.0000
# 4 0.0000 0.0000 0.0000 23.9692 0.0000 0.0000
# 5 0.0000 0.0000 0.0000 0.0000 23.9687 0.0000
# 6 0.0000 0.0000 0.0000 0.0000 0.0000 13.7446
#
#
#
# Elastic Compliance Matrix: (Units=1/GPa)
#
#
# Indices 1 2 3 4 5 6 
#
# 1 0.046221 -0.009583 -0.015343 0.000000 0.000000 0.000000
# 2 -0.009583 0.046200 -0.015332 0.000000 0.000000 0.000000
# 3 -0.015343 -0.015332 0.020602 0.000000 0.000000 0.000000
# 4 0.000000 0.000000 0.000000 0.041720 0.000000 0.000000
# 5 0.000000 0.000000 0.000000 0.000000 0.041721 0.000000
# 6 0.000000 0.000000 0.000000 0.000000 0.000000 0.072756
#
#
# Mechanical properties :
#
#
# Convention : Reuss Voigt Hill
#
# Bulk Modulus (GPa) = 30.76387 54.43274 42.59830
# Shear Modulus (GPa) = 13.86689 17.94267 15.90478
#
# Velocity S-wave (km/s) = 2.52450 2.87163 2.70364
# Velocity P-wave (km/s) = 4.75775 6.00098 5.41517
#
# Compressibility (1/GPa) = 0.03250567
#
# Stress axis : x y z
#
# Youngs Moduli (GPa) = 21.63539 21.64513 48.53963
#
# Poissons Ratio (x) = 0.20743 0.74473
# Poissons Ratio (y) = 0.20734 0.74422
# Poissons Ratio (z) = 0.33195 0.33187
#
# Static dielectric constant tensor:
#      x y z
#    x 1.792050 0.000000 0.000000 
#    y 0.000000 1.792040 0.000000 
#    z 0.000000 0.000000 1.883250 
# 
# From -- ./inp_files/945.got.cif
#   From: 2010.05.17/outbox.cif.g08.bks.cpg/sg130_1_cif.got.tgz:945.got - 2010.05.20 12:17:35.
