data_PCOD9565028
_publ_section_title
;
Structure prediction by ZEFSAII (Michael W. Deem and Ramdas Pophale) SiO2 
 PCOD9565028
Probable space group: P 4/M N C
;
_chemical_formula_sum "Si O2"
_cell_formula_units_Z 44
_cell_length_a 7.578050
_cell_length_b 7.578050
_cell_length_c 31.044382
_cell_angle_alpha 90.000000
_cell_angle_beta 90.000000
_cell_angle_gamma 90.000000
_cell_volume 1782.780814
_symmetry_space_group_name_H-M "P 4/M N C"
_symmetry_group_IT_number 128
_symmetry_cell_setting 'tetragonal'
loop_
_space_group_symop_operation_xyz
x,y,z
-y,x,z
-x,-y,z
y,-x,z
1/2+x,1/2-y,1/2-z
1/2-x,1/2+y,1/2-z
1/2+y,1/2+x,1/2-z
1/2-y,1/2-x,1/2-z
-x,-y,-z
y,-x,-z
x,y,-z
-y,x,-z
1/2-x,1/2+y,1/2+z
1/2+x,1/2-y,1/2+z
1/2-y,1/2-x,1/2+z
1/2+y,1/2+x,1/2+z
loop_
_atom_site_type_symbol
_atom_site_label
_atom_site_fract_x
_atom_site_fract_y
_atom_site_fract_z
Si Si1 0.863685 0.732584 0.500000
Si Si2 0.768185 0.607507 0.314863
Si Si3 0.000000 0.500000 0.750000
Si Si4 0.865486 0.732854 0.407015
O O1 0.823021 0.648266 0.453717
O O2 0.073683 0.773707 0.500000
O O3 0.594222 0.717269 0.304777
O O4 0.809989 0.626500 0.365172
O O5 0.935847 0.647682 0.285278
O O6 0.074731 0.773278 0.405127
#
# Coordination Sequence:
#
# PCOD9565028 Si02
#       4
#     8  16   4  16
#     4   7  12  26  52  87 124 163 206 238 264 323
#     4  11  24  40  59  85 115 147 191 252 312 363
#     4  12  24  44  64  78 104 148 196 240 304 390
#     4   9  17  33  60  92 126 165 203 237 279 341
#
# _framework density 24.680541999999999
#
# number of rings (size 3 to 8) (size 9 to 14) (size 15 to 20)
#    0.000    2.364    0.000    5.455    0.000    0.000 
#    0.000    5.455    0.000    9.818    0.000    0.000 
#    0.000    0.000    0.000    0.000    0.000    0.000 
#
# Total GULP energy -245305.088237 kJ/mol
# GULP energy per Si atom -5575.115642 kJ/mol
# Density = 2.462437 g / cm^3
# Si number density = 24.680542 Si / 1000 Ang^3
#
#
#
# Elastic Constant Matrix: (Units=GPa)
#
#
# Indices 1 2 3 4 5 6 
#
# 1 79.2181 34.4076 27.7558 0.0000 0.0000 0.0000
# 2 34.4076 79.2181 27.7558 0.0000 0.0000 0.0000
# 3 27.7558 27.7558 174.8504 0.0000 0.0000 0.0000
# 4 0.0000 0.0000 0.0000 37.3468 0.0000 0.0000
# 5 0.0000 0.0000 0.0000 0.0000 37.3468 0.0000
# 6 0.0000 0.0000 0.0000 0.0000 0.0000 28.6104
#
#
#
# Elastic Compliance Matrix: (Units=1/GPa)
#
#
# Indices 1 2 3 4 5 6 
#
# 1 0.015928 -0.006388 -0.001514 0.000000 0.000000 0.000000
# 2 -0.006388 0.015928 -0.001514 0.000000 0.000000 0.000000
# 3 -0.001514 -0.001514 0.006200 0.000000 0.000000 0.000000
# 4 0.000000 0.000000 0.000000 0.026776 0.000000 0.000000
# 5 0.000000 0.000000 0.000000 0.000000 0.026776 0.000000
# 6 0.000000 0.000000 0.000000 0.000000 0.000000 0.034952
#
#
# Mechanical properties :
#
#
# Convention : Reuss Voigt Hill
#
# Bulk Modulus (GPa) = 52.01976 57.01390 54.51683
# Shear Modulus (GPa) = 32.93750 36.88529 34.91140
#
# Velocity S-wave (km/s) = 3.65712 3.87008 3.76511
# Velocity P-wave (km/s) = 6.24145 6.56665 6.40611
#
# Compressibility (1/GPa) = 0.01922347
#
# Stress axis : x y z
#
# Youngs Moduli (GPa) = 62.78069 62.78069 161.29037
#
# Poissons Ratio (x) = 0.40103 0.24427
# Poissons Ratio (y) = 0.40103 0.24427
# Poissons Ratio (z) = 0.09508 0.09508
#
# Static dielectric constant tensor:
#      x y z
#    x 2.114820 0.000000 0.000000 
#    y 0.000000 2.114820 0.000000 
#    z 0.000000 0.000000 1.983360 
# 
# From -- ./inp_files/6998.got.cif
#   From: 2010.05.17/outbox.cif.g08.bks.cpg/sg128_4_cif.got.tgz:6998.got - 2010.05.20 12:07:25.
