data_PCOD9565463
_publ_section_title
;
Structure prediction by ZEFSAII (Michael W. Deem and Ramdas Pophale) SiO2 
 PCOD9565463
Probable space group: P 4/N M M
;
_chemical_formula_sum "Si O2"
_cell_formula_units_Z 64
_cell_length_a 13.496186
_cell_length_b 13.496186
_cell_length_c 20.887527
_cell_angle_alpha 90.000000
_cell_angle_beta 90.000000
_cell_angle_gamma 90.000000
_cell_volume 3804.601144
_symmetry_space_group_name_H-M "P 4/N M M"
_symmetry_group_IT_number 129
_symmetry_cell_setting 'tetragonal'
loop_
_space_group_symop_operation_xyz
x,y,z
1/2-y,x,z
1/2-x,1/2-y,z
y,1/2-x,z
1/2+x,-y,-z
-x,1/2+y,-z
1/2+y,1/2+x,-z
-y,-x,-z
-x,-y,-z
1/2+y,-x,-z
1/2+x,1/2+y,-z
-y,1/2+x,-z
1/2-x,y,z
x,1/2-y,z
1/2-y,1/2-x,z
y,x,z
loop_
_atom_site_type_symbol
_atom_site_label
_atom_site_fract_x
_atom_site_fract_y
_atom_site_fract_z
Si Si1 0.633240 0.468784 0.681830
Si Si2 0.031770 0.632416 0.439104
Si Si3 0.968851 0.366881 0.798998
Si Si4 0.135899 0.970962 0.945293
O O1 0.750000 0.483559 0.675246
O O2 0.571009 0.571009 0.679972
O O3 0.590392 0.401814 0.624274
O O4 0.605758 0.413770 0.747929
O O5 0.094308 0.594308 0.500000
O O6 0.018042 0.750000 0.440704
O O7 0.928537 0.571464 0.439871
O O8 0.982814 0.250000 0.787475
O O9 0.934040 0.380222 0.872495
O O10 0.071256 0.428745 0.792403
O O11 0.250000 0.998914 0.950902
O O12 0.106123 0.893878 0.000000
O O13 0.065689 0.065689 0.954007
#
# Coordination Sequence:
#
# PCOD9565463 Si02
#       4
#    16  16  16  16
#     4  10  21  36  53  74 100 130 166 206 246 291
#     4  10  21  36  54  78 106 135 169 207 247 293
#     4   9  18  32  50  73  99 127 160 198 242 292
#     4   9  18  32  49  70  97 127 160 200 243 288
#
# _framework density 16.821736999999999
#
# number of rings (size 3 to 8) (size 9 to 14) (size 15 to 20)
#    0.000    2.500    0.000    1.500    0.000    5.500 
#    0.000    5.000    0.000    9.000    0.000    7.000 
#    0.000    0.000    0.000    0.000    0.000    0.000 
#
# Total GULP energy -356881.494161 kJ/mol
# GULP energy per Si atom -5576.273346 kJ/mol
# Density = 1.678345 g / cm^3
# Si number density = 16.821737 Si / 1000 Ang^3
#
#
#
# Elastic Constant Matrix: (Units=GPa)
#
#
# Indices 1 2 3 4 5 6 
#
# 1 118.7637 70.3492 62.5744 0.0000 0.0000 0.0000
# 2 70.3492 118.7652 62.5748 0.0000 0.0000 0.0000
# 3 62.5744 62.5748 110.0523 0.0000 0.0000 0.0000
# 4 0.0000 0.0000 0.0000 19.5910 0.0000 0.0000
# 5 0.0000 0.0000 0.0000 0.0000 19.5908 0.0000
# 6 0.0000 0.0000 0.0000 0.0000 0.0000 3.6378
#
#
#
# Elastic Compliance Matrix: (Units=1/GPa)
#
#
# Indices 1 2 3 4 5 6 
#
# 1 0.014566 -0.006088 -0.004820 0.000000 0.000000 0.000000
# 2 -0.006088 0.014566 -0.004820 0.000000 0.000000 0.000000
# 3 -0.004820 -0.004820 0.014568 0.000000 0.000000 0.000000
# 4 0.000000 0.000000 0.000000 0.051044 0.000000 0.000000
# 5 0.000000 0.000000 0.000000 0.000000 0.051044 0.000000
# 6 0.000000 0.000000 0.000000 0.000000 0.000000 0.274891
#
#
# Mechanical properties :
#
#
# Convention : Reuss Voigt Hill
#
# Bulk Modulus (GPa) = 81.68414 82.06422 81.87418
# Shear Modulus (GPa) = 10.95965 18.70278 14.83122
#
# Velocity S-wave (km/s) = 2.55525 3.33802 2.97251
# Velocity P-wave (km/s) = 7.57429 7.98417 7.78193
#
# Compressibility (1/GPa) = 0.01224228
#
# Stress axis : x y z
#
# Youngs Moduli (GPa) = 68.65153 68.65240 68.64253
#
# Poissons Ratio (x) = 0.41799 0.33088
# Poissons Ratio (y) = 0.41798 0.33088
# Poissons Ratio (z) = 0.33093 0.33093
#
# Static dielectric constant tensor:
#      x y z
#    x 1.536590 0.000000 0.000000 
#    y 0.000000 1.536590 0.000000 
#    z 0.000000 0.000000 1.588070 
# 
# From -- ./inp_files/5373.got.cif
#   From: 2010.05.17/outbox.cif.g08.bks.cpg/sg129_3_cif.got.tgz:5373.got - 2010.05.20 12:12:06.
