data_PCOD9565960
_publ_section_title
;
Structure prediction by ZEFSAII (Michael W. Deem and Ramdas Pophale) SiO2 
 PCOD9565960
Probable space group: P 4/N C C
;
_chemical_formula_sum "Si O2"
_cell_formula_units_Z 92
_cell_length_a 16.808297
_cell_length_b 16.808297
_cell_length_c 14.146597
_cell_angle_alpha 90.000000
_cell_angle_beta 90.000000
_cell_angle_gamma 90.000000
_cell_volume 3996.680288
_symmetry_space_group_name_H-M "P 4/N C C"
_symmetry_group_IT_number 130
_symmetry_cell_setting 'tetragonal'
loop_
_space_group_symop_operation_xyz
x,y,z
1/2-y,x,z
1/2-x,1/2-y,z
y,1/2-x,z
1/2+x,-y,1/2-z
-x,1/2+y,1/2-z
1/2+y,1/2+x,1/2-z
-y,-x,1/2-z
-x,-y,-z
1/2+y,-x,-z
1/2+x,1/2+y,-z
-y,1/2+x,-z
1/2-x,y,1/2+z
x,1/2-y,1/2+z
1/2-y,1/2-x,1/2+z
y,x,1/2+z
loop_
_atom_site_type_symbol
_atom_site_label
_atom_site_fract_x
_atom_site_fract_y
_atom_site_fract_z
Si Si1 0.429960 0.063715 0.504923
Si Si2 0.155851 0.921090 0.084339
Si Si3 0.630491 0.809806 0.372853
Si Si4 0.809370 0.918640 0.155242
Si Si5 0.750000 0.750000 0.102233
Si Si6 0.319280 0.680721 0.250000
Si Si7 0.586145 0.261850 0.903590
O O1 0.368899 0.010705 0.568674
O O2 0.432921 0.147680 0.559077
O O3 0.391303 0.075290 0.402646
O O4 0.504374 0.268673 0.359359
O O5 0.186855 0.899912 0.187972
O O6 0.084296 0.856563 0.077238
O O7 0.000000 0.000000 0.000000
O O8 0.649887 0.717094 0.388820
O O9 0.603766 0.819799 0.264685
O O10 0.757283 0.847563 0.110703
O O11 0.784062 0.100570 0.999433
O O12 0.337879 0.745499 0.168630
#
# Coordination Sequence:
#
# PCOD9565960 Si02
#       7
#    16  16  16  16   4   8  16
#     4  11  28  43  66  99 141 191 231 295 369 443
#     4   9  21  42  65  99 132 186 239 291 370 422
#     4  11  25  43  72 106 139 185 242 297 363 449
#     4  11  24  45  69 105 148 180 238 303 360 443
#     4  12  24  40  74 108 132 198 228 292 386 408
#     4   8  20  40  71  94 132 192 238 296 379 406
#     4   9  21  42  69 100 142 185 241 300 356 446
#
# _framework density 23.019103999999999
#
# number of rings (size 3 to 8) (size 9 to 14) (size 15 to 20)
#    1.043    0.870    1.739    0.000    7.304    3.826 
#    0.000    1.739    0.000    0.000    0.000    0.000 
#    0.000    0.000    0.000    0.000    0.000    0.000 
#
# Total GULP energy -512138.155444 kJ/mol
# GULP energy per Si atom -5566.719081 kJ/mol
# Density = 2.296671 g / cm^3
# Si number density = 23.019104 Si / 1000 Ang^3
#
#
#
# Elastic Constant Matrix: (Units=GPa)
#
#
# Indices 1 2 3 4 5 6 
#
# 1 108.0074 49.3889 39.0313 0.0000 0.0000 0.0000
# 2 49.3889 108.0069 39.0307 0.0000 0.0000 0.0000
# 3 39.0313 39.0307 114.5144 0.0000 0.0000 0.0000
# 4 0.0000 0.0000 0.0000 12.7366 0.0000 0.0000
# 5 0.0000 0.0000 0.0000 0.0000 12.7364 0.0000
# 6 0.0000 0.0000 0.0000 0.0000 0.0000 36.5854
#
#
#
# Elastic Compliance Matrix: (Units=1/GPa)
#
#
# Indices 1 2 3 4 5 6 
#
# 1 0.012353 -0.004707 -0.002606 0.000000 0.000000 0.000000
# 2 -0.004707 0.012353 -0.002606 0.000000 0.000000 0.000000
# 3 -0.002606 -0.002606 0.010509 0.000000 0.000000 0.000000
# 4 0.000000 0.000000 0.000000 0.078514 0.000000 0.000000
# 5 0.000000 0.000000 0.000000 0.000000 0.078515 0.000000
# 6 0.000000 0.000000 0.000000 0.000000 0.000000 0.027333
#
#
# Mechanical properties :
#
#
# Convention : Reuss Voigt Hill
#
# Bulk Modulus (GPa) = 65.03353 65.04783 65.04068
# Shear Modulus (GPa) = 20.44659 25.95023 23.19841
#
# Velocity S-wave (km/s) = 2.98358 3.36122 3.17801
# Velocity P-wave (km/s) = 6.33895 6.58660 6.46396
#
# Compressibility (1/GPa) = 0.01537668
#
# Stress axis : x y z
#
# Youngs Moduli (GPa) = 80.95404 80.95390 95.15666
#
# Poissons Ratio (x) = 0.38104 0.24798
# Poissons Ratio (y) = 0.38104 0.24798
# Poissons Ratio (z) = 0.21097 0.21096
#
# Static dielectric constant tensor:
#      x y z
#    x 1.971900 0.000000 0.000000 
#    y 0.000000 1.971900 0.000000 
#    z 0.000000 0.000000 1.879430 
# 
# From -- ./inp_files/2515.got.cif
#   From: 2010.05.17/outbox.cif.g08.bks.cpg/sg130_2_cif.got.tgz:2515.got - 2010.05.20 12:17:35.
