data_PCOD9565137
_publ_section_title
;
Structure prediction by ZEFSAII (Michael W. Deem and Ramdas Pophale) SiO2 
 PCOD9565137
Probable space group: P 4/N M M
;
_chemical_formula_sum "Si O2"
_cell_formula_units_Z 112
_cell_length_a 19.020511
_cell_length_b 19.020511
_cell_length_c 21.708615
_cell_angle_alpha 90.000000
_cell_angle_beta 90.000000
_cell_angle_gamma 90.000000
_cell_volume 7853.739233
_symmetry_space_group_name_H-M "P 4/N M M"
_symmetry_group_IT_number 129
_symmetry_cell_setting 'tetragonal'
loop_
_space_group_symop_operation_xyz
x,y,z
1/2-y,x,z
1/2-x,1/2-y,z
y,1/2-x,z
1/2+x,-y,-z
-x,1/2+y,-z
1/2+y,1/2+x,-z
-y,-x,-z
-x,-y,-z
1/2+y,-x,-z
1/2+x,1/2+y,-z
-y,1/2+x,-z
1/2-x,y,z
x,1/2-y,z
1/2-y,1/2-x,z
y,x,z
loop_
_atom_site_type_symbol
_atom_site_label
_atom_site_fract_x
_atom_site_fract_y
_atom_site_fract_z
Si Si1 0.164657 0.668857 0.432154
Si Si2 0.617355 0.502257 0.997610
Si Si3 0.668049 0.407611 0.189515
Si Si4 0.902306 0.333966 0.305534
Si Si5 0.329727 0.543883 0.129332
Si Si6 0.330204 0.051704 0.871259
Si Si7 0.550555 0.833206 0.755082
O O1 0.142732 0.642732 0.500000
O O2 0.250000 0.670125 0.434642
O O3 0.141847 0.750000 0.422899
O O4 0.144982 0.621929 0.373772
O O5 0.572666 0.572666 0.985067
O O6 0.655469 0.514404 0.062533
O O7 0.560582 0.439418 0.000000
O O8 0.665003 0.484629 0.939401
O O9 0.750000 0.389426 0.179340
O O10 0.641467 0.377059 0.254573
O O11 0.613834 0.374473 0.140540
O O12 0.661509 0.491319 0.180284
O O13 0.887894 0.250000 0.297885
O O14 0.984957 0.343847 0.291510
O O15 0.250000 0.562072 0.145690
O O16 0.351402 0.484116 0.178371
O O17 0.250000 0.077430 0.870271
O O18 0.386865 0.113136 0.864215
O O19 0.568916 0.750000 0.754924
O O20 0.615932 0.884069 0.742957
#
# Coordination Sequence:
#
# PCOD9565137 Si02
#       7
#    16  16  16  16  16  16  16
#     4   8  13  22  39  64  92 121 151 177 201 236
#     4  10  18  30  48  65  81 106 140 178 220 264
#     4  10  19  29  42  62  88 117 147 175 204 246
#     4   9  17  28  43  64  90 121 150 177 209 249
#     4  10  19  30  45  63  85 111 140 175 213 258
#     4  10  21  35  50  67  85 108 142 184 227 269
#     4   9  18  30  44  63  83 107 141 179 222 267
#
# _framework density 14.260723
#
# number of rings (size 3 to 8) (size 9 to 14) (size 15 to 20)
#    0.000    2.571    1.429    3.000    0.000    4.286 
#    0.000    0.000    0.000    0.429    0.000    2.000 
#    0.000    0.000    0.000    0.000    0.000   18.000 
#
# Total GULP energy -623535.630798 kJ/mol
# GULP energy per Si atom -5567.282418 kJ/mol
# Density = 1.422827 g / cm^3
# Si number density = 14.260723 Si / 1000 Ang^3
#
#
#
# Elastic Constant Matrix: (Units=GPa)
#
#
# Indices 1 2 3 4 5 6 
#
# 1 71.2350 49.3610 37.2262 0.0000 0.0000 0.0000
# 2 49.3610 71.2352 37.2261 0.0000 0.0000 0.0000
# 3 37.2262 37.2261 91.1063 0.0000 0.0000 0.0000
# 4 0.0000 0.0000 0.0000 15.3541 0.0000 0.0000
# 5 0.0000 0.0000 0.0000 0.0000 15.3541 0.0000
# 6 0.0000 0.0000 0.0000 0.0000 0.0000 20.6755
#
#
#
# Elastic Compliance Matrix: (Units=1/GPa)
#
#
# Indices 1 2 3 4 5 6 
#
# 1 0.028403 -0.017313 -0.004531 0.000000 0.000000 0.000000
# 2 -0.017313 0.028403 -0.004531 0.000000 0.000000 0.000000
# 3 -0.004531 -0.004531 0.014679 0.000000 0.000000 0.000000
# 4 0.000000 0.000000 0.000000 0.065129 0.000000 0.000000
# 5 0.000000 0.000000 0.000000 0.000000 0.065129 0.000000
# 6 0.000000 0.000000 0.000000 0.000000 0.000000 0.048367
#
#
# Mechanical properties :
#
#
# Convention : Reuss Voigt Hill
#
# Bulk Modulus (GPa) = 53.38058 53.46700 53.42379
# Shear Modulus (GPa) = 16.17572 17.59429 16.88500
#
# Velocity S-wave (km/s) = 3.37157 3.51630 3.44469
# Velocity P-wave (km/s) = 7.25739 7.35253 7.30512
#
# Compressibility (1/GPa) = 0.01873341
#
# Stress axis : x y z
#
# Youngs Moduli (GPa) = 35.20768 35.20787 68.12402
#
# Poissons Ratio (x) = 0.60956 0.30869
# Poissons Ratio (y) = 0.60956 0.30868
# Poissons Ratio (z) = 0.15954 0.15953
#
# Static dielectric constant tensor:
#      x y z
#    x 1.463730 0.000000 0.000000 
#    y 0.000000 1.463730 0.000000 
#    z 0.000000 0.000000 1.480530 
# 
# From -- ./inp_files/6633.got.cif
#   From: 2010.05.17/outbox.cif.g08.bks.cpg/sg129_4_cif.got.tgz:6633.got - 2010.05.20 12:12:06.
