data_PCOD9565931
_publ_section_title
;
Structure prediction by ZEFSAII (Michael W. Deem and Ramdas Pophale) SiO2 
 PCOD9565931
Probable space group: P 4/N C C
;
_chemical_formula_sum "Si O2"
_cell_formula_units_Z 116
_cell_length_a 18.044643
_cell_length_b 18.044643
_cell_length_c 17.538429
_cell_angle_alpha 90.000000
_cell_angle_beta 90.000000
_cell_angle_gamma 90.000000
_cell_volume 5710.672801
_symmetry_space_group_name_H-M "P 4/N C C"
_symmetry_group_IT_number 130
_symmetry_cell_setting 'tetragonal'
loop_
_space_group_symop_operation_xyz
x,y,z
1/2-y,x,z
1/2-x,1/2-y,z
y,1/2-x,z
1/2+x,-y,1/2-z
-x,1/2+y,1/2-z
1/2+y,1/2+x,1/2-z
-y,-x,1/2-z
-x,-y,-z
1/2+y,-x,-z
1/2+x,1/2+y,-z
-y,1/2+x,-z
1/2-x,y,1/2+z
x,1/2-y,1/2+z
1/2-y,1/2-x,1/2+z
y,x,1/2+z
loop_
_atom_site_type_symbol
_atom_site_label
_atom_site_fract_x
_atom_site_fract_y
_atom_site_fract_z
Si Si1 0.750184 0.479724 0.601819
Si Si2 0.122659 0.881444 0.163829
Si Si3 0.661779 0.626808 0.580179
Si Si4 0.443880 0.451855 0.170960
Si Si5 0.864882 0.224803 0.523565
Si Si6 0.250000 0.250000 0.845801
Si Si7 0.335423 0.333919 0.595394
Si Si8 0.405037 0.014156 0.341280
O O1 0.680173 0.435315 0.634984
O O2 0.720076 0.560478 0.583355
O O3 0.774284 0.439832 0.524072
O O4 0.822316 0.481301 0.655878
O O5 0.140066 0.859935 0.250000
O O6 0.191898 0.876831 0.106907
O O7 0.089617 0.964960 0.164598
O O8 0.685257 0.686477 0.643378
O O9 0.663941 0.662736 0.496557
O O10 0.580642 0.596163 0.598247
O O11 0.391696 0.394080 0.127968
O O12 0.451787 0.426584 0.259018
O O13 0.528434 0.457395 0.140686
O O14 0.805818 0.171853 0.480107
O O15 0.250783 0.351304 0.619901
#
# Coordination Sequence:
#
# PCOD9565931 Si02
#       8
#    16  16  16  16  16   4  16  16
#     4  11  23  42  70  96 127 180 227 278 339 403
#     4  11  22  44  71  95 137 182 217 276 355 407
#     4  12  21  40  67  93 130 174 222 273 334 400
#     4  11  25  44  63  94 139 173 219 284 336 408
#     4   9  22  44  67 100 133 165 231 287 323 408
#     4  12  20  36  64  90 128 164 212 282 324 384
#     4  11  24  44  64 100 138 173 220 278 337 410
#     4  11  24  45  62  94 133 170 227 280 327 409
#
# _framework density 20.312844999999999
#
# number of rings (size 3 to 8) (size 9 to 14) (size 15 to 20)
#    0.000    1.103    5.517    0.000    3.862    4.966 
#    4.966    4.828    0.000    0.000    0.000    0.000 
#    0.000    0.000    0.000    0.000    0.000    0.000 
#
# Total GULP energy -646987.901195 kJ/mol
# GULP energy per Si atom -5577.481907 kJ/mol
# Density = 2.026661 g / cm^3
# Si number density = 20.312845 Si / 1000 Ang^3
#
#
#
# Elastic Constant Matrix: (Units=GPa)
#
#
# Indices 1 2 3 4 5 6 
#
# 1 118.9912 48.6322 36.4119 0.0000 0.0000 0.0000
# 2 48.6322 118.9918 36.4123 0.0000 0.0000 0.0000
# 3 36.4119 36.4123 64.7445 0.0000 0.0000 0.0000
# 4 0.0000 0.0000 0.0000 12.7850 0.0000 0.0000
# 5 0.0000 0.0000 0.0000 0.0000 12.7844 0.0000
# 6 0.0000 0.0000 0.0000 0.0000 0.0000 42.0913
#
#
#
# Elastic Compliance Matrix: (Units=1/GPa)
#
#
# Indices 1 2 3 4 5 6 
#
# 1 0.011054 -0.003159 -0.004440 0.000000 0.000000 0.000000
# 2 -0.003159 0.011054 -0.004440 0.000000 0.000000 0.000000
# 3 -0.004440 -0.004440 0.020439 0.000000 0.000000 0.000000
# 4 0.000000 0.000000 0.000000 0.078217 0.000000 0.000000
# 5 0.000000 0.000000 0.000000 0.000000 0.078220 0.000000
# 6 0.000000 0.000000 0.000000 0.000000 0.000000 0.023758
#
#
# Mechanical properties :
#
#
# Convention : Reuss Voigt Hill
#
# Bulk Modulus (GPa) = 54.14497 60.62669 57.38583
# Shear Modulus (GPa) = 19.76472 25.61688 22.69080
#
# Velocity S-wave (km/s) = 3.12270 3.55507 3.34588
# Velocity P-wave (km/s) = 6.30199 6.83832 6.57563
#
# Compressibility (1/GPa) = 0.01846894
#
# Stress axis : x y z
#
# Youngs Moduli (GPa) = 90.46724 90.46738 48.92533
#
# Poissons Ratio (x) = 0.28579 0.21722
# Poissons Ratio (y) = 0.28579 0.21723
# Poissons Ratio (z) = 0.40166 0.40167
#
# Static dielectric constant tensor:
#      x y z
#    x 1.742800 0.000000 0.000000 
#    y 0.000000 1.742800 0.000000 
#    z 0.000000 0.000000 1.716870 
# 
# From -- ./inp_files/3207.got.cif
#   From: 2010.05.17/outbox.cif.g08.bks.cpg/sg130_2_cif.got.tgz:3207.got - 2010.05.20 12:17:35.
