data_PCOD9565030
_publ_section_title
;
Structure prediction by ZEFSAII (Michael W. Deem and Ramdas Pophale) SiO2 
 PCOD9565030
Probable space group: P 4/M N C
;
_chemical_formula_sum "Si O2"
_cell_formula_units_Z 80
_cell_length_a 11.672843
_cell_length_b 11.672843
_cell_length_c 26.496014
_cell_angle_alpha 90.000000
_cell_angle_beta 90.000000
_cell_angle_gamma 90.000000
_cell_volume 3610.221375
_symmetry_space_group_name_H-M "P 4/M N C"
_symmetry_group_IT_number 128
_symmetry_cell_setting 'tetragonal'
loop_
_space_group_symop_operation_xyz
x,y,z
-y,x,z
-x,-y,z
y,-x,z
1/2+x,1/2-y,1/2-z
1/2-x,1/2+y,1/2-z
1/2+y,1/2+x,1/2-z
1/2-y,1/2-x,1/2-z
-x,-y,-z
y,-x,-z
x,y,-z
-y,x,-z
1/2-x,1/2+y,1/2+z
1/2+x,1/2-y,1/2+z
1/2-y,1/2-x,1/2+z
1/2+y,1/2+x,1/2+z
loop_
_atom_site_type_symbol
_atom_site_label
_atom_site_fract_x
_atom_site_fract_y
_atom_site_fract_z
Si Si1 0.409225 0.160647 0.306880
Si Si2 0.115231 0.563069 0.912612
Si Si3 0.434022 0.325946 0.439405
Si Si4 0.795287 0.670422 0.691505
Si Si5 0.447383 0.686072 0.115066
O O1 0.389515 0.110486 0.250000
O O2 0.378105 0.072710 0.351283
O O3 0.328025 0.270413 0.312816
O O4 0.537390 0.197021 0.320059
O O5 0.111596 0.697654 0.927487
O O6 0.216385 0.474001 0.926846
O O7 0.000000 0.500000 0.928179
O O8 0.565555 0.354895 0.422270
O O9 0.436193 0.331639 0.500000
O O10 0.824701 0.675300 0.750000
O O11 0.883008 0.746956 0.659990
O O12 0.367863 0.574448 0.114248
#
# Coordination Sequence:
#
# PCOD9565030 Si02
#       5
#    16  16  16  16  16
#     4  11  25  42  60  93 134 176 227 287 346 392
#     4  12  24  38  69  98 130 174 229 278 327 409
#     4   9  22  46  74 106 143 173 207 277 362 420
#     4  11  24  41  61  87 125 176 229 286 340 399
#     4  11  24  42  60  85 128 177 223 272 339 401
#
# _framework density 22.159306000000001
#
# number of rings (size 3 to 8) (size 9 to 14) (size 15 to 20)
#    0.000    1.200    4.000    1.800    8.400    0.800 
#    0.000    0.000    0.000    0.000    0.000    1.400 
#    0.000    0.000    0.000    0.000    0.000    0.000 
#
# Total GULP energy -445607.685036 kJ/mol
# GULP energy per Si atom -5570.096063 kJ/mol
# Density = 2.210887 g / cm^3
# Si number density = 22.159306 Si / 1000 Ang^3
#
#
#
# Elastic Constant Matrix: (Units=GPa)
#
#
# Indices 1 2 3 4 5 6 
#
# 1 131.5863 38.8835 5.8696 0.0000 0.0000 0.0000
# 2 38.8835 131.5867 5.8696 0.0000 0.0000 0.0000
# 3 5.8696 5.8696 39.1827 0.0000 0.0000 0.0000
# 4 0.0000 0.0000 0.0000 20.7167 0.0000 0.0000
# 5 0.0000 0.0000 0.0000 0.0000 20.7174 0.0000
# 6 0.0000 0.0000 0.0000 0.0000 0.0000 33.8572
#
#
#
# Elastic Compliance Matrix: (Units=1/GPa)
#
#
# Indices 1 2 3 4 5 6 
#
# 1 0.008357 -0.002430 -0.000888 0.000000 0.000000 0.000000
# 2 -0.002430 0.008357 -0.000888 0.000000 0.000000 0.000000
# 3 -0.000888 -0.000888 0.025788 0.000000 0.000000 0.000000
# 4 0.000000 0.000000 0.000000 0.048270 0.000000 0.000000
# 5 0.000000 0.000000 0.000000 0.000000 0.048269 0.000000
# 6 0.000000 0.000000 0.000000 0.000000 0.000000 0.029536
#
#
# Mechanical properties :
#
#
# Convention : Reuss Voigt Hill
#
# Bulk Modulus (GPa) = 29.33377 44.84458 37.08917
# Shear Modulus (GPa) = 26.54612 31.84047 29.19330
#
# Velocity S-wave (km/s) = 3.46492 3.79474 3.63358
# Velocity P-wave (km/s) = 5.41054 6.28342 5.86325
#
# Compressibility (1/GPa) = 0.03409040
#
# Stress axis : x y z
#
# Youngs Moduli (GPa) = 119.65704 119.65741 38.77846
#
# Poissons Ratio (x) = 0.29076 0.03443
# Poissons Ratio (y) = 0.29076 0.03443
# Poissons Ratio (z) = 0.10625 0.10625
#
# Static dielectric constant tensor:
#      x y z
#    x 1.858680 0.000000 0.000000 
#    y 0.000000 1.858680 0.000000 
#    z 0.000000 0.000000 1.835740 
# 
# From -- ./inp_files/7149.got.cif
#   From: 2010.05.17/outbox.cif.g08.bks.cpg/sg128_4_cif.got.tgz:7149.got - 2010.05.20 12:07:25.
