data_PCOD9565707
_publ_section_title
;
Structure prediction by ZEFSAII (Michael W. Deem and Ramdas Pophale) SiO2 
 PCOD9565707
Probable space group: P 4/N C C
;
_chemical_formula_sum "Si O2"
_cell_formula_units_Z 56
_cell_length_a 12.296801
_cell_length_b 12.296801
_cell_length_c 19.126356
_cell_angle_alpha 90.000000
_cell_angle_beta 90.000000
_cell_angle_gamma 90.000000
_cell_volume 2892.121439
_symmetry_space_group_name_H-M "P 4/N C C"
_symmetry_group_IT_number 130
_symmetry_cell_setting 'tetragonal'
loop_
_space_group_symop_operation_xyz
x,y,z
1/2-y,x,z
1/2-x,1/2-y,z
y,1/2-x,z
1/2+x,-y,1/2-z
-x,1/2+y,1/2-z
1/2+y,1/2+x,1/2-z
-y,-x,1/2-z
-x,-y,-z
1/2+y,-x,-z
1/2+x,1/2+y,-z
-y,1/2+x,-z
1/2-x,y,1/2+z
x,1/2-y,1/2+z
1/2-y,1/2-x,1/2+z
y,x,1/2+z
loop_
_atom_site_type_symbol
_atom_site_label
_atom_site_fract_x
_atom_site_fract_y
_atom_site_fract_z
Si Si1 0.900375 0.853342 0.985948
Si Si2 0.871052 0.215818 0.678781
Si Si3 0.511544 0.029943 0.387798
Si Si4 0.933986 0.066015 0.250000
O O1 0.776326 0.895526 0.979412
O O2 0.948263 0.889684 0.060669
O O3 0.973943 0.915543 0.928705
O O4 0.750000 0.250000 0.653175
O O5 0.849311 0.150690 0.750000
O O6 0.928057 0.133532 0.626817
O O7 0.935401 0.319964 0.708036
O O8 0.451698 0.017634 0.313307
#
# Coordination Sequence:
#
# PCOD9565707 Si02
#       4
#    16  16  16   8
#     4  10  24  41  58  86 127 164 205 251 301 369
#     4   9  20  36  57  92 125 147 195 258 301 366
#     4  11  21  39  65  87 122 165 203 249 314 360
#     4  10  21  34  65  90 118 152 204 254 303 360
#
# _framework density 19.362949
#
# number of rings (size 3 to 8) (size 9 to 14) (size 15 to 20)
#    0.000    2.286    1.429    1.714    8.000    0.000 
#    0.000    0.000    0.000    3.429    0.000    0.000 
#    0.000    0.000    0.000    0.000    0.000    0.000 
#
# Total GULP energy -312062.479986 kJ/mol
# GULP energy per Si atom -5572.544285 kJ/mol
# Density = 1.931888 g / cm^3
# Si number density = 19.362949 Si / 1000 Ang^3
#
#
#
# Elastic Constant Matrix: (Units=GPa)
#
#
# Indices 1 2 3 4 5 6 
#
# 1 42.3357 35.7814 23.5055 0.0000 0.0000 0.0000
# 2 35.7814 42.3364 23.5057 0.0000 0.0000 0.0000
# 3 23.5055 23.5057 86.6324 0.0000 0.0000 0.0000
# 4 0.0000 0.0000 0.0000 -17.3117 0.0000 0.0000
# 5 0.0000 0.0000 0.0000 0.0000 -17.2703 0.0000
# 6 0.0000 0.0000 0.0000 0.0000 0.0000 32.5916
#
#
#
# Elastic Compliance Matrix: (Units=1/GPa)
#
#
# Indices 1 2 3 4 5 6 
#
# 1 0.083933 -0.068632 -0.004151 0.000000 0.000000 0.000000
# 2 -0.068632 0.083931 -0.004151 0.000000 0.000000 0.000000
# 3 -0.004151 -0.004151 0.013796 0.000000 0.000000 0.000000
# 4 0.000000 0.000000 0.000000 -0.057764 0.000000 0.000000
# 5 0.000000 0.000000 0.000000 0.000000 -0.057903 0.000000
# 6 0.000000 0.000000 0.000000 0.000000 0.000000 0.030683
#
#
# Mechanical properties :
#
#
# Convention : Reuss Voigt Hill
#
# Bulk Modulus (GPa) = 35.98426 37.43220 36.70823
# Shear Modulus (GPa) = 19.24501 5.50271 12.37386
#
# Velocity S-wave (km/s) = 3.15605 1.68762 2.53068
# Velocity P-wave (km/s) = 5.64848 4.81365 5.24769
#
# Compressibility (1/GPa) = 0.02778993
#
# Stress axis : x y z
#
# Youngs Moduli (GPa) = 11.91432 11.91452 72.48666
#
# Poissons Ratio (x) = 0.81772 0.30090
# Poissons Ratio (y) = 0.81771 0.30090
# Poissons Ratio (z) = 0.04946 0.04946
#
# Static dielectric constant tensor:
#      x y z
#    x 1.692050 0.000000 0.000000 
#    y 0.000000 1.692060 0.000000 
#    z 0.000000 0.000000 1.679340 
# 
# From -- ./inp_files/3432.got.cif
#   From: 2010.05.17/outbox.cif.g08.bks.cpg/sg130_2_cif.got.tgz:3432.got - 2010.05.20 12:17:35.
