data_PCOD9565968
_publ_section_title
;
Structure prediction by ZEFSAII (Michael W. Deem and Ramdas Pophale) SiO2 
 PCOD9565968
Probable space group: P 4/N C C
;
_chemical_formula_sum "Si O2"
_cell_formula_units_Z 72
_cell_length_a 9.879832
_cell_length_b 9.879832
_cell_length_c 29.954859
_cell_angle_alpha 90.000000
_cell_angle_beta 90.000000
_cell_angle_gamma 90.000000
_cell_volume 2923.926149
_symmetry_space_group_name_H-M "P 4/N C C"
_symmetry_group_IT_number 130
_symmetry_cell_setting 'tetragonal'
loop_
_space_group_symop_operation_xyz
x,y,z
1/2-y,x,z
1/2-x,1/2-y,z
y,1/2-x,z
1/2+x,-y,1/2-z
-x,1/2+y,1/2-z
1/2+y,1/2+x,1/2-z
-y,-x,1/2-z
-x,-y,-z
1/2+y,-x,-z
1/2+x,1/2+y,-z
-y,1/2+x,-z
1/2-x,y,1/2+z
x,1/2-y,1/2+z
1/2-y,1/2-x,1/2+z
y,x,1/2+z
loop_
_atom_site_type_symbol
_atom_site_label
_atom_site_fract_x
_atom_site_fract_y
_atom_site_fract_z
Si Si1 0.750000 0.750000 0.234846
Si Si2 0.532081 0.692963 0.504355
Si Si3 0.434548 0.991650 0.351087
Si Si4 0.250000 0.250000 0.878686
Si Si5 0.696624 0.108003 0.925329
Si Si6 0.305841 0.939528 0.790331
O O1 0.701192 0.907769 0.228900
O O2 0.657652 0.593422 0.512121
O O3 0.411446 0.656907 0.537198
O O4 0.476669 0.695131 0.453766
O O5 0.340327 0.108973 0.373734
O O6 0.336244 0.918767 0.315249
O O7 0.553309 0.072613 0.326663
O O8 0.473350 0.882495 0.387822
O O9 0.750000 0.250000 0.906243
O O10 0.346350 0.846350 0.750000
#
# Coordination Sequence:
#
# PCOD9565968 Si02
#       6
#     4  16  16   4  16  16
#     4   8  17  36  60  88 112 149 210 249 296 384
#     4  11  25  42  68  95 123 174 214 265 324 382
#     4   9  20  34  61  95 115 157 216 266 310 387
#     4   8  17  36  64  92 108 141 218 277 308 344
#     4  12  24  42  62  92 135 167 215 264 321 382
#     4   9  17  37  63  88 122 158 203 269 320 365
#
# _framework density 24.624427000000001
#
# number of rings (size 3 to 8) (size 9 to 14) (size 15 to 20)
#    0.000    2.000    2.222    4.667    6.222    0.000 
#    8.000    0.000    0.000    0.000    0.000    0.000 
#    0.000    0.000    0.000    0.000    0.000    0.000 
#
# Total GULP energy -400912.831000 kJ/mol
# GULP energy per Si atom -5568.233764 kJ/mol
# Density = 2.456838 g / cm^3
# Si number density = 24.624427 Si / 1000 Ang^3
#
#
#
# Elastic Constant Matrix: (Units=GPa)
#
#
# Indices 1 2 3 4 5 6 
#
# 1 70.6916 22.8771 28.3580 0.0000 0.0000 0.0000
# 2 22.8771 70.6916 28.3580 0.0000 0.0000 0.0000
# 3 28.3580 28.3580 78.6710 0.0000 0.0000 0.0000
# 4 0.0000 0.0000 0.0000 19.4972 0.0000 0.0000
# 5 0.0000 0.0000 0.0000 0.0000 19.4972 0.0000
# 6 0.0000 0.0000 0.0000 0.0000 0.0000 49.8531
#
#
#
# Elastic Compliance Matrix: (Units=1/GPa)
#
#
# Indices 1 2 3 4 5 6 
#
# 1 0.017295 -0.003619 -0.004929 0.000000 0.000000 0.000000
# 2 -0.003619 0.017295 -0.004929 0.000000 0.000000 0.000000
# 3 -0.004929 -0.004929 0.016265 0.000000 0.000000 0.000000
# 4 0.000000 0.000000 0.000000 0.051290 0.000000 0.000000
# 5 0.000000 0.000000 0.000000 0.000000 0.051290 0.000000
# 6 0.000000 0.000000 0.000000 0.000000 0.000000 0.020059
#
#
# Mechanical properties :
#
#
# Convention : Reuss Voigt Hill
#
# Bulk Modulus (GPa) = 41.84498 42.13784 41.99141
# Shear Modulus (GPa) = 23.99061 27.13356 25.56208
#
# Velocity S-wave (km/s) = 3.12470 3.32308 3.22542
# Velocity P-wave (km/s) = 5.48165 5.64564 5.56425
#
# Compressibility (1/GPa) = 0.02389773
#
# Stress axis : x y z
#
# Youngs Moduli (GPa) = 57.82117 57.82117 61.48199
#
# Poissons Ratio (x) = 0.20928 0.30307
# Poissons Ratio (y) = 0.20928 0.30307
# Poissons Ratio (z) = 0.28503 0.28503
#
# Static dielectric constant tensor:
#      x y z
#    x 1.966590 0.000000 0.000000 
#    y 0.000000 1.966590 0.000000 
#    z 0.000000 0.000000 2.045340 
# 
# From -- ./inp_files/4749.got.cif
#   From: 2010.05.17/outbox.cif.g08.bks.cpg/sg130_3_cif.got.tgz:4749.got - 2010.05.20 12:17:35.
