data_PCOD9565814
_publ_section_title
;
Structure prediction by ZEFSAII (Michael W. Deem and Ramdas Pophale) SiO2 
 PCOD9565814
Probable space group: P 4/N C C
;
_chemical_formula_sum "Si O2"
_cell_formula_units_Z 64
_cell_length_a 11.049465
_cell_length_b 11.049465
_cell_length_c 22.496074
_cell_angle_alpha 90.000000
_cell_angle_beta 90.000000
_cell_angle_gamma 90.000000
_cell_volume 2746.560900
_symmetry_space_group_name_H-M "P 4/N C C"
_symmetry_group_IT_number 130
_symmetry_cell_setting 'tetragonal'
loop_
_space_group_symop_operation_xyz
x,y,z
1/2-y,x,z
1/2-x,1/2-y,z
y,1/2-x,z
1/2+x,-y,1/2-z
-x,1/2+y,1/2-z
1/2+y,1/2+x,1/2-z
-y,-x,1/2-z
-x,-y,-z
1/2+y,-x,-z
1/2+x,1/2+y,-z
-y,1/2+x,-z
1/2-x,y,1/2+z
x,1/2-y,1/2+z
1/2-y,1/2-x,1/2+z
y,x,1/2+z
loop_
_atom_site_type_symbol
_atom_site_label
_atom_site_fract_x
_atom_site_fract_y
_atom_site_fract_z
Si Si1 0.982524 0.372429 0.656787
Si Si2 0.453213 0.234003 0.461570
Si Si3 0.174129 0.072096 0.786694
Si Si4 0.148480 0.554136 0.582987
O O1 0.877807 0.458707 0.679889
O O2 0.927625 0.250016 0.632091
O O3 0.058731 0.340805 0.715830
O O4 0.062082 0.446763 0.608743
O O5 0.373684 0.355008 0.449972
O O6 0.504345 0.275620 0.526351
O O7 0.326060 0.571326 0.431310
O O8 0.311046 0.096760 0.803650
#
# Coordination Sequence:
#
# PCOD9565814 Si02
#       4
#    16  16  16  16
#     4  11  24  44  79 113 149 203 261 315 407 473
#     4  11  26  49  76 111 158 205 272 328 386 470
#     4  10  22  46  78 113 151 196 255 329 398 496
#     4  12  25  49  77 109 154 211 260 327 393 465
#
# _framework density 23.301867999999999
#
# number of rings (size 3 to 8) (size 9 to 14) (size 15 to 20)
#    0.000    1.000    5.000    0.750    0.000    3.000 
#    4.500    2.500    0.000    0.000    0.000    0.000 
#    0.000    0.000    0.000    0.000    0.000    0.000 
#
# Total GULP energy -357640.990625 kJ/mol
# GULP energy per Si atom -5588.140479 kJ/mol
# Density = 2.324883 g / cm^3
# Si number density = 23.301868 Si / 1000 Ang^3
#
#
#
# Elastic Constant Matrix: (Units=GPa)
#
#
# Indices 1 2 3 4 5 6 
#
# 1 122.0936 73.1417 59.1486 0.0000 0.0000 0.0000
# 2 73.1417 122.0936 59.1486 0.0000 0.0000 0.0000
# 3 59.1486 59.1486 93.1331 0.0000 0.0000 0.0000
# 4 0.0000 0.0000 0.0000 35.5948 0.0000 0.0000
# 5 0.0000 0.0000 0.0000 0.0000 35.5948 0.0000
# 6 0.0000 0.0000 0.0000 0.0000 0.0000 23.6075
#
#
#
# Elastic Compliance Matrix: (Units=1/GPa)
#
#
# Indices 1 2 3 4 5 6 
#
# 1 0.014377 -0.006051 -0.005288 0.000000 0.000000 0.000000
# 2 -0.006051 0.014377 -0.005288 0.000000 0.000000 0.000000
# 3 -0.005288 -0.005288 0.017454 0.000000 0.000000 0.000000
# 4 0.000000 0.000000 0.000000 0.028094 0.000000 0.000000
# 5 0.000000 0.000000 0.000000 0.000000 0.028094 0.000000
# 6 0.000000 0.000000 0.000000 0.000000 0.000000 0.042359
#
#
# Mechanical properties :
#
#
# Convention : Reuss Voigt Hill
#
# Bulk Modulus (GPa) = 77.19256 80.02198 78.60727
# Shear Modulus (GPa) = 27.42321 28.68486 28.05403
#
# Velocity S-wave (km/s) = 3.43427 3.51238 3.47355
# Velocity P-wave (km/s) = 6.99462 7.13198 7.06363
#
# Compressibility (1/GPa) = 0.01295462
#
# Stress axis : x y z
#
# Youngs Moduli (GPa) = 69.55492 69.55492 57.29374
#
# Poissons Ratio (x) = 0.42088 0.30296
# Poissons Ratio (y) = 0.42088 0.30296
# Poissons Ratio (z) = 0.36780 0.36780
#
# Static dielectric constant tensor:
#      x y z
#    x 1.838340 0.000000 0.000000 
#    y 0.000000 1.838340 0.000000 
#    z 0.000000 0.000000 1.938510 
# 
# From -- ./inp_files/3489.got.cif
#   From: 2010.05.17/outbox.cif.g08.bks.cpg/sg130_2_cif.got.tgz:3489.got - 2010.05.20 12:17:35.
