data_PCOD9565453
_publ_section_title
;
Structure prediction by ZEFSAII (Michael W. Deem and Ramdas Pophale) SiO2 
 PCOD9565453
Probable space group: P 4/N M M
;
_chemical_formula_sum "Si O2"
_cell_formula_units_Z 50
_cell_length_a 21.450701
_cell_length_b 21.450701
_cell_length_c 4.851176
_cell_angle_alpha 90.000000
_cell_angle_beta 90.000000
_cell_angle_gamma 90.000000
_cell_volume 2232.184097
_symmetry_space_group_name_H-M "P 4/N M M"
_symmetry_group_IT_number 129
_symmetry_cell_setting 'tetragonal'
loop_
_space_group_symop_operation_xyz
x,y,z
1/2-y,x,z
1/2-x,1/2-y,z
y,1/2-x,z
1/2+x,-y,-z
-x,1/2+y,-z
1/2+y,1/2+x,-z
-y,-x,-z
-x,-y,-z
1/2+y,-x,-z
1/2+x,1/2+y,-z
-y,1/2+x,-z
1/2-x,y,z
x,1/2-y,z
1/2-y,1/2-x,z
y,x,z
loop_
_atom_site_type_symbol
_atom_site_label
_atom_site_fract_x
_atom_site_fract_y
_atom_site_fract_z
Si Si1 0.250000 0.250000 0.032186
Si Si2 0.047858 0.047858 0.169635
Si Si3 0.250000 0.988810 0.061522
Si Si4 0.354924 0.354924 0.861309
Si Si5 0.568170 0.750000 0.440195
Si Si6 0.876691 0.436272 0.735190
O O1 0.306275 0.306275 0.018105
O O2 0.001482 0.090572 0.347595
O O3 0.096246 0.096246 0.012881
O O4 0.000000 0.000000 0.000000
O O5 0.190889 0.952056 0.162973
O O6 0.250000 0.053372 0.237042
O O7 0.250000 0.004533 0.739828
O O8 0.395166 0.310214 0.663582
O O9 0.886179 0.386179 0.500000
O O10 0.911779 0.411779 0.000000
#
# Coordination Sequence:
#
# PCOD9565453 Si02
#       6
#     2   8   8   8   8  16
#     4   8  20  36  68  90 140 194 248 286 324 394
#     4  10  21  36  64  96 134 173 218 276 350 394
#     4  12  24  42  68  94 126 175 215 272 338 401
#     4  10  20  42  61  96 139 184 237 286 329 401
#     4  11  24  39  64  94 130 183 226 270 324 394
#     4  11  24  42  64  96 132 167 217 275 342 414
#
# _framework density 22.399584000000001
#
# number of rings (size 3 to 8) (size 9 to 14) (size 15 to 20)
#    0.000    1.280    3.200    2.400    4.480    2.560 
#    0.000    0.000    0.000    8.640    0.000    0.000 
#    0.000    0.000    0.000    0.000    0.000    0.000 
#
# Total GULP energy -278742.000492 kJ/mol
# GULP energy per Si atom -5574.840010 kJ/mol
# Density = 2.234860 g / cm^3
# Si number density = 22.399584 Si / 1000 Ang^3
#
#
#
# Elastic Constant Matrix: (Units=GPa)
#
#
# Indices 1 2 3 4 5 6 
#
# 1 141.8685 22.3189 2.6928 0.0000 0.0000 0.0000
# 2 22.3189 141.8685 2.6928 0.0000 0.0000 0.0000
# 3 2.6928 2.6928 57.9876 0.0000 0.0000 0.0000
# 4 0.0000 0.0000 0.0000 12.2293 0.0000 0.0000
# 5 0.0000 0.0000 0.0000 0.0000 12.2293 0.0000
# 6 0.0000 0.0000 0.0000 0.0000 0.0000 -27.0114
#
#
#
# Elastic Compliance Matrix: (Units=1/GPa)
#
#
# Indices 1 2 3 4 5 6 
#
# 1 0.007232 -0.001132 -0.000283 0.000000 0.000000 0.000000
# 2 -0.001132 0.007232 -0.000283 0.000000 0.000000 0.000000
# 3 -0.000283 -0.000283 0.017271 0.000000 0.000000 0.000000
# 4 0.000000 0.000000 0.000000 0.081771 0.000000 0.000000
# 5 0.000000 0.000000 0.000000 0.000000 0.081771 0.000000
# 6 0.000000 0.000000 0.000000 0.000000 0.000000 -0.037021
#
#
# Mechanical properties :
#
#
# Convention : Reuss Voigt Hill
#
# Bulk Modulus (GPa) = 35.28819 44.12597 39.70708
# Shear Modulus (GPa) = 29.22272 20.42412 24.82342
#
# Velocity S-wave (km/s) = 3.61586 3.02289 3.33259
# Velocity P-wave (km/s) = 5.76374 5.65031 5.70731
#
# Compressibility (1/GPa) = 0.02833809
#
# Stress axis : x y z
#
# Youngs Moduli (GPa) = 138.26837 138.26837 57.89929
#
# Poissons Ratio (x) = 0.15658 0.01640
# Poissons Ratio (y) = 0.15658 0.01640
# Poissons Ratio (z) = 0.03917 0.03917
#
# Static dielectric constant tensor:
#      x y z
#    x 1.883420 0.000000 0.000000 
#    y 0.000000 1.883420 0.000000 
#    z 0.000000 0.000000 1.830230 
# 
# From -- ./inp_files/532.got.cif
#   From: 2010.05.17/outbox.cif.g08.bks.cpg/sg129_1_cif.got.tgz:532.got - 2010.05.20 12:12:06.
