data_PCOD9565559
_publ_section_title
;
Structure prediction by ZEFSAII (Michael W. Deem and Ramdas Pophale) SiO2 
 PCOD9565559
Probable space group: P 4/N C C
;
_chemical_formula_sum "Si O2"
_cell_formula_units_Z 72
_cell_length_a 17.944245
_cell_length_b 17.944245
_cell_length_c 10.023914
_cell_angle_alpha 90.000000
_cell_angle_beta 90.000000
_cell_angle_gamma 90.000000
_cell_volume 3227.659497
_symmetry_space_group_name_H-M "P 4/N C C"
_symmetry_group_IT_number 130
_symmetry_cell_setting 'tetragonal'
loop_
_space_group_symop_operation_xyz
x,y,z
1/2-y,x,z
1/2-x,1/2-y,z
y,1/2-x,z
1/2+x,-y,1/2-z
-x,1/2+y,1/2-z
1/2+y,1/2+x,1/2-z
-y,-x,1/2-z
-x,-y,-z
1/2+y,-x,-z
1/2+x,1/2+y,-z
-y,1/2+x,-z
1/2-x,y,1/2+z
x,1/2-y,1/2+z
1/2-y,1/2-x,1/2+z
y,x,1/2+z
loop_
_atom_site_type_symbol
_atom_site_label
_atom_site_fract_x
_atom_site_fract_y
_atom_site_fract_z
Si Si1 0.374741 0.625260 0.250000
Si Si2 0.453744 0.166824 0.288499
Si Si3 0.935704 0.505257 0.616437
Si Si4 0.247512 0.854023 0.539800
Si Si5 0.720515 0.986114 0.495283
O O1 0.359284 0.540340 0.285105
O O2 0.354582 0.681318 0.364651
O O3 0.417566 0.090130 0.336837
O O4 0.442417 0.232448 0.394640
O O5 0.442304 0.197852 0.138733
O O6 0.856832 0.481137 0.554405
O O7 0.962484 0.462484 0.750000
O O8 0.000000 0.500000 0.500000
O O9 0.295508 0.815858 0.418807
O O10 0.228334 0.940888 0.535171
#
# Coordination Sequence:
#
# PCOD9565559 Si02
#       5
#     8  16  16  16  16
#     4  10  18  37  52  74 124 164 202 269 298 378
#     4  11  23  43  62  94 133 165 230 280 341 402
#     4  12  24  43  69  98 135 180 234 290 343 405
#     4  10  20  33  49  79 122 166 213 255 307 380
#     4  11  25  40  65  94 126 182 218 283 342 407
#
# _framework density 22.307183999999999
#
# number of rings (size 3 to 8) (size 9 to 14) (size 15 to 20)
#    0.000    1.111    5.556    1.333    3.111    3.556 
#    0.000    0.000    0.000    0.667    0.000    3.111 
#    0.000    0.000    0.000    0.000    0.000    0.000 
#
# Total GULP energy -401161.058363 kJ/mol
# GULP energy per Si atom -5571.681366 kJ/mol
# Density = 2.225641 g / cm^3
# Si number density = 22.307184 Si / 1000 Ang^3
#
#
#
# Elastic Constant Matrix: (Units=GPa)
#
#
# Indices 1 2 3 4 5 6 
#
# 1 189.6304 -136.0020 21.4632 0.0000 0.0000 0.0000
# 2 -136.0020 189.6314 21.4691 0.0000 0.0000 0.0000
# 3 21.4632 21.4691 130.9862 0.0000 0.0000 0.0000
# 4 0.0000 0.0000 0.0000 19.8607 0.0000 0.0000
# 5 0.0000 0.0000 0.0000 0.0000 19.8617 0.0000
# 6 0.0000 0.0000 0.0000 0.0000 0.0000 64.4258
#
#
#
# Elastic Compliance Matrix: (Units=1/GPa)
#
#
# Indices 1 2 3 4 5 6 
#
# 1 0.012267 0.009196 -0.003517 0.000000 0.000000 0.000000
# 2 0.009196 0.012267 -0.003517 0.000000 0.000000 0.000000
# 3 -0.003517 -0.003517 0.008787 0.000000 0.000000 0.000000
# 4 0.000000 0.000000 0.000000 0.050351 0.000000 0.000000
# 5 0.000000 0.000000 0.000000 0.000000 0.050348 0.000000
# 6 0.000000 0.000000 0.000000 0.000000 0.000000 0.015522
#
#
# Mechanical properties :
#
#
# Convention : Reuss Voigt Hill
#
# Bulk Modulus (GPa) = 26.56545 36.01208 31.28876
# Shear Modulus (GPa) = 31.69241 61.05082 46.37161
#
# Velocity S-wave (km/s) = 3.77334 5.23714 4.56430
# Velocity P-wave (km/s) = 5.56048 7.26285 6.46792
#
# Compressibility (1/GPa) = 0.03764287
#
# Stress axis : x y z
#
# Youngs Moduli (GPa) = 81.52199 81.52157 113.80160
#
# Poissons Ratio (x) = -0.74965 0.40026
# Poissons Ratio (y) = -0.74965 0.40028
# Poissons Ratio (z) = 0.28673 0.28674
#
# Static dielectric constant tensor:
#      x y z
#    x 3.568080 0.000000 0.000000 
#    y 0.000000 3.567990 0.000000 
#    z 0.000000 0.000000 1.653220 
# 
# From -- ./inp_files/803.got.cif
#   From: 2010.05.17/outbox.cif.g08.bks.cpg/sg130_1_cif.got.tgz:803.got - 2010.05.20 12:17:35.
