data_PCOD9565915
_publ_section_title
;
Structure prediction by ZEFSAII (Michael W. Deem and Ramdas Pophale) SiO2 
 PCOD9565915
Probable space group: P 4/N C C
;
_chemical_formula_sum "Si O2"
_cell_formula_units_Z 72
_cell_length_a 16.271949
_cell_length_b 16.271949
_cell_length_c 13.269911
_cell_angle_alpha 90.000000
_cell_angle_beta 90.000000
_cell_angle_gamma 90.000000
_cell_volume 3513.558258
_symmetry_space_group_name_H-M "P 4/N C C"
_symmetry_group_IT_number 130
_symmetry_cell_setting 'tetragonal'
loop_
_space_group_symop_operation_xyz
x,y,z
1/2-y,x,z
1/2-x,1/2-y,z
y,1/2-x,z
1/2+x,-y,1/2-z
-x,1/2+y,1/2-z
1/2+y,1/2+x,1/2-z
-y,-x,1/2-z
-x,-y,-z
1/2+y,-x,-z
1/2+x,1/2+y,-z
-y,1/2+x,-z
1/2-x,y,1/2+z
x,1/2-y,1/2+z
1/2-y,1/2-x,1/2+z
y,x,1/2+z
loop_
_atom_site_type_symbol
_atom_site_label
_atom_site_fract_x
_atom_site_fract_y
_atom_site_fract_z
Si Si1 0.183912 0.048388 0.061013
Si Si2 0.134021 0.185293 0.355879
Si Si3 0.628032 0.209174 0.957344
Si Si4 0.542800 0.640313 0.828888
Si Si5 0.131295 0.631295 0.250000
O O1 0.102571 0.071284 0.124661
O O2 0.269984 0.057785 0.120974
O O3 0.181103 0.115151 0.972464
O O4 0.185508 0.959645 0.006320
O O5 0.219346 0.142887 0.329684
O O6 0.064791 0.146024 0.288672
O O7 0.630401 0.203531 0.834333
O O8 0.652106 0.300606 0.994696
O O9 0.446212 0.626318 0.825416
#
# Coordination Sequence:
#
# PCOD9565915 Si02
#       5
#    16  16  16  16   8
#     4  12  24  44  70 101 142 181 226 286 348 410
#     4  11  22  38  67 100 137 183 225 267 332 417
#     4  11  26  49  74  98 130 184 240 288 340 402
#     4  12  25  43  68 104 140 181 226 281 348 418
#     4  12  26  49  70 100 140 173 230 296 342 414
#
# _framework density 20.492046999999999
#
# number of rings (size 3 to 8) (size 9 to 14) (size 15 to 20)
#    0.000    0.444    8.889    0.000    0.000    3.111 
#    8.000    0.000    0.000    0.000    0.000    0.000 
#    0.000    0.000    0.000    0.000    0.000    0.000 
#
# Total GULP energy -401606.420780 kJ/mol
# GULP energy per Si atom -5577.866955 kJ/mol
# Density = 2.044541 g / cm^3
# Si number density = 20.492047 Si / 1000 Ang^3
#
#
#
# Elastic Constant Matrix: (Units=GPa)
#
#
# Indices 1 2 3 4 5 6 
#
# 1 80.5158 10.7060 21.6601 0.0000 0.0000 0.0000
# 2 10.7060 80.5158 21.6601 0.0000 0.0000 0.0000
# 3 21.6601 21.6601 85.7306 0.0000 0.0000 0.0000
# 4 0.0000 0.0000 0.0000 33.2598 0.0000 0.0000
# 5 0.0000 0.0000 0.0000 0.0000 33.2598 0.0000
# 6 0.0000 0.0000 0.0000 0.0000 0.0000 15.0648
#
#
#
# Elastic Compliance Matrix: (Units=1/GPa)
#
#
# Indices 1 2 3 4 5 6 
#
# 1 0.013391 -0.000934 -0.003147 0.000000 0.000000 0.000000
# 2 -0.000934 0.013391 -0.003147 0.000000 0.000000 0.000000
# 3 -0.003147 -0.003147 0.013255 0.000000 0.000000 0.000000
# 4 0.000000 0.000000 0.000000 0.030066 0.000000 0.000000
# 5 0.000000 0.000000 0.000000 0.000000 0.030066 0.000000
# 6 0.000000 0.000000 0.000000 0.000000 0.000000 0.066380
#
#
# Mechanical properties :
#
#
# Convention : Reuss Voigt Hill
#
# Bulk Modulus (GPa) = 39.09381 39.42383 39.25882
# Shear Modulus (GPa) = 26.38074 29.16593 27.77333
#
# Velocity S-wave (km/s) = 3.59188 3.77673 3.68546
# Velocity P-wave (km/s) = 6.02670 6.18859 6.10818
#
# Compressibility (1/GPa) = 0.02557950
#
# Stress axis : x y z
#
# Youngs Moduli (GPa) = 74.67831 74.67831 75.44450
#
# Poissons Ratio (x) = 0.06974 0.23744
# Poissons Ratio (y) = 0.06974 0.23744
# Poissons Ratio (z) = 0.23503 0.23503
#
# Static dielectric constant tensor:
#      x y z
#    x 1.786890 0.000000 0.000000 
#    y 0.000000 1.786890 0.000000 
#    z 0.000000 0.000000 1.714470 
# 
# From -- ./inp_files/1604.got.cif
#   From: 2010.05.17/outbox.cif.g08.bks.cpg/sg130_1_cif.got.tgz:1604.got - 2010.05.20 12:17:35.
