data_PCOD9565001
_publ_section_title
;
Structure prediction by ZEFSAII (Michael W. Deem and Ramdas Pophale) SiO2 
 PCOD9565001
Probable space group: P 4/M N C
;
_chemical_formula_sum "Si O2"
_cell_formula_units_Z 112
_cell_length_a 14.890647
_cell_length_b 14.890647
_cell_length_c 28.316542
_cell_angle_alpha 90.000000
_cell_angle_beta 90.000000
_cell_angle_gamma 90.000000
_cell_volume 6278.665597
_symmetry_space_group_name_H-M "P 4/M N C"
_symmetry_group_IT_number 128
_symmetry_cell_setting 'tetragonal'
loop_
_space_group_symop_operation_xyz
x,y,z
-y,x,z
-x,-y,z
y,-x,z
1/2+x,1/2-y,1/2-z
1/2-x,1/2+y,1/2-z
1/2+y,1/2+x,1/2-z
1/2-y,1/2-x,1/2-z
-x,-y,-z
y,-x,-z
x,y,-z
-y,x,-z
1/2-x,1/2+y,1/2+z
1/2+x,1/2-y,1/2+z
1/2-y,1/2-x,1/2+z
1/2+y,1/2+x,1/2+z
loop_
_atom_site_type_symbol
_atom_site_label
_atom_site_fract_x
_atom_site_fract_y
_atom_site_fract_z
Si Si1 0.055407 0.359659 0.553828
Si Si2 0.422180 0.753998 0.856078
Si Si3 0.631194 0.424871 0.279341
Si Si4 0.055443 0.412407 0.805532
Si Si5 0.592851 0.784426 0.654864
Si Si6 0.618319 0.723694 0.817671
Si Si7 0.946248 0.358552 0.945098
O O1 0.067460 0.332116 0.500000
O O2 0.077586 0.281047 0.589443
O O3 0.115105 0.449053 0.561732
O O4 0.952382 0.392138 0.560084
O O5 0.406226 0.848371 0.829571
O O6 0.519497 0.720366 0.839873
O O7 0.347134 0.683425 0.842405
O O8 0.617862 0.532385 0.275729
O O9 0.682621 0.400457 0.327396
O O10 0.694177 0.390871 0.236762
O O11 0.072996 0.427005 0.750000
O O12 0.000000 0.500000 0.822964
O O13 0.993783 0.328441 0.819347
O O14 0.678034 0.840702 0.673760
O O15 0.583253 0.796619 0.598506
O O16 0.934751 0.328386 0.000000
#
# Coordination Sequence:
#
# PCOD9565001 Si02
#       7
#    16  16  16  16  16  16  16
#     4   9  17  34  60  91 122 156 194 243 317 378
#     4  12  23  40  59  88 119 168 202 257 298 369
#     4  11  26  45  60  82 125 175 205 240 303 378
#     4  11  22  35  57  86 122 150 189 253 322 353
#     4  12  23  38  62  96 121 151 210 265 302 364
#     4  12  25  40  62  86 123 164 219 247 303 360
#     4   9  17  33  61  92 124 155 190 250 322 376
#
# _framework density 17.838184999999999
#
# number of rings (size 3 to 8) (size 9 to 14) (size 15 to 20)
#    0.000    1.143    5.714    2.143    4.000    0.286 
#    0.000    1.429    0.000    0.857    0.000    2.000 
#    0.000    0.000    0.000    0.000    0.000    0.000 
#
# Total GULP energy -625736.959386 kJ/mol
# GULP energy per Si atom -5586.937137 kJ/mol
# Density = 1.779758 g / cm^3
# Si number density = 17.838185 Si / 1000 Ang^3
#
#
#
# Elastic Constant Matrix: (Units=GPa)
#
#
# Indices 1 2 3 4 5 6 
#
# 1 63.1756 47.8916 42.0412 0.0000 0.0000 0.0000
# 2 47.8916 63.1755 42.0411 0.0000 0.0000 0.0000
# 3 42.0412 42.0411 144.8581 0.0000 0.0000 0.0000
# 4 0.0000 0.0000 0.0000 39.8541 0.0000 0.0000
# 5 0.0000 0.0000 0.0000 0.0000 39.8550 0.0000
# 6 0.0000 0.0000 0.0000 0.0000 0.0000 17.8957
#
#
#
# Elastic Compliance Matrix: (Units=1/GPa)
#
#
# Indices 1 2 3 4 5 6 
#
# 1 0.038484 -0.026945 -0.003349 0.000000 0.000000 0.000000
# 2 -0.026945 0.038483 -0.003349 0.000000 0.000000 0.000000
# 3 -0.003349 -0.003349 0.008847 0.000000 0.000000 0.000000
# 4 0.000000 0.000000 0.000000 0.025092 0.000000 0.000000
# 5 0.000000 0.000000 0.000000 0.000000 0.025091 0.000000
# 6 0.000000 0.000000 0.000000 0.000000 0.000000 0.055879
#
#
# Mechanical properties :
#
#
# Convention : Reuss Voigt Hill
#
# Bulk Modulus (GPa) = 53.96840 59.46189 56.71514
# Shear Modulus (GPa) = 18.84394 28.80330 23.82362
#
# Velocity S-wave (km/s) = 3.25373 4.02269 3.65847
# Velocity P-wave (km/s) = 6.66602 7.41502 7.05047
#
# Compressibility (1/GPa) = 0.01852936
#
# Stress axis : x y z
#
# Youngs Moduli (GPa) = 25.98514 25.98516 113.03121
#
# Poissons Ratio (x) = 0.70016 0.37852
# Poissons Ratio (y) = 0.70016 0.37852
# Poissons Ratio (z) = 0.08702 0.08702
#
# Static dielectric constant tensor:
#      x y z
#    x 1.594010 0.000000 0.000000 
#    y 0.000000 1.594010 0.000000 
#    z 0.000000 0.000000 1.644390 
# 
# From -- ./inp_files/6888.got.cif
#   From: 2010.05.17/outbox.cif.g08.bks.cpg/sg128_4_cif.got.tgz:6888.got - 2010.05.20 12:07:25.
