data_PCOD9565177
_publ_section_title
;
Structure prediction by ZEFSAII (Michael W. Deem and Ramdas Pophale) SiO2 
 PCOD9565177
Probable space group: P 4/N M M
;
_chemical_formula_sum "Si O2"
_cell_formula_units_Z 112
_cell_length_a 21.230887
_cell_length_b 21.230887
_cell_length_c 18.624255
_cell_angle_alpha 90.000000
_cell_angle_beta 90.000000
_cell_angle_gamma 90.000000
_cell_volume 8394.893423
_symmetry_space_group_name_H-M "P 4/N M M"
_symmetry_group_IT_number 129
_symmetry_cell_setting 'tetragonal'
loop_
_space_group_symop_operation_xyz
x,y,z
1/2-y,x,z
1/2-x,1/2-y,z
y,1/2-x,z
1/2+x,-y,-z
-x,1/2+y,-z
1/2+y,1/2+x,-z
-y,-x,-z
-x,-y,-z
1/2+y,-x,-z
1/2+x,1/2+y,-z
-y,1/2+x,-z
1/2-x,y,z
x,1/2-y,z
1/2-y,1/2-x,z
y,x,z
loop_
_atom_site_type_symbol
_atom_site_label
_atom_site_fract_x
_atom_site_fract_y
_atom_site_fract_z
Si Si1 0.178001 0.673537 0.921634
Si Si2 0.394461 0.676616 0.776947
Si Si3 0.943427 0.103870 0.573919
Si Si4 0.179301 0.674974 0.374200
Si Si5 0.320906 0.080766 0.379231
Si Si6 0.072962 0.177016 0.552134
Si Si7 0.914011 0.012999 0.700867
O O1 0.250000 0.651598 0.912459
O O2 0.180019 0.750000 0.925382
O O3 0.138207 0.658341 0.851470
O O4 0.153167 0.653167 0.000000
O O5 0.415537 0.750000 0.781576
O O6 0.346366 0.674538 0.709185
O O7 0.448461 0.627404 0.757035
O O8 0.935402 0.064599 0.500000
O O9 0.878250 0.142534 0.584643
O O10 0.946570 0.059017 0.643190
O O11 0.005074 0.147632 0.571732
O O12 0.250000 0.655369 0.399210
O O13 0.175167 0.750000 0.379989
O O14 0.250000 0.074888 0.353354
O O15 0.352518 0.147483 0.361222
O O16 0.321712 0.074444 0.465246
O O17 0.364675 0.027673 0.345580
O O18 0.079931 0.250000 0.576401
O O19 0.129587 0.129587 0.574947
O O20 0.965594 0.965594 0.732086
#
# Coordination Sequence:
#
# PCOD9565177 Si02
#       7
#    16  16  16  16  16  16  16
#     4   8  13  22  39  63  86 105 125 150 180 214
#     4   9  16  26  41  58  78 104 130 158 190 229
#     4  11  20  30  44  58  76 103 138 173 206 244
#     4   9  18  29  39  56  82 110 136 163 200 241
#     4   9  17  28  41  56  73  94 124 164 209 251
#     4  10  20  32  46  61  76  96 126 169 218 262
#     4  10  19  29  41  55  74 101 133 168 200 237
#
# _framework density 13.341445
#
# number of rings (size 3 to 8) (size 9 to 14) (size 15 to 20)
#    0.000    2.571    1.429    2.143    0.000    4.286 
#    0.000    2.143    0.000    0.429    0.000    0.000 
#    0.000    0.000    0.000    0.000    0.000    0.000 
#
# Total GULP energy -623721.960564 kJ/mol
# GULP energy per Si atom -5568.946076 kJ/mol
# Density = 1.331108 g / cm^3
# Si number density = 13.341445 Si / 1000 Ang^3
#
#
#
# Elastic Constant Matrix: (Units=GPa)
#
#
# Indices 1 2 3 4 5 6 
#
# 1 81.1085 43.1178 25.4518 0.0000 0.0000 0.0000
# 2 43.1178 81.1092 25.4516 0.0000 0.0000 0.0000
# 3 25.4518 25.4516 55.3799 0.0000 0.0000 0.0000
# 4 0.0000 0.0000 0.0000 11.3851 0.0000 0.0000
# 5 0.0000 0.0000 0.0000 0.0000 11.3850 0.0000
# 6 0.0000 0.0000 0.0000 0.0000 0.0000 23.8105
#
#
#
# Elastic Compliance Matrix: (Units=1/GPa)
#
#
# Indices 1 2 3 4 5 6 
#
# 1 0.018120 -0.008202 -0.004558 0.000000 0.000000 0.000000
# 2 -0.008202 0.018120 -0.004558 0.000000 0.000000 0.000000
# 3 -0.004558 -0.004558 0.022247 0.000000 0.000000 0.000000
# 4 0.000000 0.000000 0.000000 0.087834 0.000000 0.000000
# 5 0.000000 0.000000 0.000000 0.000000 0.087835 0.000000
# 6 0.000000 0.000000 0.000000 0.000000 0.000000 0.041998
#
#
# Mechanical properties :
#
#
# Convention : Reuss Voigt Hill
#
# Bulk Modulus (GPa) = 41.92892 45.07110 43.50001
# Shear Modulus (GPa) = 15.68682 17.55456 16.62069
#
# Velocity S-wave (km/s) = 3.43271 3.63132 3.53341
# Velocity P-wave (km/s) = 6.87074 7.17204 7.02301
#
# Compressibility (1/GPa) = 0.02384989
#
# Stress axis : x y z
#
# Youngs Moduli (GPa) = 55.18817 55.18884 44.95070
#
# Poissons Ratio (x) = 0.45267 0.20489
# Poissons Ratio (y) = 0.45267 0.20488
# Poissons Ratio (z) = 0.25155 0.25154
#
# Static dielectric constant tensor:
#      x y z
#    x 1.448250 0.000000 0.000000 
#    y 0.000000 1.448250 0.000000 
#    z 0.000000 0.000000 1.420870 
# 
# From -- ./inp_files/5980.got.cif
#   From: 2010.05.17/outbox.cif.g08.bks.cpg/sg129_3_cif.got.tgz:5980.got - 2010.05.20 12:12:06.
