data_PCOD9565976
_publ_section_title
;
Structure prediction by ZEFSAII (Michael W. Deem and Ramdas Pophale) SiO2 
 PCOD9565976
Probable space group: P 4/N C C
;
_chemical_formula_sum "Si O2"
_cell_formula_units_Z 64
_cell_length_a 12.209778
_cell_length_b 12.209778
_cell_length_c 18.863540
_cell_angle_alpha 90.000000
_cell_angle_beta 90.000000
_cell_angle_gamma 90.000000
_cell_volume 2812.151621
_symmetry_space_group_name_H-M "P 4/N C C"
_symmetry_group_IT_number 130
_symmetry_cell_setting 'tetragonal'
loop_
_space_group_symop_operation_xyz
x,y,z
1/2-y,x,z
1/2-x,1/2-y,z
y,1/2-x,z
1/2+x,-y,1/2-z
-x,1/2+y,1/2-z
1/2+y,1/2+x,1/2-z
-y,-x,1/2-z
-x,-y,-z
1/2+y,-x,-z
1/2+x,1/2+y,-z
-y,1/2+x,-z
1/2-x,y,1/2+z
x,1/2-y,1/2+z
1/2-y,1/2-x,1/2+z
y,x,1/2+z
loop_
_atom_site_type_symbol
_atom_site_label
_atom_site_fract_x
_atom_site_fract_y
_atom_site_fract_z
Si Si1 0.101980 0.976049 0.386287
Si Si2 0.727243 0.047701 0.842042
Si Si3 0.026628 0.674642 0.180071
Si Si4 0.826329 0.583154 0.979174
O O1 0.071976 0.853150 0.362203
O O2 0.222908 0.012583 0.363296
O O3 0.114318 0.994725 0.470418
O O4 0.026929 0.062094 0.344694
O O5 0.654252 0.157603 0.839677
O O6 0.706222 0.007457 0.761818
O O7 0.677075 0.963798 0.899378
O O8 0.889393 0.697657 0.991003
#
# Coordination Sequence:
#
# PCOD9565976 Si02
#       4
#    16  16  16  16
#     4  12  25  48  78 106 156 197 248 311 383 447
#     4  11  27  46  77 109 146 198 255 311 370 448
#     4  11  27  47  76 111 147 200 251 315 372 447
#     4  11  25  46  72 114 153 197 250 309 374 453
#
# _framework density 22.758375000000001
#
# number of rings (size 3 to 8) (size 9 to 14) (size 15 to 20)
#    0.000    0.750    2.500    3.000   14.000    4.500 
#    0.000    0.000    0.000    0.000    0.000    0.000 
#    0.000    0.000    0.000    0.000    0.000    0.000 
#
# Total GULP energy -357427.019332 kJ/mol
# GULP energy per Si atom -5584.797177 kJ/mol
# Density = 2.270658 g / cm^3
# Si number density = 22.758375 Si / 1000 Ang^3
#
#
#
# Elastic Constant Matrix: (Units=GPa)
#
#
# Indices 1 2 3 4 5 6 
#
# 1 108.7287 65.6448 76.2655 0.0000 0.0000 0.0000
# 2 65.6448 108.7287 76.2655 0.0000 0.0000 0.0000
# 3 76.2655 76.2655 136.4746 0.0000 0.0000 0.0000
# 4 0.0000 0.0000 0.0000 29.6067 0.0000 0.0000
# 5 0.0000 0.0000 0.0000 0.0000 29.6067 0.0000
# 6 0.0000 0.0000 0.0000 0.0000 0.0000 -38.5676
#
#
#
# Elastic Compliance Matrix: (Units=1/GPa)
#
#
# Indices 1 2 3 4 5 6 
#
# 1 0.017215 -0.005996 -0.006269 0.000000 0.000000 0.000000
# 2 -0.005996 0.017215 -0.006269 0.000000 0.000000 0.000000
# 3 -0.006269 -0.006269 0.014334 0.000000 0.000000 0.000000
# 4 0.000000 0.000000 0.000000 0.033776 0.000000 0.000000
# 5 0.000000 0.000000 0.000000 0.000000 0.033776 0.000000
# 6 0.000000 0.000000 0.000000 0.000000 0.000000 -0.025928
#
#
# Mechanical properties :
#
#
# Convention : Reuss Voigt Hill
#
# Bulk Modulus (GPa) = 85.50991 87.80928 86.65959
# Shear Modulus (GPa) = 38.06475 13.17956 25.62215
#
# Velocity S-wave (km/s) = 4.09413 2.40908 3.35899
# Velocity P-wave (km/s) = 7.74621 6.81214 7.29414
#
# Compressibility (1/GPa) = 0.01169455
#
# Stress axis : x y z
#
# Youngs Moduli (GPa) = 58.08986 58.08986 69.76232
#
# Poissons Ratio (x) = 0.34830 0.43737
# Poissons Ratio (y) = 0.34830 0.43737
# Poissons Ratio (z) = 0.36419 0.36419
#
# Static dielectric constant tensor:
#      x y z
#    x 1.868120 0.000000 0.000000 
#    y 0.000000 1.868120 0.000000 
#    z 0.000000 0.000000 1.868840 
# 
# From -- ./inp_files/3500.got.cif
#   From: 2010.05.17/outbox.cif.g08.bks.cpg/sg130_2_cif.got.tgz:3500.got - 2010.05.20 12:17:35.
