data_PCOD9565229
_publ_section_title
;
Structure prediction by ZEFSAII (Michael W. Deem and Ramdas Pophale) SiO2 
 PCOD9565229
Probable space group: P 4/N M M
;
_chemical_formula_sum "Si O2"
_cell_formula_units_Z 96
_cell_length_a 24.143581
_cell_length_b 24.143581
_cell_length_c 9.036862
_cell_angle_alpha 90.000000
_cell_angle_beta 90.000000
_cell_angle_gamma 90.000000
_cell_volume 5267.699852
_symmetry_space_group_name_H-M "P 4/N M M"
_symmetry_group_IT_number 129
_symmetry_cell_setting 'tetragonal'
loop_
_space_group_symop_operation_xyz
x,y,z
1/2-y,x,z
1/2-x,1/2-y,z
y,1/2-x,z
1/2+x,-y,-z
-x,1/2+y,-z
1/2+y,1/2+x,-z
-y,-x,-z
-x,-y,-z
1/2+y,-x,-z
1/2+x,1/2+y,-z
-y,1/2+x,-z
1/2-x,y,z
x,1/2-y,z
1/2-y,1/2-x,z
y,x,z
loop_
_atom_site_type_symbol
_atom_site_label
_atom_site_fract_x
_atom_site_fract_y
_atom_site_fract_z
Si Si1 0.397160 0.490213 0.901172
Si Si2 0.684610 0.091735 0.535808
Si Si3 0.507784 0.151750 0.213916
Si Si4 0.047385 0.539768 0.337908
Si Si5 0.096957 0.188520 0.360336
Si Si6 0.477816 0.313656 0.648689
O O1 0.446345 0.446345 0.941178
O O2 0.422938 0.541082 0.806913
O O3 0.355249 0.465246 0.780912
O O4 0.363567 0.511012 0.042681
O O5 0.643564 0.143564 0.500000
O O6 0.750000 0.107323 0.530730
O O7 0.672772 0.062132 0.696524
O O8 0.677688 0.039650 0.421052
O O9 0.495940 0.093697 0.297592
O O10 0.453956 0.187785 0.244971
O O11 0.061902 0.561902 0.500000
O O12 0.987190 0.512811 0.353706
O O13 0.121787 0.250000 0.363313
O O14 0.141947 0.141947 0.329801
O O15 0.065851 0.178676 0.516594
O O16 0.475424 0.250000 0.697917
#
# Coordination Sequence:
#
# PCOD9565229 Si02
#       6
#    16  16  16  16  16  16
#     4  11  21  31  49  80 114 147 181 219 269 329
#     4  10  21  38  59  81 106 140 182 226 276 333
#     4  11  20  33  51  77 109 138 172 217 267 321
#     4  10  19  30  47  72 105 143 176 208 253 310
#     4  10  20  35  54  75 103 141 185 232 279 327
#     4   9  19  34  52  75 103 139 181 224 274 330
#
# _framework density 18.224271999999999
#
# number of rings (size 3 to 8) (size 9 to 14) (size 15 to 20)
#    0.000    1.833    0.000    7.500    0.000    4.333 
#    0.000    0.000    0.000    0.500    0.000    0.000 
#    0.000    6.667    0.000    0.000    0.000    0.000 
#
# Total GULP energy -534657.101090 kJ/mol
# GULP energy per Si atom -5569.344803 kJ/mol
# Density = 1.818279 g / cm^3
# Si number density = 18.224272 Si / 1000 Ang^3
#
#
#
# Elastic Constant Matrix: (Units=GPa)
#
#
# Indices 1 2 3 4 5 6 
#
# 1 92.5156 46.7149 27.9789 0.0000 0.0000 0.0000
# 2 46.7149 92.5156 27.9789 0.0000 0.0000 0.0000
# 3 27.9789 27.9789 95.2622 0.0000 0.0000 0.0000
# 4 0.0000 0.0000 0.0000 18.3217 0.0000 0.0000
# 5 0.0000 0.0000 0.0000 0.0000 18.3217 0.0000
# 6 0.0000 0.0000 0.0000 0.0000 0.0000 14.9966
#
#
#
# Elastic Compliance Matrix: (Units=1/GPa)
#
#
# Indices 1 2 3 4 5 6 
#
# 1 0.014989 -0.006845 -0.002392 0.000000 0.000000 0.000000
# 2 -0.006845 0.014989 -0.002392 0.000000 0.000000 0.000000
# 3 -0.002392 -0.002392 0.011902 0.000000 0.000000 0.000000
# 4 0.000000 0.000000 0.000000 0.054580 0.000000 0.000000
# 5 0.000000 0.000000 0.000000 0.000000 0.054580 0.000000
# 6 0.000000 0.000000 0.000000 0.000000 0.000000 0.066682
#
#
# Mechanical properties :
#
#
# Convention : Reuss Voigt Hill
#
# Bulk Modulus (GPa) = 53.69904 53.95984 53.82944
# Shear Modulus (GPa) = 20.22768 22.16940 21.19854
#
# Velocity S-wave (km/s) = 3.33518 3.49159 3.41428
# Velocity P-wave (km/s) = 6.66039 6.77702 6.71896
#
# Compressibility (1/GPa) = 0.01862231
#
# Stress axis : x y z
#
# Youngs Moduli (GPa) = 66.71710 66.71710 84.01729
#
# Poissons Ratio (x) = 0.45668 0.20095
# Poissons Ratio (y) = 0.45668 0.20095
# Poissons Ratio (z) = 0.15957 0.15957
#
# Static dielectric constant tensor:
#      x y z
#    x 1.671520 0.000000 0.000000 
#    y 0.000000 1.671520 0.000000 
#    z 0.000000 0.000000 1.648060 
# 
# From -- ./inp_files/2589.got.cif
#   From: 2010.05.17/outbox.cif.g08.bks.cpg/sg129_2_cif.got.tgz:2589.got - 2010.05.20 12:12:06.
