data_PCOD9565885
_publ_section_title
;
Structure prediction by ZEFSAII (Michael W. Deem and Ramdas Pophale) SiO2 
 PCOD9565885
Probable space group: P 4/N C C
;
_chemical_formula_sum "Si O2"
_cell_formula_units_Z 96
_cell_length_a 23.361751
_cell_length_b 23.361751
_cell_length_c 8.970727
_cell_angle_alpha 90.000000
_cell_angle_beta 90.000000
_cell_angle_gamma 90.000000
_cell_volume 4895.966322
_symmetry_space_group_name_H-M "P 4/N C C"
_symmetry_group_IT_number 130
_symmetry_cell_setting 'tetragonal'
loop_
_space_group_symop_operation_xyz
x,y,z
1/2-y,x,z
1/2-x,1/2-y,z
y,1/2-x,z
1/2+x,-y,1/2-z
-x,1/2+y,1/2-z
1/2+y,1/2+x,1/2-z
-y,-x,1/2-z
-x,-y,-z
1/2+y,-x,-z
1/2+x,1/2+y,-z
-y,1/2+x,-z
1/2-x,y,1/2+z
x,1/2-y,1/2+z
1/2-y,1/2-x,1/2+z
y,x,1/2+z
loop_
_atom_site_type_symbol
_atom_site_label
_atom_site_fract_x
_atom_site_fract_y
_atom_site_fract_z
Si Si1 0.063549 0.101474 0.136309
Si Si2 0.265487 0.418563 0.611218
Si Si3 0.756490 0.842922 0.642568
Si Si4 0.104035 0.541852 0.365152
Si Si5 0.504566 0.837975 0.861907
Si Si6 0.922524 0.017540 0.626255
O O1 0.077444 0.168234 0.150643
O O2 0.118095 0.059447 0.145431
O O3 0.013526 0.093098 0.260310
O O4 0.038498 0.090588 0.970657
O O5 0.242483 0.360285 0.685518
O O6 0.259742 0.403654 0.438092
O O7 0.225781 0.471714 0.652465
O O8 0.698519 0.808949 0.609233
O O9 0.095218 0.595218 0.250000
O O10 0.156257 0.526115 0.476463
O O11 0.058381 0.555774 0.494344
O O12 0.469025 0.864981 0.722786
O O13 0.972082 0.027919 0.750000
#
# Coordination Sequence:
#
# PCOD9565885 Si02
#       6
#    16  16  16  16  16  16
#     4  11  21  33  51  73  99 133 170 212 259 302
#     4  12  24  37  50  72 104 134 174 219 266 312
#     4  11  22  36  52  66  88 132 186 234 268 291
#     4   9  20  35  53  75  96 121 163 215 259 306
#     4  11  21  33  51  73  99 133 170 212 259 302
#     4   9  20  35  53  75  96 121 163 215 259 306
#
# _framework density 19.607979
#
# number of rings (size 3 to 8) (size 9 to 14) (size 15 to 20)
#    0.000    1.500    0.000    6.000    0.000   14.667 
#    0.000    0.000    0.000    0.000    0.000    0.000 
#    0.000    0.000    0.000    0.000    0.000  770.000 
#
# Total GULP energy -534611.603451 kJ/mol
# GULP energy per Si atom -5568.870869 kJ/mol
# Density = 1.956335 g / cm^3
# Si number density = 19.607979 Si / 1000 Ang^3
#
#
#
# Elastic Constant Matrix: (Units=GPa)
#
#
# Indices 1 2 3 4 5 6 
#
# 1 46.2704 22.4897 12.3435 0.0000 0.0000 0.0000
# 2 22.4897 46.2706 12.3439 0.0000 0.0000 0.0000
# 3 12.3435 12.3439 115.3099 0.0000 0.0000 0.0000
# 4 0.0000 0.0000 0.0000 23.9877 0.0000 0.0000
# 5 0.0000 0.0000 0.0000 0.0000 23.9876 0.0000
# 6 0.0000 0.0000 0.0000 0.0000 0.0000 15.1244
#
#
#
# Elastic Compliance Matrix: (Units=1/GPa)
#
#
# Indices 1 2 3 4 5 6 
#
# 1 0.028588 -0.013463 -0.001619 0.000000 0.000000 0.000000
# 2 -0.013463 0.028588 -0.001619 0.000000 0.000000 0.000000
# 3 -0.001619 -0.001619 0.009019 0.000000 0.000000 0.000000
# 4 0.000000 0.000000 0.000000 0.041688 0.000000 0.000000
# 5 0.000000 0.000000 0.000000 0.000000 0.041688 0.000000
# 6 0.000000 0.000000 0.000000 0.000000 0.000000 0.066118
#
#
# Mechanical properties :
#
#
# Convention : Reuss Voigt Hill
#
# Bulk Modulus (GPa) = 30.49535 33.57834 32.03684
# Shear Modulus (GPa) = 19.22917 23.33155 21.28036
#
# Velocity S-wave (km/s) = 3.13498 3.45324 3.29795
# Velocity P-wave (km/s) = 5.35634 5.74994 5.55663
#
# Compressibility (1/GPa) = 0.03279188
#
# Stress axis : x y z
#
# Youngs Moduli (GPa) = 34.98005 34.98015 110.87804
#
# Poissons Ratio (x) = 0.47094 0.17951
# Poissons Ratio (y) = 0.47094 0.17952
# Poissons Ratio (z) = 0.05663 0.05664
#
# Static dielectric constant tensor:
#      x y z
#    x 1.728230 0.000000 0.000000 
#    y 0.000000 1.728230 0.000000 
#    z 0.000000 0.000000 1.769780 
# 
# From -- ./inp_files/925.got.cif
#   From: 2010.05.17/outbox.cif.g08.bks.cpg/sg130_1_cif.got.tgz:925.got - 2010.05.20 12:17:35.
