data_PCOD9565657
_publ_section_title
;
Structure prediction by ZEFSAII (Michael W. Deem and Ramdas Pophale) SiO2 
 PCOD9565657
Probable space group: P 4/N C C
;
_chemical_formula_sum "Si O2"
_cell_formula_units_Z 84
_cell_length_a 14.805881
_cell_length_b 14.805881
_cell_length_c 17.814734
_cell_angle_alpha 90.000000
_cell_angle_beta 90.000000
_cell_angle_gamma 90.000000
_cell_volume 3905.241098
_symmetry_space_group_name_H-M "P 4/N C C"
_symmetry_group_IT_number 130
_symmetry_cell_setting 'tetragonal'
loop_
_space_group_symop_operation_xyz
x,y,z
1/2-y,x,z
1/2-x,1/2-y,z
y,1/2-x,z
1/2+x,-y,1/2-z
-x,1/2+y,1/2-z
1/2+y,1/2+x,1/2-z
-y,-x,1/2-z
-x,-y,-z
1/2+y,-x,-z
1/2+x,1/2+y,-z
-y,1/2+x,-z
1/2-x,y,1/2+z
x,1/2-y,1/2+z
1/2-y,1/2-x,1/2+z
y,x,1/2+z
loop_
_atom_site_type_symbol
_atom_site_label
_atom_site_fract_x
_atom_site_fract_y
_atom_site_fract_z
Si Si1 0.207685 0.990906 0.208684
Si Si2 0.052883 0.907719 0.496440
Si Si3 0.750000 0.250000 0.500000
Si Si4 0.918065 0.165843 0.853014
Si Si5 0.794916 0.891906 0.928703
Si Si6 0.646262 0.330432 0.127094
O O1 0.128833 0.923663 0.179968
O O2 0.192652 0.999791 0.297656
O O3 0.294132 0.929595 0.183041
O O4 0.204449 0.080439 0.159397
O O5 0.136712 0.928175 0.439164
O O6 0.083678 0.885682 0.580515
O O7 0.982336 0.831217 0.468679
O O8 0.000000 0.000000 0.500000
O O9 0.762811 0.166837 0.443379
O O10 0.853915 0.254129 0.842148
O O11 0.692887 0.860073 0.945711
#
# Coordination Sequence:
#
# PCOD9565657 Si02
#       6
#    16  16   4  16  16  16
#     4  10  20  37  58  89 127 161 208 256 321 384
#     4  11  24  38  62  95 132 163 211 271 326 382
#     4  12  16  28  54  88 116 148 202 248 320 376
#     4  10  21  35  58  91 128 162 198 265 319 385
#     4  10  22  42  66  86 120 175 221 258 313 395
#     4  12  19  33  59  90 123 161 201 263 329 383
#
# _framework density 21.509556
#
# number of rings (size 3 to 8) (size 9 to 14) (size 15 to 20)
#    0.000    1.333    3.810    2.857    2.667    1.524 
#    3.429    0.000    0.000    0.000    0.000    0.000 
#    0.000    0.000    0.000    0.000    0.000    0.000 
#
# Total GULP energy -467886.960969 kJ/mol
# GULP energy per Si atom -5570.082869 kJ/mol
# Density = 2.146060 g / cm^3
# Si number density = 21.509556 Si / 1000 Ang^3
#
#
#
# Elastic Constant Matrix: (Units=GPa)
#
#
# Indices 1 2 3 4 5 6 
#
# 1 73.2958 24.9066 13.8024 0.0000 0.0000 0.0000
# 2 24.9066 73.2958 13.8024 0.0000 0.0000 0.0000
# 3 13.8024 13.8024 62.5618 0.0000 0.0000 0.0000
# 4 0.0000 0.0000 0.0000 18.6375 0.0000 0.0000
# 5 0.0000 0.0000 0.0000 0.0000 18.6375 0.0000
# 6 0.0000 0.0000 0.0000 0.0000 0.0000 27.7178
#
#
#
# Elastic Compliance Matrix: (Units=1/GPa)
#
#
# Indices 1 2 3 4 5 6 
#
# 1 0.015761 -0.004905 -0.002395 0.000000 0.000000 0.000000
# 2 -0.004905 0.015761 -0.002395 0.000000 0.000000 0.000000
# 3 -0.002395 -0.002395 0.017041 0.000000 0.000000 0.000000
# 4 0.000000 0.000000 0.000000 0.053655 0.000000 0.000000
# 5 0.000000 0.000000 0.000000 0.000000 0.053655 0.000000
# 6 0.000000 0.000000 0.000000 0.000000 0.000000 0.036078
#
#
# Mechanical properties :
#
#
# Convention : Reuss Voigt Hill
#
# Bulk Modulus (GPa) = 34.27810 34.90849 34.59330
# Shear Modulus (GPa) = 22.61770 23.44137 23.02954
#
# Velocity S-wave (km/s) = 3.24623 3.30481 3.27565
# Velocity P-wave (km/s) = 5.47919 5.55220 5.51581
#
# Compressibility (1/GPa) = 0.02917315
#
# Stress axis : x y z
#
# Youngs Moduli (GPa) = 63.44756 63.44756 58.68193
#
# Poissons Ratio (x) = 0.31119 0.14055
# Poissons Ratio (y) = 0.31119 0.14055
# Poissons Ratio (z) = 0.15197 0.15197
#
# Static dielectric constant tensor:
#      x y z
#    x 1.822250 0.000000 0.000000 
#    y 0.000000 1.822250 0.000000 
#    z 0.000000 0.000000 2.203070 
# 
# From -- ./inp_files/3713.got.cif
#   From: 2010.05.17/outbox.cif.g08.bks.cpg/sg130_2_cif.got.tgz:3713.got - 2010.05.20 12:17:35.
