data_PCOD9565621
_publ_section_title
;
Structure prediction by ZEFSAII (Michael W. Deem and Ramdas Pophale) SiO2 
 PCOD9565621
Probable space group: P 4/N C C
;
_chemical_formula_sum "Si O2"
_cell_formula_units_Z 112
_cell_length_a 15.212392
_cell_length_b 15.212392
_cell_length_c 27.860063
_cell_angle_alpha 90.000000
_cell_angle_beta 90.000000
_cell_angle_gamma 90.000000
_cell_volume 6447.288588
_symmetry_space_group_name_H-M "P 4/N C C"
_symmetry_group_IT_number 130
_symmetry_cell_setting 'tetragonal'
loop_
_space_group_symop_operation_xyz
x,y,z
1/2-y,x,z
1/2-x,1/2-y,z
y,1/2-x,z
1/2+x,-y,1/2-z
-x,1/2+y,1/2-z
1/2+y,1/2+x,1/2-z
-y,-x,1/2-z
-x,-y,-z
1/2+y,-x,-z
1/2+x,1/2+y,-z
-y,1/2+x,-z
1/2-x,y,1/2+z
x,1/2-y,1/2+z
1/2-y,1/2-x,1/2+z
y,x,1/2+z
loop_
_atom_site_type_symbol
_atom_site_label
_atom_site_fract_x
_atom_site_fract_y
_atom_site_fract_z
Si Si1 0.180653 0.046198 0.563833
Si Si2 0.634536 0.016717 0.094707
Si Si3 0.134811 0.468335 0.619600
Si Si4 0.297604 0.612778 0.494241
Si Si5 0.302002 0.111903 0.713857
Si Si6 0.360707 0.159574 0.465686
Si Si7 0.609089 0.705302 0.174599
O O1 0.109574 0.068737 0.604047
O O2 0.276819 0.042672 0.587673
O O3 0.164040 0.119581 0.522374
O O4 0.170126 0.956171 0.534100
O O5 0.557928 0.083037 0.109508
O O6 0.697468 0.068314 0.057925
O O7 0.603685 0.933903 0.061724
O O8 0.679699 0.970078 0.139870
O O9 0.165094 0.456369 0.674471
O O10 0.198910 0.642235 0.505539
O O11 0.358479 0.201057 0.706459
O O12 0.307438 0.084812 0.769468
O O13 0.368998 0.262853 0.452360
O O14 0.695188 0.643774 0.166608
#
# Coordination Sequence:
#
# PCOD9565621 Si02
#       7
#    16  16  16  16  16  16  16
#     4  11  22  34  54  82 112 138 190 237 280 333
#     4  11  23  34  56  84 113 149 190 232 276 328
#     4  12  22  35  54  84 112 149 186 237 287 331
#     4  10  22  41  57  75 114 159 194 222 265 333
#     4   9  18  34  60  84 111 147 183 230 294 349
#     4  10  20  34  54  80 110 146 180 229 291 341
#     4   9  19  38  61  88 116 144 180 230 292 350
#
# _framework density 17.371642999999999
#
# number of rings (size 3 to 8) (size 9 to 14) (size 15 to 20)
#    0.000    1.714    4.286    1.714    0.000    7.714 
#    0.000    0.000    0.000    0.000    0.000    0.000 
#    0.000    0.000    0.000    0.000    0.000    0.000 
#
# Total GULP energy -624536.505061 kJ/mol
# GULP energy per Si atom -5576.218795 kJ/mol
# Density = 1.733210 g / cm^3
# Si number density = 17.371643 Si / 1000 Ang^3
#
#
#
# Elastic Constant Matrix: (Units=GPa)
#
#
# Indices 1 2 3 4 5 6 
#
# 1 49.0059 18.6406 32.4458 0.0000 0.0000 0.0000
# 2 18.6406 49.0059 32.4458 0.0000 0.0000 0.0000
# 3 32.4458 32.4458 115.1976 0.0000 0.0000 0.0000
# 4 0.0000 0.0000 0.0000 30.3168 0.0000 0.0000
# 5 0.0000 0.0000 0.0000 0.0000 30.3168 0.0000
# 6 0.0000 0.0000 0.0000 0.0000 0.0000 17.2661
#
#
#
# Elastic Compliance Matrix: (Units=1/GPa)
#
#
# Indices 1 2 3 4 5 6 
#
# 1 0.026594 -0.006338 -0.005705 0.000000 0.000000 0.000000
# 2 -0.006338 0.026594 -0.005705 0.000000 0.000000 0.000000
# 3 -0.005705 -0.005705 0.011894 0.000000 0.000000 0.000000
# 4 0.000000 0.000000 0.000000 0.032985 0.000000 0.000000
# 5 0.000000 0.000000 0.000000 0.000000 0.032985 0.000000
# 6 0.000000 0.000000 0.000000 0.000000 0.000000 0.057917
#
#
# Mechanical properties :
#
#
# Convention : Reuss Voigt Hill
#
# Bulk Modulus (GPa) = 33.80069 42.25265 38.02667
# Shear Modulus (GPa) = 21.33763 24.22510 22.78136
#
# Velocity S-wave (km/s) = 3.50852 3.73838 3.62527
# Velocity P-wave (km/s) = 5.99271 6.55817 6.28180
#
# Compressibility (1/GPa) = 0.02958520
#
# Stress axis : x y z
#
# Youngs Moduli (GPa) = 37.60260 37.60260 84.07307
#
# Poissons Ratio (x) = 0.23834 0.47964
# Poissons Ratio (y) = 0.23834 0.47964
# Poissons Ratio (z) = 0.21452 0.21452
#
# Static dielectric constant tensor:
#      x y z
#    x 1.582940 0.000000 0.000000 
#    y 0.000000 1.582940 0.000000 
#    z 0.000000 0.000000 1.615410 
# 
# From -- ./inp_files/4602.got.cif
#   From: 2010.05.17/outbox.cif.g08.bks.cpg/sg130_3_cif.got.tgz:4602.got - 2010.05.20 12:17:35.
