data_PCOD9565825
_publ_section_title
;
Structure prediction by ZEFSAII (Michael W. Deem and Ramdas Pophale) SiO2 
 PCOD9565825
Probable space group: P 4/N C C
;
_chemical_formula_sum "Si O2"
_cell_formula_units_Z 48
_cell_length_a 12.551233
_cell_length_b 12.551233
_cell_length_c 12.565808
_cell_angle_alpha 90.000000
_cell_angle_beta 90.000000
_cell_angle_gamma 90.000000
_cell_volume 1979.535084
_symmetry_space_group_name_H-M "P 4/N C C"
_symmetry_group_IT_number 130
_symmetry_cell_setting 'tetragonal'
loop_
_space_group_symop_operation_xyz
x,y,z
1/2-y,x,z
1/2-x,1/2-y,z
y,1/2-x,z
1/2+x,-y,1/2-z
-x,1/2+y,1/2-z
1/2+y,1/2+x,1/2-z
-y,-x,1/2-z
-x,-y,-z
1/2+y,-x,-z
1/2+x,1/2+y,-z
-y,1/2+x,-z
1/2-x,y,1/2+z
x,1/2-y,1/2+z
1/2-y,1/2-x,1/2+z
y,x,1/2+z
loop_
_atom_site_type_symbol
_atom_site_label
_atom_site_fract_x
_atom_site_fract_y
_atom_site_fract_z
Si Si1 0.939000 0.617239 0.245344
Si Si2 0.706535 0.488386 0.873019
Si Si3 0.994626 0.117564 0.944896
O O1 0.018204 0.518204 0.250000
O O2 0.012353 0.717449 0.269576
O O3 0.009265 0.716118 0.474570
O O4 0.880043 0.596203 0.134295
O O5 0.620242 0.395195 0.886667
O O6 0.642190 0.597097 0.843100
O O7 0.000000 0.000000 0.000000
#
# Coordination Sequence:
#
# PCOD9565825 Si02
#       3
#    16  16  16
#     4  10  23  42  68 103 146 183 236 305 350 422
#     4  11  23  44  73 103 141 195 242 288 378 413
#     4  11  24  46  71 104 149 187 242 310 348 436
#
# _framework density 24.248117000000001
#
# number of rings (size 3 to 8) (size 9 to 14) (size 15 to 20)
#    0.000    1.333    6.667    0.000    4.667    1.333 
#    0.000    6.667    7.333    0.000    0.000    0.000 
#    0.000    0.000    0.000    0.000    0.000    0.000 
#
# Total GULP energy -267369.474890 kJ/mol
# GULP energy per Si atom -5570.197394 kJ/mol
# Density = 2.419293 g / cm^3
# Si number density = 24.248117 Si / 1000 Ang^3
#
#
#
# Elastic Constant Matrix: (Units=GPa)
#
#
# Indices 1 2 3 4 5 6 
#
# 1 110.4218 28.5321 55.6691 0.0000 0.0000 0.0000
# 2 28.5321 110.4218 55.6691 0.0000 0.0000 0.0000
# 3 55.6691 55.6691 131.1468 0.0000 0.0000 0.0000
# 4 0.0000 0.0000 0.0000 52.9787 0.0000 0.0000
# 5 0.0000 0.0000 0.0000 0.0000 52.9787 0.0000
# 6 0.0000 0.0000 0.0000 0.0000 0.0000 27.1651
#
#
#
# Elastic Compliance Matrix: (Units=1/GPa)
#
#
# Indices 1 2 3 4 5 6 
#
# 1 0.011559 -0.000653 -0.004629 0.000000 0.000000 0.000000
# 2 -0.000653 0.011559 -0.004629 0.000000 0.000000 0.000000
# 3 -0.004629 -0.004629 0.011555 0.000000 0.000000 0.000000
# 4 0.000000 0.000000 0.000000 0.018875 0.000000 0.000000
# 5 0.000000 0.000000 0.000000 0.000000 0.018875 0.000000
# 6 0.000000 0.000000 0.000000 0.000000 0.000000 0.036812
#
#
# Mechanical properties :
#
#
# Convention : Reuss Voigt Hill
#
# Bulk Modulus (GPa) = 67.34159 70.19232 68.76695
# Shear Modulus (GPa) = 37.31109 40.76587 39.03848
#
# Velocity S-wave (km/s) = 3.92691 4.10469 4.01678
# Velocity P-wave (km/s) = 6.95651 7.17461 7.06640
#
# Compressibility (1/GPa) = 0.01484967
#
# Stress axis : x y z
#
# Youngs Moduli (GPa) = 86.51464 86.51464 86.54143
#
# Poissons Ratio (x) = 0.05648 0.40063
# Poissons Ratio (y) = 0.05648 0.40063
# Poissons Ratio (z) = 0.40051 0.40051
#
# Static dielectric constant tensor:
#      x y z
#    x 2.009480 0.000000 0.000000 
#    y 0.000000 2.009480 0.000000 
#    z 0.000000 0.000000 2.139640 
# 
# From -- ./inp_files/1340.got.cif
#   From: 2010.05.17/outbox.cif.g08.bks.cpg/sg130_1_cif.got.tgz:1340.got - 2010.05.20 12:17:35.
