data_PCOD9565158
_publ_section_title
;
Structure prediction by ZEFSAII (Michael W. Deem and Ramdas Pophale) SiO2 
 PCOD9565158
Probable space group: P 4/N M M
;
_chemical_formula_sum "Si O2"
_cell_formula_units_Z 80
_cell_length_a 19.864435
_cell_length_b 19.864435
_cell_length_c 12.508322
_cell_angle_alpha 90.000000
_cell_angle_beta 90.000000
_cell_angle_gamma 90.000000
_cell_volume 4935.731049
_symmetry_space_group_name_H-M "P 4/N M M"
_symmetry_group_IT_number 129
_symmetry_cell_setting 'tetragonal'
loop_
_space_group_symop_operation_xyz
x,y,z
1/2-y,x,z
1/2-x,1/2-y,z
y,1/2-x,z
1/2+x,-y,-z
-x,1/2+y,-z
1/2+y,1/2+x,-z
-y,-x,-z
-x,-y,-z
1/2+y,-x,-z
1/2+x,1/2+y,-z
-y,1/2+x,-z
1/2-x,y,z
x,1/2-y,z
1/2-y,1/2-x,z
y,x,z
loop_
_atom_site_type_symbol
_atom_site_label
_atom_site_fract_x
_atom_site_fract_y
_atom_site_fract_z
Si Si1 0.937922 0.827842 0.962013
Si Si2 0.512458 0.397261 0.431220
Si Si3 0.326548 0.979244 0.825124
Si Si4 0.674691 0.561500 0.392590
Si Si5 0.917538 0.031635 0.812780
O O1 0.931910 0.750000 0.930296
O O2 0.869056 0.869056 0.950122
O O3 0.963314 0.830327 0.084310
O O4 0.993541 0.866995 0.891827
O O5 0.574694 0.425307 0.500000
O O6 0.456372 0.456372 0.432506
O O7 0.479438 0.337181 0.497902
O O8 0.529501 0.388308 0.307532
O O9 0.250000 0.950560 0.831561
O O10 0.391129 0.932006 0.842830
O O11 0.335122 0.012069 0.708192
O O12 0.750000 0.588637 0.387448
O O13 0.619630 0.619630 0.386224
O O14 0.987473 0.987473 0.814316
#
# Coordination Sequence:
#
# PCOD9565158 Si02
#       5
#    16  16  16  16  16
#     4  10  21  34  50  74 102 135 172 209 251 299
#     4   9  16  28  47  68  91 120 157 203 251 290
#     4  10  19  31  49  75 104 130 164 210 256 300
#     4  10  19  30  46  70 100 133 166 201 245 299
#     4  10  18  31  53  74  97 130 170 214 256 296
#
# _framework density 16.208338000000001
#
# number of rings (size 3 to 8) (size 9 to 14) (size 15 to 20)
#    0.000    2.200    2.000    2.400    0.000    2.800 
#    0.000    0.000    0.000    4.200    0.000    8.400 
#    0.000    0.400    0.000    0.000    0.000    0.000 
#
# Total GULP energy -445753.286863 kJ/mol
# GULP energy per Si atom -5571.916086 kJ/mol
# Density = 1.617145 g / cm^3
# Si number density = 16.208338 Si / 1000 Ang^3
#
#
#
# Elastic Constant Matrix: (Units=GPa)
#
#
# Indices 1 2 3 4 5 6 
#
# 1 94.1669 48.5986 28.0755 0.0000 0.0000 0.0000
# 2 48.5986 94.1671 28.0755 0.0000 0.0000 0.0000
# 3 28.0755 28.0755 55.4714 0.0000 0.0000 0.0000
# 4 0.0000 0.0000 0.0000 20.0562 0.0000 0.0000
# 5 0.0000 0.0000 0.0000 0.0000 20.0561 0.0000
# 6 0.0000 0.0000 0.0000 0.0000 0.0000 14.4721
#
#
#
# Elastic Compliance Matrix: (Units=1/GPa)
#
#
# Indices 1 2 3 4 5 6 
#
# 1 0.015345 -0.006600 -0.004426 0.000000 0.000000 0.000000
# 2 -0.006600 0.015345 -0.004426 0.000000 0.000000 0.000000
# 3 -0.004426 -0.004426 0.022508 0.000000 0.000000 0.000000
# 4 0.000000 0.000000 0.000000 0.049860 0.000000 0.000000
# 5 0.000000 0.000000 0.000000 0.000000 0.049860 0.000000
# 6 0.000000 0.000000 0.000000 0.000000 0.000000 0.069099
#
#
# Mechanical properties :
#
#
# Convention : Reuss Voigt Hill
#
# Bulk Modulus (GPa) = 44.85612 50.36718 47.61165
# Shear Modulus (GPa) = 19.20471 20.18725 19.69598
#
# Velocity S-wave (km/s) = 3.44592 3.53297 3.48972
# Velocity P-wave (km/s) = 6.60055 6.91266 6.75841
#
# Compressibility (1/GPa) = 0.02229350
#
# Stress axis : x y z
#
# Youngs Moduli (GPa) = 65.16686 65.16702 44.42909
#
# Poissons Ratio (x) = 0.43009 0.19665
# Poissons Ratio (y) = 0.43009 0.19665
# Poissons Ratio (z) = 0.28845 0.28845
#
# Static dielectric constant tensor:
#      x y z
#    x 1.534680 0.000000 0.000000 
#    y 0.000000 1.534680 0.000000 
#    z 0.000000 0.000000 1.554230 
# 
# From -- ./inp_files/4591.got.cif
#   From: 2010.05.17/outbox.cif.g08.bks.cpg/sg129_3_cif.got.tgz:4591.got - 2010.05.20 12:12:06.
