data_PCOD9565201
_publ_section_title
;
Structure prediction by ZEFSAII (Michael W. Deem and Ramdas Pophale) SiO2 
 PCOD9565201
Probable space group: P 4/N M M
;
_chemical_formula_sum "Si O2"
_cell_formula_units_Z 112
_cell_length_a 29.876135
_cell_length_b 29.876135
_cell_length_c 9.144878
_cell_angle_alpha 90.000000
_cell_angle_beta 90.000000
_cell_angle_gamma 90.000000
_cell_volume 8162.566687
_symmetry_space_group_name_H-M "P 4/N M M"
_symmetry_group_IT_number 129
_symmetry_cell_setting 'tetragonal'
loop_
_space_group_symop_operation_xyz
x,y,z
1/2-y,x,z
1/2-x,1/2-y,z
y,1/2-x,z
1/2+x,-y,-z
-x,1/2+y,-z
1/2+y,1/2+x,-z
-y,-x,-z
-x,-y,-z
1/2+y,-x,-z
1/2+x,1/2+y,-z
-y,1/2+x,-z
1/2-x,y,z
x,1/2-y,z
1/2-y,1/2-x,z
y,x,z
loop_
_atom_site_type_symbol
_atom_site_label
_atom_site_fract_x
_atom_site_fract_y
_atom_site_fract_z
Si Si1 0.477881 0.892176 0.343343
Si Si2 0.701474 0.145561 0.402767
Si Si3 0.300000 0.669667 0.154553
Si Si4 0.959385 0.540616 0.175837
Si Si5 0.964041 0.535960 0.840186
Si Si6 0.697883 0.444067 0.209993
Si Si7 0.900843 0.031872 0.685761
Si Si8 0.583792 0.353201 0.078431
O O1 0.518743 0.918766 0.266849
O O2 0.473450 0.842985 0.273132
O O3 0.478885 0.888046 0.519139
O O4 0.435320 0.925541 0.315695
O O5 0.658890 0.158890 0.500000
O O6 0.750000 0.144666 0.479711
O O7 0.701422 0.184992 0.283927
O O8 0.696952 0.099930 0.313213
O O9 0.250000 0.653385 0.168191
O O10 0.333491 0.627860 0.153936
O O11 0.306410 0.693591 0.000000
O O12 0.997579 0.502422 0.161290
O O13 0.950012 0.549989 0.004398
O O14 0.924501 0.511658 0.753581
O O15 0.750000 0.459740 0.209226
O O16 0.681412 0.430631 0.047510
O O17 0.862850 0.047302 0.798873
O O18 0.600756 0.399245 0.000000
#
# Coordination Sequence:
#
# PCOD9565201 Si02
#       8
#    16  16  16   8   8  16  16  16
#     4  10  19  31  47  69  92 113 141 175 221 266
#     4  11  23  35  45  58  75  98 131 178 232 284
#     4  11  21  33  47  59  72  93 131 180 230 279
#     4   9  17  29  49  69  94 117 138 166 207 265
#     4   9  17  27  45  73  95 112 137 164 210 258
#     4  11  22  35  48  62  84 113 147 184 224 273
#     4  10  19  29  48  69  91 113 137 177 219 268
#     4  11  19  32  46  59  78 105 141 173 220 266
#
# _framework density 13.721175000000001
#
# number of rings (size 3 to 8) (size 9 to 14) (size 15 to 20)
#    0.000    1.571    4.286    2.571    6.000    3.429 
#    0.000    0.714    0.000    0.000    0.000    0.000 
#    0.000    0.000    0.000    0.000    0.000    0.357 
#
# Total GULP energy -624063.441832 kJ/mol
# GULP energy per Si atom -5571.995016 kJ/mol
# Density = 1.368994 g / cm^3
# Si number density = 13.721175 Si / 1000 Ang^3
#
#
#
# Elastic Constant Matrix: (Units=GPa)
#
#
# Indices 1 2 3 4 5 6 
#
# 1 51.2698 37.3424 33.8128 0.0000 0.0000 0.0000
# 2 37.3424 51.2699 33.8129 0.0000 0.0000 0.0000
# 3 33.8128 33.8129 84.4936 0.0000 0.0000 0.0000
# 4 0.0000 0.0000 0.0000 13.5641 0.0000 0.0000
# 5 0.0000 0.0000 0.0000 0.0000 13.5639 0.0000
# 6 0.0000 0.0000 0.0000 0.0000 0.0000 9.6164
#
#
#
# Elastic Compliance Matrix: (Units=1/GPa)
#
#
# Indices 1 2 3 4 5 6 
#
# 1 0.044024 -0.027777 -0.006502 0.000000 0.000000 0.000000
# 2 -0.027777 0.044024 -0.006502 0.000000 0.000000 0.000000
# 3 -0.006502 -0.006502 0.017039 0.000000 0.000000 0.000000
# 4 0.000000 0.000000 0.000000 0.073724 0.000000 0.000000
# 5 0.000000 0.000000 0.000000 0.000000 0.073725 0.000000
# 6 0.000000 0.000000 0.000000 0.000000 0.000000 0.103989
#
#
# Mechanical properties :
#
#
# Convention : Reuss Voigt Hill
#
# Bulk Modulus (GPa) = 42.50621 44.10773 43.30697
# Shear Modulus (GPa) = 11.21259 12.81990 12.01624
#
# Velocity S-wave (km/s) = 2.86173 3.05997 2.96251
# Velocity P-wave (km/s) = 6.47805 6.68581 6.58275
#
# Compressibility (1/GPa) = 0.02352597
#
# Stress axis : x y z
#
# Youngs Moduli (GPa) = 22.71495 22.71494 58.68882
#
# Poissons Ratio (x) = 0.63095 0.38158
# Poissons Ratio (y) = 0.63095 0.38159
# Poissons Ratio (z) = 0.14769 0.14769
#
# Static dielectric constant tensor:
#      x y z
#    x 1.452300 0.000000 0.000000 
#    y 0.000000 1.452300 0.000000 
#    z 0.000000 0.000000 1.501640 
# 
# From -- ./inp_files/2979.got.cif
#   From: 2010.05.17/outbox.cif.g08.bks.cpg/sg129_2_cif.got.tgz:2979.got - 2010.05.20 12:12:06.
