data_PCOD9565729
_publ_section_title
;
Structure prediction by ZEFSAII (Michael W. Deem and Ramdas Pophale) SiO2 
 PCOD9565729
Probable space group: P 4/N C C
;
_chemical_formula_sum "Si O2"
_cell_formula_units_Z 84
_cell_length_a 11.104004
_cell_length_b 11.104004
_cell_length_c 29.586462
_cell_angle_alpha 90.000000
_cell_angle_beta 90.000000
_cell_angle_gamma 90.000000
_cell_volume 3647.978362
_symmetry_space_group_name_H-M "P 4/N C C"
_symmetry_group_IT_number 130
_symmetry_cell_setting 'tetragonal'
loop_
_space_group_symop_operation_xyz
x,y,z
1/2-y,x,z
1/2-x,1/2-y,z
y,1/2-x,z
1/2+x,-y,1/2-z
-x,1/2+y,1/2-z
1/2+y,1/2+x,1/2-z
-y,-x,1/2-z
-x,-y,-z
1/2+y,-x,-z
1/2+x,1/2+y,-z
-y,1/2+x,-z
1/2-x,y,1/2+z
x,1/2-y,1/2+z
1/2-y,1/2-x,1/2+z
y,x,1/2+z
loop_
_atom_site_type_symbol
_atom_site_label
_atom_site_fract_x
_atom_site_fract_y
_atom_site_fract_z
Si Si1 0.452515 0.041613 0.573481
Si Si2 0.627289 0.994974 0.653149
Si Si3 0.750000 0.750000 0.126587
Si Si4 0.061145 0.286342 0.151278
Si Si5 0.929753 0.842675 0.021475
Si Si6 0.856140 0.409023 0.198424
O O1 0.323711 0.059255 0.598143
O O2 0.466952 0.124008 0.529558
O O3 0.552189 0.058017 0.612866
O O4 0.476223 0.906295 0.554921
O O5 0.707105 0.891162 0.629989
O O6 0.533743 0.926998 0.686598
O O7 0.720551 0.074246 0.681631
O O8 0.116777 0.161506 0.167432
O O9 0.930827 0.312847 0.169623
O O10 0.798524 0.906022 0.027621
O O11 0.872508 0.372508 0.250000
#
# Coordination Sequence:
#
# PCOD9565729 Si02
#       6
#    16  16   4  16  16  16
#     4  10  21  37  61  93 130 159 214 265 332 376
#     4   9  20  37  60  94 124 170 209 274 317 399
#     4   8  16  32  60  92 112 152 222 260 308 356
#     4  10  22  41  66  89 117 168 225 273 319 392
#     4  10  22  37  65  96 126 171 220 276 311 390
#     4  10  22  38  64  92 132 165 219 271 334 387
#
# _framework density 23.026451000000002
#
# number of rings (size 3 to 8) (size 9 to 14) (size 15 to 20)
#    0.000    2.286    0.000    1.143   10.667    1.524 
#    0.000    3.810    8.381    5.143    0.000    0.000 
#    0.000    0.000    0.000    0.000    0.000    0.000 
#
# Total GULP energy -468109.254052 kJ/mol
# GULP energy per Si atom -5572.729215 kJ/mol
# Density = 2.297404 g / cm^3
# Si number density = 23.026451 Si / 1000 Ang^3
#
#
#
# Elastic Constant Matrix: (Units=GPa)
#
#
# Indices 1 2 3 4 5 6 
#
# 1 78.9294 28.5256 20.4486 0.0000 0.0000 0.0000
# 2 28.5256 78.9294 20.4486 0.0000 0.0000 0.0000
# 3 20.4486 20.4486 121.6610 0.0000 0.0000 0.0000
# 4 0.0000 0.0000 0.0000 28.0038 0.0000 0.0000
# 5 0.0000 0.0000 0.0000 0.0000 28.0038 0.0000
# 6 0.0000 0.0000 0.0000 0.0000 0.0000 50.1713
#
#
#
# Elastic Compliance Matrix: (Units=1/GPa)
#
#
# Indices 1 2 3 4 5 6 
#
# 1 0.014891 -0.004949 -0.001671 0.000000 0.000000 0.000000
# 2 -0.004949 0.014891 -0.001671 0.000000 0.000000 0.000000
# 3 -0.001671 -0.001671 0.008781 0.000000 0.000000 0.000000
# 4 0.000000 0.000000 0.000000 0.035709 0.000000 0.000000
# 5 0.000000 0.000000 0.000000 0.000000 0.035709 0.000000
# 6 0.000000 0.000000 0.000000 0.000000 0.000000 0.019932
#
#
# Mechanical properties :
#
#
# Convention : Reuss Voigt Hill
#
# Bulk Modulus (GPa) = 45.49285 46.48502 45.98894
# Shear Modulus (GPa) = 32.50490 35.24224 33.87357
#
# Velocity S-wave (km/s) = 3.76125 3.91642 3.83962
# Velocity P-wave (km/s) = 6.21790 6.37829 6.29861
#
# Compressibility (1/GPa) = 0.02198148
#
# Stress axis : x y z
#
# Youngs Moduli (GPa) = 67.15466 67.15466 113.87832
#
# Poissons Ratio (x) = 0.33233 0.19030
# Poissons Ratio (y) = 0.33233 0.19030
# Poissons Ratio (z) = 0.11222 0.11222
#
# Static dielectric constant tensor:
#      x y z
#    x 1.892110 0.000000 0.000000 
#    y 0.000000 1.892110 0.000000 
#    z 0.000000 0.000000 1.884440 
# 
# From -- ./inp_files/4861.got.cif
#   From: 2010.05.17/outbox.cif.g08.bks.cpg/sg130_3_cif.got.tgz:4861.got - 2010.05.20 12:17:35.
