data_PCOD9565261
_publ_section_title
;
Structure prediction by ZEFSAII (Michael W. Deem and Ramdas Pophale) SiO2 
 PCOD9565261
Probable space group: P 4/N M M
;
_chemical_formula_sum "Si O2"
_cell_formula_units_Z 80
_cell_length_a 12.800296
_cell_length_b 12.800296
_cell_length_c 29.771575
_cell_angle_alpha 90.000000
_cell_angle_beta 90.000000
_cell_angle_gamma 90.000000
_cell_volume 4878.000448
_symmetry_space_group_name_H-M "P 4/N M M"
_symmetry_group_IT_number 129
_symmetry_cell_setting 'tetragonal'
loop_
_space_group_symop_operation_xyz
x,y,z
1/2-y,x,z
1/2-x,1/2-y,z
y,1/2-x,z
1/2+x,-y,-z
-x,1/2+y,-z
1/2+y,1/2+x,-z
-y,-x,-z
-x,-y,-z
1/2+y,-x,-z
1/2+x,1/2+y,-z
-y,1/2+x,-z
1/2-x,y,z
x,1/2-y,z
1/2-y,1/2-x,z
y,x,z
loop_
_atom_site_type_symbol
_atom_site_label
_atom_site_fract_x
_atom_site_fract_y
_atom_site_fract_z
Si Si1 0.369419 0.623545 0.048784
Si Si2 0.123257 0.750000 0.799801
Si Si3 0.123220 0.750000 0.696918
Si Si4 0.626879 0.454667 0.546932
Si Si5 0.125020 0.958282 0.854167
Si Si6 0.872546 0.454287 0.359630
O O1 0.250000 0.586061 0.054947
O O2 0.364510 0.750000 0.045562
O O3 0.433286 0.601926 0.093545
O O4 0.410742 0.589259 0.000000
O O5 0.250000 0.750000 0.799560
O O6 0.086968 0.750000 0.748375
O O7 0.093776 0.855317 0.826055
O O8 0.250000 0.750000 0.697072
O O9 0.093190 0.855459 0.670766
O O10 0.601833 0.398168 0.500000
O O11 0.750000 0.468589 0.552332
O O12 0.563716 0.563716 0.546512
O O13 0.581617 0.389597 0.588860
O O14 0.250000 0.973536 0.849381
O O15 0.058065 0.058065 0.839996
O O16 0.750000 0.475664 0.351681
O O17 0.946315 0.553686 0.351148
#
# Coordination Sequence:
#
# PCOD9565261 Si02
#       6
#    16   8   8  16  16  16
#     4   8  13  24  44  69  96 126 164 209 250 291
#     4   9  18  34  54  73  95 129 175 214 247 295
#     4   9  18  34  56  75  97 131 171 218 255 295
#     4  10  20  33  51  76 105 140 179 220 267 316
#     4  10  19  31  49  74 103 132 166 208 254 307
#     4  10  20  34  53  79 109 139 174 214 259 311
#
# _framework density 16.400162999999999
#
# number of rings (size 3 to 8) (size 9 to 14) (size 15 to 20)
#    0.000    2.600    2.000    1.200    0.000    2.800 
#    0.000    0.000    0.000    4.200    0.000    7.000 
#    0.000    0.000    0.000    0.000    0.000    0.000 
#
# Total GULP energy -445624.174944 kJ/mol
# GULP energy per Si atom -5570.302187 kJ/mol
# Density = 1.636284 g / cm^3
# Si number density = 16.400163 Si / 1000 Ang^3
#
#
#
# Elastic Constant Matrix: (Units=GPa)
#
#
# Indices 1 2 3 4 5 6 
#
# 1 82.7214 70.2756 36.9112 0.0000 0.0000 0.0000
# 2 70.2756 82.7174 36.9119 0.0000 0.0000 0.0000
# 3 36.9112 36.9119 111.8826 0.0000 0.0000 0.0000
# 4 0.0000 0.0000 0.0000 6.5242 0.0000 0.0000
# 5 0.0000 0.0000 0.0000 0.0000 6.5245 0.0000
# 6 0.0000 0.0000 0.0000 0.0000 0.0000 17.5251
#
#
#
# Elastic Compliance Matrix: (Units=1/GPa)
#
#
# Indices 1 2 3 4 5 6 
#
# 1 0.044066 -0.036294 -0.002564 0.000000 0.000000 0.000000
# 2 -0.036294 0.044069 -0.002565 0.000000 0.000000 0.000000
# 3 -0.002564 -0.002565 0.010630 0.000000 0.000000 0.000000
# 4 0.000000 0.000000 0.000000 0.153275 0.000000 0.000000
# 5 0.000000 0.000000 0.000000 0.000000 0.153267 0.000000
# 6 0.000000 0.000000 0.000000 0.000000 0.000000 0.057061
#
#
# Mechanical properties :
#
#
# Convention : Reuss Voigt Hill
#
# Bulk Modulus (GPa) = 62.81830 62.83542 62.82686
# Shear Modulus (GPa) = 9.08230 14.99628 12.03929
#
# Velocity S-wave (km/s) = 2.35583 3.02718 2.71236
# Velocity P-wave (km/s) = 6.76658 7.11446 6.94270
#
# Compressibility (1/GPa) = 0.01591893
#
# Stress axis : x y z
#
# Youngs Moduli (GPa) = 22.69327 22.69181 94.07202
#
# Poissons Ratio (x) = 0.82357 0.24119
# Poissons Ratio (y) = 0.82362 0.24133
# Poissons Ratio (z) = 0.05818 0.05821
#
# Static dielectric constant tensor:
#      x y z
#    x 1.535700 0.000000 0.000000 
#    y 0.000000 1.535700 0.000000 
#    z 0.000000 0.000000 1.572660 
# 
# From -- ./inp_files/7727.got.cif
#   From: 2010.05.17/outbox.cif.g08.bks.cpg/sg129_4_cif.got.tgz:7727.got - 2010.05.20 12:12:06.
