data_PCOD9565659
_publ_section_title
;
Structure prediction by ZEFSAII (Michael W. Deem and Ramdas Pophale) SiO2 
 PCOD9565659
Probable space group: P 4/N C C
;
_chemical_formula_sum "Si O2"
_cell_formula_units_Z 112
_cell_length_a 14.309072
_cell_length_b 14.309072
_cell_length_c 24.257664
_cell_angle_alpha 90.000000
_cell_angle_beta 90.000000
_cell_angle_gamma 90.000000
_cell_volume 4966.745582
_symmetry_space_group_name_H-M "P 4/N C C"
_symmetry_group_IT_number 130
_symmetry_cell_setting 'tetragonal'
loop_
_space_group_symop_operation_xyz
x,y,z
1/2-y,x,z
1/2-x,1/2-y,z
y,1/2-x,z
1/2+x,-y,1/2-z
-x,1/2+y,1/2-z
1/2+y,1/2+x,1/2-z
-y,-x,1/2-z
-x,-y,-z
1/2+y,-x,-z
1/2+x,1/2+y,-z
-y,1/2+x,-z
1/2-x,y,1/2+z
x,1/2-y,1/2+z
1/2-y,1/2-x,1/2+z
y,x,1/2+z
loop_
_atom_site_type_symbol
_atom_site_label
_atom_site_fract_x
_atom_site_fract_y
_atom_site_fract_z
Si Si1 0.159184 0.690206 0.108254
Si Si2 0.286304 0.098412 0.065394
Si Si3 0.623019 0.077182 0.106867
Si Si4 0.942842 0.403906 0.511690
Si Si5 0.238376 0.971977 0.165917
Si Si6 0.180063 0.120208 0.388880
Si Si7 0.774873 0.896968 0.741634
O O1 0.250000 0.750000 0.088237
O O2 0.092530 0.772347 0.129197
O O3 0.106105 0.629156 0.062340
O O4 0.199456 0.619609 0.154122
O O5 0.358554 0.183575 0.058441
O O6 0.321822 0.018233 0.024153
O O7 0.282961 0.051278 0.126160
O O8 0.551099 0.135507 0.142177
O O9 0.613631 0.966757 0.101342
O O10 0.615986 0.112624 0.044349
O O11 0.000000 0.500000 0.500000
O O12 0.223863 0.004931 0.228077
O O13 0.286108 0.129685 0.410448
O O14 0.206558 0.110517 0.323614
O O15 0.676198 0.853288 0.760516
#
# Coordination Sequence:
#
# PCOD9565659 Si02
#       7
#    16  16  16  16  16  16  16
#     4   9  23  40  59  84 121 167 202 243 310 380
#     4  10  21  37  56  83 120 154 197 257 315 355
#     4  11  24  37  62  83 124 162 201 247 313 359
#     4  11  25  37  59  88 121 158 219 261 293 365
#     4  10  20  37  59  91 117 150 202 251 303 368
#     4   9  21  42  62  86 120 161 205 247 307 382
#     4   9  18  37  66  91 119 158 198 249 314 369
#
# _framework density 22.549976000000001
#
# number of rings (size 3 to 8) (size 9 to 14) (size 15 to 20)
#    0.000    2.143    0.000    2.571   10.000    2.857 
#    0.000    2.143    0.000    2.571    0.000    0.000 
#    0.000    0.000    0.000    0.000    0.000    0.000 
#
# Total GULP energy -624482.204746 kJ/mol
# GULP energy per Si atom -5575.733971 kJ/mol
# Density = 2.249865 g / cm^3
# Si number density = 22.549976 Si / 1000 Ang^3
#
#
#
# Elastic Constant Matrix: (Units=GPa)
#
#
# Indices 1 2 3 4 5 6 
#
# 1 83.6914 17.8870 7.6668 0.0000 0.0000 0.0000
# 2 17.8870 83.6914 7.6668 0.0000 0.0000 0.0000
# 3 7.6668 7.6668 28.4167 0.0000 0.0000 0.0000
# 4 0.0000 0.0000 0.0000 27.0899 0.0000 0.0000
# 5 0.0000 0.0000 0.0000 0.0000 27.0899 0.0000
# 6 0.0000 0.0000 0.0000 0.0000 0.0000 110.7518
#
#
#
# Elastic Compliance Matrix: (Units=1/GPa)
#
#
# Indices 1 2 3 4 5 6 
#
# 1 0.012730 -0.002467 -0.002769 0.000000 0.000000 0.000000
# 2 -0.002467 0.012730 -0.002769 0.000000 0.000000 0.000000
# 3 -0.002769 -0.002769 0.036685 0.000000 0.000000 0.000000
# 4 0.000000 0.000000 0.000000 0.036914 0.000000 0.000000
# 5 0.000000 0.000000 0.000000 0.000000 0.036914 0.000000
# 6 0.000000 0.000000 0.000000 0.000000 0.000000 0.009029
#
#
# Mechanical properties :
#
#
# Convention : Reuss Voigt Hill
#
# Bulk Modulus (GPa) = 21.67576 29.13785 25.40680
# Shear Modulus (GPa) = 28.34648 43.82490 36.08569
#
# Velocity S-wave (km/s) = 3.54934 4.41325 4.00466
# Velocity P-wave (km/s) = 5.14104 6.23847 5.71615
#
# Compressibility (1/GPa) = 0.04613448
#
# Stress axis : x y z
#
# Youngs Moduli (GPa) = 78.55727 78.55727 27.25933
#
# Poissons Ratio (x) = 0.19380 0.07548
# Poissons Ratio (y) = 0.19380 0.07548
# Poissons Ratio (z) = 0.21751 0.21751
#
# Static dielectric constant tensor:
#      x y z
#    x 1.892330 0.000000 0.000000 
#    y 0.000000 1.892330 0.000000 
#    z 0.000000 0.000000 1.855750 
# 
# From -- ./inp_files/4631.got.cif
#   From: 2010.05.17/outbox.cif.g08.bks.cpg/sg130_3_cif.got.tgz:4631.got - 2010.05.20 12:17:35.
