data_PCOD9565157
_publ_section_title
;
Structure prediction by ZEFSAII (Michael W. Deem and Ramdas Pophale) SiO2 
 PCOD9565157
Probable space group: P 4/N M M
;
_chemical_formula_sum "Si O2"
_cell_formula_units_Z 128
_cell_length_a 19.810795
_cell_length_b 19.810795
_cell_length_c 20.484001
_cell_angle_alpha 90.000000
_cell_angle_beta 90.000000
_cell_angle_gamma 90.000000
_cell_volume 8039.306681
_symmetry_space_group_name_H-M "P 4/N M M"
_symmetry_group_IT_number 129
_symmetry_cell_setting 'tetragonal'
loop_
_space_group_symop_operation_xyz
x,y,z
1/2-y,x,z
1/2-x,1/2-y,z
y,1/2-x,z
1/2+x,-y,-z
-x,1/2+y,-z
1/2+y,1/2+x,-z
-y,-x,-z
-x,-y,-z
1/2+y,-x,-z
1/2+x,1/2+y,-z
-y,1/2+x,-z
1/2-x,y,z
x,1/2-y,z
1/2-y,1/2-x,z
y,x,z
loop_
_atom_site_type_symbol
_atom_site_label
_atom_site_fract_x
_atom_site_fract_y
_atom_site_fract_z
Si Si1 0.114917 0.998654 0.140196
Si Si2 0.673174 0.941024 0.585021
Si Si3 0.884350 0.999641 0.712301
Si Si4 0.487281 0.600135 0.349002
Si Si5 0.559507 0.828706 0.228884
Si Si6 0.008165 0.892589 0.106347
Si Si7 0.830195 0.060544 0.481072
Si Si8 0.441494 0.173029 0.014155
O O1 0.055260 0.055260 0.142061
O O2 0.141382 0.991130 0.214014
O O3 0.165402 0.025647 0.085561
O O4 0.079081 0.929777 0.116559
O O5 0.750000 0.917866 0.573987
O O6 0.618742 0.881258 0.577922
O O7 0.666100 0.972158 0.657633
O O8 0.657996 0.001442 0.534450
O O9 0.943293 0.943293 0.716213
O O10 0.922285 0.065524 0.684681
O O11 0.539422 0.539422 0.366645
O O12 0.523989 0.645591 0.294862
O O13 0.466437 0.642076 0.412097
O O14 0.573634 0.750000 0.231023
O O15 0.626861 0.873140 0.220221
O O16 0.511046 0.847038 0.168250
O O17 0.952904 0.952904 0.105928
O O18 0.995163 0.852793 0.039645
O O19 0.874134 0.125867 0.500000
O O20 0.750000 0.073796 0.478702
O O21 0.422335 0.250000 0.000888
O O22 0.377414 0.122586 0.010330
#
# Coordination Sequence:
#
# PCOD9565157 Si02
#       8
#    16  16  16  16  16  16  16  16
#     4   9  16  29  49  71  93 119 156 207 258 292
#     4  10  21  35  53  78 106 138 174 211 254 305
#     4   9  16  29  51  75  96 123 162 207 255 298
#     4  10  18  31  52  75  99 127 164 210 253 294
#     4  10  19  30  46  70 102 137 169 202 240 288
#     4   9  16  29  47  68  93 124 163 207 250 286
#     4  11  22  35  53  77 104 135 172 212 258 309
#     4  10  20  31  45  67  97 133 167 199 239 292
#
# _framework density 15.921771
#
# number of rings (size 3 to 8) (size 9 to 14) (size 15 to 20)
#    0.000    2.250    2.500    1.500    0.000    3.000 
#    0.000    0.000    0.000    2.250    0.000    5.250 
#    0.000    9.500    0.000    0.000    0.000    0.000 
#
# Total GULP energy -713372.426933 kJ/mol
# GULP energy per Si atom -5573.222085 kJ/mol
# Density = 1.588553 g / cm^3
# Si number density = 15.921771 Si / 1000 Ang^3
#
#
#
# Elastic Constant Matrix: (Units=GPa)
#
#
# Indices 1 2 3 4 5 6 
#
# 1 52.6239 33.5003 21.6774 0.0000 0.0000 0.0000
# 2 33.5003 52.6234 21.6774 0.0000 0.0000 0.0000
# 3 21.6774 21.6774 105.9486 0.0000 0.0000 0.0000
# 4 0.0000 0.0000 0.0000 13.5315 0.0000 0.0000
# 5 0.0000 0.0000 0.0000 0.0000 13.5317 0.0000
# 6 0.0000 0.0000 0.0000 0.0000 0.0000 11.2870
#
#
#
# Elastic Compliance Matrix: (Units=1/GPa)
#
#
# Indices 1 2 3 4 5 6 
#
# 1 0.032618 -0.019674 -0.002648 0.000000 0.000000 0.000000
# 2 -0.019674 0.032618 -0.002649 0.000000 0.000000 0.000000
# 3 -0.002648 -0.002649 0.010522 0.000000 0.000000 0.000000
# 4 0.000000 0.000000 0.000000 0.073902 0.000000 0.000000
# 5 0.000000 0.000000 0.000000 0.000000 0.073900 0.000000
# 6 0.000000 0.000000 0.000000 0.000000 0.000000 0.088597
#
#
# Mechanical properties :
#
#
# Convention : Reuss Voigt Hill
#
# Bulk Modulus (GPa) = 38.73375 40.54511 39.63943
# Shear Modulus (GPa) = 13.48779 16.62610 15.05695
#
# Velocity S-wave (km/s) = 2.91371 3.23497 3.07853
# Velocity P-wave (km/s) = 5.97494 6.28282 6.13082
#
# Compressibility (1/GPa) = 0.02581728
#
# Stress axis : x y z
#
# Youngs Moduli (GPa) = 30.65786 30.65750 95.03623
#
# Poissons Ratio (x) = 0.60315 0.25170
# Poissons Ratio (y) = 0.60316 0.25170
# Poissons Ratio (z) = 0.08119 0.08120
#
# Static dielectric constant tensor:
#      x y z
#    x 1.513080 0.000000 0.000000 
#    y 0.000000 1.513080 0.000000 
#    z 0.000000 0.000000 1.547020 
# 
# From -- ./inp_files/6145.got.cif
#   From: 2010.05.17/outbox.cif.g08.bks.cpg/sg129_4_cif.got.tgz:6145.got - 2010.05.20 12:12:06.
