data_PCOD9565654
_publ_section_title
;
Structure prediction by ZEFSAII (Michael W. Deem and Ramdas Pophale) SiO2 
 PCOD9565654
Probable space group: P 4/N C C
;
_chemical_formula_sum "Si O2"
_cell_formula_units_Z 116
_cell_length_a 14.189303
_cell_length_b 14.189303
_cell_length_c 32.486635
_cell_angle_alpha 90.000000
_cell_angle_beta 90.000000
_cell_angle_gamma 90.000000
_cell_volume 6540.739528
_symmetry_space_group_name_H-M "P 4/N C C"
_symmetry_group_IT_number 130
_symmetry_cell_setting 'tetragonal'
loop_
_space_group_symop_operation_xyz
x,y,z
1/2-y,x,z
1/2-x,1/2-y,z
y,1/2-x,z
1/2+x,-y,1/2-z
-x,1/2+y,1/2-z
1/2+y,1/2+x,1/2-z
-y,-x,1/2-z
-x,-y,-z
1/2+y,-x,-z
1/2+x,1/2+y,-z
-y,1/2+x,-z
1/2-x,y,1/2+z
x,1/2-y,1/2+z
1/2-y,1/2-x,1/2+z
y,x,1/2+z
loop_
_atom_site_type_symbol
_atom_site_label
_atom_site_fract_x
_atom_site_fract_y
_atom_site_fract_z
Si Si1 0.752779 0.970532 0.291917
Si Si2 0.632815 0.016638 0.916202
Si Si3 0.889967 0.093757 0.838715
Si Si4 0.367204 0.852785 0.004728
Si Si5 0.943618 0.045664 0.326538
Si Si6 0.769383 0.397258 0.719858
Si Si7 0.250000 0.250000 0.712323
Si Si8 0.019102 0.856454 0.423328
O O1 0.729004 0.862946 0.288481
O O2 0.692142 0.020482 0.327151
O O3 0.862387 0.988932 0.302077
O O4 0.725915 0.027279 0.250903
O O5 0.574293 0.919475 0.919008
O O6 0.596519 0.057876 0.872776
O O7 0.745115 0.000575 0.917816
O O8 0.613246 0.087683 0.954120
O O9 0.869860 0.189093 0.813196
O O10 0.886303 0.095039 0.888216
O O11 0.987194 0.040661 0.826713
O O12 0.437860 0.875998 0.967972
O O13 0.372814 0.739817 0.010285
O O14 0.946586 0.145952 0.304617
O O15 0.818777 0.318777 0.750000
#
# Coordination Sequence:
#
# PCOD9565654 Si02
#       8
#    16  16  16  16  16  16   4  16
#     4  11  22  38  58  82 111 152 191 235 289 346
#     4  10  20  37  57  83 116 143 189 226 287 341
#     4  11  22  39  58  83 117 147 194 236 288 344
#     4   9  19  35  57  87 116 148 182 227 278 342
#     4  10  22  39  55  86 113 151 185 242 286 346
#     4  10  25  40  59  82 114 152 197 240 289 336
#     4  12  24  36  64  84 116 156 186 240 300 340
#     4  10  21  36  58  84 113 151 182 235 282 338
#
# _framework density 17.734998999999998
#
# number of rings (size 3 to 8) (size 9 to 14) (size 15 to 20)
#    0.000    1.793    2.759    0.828    3.862    5.241 
#    0.000    0.000    0.000    0.000    0.000    0.000 
#    0.000    0.000    0.000    0.000    0.000    0.000 
#
# Total GULP energy -645816.310943 kJ/mol
# GULP energy per Si atom -5567.381991 kJ/mol
# Density = 1.769463 g / cm^3
# Si number density = 17.734999 Si / 1000 Ang^3
#
#
#
# Elastic Constant Matrix: (Units=GPa)
#
#
# Indices 1 2 3 4 5 6 
#
# 1 62.0991 5.5891 22.4858 0.0000 0.0000 0.0000
# 2 5.5891 62.0991 22.4858 0.0000 0.0000 0.0000
# 3 22.4858 22.4858 90.0451 0.0000 0.0000 0.0000
# 4 0.0000 0.0000 0.0000 74.5720 0.0000 0.0000
# 5 0.0000 0.0000 0.0000 0.0000 74.5720 0.0000
# 6 0.0000 0.0000 0.0000 0.0000 0.0000 16.9877
#
#
#
# Elastic Compliance Matrix: (Units=1/GPa)
#
#
# Indices 1 2 3 4 5 6 
#
# 1 0.017704 0.000008 -0.004423 0.000000 0.000000 0.000000
# 2 0.000008 0.017704 -0.004423 0.000000 0.000000 0.000000
# 3 -0.004423 -0.004423 0.013315 0.000000 0.000000 0.000000
# 4 0.000000 0.000000 0.000000 0.013410 0.000000 0.000000
# 5 0.000000 0.000000 0.000000 0.000000 0.013410 0.000000
# 6 0.000000 0.000000 0.000000 0.000000 0.000000 0.058866
#
#
# Mechanical properties :
#
#
# Convention : Reuss Voigt Hill
#
# Bulk Modulus (GPa) = 32.20933 35.04052 33.62493
# Shear Modulus (GPa) = 30.78183 44.13853 37.46018
#
# Velocity S-wave (km/s) = 4.17064 4.99418 4.60087
# Velocity P-wave (km/s) = 6.43375 7.28399 6.87203
#
# Compressibility (1/GPa) = 0.03104691
#
# Stress axis : x y z
#
# Youngs Moduli (GPa) = 56.48395 56.48395 75.10564
#
# Poissons Ratio (x) = -0.00046 0.33220
# Poissons Ratio (y) = -0.00046 0.33220
# Poissons Ratio (z) = 0.24983 0.24983
#
# Static dielectric constant tensor:
#      x y z
#    x 1.609410 0.000000 0.000000 
#    y 0.000000 1.609410 0.000000 
#    z 0.000000 0.000000 1.604630 
# 
# From -- ./inp_files/5002.got.cif
#   From: 2010.05.17/outbox.cif.g08.bks.cpg/sg130_3_cif.got.tgz:5002.got - 2010.05.20 12:17:35.
