data_PCOD9565178
_publ_section_title
;
Structure prediction by ZEFSAII (Michael W. Deem and Ramdas Pophale) SiO2 
 PCOD9565178
Probable space group: P 4/N M M
;
_chemical_formula_sum "Si O2"
_cell_formula_units_Z 96
_cell_length_a 32.362456
_cell_length_b 32.362456
_cell_length_c 5.005778
_cell_angle_alpha 90.000000
_cell_angle_beta 90.000000
_cell_angle_gamma 90.000000
_cell_volume 5242.694256
_symmetry_space_group_name_H-M "P 4/N M M"
_symmetry_group_IT_number 129
_symmetry_cell_setting 'tetragonal'
loop_
_space_group_symop_operation_xyz
x,y,z
1/2-y,x,z
1/2-x,1/2-y,z
y,1/2-x,z
1/2+x,-y,-z
-x,1/2+y,-z
1/2+y,1/2+x,-z
-y,-x,-z
-x,-y,-z
1/2+y,-x,-z
1/2+x,1/2+y,-z
-y,1/2+x,-z
1/2-x,y,z
x,1/2-y,z
1/2-y,1/2-x,z
y,x,z
loop_
_atom_site_type_symbol
_atom_site_label
_atom_site_fract_x
_atom_site_fract_y
_atom_site_fract_z
Si Si1 0.024887 0.670368 0.458001
Si Si2 0.750000 0.578060 0.792173
Si Si3 0.660755 0.595157 0.964553
Si Si4 0.552842 0.620338 0.464653
Si Si5 0.027656 0.250000 0.710065
Si Si6 0.070849 0.799966 0.974987
Si Si7 0.202250 0.837124 0.247639
O O1 0.040403 0.680493 0.754413
O O2 0.996064 0.629617 0.433877
O O3 0.996330 0.708924 0.370497
O O4 0.062492 0.675723 0.250014
O O5 0.708023 0.598691 0.886401
O O6 0.750000 0.567998 0.479629
O O7 0.750000 0.536522 0.975224
O O8 0.638840 0.638840 0.944581
O O9 0.638028 0.565143 0.753408
O O10 0.649664 0.576001 0.250592
O O11 0.575161 0.575161 0.435600
O O12 0.064311 0.750000 0.007540
O O13 0.116980 0.805095 0.864955
O O14 0.174416 0.825585 0.500000
O O15 0.250000 0.834190 0.332126
O O16 0.192894 0.807107 0.000000
#
# Coordination Sequence:
#
# PCOD9565178 Si02
#       7
#    16   8  16  16   8  16  16
#     4  12  19  31  49  74 107 138 173 209 266 327
#     4  12  18  30  42  63  86 122 170 202 253 320
#     4  10  19  29  41  59  85 119 160 210 260 306
#     4  10  20  31  44  67 100 134 168 209 257 316
#     4  12  20  26  48  72  96 131 165 214 246 334
#     4  11  22  34  53  81 111 141 175 218 266 312
#     4  11  24  42  62  87 119 153 190 228 258 293
#
# _framework density 18.311195000000001
#
# number of rings (size 3 to 8) (size 9 to 14) (size 15 to 20)
#    0.000    1.000    5.000    3.500    0.000    3.667 
#    0.000    0.000    0.000    0.250    0.000    0.000 
#    0.000   18.667    0.000    0.000    0.000    0.833 
#
# Total GULP energy -535735.530143 kJ/mol
# GULP energy per Si atom -5580.578439 kJ/mol
# Density = 1.826952 g / cm^3
# Si number density = 18.311195 Si / 1000 Ang^3
#
#
#
# Elastic Constant Matrix: (Units=GPa)
#
#
# Indices 1 2 3 4 5 6 
#
# 1 41.6946 15.8006 -11.1330 0.0000 0.0000 0.0000
# 2 15.8006 41.7007 -11.1299 0.0000 0.0000 0.0000
# 3 -11.1330 -11.1299 46.3966 0.0000 0.0000 0.0000
# 4 0.0000 0.0000 0.0000 23.4508 0.0000 0.0000
# 5 0.0000 0.0000 0.0000 0.0000 23.4512 0.0000
# 6 0.0000 0.0000 0.0000 0.0000 0.0000 12.6470
#
#
#
# Elastic Compliance Matrix: (Units=1/GPa)
#
#
# Indices 1 2 3 4 5 6 
#
# 1 0.028897 -0.009721 0.004602 0.000000 0.000000 0.000000
# 2 -0.009721 0.028891 0.004598 0.000000 0.000000 0.000000
# 3 0.004602 0.004598 0.023761 0.000000 0.000000 0.000000
# 4 0.000000 0.000000 0.000000 0.042643 0.000000 0.000000
# 5 0.000000 0.000000 0.000000 0.000000 0.042642 0.000000
# 6 0.000000 0.000000 0.000000 0.000000 0.000000 0.079070
#
#
# Mechanical properties :
#
#
# Convention : Reuss Voigt Hill
#
# Bulk Modulus (GPa) = 12.42141 12.98525 12.70333
# Shear Modulus (GPa) = 18.26288 20.99341 19.62815
#
# Velocity S-wave (km/s) = 3.16153 3.38964 3.27757
# Velocity P-wave (km/s) = 4.48612 4.73565 4.61257
#
# Compressibility (1/GPa) = 0.08050617
#
# Stress axis : x y z
#
# Youngs Moduli (GPa) = 34.60625 34.61298 42.08661
#
# Poissons Ratio (x) = 0.33647 -0.19368
# Poissons Ratio (y) = 0.33640 -0.19351
# Poissons Ratio (z) = -0.15925 -0.15915
#
# Static dielectric constant tensor:
#      x y z
#    x 1.653100 0.000000 0.000000 
#    y 0.000000 1.653100 0.000000 
#    z 0.000000 0.000000 1.652130 
# 
# From -- ./inp_files/1141.got.cif
#   From: 2010.05.17/outbox.cif.g08.bks.cpg/sg129_1_cif.got.tgz:1141.got - 2010.05.20 12:12:06.
