data_PCOD9565596
_publ_section_title
;
Structure prediction by ZEFSAII (Michael W. Deem and Ramdas Pophale) SiO2 
 PCOD9565596
Probable space group: P 4/N C C
;
_chemical_formula_sum "Si O2"
_cell_formula_units_Z 104
_cell_length_a 19.792939
_cell_length_b 19.792939
_cell_length_c 14.936487
_cell_angle_alpha 90.000000
_cell_angle_beta 90.000000
_cell_angle_gamma 90.000000
_cell_volume 5851.524633
_symmetry_space_group_name_H-M "P 4/N C C"
_symmetry_group_IT_number 130
_symmetry_cell_setting 'tetragonal'
loop_
_space_group_symop_operation_xyz
x,y,z
1/2-y,x,z
1/2-x,1/2-y,z
y,1/2-x,z
1/2+x,-y,1/2-z
-x,1/2+y,1/2-z
1/2+y,1/2+x,1/2-z
-y,-x,1/2-z
-x,-y,-z
1/2+y,-x,-z
1/2+x,1/2+y,-z
-y,1/2+x,-z
1/2-x,y,1/2+z
x,1/2-y,1/2+z
1/2-y,1/2-x,1/2+z
y,x,1/2+z
loop_
_atom_site_type_symbol
_atom_site_label
_atom_site_fract_x
_atom_site_fract_y
_atom_site_fract_z
Si Si1 0.635694 0.497378 0.951341
Si Si2 0.365654 0.634347 0.250000
Si Si3 0.289056 0.542043 0.562226
Si Si4 0.965901 0.589692 0.344636
Si Si5 0.733049 0.323026 0.343968
Si Si6 0.462018 0.873797 0.602851
Si Si7 0.921594 0.528624 0.636631
O O1 0.712612 0.482492 0.925635
O O2 0.599150 0.556109 0.892867
O O3 0.589498 0.431010 0.933942
O O4 0.630396 0.513158 0.057369
O O5 0.353425 0.694231 0.319080
O O6 0.359840 0.562730 0.297080
O O7 0.342343 0.492200 0.609121
O O8 0.301037 0.618183 0.599585
O O9 0.308627 0.543008 0.458128
O O10 0.958656 0.601555 0.238204
O O11 0.025156 0.533648 0.358012
O O12 0.750000 0.250000 0.386319
O O13 0.694283 0.305718 0.250000
O O14 0.534883 0.907349 0.604069
#
# Coordination Sequence:
#
# PCOD9565596 Si02
#       7
#    16   8  16  16  16  16  16
#     4  11  21  40  55  91 123 146 208 253 297 362
#     4  10  19  38  52  80 118 160 198 236 285 346
#     4  12  23  35  63  88 119 167 198 251 306 361
#     4  10  21  39  61  87 117 155 206 257 304 351
#     4   9  22  39  50  79 130 163 201 238 279 369
#     4  11  20  37  59  82 115 157 202 246 298 347
#     4  10  20  38  62  81 118 156 196 265 298 348
#
# _framework density 17.773146000000001
#
# number of rings (size 3 to 8) (size 9 to 14) (size 15 to 20)
#    0.000    1.692    4.615    2.769    2.154    3.692 
#    0.000    0.769    0.000    0.462    0.000    0.000 
#    4.615    0.000    0.000    0.000    0.000    0.000 
#
# Total GULP energy -580083.197479 kJ/mol
# GULP energy per Si atom -5577.723053 kJ/mol
# Density = 1.773269 g / cm^3
# Si number density = 17.773146 Si / 1000 Ang^3
#
#
#
# Elastic Constant Matrix: (Units=GPa)
#
#
# Indices 1 2 3 4 5 6 
#
# 1 69.1390 37.9607 30.7469 0.0000 0.0000 0.0000
# 2 37.9607 69.1386 30.7465 0.0000 0.0000 0.0000
# 3 30.7469 30.7465 87.0047 0.0000 0.0000 0.0000
# 4 0.0000 0.0000 0.0000 16.8755 0.0000 0.0000
# 5 0.0000 0.0000 0.0000 0.0000 16.8757 0.0000
# 6 0.0000 0.0000 0.0000 0.0000 0.0000 20.4854
#
#
#
# Elastic Compliance Matrix: (Units=1/GPa)
#
#
# Indices 1 2 3 4 5 6 
#
# 1 0.021894 -0.010180 -0.004140 0.000000 0.000000 0.000000
# 2 -0.010180 0.021894 -0.004140 0.000000 0.000000 0.000000
# 3 -0.004140 -0.004140 0.014419 0.000000 0.000000 0.000000
# 4 0.000000 0.000000 0.000000 0.059258 0.000000 0.000000
# 5 0.000000 0.000000 0.000000 0.000000 0.059257 0.000000
# 6 0.000000 0.000000 0.000000 0.000000 0.000000 0.048815
#
#
# Mechanical properties :
#
#
# Convention : Reuss Voigt Hill
#
# Bulk Modulus (GPa) = 46.97283 47.13229 47.05256
# Shear Modulus (GPa) = 18.54935 19.23587 18.89261
#
# Velocity S-wave (km/s) = 3.23410 3.29340 3.26388
# Velocity P-wave (km/s) = 6.35864 6.40612 6.38243
#
# Compressibility (1/GPa) = 0.02128890
#
# Stress axis : x y z
#
# Youngs Moduli (GPa) = 45.67490 45.67480 69.35084
#
# Poissons Ratio (x) = 0.46497 0.28709
# Poissons Ratio (y) = 0.46497 0.28708
# Poissons Ratio (z) = 0.18908 0.18907
#
# Static dielectric constant tensor:
#      x y z
#    x 1.597010 0.000000 0.000000 
#    y 0.000000 1.597020 0.000000 
#    z 0.000000 0.000000 1.690240 
# 
# From -- ./inp_files/2534.got.cif
#   From: 2010.05.17/outbox.cif.g08.bks.cpg/sg130_2_cif.got.tgz:2534.got - 2010.05.20 12:17:35.
