data_PCOD9565421
_publ_section_title
;
Structure prediction by ZEFSAII (Michael W. Deem and Ramdas Pophale) SiO2 
 PCOD9565421
Probable space group: P 4/N M M
;
_chemical_formula_sum "Si O2"
_cell_formula_units_Z 64
_cell_length_a 20.074534
_cell_length_b 20.074534
_cell_length_c 7.413291
_cell_angle_alpha 90.000000
_cell_angle_beta 90.000000
_cell_angle_gamma 90.000000
_cell_volume 2987.459272
_symmetry_space_group_name_H-M "P 4/N M M"
_symmetry_group_IT_number 129
_symmetry_cell_setting 'tetragonal'
loop_
_space_group_symop_operation_xyz
x,y,z
1/2-y,x,z
1/2-x,1/2-y,z
y,1/2-x,z
1/2+x,-y,-z
-x,1/2+y,-z
1/2+y,1/2+x,-z
-y,-x,-z
-x,-y,-z
1/2+y,-x,-z
1/2+x,1/2+y,-z
-y,1/2+x,-z
1/2-x,y,z
x,1/2-y,z
1/2-y,1/2-x,z
y,x,z
loop_
_atom_site_type_symbol
_atom_site_label
_atom_site_fract_x
_atom_site_fract_y
_atom_site_fract_z
Si Si1 0.879398 0.986041 0.538459
Si Si2 0.462614 0.672036 0.171797
Si Si3 0.675036 0.567776 0.878855
Si Si4 0.127472 0.672748 0.683574
O O1 0.951474 0.951474 0.568012
O O2 0.832007 0.940692 0.663428
O O3 0.865908 0.995900 0.327435
O O4 0.859778 0.057836 0.618217
O O5 0.469432 0.750000 0.213845
O O6 0.384244 0.656336 0.186025
O O7 0.498396 0.659185 0.981665
O O8 0.750000 0.585970 0.926448
O O9 0.622366 0.622366 0.939154
O O10 0.171112 0.671112 0.500000
O O11 0.120559 0.750000 0.744804
#
# Coordination Sequence:
#
# PCOD9565421 Si02
#       4
#    16  16  16  16
#     4  10  20  35  56  80 109 145 185 231 282 340
#     4  10  21  36  56  82 112 149 191 233 282 342
#     4  10  21  37  58  84 114 150 193 241 293 348
#     4  10  20  34  55  83 114 149 190 236 286 341
#
# _framework density 21.422885999999998
#
# number of rings (size 3 to 8) (size 9 to 14) (size 15 to 20)
#    0.000    2.000    0.000    5.250    0.000    8.500 
#    0.000    2.500    0.000    6.000    0.000   21.000 
#    0.000    0.000    0.000    0.000    0.000    0.000 
#
# Total GULP energy -356673.755245 kJ/mol
# GULP energy per Si atom -5573.027426 kJ/mol
# Density = 2.137413 g / cm^3
# Si number density = 21.422886 Si / 1000 Ang^3
#
#
#
# Elastic Constant Matrix: (Units=GPa)
#
#
# Indices 1 2 3 4 5 6 
#
# 1 103.3940 86.3108 25.2507 0.0000 0.0000 0.0000
# 2 86.3108 103.3940 25.2507 0.0000 0.0000 0.0000
# 3 25.2507 25.2507 92.1362 0.0000 0.0000 0.0000
# 4 0.0000 0.0000 0.0000 25.1975 0.0000 0.0000
# 5 0.0000 0.0000 0.0000 0.0000 25.1975 0.0000
# 6 0.0000 0.0000 0.0000 0.0000 0.0000 20.9024
#
#
#
# Elastic Compliance Matrix: (Units=1/GPa)
#
#
# Indices 1 2 3 4 5 6 
#
# 1 0.032112 -0.026425 -0.001558 0.000000 0.000000 0.000000
# 2 -0.026425 0.032112 -0.001558 0.000000 0.000000 0.000000
# 3 -0.001558 -0.001558 0.011708 0.000000 0.000000 0.000000
# 4 0.000000 0.000000 0.000000 0.039686 0.000000 0.000000
# 5 0.000000 0.000000 0.000000 0.000000 0.039686 0.000000
# 6 0.000000 0.000000 0.000000 0.000000 0.000000 0.047841
#
#
# Mechanical properties :
#
#
# Convention : Reuss Voigt Hill
#
# Bulk Modulus (GPa) = 59.35899 63.61650 61.48774
# Shear Modulus (GPa) = 18.66751 25.06695 21.86723
#
# Velocity S-wave (km/s) = 2.95512 3.42439 3.19837
# Velocity P-wave (km/s) = 6.27790 6.73760 6.51181
#
# Compressibility (1/GPa) = 0.01684665
#
# Stress axis : x y z
#
# Youngs Moduli (GPa) = 31.14136 31.14136 85.41420
#
# Poissons Ratio (x) = 0.82292 0.13311
# Poissons Ratio (y) = 0.82292 0.13311
# Poissons Ratio (z) = 0.04853 0.04853
#
# Static dielectric constant tensor:
#      x y z
#    x 1.787200 0.000000 0.000000 
#    y 0.000000 1.787200 0.000000 
#    z 0.000000 0.000000 1.841540 
# 
# From -- ./inp_files/2094.got.cif
#   From: 2010.05.17/outbox.cif.g08.bks.cpg/sg129_2_cif.got.tgz:2094.got - 2010.05.20 12:12:06.
