data_PCOD9565419
_publ_section_title
;
Structure prediction by ZEFSAII (Michael W. Deem and Ramdas Pophale) SiO2 
 PCOD9565419
Probable space group: P 4/N M M
;
_chemical_formula_sum "Si O2"
_cell_formula_units_Z 64
_cell_length_a 19.894300
_cell_length_b 19.894300
_cell_length_c 9.001982
_cell_angle_alpha 90.000000
_cell_angle_beta 90.000000
_cell_angle_gamma 90.000000
_cell_volume 3562.832995
_symmetry_space_group_name_H-M "P 4/N M M"
_symmetry_group_IT_number 129
_symmetry_cell_setting 'tetragonal'
loop_
_space_group_symop_operation_xyz
x,y,z
1/2-y,x,z
1/2-x,1/2-y,z
y,1/2-x,z
1/2+x,-y,-z
-x,1/2+y,-z
1/2+y,1/2+x,-z
-y,-x,-z
-x,-y,-z
1/2+y,-x,-z
1/2+x,1/2+y,-z
-y,1/2+x,-z
1/2-x,y,z
x,1/2-y,z
1/2-y,1/2-x,z
y,x,z
loop_
_atom_site_type_symbol
_atom_site_label
_atom_site_fract_x
_atom_site_fract_y
_atom_site_fract_z
Si Si1 0.327699 0.430961 0.447676
Si Si2 0.415891 0.523027 0.646938
Si Si3 0.075966 0.670245 0.087479
Si Si4 0.941437 0.670656 0.890462
O O1 0.250000 0.434361 0.473054
O O2 0.355672 0.355672 0.441032
O O3 0.364977 0.468524 0.579208
O O4 0.342717 0.459843 0.282866
O O5 0.436656 0.563345 0.500000
O O6 0.482023 0.482023 0.702189
O O7 0.376429 0.564911 0.768757
O O8 0.083491 0.750000 0.118470
O O9 0.139048 0.639048 0.000000
O O10 0.007398 0.661751 0.990830
O O11 0.921032 0.750000 0.899712
O O12 0.881294 0.618707 0.929563
#
# Coordination Sequence:
#
# PCOD9565419 Si02
#       4
#    16  16  16  16
#     4   9  17  30  48  72 105 140 173 209 247 296
#     4  10  20  34  55  82 108 134 168 214 268 325
#     4  11  23  38  57  78 103 138 179 226 276 324
#     4   9  18  32  52  80 112 146 181 216 260 315
#
# _framework density 17.963232000000001
#
# number of rings (size 3 to 8) (size 9 to 14) (size 15 to 20)
#    0.000    2.250    0.000    3.000    0.000    4.750 
#    0.000    3.750    0.000    0.000    0.000    3.500 
#    0.000    0.000    0.000    0.000    0.000    0.000 
#
# Total GULP energy -356756.966972 kJ/mol
# GULP energy per Si atom -5574.327609 kJ/mol
# Density = 1.792235 g / cm^3
# Si number density = 17.963232 Si / 1000 Ang^3
#
#
#
# Elastic Constant Matrix: (Units=GPa)
#
#
# Indices 1 2 3 4 5 6 
#
# 1 73.2973 38.7791 32.1922 0.0000 0.0000 0.0000
# 2 38.7791 73.2965 32.1941 0.0000 0.0000 0.0000
# 3 32.1922 32.1941 52.3743 0.0000 0.0000 0.0000
# 4 0.0000 0.0000 0.0000 22.2814 0.0000 0.0000
# 5 0.0000 0.0000 0.0000 0.0000 22.2818 0.0000
# 6 0.0000 0.0000 0.0000 0.0000 0.0000 25.6446
#
#
#
# Elastic Compliance Matrix: (Units=1/GPa)
#
#
# Indices 1 2 3 4 5 6 
#
# 1 0.021381 -0.007589 -0.008477 0.000000 0.000000 0.000000
# 2 -0.007589 0.021383 -0.008479 0.000000 0.000000 0.000000
# 3 -0.008477 -0.008479 0.029516 0.000000 0.000000 0.000000
# 4 0.000000 0.000000 0.000000 0.044881 0.000000 0.000000
# 5 0.000000 0.000000 0.000000 0.000000 0.044880 0.000000
# 6 0.000000 0.000000 0.000000 0.000000 0.000000 0.038995
#
#
# Mechanical properties :
#
#
# Convention : Reuss Voigt Hill
#
# Bulk Modulus (GPa) = 43.12342 45.03320 44.07831
# Shear Modulus (GPa) = 19.39074 20.42841 19.90957
#
# Velocity S-wave (km/s) = 3.28909 3.37595 3.33280
# Velocity P-wave (km/s) = 6.20345 6.34981 6.27706
#
# Compressibility (1/GPa) = 0.02318926
#
# Stress axis : x y z
#
# Youngs Moduli (GPa) = 46.76995 46.76715 33.87981
#
# Poissons Ratio (x) = 0.35490 0.28721
# Poissons Ratio (y) = 0.35492 0.28727
# Poissons Ratio (z) = 0.39649 0.39655
#
# Static dielectric constant tensor:
#      x y z
#    x 1.625390 0.000000 0.000000 
#    y 0.000000 1.625390 0.000000 
#    z 0.000000 0.000000 1.629050 
# 
# From -- ./inp_files/2050.got.cif
#   From: 2010.05.17/outbox.cif.g08.bks.cpg/sg129_2_cif.got.tgz:2050.got - 2010.05.20 12:12:06.
