data_PCOD9565726
_publ_section_title
;
Structure prediction by ZEFSAII (Michael W. Deem and Ramdas Pophale) SiO2 
 PCOD9565726
Probable space group: P 4/N C C
;
_chemical_formula_sum "Si O2"
_cell_formula_units_Z 96
_cell_length_a 21.433246
_cell_length_b 21.433246
_cell_length_c 11.996976
_cell_angle_alpha 90.000000
_cell_angle_beta 90.000000
_cell_angle_gamma 90.000000
_cell_volume 5511.219232
_symmetry_space_group_name_H-M "P 4/N C C"
_symmetry_group_IT_number 130
_symmetry_cell_setting 'tetragonal'
loop_
_space_group_symop_operation_xyz
x,y,z
1/2-y,x,z
1/2-x,1/2-y,z
y,1/2-x,z
1/2+x,-y,1/2-z
-x,1/2+y,1/2-z
1/2+y,1/2+x,1/2-z
-y,-x,1/2-z
-x,-y,-z
1/2+y,-x,-z
1/2+x,1/2+y,-z
-y,1/2+x,-z
1/2-x,y,1/2+z
x,1/2-y,1/2+z
1/2-y,1/2-x,1/2+z
y,x,1/2+z
loop_
_atom_site_type_symbol
_atom_site_label
_atom_site_fract_x
_atom_site_fract_y
_atom_site_fract_z
Si Si1 0.652411 0.973520 0.502195
Si Si2 0.723091 0.970687 0.890801
Si Si3 0.262619 0.146890 0.750806
Si Si4 0.973699 0.573340 0.777057
Si Si5 0.849761 0.907082 0.580283
Si Si6 0.871894 0.468831 0.736187
O O1 0.721294 0.994573 0.467734
O O2 0.609378 0.978606 0.393250
O O3 0.643853 0.901978 0.546101
O O4 0.631778 0.014863 0.606226
O O5 0.755661 0.912739 0.827060
O O6 0.692099 0.016152 0.800454
O O7 0.669230 0.945795 0.972330
O O8 0.316656 0.197990 0.731887
O O9 0.285715 0.122054 0.870982
O O10 0.948887 0.618816 0.678185
O O11 0.921969 0.518744 0.784520
O O12 0.038297 0.538297 0.750000
O O13 0.900733 0.400733 0.750000
#
# Coordination Sequence:
#
# PCOD9565726 Si02
#       6
#    16  16  16  16  16  16
#     4  11  22  36  57  81 115 152 196 244 299 346
#     4  12  21  36  55  80 112 153 190 242 293 346
#     4  11  22  35  50  75 110 155 207 243 276 328
#     4  10  21  37  59  83 111 149 202 249 304 352
#     4  11  21  36  55  78 108 152 198 251 286 343
#     4  10  23  38  58  84 115 152 195 241 297 353
#
# _framework density 17.419014000000001
#
# number of rings (size 3 to 8) (size 9 to 14) (size 15 to 20)
#    0.000    1.167    3.333    5.000    2.333    2.000 
#    0.000    1.667    0.000    0.000    0.000    0.000 
#    0.000    5.333    0.000    0.000    0.000    0.000 
#
# Total GULP energy -535422.826755 kJ/mol
# GULP energy per Si atom -5577.321112 kJ/mol
# Density = 1.737937 g / cm^3
# Si number density = 17.419014 Si / 1000 Ang^3
#
#
#
# Elastic Constant Matrix: (Units=GPa)
#
#
# Indices 1 2 3 4 5 6 
#
# 1 61.4559 42.1827 37.5064 0.0000 0.0000 0.0000
# 2 42.1827 61.4559 37.5064 0.0000 0.0000 0.0000
# 3 37.5064 37.5064 93.1211 0.0000 0.0000 0.0000
# 4 0.0000 0.0000 0.0000 11.8376 0.0000 0.0000
# 5 0.0000 0.0000 0.0000 0.0000 11.8376 0.0000
# 6 0.0000 0.0000 0.0000 0.0000 0.0000 4.3977
#
#
#
# Elastic Compliance Matrix: (Units=1/GPa)
#
#
# Indices 1 2 3 4 5 6 
#
# 1 0.032752 -0.019133 -0.005485 0.000000 0.000000 0.000000
# 2 -0.019133 0.032752 -0.005485 0.000000 0.000000 0.000000
# 3 -0.005485 -0.005485 0.015157 0.000000 0.000000 0.000000
# 4 0.000000 0.000000 0.000000 0.084477 0.000000 0.000000
# 5 0.000000 0.000000 0.000000 0.000000 0.084477 0.000000
# 6 0.000000 0.000000 0.000000 0.000000 0.000000 0.227393
#
#
# Mechanical properties :
#
#
# Convention : Reuss Voigt Hill
#
# Bulk Modulus (GPa) = 48.88970 50.04709 49.46839
# Shear Modulus (GPa) = 9.19059 12.20372 10.69715
#
# Velocity S-wave (km/s) = 2.29949 2.64975 2.48081
# Velocity P-wave (km/s) = 5.93110 6.17699 6.05530
#
# Compressibility (1/GPa) = 0.02045421
#
# Stress axis : x y z
#
# Youngs Moduli (GPa) = 30.53212 30.53212 65.97429
#
# Poissons Ratio (x) = 0.58418 0.36190
# Poissons Ratio (y) = 0.58418 0.36190
# Poissons Ratio (z) = 0.16748 0.16748
#
# Static dielectric constant tensor:
#      x y z
#    x 1.611650 0.000000 0.000000 
#    y 0.000000 1.611650 0.000000 
#    z 0.000000 0.000000 1.623640 
# 
# From -- ./inp_files/1764.got.cif
#   From: 2010.05.17/outbox.cif.g08.bks.cpg/sg130_1_cif.got.tgz:1764.got - 2010.05.20 12:17:35.
