data_PCOD9565080
_publ_section_title
;
Structure prediction by ZEFSAII (Michael W. Deem and Ramdas Pophale) SiO2 
 PCOD9565080
Probable space group: P 4/M N C
;
_chemical_formula_sum "Si O2"
_cell_formula_units_Z 96
_cell_length_a 24.000000
_cell_length_b 24.000000
_cell_length_c 9.000000
_cell_angle_alpha 90.000000
_cell_angle_beta 90.000000
_cell_angle_gamma 90.000000
_cell_volume 5184.000000
_symmetry_space_group_name_H-M "P 4/M N C"
_symmetry_group_IT_number 128
_symmetry_cell_setting 'tetragonal'
loop_
_space_group_symop_operation_xyz
x,y,z
-y,x,z
-x,-y,z
y,-x,z
1/2+x,1/2-y,1/2-z
1/2-x,1/2+y,1/2-z
1/2+y,1/2+x,1/2-z
1/2-y,1/2-x,1/2-z
-x,-y,-z
y,-x,-z
x,y,-z
-y,x,-z
1/2-x,1/2+y,1/2+z
1/2+x,1/2-y,1/2+z
1/2-y,1/2-x,1/2+z
1/2+y,1/2+x,1/2+z
loop_
_atom_site_type_symbol
_atom_site_label
_atom_site_fract_x
_atom_site_fract_y
_atom_site_fract_z
Si Si1 0.216020 0.802627 0.823750
Si Si2 0.912457 0.970537 0.819590
Si Si3 0.330218 0.085782 0.679862
Si Si4 0.883776 0.529886 0.177481
Si Si5 0.583253 0.708232 0.322356
Si Si6 0.880698 0.705724 0.322506
O O1 0.251809 0.751809 0.750000
O O2 0.149970 0.798874 0.801668
O O3 0.237437 0.860910 0.753150
O O4 0.227645 0.801904 0.000000
O O5 0.930635 0.034355 0.775812
O O6 0.849965 0.948470 0.774691
O O7 0.911651 0.969771 0.000000
O O8 0.358593 0.141408 0.750000
O O9 0.327886 0.090735 0.500000
O O10 0.267777 0.072221 0.740942
O O11 0.371585 0.033978 0.718941
O O12 0.934367 0.565634 0.250000
O O13 0.824863 0.561250 0.209393
O O14 0.892625 0.532602 0.000000
O O15 0.572673 0.714957 0.500000
O O16 0.837154 0.662847 0.250000
O O17 0.874276 0.709474 0.500000
#
# Coordination Sequence:
#
# PCOD9565080 Si02
#       6
#    16  16  16  16  16  16
#     4  10  19  30  46  72 106 143 184 228 273 323
#     4   8  15  31  56  85 116 147 181 224 270 320
#     4  11  24  41  58  79 109 144 183 227 273 322
#     4   9  20  37  57  81 108 139 178 224 273 325
#     4  10  21  35  54  82 111 143 184 226 272 324
#     4   9  16  29  49  73 101 133 170 213 263 316
#
# _framework density 18.518519000000001
#
# number of rings (size 3 to 8) (size 9 to 14) (size 15 to 20)
#    0.000    2.500    0.000    3.500    0.000    6.333 
#    0.000    3.333    0.000    1.000    0.000    1.167 
#    0.000    0.000    0.000    0.000    0.000    0.000 
#
# Total GULP energy -534648.171311 kJ/mol
# GULP energy per Si atom -5569.251784 kJ/mol
# Density = 1.847637 g / cm^3
# Si number density = 18.518519 Si / 1000 Ang^3
#
#
#
# Elastic Constant Matrix: (Units=GPa)
#
#
# Indices 1 2 3 4 5 6 
#
# 1 120.7236 50.5660 33.2705 0.0000 0.0000 0.0000
# 2 50.5660 120.7220 33.2697 0.0000 0.0000 0.0000
# 3 33.2705 33.2697 59.3605 0.0000 0.0000 0.0000
# 4 0.0000 0.0000 0.0000 19.5751 0.0000 0.0000
# 5 0.0000 0.0000 0.0000 0.0000 19.5755 0.0000
# 6 0.0000 0.0000 0.0000 0.0000 0.0000 36.2229
#
#
#
# Elastic Compliance Matrix: (Units=1/GPa)
#
#
# Indices 1 2 3 4 5 6 
#
# 1 0.010858 -0.003395 -0.004183 0.000000 0.000000 0.000000
# 2 -0.003395 0.010858 -0.004183 0.000000 0.000000 0.000000
# 3 -0.004183 -0.004183 0.021535 0.000000 0.000000 0.000000
# 4 0.000000 0.000000 0.000000 0.051085 0.000000 0.000000
# 5 0.000000 0.000000 0.000000 0.000000 0.051084 0.000000
# 6 0.000000 0.000000 0.000000 0.000000 0.000000 0.027607
#
#
# Mechanical properties :
#
#
# Convention : Reuss Voigt Hill
#
# Bulk Modulus (GPa) = 50.68513 59.44650 55.06582
# Shear Modulus (GPa) = 24.61516 27.32135 25.96826
#
# Velocity S-wave (km/s) = 3.64980 3.84520 3.74877
# Velocity P-wave (km/s) = 6.72241 7.20312 6.96691
#
# Compressibility (1/GPa) = 0.01972965
#
# Stress axis : x y z
#
# Youngs Moduli (GPa) = 92.09504 92.09437 46.43612
#
# Poissons Ratio (x) = 0.31270 0.19424
# Poissons Ratio (y) = 0.31270 0.19423
# Poissons Ratio (z) = 0.38522 0.38521
#
# Static dielectric constant tensor:
#      x y z
#    x 1.669300 0.000000 0.000000 
#    y 0.000000 1.669300 0.000000 
#    z 0.000000 0.000000 1.623640 
# 
# From -- ./inp_files/1498.got.cif
#   From: 2010.05.17/outbox.ucp.g08.bks.cvg/sg128_1_cif.got.tgz:1498.got - 2010.06.11 11:37:33.
