data_PCOD9565090
_publ_section_title
;
Structure prediction by ZEFSAII (Michael W. Deem and Ramdas Pophale) SiO2 
 PCOD9565090
Probable space group: P 4/M N C
;
_chemical_formula_sum "Si O2"
_cell_formula_units_Z 112
_cell_length_a 15.000000
_cell_length_b 15.000000
_cell_length_c 27.000000
_cell_angle_alpha 90.000000
_cell_angle_beta 90.000000
_cell_angle_gamma 90.000000
_cell_volume 6075.000000
_symmetry_space_group_name_H-M "P 4/M N C"
_symmetry_group_IT_number 128
_symmetry_cell_setting 'tetragonal'
loop_
_space_group_symop_operation_xyz
x,y,z
-y,x,z
-x,-y,z
y,-x,z
1/2+x,1/2-y,1/2-z
1/2-x,1/2+y,1/2-z
1/2+y,1/2+x,1/2-z
1/2-y,1/2-x,1/2-z
-x,-y,-z
y,-x,-z
x,y,-z
-y,x,-z
1/2-x,1/2+y,1/2+z
1/2+x,1/2-y,1/2+z
1/2-y,1/2-x,1/2+z
1/2+y,1/2+x,1/2+z
loop_
_atom_site_type_symbol
_atom_site_label
_atom_site_fract_x
_atom_site_fract_y
_atom_site_fract_z
Si Si1 0.402798 0.613707 0.445092
Si Si2 0.497872 0.722710 0.941708
Si Si3 0.410583 0.761410 0.734054
Si Si4 0.426118 0.929762 0.557573
Si Si5 0.161291 0.831202 0.380750
Si Si6 0.633575 0.229665 0.621876
Si Si7 0.765816 0.881543 0.730663
O O1 0.379855 0.509878 0.441488
O O2 0.375678 0.645486 0.500000
O O3 0.362695 0.673909 0.402906
O O4 0.471087 0.826889 0.939549
O O5 0.598827 0.712570 0.922666
O O6 0.433571 0.669793 0.902380
O O7 0.487258 0.694836 0.000000
O O8 0.348507 0.848507 0.750000
O O9 0.412081 0.767600 0.674976
O O10 0.350748 0.673148 0.746353
O O11 0.513124 0.751789 0.754909
O O12 0.446138 0.911010 0.500000
O O13 0.500000 0.000000 0.575888
O O14 0.421362 0.838385 0.587623
O O15 0.264585 0.803468 0.375998
O O16 0.121989 0.795244 0.327868
O O17 0.680460 0.819541 0.750000
#
# Coordination Sequence:
#
# PCOD9565090 Si02
#       7
#    16  16  16  16  16  16  16
#     4   9  20  37  57  85 122 159 202 252 311 379
#     4  10  22  38  63  97 130 170 219 271 335 411
#     4  11  25  46  65  98 135 170 230 289 341 417
#     4   9  20  38  58  89 128 164 209 260 319 396
#     4  11  22  41  66  87 132 171 210 276 336 392
#     4  11  22  38  64  89 123 166 214 267 322 387
#     4  11  24  45  69  96 135 182 234 288 352 414
#
# _framework density 18.436214
#
# number of rings (size 3 to 8) (size 9 to 14) (size 15 to 20)
#    0.000    1.714    2.857    2.143    4.000    4.857 
#    0.000    5.000    0.000    0.000    0.000    0.000 
#    0.000    0.000    0.000    0.000    0.000    0.000 
#
# Total GULP energy -623634.446093 kJ/mol
# GULP energy per Si atom -5568.164697 kJ/mol
# Density = 1.839425 g / cm^3
# Si number density = 18.436214 Si / 1000 Ang^3
#
#
#
# Elastic Constant Matrix: (Units=GPa)
#
#
# Indices 1 2 3 4 5 6 
#
# 1 82.8930 27.8808 32.2879 0.0000 0.0000 0.0000
# 2 27.8808 82.8929 32.2879 0.0000 0.0000 0.0000
# 3 32.2879 32.2879 105.4781 0.0000 0.0000 0.0000
# 4 0.0000 0.0000 0.0000 522.7407 0.0000 0.0000
# 5 0.0000 0.0000 0.0000 0.0000 520.7876 0.0000
# 6 0.0000 0.0000 0.0000 0.0000 0.0000 30.9849
#
#
#
# Elastic Compliance Matrix: (Units=1/GPa)
#
#
# Indices 1 2 3 4 5 6 
#
# 1 0.014583 -0.003595 -0.003364 0.000000 0.000000 0.000000
# 2 -0.003595 0.014583 -0.003364 0.000000 0.000000 0.000000
# 3 -0.003364 -0.003364 0.011540 0.000000 0.000000 0.000000
# 4 0.000000 0.000000 0.000000 0.001913 0.000000 0.000000
# 5 0.000000 0.000000 0.000000 0.000000 0.001920 0.000000
# 6 0.000000 0.000000 0.000000 0.000000 0.000000 0.032274
#
#
# Mechanical properties :
#
#
# Convention : Reuss Voigt Hill
#
# Bulk Modulus (GPa) = 49.84565 50.68639 50.26602
# Shear Modulus (GPa) = 48.01035 226.82312 137.41673
#
# Velocity S-wave (km/s) = 5.10861 11.10398 8.64281
# Velocity P-wave (km/s) = 7.86719 13.85462 11.26594
#
# Compressibility (1/GPa) = 0.02006193
#
# Stress axis : x y z
#
# Youngs Moduli (GPa) = 68.57296 68.57290 86.65576
#
# Poissons Ratio (x) = 0.24650 0.29148
# Poissons Ratio (y) = 0.24651 0.29148
# Poissons Ratio (z) = 0.23065 0.23065
#
# Static dielectric constant tensor:
#      x y z
#    x 1.642610 0.000000 0.000000 
#    y 0.000000 1.642610 0.000000 
#    z 0.000000 0.000000 1.667860 
# 
# From -- ./inp_files/6923.got.cif
#   From: 2010.05.17/outbox.ucp.g08.bks.cvg/sg128_4_cif.got.tgz:6923.got - 2010.06.11 11:37:33.
