data_PCOD9565038
_publ_section_title
;
Structure prediction by ZEFSAII (Michael W. Deem and Ramdas Pophale) SiO2 
 PCOD9565038
Probable space group: P 4/M N C
;
_chemical_formula_sum "Si O2"
_cell_formula_units_Z 48
_cell_length_a 8.016229
_cell_length_b 8.016229
_cell_length_c 34.161005
_cell_angle_alpha 90.000000
_cell_angle_beta 90.000000
_cell_angle_gamma 90.000000
_cell_volume 2195.183701
_symmetry_space_group_name_H-M "P 4/M N C"
_symmetry_group_IT_number 128
_symmetry_cell_setting 'tetragonal'
loop_
_space_group_symop_operation_xyz
x,y,z
-y,x,z
-x,-y,z
y,-x,z
1/2+x,1/2-y,1/2-z
1/2-x,1/2+y,1/2-z
1/2+y,1/2+x,1/2-z
1/2-y,1/2-x,1/2-z
-x,-y,-z
y,-x,-z
x,y,-z
-y,x,-z
1/2-x,1/2+y,1/2+z
1/2+x,1/2-y,1/2+z
1/2-y,1/2-x,1/2+z
1/2+y,1/2+x,1/2+z
loop_
_atom_site_type_symbol
_atom_site_label
_atom_site_fract_x
_atom_site_fract_y
_atom_site_fract_z
Si Si1 0.764647 0.594894 0.000000
Si Si2 0.265651 0.091536 0.789450
Si Si3 0.500000 0.000000 0.355469
Si Si4 0.408868 0.765466 0.421096
O O1 0.595971 0.705772 0.000000
O O2 0.866199 0.641724 0.961244
O O3 0.362816 0.137185 0.750000
O O4 0.099867 0.203670 0.790444
O O5 0.383895 0.109014 0.826919
O O6 0.610597 0.114143 0.384108
O O7 0.296652 0.599991 0.419613
#
# Coordination Sequence:
#
# PCOD9565038 Si02
#       4
#     8  16   8  16
#     4  11  24  43  66  95 132 174 222 277 338 405
#     4  11  24  44  70 100 137 182 229 278 338 408
#     4  12  23  39  64  96 134 170 220 279 333 394
#     4  11  24  42  66  95 130 177 228 278 337 405
#
# _framework density 21.866050999999999
#
# number of rings (size 3 to 8) (size 9 to 14) (size 15 to 20)
#    0.000    0.833    0.000    7.500    0.000    6.000 
#    0.000    0.000    0.000    4.000    0.000    0.000 
#    0.000    0.000    0.000    0.000    0.000    0.000 
#
# Total GULP energy -268934.389177 kJ/mol
# GULP energy per Si atom -5602.799775 kJ/mol
# Density = 2.181628 g / cm^3
# Si number density = 21.866051 Si / 1000 Ang^3
#
#
#
# Elastic Constant Matrix: (Units=GPa)
#
#
# Indices 1 2 3 4 5 6 
#
# 1 140.6861 68.0257 94.3527 0.0000 0.0000 0.0000
# 2 68.0257 140.6859 94.3528 0.0000 0.0000 0.0000
# 3 94.3527 94.3528 239.2097 0.0000 0.0000 0.0000
# 4 0.0000 0.0000 0.0000 41.1981 0.0000 0.0000
# 5 0.0000 0.0000 0.0000 0.0000 41.1981 0.0000
# 6 0.0000 0.0000 0.0000 0.0000 0.0000 35.0018
#
#
#
# Elastic Compliance Matrix: (Units=1/GPa)
#
#
# Indices 1 2 3 4 5 6 
#
# 1 0.010605 -0.003158 -0.002937 0.000000 0.000000 0.000000
# 2 -0.003158 0.010605 -0.002937 0.000000 0.000000 0.000000
# 3 -0.002937 -0.002937 0.006498 0.000000 0.000000 0.000000
# 4 0.000000 0.000000 0.000000 0.024273 0.000000 0.000000
# 5 0.000000 0.000000 0.000000 0.000000 0.024273 0.000000
# 6 0.000000 0.000000 0.000000 0.000000 0.000000 0.028570
#
#
# Mechanical properties :
#
#
# Convention : Reuss Voigt Hill
#
# Bulk Modulus (GPa) = 103.70971 114.89380 109.30176
# Shear Modulus (GPa) = 39.65022 41.06963 40.35993
#
# Velocity S-wave (km/s) = 4.26293 4.33856 4.30092
# Velocity P-wave (km/s) = 8.47128 8.81793 8.64635
#
# Compressibility (1/GPa) = 0.00964230
#
# Stress axis : x y z
#
# Youngs Moduli (GPa) = 94.29604 94.29581 153.90111
#
# Poissons Ratio (x) = 0.29776 0.45207
# Poissons Ratio (y) = 0.29776 0.45207
# Poissons Ratio (z) = 0.27699 0.27699
#
# Static dielectric constant tensor:
#      x y z
#    x 1.807770 0.000000 0.000000 
#    y 0.000000 1.807770 0.000000 
#    z 0.000000 0.000000 1.753740 
# 
# From -- ./inp_files/7034.got.cif
#   From: 2010.05.17/outbox.cif.g08.bks.cpg/sg128_4_cif.got.tgz:7034.got - 2010.05.20 12:07:25.
