data_PCOD9565561
_publ_section_title
;
Structure prediction by ZEFSAII (Michael W. Deem and Ramdas Pophale) SiO2 
 PCOD9565561
Probable space group: P 4/N C C
;
_chemical_formula_sum "Si O2"
_cell_formula_units_Z 80
_cell_length_a 22.832255
_cell_length_b 22.832255
_cell_length_c 9.276521
_cell_angle_alpha 90.000000
_cell_angle_beta 90.000000
_cell_angle_gamma 90.000000
_cell_volume 4835.960495
_symmetry_space_group_name_H-M "P 4/N C C"
_symmetry_group_IT_number 130
_symmetry_cell_setting 'tetragonal'
loop_
_space_group_symop_operation_xyz
x,y,z
1/2-y,x,z
1/2-x,1/2-y,z
y,1/2-x,z
1/2+x,-y,1/2-z
-x,1/2+y,1/2-z
1/2+y,1/2+x,1/2-z
-y,-x,1/2-z
-x,-y,-z
1/2+y,-x,-z
1/2+x,1/2+y,-z
-y,1/2+x,-z
1/2-x,y,1/2+z
x,1/2-y,1/2+z
1/2-y,1/2-x,1/2+z
y,x,1/2+z
loop_
_atom_site_type_symbol
_atom_site_label
_atom_site_fract_x
_atom_site_fract_y
_atom_site_fract_z
Si Si1 0.646643 0.146643 0.250000
Si Si2 0.082018 0.025778 0.116505
Si Si3 0.865764 0.134237 0.250000
Si Si4 0.333106 0.948943 0.502956
Si Si5 0.994487 0.092366 0.939009
Si Si6 0.408537 0.797528 0.505548
O O1 0.650567 0.090263 0.355398
O O2 0.638262 0.198302 0.364179
O O3 0.096028 0.026355 0.284925
O O4 0.041723 0.078281 0.062023
O O5 0.045269 0.966205 0.078773
O O6 0.141713 0.013176 0.030018
O O7 0.920088 0.138018 0.360837
O O8 0.811250 0.126012 0.357962
O O9 0.263769 0.941209 0.491301
O O10 0.954844 0.149174 0.970960
#
# Coordination Sequence:
#
# PCOD9565561 Si02
#       6
#     8  16   8  16  16  16
#     4  10  18  38  47  69  98 128 170 214 252 279
#     4  10  19  32  49  72  99 124 159 204 253 300
#     4  10  22  30  51  77  88 126 178 206 244 299
#     4  11  20  34  54  72  98 134 170 208 255 297
#     4  10  19  32  49  72  99 124 159 204 253 300
#     4  11  20  34  54  72  98 134 170 208 255 297
#
# _framework density 16.542732999999998
#
# number of rings (size 3 to 8) (size 9 to 14) (size 15 to 20)
#    0.000    1.600    6.000    1.200    2.800    0.000 
#    0.000    0.000    0.000   42.000    0.000    0.000 
#    0.000    0.800    0.000    3.600    0.000    0.400 
#
# Total GULP energy -445473.409020 kJ/mol
# GULP energy per Si atom -5568.417613 kJ/mol
# Density = 1.650508 g / cm^3
# Si number density = 16.542733 Si / 1000 Ang^3
#
#
#
# Elastic Constant Matrix: (Units=GPa)
#
#
# Indices 1 2 3 4 5 6 
#
# 1 40.4703 48.3737 23.8665 0.0000 0.0000 0.0000
# 2 48.3737 40.4702 23.8664 0.0000 0.0000 0.0000
# 3 23.8665 23.8664 109.7986 0.0000 0.0000 0.0000
# 4 0.0000 0.0000 0.0000 14.3674 0.0000 0.0000
# 5 0.0000 0.0000 0.0000 0.0000 14.3676 0.0000
# 6 0.0000 0.0000 0.0000 0.0000 0.0000 15.6296
#
#
#
# Elastic Compliance Matrix: (Units=1/GPa)
#
#
# Indices 1 2 3 4 5 6 
#
# 1 -0.056891 0.069635 -0.002770 0.000000 0.000000 0.000000
# 2 0.069635 -0.056891 -0.002770 0.000000 0.000000 0.000000
# 3 -0.002770 -0.002770 0.010312 0.000000 0.000000 0.000000
# 4 0.000000 0.000000 0.000000 0.069602 0.000000 0.000000
# 5 0.000000 0.000000 0.000000 0.000000 0.069601 0.000000
# 6 0.000000 0.000000 0.000000 0.000000 0.000000 0.063981
#
#
# Mechanical properties :
#
#
# Convention : Reuss Voigt Hill
#
# Bulk Modulus (GPa) = 40.45410 42.55025 41.50218
# Shear Modulus (GPa) = -247.07639 15.18175 -115.94732
#
# Velocity S-wave (km/s) = -12.23441 3.03269 -8.38103
# Velocity P-wave (km/s) = 13.23128 6.16767 8.27728
#
# Compressibility (1/GPa) = 0.02471937
#
# Stress axis : x y z
#
# Youngs Moduli (GPa) = -17.57741 -17.57739 96.97591
#
# Poissons Ratio (x) = 1.22401 0.26863
# Poissons Ratio (y) = 1.22401 0.26863
# Poissons Ratio (z) = -0.04869 -0.04869
#
# Static dielectric constant tensor:
#      x y z
#    x 1.583920 0.000000 0.000000 
#    y 0.000000 1.583920 0.000000 
#    z 0.000000 0.000000 1.618400 
# 
# From -- ./inp_files/886.got.cif
#   From: 2010.05.17/outbox.cif.g08.bks.cpg/sg130_1_cif.got.tgz:886.got - 2010.05.20 12:17:35.
