data_PCOD9565502
_publ_section_title
;
Structure prediction by ZEFSAII (Michael W. Deem and Ramdas Pophale) SiO2 
 PCOD9565502
Probable space group: P 4/N M M
;
_chemical_formula_sum "Si O2"
_cell_formula_units_Z 52
_cell_length_a 14.782956
_cell_length_b 14.782956
_cell_length_c 13.203683
_cell_angle_alpha 90.000000
_cell_angle_beta 90.000000
_cell_angle_gamma 90.000000
_cell_volume 2885.477270
_symmetry_space_group_name_H-M "P 4/N M M"
_symmetry_group_IT_number 129
_symmetry_cell_setting 'tetragonal'
loop_
_space_group_symop_operation_xyz
x,y,z
1/2-y,x,z
1/2-x,1/2-y,z
y,1/2-x,z
1/2+x,-y,-z
-x,1/2+y,-z
1/2+y,1/2+x,-z
-y,-x,-z
-x,-y,-z
1/2+y,-x,-z
1/2+x,1/2+y,-z
-y,1/2+x,-z
1/2-x,y,z
x,1/2-y,z
1/2-y,1/2-x,z
y,x,z
loop_
_atom_site_type_symbol
_atom_site_label
_atom_site_fract_x
_atom_site_fract_y
_atom_site_fract_z
Si Si1 0.925498 0.424268 0.214338
Si Si2 0.250000 0.399459 0.502158
Si Si3 0.250000 0.250000 0.192892
Si Si4 0.574439 0.250000 0.642616
Si Si5 0.250000 0.046515 0.265951
Si Si6 0.857742 0.357742 0.000000
Si Si7 0.250000 0.750000 0.500000
O O1 0.838726 0.426230 0.287164
O O2 0.985996 0.514005 0.223303
O O3 0.987475 0.338670 0.244046
O O4 0.891994 0.408322 0.099841
O O5 0.162656 0.337345 0.522310
O O6 0.250000 0.487617 0.570314
O O7 0.250000 0.423840 0.383440
O O8 0.250000 0.138272 0.201475
O O9 0.662743 0.250000 0.572057
O O10 0.872075 0.250000 0.013025
#
# Coordination Sequence:
#
# PCOD9565502 Si02
#       7
#    16   8   2   8   8   8   2
#     4  12  24  41  66  95 126 167 210 264 323 380
#     4  11  21  40  64  90 125 172 210 253 309 369
#     4  12  20  44  60 100 128 158 224 260 312 376
#     4  12  25  42  59  94 131 168 215 256 313 379
#     4  12  22  38  68  93 124 167 211 261 311 367
#     4  11  23  42  68  94 125 161 208 264 328 384
#     4  12  28  40  60  90 136 172 204 280 308 362
#
# _framework density 18.021281999999999
#
# number of rings (size 3 to 8) (size 9 to 14) (size 15 to 20)
#    0.000    0.308    6.154    4.154    0.000    0.000 
#    0.000    4.615    0.000    0.000    0.000    0.000 
#    0.000    0.000    0.000    0.000    0.000    0.000 
#
# Total GULP energy -290367.668356 kJ/mol
# GULP energy per Si atom -5583.993622 kJ/mol
# Density = 1.798026 g / cm^3
# Si number density = 18.021282 Si / 1000 Ang^3
#
#
#
# Elastic Constant Matrix: (Units=GPa)
#
#
# Indices 1 2 3 4 5 6 
#
# 1 138.3303 65.2504 58.2218 0.0000 0.0000 0.0000
# 2 65.2504 138.3303 58.2218 0.0000 0.0000 0.0000
# 3 58.2218 58.2218 102.9319 0.0000 0.0000 0.0000
# 4 0.0000 0.0000 0.0000 15.1829 0.0000 0.0000
# 5 0.0000 0.0000 0.0000 0.0000 15.1829 0.0000
# 6 0.0000 0.0000 0.0000 0.0000 0.0000 22.1981
#
#
#
# Elastic Compliance Matrix: (Units=1/GPa)
#
#
# Indices 1 2 3 4 5 6 
#
# 1 0.010472 -0.003211 -0.004107 0.000000 0.000000 0.000000
# 2 -0.003211 0.010472 -0.004107 0.000000 0.000000 0.000000
# 3 -0.004107 -0.004107 0.014362 0.000000 0.000000 0.000000
# 4 0.000000 0.000000 0.000000 0.065864 0.000000 0.000000
# 5 0.000000 0.000000 0.000000 0.000000 0.065864 0.000000
# 6 0.000000 0.000000 0.000000 0.000000 0.000000 0.045049
#
#
# Mechanical properties :
#
#
# Convention : Reuss Voigt Hill
#
# Bulk Modulus (GPa) = 80.28777 82.55340 81.42058
# Shear Modulus (GPa) = 20.91299 23.70601 22.30950
#
# Velocity S-wave (km/s) = 3.41025 3.63084 3.52227
# Velocity P-wave (km/s) = 7.75595 7.96779 7.86258
#
# Compressibility (1/GPa) = 0.01245520
#
# Stress axis : x y z
#
# Youngs Moduli (GPa) = 95.48838 95.48838 69.63032
#
# Poissons Ratio (x) = 0.30663 0.28599
# Poissons Ratio (y) = 0.30663 0.28599
# Poissons Ratio (z) = 0.39219 0.39219
#
# Static dielectric constant tensor:
#      x y z
#    x 1.597270 0.000000 0.000000 
#    y 0.000000 1.597270 0.000000 
#    z 0.000000 0.000000 1.588930 
# 
# From -- ./inp_files/3314.got.cif
#   From: 2010.05.17/outbox.cif.g08.bks.cpg/sg129_2_cif.got.tgz:3314.got - 2010.05.20 12:12:06.
