data_PCOD9565662
_publ_section_title
;
Structure prediction by ZEFSAII (Michael W. Deem and Ramdas Pophale) SiO2 
 PCOD9565662
Probable space group: P 4/N C C
;
_chemical_formula_sum "Si O2"
_cell_formula_units_Z 96
_cell_length_a 15.148450
_cell_length_b 15.148450
_cell_length_c 20.688035
_cell_angle_alpha 90.000000
_cell_angle_beta 90.000000
_cell_angle_gamma 90.000000
_cell_volume 4747.397949
_symmetry_space_group_name_H-M "P 4/N C C"
_symmetry_group_IT_number 130
_symmetry_cell_setting 'tetragonal'
loop_
_space_group_symop_operation_xyz
x,y,z
1/2-y,x,z
1/2-x,1/2-y,z
y,1/2-x,z
1/2+x,-y,1/2-z
-x,1/2+y,1/2-z
1/2+y,1/2+x,1/2-z
-y,-x,1/2-z
-x,-y,-z
1/2+y,-x,-z
1/2+x,1/2+y,-z
-y,1/2+x,-z
1/2-x,y,1/2+z
x,1/2-y,1/2+z
1/2-y,1/2-x,1/2+z
y,x,1/2+z
loop_
_atom_site_type_symbol
_atom_site_label
_atom_site_fract_x
_atom_site_fract_y
_atom_site_fract_z
Si Si1 0.209500 0.887407 0.006651
Si Si2 0.673567 0.496584 0.871472
Si Si3 0.150015 0.143635 0.041275
Si Si4 0.281688 0.396308 0.252490
Si Si5 0.007023 0.575335 0.684544
Si Si6 0.020032 0.423046 0.946708
O O1 0.223746 0.944776 0.071692
O O2 0.301848 0.851457 0.980312
O O3 0.153557 0.948727 0.958662
O O4 0.615692 0.574304 0.906002
O O5 0.721406 0.549974 0.815050
O O6 0.607348 0.425617 0.840682
O O7 0.254741 0.131502 0.049752
O O8 0.116883 0.112547 0.971998
O O9 0.185946 0.350902 0.257667
O O10 0.328437 0.466658 0.300277
O O11 0.016250 0.516250 0.750000
O O12 0.952504 0.530929 0.626565
O O13 0.000000 0.500000 0.000000
#
# Coordination Sequence:
#
# PCOD9565662 Si02
#       6
#    16  16  16  16  16  16
#     4  10  23  39  61  92 124 165 215 273 325 378
#     4  10  20  37  62  84 125 165 214 254 316 397
#     4  10  21  34  57  92 124 155 201 266 324 382
#     4  10  22  39  61  91 128 170 213 266 334 395
#     4  10  22  38  56  87 118 160 208 255 309 377
#     4  11  22  37  62  87 121 164 214 258 326 391
#
# _framework density 20.221603999999999
#
# number of rings (size 3 to 8) (size 9 to 14) (size 15 to 20)
#    0.000    1.833    3.333    1.000    4.667    6.667 
#    0.000    1.667    0.000    0.000    0.000    9.333 
#    0.000    0.000    0.000    0.000    0.000    0.000 
#
# Total GULP energy -534571.211107 kJ/mol
# GULP energy per Si atom -5568.450116 kJ/mol
# Density = 2.017558 g / cm^3
# Si number density = 20.221604 Si / 1000 Ang^3
#
#
#
# Elastic Constant Matrix: (Units=GPa)
#
#
# Indices 1 2 3 4 5 6 
#
# 1 54.6191 26.3966 14.1982 0.0000 0.0000 0.0000
# 2 26.3966 54.6191 14.1982 0.0000 0.0000 0.0000
# 3 14.1982 14.1982 90.4282 0.0000 0.0000 0.0000
# 4 0.0000 0.0000 0.0000 12.7969 0.0000 0.0000
# 5 0.0000 0.0000 0.0000 0.0000 12.7969 0.0000
# 6 0.0000 0.0000 0.0000 0.0000 0.0000 24.3253
#
#
#
# Elastic Compliance Matrix: (Units=1/GPa)
#
#
# Indices 1 2 3 4 5 6 
#
# 1 0.024247 -0.011185 -0.002051 0.000000 0.000000 0.000000
# 2 -0.011185 0.024247 -0.002051 0.000000 0.000000 0.000000
# 3 -0.002051 -0.002051 0.011703 0.000000 0.000000 0.000000
# 4 0.000000 0.000000 0.000000 0.078144 0.000000 0.000000
# 5 0.000000 0.000000 0.000000 0.000000 0.078144 0.000000
# 6 0.000000 0.000000 0.000000 0.000000 0.000000 0.041109
#
#
# Mechanical properties :
#
#
# Convention : Reuss Voigt Hill
#
# Bulk Modulus (GPa) = 33.75731 34.36137 34.05934
# Shear Modulus (GPa) = 16.77609 19.64205 18.20907
#
# Velocity S-wave (km/s) = 2.88342 3.12001 3.00405
# Velocity P-wave (km/s) = 5.27403 5.47801 5.37699
#
# Compressibility (1/GPa) = 0.02962321
#
# Stress axis : x y z
#
# Youngs Moduli (GPa) = 41.24150 41.24150 85.45165
#
# Poissons Ratio (x) = 0.46130 0.17525
# Poissons Ratio (y) = 0.46130 0.17525
# Poissons Ratio (z) = 0.08458 0.08458
#
# Static dielectric constant tensor:
#      x y z
#    x 1.762450 0.000000 0.000000 
#    y 0.000000 1.762450 0.000000 
#    z 0.000000 0.000000 1.765380 
# 
# From -- ./inp_files/3768.got.cif
#   From: 2010.05.17/outbox.cif.g08.bks.cpg/sg130_2_cif.got.tgz:3768.got - 2010.05.20 12:17:35.
