data_PCOD9565573
_publ_section_title
;
Structure prediction by ZEFSAII (Michael W. Deem and Ramdas Pophale) SiO2 
 PCOD9565573
Probable space group: P 4/N C C
;
_chemical_formula_sum "Si O2"
_cell_formula_units_Z 72
_cell_length_a 19.746270
_cell_length_b 19.746270
_cell_length_c 8.322586
_cell_angle_alpha 90.000000
_cell_angle_beta 90.000000
_cell_angle_gamma 90.000000
_cell_volume 3245.102609
_symmetry_space_group_name_H-M "P 4/N C C"
_symmetry_group_IT_number 130
_symmetry_cell_setting 'tetragonal'
loop_
_space_group_symop_operation_xyz
x,y,z
1/2-y,x,z
1/2-x,1/2-y,z
y,1/2-x,z
1/2+x,-y,1/2-z
-x,1/2+y,1/2-z
1/2+y,1/2+x,1/2-z
-y,-x,1/2-z
-x,-y,-z
1/2+y,-x,-z
1/2+x,1/2+y,-z
-y,1/2+x,-z
1/2-x,y,1/2+z
x,1/2-y,1/2+z
1/2-y,1/2-x,1/2+z
y,x,1/2+z
loop_
_atom_site_type_symbol
_atom_site_label
_atom_site_fract_x
_atom_site_fract_y
_atom_site_fract_z
Si Si1 0.390206 0.700571 0.901291
Si Si2 0.193478 0.396758 0.970447
Si Si3 0.250000 0.750000 0.250000
Si Si4 0.063020 0.667541 0.054205
Si Si5 0.163749 0.433607 0.631190
Si Si6 0.250000 0.250000 0.380219
O O1 0.320409 0.740197 0.848230
O O2 0.370099 0.632504 0.993095
O O3 0.431632 0.674831 0.746185
O O4 0.431204 0.755251 0.996899
O O5 0.170561 0.443215 0.821900
O O6 0.260380 0.419002 0.064747
O O7 0.131817 0.381607 0.090409
O O8 0.213009 0.324499 0.889239
O O9 0.997409 0.637614 0.970564
#
# Coordination Sequence:
#
# PCOD9565573 Si02
#       6
#    16  16   4  16  16   4
#     4  10  19  32  54  80 110 138 176 224 273 320
#     4  10  20  33  54  79 107 138 175 222 271 321
#     4   8  16  30  52  82 108 134 172 226 284 318
#     4  10  20  34  54  80 110 142 176 220 270 322
#     4  11  21  35  55  81 110 141 178 221 271 319
#     4   8  16  30  48  74  96 118 160 218 272 302
#
# _framework density 22.187279
#
# number of rings (size 3 to 8) (size 9 to 14) (size 15 to 20)
#    0.000    2.222    0.000    6.667    0.000    4.444 
#    0.000    0.000    0.000   12.000    0.000    0.000 
#    0.000    0.000    0.000    0.000    0.000    0.000 
#
# Total GULP energy -400886.338516 kJ/mol
# GULP energy per Si atom -5567.865813 kJ/mol
# Density = 2.213678 g / cm^3
# Si number density = 22.187279 Si / 1000 Ang^3
#
#
#
# Elastic Constant Matrix: (Units=GPa)
#
#
# Indices 1 2 3 4 5 6 
#
# 1 31.9977 13.1455 -10.7198 0.0000 0.0000 0.0000
# 2 13.1455 31.9977 -10.7198 0.0000 0.0000 0.0000
# 3 -10.7198 -10.7198 37.0995 0.0000 0.0000 0.0000
# 4 0.0000 0.0000 0.0000 20.4847 0.0000 0.0000
# 5 0.0000 0.0000 0.0000 0.0000 20.4847 0.0000
# 6 0.0000 0.0000 0.0000 0.0000 0.0000 18.6550
#
#
#
# Elastic Compliance Matrix: (Units=1/GPa)
#
#
# Indices 1 2 3 4 5 6 
#
# 1 0.039360 -0.013685 0.007419 0.000000 0.000000 0.000000
# 2 -0.013685 0.039360 0.007419 0.000000 0.000000 0.000000
# 3 0.007419 0.007419 0.031242 0.000000 0.000000 0.000000
# 4 0.000000 0.000000 0.000000 0.048817 0.000000 0.000000
# 5 0.000000 0.000000 0.000000 0.000000 0.048817 0.000000
# 6 0.000000 0.000000 0.000000 0.000000 0.000000 0.053605
#
#
# Mechanical properties :
#
#
# Convention : Reuss Voigt Hill
#
# Bulk Modulus (GPa) = 8.90738 9.38967 9.14852
# Shear Modulus (GPa) = 16.87384 19.21747 18.04566
#
# Velocity S-wave (km/s) = 2.76074 2.94623 2.85499
# Velocity P-wave (km/s) = 3.76638 3.97680 3.87302
#
# Compressibility (1/GPa) = 0.11226647
#
# Stress axis : x y z
#
# Youngs Moduli (GPa) = 25.40672 25.40672 32.00847
#
# Poissons Ratio (x) = 0.34768 -0.23746
# Poissons Ratio (y) = 0.34768 -0.23746
# Poissons Ratio (z) = -0.18848 -0.18848
#
# Static dielectric constant tensor:
#      x y z
#    x 1.859160 0.000000 0.000000 
#    y 0.000000 1.859160 0.000000 
#    z 0.000000 0.000000 1.865710 
# 
# From -- ./inp_files/814.got.cif
#   From: 2010.05.17/outbox.cif.g08.bks.cpg/sg130_1_cif.got.tgz:814.got - 2010.05.20 12:17:35.
