data_PCOD9565893
_publ_section_title
;
Structure prediction by ZEFSAII (Michael W. Deem and Ramdas Pophale) SiO2 
 PCOD9565893
Probable space group: P 4/N C C
;
_chemical_formula_sum "Si O2"
_cell_formula_units_Z 96
_cell_length_a 16.169419
_cell_length_b 16.169419
_cell_length_c 19.278882
_cell_angle_alpha 90.000000
_cell_angle_beta 90.000000
_cell_angle_gamma 90.000000
_cell_volume 5040.465835
_symmetry_space_group_name_H-M "P 4/N C C"
_symmetry_group_IT_number 130
_symmetry_cell_setting 'tetragonal'
loop_
_space_group_symop_operation_xyz
x,y,z
1/2-y,x,z
1/2-x,1/2-y,z
y,1/2-x,z
1/2+x,-y,1/2-z
-x,1/2+y,1/2-z
1/2+y,1/2+x,1/2-z
-y,-x,1/2-z
-x,-y,-z
1/2+y,-x,-z
1/2+x,1/2+y,-z
-y,1/2+x,-z
1/2-x,y,1/2+z
x,1/2-y,1/2+z
1/2-y,1/2-x,1/2+z
y,x,1/2+z
loop_
_atom_site_type_symbol
_atom_site_label
_atom_site_fract_x
_atom_site_fract_y
_atom_site_fract_z
Si Si1 0.579475 0.009462 0.048845
Si Si2 0.165880 0.144024 0.384024
Si Si3 0.812045 0.364835 0.973698
Si Si4 0.863592 0.823601 0.282662
Si Si5 0.655969 0.284094 0.181062
Si Si6 0.879349 0.458104 0.317432
O O1 0.563539 0.069982 0.113854
O O2 0.610142 0.922573 0.078373
O O3 0.652144 0.052395 0.005325
O O4 0.500000 0.000000 0.000000
O O5 0.263082 0.137723 0.401605
O O6 0.164802 0.131246 0.300736
O O7 0.827973 0.361888 0.891571
O O8 0.854016 0.285316 0.010463
O O9 0.773931 0.860436 0.300740
O O10 0.944327 0.862600 0.315743
O O11 0.750000 0.250000 0.174423
O O12 0.659351 0.340650 0.250000
O O13 0.593316 0.206926 0.187446
O O14 0.931077 0.431077 0.250000
#
# Coordination Sequence:
#
# PCOD9565893 Si02
#       6
#    16  16  16  16  16  16
#     4  12  27  42  63  97 134 176 217 272 340 392
#     4   9  20  41  68  94 122 168 222 268 322 394
#     4  11  22  41  64  92 133 174 211 265 340 403
#     4   9  20  41  68  93 126 172 215 269 335 388
#     4  11  21  38  64  99 126 174 220 257 335 414
#     4  12  22  40  65  99 136 162 215 290 328 393
#
# _framework density 19.045859
#
# number of rings (size 3 to 8) (size 9 to 14) (size 15 to 20)
#    0.000    1.333    6.667    1.000    2.333    1.333 
#    3.000    1.667    0.000    2.000    0.000    0.000 
#    0.000    0.000    0.000    0.000    0.000    0.000 
#
# Total GULP energy -536162.103538 kJ/mol
# GULP energy per Si atom -5585.021912 kJ/mol
# Density = 1.900251 g / cm^3
# Si number density = 19.045859 Si / 1000 Ang^3
#
#
#
# Elastic Constant Matrix: (Units=GPa)
#
#
# Indices 1 2 3 4 5 6 
#
# 1 45.6777 33.6112 21.9891 0.0000 0.0000 0.0000
# 2 33.6112 45.6774 21.9889 0.0000 0.0000 0.0000
# 3 21.9891 21.9889 114.2085 0.0000 0.0000 0.0000
# 4 0.0000 0.0000 0.0000 20.9356 0.0000 0.0000
# 5 0.0000 0.0000 0.0000 0.0000 20.9358 0.0000
# 6 0.0000 0.0000 0.0000 0.0000 0.0000 22.1024
#
#
#
# Elastic Compliance Matrix: (Units=1/GPa)
#
#
# Indices 1 2 3 4 5 6 
#
# 1 0.048497 -0.034377 -0.002719 0.000000 0.000000 0.000000
# 2 -0.034377 0.048498 -0.002719 0.000000 0.000000 0.000000
# 3 -0.002719 -0.002719 0.009803 0.000000 0.000000 0.000000
# 4 0.000000 0.000000 0.000000 0.047766 0.000000 0.000000
# 5 0.000000 0.000000 0.000000 0.000000 0.047765 0.000000
# 6 0.000000 0.000000 0.000000 0.000000 0.000000 0.045244
#
#
# Mechanical properties :
#
#
# Convention : Reuss Voigt Hill
#
# Bulk Modulus (GPa) = 36.80739 40.08244 38.44492
# Shear Modulus (GPa) = 14.86954 21.32638 18.09796
#
# Velocity S-wave (km/s) = 2.79717 3.34988 3.08593
# Velocity P-wave (km/s) = 5.45892 6.00443 5.73816
#
# Compressibility (1/GPa) = 0.02716845
#
# Stress axis : x y z
#
# Youngs Moduli (GPa) = 20.61967 20.61956 102.01209
#
# Poissons Ratio (x) = 0.70885 0.27733
# Poissons Ratio (y) = 0.70885 0.27733
# Poissons Ratio (z) = 0.05606 0.05606
#
# Static dielectric constant tensor:
#      x y z
#    x 1.648530 0.000000 0.000000 
#    y 0.000000 1.648530 0.000000 
#    z 0.000000 0.000000 1.670120 
# 
# From -- ./inp_files/3769.got.cif
#   From: 2010.05.17/outbox.cif.g08.bks.cpg/sg130_2_cif.got.tgz:3769.got - 2010.05.20 12:17:35.
