data_PCOD9565427
_publ_section_title
;
Structure prediction by ZEFSAII (Michael W. Deem and Ramdas Pophale) SiO2 
 PCOD9565427
Probable space group: P 4/N M M
;
_chemical_formula_sum "Si O2"
_cell_formula_units_Z 128
_cell_length_a 23.665647
_cell_length_b 23.665647
_cell_length_c 13.224240
_cell_angle_alpha 90.000000
_cell_angle_beta 90.000000
_cell_angle_gamma 90.000000
_cell_volume 7406.405516
_symmetry_space_group_name_H-M "P 4/N M M"
_symmetry_group_IT_number 129
_symmetry_cell_setting 'tetragonal'
loop_
_space_group_symop_operation_xyz
x,y,z
1/2-y,x,z
1/2-x,1/2-y,z
y,1/2-x,z
1/2+x,-y,-z
-x,1/2+y,-z
1/2+y,1/2+x,-z
-y,-x,-z
-x,-y,-z
1/2+y,-x,-z
1/2+x,1/2+y,-z
-y,1/2+x,-z
1/2-x,y,z
x,1/2-y,z
1/2-y,1/2-x,z
y,x,z
loop_
_atom_site_type_symbol
_atom_site_label
_atom_site_fract_x
_atom_site_fract_y
_atom_site_fract_z
Si Si1 0.604274 0.104266 0.747405
Si Si2 0.092127 0.183439 0.400412
Si Si3 0.184522 0.684353 0.378335
Si Si4 0.879031 0.187567 0.069974
Si Si5 0.973313 0.879000 0.776674
Si Si6 0.683910 0.992994 0.989668
Si Si7 0.092721 0.316692 0.626615
Si Si8 0.526240 0.619654 0.197386
O O1 0.637129 0.141759 0.664140
O O2 0.639585 0.119379 0.846978
O O3 0.538470 0.115447 0.766655
O O4 0.609882 0.036706 0.738329
O O5 0.097740 0.250000 0.391515
O O6 0.151963 0.151963 0.394335
O O7 0.055388 0.159072 0.309468
O O8 0.068830 0.170766 0.513646
O O9 0.182889 0.682889 0.500000
O O10 0.250000 0.670173 0.349264
O O11 0.174062 0.750000 0.346772
O O12 0.876521 0.250000 0.114499
O O13 0.938468 0.183411 0.010595
O O14 0.826216 0.173784 0.000000
O O15 0.935736 0.935736 0.786928
O O16 0.975506 0.846853 0.884874
O O17 0.750000 0.975444 0.990000
O O18 0.650610 0.971927 0.088458
O O19 0.095946 0.250000 0.638230
O O20 0.153806 0.346195 0.629581
O O21 0.057345 0.343992 0.716568
O O22 0.559975 0.559975 0.190519
#
# Coordination Sequence:
#
# PCOD9565427 Si02
#       8
#    16  16  16  16  16  16  16  16
#     4  11  22  36  55  80 106 144 187 226 271 328
#     4   9  18  34  55  80 110 140 175 221 273 330
#     4   9  20  39  60  83 111 144 188 240 288 336
#     4  10  20  35  51  74 104 134 172 220 269 319
#     4  10  21  36  55  80 111 148 189 230 274 325
#     4  10  20  35  56  79 106 141 184 228 272 327
#     4   9  19  35  55  80 108 139 175 219 273 331
#     4  11  22  36  55  79 111 148 186 228 275 327
#
# _framework density 17.282337999999999
#
# number of rings (size 3 to 8) (size 9 to 14) (size 15 to 20)
#    0.000    2.125    1.250    2.250    0.000    4.375 
#    0.000    5.625    0.000    3.750    0.000    0.000 
#    0.000    9.000    0.000    0.000    0.000    0.000 
#
# Total GULP energy -713226.902229 kJ/mol
# GULP energy per Si atom -5572.085174 kJ/mol
# Density = 1.724300 g / cm^3
# Si number density = 17.282338 Si / 1000 Ang^3
#
#
#
# Elastic Constant Matrix: (Units=GPa)
#
#
# Indices 1 2 3 4 5 6 
#
# 1 112.7298 60.1792 62.4543 0.0000 0.0000 0.0000
# 2 60.1792 112.7299 62.4533 0.0000 0.0000 0.0000
# 3 62.4543 62.4533 100.7793 0.0000 0.0000 0.0000
# 4 0.0000 0.0000 0.0000 22.7942 0.0000 0.0000
# 5 0.0000 0.0000 0.0000 0.0000 22.7949 0.0000
# 6 0.0000 0.0000 0.0000 0.0000 0.0000 15.5080
#
#
#
# Elastic Compliance Matrix: (Units=1/GPa)
#
#
# Indices 1 2 3 4 5 6 
#
# 1 0.014750 -0.004279 -0.006489 0.000000 0.000000 0.000000
# 2 -0.004279 0.014750 -0.006489 0.000000 0.000000 0.000000
# 3 -0.006489 -0.006489 0.017965 0.000000 0.000000 0.000000
# 4 0.000000 0.000000 0.000000 0.043871 0.000000 0.000000
# 5 0.000000 0.000000 0.000000 0.000000 0.043869 0.000000
# 6 0.000000 0.000000 0.000000 0.000000 0.000000 0.064483
#
#
# Mechanical properties :
#
#
# Convention : Reuss Voigt Hill
#
# Bulk Modulus (GPa) = 77.21226 77.37916 77.29571
# Shear Modulus (GPa) = 20.96265 21.62957 21.29611
#
# Velocity S-wave (km/s) = 3.48652 3.54155 3.51415
# Velocity P-wave (km/s) = 7.80908 7.84820 7.82866
#
# Compressibility (1/GPa) = 0.01295131
#
# Stress axis : x y z
#
# Youngs Moduli (GPa) = 67.79561 67.79680 55.66334
#
# Poissons Ratio (x) = 0.29011 0.36120
# Poissons Ratio (y) = 0.29011 0.36119
# Poissons Ratio (z) = 0.43993 0.43992
#
# Static dielectric constant tensor:
#      x y z
#    x 1.576250 0.000000 0.000000 
#    y 0.000000 1.576250 0.000000 
#    z 0.000000 0.000000 1.595790 
# 
# From -- ./inp_files/4224.got.cif
#   From: 2010.05.17/outbox.cif.g08.bks.cpg/sg129_3_cif.got.tgz:4224.got - 2010.05.20 12:12:06.
