data_PCOD9565047
_publ_section_title
;
Structure prediction by ZEFSAII (Michael W. Deem and Ramdas Pophale) SiO2 
 PCOD9565047
Probable space group: P 4/M N C
;
_chemical_formula_sum "Si O2"
_cell_formula_units_Z 88
_cell_length_a 14.317201
_cell_length_b 14.317201
_cell_length_c 20.656479
_cell_angle_alpha 90.000000
_cell_angle_beta 90.000000
_cell_angle_gamma 90.000000
_cell_volume 4234.211428
_symmetry_space_group_name_H-M "P 4/M N C"
_symmetry_group_IT_number 128
_symmetry_cell_setting 'tetragonal'
loop_
_space_group_symop_operation_xyz
x,y,z
-y,x,z
-x,-y,z
y,-x,z
1/2+x,1/2-y,1/2-z
1/2-x,1/2+y,1/2-z
1/2+y,1/2+x,1/2-z
1/2-y,1/2-x,1/2-z
-x,-y,-z
y,-x,-z
x,y,-z
-y,x,-z
1/2-x,1/2+y,1/2+z
1/2+x,1/2-y,1/2+z
1/2-y,1/2-x,1/2+z
1/2+y,1/2+x,1/2+z
loop_
_atom_site_type_symbol
_atom_site_label
_atom_site_fract_x
_atom_site_fract_y
_atom_site_fract_z
Si Si1 0.747301 0.916060 0.370392
Si Si2 0.086733 0.869656 0.249716
Si Si3 0.524519 0.654802 0.000000
Si Si4 0.404507 0.940125 0.677463
Si Si5 0.429322 0.776550 0.426164
Si Si6 0.635625 0.725989 0.381556
O O1 0.829988 0.891583 0.320572
O O2 0.785708 0.961635 0.435541
O O3 0.689809 0.823280 0.386588
O O4 0.679884 0.989295 0.334878
O O5 0.126128 0.803821 0.193591
O O6 0.974527 0.875423 0.242316
O O7 0.425470 0.603359 0.000000
O O8 0.400034 0.900034 0.750000
O O9 0.406690 0.858486 0.624641
O O10 0.500000 0.000000 0.672237
O O11 0.425817 0.811064 0.500000
O O12 0.532528 0.738486 0.410369
O O13 0.354547 0.694377 0.416366
#
# Coordination Sequence:
#
# PCOD9565047 Si02
#       6
#    16  16   8  16  16  16
#     4  12  27  43  76 105 145 188 245 303 371 451
#     4  11  24  45  70 102 141 190 242 301 363 433
#     4  11  28  52  73 106 150 193 244 311 381 450
#     4  11  26  47  71 106 149 187 235 302 375 438
#     4  12  28  47  74 102 146 189 243 302 365 440
#     4  12  26  47  69 106 140 191 246 299 361 433
#
# _framework density 20.783090000000001
#
# number of rings (size 3 to 8) (size 9 to 14) (size 15 to 20)
#    0.000    0.455    3.636    3.273   11.455    2.182 
#    0.000    0.909    0.000    0.000    0.000    0.000 
#    0.000    0.000    0.000    0.000    0.000    0.000 
#
# Total GULP energy -493101.502809 kJ/mol
# GULP energy per Si atom -5603.426168 kJ/mol
# Density = 2.073579 g / cm^3
# Si number density = 20.783090 Si / 1000 Ang^3
#
#
#
# Elastic Constant Matrix: (Units=GPa)
#
#
# Indices 1 2 3 4 5 6 
#
# 1 42.7959 37.3444 2.6646 0.0000 0.0000 0.0000
# 2 37.3444 42.7959 2.6646 0.0000 0.0000 0.0000
# 3 2.6646 2.6646 121.5898 0.0000 0.0000 0.0000
# 4 0.0000 0.0000 0.0000 109.9520 0.0000 0.0000
# 5 0.0000 0.0000 0.0000 0.0000 109.9520 0.0000
# 6 0.0000 0.0000 0.0000 0.0000 0.0000 7.3784
#
#
#
# Elastic Compliance Matrix: (Units=1/GPa)
#
#
# Indices 1 2 3 4 5 6 
#
# 1 0.097966 -0.085469 -0.000274 0.000000 0.000000 0.000000
# 2 -0.085469 0.097966 -0.000274 0.000000 0.000000 0.000000
# 3 -0.000274 -0.000274 0.008236 0.000000 0.000000 0.000000
# 4 0.000000 0.000000 0.000000 0.009095 0.000000 0.000000
# 5 0.000000 0.000000 0.000000 0.000000 0.009095 0.000000
# 6 0.000000 0.000000 0.000000 0.000000 0.000000 0.135532
#
#
# Mechanical properties :
#
#
# Convention : Reuss Voigt Hill
#
# Bulk Modulus (GPa) = 31.12008 32.50322 31.81165
# Shear Modulus (GPa) = 9.24839 56.42367 32.83603
#
# Velocity S-wave (km/s) = 2.11178 5.21611 3.97916
# Velocity P-wave (km/s) = 4.57738 7.20765 6.03749
#
# Compressibility (1/GPa) = 0.03213359
#
# Stress axis : x y z
#
# Youngs Moduli (GPa) = 10.20764 10.20764 121.41259
#
# Poissons Ratio (x) = 0.87244 0.03325
# Poissons Ratio (y) = 0.87244 0.03325
# Poissons Ratio (z) = 0.00280 0.00280
#
# Static dielectric constant tensor:
#      x y z
#    x 1.725480 0.000000 0.000000 
#    y 0.000000 1.725480 0.000000 
#    z 0.000000 0.000000 1.711840 
# 
# From -- ./inp_files/5672.got.cif
#   From: 2010.05.17/outbox.cif.g08.bks.cpg/sg128_3_cif.got.tgz:5672.got - 2010.05.20 12:07:25.
