data_PCOD9565913
_publ_section_title
;
Structure prediction by ZEFSAII (Michael W. Deem and Ramdas Pophale) SiO2 
 PCOD9565913
Probable space group: P 4/N C C
;
_chemical_formula_sum "Si O2"
_cell_formula_units_Z 64
_cell_length_a 17.394386
_cell_length_b 17.394386
_cell_length_c 9.296719
_cell_angle_alpha 90.000000
_cell_angle_beta 90.000000
_cell_angle_gamma 90.000000
_cell_volume 2812.858663
_symmetry_space_group_name_H-M "P 4/N C C"
_symmetry_group_IT_number 130
_symmetry_cell_setting 'tetragonal'
loop_
_space_group_symop_operation_xyz
x,y,z
1/2-y,x,z
1/2-x,1/2-y,z
y,1/2-x,z
1/2+x,-y,1/2-z
-x,1/2+y,1/2-z
1/2+y,1/2+x,1/2-z
-y,-x,1/2-z
-x,-y,-z
1/2+y,-x,-z
1/2+x,1/2+y,-z
-y,1/2+x,-z
1/2-x,y,1/2+z
x,1/2-y,1/2+z
1/2-y,1/2-x,1/2+z
y,x,1/2+z
loop_
_atom_site_type_symbol
_atom_site_label
_atom_site_fract_x
_atom_site_fract_y
_atom_site_fract_z
Si Si1 0.586598 0.593044 0.210504
Si Si2 0.143891 0.318815 0.539038
Si Si3 0.562564 0.170350 0.832258
Si Si4 0.560036 0.171466 0.171632
O O1 0.659541 0.626376 0.297728
O O2 0.607883 0.505532 0.182632
O O3 0.582761 0.638739 0.060944
O O4 0.511849 0.613872 0.302573
O O5 0.147017 0.228651 0.511363
O O6 0.635906 0.135906 0.750000
O O7 0.540786 0.248759 0.750662
O O8 0.573971 0.183021 0.002305
O O9 0.632466 0.132466 0.250000
#
# Coordination Sequence:
#
# PCOD9565913 Si02
#       4
#    16  16  16  16
#     4  12  25  41  72 104 144 189 242 300 361 426
#     4  11  22  38  61  98 144 194 243 295 354 426
#     4  12  28  49  77 108 147 191 244 302 364 434
#     4  12  28  49  77 108 147 191 244 302 364 434
#
# _framework density 22.752652999999999
#
# number of rings (size 3 to 8) (size 9 to 14) (size 15 to 20)
#    0.000    0.250    2.500    6.750    7.000    4.500 
#    0.000    2.500    0.000    0.000    0.000    0.000 
#    0.000    0.000    0.000    0.000    0.000    0.000 
#
# Total GULP energy -358412.274456 kJ/mol
# GULP energy per Si atom -5600.191788 kJ/mol
# Density = 2.270087 g / cm^3
# Si number density = 22.752653 Si / 1000 Ang^3
#
#
#
# Elastic Constant Matrix: (Units=GPa)
#
#
# Indices 1 2 3 4 5 6 
#
# 1 57.1007 22.1399 36.9571 0.0000 0.0000 0.0000
# 2 22.1399 57.1007 36.9571 0.0000 0.0000 0.0000
# 3 36.9571 36.9571 174.1903 0.0000 0.0000 0.0000
# 4 0.0000 0.0000 0.0000 24.7587 0.0000 0.0000
# 5 0.0000 0.0000 0.0000 0.0000 24.7587 0.0000
# 6 0.0000 0.0000 0.0000 0.0000 0.0000 32.7531
#
#
#
# Elastic Compliance Matrix: (Units=1/GPa)
#
#
# Indices 1 2 3 4 5 6 
#
# 1 0.022169 -0.006435 -0.003338 0.000000 0.000000 0.000000
# 2 -0.006435 0.022169 -0.003338 0.000000 0.000000 0.000000
# 3 -0.003338 -0.003338 0.007157 0.000000 0.000000 0.000000
# 4 0.000000 0.000000 0.000000 0.040390 0.000000 0.000000
# 5 0.000000 0.000000 0.000000 0.000000 0.040390 0.000000
# 6 0.000000 0.000000 0.000000 0.000000 0.000000 0.030531
#
#
# Mechanical properties :
#
#
# Convention : Reuss Voigt Hill
#
# Bulk Modulus (GPa) = 39.56956 53.38885 46.47921
# Shear Modulus (GPa) = 25.32263 29.27660 27.29962
#
# Velocity S-wave (km/s) = 3.33971 3.59100 3.46763
# Velocity P-wave (km/s) = 5.68336 6.38040 6.04194
#
# Compressibility (1/GPa) = 0.02527195
#
# Stress axis : x y z
#
# Youngs Moduli (GPa) = 45.10905 45.10905 139.71741
#
# Poissons Ratio (x) = 0.29028 0.46639
# Poissons Ratio (y) = 0.29028 0.46639
# Poissons Ratio (z) = 0.15058 0.15058
#
# Static dielectric constant tensor:
#      x y z
#    x 1.841720 0.000000 0.000000 
#    y 0.000000 1.841720 0.000000 
#    z 0.000000 0.000000 1.808450 
# 
# From -- ./inp_files/751.got.cif
#   From: 2010.05.17/outbox.cif.g08.bks.cpg/sg130_1_cif.got.tgz:751.got - 2010.05.20 12:17:35.
