data_PCOD9565061
_publ_section_title
;
Structure prediction by ZEFSAII (Michael W. Deem and Ramdas Pophale) SiO2 
 PCOD9565061
Probable space group: P 4/M N C
;
_chemical_formula_sum "Si O2"
_cell_formula_units_Z 72
_cell_length_a 10.384416
_cell_length_b 10.384416
_cell_length_c 29.933241
_cell_angle_alpha 90.000000
_cell_angle_beta 90.000000
_cell_angle_gamma 90.000000
_cell_volume 3227.883840
_symmetry_space_group_name_H-M "P 4/M N C"
_symmetry_group_IT_number 128
_symmetry_cell_setting 'tetragonal'
loop_
_space_group_symop_operation_xyz
x,y,z
-y,x,z
-x,-y,z
y,-x,z
1/2+x,1/2-y,1/2-z
1/2-x,1/2+y,1/2-z
1/2+y,1/2+x,1/2-z
1/2-y,1/2-x,1/2-z
-x,-y,-z
y,-x,-z
x,y,-z
-y,x,-z
1/2-x,1/2+y,1/2+z
1/2+x,1/2-y,1/2+z
1/2-y,1/2-x,1/2+z
1/2+y,1/2+x,1/2+z
loop_
_atom_site_type_symbol
_atom_site_label
_atom_site_fract_x
_atom_site_fract_y
_atom_site_fract_z
Si Si1 0.284086 0.518967 0.352763
Si Si2 0.718298 0.507381 0.158082
Si Si3 0.718458 0.496748 0.744073
Si Si4 0.614164 0.919880 0.421330
Si Si5 0.804712 0.904272 0.500000
O O1 0.365778 0.388193 0.354282
O O2 0.215950 0.514029 0.304050
O O3 0.192385 0.545667 0.393692
O O4 0.620337 0.627783 0.155097
O O5 0.781886 0.503726 0.207360
O O6 0.814472 0.503660 0.116943
O O7 0.625319 0.621547 0.744159
O O8 0.720430 0.874449 0.456397
O O9 0.500000 0.000000 0.443955
O O10 0.942239 0.834320 0.500000
#
# Coordination Sequence:
#
# PCOD9565061 Si02
#       5
#    16  16  16  16   8
#     4   9  20  39  62  89 129 179 213 244 300 374
#     4   9  18  35  62  91 124 171 221 268 309 355
#     4   7  12  29  56  85 121 170 222 255 291 352
#     4  12  26  40  65  97 130 156 202 266 324 377
#     4  11  27  52  78  95 116 154 200 263 335 396
#
# _framework density 22.305634999999999
#
# number of rings (size 3 to 8) (size 9 to 14) (size 15 to 20)
#    0.000    2.556    0.000    4.333    6.222    2.667 
#    0.000    2.222    0.000    1.333    0.000    0.000 
#    0.000    0.000    0.000    0.000    0.000    0.000 
#
# Total GULP energy -402172.957652 kJ/mol
# GULP energy per Si atom -5585.735523 kJ/mol
# Density = 2.225487 g / cm^3
# Si number density = 22.305635 Si / 1000 Ang^3
#
#
#
# Elastic Constant Matrix: (Units=GPa)
#
#
# Indices 1 2 3 4 5 6 
#
# 1 41.2354 38.8325 20.6693 0.0000 0.0000 0.0000
# 2 38.8325 41.2354 20.6693 0.0000 0.0000 0.0000
# 3 20.6693 20.6693 131.0803 0.0000 0.0000 0.0000
# 4 0.0000 0.0000 0.0000 43.5423 0.0000 0.0000
# 5 0.0000 0.0000 0.0000 0.0000 43.5423 0.0000
# 6 0.0000 0.0000 0.0000 0.0000 0.0000 71.7037
#
#
#
# Elastic Compliance Matrix: (Units=1/GPa)
#
#
# Indices 1 2 3 4 5 6 
#
# 1 0.214873 -0.201277 -0.002144 0.000000 0.000000 0.000000
# 2 -0.201277 0.214873 -0.002144 0.000000 0.000000 0.000000
# 3 -0.002144 -0.002144 0.008305 0.000000 0.000000 0.000000
# 4 0.000000 0.000000 0.000000 0.022966 0.000000 0.000000
# 5 0.000000 0.000000 0.000000 0.000000 0.022966 0.000000
# 6 0.000000 0.000000 0.000000 0.000000 0.000000 0.013946
#
#
# Mechanical properties :
#
#
# Convention : Reuss Voigt Hill
#
# Bulk Modulus (GPa) = 37.14443 41.54371 39.34407
# Shear Modulus (GPa) = 5.44643 40.64965 23.04804
#
# Velocity S-wave (km/s) = 1.56430 4.27358 3.21796
# Velocity P-wave (km/s) = 4.46669 6.55870 5.61105
#
# Compressibility (1/GPa) = 0.02692194
#
# Stress axis : x y z
#
# Youngs Moduli (GPa) = 4.65391 4.65391 120.40880
#
# Poissons Ratio (x) = 0.93672 0.25815
# Poissons Ratio (y) = 0.93672 0.25815
# Poissons Ratio (z) = 0.00998 0.00998
#
# Static dielectric constant tensor:
#      x y z
#    x 1.858620 0.000000 0.000000 
#    y 0.000000 1.858620 0.000000 
#    z 0.000000 0.000000 1.802130 
# 
# From -- ./inp_files/6763.got.cif
#   From: 2010.05.17/outbox.cif.g08.bks.cpg/sg128_4_cif.got.tgz:6763.got - 2010.05.20 12:07:25.
