data_PCOD9565590
_publ_section_title
;
Structure prediction by ZEFSAII (Michael W. Deem and Ramdas Pophale) SiO2 
 PCOD9565590
Probable space group: P 4/N C C
;
_chemical_formula_sum "Si O2"
_cell_formula_units_Z 88
_cell_length_a 14.389209
_cell_length_b 14.389209
_cell_length_c 19.905813
_cell_angle_alpha 90.000000
_cell_angle_beta 90.000000
_cell_angle_gamma 90.000000
_cell_volume 4121.485357
_symmetry_space_group_name_H-M "P 4/N C C"
_symmetry_group_IT_number 130
_symmetry_cell_setting 'tetragonal'
loop_
_space_group_symop_operation_xyz
x,y,z
1/2-y,x,z
1/2-x,1/2-y,z
y,1/2-x,z
1/2+x,-y,1/2-z
-x,1/2+y,1/2-z
1/2+y,1/2+x,1/2-z
-y,-x,1/2-z
-x,-y,-z
1/2+y,-x,-z
1/2+x,1/2+y,-z
-y,1/2+x,-z
1/2-x,y,1/2+z
x,1/2-y,1/2+z
1/2-y,1/2-x,1/2+z
y,x,1/2+z
loop_
_atom_site_type_symbol
_atom_site_label
_atom_site_fract_x
_atom_site_fract_y
_atom_site_fract_z
Si Si1 0.584078 0.471766 0.894232
Si Si2 0.953657 0.453657 0.250000
Si Si3 0.848010 0.863264 0.709248
Si Si4 0.366977 0.160647 0.588057
Si Si5 0.835068 0.935998 0.560889
Si Si6 0.774061 0.098989 0.000218
O O1 0.594635 0.428229 0.820431
O O2 0.565321 0.581197 0.887091
O O3 0.497549 0.427524 0.932479
O O4 0.673732 0.450594 0.939015
O O5 0.920607 0.559361 0.234570
O O6 0.740322 0.877258 0.730573
O O7 0.836918 0.875783 0.628268
O O8 0.373642 0.265660 0.610351
O O9 0.377376 0.163417 0.507160
O O10 0.756288 0.017204 0.551816
O O11 0.680223 0.153965 0.978011
#
# Coordination Sequence:
#
# PCOD9565590 Si02
#       6
#    16   8  16  16  16  16
#     4  10  21  38  58  85 121 162 205 266 309 385
#     4  10  24  44  64  90 126 178 234 258 320 400
#     4  10  22  42  67  91 127 176 219 275 332 398
#     4  11  21  33  53  89 125 154 194 250 317 378
#     4  10  19  36  61  92 122 155 203 260 333 395
#     4   9  18  35  60  89 122 159 199 263 339 388
#
# _framework density 21.351524000000001
#
# number of rings (size 3 to 8) (size 9 to 14) (size 15 to 20)
#    0.000    2.000    1.818    1.636    0.000    2.909 
#    3.273    1.818    0.000   19.091    0.000    0.000 
#    0.000    0.000    0.000    0.000    0.000    0.000 
#
# Total GULP energy -490460.827266 kJ/mol
# GULP energy per Si atom -5573.418492 kJ/mol
# Density = 2.130293 g / cm^3
# Si number density = 21.351524 Si / 1000 Ang^3
#
#
#
# Elastic Constant Matrix: (Units=GPa)
#
#
# Indices 1 2 3 4 5 6 
#
# 1 93.9967 34.9257 1.4386 0.0000 0.0000 0.0000
# 2 34.9257 93.9967 1.4386 0.0000 0.0000 0.0000
# 3 1.4386 1.4386 87.2107 0.0000 0.0000 0.0000
# 4 0.0000 0.0000 0.0000 13.1338 0.0000 0.0000
# 5 0.0000 0.0000 0.0000 0.0000 13.1338 0.0000
# 6 0.0000 0.0000 0.0000 0.0000 0.0000 17.0602
#
#
#
# Elastic Compliance Matrix: (Units=1/GPa)
#
#
# Indices 1 2 3 4 5 6 
#
# 1 0.012344 -0.004585 -0.000128 0.000000 0.000000 0.000000
# 2 -0.004585 0.012344 -0.000128 0.000000 0.000000 0.000000
# 3 -0.000128 -0.000128 0.011471 0.000000 0.000000 0.000000
# 4 0.000000 0.000000 0.000000 0.076140 0.000000 0.000000
# 5 0.000000 0.000000 0.000000 0.000000 0.076140 0.000000
# 6 0.000000 0.000000 0.000000 0.000000 0.000000 0.058616
#
#
# Mechanical properties :
#
#
# Convention : Reuss Voigt Hill
#
# Bulk Modulus (GPa) = 37.76773 38.97889 38.37331
# Shear Modulus (GPa) = 18.82803 24.49228 21.66016
#
# Velocity S-wave (km/s) = 2.97275 3.39056 3.18851
# Velocity P-wave (km/s) = 5.43231 5.79856 5.61842
#
# Compressibility (1/GPa) = 0.02647763
#
# Stress axis : x y z
#
# Youngs Moduli (GPa) = 81.01021 81.01021 87.17857
#
# Poissons Ratio (x) = 0.37140 0.01116
# Poissons Ratio (y) = 0.37140 0.01116
# Poissons Ratio (z) = 0.01037 0.01037
#
# Static dielectric constant tensor:
#      x y z
#    x 1.796750 0.000000 0.000000 
#    y 0.000000 1.796750 0.000000 
#    z 0.000000 0.000000 1.820230 
# 
# From -- ./inp_files/3710.got.cif
#   From: 2010.05.17/outbox.cif.g08.bks.cpg/sg130_2_cif.got.tgz:3710.got - 2010.05.20 12:17:35.
