data_PCOD9565166
_publ_section_title
;
Structure prediction by ZEFSAII (Michael W. Deem and Ramdas Pophale) SiO2 
 PCOD9565166
Probable space group: P 4/N M M
;
_chemical_formula_sum "Si O2"
_cell_formula_units_Z 128
_cell_length_a 24.572788
_cell_length_b 24.572788
_cell_length_c 12.601817
_cell_angle_alpha 90.000000
_cell_angle_beta 90.000000
_cell_angle_gamma 90.000000
_cell_volume 7609.253212
_symmetry_space_group_name_H-M "P 4/N M M"
_symmetry_group_IT_number 129
_symmetry_cell_setting 'tetragonal'
loop_
_space_group_symop_operation_xyz
x,y,z
1/2-y,x,z
1/2-x,1/2-y,z
y,1/2-x,z
1/2+x,-y,-z
-x,1/2+y,-z
1/2+y,1/2+x,-z
-y,-x,-z
-x,-y,-z
1/2+y,-x,-z
1/2+x,1/2+y,-z
-y,1/2+x,-z
1/2-x,y,z
x,1/2-y,z
1/2-y,1/2-x,z
y,x,z
loop_
_atom_site_type_symbol
_atom_site_label
_atom_site_fract_x
_atom_site_fract_y
_atom_site_fract_z
Si Si1 0.135402 0.045297 0.515638
Si Si2 0.909484 0.000241 0.282790
Si Si3 0.404636 0.311849 0.323147
Si Si4 0.685933 0.369088 0.096508
Si Si5 0.027247 0.613533 0.044358
Si Si6 0.897154 0.188382 0.241633
Si Si7 0.061157 0.891574 0.601056
Si Si8 0.487590 0.187563 0.127116
O O1 0.097337 0.097337 0.528665
O O2 0.137694 0.018481 0.633363
O O3 0.183197 0.065553 0.438117
O O4 0.106076 0.999722 0.443244
O O5 0.959796 0.959796 0.303029
O O6 0.896665 0.000293 0.158480
O O7 0.927584 0.061009 0.314608
O O8 0.384467 0.250000 0.310214
O O9 0.356886 0.356886 0.317563
O O10 0.448548 0.321998 0.228670
O O11 0.750000 0.372949 0.113485
O O12 0.659195 0.426400 0.064622
O O13 0.651662 0.347639 0.196541
O O14 0.671930 0.328070 0.000000
O O15 0.060476 0.560476 0.000000
O O16 0.985518 0.640124 0.960471
O O17 0.878793 0.250000 0.249959
O O18 0.922148 0.165131 0.348890
O O19 0.949411 0.185845 0.164350
O O20 0.098005 0.901996 0.500000
O O21 0.477010 0.250000 0.089658
#
# Coordination Sequence:
#
# PCOD9565166 Si02
#       8
#    16  16  16  16  16  16  16  16
#     4   9  18  32  53  78 104 136 175 213 252 310
#     4  10  20  33  50  75 108 142 175 212 262 319
#     4  10  21  37  60  87 112 140 177 220 271 332
#     4  11  21  34  51  71  94 129 177 231 280 319
#     4  11  20  33  50  75 112 143 181 227 273 321
#     4  11  20  33  51  71  98 132 174 224 270 320
#     4  10  18  32  51  72 100 130 170 216 261 309
#     4  10  19  34  54  75 104 142 178 217 266 323
#
# _framework density 16.821625000000001
#
# number of rings (size 3 to 8) (size 9 to 14) (size 15 to 20)
#    0.000    1.750    5.000    1.125    0.000    3.250 
#    0.000    1.875    0.000    0.000    0.000    0.000 
#    0.000    0.000    0.000    3.750    0.000    0.000 
#
# Total GULP energy -712821.422955 kJ/mol
# GULP energy per Si atom -5568.917367 kJ/mol
# Density = 1.678334 g / cm^3
# Si number density = 16.821625 Si / 1000 Ang^3
#
#
#
# Elastic Constant Matrix: (Units=GPa)
#
#
# Indices 1 2 3 4 5 6 
#
# 1 44.6983 13.2157 17.3923 0.0000 0.0000 0.0000
# 2 13.2157 44.6992 17.3926 0.0000 0.0000 0.0000
# 3 17.3923 17.3926 72.4003 0.0000 0.0000 0.0000
# 4 0.0000 0.0000 0.0000 19.7836 0.0000 0.0000
# 5 0.0000 0.0000 0.0000 0.0000 19.7838 0.0000
# 6 0.0000 0.0000 0.0000 0.0000 0.0000 14.3393
#
#
#
# Elastic Compliance Matrix: (Units=1/GPa)
#
#
# Indices 1 2 3 4 5 6 
#
# 1 0.025971 -0.005792 -0.004847 0.000000 0.000000 0.000000
# 2 -0.005792 0.025970 -0.004847 0.000000 0.000000 0.000000
# 3 -0.004847 -0.004847 0.016141 0.000000 0.000000 0.000000
# 4 0.000000 0.000000 0.000000 0.050547 0.000000 0.000000
# 5 0.000000 0.000000 0.000000 0.000000 0.050547 0.000000
# 6 0.000000 0.000000 0.000000 0.000000 0.000000 0.069738
#
#
# Mechanical properties :
#
#
# Convention : Reuss Voigt Hill
#
# Bulk Modulus (GPa) = 26.94824 28.64434 27.79629
# Shear Modulus (GPa) = 17.71429 18.36781 18.04105
#
# Velocity S-wave (km/s) = 3.24862 3.30800 3.27844
# Velocity P-wave (km/s) = 5.48873 5.62634 5.55796
#
# Compressibility (1/GPa) = 0.03710818
#
# Stress axis : x y z
#
# Youngs Moduli (GPa) = 38.50457 38.50524 61.95396
#
# Poissons Ratio (x) = 0.22304 0.30031
# Poissons Ratio (y) = 0.22304 0.30031
# Poissons Ratio (z) = 0.18664 0.18665
#
# Static dielectric constant tensor:
#      x y z
#    x 1.573950 0.000000 0.000000 
#    y 0.000000 1.573950 0.000000 
#    z 0.000000 0.000000 1.615680 
# 
# From -- ./inp_files/4234.got.cif
#   From: 2010.05.17/outbox.cif.g08.bks.cpg/sg129_3_cif.got.tgz:4234.got - 2010.05.20 12:12:06.
