data_PCOD9565665
_publ_section_title
;
Structure prediction by ZEFSAII (Michael W. Deem and Ramdas Pophale) SiO2 
 PCOD9565665
Probable space group: P 4/N C C
;
_chemical_formula_sum "Si O2"
_cell_formula_units_Z 60
_cell_length_a 19.093639
_cell_length_b 19.093639
_cell_length_c 7.657087
_cell_angle_alpha 90.000000
_cell_angle_beta 90.000000
_cell_angle_gamma 90.000000
_cell_volume 2791.521621
_symmetry_space_group_name_H-M "P 4/N C C"
_symmetry_group_IT_number 130
_symmetry_cell_setting 'tetragonal'
loop_
_space_group_symop_operation_xyz
x,y,z
1/2-y,x,z
1/2-x,1/2-y,z
y,1/2-x,z
1/2+x,-y,1/2-z
-x,1/2+y,1/2-z
1/2+y,1/2+x,1/2-z
-y,-x,1/2-z
-x,-y,-z
1/2+y,-x,-z
1/2+x,1/2+y,-z
-y,1/2+x,-z
1/2-x,y,1/2+z
x,1/2-y,1/2+z
1/2-y,1/2-x,1/2+z
y,x,1/2+z
loop_
_atom_site_type_symbol
_atom_site_label
_atom_site_fract_x
_atom_site_fract_y
_atom_site_fract_z
Si Si1 0.689002 0.104414 0.613486
Si Si2 0.326983 0.392562 0.392603
Si Si3 0.451455 0.307224 0.237263
Si Si4 0.250000 0.250000 0.495157
Si Si5 0.832379 0.332379 0.250000
O O1 0.632394 0.132394 0.750000
O O2 0.666608 0.114165 0.412671
O O3 0.758386 0.151193 0.653906
O O4 0.699587 0.024135 0.663974
O O5 0.400476 0.365554 0.321270
O O6 0.269526 0.415594 0.250956
O O7 0.329109 0.453780 0.535274
O O8 0.294219 0.323484 0.483709
#
# Coordination Sequence:
#
# PCOD9565665 Si02
#       5
#    16  16  16   4   8
#     4  12  26  45  71 105 134 176 226 289 351 411
#     4  10  20  37  64  94 135 177 225 280 329 397
#     4  11  23  41  66  98 137 178 229 278 341 404
#     4   8  16  30  56  98 116 166 232 274 316 362
#     4  12  25  44  76 102 134 164 230 298 350 397
#
# _framework density 21.493655
#
# number of rings (size 3 to 8) (size 9 to 14) (size 15 to 20)
#    0.000    1.067    2.667    5.200    0.000    4.267 
#    0.000    1.333    2.933    0.000    0.000    0.000 
#    0.000    0.000    0.000    0.000    0.000    0.000 
#
# Total GULP energy -334033.655127 kJ/mol
# GULP energy per Si atom -5567.227585 kJ/mol
# Density = 2.144473 g / cm^3
# Si number density = 21.493655 Si / 1000 Ang^3
#
#
#
# Elastic Constant Matrix: (Units=GPa)
#
#
# Indices 1 2 3 4 5 6 
#
# 1 58.2981 48.1622 5.6489 0.0000 0.0000 0.0000
# 2 48.1622 58.2981 5.6489 0.0000 0.0000 0.0000
# 3 5.6489 5.6489 78.8238 0.0000 0.0000 0.0000
# 4 0.0000 0.0000 0.0000 17.1722 0.0000 0.0000
# 5 0.0000 0.0000 0.0000 0.0000 17.1722 0.0000
# 6 0.0000 0.0000 0.0000 0.0000 0.0000 13.8694
#
#
#
# Elastic Compliance Matrix: (Units=1/GPa)
#
#
# Indices 1 2 3 4 5 6 
#
# 1 0.054062 -0.044597 -0.000678 0.000000 0.000000 0.000000
# 2 -0.044597 0.054062 -0.000678 0.000000 0.000000 0.000000
# 3 -0.000678 -0.000678 0.012784 0.000000 0.000000 0.000000
# 4 0.000000 0.000000 0.000000 0.058234 0.000000 0.000000
# 5 0.000000 0.000000 0.000000 0.000000 0.058234 0.000000
# 6 0.000000 0.000000 0.000000 0.000000 0.000000 0.072101
#
#
# Mechanical properties :
#
#
# Convention : Reuss Voigt Hill
#
# Bulk Modulus (GPa) = 34.48180 34.92664 34.70422
# Shear Modulus (GPa) = 12.16396 18.70677 15.43536
#
# Velocity S-wave (km/s) = 2.38151 2.95335 2.68271
# Velocity P-wave (km/s) = 4.86207 5.28344 5.07713
#
# Compressibility (1/GPa) = 0.02900081
#
# Stress axis : x y z
#
# Youngs Moduli (GPa) = 18.49726 18.49726 78.22429
#
# Poissons Ratio (x) = 0.82492 0.05306
# Poissons Ratio (y) = 0.82492 0.05306
# Poissons Ratio (z) = 0.01255 0.01255
#
# Static dielectric constant tensor:
#      x y z
#    x 1.780570 0.000000 0.000000 
#    y 0.000000 1.780570 0.000000 
#    z 0.000000 0.000000 1.890350 
# 
# From -- ./inp_files/625.got.cif
#   From: 2010.05.17/outbox.cif.g08.bks.cpg/sg130_1_cif.got.tgz:625.got - 2010.05.20 12:17:35.
