data_PCOD9565342
_publ_section_title
;
Structure prediction by ZEFSAII (Michael W. Deem and Ramdas Pophale) SiO2 
 PCOD9565342
Probable space group: P 4/N M M
;
_chemical_formula_sum "Si O2"
_cell_formula_units_Z 96
_cell_length_a 13.917376
_cell_length_b 13.917376
_cell_length_c 31.647465
_cell_angle_alpha 90.000000
_cell_angle_beta 90.000000
_cell_angle_gamma 90.000000
_cell_volume 6129.903664
_symmetry_space_group_name_H-M "P 4/N M M"
_symmetry_group_IT_number 129
_symmetry_cell_setting 'tetragonal'
loop_
_space_group_symop_operation_xyz
x,y,z
1/2-y,x,z
1/2-x,1/2-y,z
y,1/2-x,z
1/2+x,-y,-z
-x,1/2+y,-z
1/2+y,1/2+x,-z
-y,-x,-z
-x,-y,-z
1/2+y,-x,-z
1/2+x,1/2+y,-z
-y,1/2+x,-z
1/2-x,y,z
x,1/2-y,z
1/2-y,1/2-x,z
y,x,z
loop_
_atom_site_type_symbol
_atom_site_label
_atom_site_fract_x
_atom_site_fract_y
_atom_site_fract_z
Si Si1 0.133482 0.860254 0.046617
Si Si2 0.363136 0.520255 0.369996
Si Si3 0.134769 0.977404 0.130427
Si Si4 0.634902 0.477348 0.202239
Si Si5 0.364628 0.639099 0.713404
Si Si6 0.523218 0.136639 0.465344
O O1 0.250000 0.856240 0.044943
O O2 0.099957 0.750000 0.053376
O O3 0.109037 0.928316 0.085527
O O4 0.104089 0.895912 0.000000
O O5 0.250000 0.501044 0.367172
O O6 0.423700 0.423700 0.366259
O O7 0.389462 0.588207 0.330974
O O8 0.380706 0.559970 0.417299
O O9 0.250000 0.987410 0.133292
O O10 0.077394 0.077394 0.134449
O O11 0.094113 0.906812 0.166611
O O12 0.750000 0.487322 0.198591
O O13 0.577054 0.577054 0.198120
O O14 0.611286 0.429505 0.247576
O O15 0.250000 0.637794 0.708649
O O16 0.392868 0.750000 0.722942
O O17 0.596441 0.096441 0.500000
O O18 0.506717 0.250000 0.470396
O O19 0.425655 0.074346 0.469727
#
# Coordination Sequence:
#
# PCOD9565342 Si02
#       6
#    16  16  16  16  16  16
#     4   8  14  26  45  68  92 117 148 189 232 270
#     4   9  17  29  45  65  90 118 147 181 220 263
#     4  10  20  32  47  68  93 123 158 193 230 272
#     4  10  20  33  50  71  93 119 151 187 229 274
#     4   9  17  29  46  68  92 118 149 183 218 259
#     4   9  18  31  46  66  91 119 152 189 229 272
#
# _framework density 15.660932000000001
#
# number of rings (size 3 to 8) (size 9 to 14) (size 15 to 20)
#    0.000    2.833    0.000    2.000    0.000    3.500 
#    0.000    3.333    0.000    0.000    0.000    2.333 
#    0.000    8.000    0.000    0.000    0.000    0.000 
#
# Total GULP energy -534513.965277 kJ/mol
# GULP energy per Si atom -5567.853805 kJ/mol
# Density = 1.562529 g / cm^3
# Si number density = 15.660932 Si / 1000 Ang^3
#
#
#
# Elastic Constant Matrix: (Units=GPa)
#
#
# Indices 1 2 3 4 5 6 
#
# 1 67.2198 45.5076 55.7336 0.0000 0.0000 0.0000
# 2 45.5076 67.2196 55.7336 0.0000 0.0000 0.0000
# 3 55.7336 55.7336 132.7986 0.0000 0.0000 0.0000
# 4 0.0000 0.0000 0.0000 22.7457 0.0000 0.0000
# 5 0.0000 0.0000 0.0000 0.0000 22.7458 0.0000
# 6 0.0000 0.0000 0.0000 0.0000 0.0000 12.9788
#
#
#
# Elastic Compliance Matrix: (Units=1/GPa)
#
#
# Indices 1 2 3 4 5 6 
#
# 1 0.030611 -0.015447 -0.006364 0.000000 0.000000 0.000000
# 2 -0.015447 0.030611 -0.006364 0.000000 0.000000 0.000000
# 3 -0.006364 -0.006364 0.012872 0.000000 0.000000 0.000000
# 4 0.000000 0.000000 0.000000 0.043964 0.000000 0.000000
# 5 0.000000 0.000000 0.000000 0.000000 0.043964 0.000000
# 6 0.000000 0.000000 0.000000 0.000000 0.000000 0.077049
#
#
# Mechanical properties :
#
#
# Convention : Reuss Voigt Hill
#
# Bulk Modulus (GPa) = 56.35854 64.57642 60.46748
# Shear Modulus (GPa) = 16.59286 19.04495 17.81890
#
# Velocity S-wave (km/s) = 3.25854 3.49102 3.37678
# Velocity P-wave (km/s) = 7.08677 7.58770 7.34151
#
# Compressibility (1/GPa) = 0.01774354
#
# Stress axis : x y z
#
# Youngs Moduli (GPa) = 32.66847 32.66835 77.68795
#
# Poissons Ratio (x) = 0.50462 0.49441
# Poissons Ratio (y) = 0.50462 0.49441
# Poissons Ratio (z) = 0.20790 0.20790
#
# Static dielectric constant tensor:
#      x y z
#    x 1.503920 0.000000 0.000000 
#    y 0.000000 1.503920 0.000000 
#    z 0.000000 0.000000 1.543970 
# 
# From -- ./inp_files/7824.got.cif
#   From: 2010.05.17/outbox.cif.g08.bks.cpg/sg129_4_cif.got.tgz:7824.got - 2010.05.20 12:12:06.
