data_PCOD9565753
_publ_section_title
;
Structure prediction by ZEFSAII (Michael W. Deem and Ramdas Pophale) SiO2 
 PCOD9565753
Probable space group: P 4/N C C
;
_chemical_formula_sum "Si O2"
_cell_formula_units_Z 64
_cell_length_a 14.357122
_cell_length_b 14.357122
_cell_length_c 13.435192
_cell_angle_alpha 90.000000
_cell_angle_beta 90.000000
_cell_angle_gamma 90.000000
_cell_volume 2769.355178
_symmetry_space_group_name_H-M "P 4/N C C"
_symmetry_group_IT_number 130
_symmetry_cell_setting 'tetragonal'
loop_
_space_group_symop_operation_xyz
x,y,z
1/2-y,x,z
1/2-x,1/2-y,z
y,1/2-x,z
1/2+x,-y,1/2-z
-x,1/2+y,1/2-z
1/2+y,1/2+x,1/2-z
-y,-x,1/2-z
-x,-y,-z
1/2+y,-x,-z
1/2+x,1/2+y,-z
-y,1/2+x,-z
1/2-x,y,1/2+z
x,1/2-y,1/2+z
1/2-y,1/2-x,1/2+z
y,x,1/2+z
loop_
_atom_site_type_symbol
_atom_site_label
_atom_site_fract_x
_atom_site_fract_y
_atom_site_fract_z
Si Si1 0.913198 0.481713 0.644859
Si Si2 0.701970 0.451626 0.448839
Si Si3 0.104492 0.905381 0.369589
Si Si4 0.604672 0.804320 0.284399
O O1 0.938207 0.438207 0.750000
O O2 0.893252 0.390758 0.580498
O O3 0.834645 0.553430 0.682026
O O4 0.008605 0.532867 0.610718
O O5 0.800708 0.419603 0.405578
O O6 0.693356 0.442594 0.567990
O O7 0.682623 0.547265 0.387546
O O8 0.106201 0.893800 0.250000
O O9 0.633328 0.696918 0.284861
#
# Coordination Sequence:
#
# PCOD9565753 Si02
#       4
#    16  16  16  16
#     4   9  20  40  67 100 138 180 224 285 350 409
#     4  11  23  42  68  99 139 189 238 288 349 419
#     4  11  25  45  69 100 140 187 237 292 355 418
#     4  10  21  41  72 109 143 181 234 292 351 416
#
# _framework density 23.110074000000001
#
# number of rings (size 3 to 8) (size 9 to 14) (size 15 to 20)
#    0.000    1.750    0.000    5.250    0.000    8.500 
#    0.000    3.750    0.000   10.500    0.000    0.000 
#    0.000    0.000    0.000    0.000    0.000    0.000 
#
# Total GULP energy -356283.690398 kJ/mol
# GULP energy per Si atom -5566.932662 kJ/mol
# Density = 2.305747 g / cm^3
# Si number density = 23.110074 Si / 1000 Ang^3
#
#
#
# Elastic Constant Matrix: (Units=GPa)
#
#
# Indices 1 2 3 4 5 6 
#
# 1 129.8343 80.7690 76.8785 0.0000 0.0000 0.0000
# 2 80.7690 129.8354 76.8788 0.0000 0.0000 0.0000
# 3 76.8785 76.8788 137.1997 0.0000 0.0000 0.0000
# 4 0.0000 0.0000 0.0000 42.3387 0.0000 0.0000
# 5 0.0000 0.0000 0.0000 0.0000 42.3384 0.0000
# 6 0.0000 0.0000 0.0000 0.0000 0.0000 0.3801
#
#
#
# Elastic Compliance Matrix: (Units=1/GPa)
#
#
# Indices 1 2 3 4 5 6 
#
# 1 0.014208 -0.006173 -0.004503 0.000000 0.000000 0.000000
# 2 -0.006173 0.014208 -0.004503 0.000000 0.000000 0.000000
# 3 -0.004503 -0.004503 0.012335 0.000000 0.000000 0.000000
# 4 0.000000 0.000000 0.000000 0.023619 0.000000 0.000000
# 5 0.000000 0.000000 0.000000 0.000000 0.023619 0.000000
# 6 0.000000 0.000000 0.000000 0.000000 0.000000 2.630547
#
#
# Mechanical properties :
#
#
# Convention : Reuss Voigt Hill
#
# Bulk Modulus (GPa) = 96.19842 96.21354 96.20598
# Shear Modulus (GPa) = 1.81662 27.83433 14.82548
#
# Velocity S-wave (km/s) = 0.88757 3.47425 2.53556
# Velocity P-wave (km/s) = 6.53964 7.60375 7.09168
#
# Compressibility (1/GPa) = 0.01039518
#
# Stress axis : x y z
#
# Youngs Moduli (GPa) = 70.38179 70.38248 81.07227
#
# Poissons Ratio (x) = 0.43444 0.36504
# Poissons Ratio (y) = 0.43444 0.36504
# Poissons Ratio (z) = 0.31691 0.31691
#
# Static dielectric constant tensor:
#      x y z
#    x 1.998350 0.000000 0.000000 
#    y 0.000000 1.998360 0.000000 
#    z 0.000000 0.000000 2.044020 
# 
# From -- ./inp_files/2182.got.cif
#   From: 2010.05.17/outbox.cif.g08.bks.cpg/sg130_2_cif.got.tgz:2182.got - 2010.05.20 12:17:35.
