data_PCOD9565871
_publ_section_title
;
Structure prediction by ZEFSAII (Michael W. Deem and Ramdas Pophale) SiO2 
 PCOD9565871
Probable space group: P 4/N C C
;
_chemical_formula_sum "Si O2"
_cell_formula_units_Z 112
_cell_length_a 14.902969
_cell_length_b 14.902969
_cell_length_c 28.295327
_cell_angle_alpha 90.000000
_cell_angle_beta 90.000000
_cell_angle_gamma 90.000000
_cell_volume 6284.349260
_symmetry_space_group_name_H-M "P 4/N C C"
_symmetry_group_IT_number 130
_symmetry_cell_setting 'tetragonal'
loop_
_space_group_symop_operation_xyz
x,y,z
1/2-y,x,z
1/2-x,1/2-y,z
y,1/2-x,z
1/2+x,-y,1/2-z
-x,1/2+y,1/2-z
1/2+y,1/2+x,1/2-z
-y,-x,1/2-z
-x,-y,-z
1/2+y,-x,-z
1/2+x,1/2+y,-z
-y,1/2+x,-z
1/2-x,y,1/2+z
x,1/2-y,1/2+z
1/2-y,1/2-x,1/2+z
y,x,1/2+z
loop_
_atom_site_type_symbol
_atom_site_label
_atom_site_fract_x
_atom_site_fract_y
_atom_site_fract_z
Si Si1 0.549119 0.254527 0.354338
Si Si2 0.578261 0.971117 0.790014
Si Si3 0.608221 0.798296 0.213888
Si Si4 0.868590 0.430687 0.346022
Si Si5 0.893485 0.287529 0.054719
Si Si6 0.796536 0.394148 0.549167
Si Si7 0.812059 0.138996 0.303954
O O1 0.476034 0.301079 0.321215
O O2 0.554876 0.146812 0.348935
O O3 0.537734 0.286836 0.407832
O O4 0.649158 0.285132 0.338284
O O5 0.663704 0.926904 0.763764
O O6 0.520961 0.907887 0.823803
O O7 0.510143 0.010143 0.750000
O O8 0.622159 0.056185 0.814894
O O9 0.641429 0.696449 0.207652
O O10 0.826319 0.439444 0.398497
O O11 0.788193 0.393806 0.312897
O O12 0.797201 0.338267 0.050624
O O13 0.872102 0.181516 0.058448
O O14 0.935205 0.305224 0.003062
O O15 0.829377 0.170624 0.250000
#
# Coordination Sequence:
#
# PCOD9565871 Si02
#       7
#    16  16  16  16  16  16  16
#     4  11  20  34  55  83 110 143 186 234 284 329
#     4  11  22  37  50  75 108 147 183 228 276 325
#     4  11  23  40  56  72 106 155 196 221 266 341
#     4  11  22  33  58  81 112 144 192 234 285 330
#     4   8  14  28  48  82 111 151 180 222 290 351
#     4   8  14  27  51  77 117 144 181 227 286 350
#     4  11  22  35  48  79 116 145 180 231 283 333
#
# _framework density 17.822051999999999
#
# number of rings (size 3 to 8) (size 9 to 14) (size 15 to 20)
#    0.000    1.857    4.286    3.000    2.000    0.571 
#    0.000    0.000    0.000    2.571    0.000    0.000 
#    0.000    2.286    0.000    0.000    0.000    0.000 
#
# Total GULP energy -623989.755455 kJ/mol
# GULP energy per Si atom -5571.337102 kJ/mol
# Density = 1.778149 g / cm^3
# Si number density = 17.822052 Si / 1000 Ang^3
#
#
#
# Elastic Constant Matrix: (Units=GPa)
#
#
# Indices 1 2 3 4 5 6 
#
# 1 64.7115 35.2664 34.5632 0.0000 0.0000 0.0000
# 2 35.2664 64.7115 34.5632 0.0000 0.0000 0.0000
# 3 34.5632 34.5632 112.0859 0.0000 0.0000 0.0000
# 4 0.0000 0.0000 0.0000 17.4217 0.0000 0.0000
# 5 0.0000 0.0000 0.0000 0.0000 17.4219 0.0000
# 6 0.0000 0.0000 0.0000 0.0000 0.0000 26.5689
#
#
#
# Elastic Compliance Matrix: (Units=1/GPa)
#
#
# Indices 1 2 3 4 5 6 
#
# 1 0.023337 -0.010624 -0.003920 0.000000 0.000000 0.000000
# 2 -0.010624 0.023337 -0.003920 0.000000 0.000000 0.000000
# 3 -0.003920 -0.003920 0.011339 0.000000 0.000000 0.000000
# 4 0.000000 0.000000 0.000000 0.057400 0.000000 0.000000
# 5 0.000000 0.000000 0.000000 0.000000 0.057399 0.000000
# 6 0.000000 0.000000 0.000000 0.000000 0.000000 0.037638
#
#
# Mechanical properties :
#
#
# Convention : Reuss Voigt Hill
#
# Bulk Modulus (GPa) = 47.42888 50.03272 48.73080
# Shear Modulus (GPa) = 19.65349 21.42356 20.53852
#
# Velocity S-wave (km/s) = 3.32439 3.47087 3.39842
# Velocity P-wave (km/s) = 6.43472 6.64808 6.54227
#
# Compressibility (1/GPa) = 0.02108420
#
# Stress axis : x y z
#
# Youngs Moduli (GPa) = 42.85022 42.85023 88.18824
#
# Poissons Ratio (x) = 0.45526 0.34571
# Poissons Ratio (y) = 0.45526 0.34571
# Poissons Ratio (z) = 0.16798 0.16798
#
# Static dielectric constant tensor:
#      x y z
#    x 1.651180 0.000000 0.000000 
#    y 0.000000 1.651180 0.000000 
#    z 0.000000 0.000000 1.655950 
# 
# From -- ./inp_files/4980.got.cif
#   From: 2010.05.17/outbox.cif.g08.bks.cpg/sg130_3_cif.got.tgz:4980.got - 2010.05.20 12:17:35.
