data_PCOD9565333
_publ_section_title
;
Structure prediction by ZEFSAII (Michael W. Deem and Ramdas Pophale) SiO2 
 PCOD9565333
Probable space group: P 4/N M M
;
_chemical_formula_sum "Si O2"
_cell_formula_units_Z 72
_cell_length_a 25.014267
_cell_length_b 25.014267
_cell_length_c 7.562598
_cell_angle_alpha 90.000000
_cell_angle_beta 90.000000
_cell_angle_gamma 90.000000
_cell_volume 4732.020069
_symmetry_space_group_name_H-M "P 4/N M M"
_symmetry_group_IT_number 129
_symmetry_cell_setting 'tetragonal'
loop_
_space_group_symop_operation_xyz
x,y,z
1/2-y,x,z
1/2-x,1/2-y,z
y,1/2-x,z
1/2+x,-y,-z
-x,1/2+y,-z
1/2+y,1/2+x,-z
-y,-x,-z
-x,-y,-z
1/2+y,-x,-z
1/2+x,1/2+y,-z
-y,1/2+x,-z
1/2-x,y,z
x,1/2-y,z
1/2-y,1/2-x,z
y,x,z
loop_
_atom_site_type_symbol
_atom_site_label
_atom_site_fract_x
_atom_site_fract_y
_atom_site_fract_z
Si Si1 0.075804 0.511335 0.145860
Si Si2 0.456655 0.810135 0.932925
Si Si3 0.691319 0.164261 0.802014
Si Si4 0.808872 0.079840 0.341673
Si Si5 0.075580 0.575580 0.500000
O O1 0.139434 0.507846 0.119670
O O2 0.063753 0.538418 0.333564
O O3 0.043655 0.456346 0.127011
O O4 0.052270 0.552270 0.000000
O O5 0.476187 0.750000 0.894166
O O6 0.399294 0.816972 0.834799
O O7 0.444413 0.812681 0.143322
O O8 0.750000 0.173435 0.728416
O O9 0.643423 0.187530 0.689623
O O10 0.687905 0.187905 0.000000
O O11 0.750000 0.066033 0.415491
O O12 0.862208 0.066184 0.448128
#
# Coordination Sequence:
#
# PCOD9565333 Si02
#       5
#    16  16  16  16   8
#     4  11  21  35  54  75  95 122 160 205 245 288
#     4   9  16  32  52  68  90 126 158 196 248 293
#     4   9  15  25  42  60  84 119 163 208 246 276
#     4  10  20  30  44  65  93 126 168 206 238 282
#     4  12  21  34  48  67 100 122 166 202 251 290
#
# _framework density 15.215490000000001
#
# number of rings (size 3 to 8) (size 9 to 14) (size 15 to 20)
#    0.000    2.000    4.444    3.000    0.000    3.333 
#    0.000    0.000    0.000    0.000    0.000    0.000 
#    0.000    0.444    0.000    0.000    0.000    3.333 
#
# Total GULP energy -401999.360998 kJ/mol
# GULP energy per Si atom -5583.324458 kJ/mol
# Density = 1.518086 g / cm^3
# Si number density = 15.215490 Si / 1000 Ang^3
#
#
#
# Elastic Constant Matrix: (Units=GPa)
#
#
# Indices 1 2 3 4 5 6 
#
# 1 67.9645 39.5909 11.6399 0.0000 0.0000 0.0000
# 2 39.5909 67.9645 11.6399 0.0000 0.0000 0.0000
# 3 11.6399 11.6399 52.6283 0.0000 0.0000 0.0000
# 4 0.0000 0.0000 0.0000 8.1311 0.0000 0.0000
# 5 0.0000 0.0000 0.0000 0.0000 8.1311 0.0000
# 6 0.0000 0.0000 0.0000 0.0000 0.0000 19.8718
#
#
#
# Elastic Compliance Matrix: (Units=1/GPa)
#
#
# Indices 1 2 3 4 5 6 
#
# 1 0.022504 -0.012739 -0.002160 0.000000 0.000000 0.000000
# 2 -0.012739 0.022504 -0.002160 0.000000 0.000000 0.000000
# 3 -0.002160 -0.002160 0.019957 0.000000 0.000000 0.000000
# 4 0.000000 0.000000 0.000000 0.122985 0.000000 0.000000
# 5 0.000000 0.000000 0.000000 0.000000 0.122985 0.000000
# 6 0.000000 0.000000 0.000000 0.000000 0.000000 0.050323
#
#
# Mechanical properties :
#
#
# Convention : Reuss Voigt Hill
#
# Bulk Modulus (GPa) = 32.41747 34.92207 33.66977
# Shear Modulus (GPa) = 12.32566 15.60591 13.96579
#
# Velocity S-wave (km/s) = 2.84927 3.20607 3.03292
# Velocity P-wave (km/s) = 5.67241 6.05860 5.86868
#
# Compressibility (1/GPa) = 0.03084757
#
# Stress axis : x y z
#
# Youngs Moduli (GPa) = 44.43563 44.43563 50.10887
#
# Poissons Ratio (x) = 0.56609 0.10822
# Poissons Ratio (y) = 0.56609 0.10822
# Poissons Ratio (z) = 0.09597 0.09597
#
# Static dielectric constant tensor:
#      x y z
#    x 1.506570 0.000000 0.000000 
#    y 0.000000 1.506570 0.000000 
#    z 0.000000 0.000000 1.562230 
# 
# From -- ./inp_files/2437.got.cif
#   From: 2010.05.17/outbox.cif.g08.bks.cpg/sg129_2_cif.got.tgz:2437.got - 2010.05.20 12:12:06.
