data_PCOD9565430
_publ_section_title
;
Structure prediction by ZEFSAII (Michael W. Deem and Ramdas Pophale) SiO2 
 PCOD9565430
Probable space group: P 4/N M M
;
_chemical_formula_sum "Si O2"
_cell_formula_units_Z 128
_cell_length_a 17.590147
_cell_length_b 17.590147
_cell_length_c 24.547721
_cell_angle_alpha 90.000000
_cell_angle_beta 90.000000
_cell_angle_gamma 90.000000
_cell_volume 7595.390662
_symmetry_space_group_name_H-M "P 4/N M M"
_symmetry_group_IT_number 129
_symmetry_cell_setting 'tetragonal'
loop_
_space_group_symop_operation_xyz
x,y,z
1/2-y,x,z
1/2-x,1/2-y,z
y,1/2-x,z
1/2+x,-y,-z
-x,1/2+y,-z
1/2+y,1/2+x,-z
-y,-x,-z
-x,-y,-z
1/2+y,-x,-z
1/2+x,1/2+y,-z
-y,1/2+x,-z
1/2-x,y,z
x,1/2-y,z
1/2-y,1/2-x,z
y,x,z
loop_
_atom_site_type_symbol
_atom_site_label
_atom_site_fract_x
_atom_site_fract_y
_atom_site_fract_z
Si Si1 0.836282 0.959189 0.760412
Si Si2 0.464670 0.161415 0.409571
Si Si3 0.548503 0.418034 0.629869
Si Si4 0.425513 0.555626 0.938684
Si Si5 0.086973 0.543310 0.749104
Si Si6 0.468411 0.338084 0.851374
Si Si7 0.164934 0.043907 0.109065
Si Si8 0.536020 0.661972 0.462312
O O1 0.750000 0.956123 0.739060
O O2 0.892359 0.892359 0.738862
O O3 0.832135 0.948415 0.825746
O O4 0.878415 0.039802 0.753624
O O5 0.451647 0.250000 0.399099
O O6 0.390399 0.109602 0.399119
O O7 0.535301 0.126327 0.376910
O O8 0.483593 0.151668 0.473996
O O9 0.484016 0.484016 0.628685
O O10 0.542153 0.378414 0.688532
O O11 0.529408 0.365261 0.578735
O O12 0.487862 0.487862 0.941079
O O13 0.357019 0.518725 0.904977
O O14 0.466098 0.622293 0.904949
O O15 0.414928 0.585073 0.000000
O O16 0.140894 0.520891 0.798964
O O17 0.021064 0.478937 0.751177
O O18 0.445979 0.250000 0.849863
O O19 0.396212 0.396212 0.850783
O O20 0.250000 0.046504 0.087173
O O21 0.112321 0.112321 0.087451
O O22 0.553635 0.750000 0.453472
O O23 0.609175 0.609175 0.451796
#
# Coordination Sequence:
#
# PCOD9565430 Si02
#       8
#    16  16  16  16  16  16  16  16
#     4   9  16  27  45  68  95 125 155 191 234 279
#     4   9  17  29  46  70  99 129 161 199 244 293
#     4   9  17  29  47  68  91 125 169 208 239 278
#     4   9  17  31  51  72  96 131 172 203 231 280
#     4   9  17  31  49  68  93 129 170 204 236 284
#     4  10  20  35  55  79 105 131 162 202 249 298
#     4   9  16  27  45  69  97 126 156 191 232 277
#     4   9  17  29  46  69  97 126 157 197 245 295
#
# _framework density 16.852325
#
# number of rings (size 3 to 8) (size 9 to 14) (size 15 to 20)
#    0.000    2.875    1.250    0.375    0.000    3.625 
#    0.000    2.500    0.000    1.875    0.000   14.875 
#    0.000    0.000    0.000    0.000    0.000    0.000 
#
# Total GULP energy -712571.296195 kJ/mol
# GULP energy per Si atom -5566.963252 kJ/mol
# Density = 1.681397 g / cm^3
# Si number density = 16.852325 Si / 1000 Ang^3
#
#
#
# Elastic Constant Matrix: (Units=GPa)
#
#
# Indices 1 2 3 4 5 6 
#
# 1 43.6351 52.9204 28.7851 0.0000 0.0000 0.0000
# 2 52.9204 43.6350 28.7851 0.0000 0.0000 0.0000
# 3 28.7851 28.7851 84.0244 0.0000 0.0000 0.0000
# 4 0.0000 0.0000 0.0000 7.3176 0.0000 0.0000
# 5 0.0000 0.0000 0.0000 0.0000 7.3176 0.0000
# 6 0.0000 0.0000 0.0000 0.0000 0.0000 12.3436
#
#
#
# Elastic Compliance Matrix: (Units=1/GPa)
#
#
# Indices 1 2 3 4 5 6 
#
# 1 -0.047340 0.060356 -0.004459 0.000000 0.000000 0.000000
# 2 0.060356 -0.047341 -0.004459 0.000000 0.000000 0.000000
# 3 -0.004459 -0.004459 0.014956 0.000000 0.000000 0.000000
# 4 0.000000 0.000000 0.000000 0.136656 0.000000 0.000000
# 5 0.000000 0.000000 0.000000 0.000000 0.136656 0.000000
# 6 0.000000 0.000000 0.000000 0.000000 0.000000 0.081014
#
#
# Mechanical properties :
#
#
# Convention : Reuss Voigt Hill
#
# Bulk Modulus (GPa) = 43.19338 43.58619 43.38978
# Shear Modulus (GPa) = 27.86421 9.44937 18.65679
#
# Velocity S-wave (km/s) = 4.07066 2.37051 3.33088
# Velocity P-wave (km/s) = 6.91229 5.78033 6.37150
#
# Compressibility (1/GPa) = 0.02315169
#
# Stress axis : x y z
#
# Youngs Moduli (GPa) = -21.12357 -21.12356 66.86165
#
# Poissons Ratio (x) = 1.27493 0.29812
# Poissons Ratio (y) = 1.27493 0.29812
# Poissons Ratio (z) = -0.09418 -0.09418
#
# Static dielectric constant tensor:
#      x y z
#    x 1.554170 0.000000 0.000000 
#    y 0.000000 1.554170 0.000000 
#    z 0.000000 0.000000 1.621170 
# 
# From -- ./inp_files/7363.got.cif
#   From: 2010.05.17/outbox.cif.g08.bks.cpg/sg129_4_cif.got.tgz:7363.got - 2010.05.20 12:12:06.
