data_PCOD9565171
_publ_section_title
;
Structure prediction by ZEFSAII (Michael W. Deem and Ramdas Pophale) SiO2 
 PCOD9565171
Probable space group: P 4/N M M
;
_chemical_formula_sum "Si O2"
_cell_formula_units_Z 58
_cell_length_a 19.397805
_cell_length_b 19.397805
_cell_length_c 7.420397
_cell_angle_alpha 90.000000
_cell_angle_beta 90.000000
_cell_angle_gamma 90.000000
_cell_volume 2792.108685
_symmetry_space_group_name_H-M "P 4/N M M"
_symmetry_group_IT_number 129
_symmetry_cell_setting 'tetragonal'
loop_
_space_group_symop_operation_xyz
x,y,z
1/2-y,x,z
1/2-x,1/2-y,z
y,1/2-x,z
1/2+x,-y,-z
-x,1/2+y,-z
1/2+y,1/2+x,-z
-y,-x,-z
-x,-y,-z
1/2+y,-x,-z
1/2+x,1/2+y,-z
-y,1/2+x,-z
1/2-x,y,z
x,1/2-y,z
1/2-y,1/2-x,z
y,x,z
loop_
_atom_site_type_symbol
_atom_site_label
_atom_site_fract_x
_atom_site_fract_y
_atom_site_fract_z
Si Si1 0.886079 0.101757 0.282203
Si Si2 0.978691 0.978691 0.708944
Si Si3 0.250000 0.524533 0.850219
Si Si4 0.064697 0.750000 0.769728
Si Si5 0.250000 0.250000 0.198552
Si Si6 0.949334 0.750000 0.482207
Si Si7 0.864082 0.635918 0.679006
O O1 0.891446 0.108555 0.500000
O O2 0.817010 0.066868 0.211984
O O3 0.892904 0.179958 0.214784
O O4 0.950510 0.054626 0.221453
O O5 0.920180 0.920180 0.748700
O O6 0.000000 0.000000 0.500000
O O7 0.250000 0.456462 0.730518
O O8 0.250000 0.512160 0.062595
O O9 0.023046 0.750000 0.582956
O O10 0.312088 0.312088 0.212806
O O11 0.909822 0.684282 0.552940
#
# Coordination Sequence:
#
# PCOD9565171 Si02
#       7
#    16   8   8   8   2   8   8
#     4  11  21  41  63  91 123 167 211 263 318 376
#     4  10  18  32  65  94 119 163 215 263 318 382
#     4  12  25  40  60  91 127 167 210 261 318 380
#     4  12  23  40  64  90 125 166 208 260 315 377
#     4   8  20  28  60  96 126 164 216 266 324 392
#     4  11  20  41  62  91 129 164 211 260 320 372
#     4  10  18  36  64  93 124 171 214 261 321 386
#
# _framework density 20.772831
#
# number of rings (size 3 to 8) (size 9 to 14) (size 15 to 20)
#    0.000    1.103    5.517    2.483    0.000    0.552 
#    0.000    9.655    0.000    0.000    0.000    5.793 
#    0.000    0.000    0.000    0.000    0.000    0.000 
#
# Total GULP energy -322961.998582 kJ/mol
# GULP energy per Si atom -5568.310320 kJ/mol
# Density = 2.072555 g / cm^3
# Si number density = 20.772831 Si / 1000 Ang^3
#
#
#
# Elastic Constant Matrix: (Units=GPa)
#
#
# Indices 1 2 3 4 5 6 
#
# 1 81.3699 106.4891 -10.8050 0.0000 0.0000 0.0000
# 2 106.4891 81.3671 -10.8051 0.0000 0.0000 0.0000
# 3 -10.8050 -10.8051 63.5710 0.0000 0.0000 0.0000
# 4 0.0000 0.0000 0.0000 87.0434 0.0000 0.0000
# 5 0.0000 0.0000 0.0000 0.0000 87.0459 0.0000
# 6 0.0000 0.0000 0.0000 0.0000 0.0000 75.5915
#
#
#
# Elastic Compliance Matrix: (Units=1/GPa)
#
#
# Indices 1 2 3 4 5 6 
#
# 1 -0.017189 0.022619 0.000923 0.000000 0.000000 0.000000
# 2 0.022619 -0.017190 0.000923 0.000000 0.000000 0.000000
# 3 0.000923 0.000923 0.016044 0.000000 0.000000 0.000000
# 4 0.000000 0.000000 0.000000 0.011489 0.000000 0.000000
# 5 0.000000 0.000000 0.000000 0.000000 0.011488 0.000000
# 6 0.000000 0.000000 0.000000 0.000000 0.000000 0.013229
#
#
# Mechanical properties :
#
#
# Convention : Reuss Voigt Hill
#
# Bulk Modulus (GPa) = 32.68608 44.00733 38.34670
# Shear Modulus (GPa) = -239.69916 59.36474 -90.16721
#
# Velocity S-wave (km/s) = -10.75366 5.35165 -6.59549
# Velocity P-wave (km/s) = 11.76517 7.70830 6.28495
#
# Compressibility (1/GPa) = 0.03059407
#
# Stress axis : x y z
#
# Youngs Moduli (GPa) = -58.17655 -58.17451 62.32808
#
# Poissons Ratio (x) = 1.31583 -0.05752
# Poissons Ratio (y) = 1.31588 -0.05751
# Poissons Ratio (z) = 0.05369 0.05368
#
# Static dielectric constant tensor:
#      x y z
#    x 2.100030 0.000000 0.000000 
#    y 0.000000 2.099760 0.000000 
#    z 0.000000 0.000000 1.769090 
# 
# From -- ./inp_files/1843.got.cif
#   From: 2010.05.17/outbox.cif.g08.bks.cpg/sg129_1_cif.got.tgz:1843.got - 2010.05.20 12:12:06.
