data_PCOD9565634
_publ_section_title
;
Structure prediction by ZEFSAII (Michael W. Deem and Ramdas Pophale) SiO2 
 PCOD9565634
Probable space group: P 4/N C C
;
_chemical_formula_sum "Si O2"
_cell_formula_units_Z 64
_cell_length_a 12.567019
_cell_length_b 12.567019
_cell_length_c 21.361018
_cell_angle_alpha 90.000000
_cell_angle_beta 90.000000
_cell_angle_gamma 90.000000
_cell_volume 3373.544858
_symmetry_space_group_name_H-M "P 4/N C C"
_symmetry_group_IT_number 130
_symmetry_cell_setting 'tetragonal'
loop_
_space_group_symop_operation_xyz
x,y,z
1/2-y,x,z
1/2-x,1/2-y,z
y,1/2-x,z
1/2+x,-y,1/2-z
-x,1/2+y,1/2-z
1/2+y,1/2+x,1/2-z
-y,-x,1/2-z
-x,-y,-z
1/2+y,-x,-z
1/2+x,1/2+y,-z
-y,1/2+x,-z
1/2-x,y,1/2+z
x,1/2-y,1/2+z
1/2-y,1/2-x,1/2+z
y,x,1/2+z
loop_
_atom_site_type_symbol
_atom_site_label
_atom_site_fract_x
_atom_site_fract_y
_atom_site_fract_z
Si Si1 0.579005 0.754526 0.868764
Si Si2 0.970313 0.668551 0.002084
Si Si3 0.148051 0.822151 0.323708
Si Si4 0.366129 0.981771 0.929607
O O1 0.643208 0.649432 0.849414
O O2 0.577892 0.762388 0.944733
O O3 0.460640 0.761035 0.842200
O O4 0.045604 0.587306 0.965269
O O5 0.896489 0.602692 0.050631
O O6 0.038448 0.750729 0.041838
O O7 0.250000 0.750000 0.342967
O O8 0.158109 0.841892 0.250000
O O9 0.139091 0.935030 0.360007
#
# Coordination Sequence:
#
# PCOD9565634 Si02
#       4
#    16  16  16  16
#     4  10  20  39  66  92 124 164 203 254 322 386
#     4  10  20  35  57  95 118 153 190 252 317 372
#     4  10  24  44  60  87 123 173 222 261 303 361
#     4  10  22  34  59  87 123 151 202 248 313 370
#
# _framework density 18.971140999999999
#
# number of rings (size 3 to 8) (size 9 to 14) (size 15 to 20)
#    0.000    2.000    2.500    0.000    7.000    0.500 
#    9.000    0.000    0.000    0.000    0.000    0.000 
#    0.000    0.000    0.000    0.000    0.000    0.000 
#
# Total GULP energy -356344.368093 kJ/mol
# GULP energy per Si atom -5567.880751 kJ/mol
# Density = 1.892796 g / cm^3
# Si number density = 18.971141 Si / 1000 Ang^3
#
#
#
# Elastic Constant Matrix: (Units=GPa)
#
#
# Indices 1 2 3 4 5 6 
#
# 1 81.4565 25.6119 31.6560 0.0000 0.0000 0.0000
# 2 25.6119 81.4562 31.6561 0.0000 0.0000 0.0000
# 3 31.6560 31.6561 83.1165 0.0000 0.0000 0.0000
# 4 0.0000 0.0000 0.0000 17.6505 0.0000 0.0000
# 5 0.0000 0.0000 0.0000 0.0000 17.6504 0.0000
# 6 0.0000 0.0000 0.0000 0.0000 0.0000 15.0718
#
#
#
# Elastic Compliance Matrix: (Units=1/GPa)
#
#
# Indices 1 2 3 4 5 6 
#
# 1 0.014981 -0.002926 -0.004591 0.000000 0.000000 0.000000
# 2 -0.002926 0.014981 -0.004591 0.000000 0.000000 0.000000
# 3 -0.004591 -0.004591 0.015529 0.000000 0.000000 0.000000
# 4 0.000000 0.000000 0.000000 0.056656 0.000000 0.000000
# 5 0.000000 0.000000 0.000000 0.000000 0.056656 0.000000
# 6 0.000000 0.000000 0.000000 0.000000 0.000000 0.066349
#
#
# Mechanical properties :
#
#
# Convention : Reuss Voigt Hill
#
# Bulk Modulus (GPa) = 47.00756 47.09748 47.05252
# Shear Modulus (GPa) = 19.49630 20.54821 20.02226
#
# Velocity S-wave (km/s) = 3.20923 3.29466 3.25223
# Velocity P-wave (km/s) = 6.21003 6.27318 6.24168
#
# Compressibility (1/GPa) = 0.02127317
#
# Stress axis : x y z
#
# Youngs Moduli (GPa) = 66.75221 66.75186 64.39744
#
# Poissons Ratio (x) = 0.19532 0.29566
# Poissons Ratio (y) = 0.19532 0.29566
# Poissons Ratio (z) = 0.30647 0.30647
#
# Static dielectric constant tensor:
#      x y z
#    x 1.697480 0.000000 0.000000 
#    y 0.000000 1.697480 0.000000 
#    z 0.000000 0.000000 1.688190 
# 
# From -- ./inp_files/3505.got.cif
#   From: 2010.05.17/outbox.cif.g08.bks.cpg/sg130_2_cif.got.tgz:3505.got - 2010.05.20 12:17:35.
