data_PCOD9565883
_publ_section_title
;
Structure prediction by ZEFSAII (Michael W. Deem and Ramdas Pophale) SiO2 
 PCOD9565883
Probable space group: P 4/N C C
;
_chemical_formula_sum "Si O2"
_cell_formula_units_Z 68
_cell_length_a 11.692283
_cell_length_b 11.692283
_cell_length_c 21.046150
_cell_angle_alpha 90.000000
_cell_angle_beta 90.000000
_cell_angle_gamma 90.000000
_cell_volume 2877.208259
_symmetry_space_group_name_H-M "P 4/N C C"
_symmetry_group_IT_number 130
_symmetry_cell_setting 'tetragonal'
loop_
_space_group_symop_operation_xyz
x,y,z
1/2-y,x,z
1/2-x,1/2-y,z
y,1/2-x,z
1/2+x,-y,1/2-z
-x,1/2+y,1/2-z
1/2+y,1/2+x,1/2-z
-y,-x,1/2-z
-x,-y,-z
1/2+y,-x,-z
1/2+x,1/2+y,-z
-y,1/2+x,-z
1/2-x,y,1/2+z
x,1/2-y,1/2+z
1/2-y,1/2-x,1/2+z
y,x,1/2+z
loop_
_atom_site_type_symbol
_atom_site_label
_atom_site_fract_x
_atom_site_fract_y
_atom_site_fract_z
Si Si1 0.516030 0.247468 0.123171
Si Si2 0.913887 0.018550 0.057996
Si Si3 0.750000 0.750000 0.903309
Si Si4 0.960901 0.316089 0.395784
Si Si5 0.249120 0.444029 0.265513
O O1 0.608047 0.152548 0.102700
O O2 0.549912 0.369841 0.096126
O O3 0.387614 0.217277 0.100887
O O4 0.511998 0.250340 0.199699
O O5 0.967144 0.278419 0.951192
O O6 0.933219 0.902042 0.096756
O O7 0.976978 0.256367 0.327465
O O8 0.000000 0.500000 0.500000
O O9 0.139953 0.359690 0.264602
#
# Coordination Sequence:
#
# PCOD9565883 Si02
#       5
#    16  16   4  16  16
#     4  12  24  47  78 120 159 213 269 337 417 499
#     4  12  30  50  76 112 158 216 277 345 412 498
#     4  12  20  40  80 108 158 208 268 308 404 498
#     4  12  26  48  77 115 160 208 277 342 417 493
#     4  11  20  41  77 116 164 208 263 342 417 514
#
# _framework density 23.634022000000002
#
# number of rings (size 3 to 8) (size 9 to 14) (size 15 to 20)
#    0.000    0.235    7.059    1.412    3.294    1.412 
#    0.000    2.353    0.000    0.000    0.000    0.000 
#    0.000    0.000    0.000    0.000    0.000    0.000 
#
# Total GULP energy -379825.812660 kJ/mol
# GULP energy per Si atom -5585.673716 kJ/mol
# Density = 2.358023 g / cm^3
# Si number density = 23.634022 Si / 1000 Ang^3
#
#
#
# Elastic Constant Matrix: (Units=GPa)
#
#
# Indices 1 2 3 4 5 6 
#
# 1 154.0288 57.4699 54.8241 0.0000 0.0000 0.0000
# 2 57.4699 154.0288 54.8241 0.0000 0.0000 0.0000
# 3 54.8241 54.8241 102.1426 0.0000 0.0000 0.0000
# 4 0.0000 0.0000 0.0000 36.2568 0.0000 0.0000
# 5 0.0000 0.0000 0.0000 0.0000 36.2568 0.0000
# 6 0.0000 0.0000 0.0000 0.0000 0.0000 31.5437
#
#
#
# Elastic Compliance Matrix: (Units=1/GPa)
#
#
# Indices 1 2 3 4 5 6 
#
# 1 0.008454 -0.001903 -0.003516 0.000000 0.000000 0.000000
# 2 -0.001903 0.008454 -0.003516 0.000000 0.000000 0.000000
# 3 -0.003516 -0.003516 0.013565 0.000000 0.000000 0.000000
# 4 0.000000 0.000000 0.000000 0.027581 0.000000 0.000000
# 5 0.000000 0.000000 0.000000 0.000000 0.027581 0.000000
# 6 0.000000 0.000000 0.000000 0.000000 0.000000 0.031702
#
#
# Mechanical properties :
#
#
# Convention : Reuss Voigt Hill
#
# Bulk Modulus (GPa) = 79.35193 82.71515 81.03354
# Shear Modulus (GPa) = 35.86610 37.01693 36.44151
#
# Velocity S-wave (km/s) = 3.89982 3.96189 3.93098
# Velocity P-wave (km/s) = 7.34345 7.48352 7.41382
#
# Compressibility (1/GPa) = 0.01260209
#
# Stress axis : x y z
#
# Youngs Moduli (GPa) = 118.29092 118.29092 73.71997
#
# Poissons Ratio (x) = 0.22506 0.25922
# Poissons Ratio (y) = 0.22506 0.25922
# Poissons Ratio (z) = 0.41594 0.41594
#
# Static dielectric constant tensor:
#      x y z
#    x 1.880180 0.000000 0.000000 
#    y 0.000000 1.880180 0.000000 
#    z 0.000000 0.000000 1.985590 
# 
# From -- ./inp_files/2272.got.cif
#   From: 2010.05.17/outbox.cif.g08.bks.cpg/sg130_2_cif.got.tgz:2272.got - 2010.05.20 12:17:35.
