data_PCOD9565539
_publ_section_title
;
Structure prediction by ZEFSAII (Michael W. Deem and Ramdas Pophale) SiO2 
 PCOD9565539
Probable space group: P 4/N C C
;
_chemical_formula_sum "Si O2"
_cell_formula_units_Z 116
_cell_length_a 28.622231
_cell_length_b 28.622231
_cell_length_c 8.938566
_cell_angle_alpha 90.000000
_cell_angle_beta 90.000000
_cell_angle_gamma 90.000000
_cell_volume 7322.760261
_symmetry_space_group_name_H-M "P 4/N C C"
_symmetry_group_IT_number 130
_symmetry_cell_setting 'tetragonal'
loop_
_space_group_symop_operation_xyz
x,y,z
1/2-y,x,z
1/2-x,1/2-y,z
y,1/2-x,z
1/2+x,-y,1/2-z
-x,1/2+y,1/2-z
1/2+y,1/2+x,1/2-z
-y,-x,1/2-z
-x,-y,-z
1/2+y,-x,-z
1/2+x,1/2+y,-z
-y,1/2+x,-z
1/2-x,y,1/2+z
x,1/2-y,1/2+z
1/2-y,1/2-x,1/2+z
y,x,1/2+z
loop_
_atom_site_type_symbol
_atom_site_label
_atom_site_fract_x
_atom_site_fract_y
_atom_site_fract_z
Si Si1 0.437295 0.054384 0.965093
Si Si2 0.275505 0.456731 0.033254
Si Si3 0.164441 0.365490 0.181571
Si Si4 0.717593 0.649863 0.038657
Si Si5 0.012627 0.583941 0.281254
Si Si6 0.750000 0.750000 0.494973
Si Si7 0.685365 0.525977 0.296765
Si Si8 0.865194 0.936599 0.783641
O O1 0.479743 0.068309 0.857171
O O2 0.393980 0.042734 0.854488
O O3 0.431742 0.099330 0.074723
O O4 0.441426 0.010569 0.075283
O O5 0.264547 0.401298 0.009419
O O6 0.229149 0.481920 0.093197
O O7 0.317525 0.458906 0.155205
O O8 0.294959 0.473379 0.873161
O O9 0.207626 0.350436 0.284707
O O10 0.156495 0.331806 0.043292
O O11 0.168126 0.421163 0.166271
O O12 0.116084 0.355808 0.268756
O O13 0.750159 0.692938 0.001976
O O14 0.063771 0.563771 0.250000
O O15 0.006215 0.639476 0.304057
#
# Coordination Sequence:
#
# PCOD9565539 Si02
#       8
#    16  16  16  16  16   4  16  16
#     4  10  18  33  55  75 100 134 162 213 259 307
#     4  10  22  34  49  73  91 122 172 214 258 309
#     4  10  19  34  49  64  85 118 157 206 266 298
#     4  10  23  33  46  61  83 120 158 212 262 321
#     4  11  22  35  53  79 106 135 168 208 263 316
#     4  12  24  38  40  54  88 114 164 206 268 318
#     4  11  21  34  52  70  98 124 167 214 252 304
#     4  10  17  32  52  72  96 121 163 214 261 303
#
# _framework density 15.84102
#
# number of rings (size 3 to 8) (size 9 to 14) (size 15 to 20)
#    0.000    1.655    4.138    2.897    1.931    7.172 
#    0.000    0.000    0.000    0.000    0.000    0.000 
#    0.000    0.000    0.000    0.000    0.000    2.069 
#
# Total GULP energy -646013.966645 kJ/mol
# GULP energy per Si atom -5569.085919 kJ/mol
# Density = 1.580496 g / cm^3
# Si number density = 15.841020 Si / 1000 Ang^3
#
#
#
# Elastic Constant Matrix: (Units=GPa)
#
#
# Indices 1 2 3 4 5 6 
#
# 1 47.3377 20.9820 17.8604 0.0000 0.0000 0.0000
# 2 20.9820 47.3377 17.8604 0.0000 0.0000 0.0000
# 3 17.8604 17.8604 68.9501 0.0000 0.0000 0.0000
# 4 0.0000 0.0000 0.0000 6.5833 0.0000 0.0000
# 5 0.0000 0.0000 0.0000 0.0000 6.5833 0.0000
# 6 0.0000 0.0000 0.0000 0.0000 0.0000 31.7620
#
#
#
# Elastic Compliance Matrix: (Units=1/GPa)
#
#
# Indices 1 2 3 4 5 6 
#
# 1 0.027436 -0.010506 -0.004385 0.000000 0.000000 0.000000
# 2 -0.010506 0.027436 -0.004385 0.000000 0.000000 0.000000
# 3 -0.004385 -0.004385 0.016775 0.000000 0.000000 0.000000
# 4 0.000000 0.000000 0.000000 0.151899 0.000000 0.000000
# 5 0.000000 0.000000 0.000000 0.000000 0.151899 0.000000
# 6 0.000000 0.000000 0.000000 0.000000 0.000000 0.031484
#
#
# Mechanical properties :
#
#
# Convention : Reuss Voigt Hill
#
# Bulk Modulus (GPa) = 30.21750 30.78124 30.49937
# Shear Modulus (GPa) = 10.95254 16.11391 13.53322
#
# Velocity S-wave (km/s) = 2.63231 3.19286 2.92604
# Velocity P-wave (km/s) = 5.32500 5.75030 5.54173
#
# Compressibility (1/GPa) = 0.03309340
#
# Stress axis : x y z
#
# Youngs Moduli (GPa) = 36.44808 36.44808 59.61180
#
# Poissons Ratio (x) = 0.38293 0.26142
# Poissons Ratio (y) = 0.38293 0.26142
# Poissons Ratio (z) = 0.15984 0.15984
#
# Static dielectric constant tensor:
#      x y z
#    x 1.547360 0.000000 0.000000 
#    y 0.000000 1.547360 0.000000 
#    z 0.000000 0.000000 1.610030 
# 
# From -- ./inp_files/1107.got.cif
#   From: 2010.05.17/outbox.cif.g08.bks.cpg/sg130_1_cif.got.tgz:1107.got - 2010.05.20 12:17:35.
