data_PCOD9565375
_publ_section_title
;
Structure prediction by ZEFSAII (Michael W. Deem and Ramdas Pophale) SiO2 
 PCOD9565375
Probable space group: P 4/N M M
;
_chemical_formula_sum "Si O2"
_cell_formula_units_Z 80
_cell_length_a 13.728075
_cell_length_b 13.728075
_cell_length_c 26.312403
_cell_angle_alpha 90.000000
_cell_angle_beta 90.000000
_cell_angle_gamma 90.000000
_cell_volume 4958.836606
_symmetry_space_group_name_H-M "P 4/N M M"
_symmetry_group_IT_number 129
_symmetry_cell_setting 'tetragonal'
loop_
_space_group_symop_operation_xyz
x,y,z
1/2-y,x,z
1/2-x,1/2-y,z
y,1/2-x,z
1/2+x,-y,-z
-x,1/2+y,-z
1/2+y,1/2+x,-z
-y,-x,-z
-x,-y,-z
1/2+y,-x,-z
1/2+x,1/2+y,-z
-y,1/2+x,-z
1/2-x,y,z
x,1/2-y,z
1/2-y,1/2-x,z
y,x,z
loop_
_atom_site_type_symbol
_atom_site_label
_atom_site_fract_x
_atom_site_fract_y
_atom_site_fract_z
Si Si1 0.365960 0.528239 0.453374
Si Si2 0.477239 0.635214 0.247605
Si Si3 0.472122 0.866192 0.362980
Si Si4 0.862581 0.133510 0.146380
Si Si5 0.633902 0.475580 0.955834
O O1 0.407692 0.592309 0.500000
O O2 0.250000 0.515247 0.456763
O O3 0.426893 0.426893 0.454066
O O4 0.397667 0.586355 0.402662
O O5 0.493641 0.750000 0.243835
O O6 0.576875 0.576875 0.243416
O O7 0.438205 0.617545 0.304659
O O8 0.410232 0.605751 0.200340
O O9 0.483788 0.750000 0.371082
O O10 0.573654 0.926347 0.369117
O O11 0.750000 0.103954 0.136864
O O12 0.864086 0.250000 0.150206
O O13 0.928465 0.106302 0.098503
O O14 0.750000 0.486041 0.958229
O O15 0.576609 0.576609 0.961969
O O16 0.595851 0.404150 0.000000
#
# Coordination Sequence:
#
# PCOD9565375 Si02
#       5
#    16  16  16  16  16
#     4  10  21  36  53  74  99 126 158 195 235 281
#     4   9  17  29  45  66  94 125 156 192 232 275
#     4   9  18  31  47  70  98 128 163 200 238 281
#     4   9  17  29  46  68  92 119 154 194 233 275
#     4  10  20  33  50  71  94 122 155 191 233 279
#
# _framework density 16.132816999999999
#
# number of rings (size 3 to 8) (size 9 to 14) (size 15 to 20)
#    0.000    2.600    0.000    1.800    0.000    4.000 
#    0.000    4.000    0.000    3.600    0.000    2.800 
#    0.000    4.800    0.000    0.000    0.000    0.000 
#
# Total GULP energy -445656.543783 kJ/mol
# GULP energy per Si atom -5570.706797 kJ/mol
# Density = 1.609610 g / cm^3
# Si number density = 16.132817 Si / 1000 Ang^3
#
#
#
# Elastic Constant Matrix: (Units=GPa)
#
#
# Indices 1 2 3 4 5 6 
#
# 1 81.7148 57.1694 57.9783 0.0000 0.0000 0.0000
# 2 57.1694 81.7132 57.9781 0.0000 0.0000 0.0000
# 3 57.9783 57.9781 127.5830 0.0000 0.0000 0.0000
# 4 0.0000 0.0000 0.0000 24.9579 0.0000 0.0000
# 5 0.0000 0.0000 0.0000 0.0000 24.9581 0.0000
# 6 0.0000 0.0000 0.0000 0.0000 0.0000 12.9682
#
#
#
# Elastic Compliance Matrix: (Units=1/GPa)
#
#
# Indices 1 2 3 4 5 6 
#
# 1 0.026172 -0.014570 -0.005272 0.000000 0.000000 0.000000
# 2 -0.014570 0.026173 -0.005273 0.000000 0.000000 0.000000
# 3 -0.005272 -0.005273 0.012630 0.000000 0.000000 0.000000
# 4 0.000000 0.000000 0.000000 0.040067 0.000000 0.000000
# 5 0.000000 0.000000 0.000000 0.000000 0.040067 0.000000
# 6 0.000000 0.000000 0.000000 0.000000 0.000000 0.077112
#
#
# Mechanical properties :
#
#
# Convention : Reuss Voigt Hill
#
# Bulk Modulus (GPa) = 67.82071 70.80697 69.31384
# Shear Modulus (GPa) = 18.02670 20.43583 19.23127
#
# Velocity S-wave (km/s) = 3.34637 3.56297 3.45637
# Velocity P-wave (km/s) = 7.55388 7.80459 7.68026
#
# Compressibility (1/GPa) = 0.01474476
#
# Stress axis : x y z
#
# Youngs Moduli (GPa) = 38.20875 38.20778 79.17578
#
# Poissons Ratio (x) = 0.55668 0.41745
# Poissons Ratio (y) = 0.55670 0.41747
# Poissons Ratio (z) = 0.20145 0.20146
#
# Static dielectric constant tensor:
#      x y z
#    x 1.519710 0.000000 0.000000 
#    y 0.000000 1.519710 0.000000 
#    z 0.000000 0.000000 1.565050 
# 
# From -- ./inp_files/6347.got.cif
#   From: 2010.05.17/outbox.cif.g08.bks.cpg/sg129_4_cif.got.tgz:6347.got - 2010.05.20 12:12:06.
