data_PCOD9565216
_publ_section_title
;
Structure prediction by ZEFSAII (Michael W. Deem and Ramdas Pophale) SiO2 
 PCOD9565216
Probable space group: P 4/N M M
;
_chemical_formula_sum "Si O2"
_cell_formula_units_Z 88
_cell_length_a 13.506412
_cell_length_b 13.506412
_cell_length_c 28.983780
_cell_angle_alpha 90.000000
_cell_angle_beta 90.000000
_cell_angle_gamma 90.000000
_cell_volume 5287.312885
_symmetry_space_group_name_H-M "P 4/N M M"
_symmetry_group_IT_number 129
_symmetry_cell_setting 'tetragonal'
loop_
_space_group_symop_operation_xyz
x,y,z
1/2-y,x,z
1/2-x,1/2-y,z
y,1/2-x,z
1/2+x,-y,-z
-x,1/2+y,-z
1/2+y,1/2+x,-z
-y,-x,-z
-x,-y,-z
1/2+y,-x,-z
1/2+x,1/2+y,-z
-y,1/2+x,-z
1/2-x,y,z
x,1/2-y,z
1/2-y,1/2-x,z
y,x,z
loop_
_atom_site_type_symbol
_atom_site_label
_atom_site_fract_x
_atom_site_fract_y
_atom_site_fract_z
Si Si1 0.868376 0.028758 0.717967
Si Si2 0.367946 0.532315 0.455845
Si Si3 0.132528 0.967887 0.632181
Si Si4 0.629918 0.137599 0.812810
Si Si5 0.632603 0.132603 0.000000
Si Si6 0.474544 0.868553 0.905370
O O1 0.750000 0.019777 0.714468
O O2 0.910355 0.101505 0.678694
O O3 0.894975 0.073260 0.768044
O O4 0.924841 0.924841 0.711845
O O5 0.405870 0.594131 0.500000
O O6 0.250000 0.519096 0.456567
O O7 0.428807 0.428807 0.456173
O O8 0.403278 0.591761 0.410563
O O9 0.250000 0.981913 0.629270
O O10 0.070573 0.070573 0.631363
O O11 0.750000 0.141312 0.814030
O O12 0.593605 0.250000 0.808368
O O13 0.598675 0.089183 0.861050
O O14 0.576795 0.102497 0.046491
O O15 0.617272 0.250000 0.993158
O O16 0.481009 0.750000 0.904347
O O17 0.580367 0.919634 0.902401
#
# Coordination Sequence:
#
# PCOD9565216 Si02
#       6
#    16  16  16  16   8  16
#     4  10  20  33  50  74 103 134 168 204 244 294
#     4  10  21  36  54  78 106 136 172 211 252 301
#     4  10  21  36  54  77 103 132 169 211 255 303
#     4   9  17  30  48  68  90 119 156 197 239 280
#     4   9  17  30  48  68  89 115 150 194 240 277
#     4  10  19  30  45  66  93 123 154 189 231 283
#
# _framework density 16.643613999999999
#
# number of rings (size 3 to 8) (size 9 to 14) (size 15 to 20)
#    0.000    2.273    0.000    3.000    0.000    6.000 
#    0.000    0.000    0.000    9.818    0.000    0.000 
#    0.000   14.909    0.000    0.000    0.000    0.000 
#
# Total GULP energy -490767.686766 kJ/mol
# GULP energy per Si atom -5576.905531 kJ/mol
# Density = 1.660573 g / cm^3
# Si number density = 16.643614 Si / 1000 Ang^3
#
#
#
# Elastic Constant Matrix: (Units=GPa)
#
#
# Indices 1 2 3 4 5 6 
#
# 1 102.4337 68.2690 49.4922 0.0000 0.0000 0.0000
# 2 68.2690 102.4348 49.4919 0.0000 0.0000 0.0000
# 3 49.4922 49.4919 131.7254 0.0000 0.0000 0.0000
# 4 0.0000 0.0000 0.0000 22.1452 0.0000 0.0000
# 5 0.0000 0.0000 0.0000 0.0000 22.1451 0.0000
# 6 0.0000 0.0000 0.0000 0.0000 0.0000 13.1742
#
#
#
# Elastic Compliance Matrix: (Units=1/GPa)
#
#
# Indices 1 2 3 4 5 6 
#
# 1 0.018380 -0.010890 -0.002814 0.000000 0.000000 0.000000
# 2 -0.010890 0.018380 -0.002814 0.000000 0.000000 0.000000
# 3 -0.002814 -0.002814 0.009706 0.000000 0.000000 0.000000
# 4 0.000000 0.000000 0.000000 0.045156 0.000000 0.000000
# 5 0.000000 0.000000 0.000000 0.000000 0.045157 0.000000
# 6 0.000000 0.000000 0.000000 0.000000 0.000000 0.075906
#
#
# Mechanical properties :
#
#
# Convention : Reuss Voigt Hill
#
# Bulk Modulus (GPa) = 74.46267 74.56668 74.51467
# Shear Modulus (GPa) = 19.98424 22.78230 21.38327
#
# Velocity S-wave (km/s) = 3.46889 3.70379 3.58826
# Velocity P-wave (km/s) = 7.80262 7.94921 7.87626
#
# Compressibility (1/GPa) = 0.01342955
#
# Stress axis : x y z
#
# Youngs Moduli (GPa) = 54.40737 54.40824 103.02689
#
# Poissons Ratio (x) = 0.59249 0.28994
# Poissons Ratio (y) = 0.59249 0.28992
# Poissons Ratio (z) = 0.15311 0.15311
#
# Static dielectric constant tensor:
#      x y z
#    x 1.539130 0.000000 0.000000 
#    y 0.000000 1.539130 0.000000 
#    z 0.000000 0.000000 1.567980 
# 
# From -- ./inp_files/7761.got.cif
#   From: 2010.05.17/outbox.cif.g08.bks.cpg/sg129_4_cif.got.tgz:7761.got - 2010.05.20 12:12:06.
