data_PCOD9565799
_publ_section_title
;
Structure prediction by ZEFSAII (Michael W. Deem and Ramdas Pophale) SiO2 
 PCOD9565799
Probable space group: P 4/N C C
;
_chemical_formula_sum "Si O2"
_cell_formula_units_Z 112
_cell_length_a 15.675869
_cell_length_b 15.675869
_cell_length_c 23.269504
_cell_angle_alpha 90.000000
_cell_angle_beta 90.000000
_cell_angle_gamma 90.000000
_cell_volume 5718.081976
_symmetry_space_group_name_H-M "P 4/N C C"
_symmetry_group_IT_number 130
_symmetry_cell_setting 'tetragonal'
loop_
_space_group_symop_operation_xyz
x,y,z
1/2-y,x,z
1/2-x,1/2-y,z
y,1/2-x,z
1/2+x,-y,1/2-z
-x,1/2+y,1/2-z
1/2+y,1/2+x,1/2-z
-y,-x,1/2-z
-x,-y,-z
1/2+y,-x,-z
1/2+x,1/2+y,-z
-y,1/2+x,-z
1/2-x,y,1/2+z
x,1/2-y,1/2+z
1/2-y,1/2-x,1/2+z
y,x,1/2+z
loop_
_atom_site_type_symbol
_atom_site_label
_atom_site_fract_x
_atom_site_fract_y
_atom_site_fract_z
Si Si1 0.319475 0.864460 0.991565
Si Si2 0.805923 0.165361 0.182961
Si Si3 0.611249 0.450429 0.403312
Si Si4 0.825148 0.870436 0.248430
Si Si5 0.686357 0.624833 0.383959
Si Si6 0.986206 0.273387 0.385630
Si Si7 0.901862 0.938003 0.139723
O O1 0.298425 0.926475 0.939253
O O2 0.350143 0.770040 0.974570
O O3 0.386838 0.902234 0.036084
O O4 0.750000 0.250000 0.171348
O O5 0.831506 0.168495 0.250000
O O6 0.889373 0.159782 0.142396
O O7 0.750843 0.081735 0.164844
O O8 0.653172 0.541175 0.413976
O O9 0.517447 0.460363 0.377068
O O10 0.724048 0.862871 0.236519
O O11 0.829394 0.889534 0.315774
O O12 0.873549 0.934018 0.206423
O O13 0.785987 0.639939 0.396274
O O14 0.049323 0.351345 0.373939
O O15 0.042469 0.187435 0.392956
#
# Coordination Sequence:
#
# PCOD9565799 Si02
#       7
#    16  16  16  16  16  16  16
#     4  11  22  44  69  88 121 168 224 265 330 396
#     4  10  22  41  64  94 132 164 208 275 336 388
#     4  11  24  37  64  97 119 169 214 278 316 392
#     4   9  17  33  61  85 121 173 206 242 306 398
#     4   9  21  40  60  88 126 173 212 250 324 399
#     4  11  24  41  64  96 129 171 214 272 328 399
#     4  11  22  38  60  98 127 161 215 266 327 383
#
# _framework density 19.586987000000001
#
# number of rings (size 3 to 8) (size 9 to 14) (size 15 to 20)
#    0.000    1.714    4.286    1.714    4.000    3.143 
#    2.571    1.429    0.000    0.000    0.000    0.000 
#    0.000    0.000    0.000    0.000    0.000    0.000 
#
# Total GULP energy -624751.514297 kJ/mol
# GULP energy per Si atom -5578.138521 kJ/mol
# Density = 1.954241 g / cm^3
# Si number density = 19.586987 Si / 1000 Ang^3
#
#
#
# Elastic Constant Matrix: (Units=GPa)
#
#
# Indices 1 2 3 4 5 6 
#
# 1 79.2651 37.1858 9.3803 0.0000 0.0000 0.0000
# 2 37.1858 79.2651 9.3803 0.0000 0.0000 0.0000
# 3 9.3803 9.3803 42.4889 0.0000 0.0000 0.0000
# 4 0.0000 0.0000 0.0000 20.9706 0.0000 0.0000
# 5 0.0000 0.0000 0.0000 0.0000 20.9706 0.0000
# 6 0.0000 0.0000 0.0000 0.0000 0.0000 25.4349
#
#
#
# Elastic Compliance Matrix: (Units=1/GPa)
#
#
# Indices 1 2 3 4 5 6 
#
# 1 0.016334 -0.007430 -0.001966 0.000000 0.000000 0.000000
# 2 -0.007430 0.016334 -0.001966 0.000000 0.000000 0.000000
# 3 -0.001966 -0.001966 0.024404 0.000000 0.000000 0.000000
# 4 0.000000 0.000000 0.000000 0.047686 0.000000 0.000000
# 5 0.000000 0.000000 0.000000 0.000000 0.047686 0.000000
# 6 0.000000 0.000000 0.000000 0.000000 0.000000 0.039316
#
#
# Mechanical properties :
#
#
# Convention : Reuss Voigt Hill
#
# Bulk Modulus (GPa) = 29.11329 34.76797 31.94063
# Shear Modulus (GPa) = 22.13046 23.14674 22.63860
#
# Velocity S-wave (km/s) = 3.36498 3.44137 3.40339
# Velocity P-wave (km/s) = 5.47661 5.79481 5.63796
#
# Compressibility (1/GPa) = 0.03434857
#
# Stress axis : x y z
#
# Youngs Moduli (GPa) = 61.22073 61.22074 40.97767
#
# Poissons Ratio (x) = 0.45489 0.08055
# Poissons Ratio (y) = 0.45489 0.08055
# Poissons Ratio (z) = 0.12034 0.12034
#
# Static dielectric constant tensor:
#      x y z
#    x 1.690670 0.000000 0.000000 
#    y 0.000000 1.690670 0.000000 
#    z 0.000000 0.000000 1.683810 
# 
# From -- ./inp_files/4288.got.cif
#   From: 2010.05.17/outbox.cif.g08.bks.cpg/sg130_3_cif.got.tgz:4288.got - 2010.05.20 12:17:35.
