data_PCOD9565485
_publ_section_title
;
Structure prediction by ZEFSAII (Michael W. Deem and Ramdas Pophale) SiO2 
 PCOD9565485
Probable space group: P 4/N M M
;
_chemical_formula_sum "Si O2"
_cell_formula_units_Z 58
_cell_length_a 14.556540
_cell_length_b 14.556540
_cell_length_c 15.114664
_cell_angle_alpha 90.000000
_cell_angle_beta 90.000000
_cell_angle_gamma 90.000000
_cell_volume 3202.689334
_symmetry_space_group_name_H-M "P 4/N M M"
_symmetry_group_IT_number 129
_symmetry_cell_setting 'tetragonal'
loop_
_space_group_symop_operation_xyz
x,y,z
1/2-y,x,z
1/2-x,1/2-y,z
y,1/2-x,z
1/2+x,-y,-z
-x,1/2+y,-z
1/2+y,1/2+x,-z
-y,-x,-z
-x,-y,-z
1/2+y,-x,-z
1/2+x,1/2+y,-z
-y,1/2+x,-z
1/2-x,y,z
x,1/2-y,z
1/2-y,1/2-x,z
y,x,z
loop_
_atom_site_type_symbol
_atom_site_label
_atom_site_fract_x
_atom_site_fract_y
_atom_site_fract_z
Si Si1 0.453798 0.899969 0.730072
Si Si2 0.750000 0.750000 0.860318
Si Si3 0.645869 0.002443 0.532634
Si Si4 0.637610 0.250000 0.771961
Si Si5 0.250000 0.027651 0.135463
Si Si6 0.750000 0.399621 0.025233
O O1 0.493047 0.857620 0.639281
O O2 0.343986 0.893716 0.726209
O O3 0.486779 0.837625 0.811897
O O4 0.499581 0.000420 0.737861
O O5 0.750000 0.863478 0.859822
O O6 0.592716 0.092716 0.500000
O O7 0.750000 0.997653 0.502089
O O8 0.584067 0.915934 0.503589
O O9 0.750000 0.250000 0.780097
O O10 0.593149 0.250000 0.869538
O O11 0.250000 0.989278 0.035614
O O12 0.838231 0.338231 0.000000
#
# Coordination Sequence:
#
# PCOD9565485 Si02
#       6
#    16   2  16   8   8   8
#     4  11  22  38  60  89 119 152 199 243 298 348
#     4  12  28  40  56  88 128 160 182 248 312 368
#     4  10  22  39  58  87 122 153 192 242 294 355
#     4  12  20  36  63  89 116 156 207 247 287 353
#     4  12  21  38  60  88 120 153 198 241 298 354
#     4  11  18  34  58  87 115 146 197 252 284 331
#
# _framework density 18.109781000000002
#
# number of rings (size 3 to 8) (size 9 to 14) (size 15 to 20)
#    0.000    0.966    8.276    0.000    1.931    0.552 
#    2.483    2.069    0.000    0.414    0.000    0.000 
#    0.000    0.000    0.000    0.000    0.000    0.000 
#
# Total GULP energy -323232.417167 kJ/mol
# GULP energy per Si atom -5572.972710 kJ/mol
# Density = 1.806856 g / cm^3
# Si number density = 18.109781 Si / 1000 Ang^3
#
#
#
# Elastic Constant Matrix: (Units=GPa)
#
#
# Indices 1 2 3 4 5 6 
#
# 1 146.6365 57.2848 1.0922 0.0000 0.0000 0.0000
# 2 57.2848 146.6365 1.0922 0.0000 0.0000 0.0000
# 3 1.0922 1.0922 24.8844 0.0000 0.0000 0.0000
# 4 0.0000 0.0000 0.0000 14.4223 0.0000 0.0000
# 5 0.0000 0.0000 0.0000 0.0000 14.4223 0.0000
# 6 0.0000 0.0000 0.0000 0.0000 0.0000 13.1549
#
#
#
# Elastic Compliance Matrix: (Units=1/GPa)
#
#
# Indices 1 2 3 4 5 6 
#
# 1 0.008049 -0.003143 -0.000215 0.000000 0.000000 0.000000
# 2 -0.003143 0.008049 -0.000215 0.000000 0.000000 0.000000
# 3 -0.000215 -0.000215 0.040205 0.000000 0.000000 0.000000
# 4 0.000000 0.000000 0.000000 0.069337 0.000000 0.000000
# 5 0.000000 0.000000 0.000000 0.000000 0.069337 0.000000
# 6 0.000000 0.000000 0.000000 0.000000 0.000000 0.076017
#
#
# Mechanical properties :
#
#
# Convention : Reuss Voigt Hill
#
# Bulk Modulus (GPa) = 20.34352 48.56619 34.45486
# Shear Modulus (GPa) = 16.97644 25.64578 21.31111
#
# Velocity S-wave (km/s) = 3.06505 3.76723 3.43413
# Velocity P-wave (km/s) = 4.87687 6.76747 5.89841
#
# Compressibility (1/GPa) = 0.04915570
#
# Stress axis : x y z
#
# Youngs Moduli (GPa) = 124.23981 124.23981 24.87271
#
# Poissons Ratio (x) = 0.39046 0.00536
# Poissons Ratio (y) = 0.39046 0.00536
# Poissons Ratio (z) = 0.02675 0.02675
#
# Static dielectric constant tensor:
#      x y z
#    x 1.618310 0.000000 0.000000 
#    y 0.000000 1.618310 0.000000 
#    z 0.000000 0.000000 1.638890 
# 
# From -- ./inp_files/4503.got.cif
#   From: 2010.05.17/outbox.cif.g08.bks.cpg/sg129_3_cif.got.tgz:4503.got - 2010.05.20 12:12:06.
