data_PCOD9565999
_publ_section_title
;
Structure prediction by ZEFSAII (Michael W. Deem and Ramdas Pophale) SiO2 
 PCOD9565999
Probable space group: P 4/N C C
;
_chemical_formula_sum "Si O2"
_cell_formula_units_Z 100
_cell_length_a 13.991528
_cell_length_b 13.991528
_cell_length_c 24.284508
_cell_angle_alpha 90.000000
_cell_angle_beta 90.000000
_cell_angle_gamma 90.000000
_cell_volume 4754.004637
_symmetry_space_group_name_H-M "P 4/N C C"
_symmetry_group_IT_number 130
_symmetry_cell_setting 'tetragonal'
loop_
_space_group_symop_operation_xyz
x,y,z
1/2-y,x,z
1/2-x,1/2-y,z
y,1/2-x,z
1/2+x,-y,1/2-z
-x,1/2+y,1/2-z
1/2+y,1/2+x,1/2-z
-y,-x,1/2-z
-x,-y,-z
1/2+y,-x,-z
1/2+x,1/2+y,-z
-y,1/2+x,-z
1/2-x,y,1/2+z
x,1/2-y,1/2+z
1/2-y,1/2-x,1/2+z
y,x,1/2+z
loop_
_atom_site_type_symbol
_atom_site_label
_atom_site_fract_x
_atom_site_fract_y
_atom_site_fract_z
Si Si1 0.736361 0.533251 0.983412
Si Si2 0.021262 0.960029 0.438564
Si Si3 0.592003 0.744259 0.697469
Si Si4 0.548088 0.257934 0.901522
Si Si5 0.148332 0.927128 0.599034
Si Si6 0.250000 0.250000 0.024889
Si Si7 0.090180 0.266234 0.672324
O O1 0.645643 0.519507 0.944953
O O2 0.809155 0.453666 0.960638
O O3 0.781097 0.637232 0.977080
O O4 0.715790 0.513753 0.047306
O O5 0.130048 0.948152 0.417621
O O6 0.000000 0.000000 0.500000
O O7 0.957817 0.026359 0.398765
O O8 0.661555 0.655082 0.686241
O O9 0.504680 0.746819 0.656349
O O10 0.570378 0.738628 0.762357
O O11 0.638844 0.186922 0.896941
O O12 0.210015 0.991793 0.641201
O O13 0.149749 0.168574 0.659854
#
# Coordination Sequence:
#
# PCOD9565999 Si02
#       7
#    16  16  16  16  16   4  16
#     4  12  24  39  62  97 131 170 226 287 349 409
#     4  12  23  43  59  94 139 174 227 284 339 428
#     4   9  20  37  63  98 131 170 231 300 356 407
#     4  12  24  39  61  89 139 187 222 276 350 427
#     4  12  24  39  64  93 129 184 228 281 342 425
#     4  12  24  36  68 100 118 176 224 292 352 386
#     4   9  20  41  67  99 136 170 227 304 358 403
#
# _framework density 21.034896
#
# number of rings (size 3 to 8) (size 9 to 14) (size 15 to 20)
#    0.000    0.960    4.800    2.880    2.240    1.280 
#    0.000    1.600    0.000    2.880    0.000    6.720 
#    0.000    0.000    0.000    0.000    0.000    0.000 
#
# Total GULP energy -556984.719216 kJ/mol
# GULP energy per Si atom -5569.847192 kJ/mol
# Density = 2.098702 g / cm^3
# Si number density = 21.034896 Si / 1000 Ang^3
#
#
#
# Elastic Constant Matrix: (Units=GPa)
#
#
# Indices 1 2 3 4 5 6 
#
# 1 98.4889 11.1481 30.1755 0.0000 0.0000 0.0000
# 2 11.1481 98.4889 30.1755 0.0000 0.0000 0.0000
# 3 30.1755 30.1755 86.6973 0.0000 0.0000 0.0000
# 4 0.0000 0.0000 0.0000 28.6570 0.0000 0.0000
# 5 0.0000 0.0000 0.0000 0.0000 28.6570 0.0000
# 6 0.0000 0.0000 0.0000 0.0000 0.0000 20.4416
#
#
#
# Elastic Compliance Matrix: (Units=1/GPa)
#
#
# Indices 1 2 3 4 5 6 
#
# 1 0.011366 -0.000083 -0.003927 0.000000 0.000000 0.000000
# 2 -0.000083 0.011366 -0.003927 0.000000 0.000000 0.000000
# 3 -0.003927 -0.003927 0.014268 0.000000 0.000000 0.000000
# 4 0.000000 0.000000 0.000000 0.034895 0.000000 0.000000
# 5 0.000000 0.000000 0.000000 0.000000 0.034895 0.000000
# 6 0.000000 0.000000 0.000000 0.000000 0.000000 0.048920
#
#
# Mechanical properties :
#
#
# Convention : Reuss Voigt Hill
#
# Bulk Modulus (GPa) = 47.33647 47.40815 47.37231
# Shear Modulus (GPa) = 27.99122 29.69619 28.84371
#
# Velocity S-wave (km/s) = 3.65184 3.76141 3.70703
# Velocity P-wave (km/s) = 6.35090 6.43825 6.39472
#
# Compressibility (1/GPa) = 0.02112536
#
# Stress axis : x y z
#
# Youngs Moduli (GPa) = 87.98138 87.98138 70.08681
#
# Poissons Ratio (x) = 0.00733 0.27523
# Poissons Ratio (y) = 0.00733 0.27523
# Poissons Ratio (z) = 0.34550 0.34550
#
# Static dielectric constant tensor:
#      x y z
#    x 1.821570 0.000000 0.000000 
#    y 0.000000 1.821570 0.000000 
#    z 0.000000 0.000000 1.769190 
# 
# From -- ./inp_files/4227.got.cif
#   From: 2010.05.17/outbox.cif.g08.bks.cpg/sg130_3_cif.got.tgz:4227.got - 2010.05.20 12:17:35.
