data_PCOD9565148
_publ_section_title
;
Structure prediction by ZEFSAII (Michael W. Deem and Ramdas Pophale) SiO2 
 PCOD9565148
Probable space group: P 4/N M M
;
_chemical_formula_sum "Si O2"
_cell_formula_units_Z 80
_cell_length_a 18.337688
_cell_length_b 18.337688
_cell_length_c 14.061248
_cell_angle_alpha 90.000000
_cell_angle_beta 90.000000
_cell_angle_gamma 90.000000
_cell_volume 4728.387131
_symmetry_space_group_name_H-M "P 4/N M M"
_symmetry_group_IT_number 129
_symmetry_cell_setting 'tetragonal'
loop_
_space_group_symop_operation_xyz
x,y,z
1/2-y,x,z
1/2-x,1/2-y,z
y,1/2-x,z
1/2+x,-y,-z
-x,1/2+y,-z
1/2+y,1/2+x,-z
-y,-x,-z
-x,-y,-z
1/2+y,-x,-z
1/2+x,1/2+y,-z
-y,1/2+x,-z
1/2-x,y,z
x,1/2-y,z
1/2-y,1/2-x,z
y,x,z
loop_
_atom_site_type_symbol
_atom_site_label
_atom_site_fract_x
_atom_site_fract_y
_atom_site_fract_z
Si Si1 0.669670 0.550278 0.616711
Si Si2 0.062924 0.437077 0.101107
Si Si3 0.954260 0.335945 0.774896
Si Si4 0.061950 0.061950 0.882156
Si Si5 0.512391 0.391165 0.566841
Si Si6 0.834390 0.045090 0.794093
O O1 0.750000 0.580268 0.635354
O O2 0.606513 0.606513 0.641569
O O3 0.660219 0.530815 0.506262
O O4 0.660936 0.479742 0.683673
O O5 0.132015 0.475669 0.150189
O O6 0.000581 0.499420 0.112058
O O7 0.079234 0.420767 0.991412
O O8 0.946783 0.250000 0.792458
O O9 0.963312 0.351947 0.662366
O O10 0.884899 0.384230 0.808603
O O11 0.024638 0.370986 0.827171
O O12 0.575490 0.424511 0.500000
O O13 0.459659 0.459659 0.592969
O O14 0.750000 0.057421 0.818286
#
# Coordination Sequence:
#
# PCOD9565148 Si02
#       6
#    16   8  16   8  16  16
#     4  10  19  31  50  77 106 139 178 219 267 320
#     4   9  18  36  59  77 106 136 175 228 276 320
#     4  11  21  35  56  80 111 147 184 224 273 327
#     4   9  20  36  56  84 101 131 185 232 271 319
#     4  10  18  30  53  77 104 143 183 229 267 313
#     4  10  20  34  54  81 112 143 180 222 269 325
#
# _framework density 16.919087000000001
#
# number of rings (size 3 to 8) (size 9 to 14) (size 15 to 20)
#    0.000    2.000    4.000    0.600    0.000    1.400 
#    0.000    0.000    0.000    0.600    0.000    7.000 
#    0.000    0.000    0.000    0.000    0.000    0.000 
#
# Total GULP energy -445773.834865 kJ/mol
# GULP energy per Si atom -5572.172936 kJ/mol
# Density = 1.688058 g / cm^3
# Si number density = 16.919087 Si / 1000 Ang^3
#
#
#
# Elastic Constant Matrix: (Units=GPa)
#
#
# Indices 1 2 3 4 5 6 
#
# 1 103.0365 56.8667 29.4707 0.0000 0.0000 0.0000
# 2 56.8667 103.0367 29.4703 0.0000 0.0000 0.0000
# 3 29.4707 29.4703 76.7699 0.0000 0.0000 0.0000
# 4 0.0000 0.0000 0.0000 11.9957 0.0000 0.0000
# 5 0.0000 0.0000 0.0000 0.0000 11.9954 0.0000
# 6 0.0000 0.0000 0.0000 0.0000 0.0000 9.9784
#
#
#
# Elastic Compliance Matrix: (Units=1/GPa)
#
#
# Indices 1 2 3 4 5 6 
#
# 1 0.014472 -0.007187 -0.002796 0.000000 0.000000 0.000000
# 2 -0.007187 0.014472 -0.002796 0.000000 0.000000 0.000000
# 3 -0.002796 -0.002796 0.015173 0.000000 0.000000 0.000000
# 4 0.000000 0.000000 0.000000 0.083363 0.000000 0.000000
# 5 0.000000 0.000000 0.000000 0.000000 0.083365 0.000000
# 6 0.000000 0.000000 0.000000 0.000000 0.000000 0.100216
#
#
# Mechanical properties :
#
#
# Convention : Reuss Voigt Hill
#
# Bulk Modulus (GPa) = 53.88976 57.16206 55.52591
# Shear Modulus (GPa) = 14.58545 17.92959 16.25752
#
# Velocity S-wave (km/s) = 2.93929 3.25887 3.10320
# Velocity P-wave (km/s) = 6.59089 6.92959 6.76236
#
# Compressibility (1/GPa) = 0.01855640
#
# Stress axis : x y z
#
# Youngs Moduli (GPa) = 69.09953 69.09991 65.90699
#
# Poissons Ratio (x) = 0.49664 0.18431
# Poissons Ratio (y) = 0.49664 0.18430
# Poissons Ratio (z) = 0.19323 0.19323
#
# Static dielectric constant tensor:
#      x y z
#    x 1.572690 0.000000 0.000000 
#    y 0.000000 1.572690 0.000000 
#    z 0.000000 0.000000 1.586610 
# 
# From -- ./inp_files/4649.got.cif
#   From: 2010.05.17/outbox.cif.g08.bks.cpg/sg129_3_cif.got.tgz:4649.got - 2010.05.20 12:12:06.
