data_PCOD9565377
_publ_section_title
;
Structure prediction by ZEFSAII (Michael W. Deem and Ramdas Pophale) SiO2 
 PCOD9565377
Probable space group: P 4/N M M
;
_chemical_formula_sum "Si O2"
_cell_formula_units_Z 88
_cell_length_a 13.912898
_cell_length_b 13.912898
_cell_length_c 28.615480
_cell_angle_alpha 90.000000
_cell_angle_beta 90.000000
_cell_angle_gamma 90.000000
_cell_volume 5539.062144
_symmetry_space_group_name_H-M "P 4/N M M"
_symmetry_group_IT_number 129
_symmetry_cell_setting 'tetragonal'
loop_
_space_group_symop_operation_xyz
x,y,z
1/2-y,x,z
1/2-x,1/2-y,z
y,1/2-x,z
1/2+x,-y,-z
-x,1/2+y,-z
1/2+y,1/2+x,-z
-y,-x,-z
-x,-y,-z
1/2+y,-x,-z
1/2+x,1/2+y,-z
-y,1/2+x,-z
1/2-x,y,z
x,1/2-y,z
1/2-y,1/2-x,z
y,x,z
loop_
_atom_site_type_symbol
_atom_site_label
_atom_site_fract_x
_atom_site_fract_y
_atom_site_fract_z
Si Si1 0.134932 0.977784 0.173963
Si Si2 0.363512 0.978461 0.355641
Si Si3 0.522561 0.135858 0.905093
Si Si4 0.361937 0.861937 0.000000
Si Si5 0.366413 0.641495 0.266239
Si Si6 0.022280 0.637407 0.537465
O O1 0.250000 0.988134 0.171154
O O2 0.094646 0.908979 0.133198
O O3 0.108595 0.927250 0.223147
O O4 0.078200 0.078200 0.170374
O O5 0.250000 0.997648 0.349588
O O6 0.425271 0.074730 0.350052
O O7 0.394649 0.903741 0.315889
O O8 0.377360 0.943476 0.408928
O O9 0.510898 0.250000 0.898214
O O10 0.423801 0.076200 0.901697
O O11 0.569908 0.119875 0.955994
O O12 0.373838 0.750000 0.985795
O O13 0.250000 0.646150 0.266401
O O14 0.402768 0.750000 0.259947
O O15 0.097451 0.597451 0.500000
O O16 0.004268 0.750000 0.530987
O O17 0.925819 0.574182 0.532054
#
# Coordination Sequence:
#
# PCOD9565377 Si02
#       6
#    16  16  16   8  16  16
#     4  10  20  33  50  72  97 125 158 197 241 289
#     4   9  17  29  45  66  92 120 150 186 230 280
#     4  10  20  33  50  72  98 129 165 203 241 282
#     4   9  17  30  50  74  97 123 158 200 245 293
#     4   9  17  29  45  65  90 120 153 187 222 265
#     4   9  18  31  46  66  92 121 155 195 237 283
#
# _framework density 15.887165
#
# number of rings (size 3 to 8) (size 9 to 14) (size 15 to 20)
#    0.000    2.636    0.000    1.909    0.000    3.455 
#    0.000    3.636    0.000    3.273    0.000    2.545 
#    0.000    3.273    0.000    0.727    0.000    0.182 
#
# Total GULP energy -490292.222436 kJ/mol
# GULP energy per Si atom -5571.502528 kJ/mol
# Density = 1.585100 g / cm^3
# Si number density = 15.887165 Si / 1000 Ang^3
#
#
#
# Elastic Constant Matrix: (Units=GPa)
#
#
# Indices 1 2 3 4 5 6 
#
# 1 91.4979 51.2682 56.5196 0.0000 0.0000 0.0000
# 2 51.2682 91.4979 56.5196 0.0000 0.0000 0.0000
# 3 56.5196 56.5196 100.6415 0.0000 0.0000 0.0000
# 4 0.0000 0.0000 0.0000 25.1531 0.0000 0.0000
# 5 0.0000 0.0000 0.0000 0.0000 25.1531 0.0000
# 6 0.0000 0.0000 0.0000 0.0000 0.0000 10.4980
#
#
#
# Elastic Compliance Matrix: (Units=1/GPa)
#
#
# Indices 1 2 3 4 5 6 
#
# 1 0.018735 -0.006122 -0.007083 0.000000 0.000000 0.000000
# 2 -0.006122 0.018735 -0.007083 0.000000 0.000000 0.000000
# 3 -0.007083 -0.007083 0.017892 0.000000 0.000000 0.000000
# 4 0.000000 0.000000 0.000000 0.039756 0.000000 0.000000
# 5 0.000000 0.000000 0.000000 0.000000 0.039756 0.000000
# 6 0.000000 0.000000 0.000000 0.000000 0.000000 0.095256
#
#
# Mechanical properties :
#
#
# Convention : Reuss Voigt Hill
#
# Bulk Modulus (GPa) = 67.63766 68.02800 67.83283
# Shear Modulus (GPa) = 18.13980 20.11619 19.12800
#
# Velocity S-wave (km/s) = 3.38270 3.56222 3.47362
# Velocity P-wave (km/s) = 7.61072 7.73509 7.67316
#
# Compressibility (1/GPa) = 0.01478466
#
# Stress axis : x y z
#
# Youngs Moduli (GPa) = 53.37580 53.37580 55.89044
#
# Poissons Ratio (x) = 0.32678 0.39589
# Poissons Ratio (y) = 0.32678 0.39589
# Poissons Ratio (z) = 0.37808 0.37808
#
# Static dielectric constant tensor:
#      x y z
#    x 1.511550 0.000000 0.000000 
#    y 0.000000 1.511550 0.000000 
#    z 0.000000 0.000000 1.539900 
# 
# From -- ./inp_files/7004.got.cif
#   From: 2010.05.17/outbox.cif.g08.bks.cpg/sg129_4_cif.got.tgz:7004.got - 2010.05.20 12:12:06.
