data_PCOD9565642
_publ_section_title
;
Structure prediction by ZEFSAII (Michael W. Deem and Ramdas Pophale) SiO2 
 PCOD9565642
Probable space group: P 4/N C C
;
_chemical_formula_sum "Si O2"
_cell_formula_units_Z 72
_cell_length_a 28.591819
_cell_length_b 28.591819
_cell_length_c 5.565954
_cell_angle_alpha 90.000000
_cell_angle_beta 90.000000
_cell_angle_gamma 90.000000
_cell_volume 4550.123500
_symmetry_space_group_name_H-M "P 4/N C C"
_symmetry_group_IT_number 130
_symmetry_cell_setting 'tetragonal'
loop_
_space_group_symop_operation_xyz
x,y,z
1/2-y,x,z
1/2-x,1/2-y,z
y,1/2-x,z
1/2+x,-y,1/2-z
-x,1/2+y,1/2-z
1/2+y,1/2+x,1/2-z
-y,-x,1/2-z
-x,-y,-z
1/2+y,-x,-z
1/2+x,1/2+y,-z
-y,1/2+x,-z
1/2-x,y,1/2+z
x,1/2-y,1/2+z
1/2-y,1/2-x,1/2+z
y,x,1/2+z
loop_
_atom_site_type_symbol
_atom_site_label
_atom_site_fract_x
_atom_site_fract_y
_atom_site_fract_z
Si Si1 0.550961 0.272358 0.175637
Si Si2 0.556926 0.375843 0.094959
Si Si3 0.343364 0.763856 0.899996
Si Si4 0.948597 0.524797 0.997956
Si Si5 0.862170 0.137831 0.750000
O O1 0.533452 0.244946 0.413074
O O2 0.542383 0.327378 0.217206
O O3 0.607020 0.262993 0.144453
O O4 0.592029 0.407972 0.250000
O O5 0.514439 0.408842 0.019502
O O6 0.587690 0.359144 0.869872
O O7 0.320222 0.755478 0.639758
O O8 0.355853 0.818489 0.927581
O O9 0.948297 0.554002 0.750700
O O10 0.000000 0.500000 0.000000
#
# Coordination Sequence:
#
# PCOD9565642 Si02
#       5
#    16  16  16  16   8
#     4  10  20  36  45  68  97 107 150 207 224 284
#     4  12  22  30  56  72  88 132 152 180 265 296
#     4  10  20  36  45  65  91 103 136 205 224 281
#     4  10  20  36  45  68 106 115 146 196 215 291
#     4  12  22  30  56  69  82 116 154 180 254 300
#
# _framework density 15.823745000000001
#
# number of rings (size 3 to 8) (size 9 to 14) (size 15 to 20)
#    0.000    1.333    6.667    4.000    0.000    0.000 
#    0.000    0.000    0.000    2.000    0.000    0.000 
#    0.000    0.000    0.000    0.000    0.000    0.000 
#
# Total GULP energy -401628.736280 kJ/mol
# GULP energy per Si atom -5578.176893 kJ/mol
# Density = 1.578773 g / cm^3
# Si number density = 15.823745 Si / 1000 Ang^3
#
#
#
# Elastic Constant Matrix: (Units=GPa)
#
#
# Indices 1 2 3 4 5 6 
#
# 1 52.2161 53.2629 22.8853 0.0000 0.0000 0.0000
# 2 53.2629 52.2124 22.8852 0.0000 0.0000 0.0000
# 3 22.8853 22.8852 134.8303 0.0000 0.0000 0.0000
# 4 0.0000 0.0000 0.0000 15.2954 0.0000 0.0000
# 5 0.0000 0.0000 0.0000 0.0000 15.2960 0.0000
# 6 0.0000 0.0000 0.0000 0.0000 0.0000 20.1380
#
#
#
# Elastic Compliance Matrix: (Units=1/GPa)
#
#
# Indices 1 2 3 4 5 6 
#
# 1 -0.471656 0.481908 -0.001740 0.000000 0.000000 0.000000
# 2 0.481908 -0.471692 -0.001734 0.000000 0.000000 0.000000
# 3 -0.001740 -0.001734 0.008006 0.000000 0.000000 0.000000
# 4 0.000000 0.000000 0.000000 0.065379 0.000000 0.000000
# 5 0.000000 0.000000 0.000000 0.000000 0.065377 0.000000
# 6 0.000000 0.000000 0.000000 0.000000 0.000000 0.049657
#
#
# Mechanical properties :
#
#
# Convention : Reuss Voigt Hill
#
# Bulk Modulus (GPa) = 46.45344 48.59172 47.52258
# Shear Modulus (GPa) = -2.93320 19.49423 8.28051
#
# Velocity S-wave (km/s) = -1.36297 3.51374 2.29005
# Velocity P-wave (km/s) = 5.19072 6.87289 6.09016
#
# Compressibility (1/GPa) = 0.02152693
#
# Stress axis : x y z
#
# Youngs Moduli (GPa) = -2.12019 -2.12003 124.89957
#
# Poissons Ratio (x) = 1.02166 0.21731
# Poissons Ratio (y) = 1.02174 0.21662
# Poissons Ratio (z) = -0.00369 -0.00368
#
# Static dielectric constant tensor:
#      x y z
#    x 1.525240 0.000000 0.000000 
#    y 0.000000 1.525240 0.000000 
#    z 0.000000 0.000000 1.672890 
# 
# From -- ./inp_files/203.got.cif
#   From: 2010.05.17/outbox.cif.g08.bks.cpg/sg130_1_cif.got.tgz:203.got - 2010.05.20 12:17:35.
