data_PCOD9565578
_publ_section_title
;
Structure prediction by ZEFSAII (Michael W. Deem and Ramdas Pophale) SiO2 
 PCOD9565578
Probable space group: P 4/N C C
;
_chemical_formula_sum "Si O2"
_cell_formula_units_Z 112
_cell_length_a 13.461738
_cell_length_b 13.461738
_cell_length_c 29.772264
_cell_angle_alpha 90.000000
_cell_angle_beta 90.000000
_cell_angle_gamma 90.000000
_cell_volume 5395.281748
_symmetry_space_group_name_H-M "P 4/N C C"
_symmetry_group_IT_number 130
_symmetry_cell_setting 'tetragonal'
loop_
_space_group_symop_operation_xyz
x,y,z
1/2-y,x,z
1/2-x,1/2-y,z
y,1/2-x,z
1/2+x,-y,1/2-z
-x,1/2+y,1/2-z
1/2+y,1/2+x,1/2-z
-y,-x,1/2-z
-x,-y,-z
1/2+y,-x,-z
1/2+x,1/2+y,-z
-y,1/2+x,-z
1/2-x,y,1/2+z
x,1/2-y,1/2+z
1/2-y,1/2-x,1/2+z
y,x,1/2+z
loop_
_atom_site_type_symbol
_atom_site_label
_atom_site_fract_x
_atom_site_fract_y
_atom_site_fract_z
Si Si1 0.396858 0.619311 0.898933
Si Si2 0.256389 0.508723 0.165398
Si Si3 0.685758 0.399001 0.491168
Si Si4 0.394945 0.177553 0.084066
Si Si5 0.188808 0.906269 0.355784
Si Si6 0.485842 0.941439 0.567000
Si Si7 0.251793 0.583839 0.758005
O O1 0.467197 0.649688 0.857322
O O2 0.284995 0.629314 0.882719
O O3 0.422721 0.513861 0.921647
O O4 0.420087 0.695801 0.938625
O O5 0.309114 0.422057 0.137284
O O6 0.319215 0.610227 0.155601
O O7 0.252215 0.501894 0.218921
O O8 0.794938 0.374659 0.508696
O O9 0.625481 0.476290 0.522215
O O10 0.375314 0.291846 0.071423
O O11 0.482384 0.107790 0.065587
O O12 0.129651 0.975993 0.389892
O O13 0.232524 0.949128 0.309090
O O14 0.163402 0.663402 0.750000
O O15 0.352618 0.647382 0.750000
#
# Coordination Sequence:
#
# PCOD9565578 Si02
#       7
#    16  16  16  16  16  16  16
#     4  12  21  36  59  85 118 153 193 247 296 353
#     4  10  19  33  59  87 115 153 197 247 295 346
#     4  11  23  37  60  90 117 150 191 249 305 350
#     4  10  20  36  55  80 119 160 193 230 291 362
#     4  10  20  36  57  86 120 152 194 250 297 342
#     4  11  23  39  58  87 120 158 199 239 296 362
#     4   9  16  29  54  86 116 148 188 242 302 347
#
# _framework density 20.758877999999999
#
# number of rings (size 3 to 8) (size 9 to 14) (size 15 to 20)
#    0.000    1.571    4.286    2.571    2.000    0.000 
#    0.000    1.429    6.286    0.429    0.000    0.000 
#    0.000    0.000    0.000    0.000    0.000    0.000 
#
# Total GULP energy -624362.206993 kJ/mol
# GULP energy per Si atom -5574.662562 kJ/mol
# Density = 2.071163 g / cm^3
# Si number density = 20.758878 Si / 1000 Ang^3
#
#
#
# Elastic Constant Matrix: (Units=GPa)
#
#
# Indices 1 2 3 4 5 6 
#
# 1 57.5278 4.1580 8.5639 0.0000 0.0000 0.0000
# 2 4.1580 57.5280 8.5641 0.0000 0.0000 0.0000
# 3 8.5639 8.5641 118.3686 0.0000 0.0000 0.0000
# 4 0.0000 0.0000 0.0000 18.8871 0.0000 0.0000
# 5 0.0000 0.0000 0.0000 0.0000 18.8869 0.0000
# 6 0.0000 0.0000 0.0000 0.0000 0.0000 18.8755
#
#
#
# Elastic Compliance Matrix: (Units=1/GPa)
#
#
# Indices 1 2 3 4 5 6 
#
# 1 0.017640 -0.001097 -0.001197 0.000000 0.000000 0.000000
# 2 -0.001097 0.017640 -0.001197 0.000000 0.000000 0.000000
# 3 -0.001197 -0.001197 0.008621 0.000000 0.000000 0.000000
# 4 0.000000 0.000000 0.000000 0.052946 0.000000 0.000000
# 5 0.000000 0.000000 0.000000 0.000000 0.052947 0.000000
# 6 0.000000 0.000000 0.000000 0.000000 0.000000 0.052979
#
#
# Mechanical properties :
#
#
# Convention : Reuss Voigt Hill
#
# Bulk Modulus (GPa) = 27.08510 30.66627 28.87569
# Shear Modulus (GPa) = 22.51624 25.47246 23.99435
#
# Velocity S-wave (km/s) = 3.29698 3.50675 3.40348
# Velocity P-wave (km/s) = 5.25065 5.58579 5.42081
#
# Compressibility (1/GPa) = 0.03692066
#
# Stress axis : x y z
#
# Youngs Moduli (GPa) = 56.68819 56.68842 115.99070
#
# Poissons Ratio (x) = 0.06218 0.13883
# Poissons Ratio (y) = 0.06218 0.13883
# Poissons Ratio (z) = 0.06785 0.06785
#
# Static dielectric constant tensor:
#      x y z
#    x 1.789970 0.000000 0.000000 
#    y 0.000000 1.789970 0.000000 
#    z 0.000000 0.000000 1.787030 
# 
# From -- ./inp_files/4969.got.cif
#   From: 2010.05.17/outbox.cif.g08.bks.cpg/sg130_3_cif.got.tgz:4969.got - 2010.05.20 12:17:35.
