data_PCOD9565961
_publ_section_title
;
Structure prediction by ZEFSAII (Michael W. Deem and Ramdas Pophale) SiO2 
 PCOD9565961
Probable space group: P 4/N C C
;
_chemical_formula_sum "Si O2"
_cell_formula_units_Z 56
_cell_length_a 10.960274
_cell_length_b 10.960274
_cell_length_c 18.683356
_cell_angle_alpha 90.000000
_cell_angle_beta 90.000000
_cell_angle_gamma 90.000000
_cell_volume 2244.386831
_symmetry_space_group_name_H-M "P 4/N C C"
_symmetry_group_IT_number 130
_symmetry_cell_setting 'tetragonal'
loop_
_space_group_symop_operation_xyz
x,y,z
1/2-y,x,z
1/2-x,1/2-y,z
y,1/2-x,z
1/2+x,-y,1/2-z
-x,1/2+y,1/2-z
1/2+y,1/2+x,1/2-z
-y,-x,1/2-z
-x,-y,-z
1/2+y,-x,-z
1/2+x,1/2+y,-z
-y,1/2+x,-z
1/2-x,y,1/2+z
x,1/2-y,1/2+z
1/2-y,1/2-x,1/2+z
y,x,1/2+z
loop_
_atom_site_type_symbol
_atom_site_label
_atom_site_fract_x
_atom_site_fract_y
_atom_site_fract_z
Si Si1 0.348988 0.074389 0.629369
Si Si2 0.058422 0.695159 0.011244
Si Si3 0.882510 0.117491 0.750000
Si Si4 0.735202 0.952814 0.668270
O O1 0.408612 0.204748 0.641755
O O2 0.362284 0.030206 0.547828
O O3 0.396583 0.973817 0.683293
O O4 0.992574 0.720534 0.085922
O O5 0.110629 0.822758 0.980479
O O6 0.924398 0.245614 0.785478
O O7 0.626936 0.857590 0.682935
#
# Coordination Sequence:
#
# PCOD9565961 Si02
#       4
#    16  16   8  16
#     4  11  25  46  73 107 144 191 246 293 358 440
#     4  11  24  45  72 112 142 187 250 299 358 424
#     4  12  24  46  71 105 142 186 230 298 364 421
#     4  11  25  46  73 107 144 191 246 293 358 440
#
# _framework density 24.951136999999999
#
# number of rings (size 3 to 8) (size 9 to 14) (size 15 to 20)
#    0.000    0.857    2.857    3.429    4.000    6.857 
#    0.000    1.429    0.000    0.000    0.000    0.000 
#    0.000    0.000    0.000    0.000    0.000    0.000 
#
# Total GULP energy -313723.311089 kJ/mol
# GULP energy per Si atom -5602.201984 kJ/mol
# Density = 2.489435 g / cm^3
# Si number density = 24.951137 Si / 1000 Ang^3
#
#
#
# Elastic Constant Matrix: (Units=GPa)
#
#
# Indices 1 2 3 4 5 6 
#
# 1 100.9567 69.0869 41.4151 0.0000 0.0000 0.0000
# 2 69.0869 100.9561 41.4147 0.0000 0.0000 0.0000
# 3 41.4151 41.4147 146.2503 0.0000 0.0000 0.0000
# 4 0.0000 0.0000 0.0000 45.5593 0.0000 0.0000
# 5 0.0000 0.0000 0.0000 0.0000 45.5589 0.0000
# 6 0.0000 0.0000 0.0000 0.0000 0.0000 54.0201
#
#
#
# Elastic Compliance Matrix: (Units=1/GPa)
#
#
# Indices 1 2 3 4 5 6 
#
# 1 0.019100 -0.012278 -0.001932 0.000000 0.000000 0.000000
# 2 -0.012278 0.019100 -0.001932 0.000000 0.000000 0.000000
# 3 -0.001932 -0.001932 0.007932 0.000000 0.000000 0.000000
# 4 0.000000 0.000000 0.000000 0.021949 0.000000 0.000000
# 5 0.000000 0.000000 0.000000 0.000000 0.021950 0.000000
# 6 0.000000 0.000000 0.000000 0.000000 0.000000 0.018512
#
#
# Mechanical properties :
#
#
# Convention : Reuss Voigt Hill
#
# Bulk Modulus (GPa) = 72.21160 72.44404 72.32782
# Shear Modulus (GPa) = 34.37807 42.11075 38.24441
#
# Velocity S-wave (km/s) = 3.71592 4.11265 3.91931
# Velocity P-wave (km/s) = 6.88584 7.18674 7.03790
#
# Compressibility (1/GPa) = 0.01384819
#
# Stress axis : x y z
#
# Youngs Moduli (GPa) = 52.35635 52.35613 126.07668
#
# Poissons Ratio (x) = 0.64283 0.24356
# Poissons Ratio (y) = 0.64283 0.24355
# Poissons Ratio (z) = 0.10114 0.10114
#
# Static dielectric constant tensor:
#      x y z
#    x 1.952880 0.000000 0.000000 
#    y 0.000000 1.952880 0.000000 
#    z 0.000000 0.000000 1.927390 
# 
# From -- ./inp_files/3437.got.cif
#   From: 2010.05.17/outbox.cif.g08.bks.cpg/sg130_2_cif.got.tgz:3437.got - 2010.05.20 12:17:35.
