data_PCOD9565620
_publ_section_title
;
Structure prediction by ZEFSAII (Michael W. Deem and Ramdas Pophale) SiO2 
 PCOD9565620
Probable space group: P 4/N C C
;
_chemical_formula_sum "Si O2"
_cell_formula_units_Z 84
_cell_length_a 17.473676
_cell_length_b 17.473676
_cell_length_c 14.420073
_cell_angle_alpha 90.000000
_cell_angle_beta 90.000000
_cell_angle_gamma 90.000000
_cell_volume 4402.871559
_symmetry_space_group_name_H-M "P 4/N C C"
_symmetry_group_IT_number 130
_symmetry_cell_setting 'tetragonal'
loop_
_space_group_symop_operation_xyz
x,y,z
1/2-y,x,z
1/2-x,1/2-y,z
y,1/2-x,z
1/2+x,-y,1/2-z
-x,1/2+y,1/2-z
1/2+y,1/2+x,1/2-z
-y,-x,1/2-z
-x,-y,-z
1/2+y,-x,-z
1/2+x,1/2+y,-z
-y,1/2+x,-z
1/2-x,y,1/2+z
x,1/2-y,1/2+z
1/2-y,1/2-x,1/2+z
y,x,1/2+z
loop_
_atom_site_type_symbol
_atom_site_label
_atom_site_fract_x
_atom_site_fract_y
_atom_site_fract_z
Si Si1 0.978612 0.584429 0.080498
Si Si2 0.501655 0.384176 0.777285
Si Si3 0.412537 0.039089 0.110659
Si Si4 0.250000 0.250000 0.267350
Si Si5 0.582580 0.758574 0.162033
Si Si6 0.129272 0.214661 0.044062
O O1 0.922523 0.520877 0.125237
O O2 0.958685 0.664813 0.126514
O O3 0.061727 0.548964 0.101171
O O4 0.957505 0.582812 0.972638
O O5 0.586108 0.413893 0.750000
O O6 0.444515 0.425870 0.705029
O O7 0.477283 0.296757 0.787114
O O8 0.323700 0.057480 0.093552
O O9 0.158240 0.226243 0.277494
O O10 0.614789 0.718426 0.066827
O O11 0.201347 0.159875 0.067743
#
# Coordination Sequence:
#
# PCOD9565620 Si02
#       6
#    16  16  16   4  16  16
#     4  10  20  35  52  72 114 157 189 237 279 338
#     4  10  21  34  51  76 111 155 191 234 282 348
#     4  10  20  34  51  76 110 155 198 226 275 356
#     4  12  16  28  56  82 108 156 178 216 296 354
#     4  12  18  34  54  76 115 154 186 233 299 344
#     4  11  18  31  51  79 112 148 181 228 286 341
#
# _framework density 19.078458000000001
#
# number of rings (size 3 to 8) (size 9 to 14) (size 15 to 20)
#    0.000    1.333    7.619    0.000    0.000    1.524 
#    0.000    0.000    0.000    0.000    0.000    0.000 
#    0.000   64.000    0.000    0.000    0.000    0.000 
#
# Total GULP energy -467736.809973 kJ/mol
# GULP energy per Si atom -5568.295357 kJ/mol
# Density = 1.903503 g / cm^3
# Si number density = 19.078458 Si / 1000 Ang^3
#
#
#
# Elastic Constant Matrix: (Units=GPa)
#
#
# Indices 1 2 3 4 5 6 
#
# 1 95.4035 63.1802 13.9813 0.0000 0.0000 0.0000
# 2 63.1802 95.4045 13.9813 0.0000 0.0000 0.0000
# 3 13.9813 13.9813 60.7297 0.0000 0.0000 0.0000
# 4 0.0000 0.0000 0.0000 23.6832 0.0000 0.0000
# 5 0.0000 0.0000 0.0000 0.0000 23.6830 0.0000
# 6 0.0000 0.0000 0.0000 0.0000 0.0000 51.8035
#
#
#
# Elastic Compliance Matrix: (Units=1/GPa)
#
#
# Indices 1 2 3 4 5 6 
#
# 1 0.018803 -0.012230 -0.001513 0.000000 0.000000 0.000000
# 2 -0.012230 0.018803 -0.001513 0.000000 0.000000 0.000000
# 3 -0.001513 -0.001513 0.017163 0.000000 0.000000 0.000000
# 4 0.000000 0.000000 0.000000 0.042224 0.000000 0.000000
# 5 0.000000 0.000000 0.000000 0.000000 0.042224 0.000000
# 6 0.000000 0.000000 0.000000 0.000000 0.000000 0.019304
#
#
# Mechanical properties :
#
#
# Convention : Reuss Voigt Hill
#
# Bulk Modulus (GPa) = 41.22739 48.20260 44.71500
# Shear Modulus (GPa) = 25.36539 30.52695 27.94617
#
# Velocity S-wave (km/s) = 3.65023 4.00443 3.83143
# Velocity P-wave (km/s) = 6.27868 6.83381 6.56212
#
# Compressibility (1/GPa) = 0.02425572
#
# Stress axis : x y z
#
# Youngs Moduli (GPa) = 53.18330 53.18387 58.26440
#
# Poissons Ratio (x) = 0.65045 0.08816
# Poissons Ratio (y) = 0.65044 0.08816
# Poissons Ratio (z) = 0.08048 0.08047
#
# Static dielectric constant tensor:
#      x y z
#    x 1.707940 0.000000 0.000000 
#    y 0.000000 1.707940 0.000000 
#    z 0.000000 0.000000 1.754040 
# 
# From -- ./inp_files/2408.got.cif
#   From: 2010.05.17/outbox.cif.g08.bks.cpg/sg130_2_cif.got.tgz:2408.got - 2010.05.20 12:17:35.
