data_PCOD9565297
_publ_section_title
;
Structure prediction by ZEFSAII (Michael W. Deem and Ramdas Pophale) SiO2 
 PCOD9565297
Probable space group: P 4/N M M
;
_chemical_formula_sum "Si O2"
_cell_formula_units_Z 112
_cell_length_a 15.579021
_cell_length_b 15.579021
_cell_length_c 23.257486
_cell_angle_alpha 90.000000
_cell_angle_beta 90.000000
_cell_angle_gamma 90.000000
_cell_volume 5644.728962
_symmetry_space_group_name_H-M "P 4/N M M"
_symmetry_group_IT_number 129
_symmetry_cell_setting 'tetragonal'
loop_
_space_group_symop_operation_xyz
x,y,z
1/2-y,x,z
1/2-x,1/2-y,z
y,1/2-x,z
1/2+x,-y,-z
-x,1/2+y,-z
1/2+y,1/2+x,-z
-y,-x,-z
-x,-y,-z
1/2+y,-x,-z
1/2+x,1/2+y,-z
-y,1/2+x,-z
1/2-x,y,z
x,1/2-y,z
1/2-y,1/2-x,z
y,x,z
loop_
_atom_site_type_symbol
_atom_site_label
_atom_site_fract_x
_atom_site_fract_y
_atom_site_fract_z
Si Si1 0.344362 0.481174 0.235541
Si Si2 0.158142 0.581497 0.791513
Si Si3 0.531069 0.112839 0.913673
Si Si4 0.515277 0.842493 0.959191
Si Si5 0.551418 0.154581 0.362122
Si Si6 0.848440 0.990136 0.328404
Si Si7 0.501774 0.854857 0.510651
O O1 0.250000 0.447916 0.222446
O O2 0.419115 0.419115 0.214696
O O3 0.357770 0.576168 0.210958
O O4 0.352590 0.494874 0.304417
O O5 0.250000 0.624939 0.780892
O O6 0.159526 0.537870 0.853579
O O7 0.146438 0.513782 0.739563
O O8 0.463453 0.036548 0.905653
O O9 0.621779 0.069655 0.929201
O O10 0.502221 0.158493 0.972209
O O11 0.539050 0.750000 0.937667
O O12 0.589733 0.910268 0.949303
O O13 0.592326 0.250000 0.360333
O O14 0.497155 0.149142 0.420011
O O15 0.618432 0.076431 0.359541
O O16 0.750000 0.971090 0.342626
O O17 0.913215 0.913215 0.341335
O O18 0.414315 0.914315 0.500000
O O19 0.500002 0.750000 0.492616
O O20 0.584070 0.915931 0.491560
#
# Coordination Sequence:
#
# PCOD9565297 Si02
#       7
#    16  16  16  16  16  16  16
#     4  10  20  34  53  77 106 138 171 208 251 302
#     4  10  19  32  53  76  98 128 166 211 260 303
#     4   9  17  31  50  69  93 124 158 199 243 292
#     4   9  18  31  48  70  93 121 155 191 239 294
#     4   9  18  35  58  80 105 137 174 222 274 316
#     4  10  20  33  51  76 107 143 179 214 256 308
#     4  10  21  37  58  84 113 146 185 229 277 328
#
# _framework density 19.841519000000002
#
# number of rings (size 3 to 8) (size 9 to 14) (size 15 to 20)
#    0.000    2.429    0.000    4.714    0.000    2.429 
#    0.000    4.286    0.000    9.429    0.000    6.000 
#    0.000    0.000    0.000    0.000    0.000    0.000 
#
# Total GULP energy -623742.630240 kJ/mol
# GULP energy per Si atom -5569.130627 kJ/mol
# Density = 1.979636 g / cm^3
# Si number density = 19.841519 Si / 1000 Ang^3
#
#
#
# Elastic Constant Matrix: (Units=GPa)
#
#
# Indices 1 2 3 4 5 6 
#
# 1 124.6915 74.1533 5.2183 0.0000 0.0000 0.0000
# 2 74.1533 124.6915 5.2183 0.0000 0.0000 0.0000
# 3 5.2183 5.2183 58.0159 0.0000 0.0000 0.0000
# 4 0.0000 0.0000 0.0000 14.3739 0.0000 0.0000
# 5 0.0000 0.0000 0.0000 0.0000 14.3739 0.0000
# 6 0.0000 0.0000 0.0000 0.0000 0.0000 -12.5227
#
#
#
# Elastic Compliance Matrix: (Units=1/GPa)
#
#
# Indices 1 2 3 4 5 6 
#
# 1 0.012420 -0.007367 -0.000454 0.000000 0.000000 0.000000
# 2 -0.007367 0.012420 -0.000454 0.000000 0.000000 0.000000
# 3 -0.000454 -0.000454 0.017318 0.000000 0.000000 0.000000
# 4 0.000000 0.000000 0.000000 0.069570 0.000000 0.000000
# 5 0.000000 0.000000 0.000000 0.000000 0.069570 0.000000
# 6 0.000000 0.000000 0.000000 0.000000 0.000000 -0.079855
#
#
# Mechanical properties :
#
#
# Convention : Reuss Voigt Hill
#
# Bulk Modulus (GPa) = 39.05299 52.95322 46.00310
# Shear Modulus (GPa) = 39.51571 18.09895 28.80733
#
# Velocity S-wave (km/s) = 4.46754 3.02350 3.81448
# Velocity P-wave (km/s) = 6.80713 6.23977 6.52962
#
# Compressibility (1/GPa) = 0.02560624
#
# Stress axis : x y z
#
# Youngs Moduli (GPa) = 80.51558 80.51558 57.74205
#
# Poissons Ratio (x) = 0.59316 0.02624
# Poissons Ratio (y) = 0.59316 0.02624
# Poissons Ratio (z) = 0.03659 0.03659
#
# Static dielectric constant tensor:
#      x y z
#    x 1.705910 0.000000 0.000000 
#    y 0.000000 1.705910 0.000000 
#    z 0.000000 0.000000 1.737560 
# 
# From -- ./inp_files/7153.got.cif
#   From: 2010.05.17/outbox.cif.g08.bks.cpg/sg129_4_cif.got.tgz:7153.got - 2010.05.20 12:12:06.
