data_PCOD9565314
_publ_section_title
;
Structure prediction by ZEFSAII (Michael W. Deem and Ramdas Pophale) SiO2 
 PCOD9565314
Probable space group: P 4/N M M
;
_chemical_formula_sum "Si O2"
_cell_formula_units_Z 80
_cell_length_a 19.701201
_cell_length_b 19.701201
_cell_length_c 12.639073
_cell_angle_alpha 90.000000
_cell_angle_beta 90.000000
_cell_angle_gamma 90.000000
_cell_volume 4905.695932
_symmetry_space_group_name_H-M "P 4/N M M"
_symmetry_group_IT_number 129
_symmetry_cell_setting 'tetragonal'
loop_
_space_group_symop_operation_xyz
x,y,z
1/2-y,x,z
1/2-x,1/2-y,z
y,1/2-x,z
1/2+x,-y,-z
-x,1/2+y,-z
1/2+y,1/2+x,-z
-y,-x,-z
-x,-y,-z
1/2+y,-x,-z
1/2+x,1/2+y,-z
-y,1/2+x,-z
1/2-x,y,z
x,1/2-y,z
1/2-y,1/2-x,z
y,x,z
loop_
_atom_site_type_symbol
_atom_site_label
_atom_site_fract_x
_atom_site_fract_y
_atom_site_fract_z
Si Si1 0.058507 0.327713 0.631191
Si Si2 0.438129 0.669518 0.537595
Si Si3 0.171125 0.442267 0.053281
Si Si4 0.501302 0.883890 0.154023
Si Si5 0.514327 0.400076 0.246513
O O1 0.081239 0.250000 0.619124
O O2 0.118903 0.381098 0.614914
O O3 0.028850 0.339439 0.748741
O O4 0.997895 0.340779 0.548593
O O5 0.372809 0.627192 0.500000
O O6 0.425215 0.750000 0.545896
O O7 0.464101 0.638867 0.648278
O O8 0.250000 0.425215 0.054235
O O9 0.124102 0.375898 0.037434
O O10 0.147553 0.476428 0.162488
O O11 0.155097 0.493581 0.956381
O O12 0.553347 0.946654 0.141355
O O13 0.431893 0.919557 0.189251
O O14 0.462442 0.462442 0.272161
#
# Coordination Sequence:
#
# PCOD9565314 Si02
#       5
#    16  16  16  16  16
#     4  10  20  33  52  79 108 140 176 213 259 316
#     4  11  22  36  55  77 103 137 178 221 271 323
#     4  10  20  33  50  75 107 140 175 214 257 311
#     4   9  17  31  52  75 101 134 173 216 261 304
#     4  10  19  33  55  79 103 131 172 223 269 308
#
# _framework density 16.307575
#
# number of rings (size 3 to 8) (size 9 to 14) (size 15 to 20)
#    0.000    2.000    2.000    2.400    0.000    3.800 
#    0.000    0.000    0.000    3.600    0.000    2.800 
#    0.000    3.200    0.000    0.000    0.000    0.000 
#
# Total GULP energy -446203.876082 kJ/mol
# GULP energy per Si atom -5577.548451 kJ/mol
# Density = 1.627046 g / cm^3
# Si number density = 16.307575 Si / 1000 Ang^3
#
#
#
# Elastic Constant Matrix: (Units=GPa)
#
#
# Indices 1 2 3 4 5 6 
#
# 1 80.2143 55.1228 42.6666 0.0000 0.0000 0.0000
# 2 55.1228 80.2077 42.6624 0.0000 0.0000 0.0000
# 3 42.6666 42.6624 98.9405 0.0000 0.0000 0.0000
# 4 0.0000 0.0000 0.0000 18.2744 0.0000 0.0000
# 5 0.0000 0.0000 0.0000 0.0000 18.2746 0.0000
# 6 0.0000 0.0000 0.0000 0.0000 0.0000 15.3896
#
#
#
# Elastic Compliance Matrix: (Units=1/GPa)
#
#
# Indices 1 2 3 4 5 6 
#
# 1 0.025003 -0.014856 -0.004377 0.000000 0.000000 0.000000
# 2 -0.014856 0.025005 -0.004376 0.000000 0.000000 0.000000
# 3 -0.004377 -0.004376 0.013881 0.000000 0.000000 0.000000
# 4 0.000000 0.000000 0.000000 0.054721 0.000000 0.000000
# 5 0.000000 0.000000 0.000000 0.000000 0.054721 0.000000
# 6 0.000000 0.000000 0.000000 0.000000 0.000000 0.064979
#
#
# Mechanical properties :
#
#
# Convention : Reuss Voigt Hill
#
# Bulk Modulus (GPa) = 59.97580 60.02956 60.00268
# Shear Modulus (GPa) = 17.17722 18.31510 17.74616
#
# Velocity S-wave (km/s) = 3.24902 3.35491 3.30239
# Velocity P-wave (km/s) = 7.13671 7.20403 7.17045
#
# Compressibility (1/GPa) = 0.01667339
#
# Stress axis : x y z
#
# Youngs Moduli (GPa) = 39.99472 39.99279 72.04016
#
# Poissons Ratio (x) = 0.59412 0.31530
# Poissons Ratio (y) = 0.59415 0.31521
# Poissons Ratio (z) = 0.17504 0.17499
#
# Static dielectric constant tensor:
#      x y z
#    x 1.534690 0.000000 0.000000 
#    y 0.000000 1.534700 0.000000 
#    z 0.000000 0.000000 1.545940 
# 
# From -- ./inp_files/4575.got.cif
#   From: 2010.05.17/outbox.cif.g08.bks.cpg/sg129_3_cif.got.tgz:4575.got - 2010.05.20 12:12:06.
