data_PCOD9565796
_publ_section_title
;
Structure prediction by ZEFSAII (Michael W. Deem and Ramdas Pophale) SiO2 
 PCOD9565796
Probable space group: P 4/N C C
;
_chemical_formula_sum "Si O2"
_cell_formula_units_Z 64
_cell_length_a 14.965081
_cell_length_b 14.965081
_cell_length_c 12.075421
_cell_angle_alpha 90.000000
_cell_angle_beta 90.000000
_cell_angle_gamma 90.000000
_cell_volume 2704.334600
_symmetry_space_group_name_H-M "P 4/N C C"
_symmetry_group_IT_number 130
_symmetry_cell_setting 'tetragonal'
loop_
_space_group_symop_operation_xyz
x,y,z
1/2-y,x,z
1/2-x,1/2-y,z
y,1/2-x,z
1/2+x,-y,1/2-z
-x,1/2+y,1/2-z
1/2+y,1/2+x,1/2-z
-y,-x,1/2-z
-x,-y,-z
1/2+y,-x,-z
1/2+x,1/2+y,-z
-y,1/2+x,-z
1/2-x,y,1/2+z
x,1/2-y,1/2+z
1/2-y,1/2-x,1/2+z
y,x,1/2+z
loop_
_atom_site_type_symbol
_atom_site_label
_atom_site_fract_x
_atom_site_fract_y
_atom_site_fract_z
Si Si1 0.895546 0.790464 0.604866
Si Si2 0.093020 0.499790 0.569098
Si Si3 0.003438 0.859776 0.802678
Si Si4 0.317474 0.626810 0.496179
O O1 0.809033 0.855878 0.598970
O O2 0.957558 0.830335 0.507889
O O3 0.955337 0.796341 0.715481
O O4 0.072827 0.432007 0.666566
O O5 0.108386 0.604207 0.592013
O O6 0.000000 0.500000 0.500000
O O7 0.049084 0.818341 0.911852
O O8 0.082675 0.917326 0.750000
O O9 0.220312 0.648614 0.449601
#
# Coordination Sequence:
#
# PCOD9565796 Si02
#       4
#    16  16  16  16
#     4  11  26  44  68 103 140 183 239 290 346 419
#     4  10  22  40  69  92 137 180 217 283 353 406
#     4  11  23  42  68 101 134 182 232 280 350 412
#     4  10  23  42  65  96 132 177 224 278 351 417
#
# _framework density 23.665710000000001
#
# number of rings (size 3 to 8) (size 9 to 14) (size 15 to 20)
#    0.000    1.500    5.000    0.000   10.500    0.000 
#    0.000    5.000    0.000    0.000    0.000    0.000 
#    0.000    0.000    0.000    0.000    0.000    0.000 
#
# Total GULP energy -357426.631776 kJ/mol
# GULP energy per Si atom -5584.791122 kJ/mol
# Density = 2.361185 g / cm^3
# Si number density = 23.665710 Si / 1000 Ang^3
#
#
#
# Elastic Constant Matrix: (Units=GPa)
#
#
# Indices 1 2 3 4 5 6 
#
# 1 127.6726 52.2948 28.7537 0.0000 0.0000 0.0000
# 2 52.2948 127.6727 28.7530 0.0000 0.0000 0.0000
# 3 28.7537 28.7530 41.8105 0.0000 0.0000 0.0000
# 4 0.0000 0.0000 0.0000 22.4907 0.0000 0.0000
# 5 0.0000 0.0000 0.0000 0.0000 22.4904 0.0000
# 6 0.0000 0.0000 0.0000 0.0000 0.0000 43.9024
#
#
#
# Elastic Compliance Matrix: (Units=1/GPa)
#
#
# Indices 1 2 3 4 5 6 
#
# 1 0.010194 -0.003072 -0.004898 0.000000 0.000000 0.000000
# 2 -0.003072 0.010194 -0.004897 0.000000 0.000000 0.000000
# 3 -0.004898 -0.004897 0.030654 0.000000 0.000000 0.000000
# 4 0.000000 0.000000 0.000000 0.044463 0.000000 0.000000
# 5 0.000000 0.000000 0.000000 0.000000 0.044463 0.000000
# 6 0.000000 0.000000 0.000000 0.000000 0.000000 0.022778
#
#
# Mechanical properties :
#
#
# Convention : Reuss Voigt Hill
#
# Bulk Modulus (GPa) = 39.51549 57.41767 48.46658
# Shear Modulus (GPa) = 25.39149 30.26697 27.82923
#
# Velocity S-wave (km/s) = 3.27910 3.58010 3.43290
# Velocity P-wave (km/s) = 5.57408 6.43461 6.01974
#
# Compressibility (1/GPa) = 0.02530653
#
# Stress axis : x y z
#
# Youngs Moduli (GPa) = 98.09632 98.09734 32.62260
#
# Poissons Ratio (x) = 0.30140 0.15977
# Poissons Ratio (y) = 0.30140 0.15977
# Poissons Ratio (z) = 0.48044 0.48042
#
# Static dielectric constant tensor:
#      x y z
#    x 1.938260 0.000000 0.000000 
#    y 0.000000 1.938260 0.000000 
#    z 0.000000 0.000000 1.893930 
# 
# From -- ./inp_files/2149.got.cif
#   From: 2010.05.17/outbox.cif.g08.bks.cpg/sg130_2_cif.got.tgz:2149.got - 2010.05.20 12:17:35.
