data_PCOD9565267
_publ_section_title
;
Structure prediction by ZEFSAII (Michael W. Deem and Ramdas Pophale) SiO2 
 PCOD9565267
Probable space group: P 4/N M M
;
_chemical_formula_sum "Si O2"
_cell_formula_units_Z 128
_cell_length_a 18.270465
_cell_length_b 18.270465
_cell_length_c 23.049886
_cell_angle_alpha 90.000000
_cell_angle_beta 90.000000
_cell_angle_gamma 90.000000
_cell_volume 7694.279941
_symmetry_space_group_name_H-M "P 4/N M M"
_symmetry_group_IT_number 129
_symmetry_cell_setting 'tetragonal'
loop_
_space_group_symop_operation_xyz
x,y,z
1/2-y,x,z
1/2-x,1/2-y,z
y,1/2-x,z
1/2+x,-y,-z
-x,1/2+y,-z
1/2+y,1/2+x,-z
-y,-x,-z
-x,-y,-z
1/2+y,-x,-z
1/2+x,1/2+y,-z
-y,1/2+x,-z
1/2-x,y,z
x,1/2-y,z
1/2-y,1/2-x,z
y,x,z
loop_
_atom_site_type_symbol
_atom_site_label
_atom_site_fract_x
_atom_site_fract_y
_atom_site_fract_z
Si Si1 0.012973 0.891395 0.460620
Si Si2 0.062348 0.557403 0.858565
Si Si3 0.830514 0.550495 0.572452
Si Si4 0.046040 0.335723 0.211884
Si Si5 0.165962 0.954615 0.667016
Si Si6 0.836176 0.545915 0.221152
Si Si7 0.835350 0.165265 0.069878
Si Si8 0.449105 0.667814 0.678013
O O1 0.080650 0.919351 0.500000
O O2 0.029135 0.854697 0.399486
O O3 0.969436 0.839871 0.505136
O O4 0.963069 0.963069 0.448909
O O5 0.118107 0.513583 0.816285
O O6 0.111051 0.604993 0.902818
O O7 0.004818 0.495182 0.881383
O O8 0.012313 0.616421 0.824472
O O9 0.750000 0.580070 0.584059
O O10 0.892748 0.607252 0.587962
O O11 0.840221 0.480008 0.613135
O O12 0.047714 0.250000 0.195630
O O13 0.123545 0.376455 0.206508
O O14 0.016392 0.340660 0.277791
O O15 0.250000 0.930849 0.670104
O O16 0.111965 0.891754 0.688843
O O17 0.157271 0.021941 0.711374
O O18 0.750000 0.546535 0.206233
O O19 0.877049 0.622952 0.212375
O O20 0.750000 0.152733 0.086726
O O21 0.853778 0.250000 0.086431
O O22 0.838668 0.161333 0.000000
O O23 0.420212 0.750000 0.685582
#
# Coordination Sequence:
#
# PCOD9565267 Si02
#       8
#    16  16  16  16  16  16  16  16
#     4  10  19  31  51  72  89 118 159 199 242 296
#     4  10  19  32  53  78 107 138 175 219 254 297
#     4  10  20  33  50  71  93 120 155 195 242 294
#     4  10  20  33  51  75 103 137 171 208 254 299
#     4  11  21  34  52  72  98 126 160 207 249 297
#     4  10  21  35  53  77 103 134 170 211 258 305
#     4   9  18  33  53  77 108 145 179 213 256 303
#     4  10  20  34  50  68  96 129 162 201 246 298
#
# _framework density 16.635735
#
# number of rings (size 3 to 8) (size 9 to 14) (size 15 to 20)
#    0.000    2.000    2.500    2.250    0.000    1.875 
#    0.000    0.000    0.000    2.250    0.000    1.750 
#    0.000    0.000    0.000   23.250    0.000    0.000 
#
# Total GULP energy -713237.996625 kJ/mol
# GULP energy per Si atom -5572.171849 kJ/mol
# Density = 1.659787 g / cm^3
# Si number density = 16.635735 Si / 1000 Ang^3
#
#
#
# Elastic Constant Matrix: (Units=GPa)
#
#
# Indices 1 2 3 4 5 6 
#
# 1 101.2743 61.5794 26.0290 0.0000 0.0000 0.0000
# 2 61.5794 101.2749 26.0289 0.0000 0.0000 0.0000
# 3 26.0290 26.0289 46.3238 0.0000 0.0000 0.0000
# 4 0.0000 0.0000 0.0000 24.2408 0.0000 0.0000
# 5 0.0000 0.0000 0.0000 0.0000 24.2406 0.0000
# 6 0.0000 0.0000 0.0000 0.0000 0.0000 8.8929
#
#
#
# Elastic Compliance Matrix: (Units=1/GPa)
#
#
# Indices 1 2 3 4 5 6 
#
# 1 0.016338 -0.008854 -0.004206 0.000000 0.000000 0.000000
# 2 -0.008854 0.016338 -0.004206 0.000000 0.000000 0.000000
# 3 -0.004206 -0.004206 0.026313 0.000000 0.000000 0.000000
# 4 0.000000 0.000000 0.000000 0.041253 0.000000 0.000000
# 5 0.000000 0.000000 0.000000 0.000000 0.041253 0.000000
# 6 0.000000 0.000000 0.000000 0.000000 0.000000 0.112450
#
#
# Mechanical properties :
#
#
# Convention : Reuss Voigt Hill
#
# Bulk Modulus (GPa) = 40.88233 52.90527 46.89380
# Shear Modulus (GPa) = 16.85607 20.49057 18.67332
#
# Velocity S-wave (km/s) = 3.18660 3.51339 3.35398
# Velocity P-wave (km/s) = 6.17799 6.95196 6.57638
#
# Compressibility (1/GPa) = 0.02446044
#
# Stress axis : x y z
#
# Youngs Moduli (GPa) = 61.20517 61.20567 38.00345
#
# Poissons Ratio (x) = 0.54189 0.15983
# Poissons Ratio (y) = 0.54188 0.15983
# Poissons Ratio (z) = 0.25741 0.25741
#
# Static dielectric constant tensor:
#      x y z
#    x 1.562350 0.000000 0.000000 
#    y 0.000000 1.562350 0.000000 
#    z 0.000000 0.000000 1.551860 
# 
# From -- ./inp_files/7319.got.cif
#   From: 2010.05.17/outbox.cif.g08.bks.cpg/sg129_4_cif.got.tgz:7319.got - 2010.05.20 12:12:06.
