data_PCOD9565836
_publ_section_title
;
Structure prediction by ZEFSAII (Michael W. Deem and Ramdas Pophale) SiO2 
 PCOD9565836
Probable space group: P 4/N C C
;
_chemical_formula_sum "Si O2"
_cell_formula_units_Z 44
_cell_length_a 14.893667
_cell_length_b 14.893667
_cell_length_c 8.548716
_cell_angle_alpha 90.000000
_cell_angle_beta 90.000000
_cell_angle_gamma 90.000000
_cell_volume 1896.287439
_symmetry_space_group_name_H-M "P 4/N C C"
_symmetry_group_IT_number 130
_symmetry_cell_setting 'tetragonal'
loop_
_space_group_symop_operation_xyz
x,y,z
1/2-y,x,z
1/2-x,1/2-y,z
y,1/2-x,z
1/2+x,-y,1/2-z
-x,1/2+y,1/2-z
1/2+y,1/2+x,1/2-z
-y,-x,1/2-z
-x,-y,-z
1/2+y,-x,-z
1/2+x,1/2+y,-z
-y,1/2+x,-z
1/2-x,y,1/2+z
x,1/2-y,1/2+z
1/2-y,1/2-x,1/2+z
y,x,1/2+z
loop_
_atom_site_type_symbol
_atom_site_label
_atom_site_fract_x
_atom_site_fract_y
_atom_site_fract_z
Si Si1 0.750000 0.250000 0.500000
Si Si2 0.479357 0.301878 0.913306
Si Si3 0.160841 0.660841 0.750000
Si Si4 0.961355 0.617292 0.243866
O O1 0.831020 0.240171 0.621818
O O2 0.575450 0.334403 0.855272
O O3 0.480447 0.195267 0.883624
O O4 0.415702 0.361538 0.800941
O O5 0.461947 0.333635 0.088946
O O6 0.035385 0.535385 0.250000
#
# Coordination Sequence:
#
# PCOD9565836 Si02
#       4
#     4  16   8  16
#     4  10  24  38  64 102 148 190 244 294 360 450
#     4  12  27  47  76 106 148 196 240 307 364 434
#     4  11  24  42  66 104 144 193 238 302 370 419
#     4  12  28  50  76 110 151 191 252 299 369 437
#
# _framework density 23.203233000000001
#
# number of rings (size 3 to 8) (size 9 to 14) (size 15 to 20)
#    0.000    0.364    1.818    5.455   15.273    0.727 
#    0.000    3.636    0.000    0.000    0.000    0.000 
#    0.000    0.000    0.000    0.000    0.000    0.000 
#
# Total GULP energy -245785.784461 kJ/mol
# GULP energy per Si atom -5586.040556 kJ/mol
# Density = 2.315042 g / cm^3
# Si number density = 23.203233 Si / 1000 Ang^3
#
#
#
# Elastic Constant Matrix: (Units=GPa)
#
#
# Indices 1 2 3 4 5 6 
#
# 1 69.5900 9.3173 7.9818 0.0000 0.0000 0.0000
# 2 9.3173 69.5900 7.9818 0.0000 0.0000 0.0000
# 3 7.9818 7.9818 134.2217 0.0000 0.0000 0.0000
# 4 0.0000 0.0000 0.0000 35.1791 0.0000 0.0000
# 5 0.0000 0.0000 0.0000 0.0000 35.1791 0.0000
# 6 0.0000 0.0000 0.0000 0.0000 0.0000 30.1689
#
#
#
# Elastic Compliance Matrix: (Units=1/GPa)
#
#
# Indices 1 2 3 4 5 6 
#
# 1 0.014709 -0.001882 -0.000763 0.000000 0.000000 0.000000
# 2 -0.001882 0.014709 -0.000763 0.000000 0.000000 0.000000
# 3 -0.000763 -0.000763 0.007541 0.000000 0.000000 0.000000
# 4 0.000000 0.000000 0.000000 0.028426 0.000000 0.000000
# 5 0.000000 0.000000 0.000000 0.000000 0.028426 0.000000
# 6 0.000000 0.000000 0.000000 0.000000 0.000000 0.033147
#
#
# Mechanical properties :
#
#
# Convention : Reuss Voigt Hill
#
# Bulk Modulus (GPa) = 33.17336 35.99597 34.58467
# Shear Modulus (GPa) = 34.76526 36.64681 35.70603
#
# Velocity S-wave (km/s) = 3.87498 3.97846 3.92706
# Velocity P-wave (km/s) = 5.86076 6.05402 5.95818
#
# Compressibility (1/GPa) = 0.03014467
#
# Stress axis : x y z
#
# Youngs Moduli (GPa) = 67.98402 67.98402 132.60694
#
# Poissons Ratio (x) = 0.12794 0.10115
# Poissons Ratio (y) = 0.12794 0.10115
# Poissons Ratio (z) = 0.05186 0.05186
#
# Static dielectric constant tensor:
#      x y z
#    x 1.964940 0.000000 0.000000 
#    y 0.000000 1.964940 0.000000 
#    z 0.000000 0.000000 1.960940 
# 
# From -- ./inp_files/430.got.cif
#   From: 2010.05.17/outbox.cif.g08.bks.cpg/sg130_1_cif.got.tgz:430.got - 2010.05.20 12:17:35.
