data_PCOD9565895
_publ_section_title
;
Structure prediction by ZEFSAII (Michael W. Deem and Ramdas Pophale) SiO2 
 PCOD9565895
Probable space group: P 4/N C C
;
_chemical_formula_sum "Si O2"
_cell_formula_units_Z 112
_cell_length_a 14.043730
_cell_length_b 14.043730
_cell_length_c 27.451472
_cell_angle_alpha 90.000000
_cell_angle_beta 90.000000
_cell_angle_gamma 90.000000
_cell_volume 5414.153688
_symmetry_space_group_name_H-M "P 4/N C C"
_symmetry_group_IT_number 130
_symmetry_cell_setting 'tetragonal'
loop_
_space_group_symop_operation_xyz
x,y,z
1/2-y,x,z
1/2-x,1/2-y,z
y,1/2-x,z
1/2+x,-y,1/2-z
-x,1/2+y,1/2-z
1/2+y,1/2+x,1/2-z
-y,-x,1/2-z
-x,-y,-z
1/2+y,-x,-z
1/2+x,1/2+y,-z
-y,1/2+x,-z
1/2-x,y,1/2+z
x,1/2-y,1/2+z
1/2-y,1/2-x,1/2+z
y,x,1/2+z
loop_
_atom_site_type_symbol
_atom_site_label
_atom_site_fract_x
_atom_site_fract_y
_atom_site_fract_z
Si Si1 0.874927 0.838863 0.091698
Si Si2 0.487146 0.985061 0.645684
Si Si3 0.846785 0.352012 0.193061
Si Si4 0.139089 0.629919 0.190679
Si Si5 0.937314 0.645635 0.483390
Si Si6 0.841406 0.146531 0.517619
Si Si7 0.679038 0.510619 0.923673
O O1 0.771667 0.878721 0.108325
O O2 0.886714 0.825019 0.033459
O O3 0.954675 0.913567 0.109763
O O4 0.557282 0.066047 0.665560
O O5 0.390581 0.027688 0.621456
O O6 0.441228 0.914857 0.685315
O O7 0.834077 0.334077 0.250000
O O8 0.889188 0.249798 0.176229
O O9 0.740238 0.373967 0.174505
O O10 0.125113 0.625113 0.250000
O O11 0.884402 0.552101 0.467313
O O12 0.941258 0.720358 0.437801
O O13 0.045608 0.629273 0.497479
O O14 0.727927 0.140760 0.522712
O O15 0.897943 0.179907 0.565115
#
# Coordination Sequence:
#
# PCOD9565895 Si02
#       7
#    16  16  16  16  16  16  16
#     4  11  23  39  59  82 116 160 211 255 303 359
#     4  12  23  36  61  98 124 150 201 267 308 348
#     4   9  20  42  67  94 126 161 197 236 311 395
#     4   9  20  42  69  92 124 164 196 241 311 391
#     4  11  21  39  56  75 109 166 208 245 296 359
#     4   9  19  36  53  76 107 147 196 249 302 351
#     4  11  24  35  56  80 112 154 208 252 298 348
#
# _framework density 20.686520000000002
#
# number of rings (size 3 to 8) (size 9 to 14) (size 15 to 20)
#    0.000    1.714    2.857    2.571    2.000    0.286 
#    2.571    1.429    0.000    0.429    0.000    4.000 
#    0.000    0.000    0.000    0.000    0.000    0.000 
#
# Total GULP energy -623628.618050 kJ/mol
# GULP energy per Si atom -5568.112661 kJ/mol
# Density = 2.063944 g / cm^3
# Si number density = 20.686520 Si / 1000 Ang^3
#
#
#
# Elastic Constant Matrix: (Units=GPa)
#
#
# Indices 1 2 3 4 5 6 
#
# 1 95.8903 50.6181 21.8879 0.0000 0.0000 0.0000
# 2 50.6181 95.8903 21.8879 0.0000 0.0000 0.0000
# 3 21.8879 21.8879 41.7768 0.0000 0.0000 0.0000
# 4 0.0000 0.0000 0.0000 -9.4410 0.0000 0.0000
# 5 0.0000 0.0000 0.0000 0.0000 -9.4410 0.0000
# 6 0.0000 0.0000 0.0000 0.0000 0.0000 25.0763
#
#
#
# Elastic Compliance Matrix: (Units=1/GPa)
#
#
# Indices 1 2 3 4 5 6 
#
# 1 0.015090 -0.006998 -0.004240 0.000000 0.000000 0.000000
# 2 -0.006998 0.015090 -0.004240 0.000000 0.000000 0.000000
# 3 -0.004240 -0.004240 0.028379 0.000000 0.000000 0.000000
# 4 0.000000 0.000000 0.000000 -0.105921 0.000000 0.000000
# 5 0.000000 0.000000 0.000000 0.000000 -0.105921 0.000000
# 6 0.000000 0.000000 0.000000 0.000000 0.000000 0.039878
#
#
# Mechanical properties :
#
#
# Convention : Reuss Voigt Hill
#
# Bulk Modulus (GPa) = 36.22539 46.92724 41.57631
# Shear Modulus (GPa) = -68.26246 10.51644 -28.87301
#
# Velocity S-wave (km/s) = -5.75067 2.25716 -3.74001
# Velocity P-wave (km/s) = 5.15208 5.43389 1.22132
#
# Compressibility (1/GPa) = 0.02760495
#
# Stress axis : x y z
#
# Youngs Moduli (GPa) = 66.26693 66.26693 35.23689
#
# Poissons Ratio (x) = 0.46374 0.14940
# Poissons Ratio (y) = 0.46374 0.14940
# Poissons Ratio (z) = 0.28096 0.28096
#
# Static dielectric constant tensor:
#      x y z
#    x 1.794360 0.000000 0.000000 
#    y 0.000000 1.794360 0.000000 
#    z 0.000000 0.000000 1.771690 
# 
# From -- ./inp_files/4629.got.cif
#   From: 2010.05.17/outbox.cif.g08.bks.cpg/sg130_3_cif.got.tgz:4629.got - 2010.05.20 12:17:35.
