data_PCOD9565002
_publ_section_title
;
Structure prediction by ZEFSAII (Michael W. Deem and Ramdas Pophale) SiO2 
 PCOD9565002
Probable space group: P 4/M N C
;
_chemical_formula_sum "Si O2"
_cell_formula_units_Z 88
_cell_length_a 16.696498
_cell_length_b 16.696498
_cell_length_c 15.185058
_cell_angle_alpha 90.000000
_cell_angle_beta 90.000000
_cell_angle_gamma 90.000000
_cell_volume 4233.184864
_symmetry_space_group_name_H-M "P 4/M N C"
_symmetry_group_IT_number 128
_symmetry_cell_setting 'tetragonal'
loop_
_space_group_symop_operation_xyz
x,y,z
-y,x,z
-x,-y,z
y,-x,z
1/2+x,1/2-y,1/2-z
1/2-x,1/2+y,1/2-z
1/2+y,1/2+x,1/2-z
1/2-y,1/2-x,1/2-z
-x,-y,-z
y,-x,-z
x,y,-z
-y,x,-z
1/2-x,1/2+y,1/2+z
1/2+x,1/2-y,1/2+z
1/2-y,1/2-x,1/2+z
1/2+y,1/2+x,1/2+z
loop_
_atom_site_type_symbol
_atom_site_label
_atom_site_fract_x
_atom_site_fract_y
_atom_site_fract_z
Si Si1 0.440574 0.189934 0.240213
Si Si2 0.879156 0.943725 0.500000
Si Si3 0.566895 0.388494 0.348032
Si Si4 0.782933 0.559063 0.599730
Si Si5 0.414082 0.803032 0.895842
Si Si6 0.654590 0.361542 0.824537
O O1 0.391539 0.108462 0.250000
O O2 0.490514 0.208838 0.327943
O O3 0.505997 0.186018 0.161803
O O4 0.378190 0.262592 0.225115
O O5 0.839289 0.917823 0.590210
O O6 0.963449 0.897590 0.500000
O O7 0.605483 0.473241 0.373430
O O8 0.598327 0.305117 0.386587
O O9 0.582894 0.383630 0.242872
O O10 0.787869 0.528816 0.500000
O O11 0.854057 0.622189 0.613714
O O12 0.365813 0.726518 0.858806
O O13 0.431519 0.792584 0.000000
#
# Coordination Sequence:
#
# PCOD9565002 Si02
#       6
#    16   8  16  16  16  16
#     4  12  28  46  73 104 140 186 234 293 350 418
#     4  11  22  36  62 102 142 178 218 281 354 430
#     4  11  22  40  67  99 136 182 227 281 346 420
#     4  11  26  47  69  97 136 186 239 289 342 411
#     4  11  25  46  74 102 140 184 234 297 360 420
#     4  12  23  41  68 102 142 181 227 285 356 422
#
# _framework density 20.788129999999999
#
# number of rings (size 3 to 8) (size 9 to 14) (size 15 to 20)
#    0.000    0.636    4.545    2.727    3.818    4.364 
#    0.000    2.727    0.000    0.000    0.000    0.000 
#    0.000    0.000    0.000    0.000    0.000    0.000 
#
# Total GULP energy -492068.152807 kJ/mol
# GULP energy per Si atom -5591.683555 kJ/mol
# Density = 2.074081 g / cm^3
# Si number density = 20.788130 Si / 1000 Ang^3
#
#
#
# Elastic Constant Matrix: (Units=GPa)
#
#
# Indices 1 2 3 4 5 6 
#
# 1 95.9083 69.1674 58.6461 0.0000 0.0000 0.0000
# 2 69.1674 95.9154 58.6470 0.0000 0.0000 0.0000
# 3 58.6461 58.6470 115.9952 0.0000 0.0000 0.0000
# 4 0.0000 0.0000 0.0000 50.6411 0.0000 0.0000
# 5 0.0000 0.0000 0.0000 0.0000 50.6718 0.0000
# 6 0.0000 0.0000 0.0000 0.0000 0.0000 19.4565
#
#
#
# Elastic Compliance Matrix: (Units=1/GPa)
#
#
# Indices 1 2 3 4 5 6 
#
# 1 0.023424 -0.013969 -0.004780 0.000000 0.000000 0.000000
# 2 -0.013969 0.023421 -0.004779 0.000000 0.000000 0.000000
# 3 -0.004780 -0.004779 0.013454 0.000000 0.000000 0.000000
# 4 0.000000 0.000000 0.000000 0.019747 0.000000 0.000000
# 5 0.000000 0.000000 0.000000 0.000000 0.019735 0.000000
# 6 0.000000 0.000000 0.000000 0.000000 0.000000 0.051397
#
#
# Mechanical properties :
#
#
# Convention : Reuss Voigt Hill
#
# Bulk Modulus (GPa) = 75.51272 75.63778 75.57525
# Shear Modulus (GPa) = 24.67329 32.24443 28.45886
#
# Velocity S-wave (km/s) = 3.44887 3.94267 3.70401
# Velocity P-wave (km/s) = 7.22934 7.56243 7.39776
#
# Compressibility (1/GPa) = 0.01324280
#
# Stress axis : x y z
#
# Youngs Moduli (GPa) = 42.69209 42.69606 74.32527
#
# Poissons Ratio (x) = 0.59640 0.35529
# Poissons Ratio (y) = 0.59635 0.35523
# Poissons Ratio (z) = 0.20408 0.20406
#
# Static dielectric constant tensor:
#      x y z
#    x 1.742840 0.000000 0.000000 
#    y 0.000000 1.742840 0.000000 
#    z 0.000000 0.000000 1.652440 
# 
# From -- ./inp_files/3863.got.cif
#   From: 2010.05.17/outbox.cif.g08.bks.cpg/sg128_2_cif.got.tgz:3863.got - 2010.05.20 12:07:25.
