data_PCOD9565085
_publ_section_title
;
Structure prediction by ZEFSAII (Michael W. Deem and Ramdas Pophale) SiO2 
 PCOD9565085
Probable space group: P 4/M N C
;
_chemical_formula_sum "Si O2"
_cell_formula_units_Z 72
_cell_length_a 21.000000
_cell_length_b 21.000000
_cell_length_c 9.000000
_cell_angle_alpha 90.000000
_cell_angle_beta 90.000000
_cell_angle_gamma 90.000000
_cell_volume 3969.000000
_symmetry_space_group_name_H-M "P 4/M N C"
_symmetry_group_IT_number 128
_symmetry_cell_setting 'tetragonal'
loop_
_space_group_symop_operation_xyz
x,y,z
-y,x,z
-x,-y,z
y,-x,z
1/2+x,1/2-y,1/2-z
1/2-x,1/2+y,1/2-z
1/2+y,1/2+x,1/2-z
1/2-y,1/2-x,1/2-z
-x,-y,-z
y,-x,-z
x,y,-z
-y,x,-z
1/2-x,1/2+y,1/2+z
1/2+x,1/2-y,1/2+z
1/2-y,1/2-x,1/2+z
1/2+y,1/2+x,1/2+z
loop_
_atom_site_type_symbol
_atom_site_label
_atom_site_fract_x
_atom_site_fract_y
_atom_site_fract_z
Si Si1 0.183040 0.415164 0.823026
Si Si2 0.402782 0.450674 0.500000
Si Si3 0.243643 0.157725 0.820938
Si Si4 0.851552 0.449360 0.676753
Si Si5 0.664262 0.604140 0.186514
O O1 0.142662 0.357339 0.750000
O O2 0.160354 0.482140 0.751447
O O3 0.259550 0.407755 0.801377
O O4 0.171081 0.415686 0.000000
O O5 0.472619 0.415965 0.500000
O O6 0.368544 0.432180 0.336273
O O7 0.283810 0.216191 0.750000
O O8 0.288929 0.095638 0.804221
O O9 0.177883 0.151041 0.730083
O O10 0.232557 0.166978 0.000000
O O11 0.909919 0.409919 0.750000
O O12 0.862342 0.456594 0.500000
O O13 0.648969 0.593425 0.000000
#
# Coordination Sequence:
#
# PCOD9565085 Si02
#       5
#    16   8  16  16  16
#     4  11  25  41  62  94 130 170 220 273 328 394
#     4  11  28  50  72 100 136 173 219 273 333 405
#     4  10  20  36  61  94 133 173 222 280 334 392
#     4  10  22  39  63  92 129 174 219 272 326 390
#     4  11  25  42  70 101 131 175 222 276 333 399
#
# _framework density 18.14059
#
# number of rings (size 3 to 8) (size 9 to 14) (size 15 to 20)
#    0.000    1.444    1.111    2.667    6.222    5.778 
#    0.000    3.333    0.000    0.000    0.000    0.000 
#    0.000    0.000    0.000    0.000    0.000    0.000 
#
# Total GULP energy -401177.498355 kJ/mol
# GULP energy per Si atom -5571.909699 kJ/mol
# Density = 1.809930 g / cm^3
# Si number density = 18.140590 Si / 1000 Ang^3
#
#
#
# Elastic Constant Matrix: (Units=GPa)
#
#
# Indices 1 2 3 4 5 6 
#
# 1 113.7512 32.5778 63.8827 0.0000 0.0000 0.0000
# 2 32.5778 113.7542 63.8820 0.0000 0.0000 0.0000
# 3 63.8827 63.8820 188.4798 0.0000 0.0000 0.0000
# 4 0.0000 0.0000 0.0000 44.1331 0.0000 0.0000
# 5 0.0000 0.0000 0.0000 0.0000 44.1330 0.0000
# 6 0.0000 0.0000 0.0000 0.0000 0.0000 25.4094
#
#
#
# Elastic Compliance Matrix: (Units=1/GPa)
#
#
# Indices 1 2 3 4 5 6 
#
# 1 0.011013 -0.001306 -0.003290 0.000000 0.000000 0.000000
# 2 -0.001306 0.011012 -0.003290 0.000000 0.000000 0.000000
# 3 -0.003290 -0.003290 0.007536 0.000000 0.000000 0.000000
# 4 0.000000 0.000000 0.000000 0.022659 0.000000 0.000000
# 5 0.000000 0.000000 0.000000 0.000000 0.022659 0.000000
# 6 0.000000 0.000000 0.000000 0.000000 0.000000 0.039355
#
#
# Mechanical properties :
#
#
# Convention : Reuss Voigt Hill
#
# Bulk Modulus (GPa) = 72.52158 81.85223 77.18690
# Shear Modulus (GPa) = 37.14648 39.77794 38.46221
#
# Velocity S-wave (km/s) = 4.53006 4.68777 4.60959
# Velocity P-wave (km/s) = 8.21135 8.63245 8.42453
#
# Compressibility (1/GPa) = 0.01378900
#
# Stress axis : x y z
#
# Youngs Moduli (GPa) = 90.80290 90.80635 132.70254
#
# Poissons Ratio (x) = 0.11863 0.43657
# Poissons Ratio (y) = 0.11863 0.43655
# Poissons Ratio (z) = 0.29873 0.29872
#
# Static dielectric constant tensor:
#      x y z
#    x 1.628510 0.000000 0.000000 
#    y 0.000000 1.628510 0.000000 
#    z 0.000000 0.000000 1.665540 
# 
# From -- ./inp_files/1145.got.cif
#   From: 2010.05.17/outbox.ucp.g08.bks.cvg/sg128_1_cif.got.tgz:1145.got - 2010.06.11 11:37:33.
