data_PCOD9565675
_publ_section_title
;
Structure prediction by ZEFSAII (Michael W. Deem and Ramdas Pophale) SiO2 
 PCOD9565675
Probable space group: P 4/N C C
;
_chemical_formula_sum "Si O2"
_cell_formula_units_Z 120
_cell_length_a 17.100907
_cell_length_b 17.100907
_cell_length_c 20.096875
_cell_angle_alpha 90.000000
_cell_angle_beta 90.000000
_cell_angle_gamma 90.000000
_cell_volume 5877.150628
_symmetry_space_group_name_H-M "P 4/N C C"
_symmetry_group_IT_number 130
_symmetry_cell_setting 'tetragonal'
loop_
_space_group_symop_operation_xyz
x,y,z
1/2-y,x,z
1/2-x,1/2-y,z
y,1/2-x,z
1/2+x,-y,1/2-z
-x,1/2+y,1/2-z
1/2+y,1/2+x,1/2-z
-y,-x,1/2-z
-x,-y,-z
1/2+y,-x,-z
1/2+x,1/2+y,-z
-y,1/2+x,-z
1/2-x,y,1/2+z
x,1/2-y,1/2+z
1/2-y,1/2-x,1/2+z
y,x,1/2+z
loop_
_atom_site_type_symbol
_atom_site_label
_atom_site_fract_x
_atom_site_fract_y
_atom_site_fract_z
Si Si1 0.378285 0.586242 0.676448
Si Si2 0.875578 0.238316 0.880589
Si Si3 0.123724 0.224640 0.943296
Si Si4 0.497509 0.945993 0.064389
Si Si5 0.777490 0.468385 0.500724
Si Si6 0.146160 0.467749 0.845435
Si Si7 0.205004 0.912803 0.148150
Si Si8 0.562958 0.437042 0.750000
O O1 0.414491 0.585510 0.750000
O O2 0.372772 0.676244 0.651020
O O3 0.429805 0.541734 0.620432
O O4 0.287247 0.562482 0.680036
O O5 0.805129 0.180292 0.863866
O O6 0.953414 0.196723 0.851216
O O7 0.894176 0.242048 0.959628
O O8 0.191310 0.162271 0.956751
O O9 0.098555 0.208594 0.866152
O O10 0.044183 0.223348 0.986447
O O11 0.580995 0.957941 0.098062
O O12 0.486117 0.857825 0.039140
O O13 0.500000 0.000000 0.000000
O O14 0.795439 0.451190 0.424638
O O15 0.089036 0.480721 0.782657
O O16 0.130569 0.931779 0.193642
#
# Coordination Sequence:
#
# PCOD9565675 Si02
#       8
#    16  16  16  16  16  16  16   8
#     4  11  24  39  59  91 125 166 210 258 317 389
#     4   9  21  37  58  87 123 157 207 252 314 384
#     4  10  20  38  65  93 119 156 211 275 335 375
#     4  11  23  39  60  87 124 161 209 267 323 381
#     4  10  22  37  58  95 121 154 209 268 319 380
#     4  10  20  38  62  84 123 160 204 265 315 385
#     4  11  22  38  63  85 131 168 202 250 316 394
#     4  10  22  40  59  92 126 174 215 244 322 396
#
# _framework density 20.418057000000001
#
# number of rings (size 3 to 8) (size 9 to 14) (size 15 to 20)
#    0.000    1.733    1.333    3.600    8.400    0.533 
#    0.000    0.000    0.000    0.000    0.000    1.867 
#    0.000    0.000    0.000    0.000    0.000    0.000 
#
# Total GULP energy -668514.795803 kJ/mol
# GULP energy per Si atom -5570.956632 kJ/mol
# Density = 2.037158 g / cm^3
# Si number density = 20.418057 Si / 1000 Ang^3
#
#
#
# Elastic Constant Matrix: (Units=GPa)
#
#
# Indices 1 2 3 4 5 6 
#
# 1 43.2074 -8.1112 4.9093 0.0000 0.0000 0.0000
# 2 -8.1112 43.2077 4.9094 0.0000 0.0000 0.0000
# 3 4.9093 4.9094 103.1234 0.0000 0.0000 0.0000
# 4 0.0000 0.0000 0.0000 28.3412 0.0000 0.0000
# 5 0.0000 0.0000 0.0000 0.0000 28.3398 0.0000
# 6 0.0000 0.0000 0.0000 0.0000 0.0000 31.2588
#
#
#
# Elastic Compliance Matrix: (Units=1/GPa)
#
#
# Indices 1 2 3 4 5 6 
#
# 1 0.024182 0.004696 -0.001375 0.000000 0.000000 0.000000
# 2 0.004696 0.024182 -0.001375 0.000000 0.000000 0.000000
# 3 -0.001375 -0.001375 0.009828 0.000000 0.000000 0.000000
# 4 0.000000 0.000000 0.000000 0.035284 0.000000 0.000000
# 5 0.000000 0.000000 0.000000 0.000000 0.035286 0.000000
# 6 0.000000 0.000000 0.000000 0.000000 0.000000 0.031991
#
#
# Mechanical properties :
#
#
# Convention : Reuss Voigt Hill
#
# Bulk Modulus (GPa) = 16.10718 21.43927 18.77322
# Shear Modulus (GPa) = 28.16025 30.11002 29.13514
#
# Velocity S-wave (km/s) = 3.71777 3.84432 3.78157
# Velocity P-wave (km/s) = 5.13175 5.49800 5.31803
#
# Compressibility (1/GPa) = 0.06208413
#
# Stress axis : x y z
#
# Youngs Moduli (GPa) = 41.35325 41.35355 101.74992
#
# Poissons Ratio (x) = -0.19419 0.13988
# Poissons Ratio (y) = -0.19418 0.13988
# Poissons Ratio (z) = 0.05685 0.05685
#
# Static dielectric constant tensor:
#      x y z
#    x 1.823940 0.000000 0.000000 
#    y 0.000000 1.823940 0.000000 
#    z 0.000000 0.000000 1.770880 
# 
# From -- ./inp_files/4001.got.cif
#   From: 2010.05.17/outbox.cif.g08.bks.cpg/sg130_3_cif.got.tgz:4001.got - 2010.05.20 12:17:35.
