data_PCOD9565950
_publ_section_title
;
Structure prediction by ZEFSAII (Michael W. Deem and Ramdas Pophale) SiO2 
 PCOD9565950
Probable space group: P 4/N C C
;
_chemical_formula_sum "Si O2"
_cell_formula_units_Z 64
_cell_length_a 14.977546
_cell_length_b 14.977546
_cell_length_c 13.856332
_cell_angle_alpha 90.000000
_cell_angle_beta 90.000000
_cell_angle_gamma 90.000000
_cell_volume 3108.347784
_symmetry_space_group_name_H-M "P 4/N C C"
_symmetry_group_IT_number 130
_symmetry_cell_setting 'tetragonal'
loop_
_space_group_symop_operation_xyz
x,y,z
1/2-y,x,z
1/2-x,1/2-y,z
y,1/2-x,z
1/2+x,-y,1/2-z
-x,1/2+y,1/2-z
1/2+y,1/2+x,1/2-z
-y,-x,1/2-z
-x,-y,-z
1/2+y,-x,-z
1/2+x,1/2+y,-z
-y,1/2+x,-z
1/2-x,y,1/2+z
x,1/2-y,1/2+z
1/2-y,1/2-x,1/2+z
y,x,1/2+z
loop_
_atom_site_type_symbol
_atom_site_label
_atom_site_fract_x
_atom_site_fract_y
_atom_site_fract_z
Si Si1 0.306733 0.389828 0.141469
Si Si2 0.806733 0.889828 0.641469
Si Si3 0.250000 0.523630 0.000000
Si Si4 0.173569 0.673569 0.136779
O O1 0.202324 0.360774 0.132756
O O2 0.321424 0.424804 0.250000
O O3 0.319442 0.461682 0.058404
O O4 0.702324 0.860774 0.632756
O O5 0.819442 0.961682 0.558404
O O6 0.293220 0.586249 0.919042
O O7 0.206780 0.586249 0.080958
O O8 0.250000 0.750000 0.127389
O O9 0.157970 0.657970 0.250000
#
# Coordination Sequence:
#
# PCOD9565950 Si02
#       4
#    16  16  16  16
#     4   9  19  36  59  89 123 155 188 229 278 335
#     4   9  19  36  59  89 123 155 188 229 278 335
#     4  12  19  37  60  88 106 154 196 235 281 340
#     4  11  24  42  59  80 110 148 196 244 291 338
#
# _framework density 20.589715999999999
#
# number of rings (size 3 to 8) (size 9 to 14) (size 15 to 20)
#    0.000    1.750    2.500    4.500    0.000    2.000 
#    0.000    5.000    0.000    6.000    0.000    0.000 
#    0.000    0.000    0.000    0.000    0.000    0.000 
#
# Total GULP energy -357404.074963 kJ/mol
# GULP energy per Si atom -5584.438671 kJ/mol
# Density = 2.054285 g / cm^3
# Si number density = 20.589716 Si / 1000 Ang^3
#
#
#
# Elastic Constant Matrix: (Units=GPa)
#
#
# Indices 1 2 3 4 5 6 
#
# 1 58.2483 -7.0508 45.0170 0.0000 0.0000 0.0000
# 2 -7.0508 58.2483 45.0170 0.0000 0.0000 0.0000
# 3 45.0170 45.0170 187.3146 0.0000 0.0000 0.0000
# 4 0.0000 0.0000 0.0000 19.2768 0.0000 0.0000
# 5 0.0000 0.0000 0.0000 0.0000 19.2768 0.0000
# 6 0.0000 0.0000 0.0000 0.0000 0.0000 11.0309
#
#
#
# Elastic Compliance Matrix: (Units=1/GPa)
#
#
# Indices 1 2 3 4 5 6 
#
# 1 0.024572 0.009258 -0.008130 0.000000 0.000000 0.000000
# 2 0.009258 0.024572 -0.008130 0.000000 0.000000 0.000000
# 3 -0.008130 -0.008130 0.009246 0.000000 0.000000 0.000000
# 4 0.000000 0.000000 0.000000 0.051876 0.000000 0.000000
# 5 0.000000 0.000000 0.000000 0.000000 0.051876 0.000000
# 6 0.000000 0.000000 0.000000 0.000000 0.000000 0.090655
#
#
# Mechanical properties :
#
#
# Convention : Reuss Voigt Hill
#
# Bulk Modulus (GPa) = 22.53009 52.19748 37.36379
# Shear Modulus (GPa) = 17.75586 24.63876 21.19731
#
# Velocity S-wave (km/s) = 2.93979 3.46302 3.21208
# Velocity P-wave (km/s) = 4.74229 6.43400 5.65180
#
# Compressibility (1/GPa) = 0.04438508
#
# Stress axis : x y z
#
# Youngs Moduli (GPa) = 40.69675 40.69675 108.14931
#
# Poissons Ratio (x) = -0.37676 0.87928
# Poissons Ratio (y) = -0.37676 0.87928
# Poissons Ratio (z) = 0.33088 0.33088
#
# Static dielectric constant tensor:
#      x y z
#    x 1.749770 0.000000 0.000000 
#    y 0.000000 1.749770 0.000000 
#    z 0.000000 0.000000 1.767360 
# 
# From -- ./inp_files/2162.got.cif
#   From: 2010.05.17/outbox.cif.g08.bks.cpg/sg130_2_cif.got.tgz:2162.got - 2010.05.20 12:17:35.
