data_PCOD9565868
_publ_section_title
;
Structure prediction by ZEFSAII (Michael W. Deem and Ramdas Pophale) SiO2 
 PCOD9565868
Probable space group: P 4/N C C
;
_chemical_formula_sum "Si O2"
_cell_formula_units_Z 64
_cell_length_a 12.661780
_cell_length_b 12.661780
_cell_length_c 18.818272
_cell_angle_alpha 90.000000
_cell_angle_beta 90.000000
_cell_angle_gamma 90.000000
_cell_volume 3016.958027
_symmetry_space_group_name_H-M "P 4/N C C"
_symmetry_group_IT_number 130
_symmetry_cell_setting 'tetragonal'
loop_
_space_group_symop_operation_xyz
x,y,z
1/2-y,x,z
1/2-x,1/2-y,z
y,1/2-x,z
1/2+x,-y,1/2-z
-x,1/2+y,1/2-z
1/2+y,1/2+x,1/2-z
-y,-x,1/2-z
-x,-y,-z
1/2+y,-x,-z
1/2+x,1/2+y,-z
-y,1/2+x,-z
1/2-x,y,1/2+z
x,1/2-y,1/2+z
1/2-y,1/2-x,1/2+z
y,x,1/2+z
loop_
_atom_site_type_symbol
_atom_site_label
_atom_site_fract_x
_atom_site_fract_y
_atom_site_fract_z
Si Si1 0.655076 0.373094 0.531146
Si Si2 0.128660 0.788595 0.316107
Si Si3 0.824572 0.901453 0.486147
Si Si4 0.203301 0.413633 0.184226
O O1 0.783689 0.372483 0.527071
O O2 0.608153 0.338792 0.606613
O O3 0.625022 0.491137 0.512516
O O4 0.250000 0.750000 0.321578
O O5 0.131168 0.868833 0.250000
O O6 0.038467 0.701899 0.300466
O O7 0.702988 0.886003 0.509729
O O8 0.813948 0.905397 0.400865
O O9 0.124307 0.320909 0.208775
#
# Coordination Sequence:
#
# PCOD9565868 Si02
#       4
#    16  16  16  16
#     4  11  19  35  55  81 110 142 188 232 284 349
#     4  11  22  39  55  84 123 152 189 244 298 351
#     4   9  18  33  55  85 114 142 187 242 289 338
#     4   9  18  38  63  85 114 156 203 242 287 354
#
# _framework density 21.213419999999999
#
# number of rings (size 3 to 8) (size 9 to 14) (size 15 to 20)
#    0.000    2.000    5.000    1.500    0.000    1.000 
#    9.000    0.000    0.000    3.000    0.000    0.000 
#    0.000    0.000    0.000    0.000    0.000    0.000 
#
# Total GULP energy -356346.703800 kJ/mol
# GULP energy per Si atom -5567.917247 kJ/mol
# Density = 2.116514 g / cm^3
# Si number density = 21.213420 Si / 1000 Ang^3
#
#
#
# Elastic Constant Matrix: (Units=GPa)
#
#
# Indices 1 2 3 4 5 6 
#
# 1 106.3890 13.6333 -3.3653 0.0000 0.0000 0.0000
# 2 13.6333 106.3884 -3.3656 0.0000 0.0000 0.0000
# 3 -3.3653 -3.3656 49.0371 0.0000 0.0000 0.0000
# 4 0.0000 0.0000 0.0000 7.3049 0.0000 0.0000
# 5 0.0000 0.0000 0.0000 0.0000 7.3051 0.0000
# 6 0.0000 0.0000 0.0000 0.0000 0.0000 10.7975
#
#
#
# Elastic Compliance Matrix: (Units=1/GPa)
#
#
# Indices 1 2 3 4 5 6 
#
# 1 0.009572 -0.001209 0.000574 0.000000 0.000000 0.000000
# 2 -0.001209 0.009573 0.000574 0.000000 0.000000 0.000000
# 3 0.000574 0.000574 0.020472 0.000000 0.000000 0.000000
# 4 0.000000 0.000000 0.000000 0.136895 0.000000 0.000000
# 5 0.000000 0.000000 0.000000 0.000000 0.136890 0.000000
# 6 0.000000 0.000000 0.000000 0.000000 0.000000 0.092614
#
#
# Mechanical properties :
#
#
# Convention : Reuss Voigt Hill
#
# Bulk Modulus (GPa) = 25.31928 30.62438 27.97183
# Shear Modulus (GPa) = 11.92457 22.07564 17.00010
#
# Velocity S-wave (km/s) = 2.37349 3.22940 2.83394
# Velocity P-wave (km/s) = 4.41278 5.32664 4.89110
#
# Compressibility (1/GPa) = 0.03949559
#
# Stress axis : x y z
#
# Youngs Moduli (GPa) = 104.46605 104.46535 48.84839
#
# Poissons Ratio (x) = 0.12625 -0.02804
# Poissons Ratio (y) = 0.12625 -0.02804
# Poissons Ratio (z) = -0.05996 -0.05997
#
# Static dielectric constant tensor:
#      x y z
#    x 1.844720 0.000000 0.000000 
#    y 0.000000 1.844720 0.000000 
#    z 0.000000 0.000000 1.770860 
# 
# From -- ./inp_files/3513.got.cif
#   From: 2010.05.17/outbox.cif.g08.bks.cpg/sg130_2_cif.got.tgz:3513.got - 2010.05.20 12:17:35.
