data_PCOD9565306
_publ_section_title
;
Structure prediction by ZEFSAII (Michael W. Deem and Ramdas Pophale) SiO2 
 PCOD9565306
Probable space group: P 4/N M M
;
_chemical_formula_sum "Si O2"
_cell_formula_units_Z 96
_cell_length_a 29.262951
_cell_length_b 29.262951
_cell_length_c 5.461524
_cell_angle_alpha 90.000000
_cell_angle_beta 90.000000
_cell_angle_gamma 90.000000
_cell_volume 4676.813877
_symmetry_space_group_name_H-M "P 4/N M M"
_symmetry_group_IT_number 129
_symmetry_cell_setting 'tetragonal'
loop_
_space_group_symop_operation_xyz
x,y,z
1/2-y,x,z
1/2-x,1/2-y,z
y,1/2-x,z
1/2+x,-y,-z
-x,1/2+y,-z
1/2+y,1/2+x,-z
-y,-x,-z
-x,-y,-z
1/2+y,-x,-z
1/2+x,1/2+y,-z
-y,1/2+x,-z
1/2-x,y,z
x,1/2-y,z
1/2-y,1/2-x,z
y,x,z
loop_
_atom_site_type_symbol
_atom_site_label
_atom_site_fract_x
_atom_site_fract_y
_atom_site_fract_z
Si Si1 0.844775 0.844775 0.499999
Si Si2 0.198593 0.441377 1.000000
Si Si3 0.827407 0.250000 0.500000
Si Si4 0.922845 0.349887 0.000000
Si Si5 0.750000 0.112356 1.000000
Si Si6 0.336558 0.045457 0.500000
Si Si7 0.892694 0.035428 0.500000
Si Si8 0.343406 0.156595 0.000000
O O1 0.838022 0.899514 0.500000
O O2 0.824796 0.824796 0.747229
O O3 0.824796 0.824796 0.252770
O O4 0.250000 0.423674 1.000000
O O5 0.189281 0.467595 0.250761
O O6 0.165427 0.397553 0.000000
O O7 0.189281 0.467595 0.749239
O O8 0.794367 0.294367 0.500000
O O9 0.857352 0.250000 0.250202
O O10 0.857352 0.250000 0.749798
O O11 0.917929 0.295741 0.000000
O O12 0.945958 0.368840 0.250319
O O13 0.872197 0.372197 0.000000
O O14 0.945958 0.368840 0.749683
O O15 0.384435 0.018905 0.500000
O O16 0.943410 0.056591 0.500000
#
# Coordination Sequence:
#
# PCOD9565306 Si02
#       8
#     8  16   8  16   8  16  16   8
#     4   8  16  30  53  76 102 133 172 202 262 304
#     4  10  19  33  52  82 109 144 178 219 266 302
#     4  11  22  34  52  76  96 114 144 202 268 302
#     4  10  21  37  54  71  95 131 168 199 249 314
#     4  12  22  37  54  74  92 124 164 208 240 298
#     4  10  19  35  54  79 106 137 168 220 255 310
#     4  10  21  38  54  71 100 139 171 203 258 315
#     4   8  16  30  50  71 109 146 180 208 252 320
#
# _framework density 20.526796999999998
#
# number of rings (size 3 to 8) (size 9 to 14) (size 15 to 20)
#    0.000    2.083    0.000    4.000    0.000    2.000 
#    9.000    0.417    0.000    0.250    0.000   10.500 
#    0.000    8.000    0.000    0.000    0.000    1.333 
#
# Total GULP energy -534555.913012 kJ/mol
# GULP energy per Si atom -5568.290761 kJ/mol
# Density = 2.048008 g / cm^3
# Si number density = 20.526797 Si / 1000 Ang^3
#
#
#
# Elastic Constant Matrix: (Units=GPa)
#
#
# Indices 1 2 3 4 5 6 
#
# 1 -40.6620 89.2996 5.0667 0.0000 0.0000 0.0000
# 2 89.2996 -40.6668 5.0630 0.0000 0.0000 0.0000
# 3 5.0667 5.0630 225.2193 0.0000 0.0000 0.0000
# 4 0.0000 0.0000 0.0000 755.2193 0.0000 0.0000
# 5 0.0000 0.0000 0.0000 0.0000 751.8572 0.0000
# 6 0.0000 0.0000 0.0000 0.0000 0.0000 11.0245
#
#
#
# Elastic Compliance Matrix: (Units=1/GPa)
#
#
# Indices 1 2 3 4 5 6 
#
# 1 0.006482 0.014176 -0.000465 0.000000 0.000000 0.000000
# 2 0.014176 0.006481 -0.000465 0.000000 0.000000 0.000000
# 3 -0.000465 -0.000465 0.004461 0.000000 0.000000 0.000000
# 4 0.000000 0.000000 0.000000 0.001324 0.000000 0.000000
# 5 0.000000 0.000000 0.000000 0.000000 0.001330 0.000000
# 6 0.000000 0.000000 0.000000 0.000000 0.000000 0.090707
#
#
# Mechanical properties :
#
#
# Convention : Reuss Voigt Hill
#
# Bulk Modulus (GPa) = 22.76931 38.08322 30.42626
# Shear Modulus (GPa) = 50.54011 306.58428 178.56220
#
# Velocity S-wave (km/s) = 4.96739 12.23447 9.33695
# Velocity P-wave (km/s) = 6.63450 14.77057 11.44959
#
# Compressibility (1/GPa) = 0.04391877
#
# Stress axis : x y z
#
# Youngs Moduli (GPa) = 154.26963 154.28732 224.16445
#
# Poissons Ratio (x) = -2.18721 0.10413
# Poissons Ratio (y) = -2.18696 0.10415
# Poissons Ratio (z) = 0.07166 0.07169
#
# Static dielectric constant tensor:
#      x y z
#    x 1.698870 0.000000 0.000000 
#    y 0.000000 1.698870 0.000000 
#    z 0.000000 0.000000 1.819290 
# 
# From -- ./inp_files/1158.got.cif
#   From: 2010.05.17/outbox.cif.g08.bks.cpg/sg129_1_cif.got.tgz:1158.got - 2010.05.20 12:12:06.
