data_PCOD9565492
_publ_section_title
;
Structure prediction by ZEFSAII (Michael W. Deem and Ramdas Pophale) SiO2 
 PCOD9565492
Probable space group: P 4/N M M
;
_chemical_formula_sum "Si O2"
_cell_formula_units_Z 96
_cell_length_a 26.168872
_cell_length_b 26.168872
_cell_length_c 9.272405
_cell_angle_alpha 90.000000
_cell_angle_beta 90.000000
_cell_angle_gamma 90.000000
_cell_volume 6349.834386
_symmetry_space_group_name_H-M "P 4/N M M"
_symmetry_group_IT_number 129
_symmetry_cell_setting 'tetragonal'
loop_
_space_group_symop_operation_xyz
x,y,z
1/2-y,x,z
1/2-x,1/2-y,z
y,1/2-x,z
1/2+x,-y,-z
-x,1/2+y,-z
1/2+y,1/2+x,-z
-y,-x,-z
-x,-y,-z
1/2+y,-x,-z
1/2+x,1/2+y,-z
-y,1/2+x,-z
1/2-x,y,z
x,1/2-y,z
1/2-y,1/2-x,z
y,x,z
loop_
_atom_site_type_symbol
_atom_site_label
_atom_site_fract_x
_atom_site_fract_y
_atom_site_fract_z
Si Si1 0.690678 0.019861 0.768954
Si Si2 0.905525 0.991216 0.623369
Si Si3 0.691776 0.339721 0.158427
Si Si4 0.925629 0.011761 0.295655
Si Si5 0.560449 0.358942 0.937073
Si Si6 0.193355 0.622944 0.408883
O O1 0.750000 0.003687 0.773453
O O2 0.686752 0.066373 0.653211
O O3 0.647123 0.982729 0.707310
O O4 0.672740 0.038837 0.927327
O O5 0.943472 0.943472 0.638021
O O6 0.900629 0.002191 0.452421
O O7 0.936886 0.039684 0.688895
O O8 0.750000 0.334551 0.197287
O O9 0.674828 0.399036 0.152817
O O10 0.657322 0.308445 0.266728
O O11 0.681573 0.318428 0.000000
O O12 0.884564 0.019861 0.170146
O O13 0.965462 0.965462 0.268347
O O14 0.594890 0.405111 0.000000
O O15 0.146802 0.646802 0.500000
O O16 0.250000 0.627218 0.477495
#
# Coordination Sequence:
#
# PCOD9565492 Si02
#       6
#    16  16  16  16  16  16
#     4  11  22  35  49  69  97 127 162 200 242 291
#     4   9  18  33  52  74  98 122 155 200 245 292
#     4  11  21  33  46  59  78 113 159 205 250 281
#     4   9  18  31  51  76  97 120 155 198 244 293
#     4  11  19  31  46  64  92 122 153 197 236 288
#     4  11  23  35  45  60  83 114 158 210 253 289
#
# _framework density 15.118504
#
# number of rings (size 3 to 8) (size 9 to 14) (size 15 to 20)
#    0.000    1.667    5.000    2.500    4.667    3.000 
#    0.000    0.833    0.000    0.000    0.000    0.000 
#    0.000    0.333    0.000    0.000    0.000    4.167 
#
# Total GULP energy -535368.308714 kJ/mol
# GULP energy per Si atom -5576.753216 kJ/mol
# Density = 1.508409 g / cm^3
# Si number density = 15.118504 Si / 1000 Ang^3
#
#
#
# Elastic Constant Matrix: (Units=GPa)
#
#
# Indices 1 2 3 4 5 6 
#
# 1 40.4760 12.4510 11.5059 0.0000 0.0000 0.0000
# 2 12.4510 40.4774 11.5065 0.0000 0.0000 0.0000
# 3 11.5059 11.5065 39.2549 0.0000 0.0000 0.0000
# 4 0.0000 0.0000 0.0000 31.7196 0.0000 0.0000
# 5 0.0000 0.0000 0.0000 0.0000 31.7121 0.0000
# 6 0.0000 0.0000 0.0000 0.0000 0.0000 6.4466
#
#
#
# Elastic Compliance Matrix: (Units=1/GPa)
#
#
# Indices 1 2 3 4 5 6 
#
# 1 0.028668 -0.007014 -0.006347 0.000000 0.000000 0.000000
# 2 -0.007014 0.028667 -0.006347 0.000000 0.000000 0.000000
# 3 -0.006347 -0.006347 0.029195 0.000000 0.000000 0.000000
# 4 0.000000 0.000000 0.000000 0.031526 0.000000 0.000000
# 5 0.000000 0.000000 0.000000 0.000000 0.031534 0.000000
# 6 0.000000 0.000000 0.000000 0.000000 0.000000 0.155121
#
#
# Mechanical properties :
#
#
# Convention : Reuss Voigt Hill
#
# Bulk Modulus (GPa) = 21.22502 21.23724 21.23113
# Shear Modulus (GPa) = 13.89538 19.62530 16.76034
#
# Velocity S-wave (km/s) = 3.03495 3.60682 3.33317
# Velocity P-wave (km/s) = 5.13330 5.60564 5.37466
#
# Compressibility (1/GPa) = 0.04711420
#
# Stress axis : x y z
#
# Youngs Moduli (GPa) = 34.88238 34.88334 34.25210
#
# Poissons Ratio (x) = 0.24468 0.21739
# Poissons Ratio (y) = 0.24467 0.21740
# Poissons Ratio (z) = 0.22139 0.22141
#
# Static dielectric constant tensor:
#      x y z
#    x 1.517660 0.000000 0.000000 
#    y 0.000000 1.517660 0.000000 
#    z 0.000000 0.000000 1.528490 
# 
# From -- ./inp_files/2760.got.cif
#   From: 2010.05.17/outbox.cif.g08.bks.cpg/sg129_2_cif.got.tgz:2760.got - 2010.05.20 12:12:06.
