data_PCOD9565581
_publ_section_title
;
Structure prediction by ZEFSAII (Michael W. Deem and Ramdas Pophale) SiO2 
 PCOD9565581
Probable space group: P 4/N C C
;
_chemical_formula_sum "Si O2"
_cell_formula_units_Z 104
_cell_length_a 25.110945
_cell_length_b 25.110945
_cell_length_c 9.218339
_cell_angle_alpha 90.000000
_cell_angle_beta 90.000000
_cell_angle_gamma 90.000000
_cell_volume 5812.711773
_symmetry_space_group_name_H-M "P 4/N C C"
_symmetry_group_IT_number 130
_symmetry_cell_setting 'tetragonal'
loop_
_space_group_symop_operation_xyz
x,y,z
1/2-y,x,z
1/2-x,1/2-y,z
y,1/2-x,z
1/2+x,-y,1/2-z
-x,1/2+y,1/2-z
1/2+y,1/2+x,1/2-z
-y,-x,1/2-z
-x,-y,-z
1/2+y,-x,-z
1/2+x,1/2+y,-z
-y,1/2+x,-z
1/2-x,y,1/2+z
x,1/2-y,1/2+z
1/2-y,1/2-x,1/2+z
y,x,1/2+z
loop_
_atom_site_type_symbol
_atom_site_label
_atom_site_fract_x
_atom_site_fract_y
_atom_site_fract_z
Si Si1 0.975370 0.233220 0.422666
Si Si2 0.426562 0.539589 0.591506
Si Si3 0.311846 0.578064 0.641132
Si Si4 0.817449 0.196253 0.011103
Si Si5 0.940181 0.511589 0.357031
Si Si6 0.631391 0.131391 0.250000
Si Si7 0.991928 0.328572 0.208426
O O1 0.937053 0.264995 0.530846
O O2 0.946657 0.198355 0.299037
O O3 0.002273 0.281023 0.325271
O O4 0.001970 0.195325 0.545535
O O5 0.439215 0.560786 0.750000
O O6 0.365679 0.554858 0.570939
O O7 0.468717 0.567499 0.485408
O O8 0.439880 0.476602 0.587285
O O9 0.309258 0.640960 0.639888
O O10 0.841808 0.158799 0.888152
O O11 0.756912 0.182740 0.044759
O O12 0.978878 0.478878 0.250000
O O13 0.883932 0.524653 0.284570
O O14 0.569016 0.148946 0.235018
#
# Coordination Sequence:
#
# PCOD9565581 Si02
#       7
#    16  16  16  16  16   8  16
#     4  10  22  35  53  72  96 130 173 203 259 316
#     4  10  21  34  53  79  98 126 165 217 269 321
#     4  11  21  40  52  72  95 131 172 222 261 318
#     4  11  25  39  48  65  91 128 175 227 272 307
#     4  10  19  34  54  77 103 126 163 213 274 317
#     4  12  22  37  50  66  90 130 160 224 272 305
#     4  11  20  37  53  74  95 133 167 212 259 318
#
# _framework density 17.891822999999999
#
# number of rings (size 3 to 8) (size 9 to 14) (size 15 to 20)
#    0.000    1.385    2.308    4.615    0.000    2.462 
#    2.769    0.000    0.000    0.000    0.000    0.000 
#    0.000    0.000    0.000    0.000    0.000   53.846 
#
# Total GULP energy -579999.659599 kJ/mol
# GULP energy per Si atom -5576.919804 kJ/mol
# Density = 1.785110 g / cm^3
# Si number density = 17.891823 Si / 1000 Ang^3
#
#
#
# Elastic Constant Matrix: (Units=GPa)
#
#
# Indices 1 2 3 4 5 6 
#
# 1 -45.1921 139.0205 0.2575 0.0000 0.0000 0.0000
# 2 139.0205 -45.1386 0.2289 0.0000 0.0000 0.0000
# 3 0.2575 0.2289 75.6009 0.0000 0.0000 0.0000
# 4 0.0000 0.0000 0.0000 35.7649 0.0000 0.0000
# 5 0.0000 0.0000 0.0000 0.0000 35.7504 0.0000
# 6 0.0000 0.0000 0.0000 0.0000 0.0000 18.9197
#
#
#
# Elastic Compliance Matrix: (Units=1/GPa)
#
#
# Indices 1 2 3 4 5 6 
#
# 1 0.002611 0.008042 -0.000033 0.000000 0.000000 0.000000
# 2 0.008042 0.002614 -0.000035 0.000000 0.000000 0.000000
# 3 -0.000033 -0.000035 0.013228 0.000000 0.000000 0.000000
# 4 0.000000 0.000000 0.000000 0.027960 0.000000 0.000000
# 5 0.000000 0.000000 0.000000 0.000000 0.027972 0.000000
# 6 0.000000 0.000000 0.000000 0.000000 0.000000 0.052855
#
#
# Mechanical properties :
#
#
# Convention : Reuss Voigt Hill
#
# Bulk Modulus (GPa) = 29.06958 29.36492 29.21725
# Shear Modulus (GPa) = 40.72989 7.80455 24.26722
#
# Velocity S-wave (km/s) = 4.77639 2.09082 3.68683
# Velocity P-wave (km/s) = 6.83383 4.71983 5.87274
#
# Compressibility (1/GPa) = 0.03440022
#
# Stress axis : x y z
#
# Youngs Moduli (GPa) = 382.95971 382.50491 75.59968
#
# Poissons Ratio (x) = -3.07614 0.00251
# Poissons Ratio (y) = -3.07980 0.00267
# Poissons Ratio (z) = 0.01273 0.01351
#
# Static dielectric constant tensor:
#      x y z
#    x 1.631280 0.000000 0.000000 
#    y 0.000000 1.631280 0.000000 
#    z 0.000000 0.000000 1.713260 
# 
# From -- ./inp_files/1046.got.cif
#   From: 2010.05.17/outbox.cif.g08.bks.cpg/sg130_1_cif.got.tgz:1046.got - 2010.05.20 12:17:35.
