data_PCOD9565519
_publ_section_title
;
Structure prediction by ZEFSAII (Michael W. Deem and Ramdas Pophale) SiO2 
 PCOD9565519
Probable space group: P 4/N M M
;
_chemical_formula_sum "Si O2"
_cell_formula_units_Z 112
_cell_length_a 14.672949
_cell_length_b 14.672949
_cell_length_c 32.597603
_cell_angle_alpha 90.000000
_cell_angle_beta 90.000000
_cell_angle_gamma 90.000000
_cell_volume 7018.115032
_symmetry_space_group_name_H-M "P 4/N M M"
_symmetry_group_IT_number 129
_symmetry_cell_setting 'tetragonal'
loop_
_space_group_symop_operation_xyz
x,y,z
1/2-y,x,z
1/2-x,1/2-y,z
y,1/2-x,z
1/2+x,-y,-z
-x,1/2+y,-z
1/2+y,1/2+x,-z
-y,-x,-z
-x,-y,-z
1/2+y,-x,-z
1/2+x,1/2+y,-z
-y,1/2+x,-z
1/2-x,y,z
x,1/2-y,z
1/2-y,1/2-x,z
y,x,z
loop_
_atom_site_type_symbol
_atom_site_label
_atom_site_fract_x
_atom_site_fract_y
_atom_site_fract_z
Si Si1 0.507615 0.356973 0.360760
Si Si2 0.643779 0.494584 0.121233
Si Si3 0.646888 0.500287 0.492021
Si Si4 0.853692 0.500073 0.393570
Si Si5 0.143024 0.642835 0.192745
Si Si6 0.141639 0.510187 0.975211
Si Si7 0.144264 0.995420 0.263754
O O1 0.499402 0.250000 0.370979
O O2 0.415466 0.415466 0.368851
O O3 0.589550 0.409073 0.383420
O O4 0.527242 0.364834 0.311935
O O5 0.750000 0.515705 0.127586
O O6 0.581611 0.581611 0.128942
O O7 0.617365 0.415885 0.153087
O O8 0.633400 0.468700 0.073418
O O9 0.593281 0.406720 0.500000
O O10 0.750000 0.502350 0.508168
O O11 0.582243 0.582243 0.508035
O O12 0.651063 0.509419 0.442777
O O13 0.750000 0.498926 0.377884
O O14 0.915281 0.584720 0.377990
O O15 0.250000 0.628514 0.184312
O O16 0.129644 0.750000 0.200680
O O17 0.118460 0.585414 0.232976
O O18 0.250000 0.501965 0.984685
O O19 0.083177 0.416824 0.982450
O O20 0.089777 0.589777 0.000000
O O21 0.250000 0.017523 0.256802
O O22 0.081069 0.081069 0.255103
#
# Coordination Sequence:
#
# PCOD9565519 Si02
#       7
#    16  16  16  16  16  16  16
#     4   9  18  31  46  66  91 118 150 186 223 265
#     4   9  17  29  45  64  86 112 141 174 212 253
#     4   9  18  32  49  69  93 120 150 185 223 263
#     4   9  18  32  49  69  92 118 149 185 224 265
#     4   9  17  28  42  62  87 113 142 175 211 253
#     4   9  18  31  46  66  90 115 146 182 219 261
#     4   9  17  29  45  64  86 113 144 178 216 256
#
# _framework density 15.958702000000001
#
# number of rings (size 3 to 8) (size 9 to 14) (size 15 to 20)
#    0.000    3.000    0.000    0.429    0.000    3.143 
#    0.000    8.571    0.000    0.000    0.000    4.000 
#    0.000    6.857    0.000    0.000    0.000    0.000 
#
# Total GULP energy -623519.346569 kJ/mol
# GULP energy per Si atom -5567.137023 kJ/mol
# Density = 1.592238 g / cm^3
# Si number density = 15.958702 Si / 1000 Ang^3
#
#
#
# Elastic Constant Matrix: (Units=GPa)
#
#
# Indices 1 2 3 4 5 6 
#
# 1 83.5235 39.2829 9.4613 0.0000 0.0000 0.0000
# 2 39.2829 83.5238 9.4601 0.0000 0.0000 0.0000
# 3 9.4613 9.4601 8.4149 0.0000 0.0000 0.0000
# 4 0.0000 0.0000 0.0000 26.1479 0.0000 0.0000
# 5 0.0000 0.0000 0.0000 0.0000 26.1477 0.0000
# 6 0.0000 0.0000 0.0000 0.0000 0.0000 17.1596
#
#
#
# Elastic Compliance Matrix: (Units=1/GPa)
#
#
# Indices 1 2 3 4 5 6 
#
# 1 0.016227 -0.006377 -0.011075 0.000000 0.000000 0.000000
# 2 -0.006377 0.016226 -0.011071 0.000000 0.000000 0.000000
# 3 -0.011075 -0.011071 0.143734 0.000000 0.000000 0.000000
# 4 0.000000 0.000000 0.000000 0.038244 0.000000 0.000000
# 5 0.000000 0.000000 0.000000 0.000000 0.038244 0.000000
# 6 0.000000 0.000000 0.000000 0.000000 0.000000 0.058276
#
#
# Mechanical properties :
#
#
# Convention : Reuss Voigt Hill
#
# Bulk Modulus (GPa) = 8.39346 32.43008 20.41177
# Shear Modulus (GPa) = 12.26360 21.70824 16.98592
#
# Velocity S-wave (km/s) = 2.77512 3.69219 3.26600
# Velocity P-wave (km/s) = 3.94199 6.20820 5.20005
#
# Compressibility (1/GPa) = 0.11914034
#
# Stress axis : x y z
#
# Youngs Moduli (GPa) = 61.62723 61.62968 6.95730
#
# Poissons Ratio (x) = 0.39303 0.07705
# Poissons Ratio (y) = 0.39302 0.07702
# Poissons Ratio (z) = 0.68251 0.68230
#
# Static dielectric constant tensor:
#      x y z
#    x 1.526960 0.000000 0.000000 
#    y 0.000000 1.526960 0.000000 
#    z 0.000000 0.000000 1.541450 
# 
# From -- ./inp_files/7569.got.cif
#   From: 2010.05.17/outbox.cif.g08.bks.cpg/sg129_4_cif.got.tgz:7569.got - 2010.05.20 12:12:06.
