data_PCOD9565422
_publ_section_title
;
Structure prediction by ZEFSAII (Michael W. Deem and Ramdas Pophale) SiO2 
 PCOD9565422
Probable space group: P 4/N M M
;
_chemical_formula_sum "Si O2"
_cell_formula_units_Z 80
_cell_length_a 27.003276
_cell_length_b 27.003276
_cell_length_c 5.243150
_cell_angle_alpha 90.000000
_cell_angle_beta 90.000000
_cell_angle_gamma 90.000000
_cell_volume 3823.183940
_symmetry_space_group_name_H-M "P 4/N M M"
_symmetry_group_IT_number 129
_symmetry_cell_setting 'tetragonal'
loop_
_space_group_symop_operation_xyz
x,y,z
1/2-y,x,z
1/2-x,1/2-y,z
y,1/2-x,z
1/2+x,-y,-z
-x,1/2+y,-z
1/2+y,1/2+x,-z
-y,-x,-z
-x,-y,-z
1/2+y,-x,-z
1/2+x,1/2+y,-z
-y,1/2+x,-z
1/2-x,y,z
x,1/2-y,z
1/2-y,1/2-x,z
y,x,z
loop_
_atom_site_type_symbol
_atom_site_label
_atom_site_fract_x
_atom_site_fract_y
_atom_site_fract_z
Si Si1 0.846302 0.041790 0.524905
Si Si2 0.860452 0.558667 0.202343
Si Si3 0.693134 0.306867 0.000000
Si Si4 0.250000 0.505301 0.230236
Si Si5 0.071033 0.502704 0.176300
Si Si6 0.250000 0.443172 0.740256
Si Si7 0.349645 0.849645 0.500000
O O1 0.799321 0.034645 0.705942
O O2 0.896891 0.042222 0.679129
O O3 0.841033 0.094545 0.396542
O O4 0.852354 0.990692 0.370259
O O5 0.898321 0.601680 0.292576
O O6 0.804012 0.580066 0.188772
O O7 0.888922 0.533663 0.961265
O O8 0.682961 0.339124 0.748536
O O9 0.750000 0.314018 0.080824
O O10 0.250000 0.460103 0.442404
O O11 0.250000 0.489367 0.937103
O O12 0.034511 0.465489 0.327443
O O13 0.035011 0.535011 0.000000
#
# Coordination Sequence:
#
# PCOD9565422 Si02
#       7
#    16  16   8   8  16   8   8
#     4  11  23  38  57  91 126 162 207 264 318 393
#     4  10  21  38  61  86 126 174 214 263 328 394
#     4  11  28  54  74  94 125 170 228 280 331 388
#     4  10  22  36  62  82 125 159 194 264 316 373
#     4  10  20  34  55  83 121 169 211 250 304 381
#     4  10  20  40  58  93 118 160 219 260 314 375
#     4  12  28  41  73 100 128 168 218 274 338 386
#
# _framework density 20.924966999999999
#
# number of rings (size 3 to 8) (size 9 to 14) (size 15 to 20)
#    0.000    1.500    2.000    2.400    7.000    0.800 
#    0.000    4.000    0.000    0.300    0.000    0.000 
#    0.000    2.000    0.000    0.000    0.000    0.500 
#
# Total GULP energy -445569.724172 kJ/mol
# GULP energy per Si atom -5569.621552 kJ/mol
# Density = 2.087734 g / cm^3
# Si number density = 20.924967 Si / 1000 Ang^3
#
#
#
# Elastic Constant Matrix: (Units=GPa)
#
#
# Indices 1 2 3 4 5 6 
#
# 1 65.9340 80.4016 14.0838 0.0000 0.0000 0.0000
# 2 80.4016 65.9326 14.0843 0.0000 0.0000 0.0000
# 3 14.0838 14.0843 42.1427 0.0000 0.0000 0.0000
# 4 0.0000 0.0000 0.0000 29.1964 0.0000 0.0000
# 5 0.0000 0.0000 0.0000 0.0000 29.1967 0.0000
# 6 0.0000 0.0000 0.0000 0.0000 0.0000 24.9611
#
#
#
# Elastic Compliance Matrix: (Units=1/GPa)
#
#
# Indices 1 2 3 4 5 6 
#
# 1 -0.030906 0.038210 -0.002441 0.000000 0.000000 0.000000
# 2 0.038210 -0.030907 -0.002440 0.000000 0.000000 0.000000
# 3 -0.002441 -0.002440 0.025360 0.000000 0.000000 0.000000
# 4 0.000000 0.000000 0.000000 0.034251 0.000000 0.000000
# 5 0.000000 0.000000 0.000000 0.000000 0.034250 0.000000
# 6 0.000000 0.000000 0.000000 0.000000 0.000000 0.040062
#
#
# Mechanical properties :
#
#
# Convention : Reuss Voigt Hill
#
# Bulk Modulus (GPa) = 33.10817 43.46095 38.28456
# Shear Modulus (GPa) = 322.13448 21.03349 171.58399
#
# Velocity S-wave (km/s) = 12.42102 3.17391 9.06519
# Velocity P-wave (km/s) = 14.88508 5.85206 11.30956
#
# Compressibility (1/GPa) = 0.03020402
#
# Stress axis : x y z
#
# Youngs Moduli (GPa) = -32.35592 -32.35502 39.43171
#
# Poissons Ratio (x) = 1.23629 0.09627
# Poissons Ratio (y) = 1.23632 0.09622
# Poissons Ratio (z) = -0.07899 -0.07895
#
# Static dielectric constant tensor:
#      x y z
#    x 1.793120 0.000000 0.000000 
#    y 0.000000 1.793120 0.000000 
#    z 0.000000 0.000000 1.818460 
# 
# From -- ./inp_files/1039.got.cif
#   From: 2010.05.17/outbox.cif.g08.bks.cpg/sg129_1_cif.got.tgz:1039.got - 2010.05.20 12:12:06.
