data_PCOD9565066
_publ_section_title
;
Structure prediction by ZEFSAII (Michael W. Deem and Ramdas Pophale) SiO2 
 PCOD9565066
Probable space group: P 4/M N C
;
_chemical_formula_sum "Si O2"
_cell_formula_units_Z 72
_cell_length_a 14.519184
_cell_length_b 14.519184
_cell_length_c 18.301281
_cell_angle_alpha 90.000000
_cell_angle_beta 90.000000
_cell_angle_gamma 90.000000
_cell_volume 3858.032727
_symmetry_space_group_name_H-M "P 4/M N C"
_symmetry_group_IT_number 128
_symmetry_cell_setting 'tetragonal'
loop_
_space_group_symop_operation_xyz
x,y,z
-y,x,z
-x,-y,z
y,-x,z
1/2+x,1/2-y,1/2-z
1/2-x,1/2+y,1/2-z
1/2+y,1/2+x,1/2-z
1/2-y,1/2-x,1/2-z
-x,-y,-z
y,-x,-z
x,y,-z
-y,x,-z
1/2-x,1/2+y,1/2+z
1/2+x,1/2-y,1/2+z
1/2-y,1/2-x,1/2+z
1/2+y,1/2+x,1/2+z
loop_
_atom_site_type_symbol
_atom_site_label
_atom_site_fract_x
_atom_site_fract_y
_atom_site_fract_z
Si Si1 0.276838 0.673155 0.500000
Si Si2 0.599882 0.036213 0.134250
Si Si3 0.878933 0.378933 0.250000
Si Si4 0.761699 0.572256 0.913948
Si Si5 0.759673 0.860106 0.618011
Si Si6 0.734550 0.024567 0.000000
O O1 0.212868 0.703508 0.568165
O O2 0.297575 0.564961 0.500000
O O3 0.375439 0.721053 0.500000
O O4 0.591841 0.146729 0.133910
O O5 0.500000 0.000000 0.110074
O O6 0.622674 0.976023 0.205910
O O7 0.672383 0.014807 0.071686
O O8 0.869350 0.295145 0.306364
O O9 0.740330 0.463972 0.912216
O O10 0.681338 0.637539 0.883154
O O11 0.778091 0.596191 0.000000
#
# Coordination Sequence:
#
# PCOD9565066 Si02
#       6
#     8  16   8  16  16   8
#     4  12  22  45  68 100 129 172 227 273 327 388
#     4  12  22  38  68 101 126 167 224 281 329 375
#     4  12  27  38  62 102 137 174 202 284 335 404
#     4  12  23  42  71  98 127 174 226 279 324 386
#     4  12  25  42  64  97 137 171 222 265 335 395
#     4  12  23  41  74  95 134 173 224 279 326 393
#
# _framework density 18.662362000000002
#
# number of rings (size 3 to 8) (size 9 to 14) (size 15 to 20)
#    0.000    0.000   10.000    0.667    0.000    2.444 
#    0.000    1.111    0.000    0.000    5.778    0.000 
#    0.000    0.000    0.000    0.000    0.000    0.000 
#
# Total GULP energy -402040.814670 kJ/mol
# GULP energy per Si atom -5583.900204 kJ/mol
# Density = 1.861989 g / cm^3
# Si number density = 18.662362 Si / 1000 Ang^3
#
#
#
# Elastic Constant Matrix: (Units=GPa)
#
#
# Indices 1 2 3 4 5 6 
#
# 1 132.8606 63.1628 67.1074 0.0000 0.0000 0.0000
# 2 63.1628 132.8606 67.1074 0.0000 0.0000 0.0000
# 3 67.1074 67.1074 124.7150 0.0000 0.0000 0.0000
# 4 0.0000 0.0000 0.0000 37.2564 0.0000 0.0000
# 5 0.0000 0.0000 0.0000 0.0000 37.2564 0.0000
# 6 0.0000 0.0000 0.0000 0.0000 0.0000 36.3584
#
#
#
# Elastic Compliance Matrix: (Units=1/GPa)
#
#
# Indices 1 2 3 4 5 6 
#
# 1 0.011212 -0.003135 -0.004346 0.000000 0.000000 0.000000
# 2 -0.003135 0.011212 -0.004346 0.000000 0.000000 0.000000
# 3 -0.004346 -0.004346 0.012696 0.000000 0.000000 0.000000
# 4 0.000000 0.000000 0.000000 0.026841 0.000000 0.000000
# 5 0.000000 0.000000 0.000000 0.000000 0.026841 0.000000
# 6 0.000000 0.000000 0.000000 0.000000 0.000000 0.027504
#
#
# Mechanical properties :
#
#
# Convention : Reuss Voigt Hill
#
# Bulk Modulus (GPa) = 87.22132 87.24348 87.23240
# Shear Modulus (GPa) = 34.77448 35.04483 34.90966
#
# Velocity S-wave (km/s) = 4.32133 4.33810 4.32973
# Velocity P-wave (km/s) = 8.46974 8.48186 8.47580
#
# Compressibility (1/GPa) = 0.01146509
#
# Stress axis : x y z
#
# Youngs Moduli (GPa) = 89.18652 89.18652 78.76748
#
# Poissons Ratio (x) = 0.27962 0.34234
# Poissons Ratio (y) = 0.27962 0.34234
# Poissons Ratio (z) = 0.38763 0.38763
#
# Static dielectric constant tensor:
#      x y z
#    x 1.655490 0.000000 0.000000 
#    y 0.000000 1.655490 0.000000 
#    z 0.000000 0.000000 1.306620 
# 
# From -- ./inp_files/4632.got.cif
#   From: 2010.05.17/outbox.cif.g08.bks.cpg/sg128_3_cif.got.tgz:4632.got - 2010.05.20 12:07:25.
