data_PCOD9565678
_publ_section_title
;
Structure prediction by ZEFSAII (Michael W. Deem and Ramdas Pophale) SiO2 
 PCOD9565678
Probable space group: P 4/N C C
;
_chemical_formula_sum "Si O2"
_cell_formula_units_Z 96
_cell_length_a 20.823448
_cell_length_b 20.823448
_cell_length_c 11.646491
_cell_angle_alpha 90.000000
_cell_angle_beta 90.000000
_cell_angle_gamma 90.000000
_cell_volume 5050.104685
_symmetry_space_group_name_H-M "P 4/N C C"
_symmetry_group_IT_number 130
_symmetry_cell_setting 'tetragonal'
loop_
_space_group_symop_operation_xyz
x,y,z
1/2-y,x,z
1/2-x,1/2-y,z
y,1/2-x,z
1/2+x,-y,1/2-z
-x,1/2+y,1/2-z
1/2+y,1/2+x,1/2-z
-y,-x,1/2-z
-x,-y,-z
1/2+y,-x,-z
1/2+x,1/2+y,-z
-y,1/2+x,-z
1/2-x,y,1/2+z
x,1/2-y,1/2+z
1/2-y,1/2-x,1/2+z
y,x,1/2+z
loop_
_atom_site_type_symbol
_atom_site_label
_atom_site_fract_x
_atom_site_fract_y
_atom_site_fract_z
Si Si1 0.790534 0.524754 0.662749
Si Si2 0.387770 0.154340 0.650327
Si Si3 0.146254 0.244319 0.972764
Si Si4 0.968074 0.395977 0.986274
Si Si5 0.018796 0.162564 0.716271
Si Si6 0.903883 0.979981 0.538455
O O1 0.836061 0.569453 0.738755
O O2 0.756342 0.575178 0.575500
O O3 0.834590 0.473268 0.597314
O O4 0.734794 0.500774 0.747901
O O5 0.356371 0.220709 0.606296
O O6 0.343310 0.092538 0.671647
O O7 0.435505 0.136951 0.545998
O O8 0.191996 0.185234 0.934078
O O9 0.911673 0.448429 0.986423
O O10 0.977527 0.368432 0.114638
O O11 0.029185 0.441152 0.956900
O O12 0.014382 0.122737 0.833651
#
# Coordination Sequence:
#
# PCOD9565678 Si02
#       6
#    16  16  16  16  16  16
#     4  12  21  35  53  81 111 149 189 244 294 354
#     4  11  21  36  55  79 107 153 200 247 300 336
#     4  11  22  35  50  73 109 156 206 240 277 337
#     4  10  22  36  58  82 109 151 198 243 306 359
#     4  11  21  35  57  77 113 149 192 240 292 357
#     4  10  20  39  57  81 110 147 201 252 299 358
#
# _framework density 19.009506999999999
#
# number of rings (size 3 to 8) (size 9 to 14) (size 15 to 20)
#    0.000    1.167    3.333    5.500    0.000    0.667 
#    0.000    1.667    0.000    0.000    0.000    0.000 
#    0.000    0.667    1.000    0.000    0.000    0.000 
#
# Total GULP energy -534989.721708 kJ/mol
# GULP energy per Si atom -5572.809601 kJ/mol
# Density = 1.896624 g / cm^3
# Si number density = 19.009507 Si / 1000 Ang^3
#
#
#
# Elastic Constant Matrix: (Units=GPa)
#
#
# Indices 1 2 3 4 5 6 
#
# 1 45.8835 16.3891 0.2590 0.0000 0.0000 0.0000
# 2 16.3891 45.8835 0.2590 0.0000 0.0000 0.0000
# 3 0.2590 0.2590 48.8344 0.0000 0.0000 0.0000
# 4 0.0000 0.0000 0.0000 8.7505 0.0000 0.0000
# 5 0.0000 0.0000 0.0000 0.0000 8.7505 0.0000
# 6 0.0000 0.0000 0.0000 0.0000 0.0000 17.2286
#
#
#
# Elastic Compliance Matrix: (Units=1/GPa)
#
#
# Indices 1 2 3 4 5 6 
#
# 1 0.024982 -0.008923 -0.000085 0.000000 0.000000 0.000000
# 2 -0.008923 0.024982 -0.000085 0.000000 0.000000 0.000000
# 3 -0.000085 -0.000085 0.020478 0.000000 0.000000 0.000000
# 4 0.000000 0.000000 0.000000 0.114279 0.000000 0.000000
# 5 0.000000 0.000000 0.000000 0.000000 0.114279 0.000000
# 6 0.000000 0.000000 0.000000 0.000000 0.000000 0.058043
#
#
# Mechanical properties :
#
#
# Convention : Reuss Voigt Hill
#
# Bulk Modulus (GPa) = 19.13661 19.37951 19.25806
# Shear Modulus (GPa) = 12.73407 15.19222 13.96315
#
# Velocity S-wave (km/s) = 2.59101 2.83006 2.71317
# Velocity P-wave (km/s) = 4.36347 4.57119 4.46854
#
# Compressibility (1/GPa) = 0.05225586
#
# Stress axis : x y z
#
# Youngs Moduli (GPa) = 40.02896 40.02896 48.83225
#
# Poissons Ratio (x) = 0.35717 0.00416
# Poissons Ratio (y) = 0.35717 0.00416
# Poissons Ratio (z) = 0.00341 0.00341
#
# Static dielectric constant tensor:
#      x y z
#    x 1.693790 0.000000 0.000000 
#    y 0.000000 1.693790 0.000000 
#    z 0.000000 0.000000 1.717960 
# 
# From -- ./inp_files/1774.got.cif
#   From: 2010.05.17/outbox.cif.g08.bks.cpg/sg130_1_cif.got.tgz:1774.got - 2010.05.20 12:17:35.
