data_PCOD9565513
_publ_section_title
;
Structure prediction by ZEFSAII (Michael W. Deem and Ramdas Pophale) SiO2 
 PCOD9565513
Probable space group: P 4/N M M
;
_chemical_formula_sum "Si O2"
_cell_formula_units_Z 40
_cell_length_a 14.407611
_cell_length_b 14.407611
_cell_length_c 7.557532
_cell_angle_alpha 90.000000
_cell_angle_beta 90.000000
_cell_angle_gamma 90.000000
_cell_volume 1568.786860
_symmetry_space_group_name_H-M "P 4/N M M"
_symmetry_group_IT_number 129
_symmetry_cell_setting 'tetragonal'
loop_
_space_group_symop_operation_xyz
x,y,z
1/2-y,x,z
1/2-x,1/2-y,z
y,1/2-x,z
1/2+x,-y,-z
-x,1/2+y,-z
1/2+y,1/2+x,-z
-y,-x,-z
-x,-y,-z
1/2+y,-x,-z
1/2+x,1/2+y,-z
-y,1/2+x,-z
1/2-x,y,z
x,1/2-y,z
1/2-y,1/2-x,z
y,x,z
loop_
_atom_site_type_symbol
_atom_site_label
_atom_site_fract_x
_atom_site_fract_y
_atom_site_fract_z
Si Si1 0.358002 0.358002 0.003384
Si Si2 0.855985 0.144087 0.785878
Si Si3 0.031265 0.031265 0.714890
Si Si4 0.641825 0.641825 0.575724
O O1 0.250000 0.377189 0.960611
O O2 0.423385 0.423385 0.891292
O O3 0.369028 0.369028 0.213263
O O4 0.750000 0.126694 0.729768
O O5 0.881594 0.250000 0.732993
O O6 0.926157 0.066890 0.719280
O O7 0.857444 0.142557 0.000000
O O8 0.079837 0.079837 0.549068
O O9 0.750000 0.623594 0.535715
#
# Coordination Sequence:
#
# PCOD9565513 Si02
#       4
#     8  16   8   8
#     4   9  18  31  49  84 132 166 195 253 326 388
#     4   9  19  35  55  85 125 163 203 261 327 379
#     4  12  19  31  62  91 110 158 228 260 294 388
#     4   9  18  31  49  84 132 166 195 253 326 388
#
# _framework density 25.497406999999999
#
# number of rings (size 3 to 8) (size 9 to 14) (size 15 to 20)
#    0.000    2.400    0.000    6.600    0.000    1.600 
#    0.000    0.000    0.000    7.800    0.000   28.000 
#    0.000   19.200    0.000    3.600    0.000    0.800 
#
# Total GULP energy -224576.304710 kJ/mol
# GULP energy per Si atom -5614.407618 kJ/mol
# Density = 2.543937 g / cm^3
# Si number density = 25.497407 Si / 1000 Ang^3
#
#
#
# Elastic Constant Matrix: (Units=GPa)
#
#
# Indices 1 2 3 4 5 6 
#
# 1 159.1540 125.7883 32.1942 0.0000 0.0000 0.0000
# 2 125.7883 159.1539 32.1941 0.0000 0.0000 0.0000
# 3 32.1942 32.1941 72.5515 0.0000 0.0000 0.0000
# 4 0.0000 0.0000 0.0000 27.8004 0.0000 0.0000
# 5 0.0000 0.0000 0.0000 0.0000 27.8008 0.0000
# 6 0.0000 0.0000 0.0000 0.0000 0.0000 35.6646
#
#
#
# Elastic Compliance Matrix: (Units=1/GPa)
#
#
# Indices 1 2 3 4 5 6 
#
# 1 0.016936 -0.013035 -0.001731 0.000000 0.000000 0.000000
# 2 -0.013035 0.016936 -0.001731 0.000000 0.000000 0.000000
# 3 -0.001731 -0.001731 0.015319 0.000000 0.000000 0.000000
# 4 0.000000 0.000000 0.000000 0.035971 0.000000 0.000000
# 5 0.000000 0.000000 0.000000 0.000000 0.035970 0.000000
# 6 0.000000 0.000000 0.000000 0.000000 0.000000 0.028039
#
#
# Mechanical properties :
#
#
# Convention : Reuss Voigt Hill
#
# Bulk Modulus (GPa) = 61.73912 85.69030 73.71471
# Shear Modulus (GPa) = 26.65761 31.63201 29.14481
#
# Velocity S-wave (km/s) = 3.23693 3.52603 3.38457
# Velocity P-wave (km/s) = 6.18359 7.08926 6.65186
#
# Compressibility (1/GPa) = 0.01619719
#
# Stress axis : x y z
#
# Youngs Moduli (GPa) = 59.04663 59.04663 65.27656
#
# Poissons Ratio (x) = 0.76968 0.11299
# Poissons Ratio (y) = 0.76968 0.11298
# Poissons Ratio (z) = 0.10220 0.10220
#
# Static dielectric constant tensor:
#      x y z
#    x 1.997010 0.000000 0.000000 
#    y 0.000000 1.997010 0.000000 
#    z 0.000000 0.000000 1.973860 
# 
# From -- ./inp_files/1410.got.cif
#   From: 2010.05.17/outbox.cif.g08.bks.cpg/sg129_1_cif.got.tgz:1410.got - 2010.05.20 12:12:06.
