data_PCOD9565439
_publ_section_title
;
Structure prediction by ZEFSAII (Michael W. Deem and Ramdas Pophale) SiO2 
 PCOD9565439
Probable space group: P 4/N M M
;
_chemical_formula_sum "Si O2"
_cell_formula_units_Z 64
_cell_length_a 20.727383
_cell_length_b 20.727383
_cell_length_c 7.613250
_cell_angle_alpha 90.000000
_cell_angle_beta 90.000000
_cell_angle_gamma 90.000000
_cell_volume 3270.838009
_symmetry_space_group_name_H-M "P 4/N M M"
_symmetry_group_IT_number 129
_symmetry_cell_setting 'tetragonal'
loop_
_space_group_symop_operation_xyz
x,y,z
1/2-y,x,z
1/2-x,1/2-y,z
y,1/2-x,z
1/2+x,-y,-z
-x,1/2+y,-z
1/2+y,1/2+x,-z
-y,-x,-z
-x,-y,-z
1/2+y,-x,-z
1/2+x,1/2+y,-z
-y,1/2+x,-z
1/2-x,y,z
x,1/2-y,z
1/2-y,1/2-x,z
y,x,z
loop_
_atom_site_type_symbol
_atom_site_label
_atom_site_fract_x
_atom_site_fract_y
_atom_site_fract_z
Si Si1 0.498240 0.323487 0.778851
Si Si2 0.828137 0.930736 0.566408
Si Si3 0.645074 0.179265 0.696016
Si Si4 0.172706 0.539495 0.153217
O O1 0.476494 0.250000 0.814170
O O2 0.450173 0.348219 0.631594
O O3 0.567760 0.320035 0.685085
O O4 0.513285 0.354594 0.967662
O O5 0.750000 0.923577 0.573293
O O6 0.866753 0.866753 0.619217
O O7 0.846644 0.990505 0.692858
O O8 0.672638 0.172638 0.500000
O O9 0.664365 0.250000 0.770050
O O10 0.660276 0.114549 0.803861
O O11 0.250000 0.536061 0.140286
#
# Coordination Sequence:
#
# PCOD9565439 Si02
#       4
#    16  16  16  16
#     4   9  19  36  56  79 114 158 197 235 286 348
#     4  10  21  39  63  89 116 148 189 240 301 363
#     4  11  20  33  55  84 118 155 199 246 283 323
#     4  10  20  36  57  81 118 161 196 232 286 348
#
# _framework density 19.566851
#
# number of rings (size 3 to 8) (size 9 to 14) (size 15 to 20)
#    0.000    2.000    2.500    1.500    0.000    3.000 
#    0.000    3.750    0.000   12.000    0.000    7.000 
#    0.000    0.000    0.000    0.000    0.000    0.000 
#
# Total GULP energy -356402.901669 kJ/mol
# GULP energy per Si atom -5568.795339 kJ/mol
# Density = 1.952232 g / cm^3
# Si number density = 19.566851 Si / 1000 Ang^3
#
#
#
# Elastic Constant Matrix: (Units=GPa)
#
#
# Indices 1 2 3 4 5 6 
#
# 1 68.8931 51.3068 45.1376 0.0000 0.0000 0.0000
# 2 51.3068 68.8931 45.1376 0.0000 0.0000 0.0000
# 3 45.1376 45.1376 112.3263 0.0000 0.0000 0.0000
# 4 0.0000 0.0000 0.0000 7.8388 0.0000 0.0000
# 5 0.0000 0.0000 0.0000 0.0000 7.8388 0.0000
# 6 0.0000 0.0000 0.0000 0.0000 0.0000 41.8505
#
#
#
# Elastic Compliance Matrix: (Units=1/GPa)
#
#
# Indices 1 2 3 4 5 6 
#
# 1 0.034389 -0.022473 -0.004788 0.000000 0.000000 0.000000
# 2 -0.022473 0.034389 -0.004788 0.000000 0.000000 0.000000
# 3 -0.004788 -0.004788 0.012751 0.000000 0.000000 0.000000
# 4 0.000000 0.000000 0.000000 0.127570 0.000000 0.000000
# 5 0.000000 0.000000 0.000000 0.000000 0.127570 0.000000
# 6 0.000000 0.000000 0.000000 0.000000 0.000000 0.023895
#
#
# Mechanical properties :
#
#
# Convention : Reuss Voigt Hill
#
# Bulk Modulus (GPa) = 57.37486 59.25297 58.31391
# Shear Modulus (GPa) = 11.61513 18.74100 15.17807
#
# Velocity S-wave (km/s) = 2.43906 3.09818 2.78817
# Velocity P-wave (km/s) = 6.10886 6.56859 6.34289
#
# Compressibility (1/GPa) = 0.01742924
#
# Stress axis : x y z
#
# Youngs Moduli (GPa) = 29.07906 29.07906 78.42607
#
# Poissons Ratio (x) = 0.65350 0.37552
# Poissons Ratio (y) = 0.65350 0.37552
# Poissons Ratio (z) = 0.13924 0.13924
#
# Static dielectric constant tensor:
#      x y z
#    x 1.675010 0.000000 0.000000 
#    y 0.000000 1.675010 0.000000 
#    z 0.000000 0.000000 1.761730 
# 
# From -- ./inp_files/2051.got.cif
#   From: 2010.05.17/outbox.cif.g08.bks.cpg/sg129_2_cif.got.tgz:2051.got - 2010.05.20 12:12:06.
