data_PCOD9565920
_publ_section_title
;
Structure prediction by ZEFSAII (Michael W. Deem and Ramdas Pophale) SiO2 
 PCOD9565920
Probable space group: P 4/N C C
;
_chemical_formula_sum "Si O2"
_cell_formula_units_Z 52
_cell_length_a 15.820243
_cell_length_b 15.820243
_cell_length_c 9.435759
_cell_angle_alpha 90.000000
_cell_angle_beta 90.000000
_cell_angle_gamma 90.000000
_cell_volume 2361.582598
_symmetry_space_group_name_H-M "P 4/N C C"
_symmetry_group_IT_number 130
_symmetry_cell_setting 'tetragonal'
loop_
_space_group_symop_operation_xyz
x,y,z
1/2-y,x,z
1/2-x,1/2-y,z
y,1/2-x,z
1/2+x,-y,1/2-z
-x,1/2+y,1/2-z
1/2+y,1/2+x,1/2-z
-y,-x,1/2-z
-x,-y,-z
1/2+y,-x,-z
1/2+x,1/2+y,-z
-y,1/2+x,-z
1/2-x,y,1/2+z
x,1/2-y,1/2+z
1/2-y,1/2-x,1/2+z
y,x,1/2+z
loop_
_atom_site_type_symbol
_atom_site_label
_atom_site_fract_x
_atom_site_fract_y
_atom_site_fract_z
Si Si1 0.259696 0.561371 0.433632
Si Si2 0.854358 0.011860 0.819326
Si Si3 0.250000 0.750000 0.000000
Si Si4 0.421326 0.504117 0.612149
O O1 0.178855 0.537037 0.526277
O O2 0.275021 0.514397 0.286380
O O3 0.257542 0.662714 0.413443
O O4 0.339232 0.533178 0.529570
O O5 0.917937 0.082064 0.750000
O O6 0.908041 0.926277 0.828025
O O7 0.439015 0.560986 0.750000
O O8 0.500000 0.500000 0.500000
#
# Coordination Sequence:
#
# PCOD9565920 Si02
#       4
#    16  16   4  16
#     4  12  25  38  64  90 142 169 217 280 330 420
#     4  11  24  41  57  97 126 176 224 260 339 403
#     4  12  24  38  56 106 136 170 208 262 368 394
#     4  11  22  41  61  86 128 180 232 268 320 413
#
# _framework density 22.019134999999999
#
# number of rings (size 3 to 8) (size 9 to 14) (size 15 to 20)
#    0.000    0.615    9.231    0.000    8.615    1.231 
#    0.000    0.000    0.000    0.923    0.000    4.308 
#    0.000    0.000    0.000    0.000    0.000    0.000 
#
# Total GULP energy -290594.434295 kJ/mol
# GULP energy per Si atom -5588.354506 kJ/mol
# Density = 2.196902 g / cm^3
# Si number density = 22.019135 Si / 1000 Ang^3
#
#
#
# Elastic Constant Matrix: (Units=GPa)
#
#
# Indices 1 2 3 4 5 6 
#
# 1 77.3086 43.7118 17.0501 0.0000 0.0000 0.0000
# 2 43.7118 77.3079 17.0502 0.0000 0.0000 0.0000
# 3 17.0501 17.0502 118.3039 0.0000 0.0000 0.0000
# 4 0.0000 0.0000 0.0000 39.9974 0.0000 0.0000
# 5 0.0000 0.0000 0.0000 0.0000 39.9974 0.0000
# 6 0.0000 0.0000 0.0000 0.0000 0.0000 36.3746
#
#
#
# Elastic Compliance Matrix: (Units=1/GPa)
#
#
# Indices 1 2 3 4 5 6 
#
# 1 0.019189 -0.010576 -0.001241 0.000000 0.000000 0.000000
# 2 -0.010576 0.019189 -0.001241 0.000000 0.000000 0.000000
# 3 -0.001241 -0.001241 0.008811 0.000000 0.000000 0.000000
# 4 0.000000 0.000000 0.000000 0.025002 0.000000 0.000000
# 5 0.000000 0.000000 0.000000 0.000000 0.025002 0.000000
# 6 0.000000 0.000000 0.000000 0.000000 0.000000 0.027492
#
#
# Mechanical properties :
#
#
# Convention : Reuss Voigt Hill
#
# Bulk Modulus (GPa) = 47.45831 47.61606 47.53719
# Shear Modulus (GPa) = 31.68074 36.28108 33.98091
#
# Velocity S-wave (km/s) = 3.79724 4.06360 3.93268
# Velocity P-wave (km/s) = 6.38948 6.60976 6.50055
#
# Compressibility (1/GPa) = 0.02107113
#
# Stress axis : x y z
#
# Youngs Moduli (GPa) = 52.11359 52.11309 113.49959
#
# Poissons Ratio (x) = 0.55115 0.14088
# Poissons Ratio (y) = 0.55116 0.14089
# Poissons Ratio (z) = 0.06469 0.06469
#
# Static dielectric constant tensor:
#      x y z
#    x 1.852240 0.000000 0.000000 
#    y 0.000000 1.852240 0.000000 
#    z 0.000000 0.000000 1.906450 
# 
# From -- ./inp_files/536.got.cif
#   From: 2010.05.17/outbox.cif.g08.bks.cpg/sg130_1_cif.got.tgz:536.got - 2010.05.20 12:17:35.
