data_PCOD9565743
_publ_section_title
;
Structure prediction by ZEFSAII (Michael W. Deem and Ramdas Pophale) SiO2 
 PCOD9565743
Probable space group: P 4/N C C
;
_chemical_formula_sum "Si O2"
_cell_formula_units_Z 120
_cell_length_a 20.683643
_cell_length_b 20.683643
_cell_length_c 14.030830
_cell_angle_alpha 90.000000
_cell_angle_beta 90.000000
_cell_angle_gamma 90.000000
_cell_volume 6002.572706
_symmetry_space_group_name_H-M "P 4/N C C"
_symmetry_group_IT_number 130
_symmetry_cell_setting 'tetragonal'
loop_
_space_group_symop_operation_xyz
x,y,z
1/2-y,x,z
1/2-x,1/2-y,z
y,1/2-x,z
1/2+x,-y,1/2-z
-x,1/2+y,1/2-z
1/2+y,1/2+x,1/2-z
-y,-x,1/2-z
-x,-y,-z
1/2+y,-x,-z
1/2+x,1/2+y,-z
-y,1/2+x,-z
1/2-x,y,1/2+z
x,1/2-y,1/2+z
1/2-y,1/2-x,1/2+z
y,x,1/2+z
loop_
_atom_site_type_symbol
_atom_site_label
_atom_site_fract_x
_atom_site_fract_y
_atom_site_fract_z
Si Si1 0.641806 0.255634 0.495142
Si Si2 0.773293 0.019706 0.870795
Si Si3 0.669767 0.684952 0.057270
Si Si4 0.806845 0.449935 0.151990
Si Si5 0.461044 0.346901 0.024118
Si Si6 0.900510 0.945113 0.871115
Si Si7 0.433396 0.566605 0.250000
Si Si8 0.179884 0.328659 0.715171
O O1 0.691686 0.314880 0.485197
O O2 0.589933 0.267602 0.579315
O O3 0.600542 0.240615 0.399551
O O4 0.781703 0.025465 0.755502
O O5 0.708171 0.981766 0.900740
O O6 0.837248 0.983355 0.912074
O O7 0.740444 0.662564 0.029710
O O8 0.667247 0.679660 0.170525
O O9 0.613416 0.648988 0.006406
O O10 0.877447 0.420693 0.173110
O O11 0.823801 0.503535 0.072288
O O12 0.462695 0.418645 0.069623
O O13 0.868199 0.882875 0.820972
O O14 0.925327 0.996319 0.793728
O O15 0.161777 0.255194 0.687609
#
# Coordination Sequence:
#
# PCOD9565743 Si02
#       8
#    16  16  16  16  16  16   8  16
#     4  10  21  39  66  96 118 143 189 247 306 368
#     4  10  22  40  61  87 122 162 196 242 305 358
#     4   9  17  30  50  79 113 146 183 233 288 335
#     4  10  22  42  61  84 119 154 194 244 298 356
#     4  11  22  36  58  86 116 153 202 246 284 343
#     4  11  21  36  56  81 114 156 201 239 284 345
#     4  10  22  40  60  79 114 166 202 233 288 356
#     4   9  18  33  56  85 115 148 188 238 293 346
#
# _framework density 19.991427999999999
#
# number of rings (size 3 to 8) (size 9 to 14) (size 15 to 20)
#    0.000    2.000    0.000    5.600    0.000    2.133 
#    0.000   10.667    0.000    0.000    0.000    0.000 
#    0.000    0.000    0.000    0.000    0.000    0.000 
#
# Total GULP energy -668856.619632 kJ/mol
# GULP energy per Si atom -5573.805164 kJ/mol
# Density = 1.994593 g / cm^3
# Si number density = 19.991428 Si / 1000 Ang^3
#
#
#
# Elastic Constant Matrix: (Units=GPa)
#
#
# Indices 1 2 3 4 5 6 
#
# 1 64.3962 -2.1791 42.7829 0.0000 0.0000 0.0000
# 2 -2.1791 64.3953 42.7831 0.0000 0.0000 0.0000
# 3 42.7829 42.7831 132.5840 0.0000 0.0000 0.0000
# 4 0.0000 0.0000 0.0000 -8.8492 0.0000 0.0000
# 5 0.0000 0.0000 0.0000 0.0000 -8.8677 0.0000
# 6 0.0000 0.0000 0.0000 0.0000 0.0000 33.8287
#
#
#
# Elastic Compliance Matrix: (Units=1/GPa)
#
#
# Indices 1 2 3 4 5 6 
#
# 1 0.021959 0.006938 -0.009325 0.000000 0.000000 0.000000
# 2 0.006938 0.021959 -0.009325 0.000000 0.000000 0.000000
# 3 -0.009325 -0.009325 0.013560 0.000000 0.000000 0.000000
# 4 0.000000 0.000000 0.000000 -0.113004 0.000000 0.000000
# 5 0.000000 0.000000 0.000000 0.000000 -0.112769 0.000000
# 6 0.000000 0.000000 0.000000 0.000000 0.000000 0.029561
#
#
# Mechanical properties :
#
#
# Convention : Reuss Voigt Hill
#
# Bulk Modulus (GPa) = 29.36374 47.57214 38.46794
# Shear Modulus (GPa) = -48.09552 15.08826 -16.50363
#
# Velocity S-wave (km/s) = -4.91022 2.75023 -2.87633
# Velocity P-wave (km/s) = 4.17457 5.82520 2.87280
#
# Compressibility (1/GPa) = 0.03405561
#
# Stress axis : x y z
#
# Youngs Moduli (GPa) = 45.54023 45.53935 73.74492
#
# Poissons Ratio (x) = -0.31596 0.68764
# Poissons Ratio (y) = -0.31596 0.68765
# Poissons Ratio (z) = 0.42464 0.42464
#
# Static dielectric constant tensor:
#      x y z
#    x 1.734790 0.000000 0.000000 
#    y 0.000000 1.734790 0.000000 
#    z 0.000000 0.000000 1.872650 
# 
# From -- ./inp_files/2581.got.cif
#   From: 2010.05.17/outbox.cif.g08.bks.cpg/sg130_2_cif.got.tgz:2581.got - 2010.05.20 12:17:35.
