data_PCOD9565866
_publ_section_title
;
Structure prediction by ZEFSAII (Michael W. Deem and Ramdas Pophale) SiO2 
 PCOD9565866
Probable space group: P 4/N C C
;
_chemical_formula_sum "Si O2"
_cell_formula_units_Z 64
_cell_length_a 14.570833
_cell_length_b 14.570833
_cell_length_c 14.294901
_cell_angle_alpha 90.000000
_cell_angle_beta 90.000000
_cell_angle_gamma 90.000000
_cell_volume 3034.938628
_symmetry_space_group_name_H-M "P 4/N C C"
_symmetry_group_IT_number 130
_symmetry_cell_setting 'tetragonal'
loop_
_space_group_symop_operation_xyz
x,y,z
1/2-y,x,z
1/2-x,1/2-y,z
y,1/2-x,z
1/2+x,-y,1/2-z
-x,1/2+y,1/2-z
1/2+y,1/2+x,1/2-z
-y,-x,1/2-z
-x,-y,-z
1/2+y,-x,-z
1/2+x,1/2+y,-z
-y,1/2+x,-z
1/2-x,y,1/2+z
x,1/2-y,1/2+z
1/2-y,1/2-x,1/2+z
y,x,1/2+z
loop_
_atom_site_type_symbol
_atom_site_label
_atom_site_fract_x
_atom_site_fract_y
_atom_site_fract_z
Si Si1 0.250000 0.250000 0.243347
Si Si2 0.750000 0.250000 0.250000
Si Si3 0.524331 0.475670 0.250000
Si Si4 0.056487 0.714742 0.335580
Si Si5 0.239441 0.402520 0.018184
Si Si6 0.822830 0.934239 0.693048
O O1 0.179689 0.163093 0.254187
O O2 0.757940 0.161959 0.319038
O O3 0.606455 0.459785 0.323135
O O4 0.427908 0.467094 0.303500
O O5 0.997810 0.742043 0.426648
O O6 0.007272 0.764355 0.249230
O O7 0.156446 0.331044 0.040717
O O8 0.222316 0.419376 0.908436
#
# Coordination Sequence:
#
# PCOD9565866 Si02
#       6
#     4   4   8  16  16  16
#     4  12  20  40  74 104 144 178 212 304 362 404
#     4  10  26  52  58  84 134 188 240 288 338 408
#     4  11  23  39  66  95 133 179 226 282 354 426
#     4  11  24  42  67  91 131 186 235 281 348 426
#     4  11  22  38  69 110 140 169 221 293 364 419
#     4  12  22  43  68 104 142 174 221 294 354 413
#
# _framework density 21.087741000000001
#
# number of rings (size 3 to 8) (size 9 to 14) (size 15 to 20)
#    0.000    0.750    5.000    2.250    0.000    1.000 
#    0.000   11.250    0.000    0.000    0.000    0.000 
#    0.000    0.000    0.000    0.000    0.000    0.000 
#
# Total GULP energy -356577.974604 kJ/mol
# GULP energy per Si atom -5571.530853 kJ/mol
# Density = 2.103974 g / cm^3
# Si number density = 21.087741 Si / 1000 Ang^3
#
#
#
# Elastic Constant Matrix: (Units=GPa)
#
#
# Indices 1 2 3 4 5 6 
#
# 1 166.2992 26.6151 33.5020 0.0000 0.0000 0.0000
# 2 26.6151 166.3004 33.5020 0.0000 0.0000 0.0000
# 3 33.5020 33.5020 101.4814 0.0000 0.0000 0.0000
# 4 0.0000 0.0000 0.0000 22.3291 0.0000 0.0000
# 5 0.0000 0.0000 0.0000 0.0000 22.3289 0.0000
# 6 0.0000 0.0000 0.0000 0.0000 0.0000 107.6821
#
#
#
# Elastic Compliance Matrix: (Units=1/GPa)
#
#
# Indices 1 2 3 4 5 6 
#
# 1 0.006507 -0.000652 -0.001933 0.000000 0.000000 0.000000
# 2 -0.000652 0.006507 -0.001933 0.000000 0.000000 0.000000
# 3 -0.001933 -0.001933 0.011130 0.000000 0.000000 0.000000
# 4 0.000000 0.000000 0.000000 0.044785 0.000000 0.000000
# 5 0.000000 0.000000 0.000000 0.000000 0.044785 0.000000
# 6 0.000000 0.000000 0.000000 0.000000 0.000000 0.009287
#
#
# Mechanical properties :
#
#
# Convention : Reuss Voigt Hill
#
# Bulk Modulus (GPa) = 66.18753 69.03547 67.61150
# Shear Modulus (GPa) = 36.47712 53.16547 44.82130
#
# Velocity S-wave (km/s) = 4.16357 5.02656 4.61528
# Velocity P-wave (km/s) = 7.38706 8.15455 7.78027
#
# Compressibility (1/GPa) = 0.01510859
#
# Stress axis : x y z
#
# Youngs Moduli (GPa) = 153.68059 153.68172 89.84536
#
# Poissons Ratio (x) = 0.10020 0.17366
# Poissons Ratio (y) = 0.10020 0.17366
# Poissons Ratio (z) = 0.29705 0.29705
#
# Static dielectric constant tensor:
#      x y z
#    x 1.786800 0.000000 0.000000 
#    y 0.000000 1.786800 0.000000 
#    z 0.000000 0.000000 1.825630 
# 
# From -- ./inp_files/2247.got.cif
#   From: 2010.05.17/outbox.cif.g08.bks.cpg/sg130_2_cif.got.tgz:2247.got - 2010.05.20 12:17:35.
