data_PCOD9565447
_publ_section_title
;
Structure prediction by ZEFSAII (Michael W. Deem and Ramdas Pophale) SiO2 
 PCOD9565447
Probable space group: P 4/N M M
;
_chemical_formula_sum "Si O2"
_cell_formula_units_Z 96
_cell_length_a 29.224881
_cell_length_b 29.224881
_cell_length_c 5.650884
_cell_angle_alpha 90.000000
_cell_angle_beta 90.000000
_cell_angle_gamma 90.000000
_cell_volume 4826.384251
_symmetry_space_group_name_H-M "P 4/N M M"
_symmetry_group_IT_number 129
_symmetry_cell_setting 'tetragonal'
loop_
_space_group_symop_operation_xyz
x,y,z
1/2-y,x,z
1/2-x,1/2-y,z
y,1/2-x,z
1/2+x,-y,-z
-x,1/2+y,-z
1/2+y,1/2+x,-z
-y,-x,-z
-x,-y,-z
1/2+y,-x,-z
1/2+x,1/2+y,-z
-y,1/2+x,-z
1/2-x,y,z
x,1/2-y,z
1/2-y,1/2-x,z
y,x,z
loop_
_atom_site_type_symbol
_atom_site_label
_atom_site_fract_x
_atom_site_fract_y
_atom_site_fract_z
Si Si1 0.151283 0.151283 0.793216
Si Si2 0.426072 0.867569 0.859868
Si Si3 0.449014 0.250000 0.253902
Si Si4 0.698009 0.132099 0.591643
Si Si5 0.041003 0.802013 0.255336
Si Si6 0.846815 0.514253 0.617123
Si Si7 0.250000 0.107761 0.761237
Si Si8 0.111728 0.388272 0.296590
O O1 0.204463 0.138189 0.781951
O O2 0.132069 0.132069 0.542401
O O3 0.130964 0.130964 0.043639
O O4 0.380601 0.846279 0.748025
O O5 0.468638 0.873786 0.689202
O O6 0.412394 0.912394 0.000000
O O7 0.442116 0.826579 0.024821
O O8 0.478299 0.203430 0.266598
O O9 0.418285 0.250000 0.501314
O O10 0.422613 0.250000 0.003174
O O11 0.681833 0.181833 0.500000
O O12 0.750000 0.134545 0.689578
O O13 0.698793 0.086188 0.425526
O O14 0.026626 0.750000 0.224467
O O15 0.998189 0.831366 0.351442
O O16 0.875578 0.558522 0.680446
#
# Coordination Sequence:
#
# PCOD9565447 Si02
#       8
#     8  16   8  16  16  16   8   8
#     4  12  24  43  68  98 144 189 226 279 346 409
#     4  11  23  40  63  92 130 167 212 282 350 409
#     4  12  24  42  66 105 138 174 233 296 344 398
#     4  10  20  37  56  86 125 167 214 261 330 405
#     4  10  21  36  62  93 122 160 215 275 330 389
#     4  11  25  39  66  98 130 173 224 281 345 405
#     4  12  24  43  68 100 144 188 228 278 345 412
#     4  12  26  46  65 102 141 186 226 287 356 413
#
# _framework density 19.890668000000002
#
# number of rings (size 3 to 8) (size 9 to 14) (size 15 to 20)
#    0.000    1.000    5.833    0.500    7.000    0.333 
#    0.000    0.417    0.000    3.000    0.000    0.000 
#    0.000    0.000    0.000    0.000    0.000    0.000 
#
# Total GULP energy -534588.530108 kJ/mol
# GULP energy per Si atom -5568.630522 kJ/mol
# Density = 1.984540 g / cm^3
# Si number density = 19.890668 Si / 1000 Ang^3
#
#
#
# Elastic Constant Matrix: (Units=GPa)
#
#
# Indices 1 2 3 4 5 6 
#
# 1 87.5208 37.9209 13.0600 0.0000 0.0000 0.0000
# 2 37.9209 87.5208 13.0600 0.0000 0.0000 0.0000
# 3 13.0600 13.0600 72.4821 0.0000 0.0000 0.0000
# 4 0.0000 0.0000 0.0000 69.9255 0.0000 0.0000
# 5 0.0000 0.0000 0.0000 0.0000 69.9255 0.0000
# 6 0.0000 0.0000 0.0000 0.0000 0.0000 32.2180
#
#
#
# Elastic Compliance Matrix: (Units=1/GPa)
#
#
# Indices 1 2 3 4 5 6 
#
# 1 0.014222 -0.005939 -0.001492 0.000000 0.000000 0.000000
# 2 -0.005939 0.014222 -0.001492 0.000000 0.000000 0.000000
# 3 -0.001492 -0.001492 0.014334 0.000000 0.000000 0.000000
# 4 0.000000 0.000000 0.000000 0.014301 0.000000 0.000000
# 5 0.000000 0.000000 0.000000 0.000000 0.014301 0.000000
# 6 0.000000 0.000000 0.000000 0.000000 0.000000 0.031039
#
#
# Mechanical properties :
#
#
# Convention : Reuss Voigt Hill
#
# Bulk Modulus (GPa) = 40.11236 41.73394 40.92315
# Shear Modulus (GPa) = 38.88724 46.64599 42.76661
#
# Velocity S-wave (km/s) = 4.42639 4.84790 4.64193
# Velocity P-wave (km/s) = 6.80692 7.23625 7.02487
#
# Compressibility (1/GPa) = 0.02492997
#
# Stress axis : x y z
#
# Youngs Moduli (GPa) = 70.31379 70.31379 69.76270
#
# Poissons Ratio (x) = 0.41762 0.10411
# Poissons Ratio (y) = 0.41762 0.10411
# Poissons Ratio (z) = 0.10493 0.10493
#
# Static dielectric constant tensor:
#      x y z
#    x 1.694850 0.000000 0.000000 
#    y 0.000000 1.694850 0.000000 
#    z 0.000000 0.000000 1.734700 
# 
# From -- ./inp_files/1155.got.cif
#   From: 2010.05.17/outbox.cif.g08.bks.cpg/sg129_1_cif.got.tgz:1155.got - 2010.05.20 12:12:06.
