data_PCOD9565940
_publ_section_title
;
Structure prediction by ZEFSAII (Michael W. Deem and Ramdas Pophale) SiO2 
 PCOD9565940
Probable space group: P 4/N C C
;
_chemical_formula_sum "Si O2"
_cell_formula_units_Z 64
_cell_length_a 15.993627
_cell_length_b 15.993627
_cell_length_c 12.046396
_cell_angle_alpha 90.000000
_cell_angle_beta 90.000000
_cell_angle_gamma 90.000000
_cell_volume 3081.421171
_symmetry_space_group_name_H-M "P 4/N C C"
_symmetry_group_IT_number 130
_symmetry_cell_setting 'tetragonal'
loop_
_space_group_symop_operation_xyz
x,y,z
1/2-y,x,z
1/2-x,1/2-y,z
y,1/2-x,z
1/2+x,-y,1/2-z
-x,1/2+y,1/2-z
1/2+y,1/2+x,1/2-z
-y,-x,1/2-z
-x,-y,-z
1/2+y,-x,-z
1/2+x,1/2+y,-z
-y,1/2+x,-z
1/2-x,y,1/2+z
x,1/2-y,1/2+z
1/2-y,1/2-x,1/2+z
y,x,1/2+z
loop_
_atom_site_type_symbol
_atom_site_label
_atom_site_fract_x
_atom_site_fract_y
_atom_site_fract_z
Si Si1 0.486100 0.325584 0.487192
Si Si2 0.963606 0.645035 0.561059
Si Si3 0.114818 0.912495 0.636260
Si Si4 0.194148 0.936348 0.217964
O O1 0.441484 0.236015 0.487914
O O2 0.421800 0.390324 0.433806
O O3 0.571508 0.328974 0.413429
O O4 0.516332 0.344642 0.611299
O O5 0.026300 0.608656 0.467921
O O6 0.004687 0.670548 0.677881
O O7 0.066018 0.933983 0.750000
O O8 0.211092 0.914834 0.677345
O O9 0.149623 0.850378 0.250000
#
# Coordination Sequence:
#
# PCOD9565940 Si02
#       4
#    16  16  16  16
#     4  11  25  43  68  99 137 175 229 277 330 399
#     4  11  25  43  68 100 133 182 225 275 338 392
#     4  11  23  42  65  97 135 171 217 278 328 400
#     4  11  24  42  68 100 132 176 220 275 340 397
#
# _framework density 20.769639000000002
#
# number of rings (size 3 to 8) (size 9 to 14) (size 15 to 20)
#    0.000    1.000    5.000    0.750    3.500    1.000 
#    0.000    0.000    0.000    3.000    0.000    0.000 
#    0.000    0.000    0.000    0.000    0.000    0.000 
#
# Total GULP energy -356408.336773 kJ/mol
# GULP energy per Si atom -5568.880262 kJ/mol
# Density = 2.072237 g / cm^3
# Si number density = 20.769639 Si / 1000 Ang^3
#
#
#
# Elastic Constant Matrix: (Units=GPa)
#
#
# Indices 1 2 3 4 5 6 
#
# 1 128.8121 11.5404 28.8664 0.0000 0.0000 0.0000
# 2 11.5404 128.8126 28.8681 0.0000 0.0000 0.0000
# 3 28.8664 28.8681 154.8137 0.0000 0.0000 0.0000
# 4 0.0000 0.0000 0.0000 3.3481 0.0000 0.0000
# 5 0.0000 0.0000 0.0000 0.0000 3.3550 0.0000
# 6 0.0000 0.0000 0.0000 0.0000 0.0000 10.3461
#
#
#
# Elastic Compliance Matrix: (Units=1/GPa)
#
#
# Indices 1 2 3 4 5 6 
#
# 1 0.008122 -0.000405 -0.001439 0.000000 0.000000 0.000000
# 2 -0.000405 0.008122 -0.001439 0.000000 0.000000 0.000000
# 3 -0.001439 -0.001439 0.006996 0.000000 0.000000 0.000000
# 4 0.000000 0.000000 0.000000 0.298674 0.000000 0.000000
# 5 0.000000 0.000000 0.000000 0.000000 0.298065 0.000000
# 6 0.000000 0.000000 0.000000 0.000000 0.000000 0.096655
#
#
# Mechanical properties :
#
#
# Convention : Reuss Voigt Hill
#
# Bulk Modulus (GPa) = 59.97378 61.22092 60.59735
# Shear Modulus (GPa) = 6.86099 26.28740 16.57420
#
# Velocity S-wave (km/s) = 1.81949 3.56148 2.82796
# Velocity P-wave (km/s) = 5.77516 6.81559 6.31683
#
# Compressibility (1/GPa) = 0.01667395
#
# Stress axis : x y z
#
# Youngs Moduli (GPa) = 123.12252 123.12239 142.93912
#
# Poissons Ratio (x) = 0.04989 0.20567
# Poissons Ratio (y) = 0.04989 0.20568
# Poissons Ratio (z) = 0.17716 0.17717
#
# Static dielectric constant tensor:
#      x y z
#    x 1.761630 0.000000 0.000000 
#    y 0.000000 1.761630 0.000000 
#    z 0.000000 0.000000 1.791730 
# 
# From -- ./inp_files/1521.got.cif
#   From: 2010.05.17/outbox.cif.g08.bks.cpg/sg130_1_cif.got.tgz:1521.got - 2010.05.20 12:17:35.
