data_PCOD9565786
_publ_section_title
;
Structure prediction by ZEFSAII (Michael W. Deem and Ramdas Pophale) SiO2 
 PCOD9565786
Probable space group: P 4/N C C
;
_chemical_formula_sum "Si O2"
_cell_formula_units_Z 112
_cell_length_a 15.193212
_cell_length_b 15.193212
_cell_length_c 28.512822
_cell_angle_alpha 90.000000
_cell_angle_beta 90.000000
_cell_angle_gamma 90.000000
_cell_volume 6581.719940
_symmetry_space_group_name_H-M "P 4/N C C"
_symmetry_group_IT_number 130
_symmetry_cell_setting 'tetragonal'
loop_
_space_group_symop_operation_xyz
x,y,z
1/2-y,x,z
1/2-x,1/2-y,z
y,1/2-x,z
1/2+x,-y,1/2-z
-x,1/2+y,1/2-z
1/2+y,1/2+x,1/2-z
-y,-x,1/2-z
-x,-y,-z
1/2+y,-x,-z
1/2+x,1/2+y,-z
-y,1/2+x,-z
1/2-x,y,1/2+z
x,1/2-y,1/2+z
1/2-y,1/2-x,1/2+z
y,x,1/2+z
loop_
_atom_site_type_symbol
_atom_site_label
_atom_site_fract_x
_atom_site_fract_y
_atom_site_fract_z
Si Si1 0.182892 0.382140 0.571067
Si Si2 0.306491 0.115616 0.725392
Si Si3 0.806972 0.336827 0.195214
Si Si4 0.970928 0.753506 0.177482
Si Si5 0.076678 0.422515 0.372372
Si Si6 0.512728 0.115078 0.149481
Si Si7 0.625432 0.669109 0.537060
O O1 0.136414 0.287036 0.578741
O O2 0.152732 0.458823 0.605533
O O3 0.160659 0.403842 0.516936
O O4 0.360065 0.204967 0.715177
O O5 0.295588 0.081001 0.778501
O O6 0.354224 0.042751 0.694557
O O7 0.750000 0.250000 0.186066
O O8 0.834994 0.334994 0.250000
O O9 0.752270 0.426085 0.188758
O O10 0.890559 0.346182 0.160733
O O11 0.952010 0.821545 0.135725
O O12 0.941414 0.657222 0.162593
O O13 0.117158 0.431537 0.424489
O O14 0.989754 0.477241 0.358834
O O15 0.725522 0.633836 0.543139
#
# Coordination Sequence:
#
# PCOD9565786 Si02
#       7
#    16  16  16  16  16  16  16
#     4   9  19  37  60  86 114 148 188 235 299 360
#     4  11  22  36  56  81 113 149 182 237 299 339
#     4  10  22  40  56  75 112 161 198 230 279 340
#     4  11  21  36  55  85 112 143 192 237 292 343
#     4  11  22  34  58  85 115 147 189 242 289 344
#     4  11  23  37  54  83 119 150 195 240 273 353
#     4   9  17  33  60  87 114 147 183 236 304 353
#
# _framework density 17.016828
#
# number of rings (size 3 to 8) (size 9 to 14) (size 15 to 20)
#    0.000    1.714    4.286    1.714    0.000    4.286 
#    0.000    0.000    0.000    0.000    0.000    0.000 
#    0.000    0.000    0.000    0.000    0.000    0.000 
#
# Total GULP energy -623863.909012 kJ/mol
# GULP energy per Si atom -5570.213473 kJ/mol
# Density = 1.697810 g / cm^3
# Si number density = 17.016828 Si / 1000 Ang^3
#
#
#
# Elastic Constant Matrix: (Units=GPa)
#
#
# Indices 1 2 3 4 5 6 
#
# 1 91.0972 54.0813 49.3264 0.0000 0.0000 0.0000
# 2 54.0813 91.0972 49.3264 0.0000 0.0000 0.0000
# 3 49.3264 49.3264 113.7570 0.0000 0.0000 0.0000
# 4 0.0000 0.0000 0.0000 32.5515 0.0000 0.0000
# 5 0.0000 0.0000 0.0000 0.0000 32.5515 0.0000
# 6 0.0000 0.0000 0.0000 0.0000 0.0000 24.8874
#
#
#
# Elastic Compliance Matrix: (Units=1/GPa)
#
#
# Indices 1 2 3 4 5 6 
#
# 1 0.018390 -0.008625 -0.004234 0.000000 0.000000 0.000000
# 2 -0.008625 0.018390 -0.004234 0.000000 0.000000 0.000000
# 3 -0.004234 -0.004234 0.012463 0.000000 0.000000 0.000000
# 4 0.000000 0.000000 0.000000 0.030721 0.000000 0.000000
# 5 0.000000 0.000000 0.000000 0.000000 0.030721 0.000000
# 6 0.000000 0.000000 0.000000 0.000000 0.000000 0.040181
#
#
# Mechanical properties :
#
#
# Convention : Reuss Voigt Hill
#
# Bulk Modulus (GPa) = 66.41819 66.82438 66.62129
# Shear Modulus (GPa) = 26.30579 27.54590 26.92584
#
# Velocity S-wave (km/s) = 3.93602 4.02773 3.98214
# Velocity P-wave (km/s) = 7.73123 7.80929 7.77036
#
# Compressibility (1/GPa) = 0.01505612
#
# Stress axis : x y z
#
# Youngs Moduli (GPa) = 54.37608 54.37608 80.23831
#
# Poissons Ratio (x) = 0.46899 0.33976
# Poissons Ratio (y) = 0.46899 0.33976
# Poissons Ratio (z) = 0.23025 0.23025
#
# Static dielectric constant tensor:
#      x y z
#    x 1.568430 0.000000 0.000000 
#    y 0.000000 1.568430 0.000000 
#    z 0.000000 0.000000 1.606980 
# 
# From -- ./inp_files/4594.got.cif
#   From: 2010.05.17/outbox.cif.g08.bks.cpg/sg130_3_cif.got.tgz:4594.got - 2010.05.20 12:17:35.
