data_PCOD9565228
_publ_section_title
;
Structure prediction by ZEFSAII (Michael W. Deem and Ramdas Pophale) SiO2 
 PCOD9565228
Probable space group: P 4/N M M
;
_chemical_formula_sum "Si O2"
_cell_formula_units_Z 64
_cell_length_a 22.202720
_cell_length_b 22.202720
_cell_length_c 7.631705
_cell_angle_alpha 90.000000
_cell_angle_beta 90.000000
_cell_angle_gamma 90.000000
_cell_volume 3762.131214
_symmetry_space_group_name_H-M "P 4/N M M"
_symmetry_group_IT_number 129
_symmetry_cell_setting 'tetragonal'
loop_
_space_group_symop_operation_xyz
x,y,z
1/2-y,x,z
1/2-x,1/2-y,z
y,1/2-x,z
1/2+x,-y,-z
-x,1/2+y,-z
1/2+y,1/2+x,-z
-y,-x,-z
-x,-y,-z
1/2+y,-x,-z
1/2+x,1/2+y,-z
-y,1/2+x,-z
1/2-x,y,z
x,1/2-y,z
1/2-y,1/2-x,z
y,x,z
loop_
_atom_site_type_symbol
_atom_site_label
_atom_site_fract_x
_atom_site_fract_y
_atom_site_fract_z
Si Si1 0.510873 0.182261 0.057636
Si Si2 0.684999 0.350649 0.809008
Si Si3 0.868125 0.444920 0.303682
Si Si4 0.501477 0.599163 0.647802
O O1 0.487511 0.250000 0.051316
O O2 0.578322 0.184266 0.141868
O O3 0.476488 0.138350 0.188737
O O4 0.520008 0.156060 0.864023
O O5 0.750000 0.335724 0.728122
O O6 0.622775 0.340129 0.704693
O O7 0.679994 0.320007 0.000000
O O8 0.859511 0.479157 0.486251
O O9 0.940547 0.435921 0.293349
O O10 0.551564 0.551564 0.591514
#
# Coordination Sequence:
#
# PCOD9565228 Si02
#       4
#    16  16  16  16
#     4   9  18  31  46  64  88 121 155 187 229 277
#     4   8  14  25  40  58  81 113 155 200 240 275
#     4   9  17  29  45  65  89 121 159 194 234 282
#     4  10  19  30  47  71  96 121 153 192 235 286
#
# _framework density 17.011634000000001
#
# number of rings (size 3 to 8) (size 9 to 14) (size 15 to 20)
#    0.000    3.000    0.000    3.750    0.000    4.250 
#    0.000    3.750    0.000    6.000    0.000    0.000 
#    0.000   16.500    0.000    1.000    0.000    0.750 
#
# Total GULP energy -356385.466211 kJ/mol
# GULP energy per Si atom -5568.522910 kJ/mol
# Density = 1.697291 g / cm^3
# Si number density = 17.011634 Si / 1000 Ang^3
#
#
#
# Elastic Constant Matrix: (Units=GPa)
#
#
# Indices 1 2 3 4 5 6 
#
# 1 37.6362 26.0602 31.7065 0.0000 0.0000 0.0000
# 2 26.0602 37.6363 31.7069 0.0000 0.0000 0.0000
# 3 31.7065 31.7069 94.6041 0.0000 0.0000 0.0000
# 4 0.0000 0.0000 0.0000 11.0034 0.0000 0.0000
# 5 0.0000 0.0000 0.0000 0.0000 11.0041 0.0000
# 6 0.0000 0.0000 0.0000 0.0000 0.0000 0.9198
#
#
#
# Elastic Compliance Matrix: (Units=1/GPa)
#
#
# Indices 1 2 3 4 5 6 
#
# 1 0.054973 -0.031412 -0.007896 0.000000 0.000000 0.000000
# 2 -0.031412 0.054973 -0.007897 0.000000 0.000000 0.000000
# 3 -0.007896 -0.007897 0.015863 0.000000 0.000000 0.000000
# 4 0.000000 0.000000 0.000000 0.090881 0.000000 0.000000
# 5 0.000000 0.000000 0.000000 0.000000 0.090876 0.000000
# 6 0.000000 0.000000 0.000000 0.000000 0.000000 1.087190
#
#
# Mechanical properties :
#
#
# Convention : Reuss Voigt Hill
#
# Bulk Modulus (GPa) = 31.84790 38.75820 35.30305
# Shear Modulus (GPa) = 3.33415 9.94566 6.63991
#
# Velocity S-wave (km/s) = 1.40149 2.42055 1.97778
# Velocity P-wave (km/s) = 4.62394 5.53579 5.10028
#
# Compressibility (1/GPa) = 0.03139924
#
# Stress axis : x y z
#
# Youngs Moduli (GPa) = 18.19076 18.19068 63.03834
#
# Poissons Ratio (x) = 0.57141 0.49776
# Poissons Ratio (y) = 0.57141 0.49779
# Poissons Ratio (z) = 0.14364 0.14365
#
# Static dielectric constant tensor:
#      x y z
#    x 1.593640 0.000000 0.000000 
#    y 0.000000 1.593640 0.000000 
#    z 0.000000 0.000000 1.623360 
# 
# From -- ./inp_files/2055.got.cif
#   From: 2010.05.17/outbox.cif.g08.bks.cpg/sg129_2_cif.got.tgz:2055.got - 2010.05.20 12:12:06.
