data_PCOD9565265
_publ_section_title
;
Structure prediction by ZEFSAII (Michael W. Deem and Ramdas Pophale) SiO2 
 PCOD9565265
Probable space group: P 4/N M M
;
_chemical_formula_sum "Si O2"
_cell_formula_units_Z 88
_cell_length_a 12.895193
_cell_length_b 12.895193
_cell_length_c 31.909078
_cell_angle_alpha 90.000000
_cell_angle_beta 90.000000
_cell_angle_gamma 90.000000
_cell_volume 5306.033024
_symmetry_space_group_name_H-M "P 4/N M M"
_symmetry_group_IT_number 129
_symmetry_cell_setting 'tetragonal'
loop_
_space_group_symop_operation_xyz
x,y,z
1/2-y,x,z
1/2-x,1/2-y,z
y,1/2-x,z
1/2+x,-y,-z
-x,1/2+y,-z
1/2+y,1/2+x,-z
-y,-x,-z
-x,-y,-z
1/2+y,-x,-z
1/2+x,1/2+y,-z
-y,1/2+x,-z
1/2-x,y,z
x,1/2-y,z
1/2-y,1/2-x,z
y,x,z
loop_
_atom_site_type_symbol
_atom_site_label
_atom_site_fract_x
_atom_site_fract_y
_atom_site_fract_z
Si Si1 0.624105 0.250000 0.861156
Si Si2 0.629325 0.370675 0.000000
Si Si3 0.959916 0.373301 0.090681
Si Si4 0.250000 0.624266 0.764933
Si Si5 0.628480 0.457819 0.371659
Si Si6 0.129417 0.543652 0.457182
Si Si7 0.455816 0.628072 0.713644
O O1 0.750000 0.250000 0.861589
O O2 0.593972 0.144524 0.884860
O O3 0.589089 0.250000 0.813032
O O4 0.562306 0.389213 0.041210
O O5 0.750000 0.383476 0.012317
O O6 0.976057 0.250000 0.097418
O O7 0.057140 0.442861 0.103535
O O8 0.250000 0.750000 0.764798
O O9 0.355690 0.594541 0.741095
O O10 0.750000 0.470557 0.364235
O O11 0.566203 0.566203 0.371404
O O12 0.608400 0.405267 0.416530
O O13 0.578623 0.389554 0.334542
O O14 0.103853 0.603853 0.500000
O O15 0.250000 0.519743 0.454856
O O16 0.059670 0.440331 0.457308
O O17 0.476941 0.750000 0.721041
O O18 0.553945 0.553945 0.722134
#
# Coordination Sequence:
#
# PCOD9565265 Si02
#       7
#     8   8  16   8  16  16  16
#     4   9  18  34  52  75  99 135 179 214 253 303
#     4   9  15  28  50  74 100 132 176 222 256 298
#     4  10  19  31  50  76 105 137 174 215 262 311
#     4   9  18  34  56  75 101 133 175 220 255 303
#     4  10  20  34  53  77 105 136 174 218 263 313
#     4  10  21  35  51  74 102 134 172 212 257 310
#     4  10  20  34  54  81 108 138 174 215 266 318
#
# _framework density 16.584896000000001
#
# number of rings (size 3 to 8) (size 9 to 14) (size 15 to 20)
#    0.000    2.273    1.818    1.364    0.000    3.455 
#    0.000    0.000    0.000    7.091    0.000    6.364 
#    0.000    0.000    0.000    0.000    0.000    0.000 
#
# Total GULP energy -490638.435478 kJ/mol
# GULP energy per Si atom -5575.436767 kJ/mol
# Density = 1.654715 g / cm^3
# Si number density = 16.584896 Si / 1000 Ang^3
#
#
#
# Elastic Constant Matrix: (Units=GPa)
#
#
# Indices 1 2 3 4 5 6 
#
# 1 99.6421 60.9012 34.2852 0.0000 0.0000 0.0000
# 2 60.9012 99.6421 34.2852 0.0000 0.0000 0.0000
# 3 34.2852 34.2852 86.3718 0.0000 0.0000 0.0000
# 4 0.0000 0.0000 0.0000 13.0731 0.0000 0.0000
# 5 0.0000 0.0000 0.0000 0.0000 13.0731 0.0000
# 6 0.0000 0.0000 0.0000 0.0000 0.0000 17.0389
#
#
#
# Elastic Compliance Matrix: (Units=1/GPa)
#
#
# Indices 1 2 3 4 5 6 
#
# 1 0.016657 -0.009156 -0.002977 0.000000 0.000000 0.000000
# 2 -0.009156 0.016657 -0.002977 0.000000 0.000000 0.000000
# 3 -0.002977 -0.002977 0.013942 0.000000 0.000000 0.000000
# 4 0.000000 0.000000 0.000000 0.076493 0.000000 0.000000
# 5 0.000000 0.000000 0.000000 0.000000 0.076493 0.000000
# 6 0.000000 0.000000 0.000000 0.000000 0.000000 0.058689
#
#
# Mechanical properties :
#
#
# Convention : Reuss Voigt Hill
#
# Bulk Modulus (GPa) = 58.70863 60.51104 59.60984
# Shear Modulus (GPa) = 16.95899 19.04930 18.00415
#
# Velocity S-wave (km/s) = 3.20121 3.39277 3.29838
# Velocity P-wave (km/s) = 7.00995 7.20504 7.10817
#
# Compressibility (1/GPa) = 0.01703327
#
# Stress axis : x y z
#
# Youngs Moduli (GPa) = 60.03661 60.03661 71.72804
#
# Poissons Ratio (x) = 0.54969 0.21356
# Poissons Ratio (y) = 0.54969 0.21356
# Poissons Ratio (z) = 0.17875 0.17875
#
# Static dielectric constant tensor:
#      x y z
#    x 1.540200 0.000000 0.000000 
#    y 0.000000 1.540200 0.000000 
#    z 0.000000 0.000000 1.569100 
# 
# From -- ./inp_files/7797.got.cif
#   From: 2010.05.17/outbox.cif.g08.bks.cpg/sg129_4_cif.got.tgz:7797.got - 2010.05.20 12:12:06.
