data_PCOD9565979
_publ_section_title
;
Structure prediction by ZEFSAII (Michael W. Deem and Ramdas Pophale) SiO2 
 PCOD9565979
Probable space group: P 4/N C C
;
_chemical_formula_sum "Si O2"
_cell_formula_units_Z 96
_cell_length_a 14.067886
_cell_length_b 14.067886
_cell_length_c 22.373934
_cell_angle_alpha 90.000000
_cell_angle_beta 90.000000
_cell_angle_gamma 90.000000
_cell_volume 4427.922727
_symmetry_space_group_name_H-M "P 4/N C C"
_symmetry_group_IT_number 130
_symmetry_cell_setting 'tetragonal'
loop_
_space_group_symop_operation_xyz
x,y,z
1/2-y,x,z
1/2-x,1/2-y,z
y,1/2-x,z
1/2+x,-y,1/2-z
-x,1/2+y,1/2-z
1/2+y,1/2+x,1/2-z
-y,-x,1/2-z
-x,-y,-z
1/2+y,-x,-z
1/2+x,1/2+y,-z
-y,1/2+x,-z
1/2-x,y,1/2+z
x,1/2-y,1/2+z
1/2-y,1/2-x,1/2+z
y,x,1/2+z
loop_
_atom_site_type_symbol
_atom_site_label
_atom_site_fract_x
_atom_site_fract_y
_atom_site_fract_z
Si Si1 0.750000 0.750000 0.740441
Si Si2 0.660860 0.006236 0.340406
Si Si3 0.800275 0.901101 0.961250
Si Si4 0.750000 0.250000 0.250000
Si Si5 0.213075 0.900758 0.351027
Si Si6 0.284542 0.033899 0.268564
Si Si7 0.014758 0.985243 0.750000
Si Si8 0.603904 0.293509 0.478771
O O1 0.702016 0.855120 0.739831
O O2 0.681808 0.931017 0.392186
O O3 0.748318 0.007279 0.294517
O O4 0.570726 0.987662 0.297556
O O5 0.639663 0.109693 0.367947
O O6 0.691485 0.866273 0.972533
O O7 0.819017 0.998166 0.998218
O O8 0.662280 0.245845 0.295029
O O9 0.280264 0.896043 0.407584
O O10 0.212705 0.005197 0.321718
O O11 0.386466 0.991587 0.284427
O O12 0.689426 0.365123 0.495584
#
# Coordination Sequence:
#
# PCOD9565979 Si02
#       8
#     4  16  16   4  16  16   8  16
#     4  12  24  44  64 100 154 192 232 292 368 438
#     4  12  22  45  69 104 149 188 245 299 359 446
#     4  11  27  49  75 106 143 195 255 309 364 436
#     4  12  20  40  74 108 148 176 232 294 364 436
#     4  12  24  42  70 106 144 183 234 301 364 436
#     4  12  24  41  67 107 145 191 237 293 370 441
#     4  12  24  42  69 105 148 196 238 294 370 440
#     4  11  25  49  75 105 140 187 246 302 366 435
#
# _framework density 21.680593999999999
#
# number of rings (size 3 to 8) (size 9 to 14) (size 15 to 20)
#    0.000    0.333    6.667    2.500    0.000    2.000 
#    6.000    0.000    0.000    0.000    0.000    0.000 
#    0.000    0.000    0.000    0.000    0.000    0.000 
#
# Total GULP energy -535573.638878 kJ/mol
# GULP energy per Si atom -5578.892072 kJ/mol
# Density = 2.163125 g / cm^3
# Si number density = 21.680594 Si / 1000 Ang^3
#
#
#
# Elastic Constant Matrix: (Units=GPa)
#
#
# Indices 1 2 3 4 5 6 
#
# 1 87.5066 21.3792 7.2752 0.0000 0.0000 0.0000
# 2 21.3792 87.5062 7.2751 0.0000 0.0000 0.0000
# 3 7.2752 7.2751 97.9939 0.0000 0.0000 0.0000
# 4 0.0000 0.0000 0.0000 21.1235 0.0000 0.0000
# 5 0.0000 0.0000 0.0000 0.0000 21.1235 0.0000
# 6 0.0000 0.0000 0.0000 0.0000 0.0000 32.0110
#
#
#
# Elastic Compliance Matrix: (Units=1/GPa)
#
#
# Indices 1 2 3 4 5 6 
#
# 1 0.012199 -0.002923 -0.000689 0.000000 0.000000 0.000000
# 2 -0.002923 0.012199 -0.000689 0.000000 0.000000 0.000000
# 3 -0.000689 -0.000689 0.010307 0.000000 0.000000 0.000000
# 4 0.000000 0.000000 0.000000 0.047341 0.000000 0.000000
# 5 0.000000 0.000000 0.000000 0.000000 0.047341 0.000000
# 6 0.000000 0.000000 0.000000 0.000000 0.000000 0.031239
#
#
# Mechanical properties :
#
#
# Convention : Reuss Voigt Hill
#
# Bulk Modulus (GPa) = 38.30784 38.31838 38.31311
# Shear Modulus (GPa) = 28.10121 30.65675 29.37898
#
# Velocity S-wave (km/s) = 3.60411 3.76442 3.68514
# Velocity P-wave (km/s) = 5.91836 6.05037 5.98473
#
# Compressibility (1/GPa) = 0.02610432
#
# Stress axis : x y z
#
# Youngs Moduli (GPa) = 81.97291 81.97257 97.02170
#
# Poissons Ratio (x) = 0.23962 0.06682
# Poissons Ratio (y) = 0.23962 0.06681
# Poissons Ratio (z) = 0.05645 0.05645
#
# Static dielectric constant tensor:
#      x y z
#    x 1.867480 0.000000 0.000000 
#    y 0.000000 1.867480 0.000000 
#    z 0.000000 0.000000 1.790220 
# 
# From -- ./inp_files/3874.got.cif
#   From: 2010.05.17/outbox.cif.g08.bks.cpg/sg130_2_cif.got.tgz:3874.got - 2010.05.20 12:17:35.
