data_PCOD9565547
_publ_section_title
;
Structure prediction by ZEFSAII (Michael W. Deem and Ramdas Pophale) SiO2 
 PCOD9565547
Probable space group: P 4/N C C
;
_chemical_formula_sum "Si O2"
_cell_formula_units_Z 112
_cell_length_a 16.603206
_cell_length_b 16.603206
_cell_length_c 22.748158
_cell_angle_alpha 90.000000
_cell_angle_beta 90.000000
_cell_angle_gamma 90.000000
_cell_volume 6270.903948
_symmetry_space_group_name_H-M "P 4/N C C"
_symmetry_group_IT_number 130
_symmetry_cell_setting 'tetragonal'
loop_
_space_group_symop_operation_xyz
x,y,z
1/2-y,x,z
1/2-x,1/2-y,z
y,1/2-x,z
1/2+x,-y,1/2-z
-x,1/2+y,1/2-z
1/2+y,1/2+x,1/2-z
-y,-x,1/2-z
-x,-y,-z
1/2+y,-x,-z
1/2+x,1/2+y,-z
-y,1/2+x,-z
1/2-x,y,1/2+z
x,1/2-y,1/2+z
1/2-y,1/2-x,1/2+z
y,x,1/2+z
loop_
_atom_site_type_symbol
_atom_site_label
_atom_site_fract_x
_atom_site_fract_y
_atom_site_fract_z
Si Si1 0.413094 0.520378 0.934249
Si Si2 0.633368 0.539674 0.777718
Si Si3 0.766113 0.504616 0.092043
Si Si4 0.427142 0.971182 0.844017
Si Si5 0.358898 0.330451 0.133281
Si Si6 0.127355 0.453034 0.015766
Si Si7 0.384396 0.246451 0.297195
O O1 0.321264 0.536171 0.914980
O O2 0.472134 0.484645 0.883537
O O3 0.459766 0.595251 0.962878
O O4 0.412659 0.447505 0.981429
O O5 0.611580 0.468676 0.823348
O O6 0.588907 0.519301 0.716544
O O7 0.603601 0.617665 0.813818
O O8 0.724270 0.551030 0.753104
O O9 0.843104 0.459054 0.121173
O O10 0.752105 0.576117 0.138918
O O11 0.799673 0.536744 0.029967
O O12 0.265599 0.357560 0.136981
O O13 0.400357 0.352131 0.072184
O O14 0.328979 0.323758 0.291247
#
# Coordination Sequence:
#
# PCOD9565547 Si02
#       7
#    16  16  16  16  16  16  16
#     4  10  19  35  56  76 104 140 188 231 272 326
#     4  10  18  32  49  74 111 146 182 212 258 320
#     4  10  19  33  54  79 101 140 187 232 279 308
#     4   9  19  33  53  76 103 142 186 230 265 321
#     4  11  22  33  49  79 118 150 171 203 268 347
#     4  10  20  34  52  78 108 143 180 224 273 333
#     4  10  19  31  51  82 118 147 176 216 269 336
#
# _framework density 17.860264000000001
#
# number of rings (size 3 to 8) (size 9 to 14) (size 15 to 20)
#    0.000    2.000    1.429    4.286    0.000    2.286 
#    0.000    1.429    0.000    0.429    0.000    0.000 
#    0.000    2.571    0.000    0.000    0.000    0.000 
#
# Total GULP energy -623589.382662 kJ/mol
# GULP energy per Si atom -5567.762345 kJ/mol
# Density = 1.781961 g / cm^3
# Si number density = 17.860264 Si / 1000 Ang^3
#
#
#
# Elastic Constant Matrix: (Units=GPa)
#
#
# Indices 1 2 3 4 5 6 
#
# 1 61.0768 28.0236 25.0594 0.0000 0.0000 0.0000
# 2 28.0236 61.0768 25.0594 0.0000 0.0000 0.0000
# 3 25.0594 25.0594 107.6030 0.0000 0.0000 0.0000
# 4 0.0000 0.0000 0.0000 24.0093 0.0000 0.0000
# 5 0.0000 0.0000 0.0000 0.0000 24.0093 0.0000
# 6 0.0000 0.0000 0.0000 0.0000 0.0000 20.1630
#
#
#
# Elastic Compliance Matrix: (Units=1/GPa)
#
#
# Indices 1 2 3 4 5 6 
#
# 1 0.021585 -0.008670 -0.003008 0.000000 0.000000 0.000000
# 2 -0.008670 0.021585 -0.003008 0.000000 0.000000 0.000000
# 3 -0.003008 -0.003008 0.010694 0.000000 0.000000 0.000000
# 4 0.000000 0.000000 0.000000 0.041651 0.000000 0.000000
# 5 0.000000 0.000000 0.000000 0.000000 0.041651 0.000000
# 6 0.000000 0.000000 0.000000 0.000000 0.000000 0.049596
#
#
# Mechanical properties :
#
#
# Convention : Reuss Voigt Hill
#
# Bulk Modulus (GPa) = 40.82705 42.89350 41.86028
# Shear Modulus (GPa) = 22.29203 23.74393 23.01798
#
# Velocity S-wave (km/s) = 3.53673 3.65009 3.59385
# Velocity P-wave (km/s) = 6.29180 6.46780 6.38041
#
# Compressibility (1/GPa) = 0.02449356
#
# Stress axis : x y z
#
# Youngs Moduli (GPa) = 46.32909 46.32909 93.50710
#
# Poissons Ratio (x) = 0.40165 0.28125
# Poissons Ratio (y) = 0.40165 0.28125
# Poissons Ratio (z) = 0.13935 0.13935
#
# Static dielectric constant tensor:
#      x y z
#    x 1.639260 0.000000 0.000000 
#    y 0.000000 1.639260 0.000000 
#    z 0.000000 0.000000 1.640370 
# 
# From -- ./inp_files/3937.got.cif
#   From: 2010.05.17/outbox.cif.g08.bks.cpg/sg130_2_cif.got.tgz:3937.got - 2010.05.20 12:17:35.
