data_PCOD9565026
_publ_section_title
;
Structure prediction by ZEFSAII (Michael W. Deem and Ramdas Pophale) SiO2 
 PCOD9565026
Probable space group: P 4/M N C
;
_chemical_formula_sum "Si O2"
_cell_formula_units_Z 104
_cell_length_a 20.497181
_cell_length_b 20.497181
_cell_length_c 13.876081
_cell_angle_alpha 90.000000
_cell_angle_beta 90.000000
_cell_angle_gamma 90.000000
_cell_volume 5829.819367
_symmetry_space_group_name_H-M "P 4/M N C"
_symmetry_group_IT_number 128
_symmetry_cell_setting 'tetragonal'
loop_
_space_group_symop_operation_xyz
x,y,z
-y,x,z
-x,-y,z
y,-x,z
1/2+x,1/2-y,1/2-z
1/2-x,1/2+y,1/2-z
1/2+y,1/2+x,1/2-z
1/2-y,1/2-x,1/2-z
-x,-y,-z
y,-x,-z
x,y,-z
-y,x,-z
1/2-x,1/2+y,1/2+z
1/2+x,1/2-y,1/2+z
1/2-y,1/2-x,1/2+z
1/2+y,1/2+x,1/2+z
loop_
_atom_site_type_symbol
_atom_site_label
_atom_site_fract_x
_atom_site_fract_y
_atom_site_fract_z
Si Si1 0.180844 0.974817 0.189991
Si Si2 0.391704 0.510428 0.500000
Si Si3 0.772522 0.773138 0.394514
Si Si4 0.389447 0.498247 0.891344
Si Si5 0.434893 0.212107 0.703211
Si Si6 0.116902 0.658959 0.394806
Si Si7 0.177334 0.823842 0.202307
O O1 0.154889 0.996126 0.296079
O O2 0.165598 0.898483 0.177812
O O3 0.256555 0.995178 0.184959
O O4 0.148017 0.010838 0.099231
O O5 0.432027 0.443471 0.500000
O O6 0.802150 0.768428 0.500000
O O7 0.717279 0.829624 0.395442
O O8 0.821077 0.793721 0.310468
O O9 0.732271 0.708873 0.365216
O O10 0.438133 0.436063 0.886068
O O11 0.359358 0.498417 0.000000
O O12 0.405316 0.158926 0.630529
O O13 0.429711 0.178403 0.807517
O O14 0.384001 0.273937 0.700343
O O15 0.086623 0.654764 0.500000
#
# Coordination Sequence:
#
# PCOD9565026 Si02
#       7
#    16   8  16  16  16  16  16
#     4  12  22  31  46  70  98 123 160 207 237 281
#     4  11  24  36  44  60  96 148 182 197 224 262
#     4   8  15  30  50  65  84 115 152 195 242 295
#     4   9  18  32  46  58  80 122 167 202 234 262
#     4   9  18  30  45  68  91 120 158 193 237 281
#     4   8  15  30  50  65  84 115 152 195 242 295
#     4   9  18  30  45  68  91 120 158 193 237 281
#
# _framework density 17.839317999999999
#
# number of rings (size 3 to 8) (size 9 to 14) (size 15 to 20)
#    0.000    2.692    0.000    5.077    2.154    2.462 
#    0.000    3.077    0.000    0.000    0.000    0.000 
#    0.000    9.846    0.000   11.077    0.000    0.000 
#
# Total GULP energy -579437.360915 kJ/mol
# GULP energy per Si atom -5571.513086 kJ/mol
# Density = 1.779872 g / cm^3
# Si number density = 17.839318 Si / 1000 Ang^3
#
#
#
# Elastic Constant Matrix: (Units=GPa)
#
#
# Indices 1 2 3 4 5 6 
#
# 1 7.9935 1.1956 6.4707 0.0000 0.0000 0.0000
# 2 1.1956 7.9935 6.4707 0.0000 0.0000 0.0000
# 3 6.4707 6.4707 83.5002 0.0000 0.0000 0.0000
# 4 0.0000 0.0000 0.0000 1.1791 0.0000 0.0000
# 5 0.0000 0.0000 0.0000 0.0000 1.1791 0.0000
# 6 0.0000 0.0000 0.0000 0.0000 0.0000 5.7327
#
#
#
# Elastic Compliance Matrix: (Units=1/GPa)
#
#
# Indices 1 2 3 4 5 6 
#
# 1 0.134631 -0.012473 -0.009466 0.000000 0.000000 0.000000
# 2 -0.012473 0.134631 -0.009466 0.000000 0.000000 0.000000
# 3 -0.009466 -0.009466 0.013443 0.000000 0.000000 0.000000
# 4 0.000000 0.000000 0.000000 0.848082 0.000000 0.000000
# 5 0.000000 0.000000 0.000000 0.000000 0.848082 0.000000
# 6 0.000000 0.000000 0.000000 0.000000 0.000000 0.174437
#
#
# Mechanical properties :
#
#
# Convention : Reuss Voigt Hill
#
# Bulk Modulus (GPa) = 4.54768 14.19568 9.37168
# Shear Modulus (GPa) = 2.18396 7.30821 4.74608
#
# Velocity S-wave (km/s) = 1.10765 2.02622 1.63286
# Velocity P-wave (km/s) = 2.04711 3.66727 2.96981
#
# Compressibility (1/GPa) = 0.21989257
#
# Stress axis : x y z
#
# Youngs Moduli (GPa) = 7.42772 7.42772 74.38711
#
# Poissons Ratio (x) = 0.09265 0.70418
# Poissons Ratio (y) = 0.09265 0.70418
# Poissons Ratio (z) = 0.07031 0.07031
#
# Static dielectric constant tensor:
#      x y z
#    x 1.611760 0.000000 0.000000 
#    y 0.000000 1.611760 0.000000 
#    z 0.000000 0.000000 1.655910 
# 
# From -- ./inp_files/4046.got.cif
#   From: 2010.05.17/outbox.cif.g08.bks.cpg/sg128_3_cif.got.tgz:4046.got - 2010.05.20 12:07:25.
