data_PCOD9565108
_publ_section_title
;
Structure prediction by ZEFSAII (Michael W. Deem and Ramdas Pophale) SiO2 
 PCOD9565108
Probable space group: P 4/N M M
;
_chemical_formula_sum "Si O2"
_cell_formula_units_Z 80
_cell_length_a 30.036372
_cell_length_b 30.036372
_cell_length_c 5.144193
_cell_angle_alpha 90.000000
_cell_angle_beta 90.000000
_cell_angle_gamma 90.000000
_cell_volume 4641.006781
_symmetry_space_group_name_H-M "P 4/N M M"
_symmetry_group_IT_number 129
_symmetry_cell_setting 'tetragonal'
loop_
_space_group_symop_operation_xyz
x,y,z
1/2-y,x,z
1/2-x,1/2-y,z
y,1/2-x,z
1/2+x,-y,-z
-x,1/2+y,-z
1/2+y,1/2+x,-z
-y,-x,-z
-x,-y,-z
1/2+y,-x,-z
1/2+x,1/2+y,-z
-y,1/2+x,-z
1/2-x,y,z
x,1/2-y,z
1/2-y,1/2-x,z
y,x,z
loop_
_atom_site_type_symbol
_atom_site_label
_atom_site_fract_x
_atom_site_fract_y
_atom_site_fract_z
Si Si1 0.461052 0.461052 0.805394
Si Si2 0.347926 0.482315 0.203458
Si Si3 0.081140 0.418860 0.305415
Si Si4 0.891039 0.472868 0.296126
Si Si5 0.618522 0.343207 0.749088
Si Si6 0.510516 0.250000 0.306121
Si Si7 0.069196 0.750000 0.194082
O O1 0.431982 0.431982 0.598843
O O2 0.441888 0.510260 0.747271
O O3 0.448309 0.448309 0.100473
O O4 0.369120 0.433840 0.245544
O O5 0.372838 0.512535 0.421642
O O6 0.295683 0.485018 0.249651
O O7 0.362311 0.500893 0.922668
O O8 0.879393 0.421633 0.257264
O O9 0.648325 0.351676 0.500000
O O10 0.596493 0.294862 0.755803
O O11 0.647481 0.352520 0.000000
O O12 0.528812 0.250000 0.599247
O O13 0.551325 0.250000 0.100415
#
# Coordination Sequence:
#
# PCOD9565108 Si02
#       7
#     8  16   8  16  16   8   8
#     4   8  16  28  50  67 104 142 172 197 233 278
#     4  10  17  29  49  74 105 136 171 209 252 293
#     4   8  16  26  42  69 102 141 170 200 245 296
#     4  10  18  34  49  77 104 139 171 204 241 295
#     4  12  24  39  58  80 104 132 166 211 259 316
#     4  12  18  32  56  82 102 134 172 218 262 292
#     4  12  24  40  58  81 108 124 164 215 266 312
#
# _framework density 17.237639999999999
#
# number of rings (size 3 to 8) (size 9 to 14) (size 15 to 20)
#    0.000    1.600    4.000    2.400    0.000    0.000 
#    0.000    1.000    0.000    1.800    0.000    0.000 
#    0.000    0.400    0.000    0.000    0.000   41.800 
#
# Total GULP energy -446731.855891 kJ/mol
# GULP energy per Si atom -5584.148199 kJ/mol
# Density = 1.719841 g / cm^3
# Si number density = 17.237640 Si / 1000 Ang^3
#
#
#
# Elastic Constant Matrix: (Units=GPa)
#
#
# Indices 1 2 3 4 5 6 
#
# 1 66.2695 34.7217 14.5098 0.0000 0.0000 0.0000
# 2 34.7217 66.2775 14.5104 0.0000 0.0000 0.0000
# 3 14.5098 14.5104 82.4110 0.0000 0.0000 0.0000
# 4 0.0000 0.0000 0.0000 20.5738 0.0000 0.0000
# 5 0.0000 0.0000 0.0000 0.0000 20.5710 0.0000
# 6 0.0000 0.0000 0.0000 0.0000 0.0000 29.4802
#
#
#
# Elastic Compliance Matrix: (Units=1/GPa)
#
#
# Indices 1 2 3 4 5 6 
#
# 1 0.021063 -0.010632 -0.001836 0.000000 0.000000 0.000000
# 2 -0.010632 0.021060 -0.001836 0.000000 0.000000 0.000000
# 3 -0.001836 -0.001836 0.012781 0.000000 0.000000 0.000000
# 4 0.000000 0.000000 0.000000 0.048606 0.000000 0.000000
# 5 0.000000 0.000000 0.000000 0.000000 0.048612 0.000000
# 6 0.000000 0.000000 0.000000 0.000000 0.000000 0.033921
#
#
# Mechanical properties :
#
#
# Convention : Reuss Voigt Hill
#
# Bulk Modulus (GPa) = 38.03135 38.04910 38.04022
# Shear Modulus (GPa) = 22.37967 24.20608 23.29288
#
# Velocity S-wave (km/s) = 3.60711 3.75141 3.67996
# Velocity P-wave (km/s) = 6.28165 6.39416 6.33815
#
# Compressibility (1/GPa) = 0.02629410
#
# Stress axis : x y z
#
# Youngs Moduli (GPa) = 47.47713 47.48294 78.24165
#
# Poissons Ratio (x) = 0.50486 0.14368
# Poissons Ratio (y) = 0.50480 0.14366
# Poissons Ratio (z) = 0.08719 0.08718
#
# Static dielectric constant tensor:
#      x y z
#    x 1.582350 0.000000 0.000000 
#    y 0.000000 1.582350 0.000000 
#    z 0.000000 0.000000 1.605820 
# 
# From -- ./inp_files/1029.got.cif
#   From: 2010.05.17/outbox.cif.g08.bks.cpg/sg129_1_cif.got.tgz:1029.got - 2010.05.20 12:12:06.
