data_PCOD9565183
_publ_section_title
;
Structure prediction by ZEFSAII (Michael W. Deem and Ramdas Pophale) SiO2 
 PCOD9565183
Probable space group: P 4/N M M
;
_chemical_formula_sum "Si O2"
_cell_formula_units_Z 72
_cell_length_a 14.403798
_cell_length_b 14.403798
_cell_length_c 23.363955
_cell_angle_alpha 90.000000
_cell_angle_beta 90.000000
_cell_angle_gamma 90.000000
_cell_volume 4847.305651
_symmetry_space_group_name_H-M "P 4/N M M"
_symmetry_group_IT_number 129
_symmetry_cell_setting 'tetragonal'
loop_
_space_group_symop_operation_xyz
x,y,z
1/2-y,x,z
1/2-x,1/2-y,z
y,1/2-x,z
1/2+x,-y,-z
-x,1/2+y,-z
1/2+y,1/2+x,-z
-y,-x,-z
-x,-y,-z
1/2+y,-x,-z
1/2+x,1/2+y,-z
-y,1/2+x,-z
1/2-x,y,z
x,1/2-y,z
1/2-y,1/2-x,z
y,x,z
loop_
_atom_site_type_symbol
_atom_site_label
_atom_site_fract_x
_atom_site_fract_y
_atom_site_fract_z
Si Si1 0.137207 0.643546 0.563854
Si Si2 0.140396 0.986110 0.110007
Si Si3 0.639342 0.486359 0.330383
Si Si4 0.641310 0.141310 0.000000
Si Si5 0.641616 0.141657 0.779963
O O1 0.110946 0.610946 0.500000
O O2 0.250000 0.646895 0.563575
O O3 0.105299 0.750000 0.573095
O O4 0.110418 0.575201 0.614700
O O5 0.250000 0.009133 0.109585
O O6 0.121164 0.923576 0.054047
O O7 0.122297 0.924230 0.166384
O O8 0.075729 0.075729 0.110017
O O9 0.750000 0.504291 0.334288
O O10 0.579056 0.579056 0.328049
O O11 0.623350 0.424679 0.273668
O O12 0.629290 0.250000 0.984363
O O13 0.750000 0.129702 0.763191
O O14 0.630560 0.250000 0.796693
#
# Coordination Sequence:
#
# PCOD9565183 Si02
#       5
#    16  16  16   8  16
#     4   8  14  26  44  64  84 105 133 174 219 253
#     4  10  19  30  45  65  90 117 142 170 206 251
#     4  10  19  29  42  61  86 115 143 170 203 247
#     4   9  17  30  48  68  87 109 142 182 218 245
#     4   9  17  30  48  67  84 104 136 180 223 253
#
# _framework density 14.853612999999999
#
# number of rings (size 3 to 8) (size 9 to 14) (size 15 to 20)
#    0.000    2.778    0.000    3.000    0.000    6.222 
#    0.000    0.000    0.000    0.000    0.000    0.000 
#    0.000   20.000    0.000    0.889    0.000    0.000 
#
# Total GULP energy -401139.672204 kJ/mol
# GULP energy per Si atom -5571.384336 kJ/mol
# Density = 1.481981 g / cm^3
# Si number density = 14.853613 Si / 1000 Ang^3
#
#
#
# Elastic Constant Matrix: (Units=GPa)
#
#
# Indices 1 2 3 4 5 6 
#
# 1 74.2831 63.2673 70.3394 0.0000 0.0000 0.0000
# 2 63.2673 74.2831 70.3394 0.0000 0.0000 0.0000
# 3 70.3394 70.3394 121.9498 0.0000 0.0000 0.0000
# 4 0.0000 0.0000 0.0000 4.8464 0.0000 0.0000
# 5 0.0000 0.0000 0.0000 0.0000 4.8464 0.0000
# 6 0.0000 0.0000 0.0000 0.0000 0.0000 28.7693
#
#
#
# Elastic Compliance Matrix: (Units=1/GPa)
#
#
# Indices 1 2 3 4 5 6 
#
# 1 0.054253 -0.036525 -0.010225 0.000000 0.000000 0.000000
# 2 -0.036525 0.054253 -0.010225 0.000000 0.000000 0.000000
# 3 -0.010225 -0.010225 0.019996 0.000000 0.000000 0.000000
# 4 0.000000 0.000000 0.000000 0.206337 0.000000 0.000000
# 5 0.000000 0.000000 0.000000 0.000000 0.206337 0.000000
# 6 0.000000 0.000000 0.000000 0.000000 0.000000 0.034759
#
#
# Mechanical properties :
#
#
# Convention : Reuss Voigt Hill
#
# Bulk Modulus (GPa) = 68.72633 75.37872 72.05252
# Shear Modulus (GPa) = 7.19696 12.13042 9.66369
#
# Velocity S-wave (km/s) = 2.20358 2.86084 2.55344
# Velocity P-wave (km/s) = 7.26938 7.85942 7.57015
#
# Compressibility (1/GPa) = 0.01455046
#
# Stress axis : x y z
#
# Youngs Moduli (GPa) = 18.43204 18.43204 50.01056
#
# Poissons Ratio (x) = 0.67324 0.51137
# Poissons Ratio (y) = 0.67324 0.51137
# Poissons Ratio (z) = 0.18847 0.18847
#
# Static dielectric constant tensor:
#      x y z
#    x 1.471150 0.000000 0.000000 
#    y 0.000000 1.471150 0.000000 
#    z 0.000000 0.000000 1.492300 
# 
# From -- ./inp_files/7433.got.cif
#   From: 2010.05.17/outbox.cif.g08.bks.cpg/sg129_4_cif.got.tgz:7433.got - 2010.05.20 12:12:06.
