data_PCOD9565821
_publ_section_title
;
Structure prediction by ZEFSAII (Michael W. Deem and Ramdas Pophale) SiO2 
 PCOD9565821
Probable space group: P 4/N C C
;
_chemical_formula_sum "Si O2"
_cell_formula_units_Z 108
_cell_length_a 13.632008
_cell_length_b 13.632008
_cell_length_c 28.030246
_cell_angle_alpha 90.000000
_cell_angle_beta 90.000000
_cell_angle_gamma 90.000000
_cell_volume 5208.906643
_symmetry_space_group_name_H-M "P 4/N C C"
_symmetry_group_IT_number 130
_symmetry_cell_setting 'tetragonal'
loop_
_space_group_symop_operation_xyz
x,y,z
1/2-y,x,z
1/2-x,1/2-y,z
y,1/2-x,z
1/2+x,-y,1/2-z
-x,1/2+y,1/2-z
1/2+y,1/2+x,1/2-z
-y,-x,1/2-z
-x,-y,-z
1/2+y,-x,-z
1/2+x,1/2+y,-z
-y,1/2+x,-z
1/2-x,y,1/2+z
x,1/2-y,1/2+z
1/2-y,1/2-x,1/2+z
y,x,1/2+z
loop_
_atom_site_type_symbol
_atom_site_label
_atom_site_fract_x
_atom_site_fract_y
_atom_site_fract_z
Si Si1 0.449190 0.510862 0.362002
Si Si2 0.895024 0.207138 0.020391
Si Si3 0.546414 0.162047 0.213310
Si Si4 0.250000 0.750000 0.182391
Si Si5 0.685125 0.969002 0.058634
Si Si6 0.095460 0.301394 0.294166
Si Si7 0.344954 0.903629 0.386182
Si Si8 0.750000 0.750000 0.067500
O O1 0.477851 0.612951 0.337249
O O2 0.411990 0.511955 0.416020
O O3 0.352368 0.476234 0.332183
O O4 0.536107 0.430995 0.360043
O O5 0.887015 0.172722 0.074682
O O6 0.817218 0.142825 0.989162
O O7 0.999964 0.190547 0.996448
O O8 0.575326 0.075326 0.250000
O O9 0.645611 0.226830 0.208249
O O10 0.455043 0.205285 0.242061
O O11 0.343088 0.777573 0.150136
O O12 0.689143 0.853967 0.066937
O O13 0.776499 0.023055 0.083961
O O14 0.132055 0.191556 0.301771
#
# Coordination Sequence:
#
# PCOD9565821 Si02
#       8
#    16  16  16   8  16  16  16   4
#     4  11  22  38  61  93 126 157 218 260 321 383
#     4   9  20  39  61  89 127 163 205 254 319 385
#     4  10  24  41  57  93 126 161 207 263 322 380
#     4  12  23  40  69  94 128 162 218 263 319 376
#     4  11  21  38  59  90 127 160 206 258 318 378
#     4  10  23  41  63  86 124 171 211 259 319 385
#     4  11  22  38  64  96 123 170 208 267 317 378
#     4  12  24  36  56  88 124 160 214 264 308 372
#
# _framework density 20.733718
#
# number of rings (size 3 to 8) (size 9 to 14) (size 15 to 20)
#    0.000    1.481    2.963    2.889    4.148    0.593 
#    0.000    0.000    0.000    0.000    3.852    0.000 
#    0.000    0.000    0.000    0.000    0.000    0.000 
#
# Total GULP energy -601388.168782 kJ/mol
# GULP energy per Si atom -5568.408970 kJ/mol
# Density = 2.068653 g / cm^3
# Si number density = 20.733718 Si / 1000 Ang^3
#
#
#
# Elastic Constant Matrix: (Units=GPa)
#
#
# Indices 1 2 3 4 5 6 
#
# 1 59.6279 -1.3142 14.9394 0.0000 0.0000 0.0000
# 2 -1.3142 59.6279 14.9394 0.0000 0.0000 0.0000
# 3 14.9394 14.9394 45.0166 0.0000 0.0000 0.0000
# 4 0.0000 0.0000 0.0000 16.6087 0.0000 0.0000
# 5 0.0000 0.0000 0.0000 0.0000 16.6087 0.0000
# 6 0.0000 0.0000 0.0000 0.0000 0.0000 18.6447
#
#
#
# Elastic Compliance Matrix: (Units=1/GPa)
#
#
# Indices 1 2 3 4 5 6 
#
# 1 0.018536 0.002126 -0.006857 0.000000 0.000000 0.000000
# 2 0.002126 0.018536 -0.006857 0.000000 0.000000 0.000000
# 3 -0.006857 -0.006857 0.026765 0.000000 0.000000 0.000000
# 4 0.000000 0.000000 0.000000 0.060209 0.000000 0.000000
# 5 0.000000 0.000000 0.000000 0.000000 0.060209 0.000000
# 6 0.000000 0.000000 0.000000 0.000000 0.000000 0.053635
#
#
# Mechanical properties :
#
#
# Convention : Reuss Voigt Hill
#
# Bulk Modulus (GPa) = 24.59339 24.60016 24.59678
# Shear Modulus (GPa) = 18.20710 19.41961 18.81336
#
# Velocity S-wave (km/s) = 2.96656 3.06374 3.01554
# Velocity P-wave (km/s) = 4.86017 4.94024 4.90037
#
# Compressibility (1/GPa) = 0.04066133
#
# Stress axis : x y z
#
# Youngs Moduli (GPa) = 53.95050 53.95050 37.36203
#
# Poissons Ratio (x) = -0.11473 0.25619
# Poissons Ratio (y) = -0.11473 0.25619
# Poissons Ratio (z) = 0.36994 0.36994
#
# Static dielectric constant tensor:
#      x y z
#    x 1.762250 0.000000 0.000000 
#    y 0.000000 1.762250 0.000000 
#    z 0.000000 0.000000 1.825340 
# 
# From -- ./inp_files/4985.got.cif
#   From: 2010.05.17/outbox.cif.g08.bks.cpg/sg130_3_cif.got.tgz:4985.got - 2010.05.20 12:17:35.
