data_PCOD9565694
_publ_section_title
;
Structure prediction by ZEFSAII (Michael W. Deem and Ramdas Pophale) SiO2 
 PCOD9565694
Probable space group: P 4/N C C
;
_chemical_formula_sum "Si O2"
_cell_formula_units_Z 108
_cell_length_a 15.115244
_cell_length_b 15.115244
_cell_length_c 22.457969
_cell_angle_alpha 90.000000
_cell_angle_beta 90.000000
_cell_angle_gamma 90.000000
_cell_volume 5130.985679
_symmetry_space_group_name_H-M "P 4/N C C"
_symmetry_group_IT_number 130
_symmetry_cell_setting 'tetragonal'
loop_
_space_group_symop_operation_xyz
x,y,z
1/2-y,x,z
1/2-x,1/2-y,z
y,1/2-x,z
1/2+x,-y,1/2-z
-x,1/2+y,1/2-z
1/2+y,1/2+x,1/2-z
-y,-x,1/2-z
-x,-y,-z
1/2+y,-x,-z
1/2+x,1/2+y,-z
-y,1/2+x,-z
1/2-x,y,1/2+z
x,1/2-y,1/2+z
1/2-y,1/2-x,1/2+z
y,x,1/2+z
loop_
_atom_site_type_symbol
_atom_site_label
_atom_site_fract_x
_atom_site_fract_y
_atom_site_fract_z
Si Si1 0.117497 0.306294 0.912572
Si Si2 0.630210 0.074541 0.886297
Si Si3 0.518292 0.219418 0.188486
Si Si4 0.589805 0.866518 0.901300
Si Si5 0.849788 0.981565 0.201045
Si Si6 0.397236 0.527038 0.994470
Si Si7 0.750000 0.750000 0.940548
Si Si8 0.044277 0.544277 0.750000
O O1 0.138909 0.205428 0.926368
O O2 0.091775 0.312381 0.843502
O O3 0.039704 0.346777 0.950842
O O4 0.725847 0.078183 0.857141
O O5 0.565518 0.126550 0.841020
O O6 0.616696 0.103746 0.955131
O O7 0.604142 0.969492 0.884511
O O8 0.425976 0.194894 0.156107
O O9 0.504234 0.281567 0.246250
O O10 0.556458 0.123420 0.203750
O O11 0.673606 0.828715 0.936353
O O12 0.499914 0.860868 0.940941
O O13 0.944549 0.949251 0.225632
O O14 0.500000 0.500000 0.000000
#
# Coordination Sequence:
#
# PCOD9565694 Si02
#       8
#    16  16  16  16  16  16   4   8
#     4  10  22  37  59  92 131 170 217 275 342 417
#     4  10  20  42  62  88 132 180 224 264 339 409
#     4  12  22  38  66  95 126 178 228 283 330 404
#     4  11  22  37  60 101 136 173 208 278 353 418
#     4  11  21  41  61  91 138 179 217 270 344 412
#     4   9  22  38  60  86 129 177 215 260 332 411
#     4  12  24  32  60 108 146 156 220 276 344 434
#     4  12  24  38  65  97 132 176 230 274 340 408
#
# _framework density 21.048586
#
# number of rings (size 3 to 8) (size 9 to 14) (size 15 to 20)
#    0.000    1.333    4.444    0.889    2.074    0.000 
#    0.000    1.481    0.000    0.000    0.000    0.000 
#    4.444    0.000    0.000    0.000    0.000    0.000 
#
# Total GULP energy -601451.333746 kJ/mol
# GULP energy per Si atom -5568.993831 kJ/mol
# Density = 2.100068 g / cm^3
# Si number density = 21.048586 Si / 1000 Ang^3
#
#
#
# Elastic Constant Matrix: (Units=GPa)
#
#
# Indices 1 2 3 4 5 6 
#
# 1 53.1296 -2.0347 12.8012 0.0000 0.0000 0.0000
# 2 -2.0347 53.1296 12.8012 0.0000 0.0000 0.0000
# 3 12.8012 12.8012 81.9897 0.0000 0.0000 0.0000
# 4 0.0000 0.0000 0.0000 29.4142 0.0000 0.0000
# 5 0.0000 0.0000 0.0000 0.0000 29.4142 0.0000
# 6 0.0000 0.0000 0.0000 0.0000 0.0000 15.3890
#
#
#
# Elastic Compliance Matrix: (Units=1/GPa)
#
#
# Indices 1 2 3 4 5 6 
#
# 1 0.019680 0.001552 -0.003315 0.000000 0.000000 0.000000
# 2 0.001552 0.019680 -0.003315 0.000000 0.000000 0.000000
# 3 -0.003315 -0.003315 0.013232 0.000000 0.000000 0.000000
# 4 0.000000 0.000000 0.000000 0.033997 0.000000 0.000000
# 5 0.000000 0.000000 0.000000 0.000000 0.033997 0.000000
# 6 0.000000 0.000000 0.000000 0.000000 0.000000 0.064982
#
#
# Mechanical properties :
#
#
# Convention : Reuss Voigt Hill
#
# Bulk Modulus (GPa) = 23.56458 26.15382 24.85920
# Shear Modulus (GPa) = 23.82437 25.82220 24.82329
#
# Velocity S-wave (km/s) = 3.36799 3.50636 3.43787
# Velocity P-wave (km/s) = 5.13265 5.37077 5.25306
#
# Compressibility (1/GPa) = 0.04243658
#
# Stress axis : x y z
#
# Youngs Moduli (GPa) = 50.81271 50.81271 75.57532
#
# Poissons Ratio (x) = -0.07888 0.25054
# Poissons Ratio (y) = -0.07888 0.25054
# Poissons Ratio (z) = 0.16845 0.16845
#
# Static dielectric constant tensor:
#      x y z
#    x 1.804330 0.000000 0.000000 
#    y 0.000000 1.804330 0.000000 
#    z 0.000000 0.000000 1.851920 
# 
# From -- ./inp_files/4343.got.cif
#   From: 2010.05.17/outbox.cif.g08.bks.cpg/sg130_3_cif.got.tgz:4343.got - 2010.05.20 12:17:35.
