data_PCOD9565479
_publ_section_title
;
Structure prediction by ZEFSAII (Michael W. Deem and Ramdas Pophale) SiO2 
 PCOD9565479
Probable space group: P 4/N M M
;
_chemical_formula_sum "Si O2"
_cell_formula_units_Z 50
_cell_length_a 17.552780
_cell_length_b 17.552780
_cell_length_c 9.062597
_cell_angle_alpha 90.000000
_cell_angle_beta 90.000000
_cell_angle_gamma 90.000000
_cell_volume 2792.186913
_symmetry_space_group_name_H-M "P 4/N M M"
_symmetry_group_IT_number 129
_symmetry_cell_setting 'tetragonal'
loop_
_space_group_symop_operation_xyz
x,y,z
1/2-y,x,z
1/2-x,1/2-y,z
y,1/2-x,z
1/2+x,-y,-z
-x,1/2+y,-z
1/2+y,1/2+x,-z
-y,-x,-z
-x,-y,-z
1/2+y,-x,-z
1/2+x,1/2+y,-z
-y,1/2+x,-z
1/2-x,y,z
x,1/2-y,z
1/2-y,1/2-x,z
y,x,z
loop_
_atom_site_type_symbol
_atom_site_label
_atom_site_fract_x
_atom_site_fract_y
_atom_site_fract_z
Si Si1 0.125885 0.125885 0.993924
Si Si2 0.058553 0.441448 0.428290
Si Si3 0.659189 0.840812 0.349129
Si Si4 0.660990 0.339011 0.000000
Si Si5 0.250000 0.250000 0.088410
Si Si6 0.661000 0.017421 0.817463
O O1 0.183314 0.183314 0.077841
O O2 0.040458 0.143916 0.047331
O O3 0.139826 0.139826 0.821155
O O4 0.108002 0.391999 0.543473
O O5 0.114159 0.488330 0.321094
O O6 0.000000 0.500000 0.500000
O O7 0.646136 0.750000 0.371998
O O8 0.602843 0.357207 0.131335
O O9 0.750000 0.349905 0.038986
O O10 0.750000 0.012901 0.784280
#
# Coordination Sequence:
#
# PCOD9565479 Si02
#       6
#     8   8   8   8   2  16
#     4  11  20  33  63  94 125 151 191 241 295 359
#     4  11  26  38  52  82 126 161 195 233 291 356
#     4  11  21  39  60  87 120 163 202 240 291 361
#     4   9  20  39  64  88 108 139 198 263 308 342
#     4  12  16  36  52 106 128 148 184 242 292 372
#     4  10  21  39  60  86 113 152 195 245 294 349
#
# _framework density 17.907111
#
# number of rings (size 3 to 8) (size 9 to 14) (size 15 to 20)
#    0.000    1.600    3.200    0.960    4.480    1.280 
#    0.000    1.600    0.000    0.000    0.000    0.000 
#    0.000    0.000    0.000    0.000    0.000    0.000 
#
# Total GULP energy -278567.673024 kJ/mol
# GULP energy per Si atom -5571.353460 kJ/mol
# Density = 1.786635 g / cm^3
# Si number density = 17.907111 Si / 1000 Ang^3
#
#
#
# Elastic Constant Matrix: (Units=GPa)
#
#
# Indices 1 2 3 4 5 6 
#
# 1 89.2470 70.3737 61.4839 0.0000 0.0000 0.0000
# 2 70.3737 89.2436 61.4850 0.0000 0.0000 0.0000
# 3 61.4839 61.4850 83.5259 0.0000 0.0000 0.0000
# 4 0.0000 0.0000 0.0000 10.3132 0.0000 0.0000
# 5 0.0000 0.0000 0.0000 0.0000 10.3125 0.0000
# 6 0.0000 0.0000 0.0000 0.0000 0.0000 32.0298
#
#
#
# Elastic Compliance Matrix: (Units=1/GPa)
#
#
# Indices 1 2 3 4 5 6 
#
# 1 0.033729 -0.019259 -0.010651 0.000000 0.000000 0.000000
# 2 -0.019259 0.033733 -0.010655 0.000000 0.000000 0.000000
# 3 -0.010651 -0.010655 0.027656 0.000000 0.000000 0.000000
# 4 0.000000 0.000000 0.000000 0.096963 0.000000 0.000000
# 5 0.000000 0.000000 0.000000 0.000000 0.096970 0.000000
# 6 0.000000 0.000000 0.000000 0.000000 0.000000 0.031221
#
#
# Mechanical properties :
#
#
# Convention : Reuss Voigt Hill
#
# Bulk Modulus (GPa) = 71.49054 72.07797 71.78426
# Shear Modulus (GPa) = 12.31336 15.10936 13.71136
#
# Velocity S-wave (km/s) = 2.62510 2.90791 2.77012
# Velocity P-wave (km/s) = 7.01412 7.18422 7.09968
#
# Compressibility (1/GPa) = 0.01398786
#
# Stress axis : x y z
#
# Youngs Moduli (GPa) = 29.64825 29.64481 36.15897
#
# Poissons Ratio (x) = 0.57093 0.38513
# Poissons Ratio (y) = 0.57100 0.38526
# Poissons Ratio (z) = 0.31578 0.31585
#
# Static dielectric constant tensor:
#      x y z
#    x 1.626410 0.000000 0.000000 
#    y 0.000000 1.626410 0.000000 
#    z 0.000000 0.000000 1.592390 
# 
# From -- ./inp_files/1670.got.cif
#   From: 2010.05.17/outbox.cif.g08.bks.cpg/sg129_1_cif.got.tgz:1670.got - 2010.05.20 12:12:06.
