data_PCOD9565313
_publ_section_title
;
Structure prediction by ZEFSAII (Michael W. Deem and Ramdas Pophale) SiO2 
 PCOD9565313
Probable space group: P 4/N M M
;
_chemical_formula_sum "Si O2"
_cell_formula_units_Z 112
_cell_length_a 15.565014
_cell_length_b 15.565014
_cell_length_c 23.299486
_cell_angle_alpha 90.000000
_cell_angle_beta 90.000000
_cell_angle_gamma 90.000000
_cell_volume 5644.758571
_symmetry_space_group_name_H-M "P 4/N M M"
_symmetry_group_IT_number 129
_symmetry_cell_setting 'tetragonal'
loop_
_space_group_symop_operation_xyz
x,y,z
1/2-y,x,z
1/2-x,1/2-y,z
y,1/2-x,z
1/2+x,-y,-z
-x,1/2+y,-z
1/2+y,1/2+x,-z
-y,-x,-z
-x,-y,-z
1/2+y,-x,-z
1/2+x,1/2+y,-z
-y,1/2+x,-z
1/2-x,y,z
x,1/2-y,z
1/2-y,1/2-x,z
y,x,z
loop_
_atom_site_type_symbol
_atom_site_label
_atom_site_fract_x
_atom_site_fract_y
_atom_site_fract_z
Si Si1 0.345643 0.476292 0.237141
Si Si2 0.115438 0.519884 0.802407
Si Si3 0.585298 0.158388 0.923064
Si Si4 0.515729 0.844609 0.962145
Si Si5 0.555909 0.154794 0.362709
Si Si6 0.845150 0.990008 0.328400
Si Si7 0.501566 0.854893 0.511337
O O1 0.250000 0.488076 0.216619
O O2 0.381664 0.381664 0.228641
O O3 0.409330 0.541766 0.206906
O O4 0.350803 0.500364 0.304640
O O5 0.162043 0.548535 0.859341
O O6 0.157374 0.511662 0.739770
O O7 0.070813 0.429188 0.814004
O O8 0.628071 0.250000 0.936468
O O9 0.643428 0.075049 0.930467
O O10 0.510244 0.147469 0.970577
O O11 0.551217 0.750000 0.951713
O O12 0.580627 0.919374 0.945631
O O13 0.597599 0.250000 0.362764
O O14 0.499009 0.148465 0.419416
O O15 0.622064 0.075926 0.359785
O O16 0.750000 0.964869 0.347230
O O17 0.915865 0.915865 0.336665
O O18 0.414184 0.914184 0.500000
O O19 0.500084 0.750000 0.493720
O O20 0.584140 0.915861 0.492444
#
# Coordination Sequence:
#
# PCOD9565313 Si02
#       7
#    16  16  16  16  16  16  16
#     4   9  17  29  47  72 101 135 172 209 254 304
#     4   9  17  31  50  71  98 131 168 210 254 303
#     4  10  19  33  55  78 100 127 162 209 262 308
#     4  10  21  36  54  76 102 133 167 203 247 300
#     4   9  18  35  57  78 103 135 174 222 271 315
#     4  10  20  33  51  76 106 141 177 212 256 309
#     4  10  21  37  58  84 113 146 185 229 277 328
#
# _framework density 19.841415000000001
#
# number of rings (size 3 to 8) (size 9 to 14) (size 15 to 20)
#    0.000    2.429    0.000    4.286    0.000    2.429 
#    0.000    2.857    0.000    5.143    0.000    6.000 
#    0.000    0.000    0.000    0.000    0.000    0.000 
#
# Total GULP energy -623629.704000 kJ/mol
# GULP energy per Si atom -5568.122357 kJ/mol
# Density = 1.979626 g / cm^3
# Si number density = 19.841415 Si / 1000 Ang^3
#
#
#
# Elastic Constant Matrix: (Units=GPa)
#
#
# Indices 1 2 3 4 5 6 
#
# 1 111.3952 75.3777 8.0002 0.0000 0.0000 0.0000
# 2 75.3777 111.3952 8.0002 0.0000 0.0000 0.0000
# 3 8.0002 8.0002 59.5468 0.0000 0.0000 0.0000
# 4 0.0000 0.0000 0.0000 4.3049 0.0000 0.0000
# 5 0.0000 0.0000 0.0000 0.0000 4.3049 0.0000
# 6 0.0000 0.0000 0.0000 0.0000 0.0000 -4.8024
#
#
#
# Elastic Compliance Matrix: (Units=1/GPa)
#
#
# Indices 1 2 3 4 5 6 
#
# 1 0.016590 -0.011174 -0.000728 0.000000 0.000000 0.000000
# 2 -0.011174 0.016590 -0.000728 0.000000 0.000000 0.000000
# 3 -0.000728 -0.000728 0.016989 0.000000 0.000000 0.000000
# 4 0.000000 0.000000 0.000000 0.232291 0.000000 0.000000
# 5 0.000000 0.000000 0.000000 0.000000 0.232291 0.000000
# 6 0.000000 0.000000 0.000000 0.000000 0.000000 -0.208227
#
#
# Mechanical properties :
#
#
# Convention : Reuss Voigt Hill
#
# Bulk Modulus (GPa) = 40.14275 51.67706 45.90990
# Shear Modulus (GPa) = 14.70215 13.49209 14.09712
#
# Velocity S-wave (km/s) = 2.72505 2.61050 2.66839
# Velocity P-wave (km/s) = 5.49335 5.93194 5.71685
#
# Compressibility (1/GPa) = 0.02491110
#
# Stress axis : x y z
#
# Youngs Moduli (GPa) = 60.27592 60.27592 58.86141
#
# Poissons Ratio (x) = 0.67352 0.04283
# Poissons Ratio (y) = 0.67352 0.04283
# Poissons Ratio (z) = 0.04386 0.04386
#
# Static dielectric constant tensor:
#      x y z
#    x 1.713800 0.000000 0.000000 
#    y 0.000000 1.713800 0.000000 
#    z 0.000000 0.000000 1.727700 
# 
# From -- ./inp_files/7174.got.cif
#   From: 2010.05.17/outbox.cif.g08.bks.cpg/sg129_4_cif.got.tgz:7174.got - 2010.05.20 12:12:06.
