data_PCOD9565544
_publ_section_title
;
Structure prediction by ZEFSAII (Michael W. Deem and Ramdas Pophale) SiO2 
 PCOD9565544
Probable space group: P 4/N C C
;
_chemical_formula_sum "Si O2"
_cell_formula_units_Z 48
_cell_length_a 22.344329
_cell_length_b 22.344329
_cell_length_c 5.006098
_cell_angle_alpha 90.000000
_cell_angle_beta 90.000000
_cell_angle_gamma 90.000000
_cell_volume 2499.389735
_symmetry_space_group_name_H-M "P 4/N C C"
_symmetry_group_IT_number 130
_symmetry_cell_setting 'tetragonal'
loop_
_space_group_symop_operation_xyz
x,y,z
1/2-y,x,z
1/2-x,1/2-y,z
y,1/2-x,z
1/2+x,-y,1/2-z
-x,1/2+y,1/2-z
1/2+y,1/2+x,1/2-z
-y,-x,1/2-z
-x,-y,-z
1/2+y,-x,-z
1/2+x,1/2+y,-z
-y,1/2+x,-z
1/2-x,y,1/2+z
x,1/2-y,1/2+z
1/2-y,1/2-x,1/2+z
y,x,1/2+z
loop_
_atom_site_type_symbol
_atom_site_label
_atom_site_fract_x
_atom_site_fract_y
_atom_site_fract_z
Si Si1 0.290823 0.974656 0.151841
Si Si2 0.954982 0.045019 0.750000
Si Si3 0.386367 0.432167 0.428588
Si Si4 0.602559 0.102559 0.750000
O O1 0.263972 0.976495 0.446750
O O2 0.332357 0.915299 0.141630
O O3 0.333926 0.028920 0.059504
O O4 0.941168 0.089542 0.501772
O O5 0.019036 0.060826 0.874691
O O6 0.405006 0.380539 0.634833
#
# Coordination Sequence:
#
# PCOD9565544 Si02
#       4
#    16   8  16   8
#     4  11  22  37  55  77 109 145 182 224 270 321
#     4  10  18  31  50  78 110 140 168 210 268 344
#     4  11  20  32  51  79 111 141 174 212 267 335
#     4  10  20  35  54  77 104 145 188 223 272 323
#
# _framework density 19.204688000000001
#
# number of rings (size 3 to 8) (size 9 to 14) (size 15 to 20)
#    0.000    1.333    0.000   11.000    0.000    1.333 
#    0.000    0.000    0.000    3.000    0.000    0.000 
#    0.000   46.667    0.000    0.000    0.000    0.000 
#
# Total GULP energy -267656.375018 kJ/mol
# GULP energy per Si atom -5576.174480 kJ/mol
# Density = 1.916098 g / cm^3
# Si number density = 19.204688 Si / 1000 Ang^3
#
#
#
# Elastic Constant Matrix: (Units=GPa)
#
#
# Indices 1 2 3 4 5 6 
#
# 1 60.1838 0.8263 7.4606 0.0000 0.0000 0.0000
# 2 0.8263 60.1821 7.4617 0.0000 0.0000 0.0000
# 3 7.4606 7.4617 105.0120 0.0000 0.0000 0.0000
# 4 0.0000 0.0000 0.0000 33.0305 0.0000 0.0000
# 5 0.0000 0.0000 0.0000 0.0000 33.0306 0.0000
# 6 0.0000 0.0000 0.0000 0.0000 0.0000 19.1993
#
#
#
# Elastic Compliance Matrix: (Units=1/GPa)
#
#
# Indices 1 2 3 4 5 6 
#
# 1 0.016764 -0.000083 -0.001185 0.000000 0.000000 0.000000
# 2 -0.000083 0.016764 -0.001185 0.000000 0.000000 0.000000
# 3 -0.001185 -0.001185 0.009691 0.000000 0.000000 0.000000
# 4 0.000000 0.000000 0.000000 0.030275 0.000000 0.000000
# 5 0.000000 0.000000 0.000000 0.000000 0.030275 0.000000
# 6 0.000000 0.000000 0.000000 0.000000 0.000000 0.052085
#
#
# Mechanical properties :
#
#
# Convention : Reuss Voigt Hill
#
# Bulk Modulus (GPa) = 26.10144 28.54170 27.32157
# Shear Modulus (GPa) = 28.81305 31.02736 29.92021
#
# Velocity S-wave (km/s) = 3.87759 4.02383 3.95139
# Velocity P-wave (km/s) = 5.80244 6.04007 5.92244
#
# Compressibility (1/GPa) = 0.03831206
#
# Stress axis : x y z
#
# Youngs Moduli (GPa) = 59.65230 59.65048 103.18711
#
# Poissons Ratio (x) = 0.00497 0.12228
# Poissons Ratio (y) = 0.00497 0.12231
# Poissons Ratio (z) = 0.07069 0.07070
#
# Static dielectric constant tensor:
#      x y z
#    x 1.688950 0.000000 0.000000 
#    y 0.000000 1.688950 0.000000 
#    z 0.000000 0.000000 1.718080 
# 
# From -- ./inp_files/128.got.cif
#   From: 2010.05.17/outbox.cif.g08.bks.cpg/sg130_1_cif.got.tgz:128.got - 2010.05.20 12:17:35.
