data_PCOD9565039
_publ_section_title
;
Structure prediction by ZEFSAII (Michael W. Deem and Ramdas Pophale) SiO2 
 PCOD9565039
Probable space group: P 4/M N C
;
_chemical_formula_sum "Si O2"
_cell_formula_units_Z 50
_cell_length_a 8.214387
_cell_length_b 8.214387
_cell_length_c 33.478333
_cell_angle_alpha 90.000000
_cell_angle_beta 90.000000
_cell_angle_gamma 90.000000
_cell_volume 2258.989146
_symmetry_space_group_name_H-M "P 4/M N C"
_symmetry_group_IT_number 128
_symmetry_cell_setting 'tetragonal'
loop_
_space_group_symop_operation_xyz
x,y,z
-y,x,z
-x,-y,z
y,-x,z
1/2+x,1/2-y,1/2-z
1/2-x,1/2+y,1/2-z
1/2+y,1/2+x,1/2-z
1/2-y,1/2-x,1/2-z
-x,-y,-z
y,-x,-z
x,y,-z
-y,x,-z
1/2-x,1/2+y,1/2+z
1/2+x,1/2-y,1/2+z
1/2-y,1/2-x,1/2+z
1/2+y,1/2+x,1/2+z
loop_
_atom_site_type_symbol
_atom_site_label
_atom_site_fract_x
_atom_site_fract_y
_atom_site_fract_z
Si Si1 0.500000 0.500000 0.500000
Si Si2 0.661229 0.895548 0.000000
Si Si3 0.260772 0.908022 0.789849
Si Si4 0.500000 0.000000 0.855236
Si Si5 0.893433 0.248197 0.413761
O O1 0.305478 0.472689 0.500000
O O2 0.650395 0.798542 0.041354
O O3 0.500000 0.000000 0.000000
O O4 0.356939 0.856939 0.750000
O O5 0.096342 0.799612 0.790968
O O6 0.387421 0.890346 0.826275
O O7 0.376450 0.102715 0.883211
O O8 0.083186 0.204854 0.407587
#
# Coordination Sequence:
#
# PCOD9565039 Si02
#       5
#     2   8  16   8  16
#     4  12  28  44  84 104 136 204 256 304 392 432
#     4  12  24  47  68 106 140 184 250 306 353 441
#     4  11  24  44  70 100 135 180 232 291 356 435
#     4  12  23  41  66 100 140 180 232 291 361 436
#     4  11  24  42  66  96 138 187 234 295 362 423
#
# _framework density 22.133796
#
# number of rings (size 3 to 8) (size 9 to 14) (size 15 to 20)
#    0.000    0.640    1.600    7.200    0.000    1.280 
#    0.000    3.200    0.000    0.000    0.000    0.000 
#    0.000    0.000    0.000    0.000    0.000    0.000 
#
# Total GULP energy -279012.183703 kJ/mol
# GULP energy per Si atom -5580.243674 kJ/mol
# Density = 2.208342 g / cm^3
# Si number density = 22.133796 Si / 1000 Ang^3
#
#
#
# Elastic Constant Matrix: (Units=GPa)
#
#
# Indices 1 2 3 4 5 6 
#
# 1 77.0397 4.3240 39.7091 0.0000 0.0000 0.0000
# 2 4.3240 77.0397 39.7091 0.0000 0.0000 0.0000
# 3 39.7091 39.7091 169.8030 0.0000 0.0000 0.0000
# 4 0.0000 0.0000 0.0000 25.8172 0.0000 0.0000
# 5 0.0000 0.0000 0.0000 0.0000 25.8172 0.0000
# 6 0.0000 0.0000 0.0000 0.0000 0.0000 27.9423
#
#
#
# Elastic Compliance Matrix: (Units=1/GPa)
#
#
# Indices 1 2 3 4 5 6 
#
# 1 0.014839 0.001087 -0.003724 0.000000 0.000000 0.000000
# 2 0.001087 0.014839 -0.003724 0.000000 0.000000 0.000000
# 3 -0.003724 -0.003724 0.007631 0.000000 0.000000 0.000000
# 4 0.000000 0.000000 0.000000 0.038734 0.000000 0.000000
# 5 0.000000 0.000000 0.000000 0.000000 0.038734 0.000000
# 6 0.000000 0.000000 0.000000 0.000000 0.000000 0.035788
#
#
# Mechanical properties :
#
#
# Convention : Reuss Voigt Hill
#
# Bulk Modulus (GPa) = 40.67465 54.59634 47.63549
# Shear Modulus (GPa) = 29.15733 31.92469 30.54101
#
# Velocity S-wave (km/s) = 3.63343 3.80195 3.71864
# Velocity P-wave (km/s) = 6.00159 6.63273 6.32504
#
# Compressibility (1/GPa) = 0.02458534
#
# Stress axis : x y z
#
# Youngs Moduli (GPa) = 67.39016 67.39016 131.04334
#
# Poissons Ratio (x) = -0.07324 0.48804
# Poissons Ratio (y) = -0.07324 0.48804
# Poissons Ratio (z) = 0.25098 0.25098
#
# Static dielectric constant tensor:
#      x y z
#    x 1.771300 0.000000 0.000000 
#    y 0.000000 1.771300 0.000000 
#    z 0.000000 0.000000 1.651610 
# 
# From -- ./inp_files/7053.got.cif
#   From: 2010.05.17/outbox.cif.g08.bks.cpg/sg128_4_cif.got.tgz:7053.got - 2010.05.20 12:07:25.
