data_PCOD9565723
_publ_section_title
;
Structure prediction by ZEFSAII (Michael W. Deem and Ramdas Pophale) SiO2 
 PCOD9565723
Probable space group: P 4/N C C
;
_chemical_formula_sum "Si O2"
_cell_formula_units_Z 64
_cell_length_a 22.334382
_cell_length_b 22.334382
_cell_length_c 5.501211
_cell_angle_alpha 90.000000
_cell_angle_beta 90.000000
_cell_angle_gamma 90.000000
_cell_volume 2744.139483
_symmetry_space_group_name_H-M "P 4/N C C"
_symmetry_group_IT_number 130
_symmetry_cell_setting 'tetragonal'
loop_
_space_group_symop_operation_xyz
x,y,z
1/2-y,x,z
1/2-x,1/2-y,z
y,1/2-x,z
1/2+x,-y,1/2-z
-x,1/2+y,1/2-z
1/2+y,1/2+x,1/2-z
-y,-x,1/2-z
-x,-y,-z
1/2+y,-x,-z
1/2+x,1/2+y,-z
-y,1/2+x,-z
1/2-x,y,1/2+z
x,1/2-y,1/2+z
1/2-y,1/2-x,1/2+z
y,x,1/2+z
loop_
_atom_site_type_symbol
_atom_site_label
_atom_site_fract_x
_atom_site_fract_y
_atom_site_fract_z
Si Si1 0.728595 0.965806 0.131451
Si Si2 0.461690 0.538311 0.750000
Si Si3 0.092909 0.592909 0.750000
Si Si4 0.575354 0.897963 0.740816
Si Si5 0.268131 0.899764 0.853478
O O1 0.756583 0.937197 0.372265
O O2 0.656857 0.967297 0.166735
O O3 0.757970 0.032518 0.117773
O O4 0.438025 0.570184 0.502068
O O5 0.533054 0.551880 0.768037
O O6 0.163461 0.589102 0.793480
O O7 0.618073 0.901258 0.507692
O O8 0.239494 0.870082 0.616088
#
# Coordination Sequence:
#
# PCOD9565723 Si02
#       5
#    16   8   8  16  16
#     4  10  21  37  55  78 115 162 202 236 281 346
#     4  12  24  37  58  94 130 160 190 236 312 376
#     4  12  24  41  64  91 126 161 198 249 306 363
#     4  12  23  37  57  87 126 161 197 239 295 363
#     4  10  21  38  58  80 111 157 207 247 291 349
#
# _framework density 23.322429
#
# number of rings (size 3 to 8) (size 9 to 14) (size 15 to 20)
#    0.000    1.000    0.000    8.250    0.000    5.000 
#    0.000    0.000    0.000    2.250    0.000    0.000 
#    0.000   35.000    0.000    0.000    0.000    0.000 
#
# Total GULP energy -356853.860323 kJ/mol
# GULP energy per Si atom -5575.841568 kJ/mol
# Density = 2.326935 g / cm^3
# Si number density = 23.322429 Si / 1000 Ang^3
#
#
#
# Elastic Constant Matrix: (Units=GPa)
#
#
# Indices 1 2 3 4 5 6 
#
# 1 111.0862 -35.3802 31.2377 0.0000 0.0000 0.0000
# 2 -35.3802 111.0855 31.2373 0.0000 0.0000 0.0000
# 3 31.2377 31.2373 225.7606 0.0000 0.0000 0.0000
# 4 0.0000 0.0000 0.0000 27.1642 0.0000 0.0000
# 5 0.0000 0.0000 0.0000 0.0000 27.1648 0.0000
# 6 0.0000 0.0000 0.0000 0.0000 0.0000 8.5493
#
#
#
# Elastic Compliance Matrix: (Units=1/GPa)
#
#
# Indices 1 2 3 4 5 6 
#
# 1 0.010870 0.004042 -0.002063 0.000000 0.000000 0.000000
# 2 0.004042 0.010870 -0.002063 0.000000 0.000000 0.000000
# 3 -0.002063 -0.002063 0.005000 0.000000 0.000000 0.000000
# 4 0.000000 0.000000 0.000000 0.036813 0.000000 0.000000
# 5 0.000000 0.000000 0.000000 0.000000 0.036812 0.000000
# 6 0.000000 0.000000 0.000000 0.000000 0.000000 0.116968
#
#
# Mechanical properties :
#
#
# Convention : Reuss Voigt Hill
#
# Bulk Modulus (GPa) = 37.63525 55.79132 46.71329
# Shear Modulus (GPa) = 22.08879 40.63150 31.36014
#
# Velocity S-wave (km/s) = 3.08085 4.17845 3.67090
# Velocity P-wave (km/s) = 5.36912 6.87408 6.16767
#
# Compressibility (1/GPa) = 0.02657083
#
# Stress axis : x y z
#
# Youngs Moduli (GPa) = 91.99969 91.99922 199.98225
#
# Poissons Ratio (x) = -0.37187 0.41262
# Poissons Ratio (y) = -0.37187 0.41262
# Poissons Ratio (z) = 0.18982 0.18982
#
# Static dielectric constant tensor:
#      x y z
#    x 1.910490 0.000000 0.000000 
#    y 0.000000 1.910500 0.000000 
#    z 0.000000 0.000000 2.043130 
# 
# From -- ./inp_files/183.got.cif
#   From: 2010.05.17/outbox.cif.g08.bks.cpg/sg130_1_cif.got.tgz:183.got - 2010.05.20 12:17:35.
