data_PCOD9565477
_publ_section_title
;
Structure prediction by ZEFSAII (Michael W. Deem and Ramdas Pophale) SiO2 
 PCOD9565477
Probable space group: P 4/N M M
;
_chemical_formula_sum "Si O2"
_cell_formula_units_Z 56
_cell_length_a 18.636095
_cell_length_b 18.636095
_cell_length_c 7.675148
_cell_angle_alpha 90.000000
_cell_angle_beta 90.000000
_cell_angle_gamma 90.000000
_cell_volume 2665.609884
_symmetry_space_group_name_H-M "P 4/N M M"
_symmetry_group_IT_number 129
_symmetry_cell_setting 'tetragonal'
loop_
_space_group_symop_operation_xyz
x,y,z
1/2-y,x,z
1/2-x,1/2-y,z
y,1/2-x,z
1/2+x,-y,-z
-x,1/2+y,-z
1/2+y,1/2+x,-z
-y,-x,-z
-x,-y,-z
1/2+y,-x,-z
1/2+x,1/2+y,-z
-y,1/2+x,-z
1/2-x,y,z
x,1/2-y,z
1/2-y,1/2-x,z
y,x,z
loop_
_atom_site_type_symbol
_atom_site_label
_atom_site_fract_x
_atom_site_fract_y
_atom_site_fract_z
Si Si1 0.449366 0.167247 0.000848
Si Si2 0.833440 0.553647 0.577781
Si Si3 0.667940 0.396400 0.159677
Si Si4 0.090266 0.590266 0.500000
O O1 0.433364 0.250000 0.955228
O O2 0.387292 0.112709 0.946671
O O3 0.455312 0.164132 0.211582
O O4 0.525283 0.147040 0.915663
O O5 0.750000 0.547322 0.523504
O O6 0.869722 0.630278 0.537933
O O7 0.884539 0.492241 0.497452
O O8 0.750000 0.400106 0.214564
O O9 0.621137 0.375647 0.324466
O O10 0.656919 0.343082 0.000000
#
# Coordination Sequence:
#
# PCOD9565477 Si02
#       4
#    16  16  16   8
#     4   9  19  37  61  91 127 165 206 255 310 369
#     4  10  21  38  62  93 129 169 214 264 319 379
#     4  11  24  42  64  89 123 162 205 259 316 375
#     4  12  23  40  66  97 126 167 214 260 317 374
#
# _framework density 21.008323000000001
#
# number of rings (size 3 to 8) (size 9 to 14) (size 15 to 20)
#    0.000    1.714    2.857    1.286    0.000    4.857 
#    0.000    2.857    0.000    3.857    0.000    4.000 
#    0.000    0.000    0.000    0.000    0.000    0.000 
#
# Total GULP energy -312839.211791 kJ/mol
# GULP energy per Si atom -5586.414496 kJ/mol
# Density = 2.096051 g / cm^3
# Si number density = 21.008323 Si / 1000 Ang^3
#
#
#
# Elastic Constant Matrix: (Units=GPa)
#
#
# Indices 1 2 3 4 5 6 
#
# 1 73.4118 61.2935 2.7615 0.0000 0.0000 0.0000
# 2 61.2935 73.4189 2.7627 0.0000 0.0000 0.0000
# 3 2.7615 2.7627 54.2821 0.0000 0.0000 0.0000
# 4 0.0000 0.0000 0.0000 13.8123 0.0000 0.0000
# 5 0.0000 0.0000 0.0000 0.0000 13.8115 0.0000
# 6 0.0000 0.0000 0.0000 0.0000 0.0000 26.1705
#
#
#
# Elastic Compliance Matrix: (Units=1/GPa)
#
#
# Indices 1 2 3 4 5 6 
#
# 1 0.044969 -0.037528 -0.000378 0.000000 0.000000 0.000000
# 2 -0.037528 0.044965 -0.000379 0.000000 0.000000 0.000000
# 3 -0.000378 -0.000379 0.018461 0.000000 0.000000 0.000000
# 4 0.000000 0.000000 0.000000 0.072399 0.000000 0.000000
# 5 0.000000 0.000000 0.000000 0.000000 0.072403 0.000000
# 6 0.000000 0.000000 0.000000 0.000000 0.000000 0.038211
#
#
# Mechanical properties :
#
#
# Convention : Reuss Voigt Hill
#
# Bulk Modulus (GPa) = 31.42226 37.19424 34.30825
# Shear Modulus (GPa) = 13.20699 19.71187 16.45943
#
# Velocity S-wave (km/s) = 2.51002 3.06647 2.80209
# Velocity P-wave (km/s) = 4.83630 5.50278 5.18027
#
# Compressibility (1/GPa) = 0.03182457
#
# Stress axis : x y z
#
# Youngs Moduli (GPa) = 22.23740 22.23952 54.16887
#
# Poissons Ratio (x) = 0.83461 0.02046
# Poissons Ratio (y) = 0.83453 0.02055
# Poissons Ratio (z) = 0.00840 0.00844
#
# Static dielectric constant tensor:
#      x y z
#    x 1.744890 0.000000 0.000000 
#    y 0.000000 1.744890 0.000000 
#    z 0.000000 0.000000 1.776240 
# 
# From -- ./inp_files/1762.got.cif
#   From: 2010.05.17/outbox.cif.g08.bks.cpg/sg129_1_cif.got.tgz:1762.got - 2010.05.20 12:12:06.
