data_PCOD9565897
_publ_section_title
;
Structure prediction by ZEFSAII (Michael W. Deem and Ramdas Pophale) SiO2 
 PCOD9565897
Probable space group: P 4/N C C
;
_chemical_formula_sum "Si O2"
_cell_formula_units_Z 112
_cell_length_a 14.682214
_cell_length_b 14.682214
_cell_length_c 30.739854
_cell_angle_alpha 90.000000
_cell_angle_beta 90.000000
_cell_angle_gamma 90.000000
_cell_volume 6626.510647
_symmetry_space_group_name_H-M "P 4/N C C"
_symmetry_group_IT_number 130
_symmetry_cell_setting 'tetragonal'
loop_
_space_group_symop_operation_xyz
x,y,z
1/2-y,x,z
1/2-x,1/2-y,z
y,1/2-x,z
1/2+x,-y,1/2-z
-x,1/2+y,1/2-z
1/2+y,1/2+x,1/2-z
-y,-x,1/2-z
-x,-y,-z
1/2+y,-x,-z
1/2+x,1/2+y,-z
-y,1/2+x,-z
1/2-x,y,1/2+z
x,1/2-y,1/2+z
1/2-y,1/2-x,1/2+z
y,x,1/2+z
loop_
_atom_site_type_symbol
_atom_site_label
_atom_site_fract_x
_atom_site_fract_y
_atom_site_fract_z
Si Si1 0.526278 0.865943 0.793622
Si Si2 0.819897 0.612516 0.021778
Si Si3 0.311005 0.840104 0.301086
Si Si4 0.390713 0.184936 0.573560
Si Si5 0.508467 0.673208 0.837849
Si Si6 0.614724 0.824434 0.616958
Si Si7 0.482819 0.654722 0.195581
O O1 0.534383 0.773646 0.820873
O O2 0.601036 0.937860 0.808438
O O3 0.427471 0.910316 0.802281
O O4 0.531949 0.845431 0.742351
O O5 0.866810 0.711907 0.021799
O O6 0.843525 0.572528 0.068968
O O7 0.837798 0.570059 0.974507
O O8 0.250000 0.750000 0.308383
O O9 0.338459 0.838459 0.250000
O O10 0.401244 0.838762 0.329971
O O11 0.248065 0.927081 0.309209
O O12 0.365892 0.292791 0.576780
O O13 0.456937 0.161147 0.612981
O O14 0.631414 0.715303 0.619893
O O15 0.551653 0.856782 0.655962
#
# Coordination Sequence:
#
# PCOD9565897 Si02
#       7
#    16  16  16  16  16  16  16
#     4  11  25  36  54  81 114 144 188 229 274 331
#     4   7  12  27  50  76 106 141 177 218 277 341
#     4  11  21  39  58  72 103 154 198 216 252 326
#     4   9  16  29  52  81 113 142 172 224 287 335
#     4  12  22  36  56  83 113 144 181 235 275 328
#     4   9  19  33  54  83 110 140 183 235 288 326
#     4  11  23  39  53  78 107 150 193 225 264 326
#
# _framework density 16.901806000000001
#
# number of rings (size 3 to 8) (size 9 to 14) (size 15 to 20)
#    0.000    2.000    4.286    2.571    6.000    0.286 
#    0.000    0.000    0.000    2.571    0.000    0.000 
#    0.000    0.000    0.000    0.000    0.000    0.000 
#
# Total GULP energy -624431.484547 kJ/mol
# GULP energy per Si atom -5575.281112 kJ/mol
# Density = 1.686334 g / cm^3
# Si number density = 16.901806 Si / 1000 Ang^3
#
#
#
# Elastic Constant Matrix: (Units=GPa)
#
#
# Indices 1 2 3 4 5 6 
#
# 1 47.8891 10.2419 28.2306 0.0000 0.0000 0.0000
# 2 10.2419 47.8891 28.2306 0.0000 0.0000 0.0000
# 3 28.2306 28.2306 143.0988 0.0000 0.0000 0.0000
# 4 0.0000 0.0000 0.0000 11.6583 0.0000 0.0000
# 5 0.0000 0.0000 0.0000 0.0000 11.6583 0.0000
# 6 0.0000 0.0000 0.0000 0.0000 0.0000 19.9851
#
#
#
# Elastic Compliance Matrix: (Units=1/GPa)
#
#
# Indices 1 2 3 4 5 6 
#
# 1 0.023921 -0.002641 -0.004198 0.000000 0.000000 0.000000
# 2 -0.002641 0.023921 -0.004198 0.000000 0.000000 0.000000
# 3 -0.004198 -0.004198 0.008645 0.000000 0.000000 0.000000
# 4 0.000000 0.000000 0.000000 0.085776 0.000000 0.000000
# 5 0.000000 0.000000 0.000000 0.000000 0.085776 0.000000
# 6 0.000000 0.000000 0.000000 0.000000 0.000000 0.050037
#
#
# Mechanical properties :
#
#
# Convention : Reuss Voigt Hill
#
# Bulk Modulus (GPa) = 29.05948 41.36479 35.21213
# Shear Modulus (GPa) = 16.04512 20.13861 18.09186
#
# Velocity S-wave (km/s) = 3.08444 3.45557 3.27526
# Velocity P-wave (km/s) = 5.46950 6.35987 5.93142
#
# Compressibility (1/GPa) = 0.03441218
#
# Stress axis : x y z
#
# Youngs Moduli (GPa) = 41.80388 41.80388 115.67924
#
# Poissons Ratio (x) = 0.11041 0.48564
# Poissons Ratio (y) = 0.11041 0.48564
# Poissons Ratio (z) = 0.17550 0.17550
#
# Static dielectric constant tensor:
#      x y z
#    x 1.566840 0.000000 0.000000 
#    y 0.000000 1.566840 0.000000 
#    z 0.000000 0.000000 1.593300 
# 
# From -- ./inp_files/4966.got.cif
#   From: 2010.05.17/outbox.cif.g08.bks.cpg/sg130_3_cif.got.tgz:4966.got - 2010.05.20 12:17:35.
