data_PCOD9565392
_publ_section_title
;
Structure prediction by ZEFSAII (Michael W. Deem and Ramdas Pophale) SiO2 
 PCOD9565392
Probable space group: P 4/N M M
;
_chemical_formula_sum "Si O2"
_cell_formula_units_Z 56
_cell_length_a 13.447325
_cell_length_b 13.447325
_cell_length_c 18.206418
_cell_angle_alpha 90.000000
_cell_angle_beta 90.000000
_cell_angle_gamma 90.000000
_cell_volume 3292.276574
_symmetry_space_group_name_H-M "P 4/N M M"
_symmetry_group_IT_number 129
_symmetry_cell_setting 'tetragonal'
loop_
_space_group_symop_operation_xyz
x,y,z
1/2-y,x,z
1/2-x,1/2-y,z
y,1/2-x,z
1/2+x,-y,-z
-x,1/2+y,-z
1/2+y,1/2+x,-z
-y,-x,-z
-x,-y,-z
1/2+y,-x,-z
1/2+x,1/2+y,-z
-y,1/2+x,-z
1/2-x,y,z
x,1/2-y,z
1/2-y,1/2-x,z
y,x,z
loop_
_atom_site_type_symbol
_atom_site_label
_atom_site_fract_x
_atom_site_fract_y
_atom_site_fract_z
Si Si1 0.528980 0.368248 0.153638
Si Si2 0.467833 0.632705 0.289750
Si Si3 0.133063 0.633063 0.000000
Si Si4 0.032634 0.867796 0.570338
O O1 0.520606 0.250000 0.161769
O O2 0.425110 0.425110 0.164340
O O3 0.603343 0.412313 0.214486
O O4 0.570347 0.390656 0.072312
O O5 0.482780 0.750000 0.295484
O O6 0.570536 0.570536 0.291961
O O7 0.401685 0.591819 0.357015
O O8 0.118769 0.750000 0.016853
O O9 0.094887 0.905114 0.500000
O O10 0.018086 0.750000 0.568733
O O11 0.929399 0.929399 0.569718
#
# Coordination Sequence:
#
# PCOD9565392 Si02
#       4
#    16  16   8  16
#     4  10  20  33  50  73 101 133 169 208 249 295
#     4  10  21  36  54  77 103 131 166 207 251 301
#     4   9  17  30  50  74  97 125 164 208 253 299
#     4  10  21  36  54  78 106 136 172 211 251 297
#
# _framework density 17.009505999999998
#
# number of rings (size 3 to 8) (size 9 to 14) (size 15 to 20)
#    0.000    2.143    0.000    3.000    0.000    5.714 
#    0.000    0.000    0.000   10.286    0.000    4.000 
#    0.000    0.000    0.000    0.000    0.000    0.000 
#
# Total GULP energy -312578.497657 kJ/mol
# GULP energy per Si atom -5581.758887 kJ/mol
# Density = 1.697079 g / cm^3
# Si number density = 17.009506 Si / 1000 Ang^3
#
#
#
# Elastic Constant Matrix: (Units=GPa)
#
#
# Indices 1 2 3 4 5 6 
#
# 1 99.4639 123.8427 57.5889 0.0000 0.0000 0.0000
# 2 123.8427 99.4558 57.5891 0.0000 0.0000 0.0000
# 3 57.5889 57.5891 104.1769 0.0000 0.0000 0.0000
# 4 0.0000 0.0000 0.0000 15.0136 0.0000 0.0000
# 5 0.0000 0.0000 0.0000 0.0000 15.0156 0.0000
# 6 0.0000 0.0000 0.0000 0.0000 0.0000 8.5324
#
#
#
# Elastic Compliance Matrix: (Units=1/GPa)
#
#
# Indices 1 2 3 4 5 6 
#
# 1 -0.017373 0.023638 -0.003464 0.000000 0.000000 0.000000
# 2 0.023638 -0.017375 -0.003462 0.000000 0.000000 0.000000
# 3 -0.003464 -0.003462 0.013428 0.000000 0.000000 0.000000
# 4 0.000000 0.000000 0.000000 0.066606 0.000000 0.000000
# 5 0.000000 0.000000 0.000000 0.000000 0.066597 0.000000
# 6 0.000000 0.000000 0.000000 0.000000 0.000000 0.117200
#
#
# Mechanical properties :
#
#
# Convention : Reuss Voigt Hill
#
# Bulk Modulus (GPa) = 82.61278 86.79310 84.70294
# Shear Modulus (GPa) = 25.03841 11.98406 18.51124
#
# Velocity S-wave (km/s) = 3.84086 2.65722 3.30250
# Velocity P-wave (km/s) = 8.26702 7.78148 8.02792
#
# Compressibility (1/GPa) = 0.01210466
#
# Stress axis : x y z
#
# Youngs Moduli (GPa) = -57.56066 -57.55351 74.47292
#
# Poissons Ratio (x) = 1.36048 0.25794
# Poissons Ratio (y) = 1.36065 0.25785
# Poissons Ratio (z) = -0.19937 -0.19927
#
# Static dielectric constant tensor:
#      x y z
#    x 1.548340 0.000000 0.000000 
#    y 0.000000 1.548340 0.000000 
#    z 0.000000 0.000000 1.573930 
# 
# From -- ./inp_files/6182.got.cif
#   From: 2010.05.17/outbox.cif.g08.bks.cpg/sg129_4_cif.got.tgz:6182.got - 2010.05.20 12:12:06.
