data_PCOD9565409
_publ_section_title
;
Structure prediction by ZEFSAII (Michael W. Deem and Ramdas Pophale) SiO2 
 PCOD9565409
Probable space group: P 4/N M M
;
_chemical_formula_sum "Si O2"
_cell_formula_units_Z 128
_cell_length_a 20.388838
_cell_length_b 20.388838
_cell_length_c 16.772433
_cell_angle_alpha 90.000000
_cell_angle_beta 90.000000
_cell_angle_gamma 90.000000
_cell_volume 6972.379480
_symmetry_space_group_name_H-M "P 4/N M M"
_symmetry_group_IT_number 129
_symmetry_cell_setting 'tetragonal'
loop_
_space_group_symop_operation_xyz
x,y,z
1/2-y,x,z
1/2-x,1/2-y,z
y,1/2-x,z
1/2+x,-y,-z
-x,1/2+y,-z
1/2+y,1/2+x,-z
-y,-x,-z
-x,-y,-z
1/2+y,-x,-z
1/2+x,1/2+y,-z
-y,1/2+x,-z
1/2-x,y,z
x,1/2-y,z
1/2-y,1/2-x,z
y,x,z
loop_
_atom_site_type_symbol
_atom_site_label
_atom_site_fract_x
_atom_site_fract_y
_atom_site_fract_z
Si Si1 0.825575 0.935469 0.295570
Si Si2 0.367125 0.959162 0.830821
Si Si3 0.907784 0.485815 0.745879
Si Si4 0.974181 0.418303 0.427100
Si Si5 0.827085 0.563283 0.038910
Si Si6 0.071049 0.326113 0.519502
Si Si7 0.824149 0.566096 0.853476
Si Si8 0.675161 0.328651 0.908910
O O1 0.750000 0.911598 0.288554
O O2 0.879440 0.879440 0.273620
O O3 0.837000 0.952127 0.388895
O O4 0.833649 0.999428 0.240543
O O5 0.441756 0.951307 0.803752
O O6 0.346290 0.884342 0.849938
O O7 0.353532 0.004278 0.907224
O O8 0.899248 0.450838 0.660841
O O9 0.844097 0.508554 0.793387
O O10 0.948111 0.551890 0.727382
O O11 0.923878 0.423878 0.500000
O O12 0.010393 0.489608 0.420387
O O13 0.027444 0.366528 0.457924
O O14 0.750000 0.575260 0.057364
O O15 0.872566 0.627435 0.051711
O O16 0.831408 0.544752 0.945615
O O17 0.069489 0.250000 0.502150
O O18 0.143603 0.356398 0.516755
O O19 0.750000 0.587207 0.840898
O O20 0.873645 0.626356 0.842696
O O21 0.750000 0.354073 0.893345
O O22 0.679927 0.250000 0.908409
O O23 0.654503 0.345498 0.000000
#
# Coordination Sequence:
#
# PCOD9565409 Si02
#       8
#    16  16  16  16  16  16  16  16
#     4  10  20  34  53  80 114 150 189 232 277 330
#     4  12  22  33  54  80 104 139 181 227 275 329
#     4  10  21  34  50  74 105 136 168 217 273 324
#     4   9  17  32  53  73  97 134 175 215 263 317
#     4  10  21  36  55  79 110 149 191 234 278 329
#     4   9  18  32  52  79 111 145 180 220 268 325
#     4   9  20  37  54  76 106 141 183 227 274 327
#     4   9  20  38  56  74  97 128 168 213 267 333
#
# _framework density 18.358152
#
# number of rings (size 3 to 8) (size 9 to 14) (size 15 to 20)
#    0.000    2.250    0.000    3.375    1.750    3.500 
#    0.000    4.375    0.000    1.500    0.000    3.500 
#    0.000    0.250    0.000    0.625    0.000    0.000 
#
# Total GULP energy -713159.367775 kJ/mol
# GULP energy per Si atom -5571.557561 kJ/mol
# Density = 1.831637 g / cm^3
# Si number density = 18.358152 Si / 1000 Ang^3
#
#
#
# Elastic Constant Matrix: (Units=GPa)
#
#
# Indices 1 2 3 4 5 6 
#
# 1 67.2447 18.1113 41.0074 0.0000 0.0000 0.0000
# 2 18.1113 67.2447 41.0076 0.0000 0.0000 0.0000
# 3 41.0074 41.0076 69.6133 0.0000 0.0000 0.0000
# 4 0.0000 0.0000 0.0000 20.3002 0.0000 0.0000
# 5 0.0000 0.0000 0.0000 0.0000 20.3002 0.0000
# 6 0.0000 0.0000 0.0000 0.0000 0.0000 13.5326
#
#
#
# Elastic Compliance Matrix: (Units=1/GPa)
#
#
# Indices 1 2 3 4 5 6 
#
# 1 0.023674 0.003321 -0.015902 0.000000 0.000000 0.000000
# 2 0.003321 0.023674 -0.015903 0.000000 0.000000 0.000000
# 3 -0.015902 -0.015903 0.033101 0.000000 0.000000 0.000000
# 4 0.000000 0.000000 0.000000 0.049261 0.000000 0.000000
# 5 0.000000 0.000000 0.000000 0.000000 0.049261 0.000000
# 6 0.000000 0.000000 0.000000 0.000000 0.000000 0.073896
#
#
# Mechanical properties :
#
#
# Convention : Reuss Voigt Hill
#
# Bulk Modulus (GPa) = 42.58582 44.92835 43.75709
# Shear Modulus (GPa) = 15.74008 17.75835 16.74921
#
# Velocity S-wave (km/s) = 2.93130 3.11356 3.02380
# Velocity P-wave (km/s) = 5.89103 6.11981 6.00651
#
# Compressibility (1/GPa) = 0.02348199
#
# Stress axis : x y z
#
# Youngs Moduli (GPa) = 42.24018 42.23995 30.21094
#
# Poissons Ratio (x) = -0.14030 0.48043
# Poissons Ratio (y) = -0.14030 0.48043
# Poissons Ratio (z) = 0.67172 0.67172
#
# Static dielectric constant tensor:
#      x y z
#    x 1.635500 0.000000 0.000000 
#    y 0.000000 1.635500 0.000000 
#    z 0.000000 0.000000 1.677990 
# 
# From -- ./inp_files/6149.got.cif
#   From: 2010.05.17/outbox.cif.g08.bks.cpg/sg129_4_cif.got.tgz:6149.got - 2010.05.20 12:12:06.
