data_PCOD9565382
_publ_section_title
;
Structure prediction by ZEFSAII (Michael W. Deem and Ramdas Pophale) SiO2 
 PCOD9565382
Probable space group: P 4/N M M
;
_chemical_formula_sum "Si O2"
_cell_formula_units_Z 80
_cell_length_a 13.516683
_cell_length_b 13.516683
_cell_length_c 26.054518
_cell_angle_alpha 90.000000
_cell_angle_beta 90.000000
_cell_angle_gamma 90.000000
_cell_volume 4760.179180
_symmetry_space_group_name_H-M "P 4/N M M"
_symmetry_group_IT_number 129
_symmetry_cell_setting 'tetragonal'
loop_
_space_group_symop_operation_xyz
x,y,z
1/2-y,x,z
1/2-x,1/2-y,z
y,1/2-x,z
1/2+x,-y,-z
-x,1/2+y,-z
1/2+y,1/2+x,-z
-y,-x,-z
-x,-y,-z
1/2+y,-x,-z
1/2+x,1/2+y,-z
-y,1/2+x,-z
1/2-x,y,z
x,1/2-y,z
1/2-y,1/2-x,z
y,x,z
loop_
_atom_site_type_symbol
_atom_site_label
_atom_site_fract_x
_atom_site_fract_y
_atom_site_fract_z
Si Si1 0.132760 0.531450 0.646327
Si Si2 0.367861 0.971720 0.259117
Si Si3 0.134022 0.867086 0.847874
Si Si4 0.468043 0.867774 0.548951
Si Si5 0.527454 0.133142 0.954162
O O1 0.250000 0.517728 0.642521
O O2 0.102363 0.587272 0.698617
O O3 0.091116 0.597213 0.599451
O O4 0.071322 0.428679 0.644838
O O5 0.250000 0.980109 0.265172
O O6 0.389650 0.929495 0.202428
O O7 0.424881 0.075120 0.266136
O O8 0.250000 0.886756 0.836835
O O9 0.124575 0.750000 0.858375
O O10 0.106195 0.925679 0.899053
O O11 0.405944 0.905944 0.500000
O O12 0.481278 0.750000 0.547942
O O13 0.571402 0.928599 0.548496
O O14 0.513819 0.250000 0.955644
O O15 0.426168 0.073833 0.960848
O O16 0.598958 0.098958 0.000000
#
# Coordination Sequence:
#
# PCOD9565382 Si02
#       5
#    16  16  16  16  16
#     4  10  21  36  54  77 103 131 166 207 251 301
#     4  10  20  33  50  73 101 133 169 207 246 290
#     4   9  17  30  50  74  97 124 161 203 245 290
#     4  10  21  36  54  78 106 136 172 211 251 297
#     4  10  20  33  50  72  98 128 162 201 244 290
#
# _framework density 16.806090000000001
#
# number of rings (size 3 to 8) (size 9 to 14) (size 15 to 20)
#    0.000    2.200    0.000    3.000    0.000    5.200 
#    0.000    0.000    0.000    7.200    0.000    5.600 
#    0.000    0.000    0.000    0.000    0.000    0.000 
#
# Total GULP energy -446397.687470 kJ/mol
# GULP energy per Si atom -5579.971093 kJ/mol
# Density = 1.676784 g / cm^3
# Si number density = 16.806090 Si / 1000 Ang^3
#
#
#
# Elastic Constant Matrix: (Units=GPa)
#
#
# Indices 1 2 3 4 5 6 
#
# 1 117.7560 72.7674 53.2901 0.0000 0.0000 0.0000
# 2 72.7674 117.7560 53.2901 0.0000 0.0000 0.0000
# 3 53.2901 53.2901 108.4486 0.0000 0.0000 0.0000
# 4 0.0000 0.0000 0.0000 20.4103 0.0000 0.0000
# 5 0.0000 0.0000 0.0000 0.0000 20.4103 0.0000
# 6 0.0000 0.0000 0.0000 0.0000 0.0000 9.6557
#
#
#
# Elastic Compliance Matrix: (Units=1/GPa)
#
#
# Indices 1 2 3 4 5 6 
#
# 1 0.014733 -0.007495 -0.003557 0.000000 0.000000 0.000000
# 2 -0.007495 0.014733 -0.003557 0.000000 0.000000 0.000000
# 3 -0.003557 -0.003557 0.012717 0.000000 0.000000 0.000000
# 4 0.000000 0.000000 0.000000 0.048995 0.000000 0.000000
# 5 0.000000 0.000000 0.000000 0.000000 0.048995 0.000000
# 6 0.000000 0.000000 0.000000 0.000000 0.000000 0.103566
#
#
# Mechanical properties :
#
#
# Convention : Reuss Voigt Hill
#
# Bulk Modulus (GPa) = 77.12504 78.07287 77.59895
# Shear Modulus (GPa) = 18.03248 21.06947 19.55097
#
# Velocity S-wave (km/s) = 3.27918 3.54458 3.41446
# Velocity P-wave (km/s) = 7.76712 7.95663 7.86245
#
# Compressibility (1/GPa) = 0.01296596
#
# Stress axis : x y z
#
# Youngs Moduli (GPa) = 67.87420 67.87420 78.63783
#
# Poissons Ratio (x) = 0.50870 0.27970
# Poissons Ratio (y) = 0.50870 0.27970
# Poissons Ratio (z) = 0.24142 0.24142
#
# Static dielectric constant tensor:
#      x y z
#    x 1.541830 0.000000 0.000000 
#    y 0.000000 1.541830 0.000000 
#    z 0.000000 0.000000 1.566400 
# 
# From -- ./inp_files/7695.got.cif
#   From: 2010.05.17/outbox.cif.g08.bks.cpg/sg129_4_cif.got.tgz:7695.got - 2010.05.20 12:12:06.
