data_PCOD9565592
_publ_section_title
;
Structure prediction by ZEFSAII (Michael W. Deem and Ramdas Pophale) SiO2 
 PCOD9565592
Probable space group: P 4/N C C
;
_chemical_formula_sum "Si O2"
_cell_formula_units_Z 88
_cell_length_a 17.110597
_cell_length_b 17.110597
_cell_length_c 14.247704
_cell_angle_alpha 90.000000
_cell_angle_beta 90.000000
_cell_angle_gamma 90.000000
_cell_volume 4171.336342
_symmetry_space_group_name_H-M "P 4/N C C"
_symmetry_group_IT_number 130
_symmetry_cell_setting 'tetragonal'
loop_
_space_group_symop_operation_xyz
x,y,z
1/2-y,x,z
1/2-x,1/2-y,z
y,1/2-x,z
1/2+x,-y,1/2-z
-x,1/2+y,1/2-z
1/2+y,1/2+x,1/2-z
-y,-x,1/2-z
-x,-y,-z
1/2+y,-x,-z
1/2+x,1/2+y,-z
-y,1/2+x,-z
1/2-x,y,1/2+z
x,1/2-y,1/2+z
1/2-y,1/2-x,1/2+z
y,x,1/2+z
loop_
_atom_site_type_symbol
_atom_site_label
_atom_site_fract_x
_atom_site_fract_y
_atom_site_fract_z
Si Si1 0.461471 0.674588 0.913583
Si Si2 0.449845 0.949845 0.250000
Si Si3 0.620735 0.245459 0.237721
Si Si4 0.270100 0.491561 0.396882
Si Si5 0.595914 0.629154 0.658831
Si Si6 0.298752 0.366162 0.647552
O O1 0.436262 0.603948 0.843529
O O2 0.417646 0.746073 0.863870
O O3 0.554436 0.676435 0.900190
O O4 0.454186 0.689180 0.023892
O O5 0.535260 0.929219 0.211190
O O6 0.664769 0.164769 0.250000
O O7 0.686652 0.313349 0.250000
O O8 0.548904 0.249884 0.310086
O O9 0.333120 0.423494 0.376632
O O10 0.186102 0.448924 0.414602
O O11 0.623376 0.688195 0.741023
O O12 0.209635 0.348448 0.622660
#
# Coordination Sequence:
#
# PCOD9565592 Si02
#       6
#    16   8  16  16  16  16
#     4  11  23  43  68  99 139 175 232 288 352 416
#     4  10  22  46  71  88 145 188 230 304 344 418
#     4  11  24  47  72  96 132 176 239 296 349 410
#     4  12  26  41  69 106 138 190 229 293 357 432
#     4  11  22  42  65 101 140 179 237 283 355 418
#     4  10  19  37  65  90 130 183 219 270 338 403
#
# _framework density 21.096357999999999
#
# number of rings (size 3 to 8) (size 9 to 14) (size 15 to 20)
#    0.000    1.091    6.364    0.000    3.818    4.000 
#    0.000    1.818    0.000    0.000    0.000    0.000 
#    0.000    0.000    0.000    0.000    0.000    0.000 
#
# Total GULP energy -490325.230206 kJ/mol
# GULP energy per Si atom -5571.877616 kJ/mol
# Density = 2.104834 g / cm^3
# Si number density = 21.096358 Si / 1000 Ang^3
#
#
#
# Elastic Constant Matrix: (Units=GPa)
#
#
# Indices 1 2 3 4 5 6 
#
# 1 89.2722 47.6047 9.3326 0.0000 0.0000 0.0000
# 2 47.6047 89.2714 9.3302 0.0000 0.0000 0.0000
# 3 9.3326 9.3302 45.4934 0.0000 0.0000 0.0000
# 4 0.0000 0.0000 0.0000 17.2145 0.0000 0.0000
# 5 0.0000 0.0000 0.0000 0.0000 17.2151 0.0000
# 6 0.0000 0.0000 0.0000 0.0000 0.0000 14.5220
#
#
#
# Elastic Compliance Matrix: (Units=1/GPa)
#
#
# Indices 1 2 3 4 5 6 
#
# 1 0.015758 -0.008242 -0.001542 0.000000 0.000000 0.000000
# 2 -0.008242 0.015758 -0.001541 0.000000 0.000000 0.000000
# 3 -0.001542 -0.001541 0.022614 0.000000 0.000000 0.000000
# 4 0.000000 0.000000 0.000000 0.058091 0.000000 0.000000
# 5 0.000000 0.000000 0.000000 0.000000 0.058089 0.000000
# 6 0.000000 0.000000 0.000000 0.000000 0.000000 0.068861
#
#
# Mechanical properties :
#
#
# Convention : Reuss Voigt Hill
#
# Bulk Modulus (GPa) = 31.76708 39.61911 35.69309
# Shear Modulus (GPa) = 18.36120 20.30827 19.33473
#
# Velocity S-wave (km/s) = 2.95337 3.10602 3.03065
# Velocity P-wave (km/s) = 5.16920 5.62885 5.40391
#
# Compressibility (1/GPa) = 0.03147913
#
# Stress axis : x y z
#
# Youngs Moduli (GPa) = 63.46012 63.46029 44.22106
#
# Poissons Ratio (x) = 0.52303 0.06820
# Poissons Ratio (y) = 0.52303 0.06815
# Poissons Ratio (z) = 0.09787 0.09779
#
# Static dielectric constant tensor:
#      x y z
#    x 1.774880 0.000000 0.000000 
#    y 0.000000 1.774880 0.000000 
#    z 0.000000 0.000000 1.811320 
# 
# From -- ./inp_files/2407.got.cif
#   From: 2010.05.17/outbox.cif.g08.bks.cpg/sg130_2_cif.got.tgz:2407.got - 2010.05.20 12:17:35.
