data_PCOD9565839
_publ_section_title
;
Structure prediction by ZEFSAII (Michael W. Deem and Ramdas Pophale) SiO2 
 PCOD9565839
Probable space group: P 4/N C C
;
_chemical_formula_sum "Si O2"
_cell_formula_units_Z 60
_cell_length_a 16.186450
_cell_length_b 16.186450
_cell_length_c 9.238454
_cell_angle_alpha 90.000000
_cell_angle_beta 90.000000
_cell_angle_gamma 90.000000
_cell_volume 2420.485698
_symmetry_space_group_name_H-M "P 4/N C C"
_symmetry_group_IT_number 130
_symmetry_cell_setting 'tetragonal'
loop_
_space_group_symop_operation_xyz
x,y,z
1/2-y,x,z
1/2-x,1/2-y,z
y,1/2-x,z
1/2+x,-y,1/2-z
-x,1/2+y,1/2-z
1/2+y,1/2+x,1/2-z
-y,-x,1/2-z
-x,-y,-z
1/2+y,-x,-z
1/2+x,1/2+y,-z
-y,1/2+x,-z
1/2-x,y,1/2+z
x,1/2-y,1/2+z
1/2-y,1/2-x,1/2+z
y,x,1/2+z
loop_
_atom_site_type_symbol
_atom_site_label
_atom_site_fract_x
_atom_site_fract_y
_atom_site_fract_z
Si Si1 0.244176 0.454329 0.466241
Si Si2 0.750000 0.250000 0.500000
Si Si3 0.643338 0.950271 0.782628
Si Si4 0.479642 0.643546 0.290377
Si Si5 0.850100 0.149901 0.250000
O O1 0.299060 0.413809 0.590836
O O2 0.176154 0.410620 0.366577
O O3 0.305107 0.491459 0.347842
O O4 0.192935 0.519895 0.561230
O O5 0.809415 0.196549 0.389846
O O6 0.549333 0.926790 0.810769
O O7 0.656544 0.049620 0.771347
O O8 0.392566 0.607435 0.250000
#
# Coordination Sequence:
#
# PCOD9565839 Si02
#       5
#    16   4  16  16   8
#     4  10  25  42  66 108 139 172 232 304 363 408
#     4  10  24  42  60  98 168 202 224 282 368 402
#     4  11  22  42  71 103 139 185 248 284 346 427
#     4  11  24  46  76  99 136 185 240 302 353 439
#     4  11  22  40  64  98 138 204 235 278 338 440
#
# _framework density 24.788412000000001
#
# number of rings (size 3 to 8) (size 9 to 14) (size 15 to 20)
#    0.000    1.333    1.333    3.200    3.733    2.133 
#   19.200    0.000    0.000   58.400    0.000    0.000 
#    0.000    0.000    0.000    0.000    0.000    0.000 
#
# Total GULP energy -335142.172650 kJ/mol
# GULP energy per Si atom -5585.702877 kJ/mol
# Density = 2.473199 g / cm^3
# Si number density = 24.788412 Si / 1000 Ang^3
#
#
#
# Elastic Constant Matrix: (Units=GPa)
#
#
# Indices 1 2 3 4 5 6 
#
# 1 87.4930 23.1604 29.9943 0.0000 0.0000 0.0000
# 2 23.1604 87.4904 29.9966 0.0000 0.0000 0.0000
# 3 29.9943 29.9966 175.3724 0.0000 0.0000 0.0000
# 4 0.0000 0.0000 0.0000 27.6268 0.0000 0.0000
# 5 0.0000 0.0000 0.0000 0.0000 27.6295 0.0000
# 6 0.0000 0.0000 0.0000 0.0000 0.0000 26.4755
#
#
#
# Elastic Compliance Matrix: (Units=1/GPa)
#
#
# Indices 1 2 3 4 5 6 
#
# 1 0.012753 -0.002792 -0.001704 0.000000 0.000000 0.000000
# 2 -0.002792 0.012753 -0.001704 0.000000 0.000000 0.000000
# 3 -0.001704 -0.001704 0.006285 0.000000 0.000000 0.000000
# 4 0.000000 0.000000 0.000000 0.036197 0.000000 0.000000
# 5 0.000000 0.000000 0.000000 0.000000 0.036193 0.000000
# 6 0.000000 0.000000 0.000000 0.000000 0.000000 0.037771
#
#
# Mechanical properties :
#
#
# Convention : Reuss Voigt Hill
#
# Bulk Modulus (GPa) = 51.56734 57.40649 54.48692
# Shear Modulus (GPa) = 31.09188 34.15998 32.62593
#
# Velocity S-wave (km/s) = 3.54544 3.71625 3.63185
# Velocity P-wave (km/s) = 6.13256 6.45158 6.29410
#
# Compressibility (1/GPa) = 0.01939212
#
# Stress axis : x y z
#
# Youngs Moduli (GPa) = 78.41588 78.41264 159.11013
#
# Poissons Ratio (x) = 0.21891 0.27106
# Poissons Ratio (y) = 0.21892 0.27110
# Poissons Ratio (z) = 0.13359 0.13360
#
# Static dielectric constant tensor:
#      x y z
#    x 2.036250 0.000000 0.000000 
#    y 0.000000 2.036260 0.000000 
#    z 0.000000 0.000000 1.928020 
# 
# From -- ./inp_files/635.got.cif
#   From: 2010.05.17/outbox.cif.g08.bks.cpg/sg130_1_cif.got.tgz:635.got - 2010.05.20 12:17:35.
