data_PCOD9565077
_publ_section_title
;
Structure prediction by ZEFSAII (Michael W. Deem and Ramdas Pophale) SiO2 
 PCOD9565077
Probable space group: P 4/M N C
;
_chemical_formula_sum "Si O2"
_cell_formula_units_Z 104
_cell_length_a 18.000000
_cell_length_b 18.000000
_cell_length_c 18.000000
_cell_angle_alpha 90.000000
_cell_angle_beta 90.000000
_cell_angle_gamma 90.000000
_cell_volume 5832.000000
_symmetry_space_group_name_H-M "P 4/M N C"
_symmetry_group_IT_number 128
_symmetry_cell_setting 'tetragonal'
loop_
_space_group_symop_operation_xyz
x,y,z
-y,x,z
-x,-y,z
y,-x,z
1/2+x,1/2-y,1/2-z
1/2-x,1/2+y,1/2-z
1/2+y,1/2+x,1/2-z
1/2-y,1/2-x,1/2-z
-x,-y,-z
y,-x,-z
x,y,-z
-y,x,-z
1/2-x,1/2+y,1/2+z
1/2+x,1/2-y,1/2+z
1/2-y,1/2-x,1/2+z
1/2+y,1/2+x,1/2+z
loop_
_atom_site_type_symbol
_atom_site_label
_atom_site_fract_x
_atom_site_fract_y
_atom_site_fract_z
Si Si1 0.311425 0.049185 0.912340
Si Si2 0.887768 0.209688 0.633356
Si Si3 0.347462 0.265866 0.291239
Si Si4 0.261178 0.780437 0.085251
Si Si5 0.856442 0.461464 0.912864
Si Si6 0.942826 0.109389 0.500000
Si Si7 0.100035 0.380994 0.912717
O O1 0.263806 0.091826 0.850099
O O2 0.391919 0.088595 0.911796
O O3 0.326845 0.965070 0.886772
O O4 0.285121 0.052728 0.000000
O O5 0.876959 0.189063 0.719896
O O6 0.807430 0.231491 0.598776
O O7 0.938984 0.282691 0.630390
O O8 0.920328 0.151701 0.575167
O O9 0.301777 0.198224 0.250000
O O10 0.290526 0.306877 0.346965
O O11 0.339551 0.821630 0.092724
O O12 0.234798 0.793427 0.000000
O O13 0.893704 0.536184 0.882241
O O14 0.835534 0.473673 0.000000
O O15 0.030419 0.097147 0.500000
O O16 0.081462 0.390464 0.000000
#
# Coordination Sequence:
#
# PCOD9565077 Si02
#       7
#    16  16  16  16  16   8  16
#     4  10  18  34  54  79 114 154 189 224 273 339
#     4  11  21  36  58  81 107 147 187 236 284 339
#     4  10  20  34  54  79 109 145 191 230 275 340
#     4  10  18  34  55  78 109 150 192 231 279 334
#     4  10  17  30  54  80 107 152 189 218 277 336
#     4  11  26  44  64  90 109 139 195 251 289 339
#     4   9  20  31  52  84 112 140 186 236 271 330
#
# _framework density 17.832647000000001
#
# number of rings (size 3 to 8) (size 9 to 14) (size 15 to 20)
#    0.000    1.923    4.615    0.923    2.154    1.846 
#    2.769    2.308    0.000    0.000    0.000    0.000 
#    0.000    0.000    0.000    8.923    0.000    0.000 
#
# Total GULP energy -579113.194177 kJ/mol
# GULP energy per Si atom -5568.396098 kJ/mol
# Density = 1.779206 g / cm^3
# Si number density = 17.832647 Si / 1000 Ang^3
#
#
#
# Elastic Constant Matrix: (Units=GPa)
#
#
# Indices 1 2 3 4 5 6 
#
# 1 34.5751 15.1317 20.6850 0.0000 0.0000 0.0000
# 2 15.1317 34.5753 20.6849 0.0000 0.0000 0.0000
# 3 20.6850 20.6849 90.9642 0.0000 0.0000 0.0000
# 4 0.0000 0.0000 0.0000 8.3899 0.0000 0.0000
# 5 0.0000 0.0000 0.0000 0.0000 8.3897 0.0000
# 6 0.0000 0.0000 0.0000 0.0000 0.0000 14.2810
#
#
#
# Elastic Compliance Matrix: (Units=1/GPa)
#
#
# Indices 1 2 3 4 5 6 
#
# 1 0.038123 -0.013309 -0.005643 0.000000 0.000000 0.000000
# 2 -0.013309 0.038123 -0.005643 0.000000 0.000000 0.000000
# 3 -0.005643 -0.005643 0.013560 0.000000 0.000000 0.000000
# 4 0.000000 0.000000 0.000000 0.119191 0.000000 0.000000
# 5 0.000000 0.000000 0.000000 0.000000 0.119194 0.000000
# 6 0.000000 0.000000 0.000000 0.000000 0.000000 0.070023
#
#
# Mechanical properties :
#
#
# Convention : Reuss Voigt Hill
#
# Bulk Modulus (GPa) = 24.62004 30.34640 27.48322
# Shear Modulus (GPa) = 10.84740 13.11965 11.98353
#
# Velocity S-wave (km/s) = 2.46903 2.71534 2.59511
# Velocity P-wave (km/s) = 4.68660 5.18508 4.94213
#
# Compressibility (1/GPa) = 0.04061732
#
# Stress axis : x y z
#
# Youngs Moduli (GPa) = 26.23101 26.23120 73.74868
#
# Poissons Ratio (x) = 0.34910 0.41614
# Poissons Ratio (y) = 0.34910 0.41613
# Poissons Ratio (z) = 0.14801 0.14801
#
# Static dielectric constant tensor:
#      x y z
#    x 1.633510 0.000000 0.000000 
#    y 0.000000 1.633510 0.000000 
#    z 0.000000 0.000000 1.627680 
# 
# From -- ./inp_files/4893.got.cif
#   From: 2010.05.17/outbox.ucp.g08.bks.cvg/sg128_3_cif.got.tgz:4893.got - 2010.06.11 11:37:33.
