data_PCOD9565591
_publ_section_title
;
Structure prediction by ZEFSAII (Michael W. Deem and Ramdas Pophale) SiO2 
 PCOD9565591
Probable space group: P 4/N C C
;
_chemical_formula_sum "Si O2"
_cell_formula_units_Z 64
_cell_length_a 25.273904
_cell_length_b 25.273904
_cell_length_c 5.288908
_cell_angle_alpha 90.000000
_cell_angle_beta 90.000000
_cell_angle_gamma 90.000000
_cell_volume 3378.396945
_symmetry_space_group_name_H-M "P 4/N C C"
_symmetry_group_IT_number 130
_symmetry_cell_setting 'tetragonal'
loop_
_space_group_symop_operation_xyz
x,y,z
1/2-y,x,z
1/2-x,1/2-y,z
y,1/2-x,z
1/2+x,-y,1/2-z
-x,1/2+y,1/2-z
1/2+y,1/2+x,1/2-z
-y,-x,1/2-z
-x,-y,-z
1/2+y,-x,-z
1/2+x,1/2+y,-z
-y,1/2+x,-z
1/2-x,y,1/2+z
x,1/2-y,1/2+z
1/2-y,1/2-x,1/2+z
y,x,1/2+z
loop_
_atom_site_type_symbol
_atom_site_label
_atom_site_fract_x
_atom_site_fract_y
_atom_site_fract_z
Si Si1 0.769371 0.567209 0.761667
Si Si2 0.053032 0.773146 0.178198
Si Si3 0.940700 0.106167 0.005829
Si Si4 0.060522 0.108139 0.091619
O O1 0.763034 0.593508 0.488680
O O2 0.744139 0.508565 0.715683
O O3 0.829692 0.562949 0.846343
O O4 0.076175 0.763867 0.456772
O O5 0.057351 0.832560 0.079407
O O6 0.903907 0.096094 0.250000
O O7 0.999326 0.091183 0.100161
O O8 0.924699 0.075302 0.750000
O O9 0.094231 0.080078 0.310755
#
# Coordination Sequence:
#
# PCOD9565591 Si02
#       4
#    16  16  16  16
#     4  10  19  36  64  80 104 155 206 253 300 319
#     4  10  19  36  64  80 104 155 206 254 300 319
#     4  12  25  38  57  87 126 167 205 237 289 366
#     4  12  25  38  57  87 126 166 205 235 287 366
#
# _framework density 18.943894
#
# number of rings (size 3 to 8) (size 9 to 14) (size 15 to 20)
#    0.000    1.000    5.000    4.500    7.000    3.000 
#    0.000    0.000    0.000    0.000    0.000    0.000 
#    0.000   70.000    0.000    0.000    0.000    0.000 
#
# Total GULP energy -356899.149978 kJ/mol
# GULP energy per Si atom -5576.549218 kJ/mol
# Density = 1.890078 g / cm^3
# Si number density = 18.943894 Si / 1000 Ang^3
#
#
#
# Elastic Constant Matrix: (Units=GPa)
#
#
# Indices 1 2 3 4 5 6 
#
# 1 55.5890 11.5246 9.2321 0.0000 0.0000 0.0000
# 2 11.5246 55.5889 9.2320 0.0000 0.0000 0.0000
# 3 9.2321 9.2320 148.7131 0.0000 0.0000 0.0000
# 4 0.0000 0.0000 0.0000 31.4551 0.0000 0.0000
# 5 0.0000 0.0000 0.0000 0.0000 31.4551 0.0000
# 6 0.0000 0.0000 0.0000 0.0000 0.0000 -18.5242
#
#
#
# Elastic Compliance Matrix: (Units=1/GPa)
#
#
# Indices 1 2 3 4 5 6 
#
# 1 0.018927 -0.003768 -0.000941 0.000000 0.000000 0.000000
# 2 -0.003768 0.018927 -0.000941 0.000000 0.000000 0.000000
# 3 -0.000941 -0.000941 0.006841 0.000000 0.000000 0.000000
# 4 0.000000 0.000000 0.000000 0.031791 0.000000 0.000000
# 5 0.000000 0.000000 0.000000 0.000000 0.031791 0.000000
# 6 0.000000 0.000000 0.000000 0.000000 0.000000 -0.053984
#
#
# Mechanical properties :
#
#
# Convention : Reuss Voigt Hill
#
# Bulk Modulus (GPa) = 29.94463 35.54094 32.74279
# Shear Modulus (GPa) = 65.16828 24.20403 44.68615
#
# Velocity S-wave (km/s) = 5.87157 3.57833 4.86209
# Velocity P-wave (km/s) = 7.86184 5.98953 6.98867
#
# Compressibility (1/GPa) = 0.03339497
#
# Stress axis : x y z
#
# Youngs Moduli (GPa) = 52.83584 52.83580 146.17316
#
# Poissons Ratio (x) = 0.19906 0.13756
# Poissons Ratio (y) = 0.19906 0.13756
# Poissons Ratio (z) = 0.04972 0.04972
#
# Static dielectric constant tensor:
#      x y z
#    x 1.698250 0.000000 0.000000 
#    y 0.000000 1.698250 0.000000 
#    z 0.000000 0.000000 1.814150 
# 
# From -- ./inp_files/173.got.cif
#   From: 2010.05.17/outbox.cif.g08.bks.cpg/sg130_1_cif.got.tgz:173.got - 2010.05.20 12:17:35.
