data_PCOD9565223
_publ_section_title
;
Structure prediction by ZEFSAII (Michael W. Deem and Ramdas Pophale) SiO2 
 PCOD9565223
Probable space group: P 4/N M M
;
_chemical_formula_sum "Si O2"
_cell_formula_units_Z 64
_cell_length_a 15.597853
_cell_length_b 15.597853
_cell_length_c 16.174088
_cell_angle_alpha 90.000000
_cell_angle_beta 90.000000
_cell_angle_gamma 90.000000
_cell_volume 3935.042686
_symmetry_space_group_name_H-M "P 4/N M M"
_symmetry_group_IT_number 129
_symmetry_cell_setting 'tetragonal'
loop_
_space_group_symop_operation_xyz
x,y,z
1/2-y,x,z
1/2-x,1/2-y,z
y,1/2-x,z
1/2+x,-y,-z
-x,1/2+y,-z
1/2+y,1/2+x,-z
-y,-x,-z
-x,-y,-z
1/2+y,-x,-z
1/2+x,1/2+y,-z
-y,1/2+x,-z
1/2-x,y,z
x,1/2-y,z
1/2-y,1/2-x,z
y,x,z
loop_
_atom_site_type_symbol
_atom_site_label
_atom_site_fract_x
_atom_site_fract_y
_atom_site_fract_z
Si Si1 0.513054 0.653560 0.565109
Si Si2 0.490619 0.350577 0.796933
Si Si3 0.153140 0.853435 0.095840
Si Si4 0.653805 0.064124 0.384326
O O1 0.540726 0.750000 0.583724
O O2 0.582603 0.582603 0.587995
O O3 0.493873 0.647218 0.466627
O O4 0.422476 0.631935 0.607879
O O5 0.475711 0.250000 0.817110
O O6 0.410788 0.410788 0.817668
O O7 0.576756 0.380945 0.844207
O O8 0.510471 0.355607 0.699191
O O9 0.250000 0.886110 0.112962
O O10 0.157766 0.750000 0.103685
O O11 0.130257 0.869744 0.000000
O O12 0.750000 0.102488 0.384321
#
# Coordination Sequence:
#
# PCOD9565223 Si02
#       4
#    16  16  16  16
#     4  10  19  31  47  65  90 121 150 185 225 267
#     4  10  19  30  46  68  94 122 150 180 216 264
#     4   8  15  29  47  66  89 116 147 186 228 263
#     4   9  18  32  48  65  87 117 152 190 230 264
#
# _framework density 16.264119000000001
#
# number of rings (size 3 to 8) (size 9 to 14) (size 15 to 20)
#    0.000    2.750    0.000    3.750    0.000    2.500 
#    0.000    5.000    0.000    4.500    0.000    0.000 
#    0.000    0.500    0.000    0.500    0.000    0.000 
#
# Total GULP energy -356413.065546 kJ/mol
# GULP energy per Si atom -5568.954149 kJ/mol
# Density = 1.622710 g / cm^3
# Si number density = 16.264119 Si / 1000 Ang^3
#
#
#
# Elastic Constant Matrix: (Units=GPa)
#
#
# Indices 1 2 3 4 5 6 
#
# 1 89.8926 65.3648 32.2868 0.0000 0.0000 0.0000
# 2 65.3648 89.8923 32.2869 0.0000 0.0000 0.0000
# 3 32.2868 32.2869 29.3904 0.0000 0.0000 0.0000
# 4 0.0000 0.0000 0.0000 12.1612 0.0000 0.0000
# 5 0.0000 0.0000 0.0000 0.0000 12.1613 0.0000
# 6 0.0000 0.0000 0.0000 0.0000 0.0000 12.3739
#
#
#
# Elastic Compliance Matrix: (Units=1/GPa)
#
#
# Indices 1 2 3 4 5 6 
#
# 1 0.026315 -0.014455 -0.013028 0.000000 0.000000 0.000000
# 2 -0.014455 0.026315 -0.013029 0.000000 0.000000 0.000000
# 3 -0.013028 -0.013029 0.062650 0.000000 0.000000 0.000000
# 4 0.000000 0.000000 0.000000 0.082229 0.000000 0.000000
# 5 0.000000 0.000000 0.000000 0.000000 0.082228 0.000000
# 6 0.000000 0.000000 0.000000 0.000000 0.000000 0.080815
#
#
# Mechanical properties :
#
#
# Convention : Reuss Voigt Hill
#
# Bulk Modulus (GPa) = 29.19269 52.11691 40.65480
# Shear Modulus (GPa) = 11.03766 12.62173 11.82969
#
# Velocity S-wave (km/s) = 2.60792 2.78878 2.69987
# Velocity P-wave (km/s) = 5.20158 6.51793 5.89660
#
# Compressibility (1/GPa) = 0.03425515
#
# Stress axis : x y z
#
# Youngs Moduli (GPa) = 38.00140 38.00102 15.96179
#
# Poissons Ratio (x) = 0.54932 0.20795
# Poissons Ratio (y) = 0.54932 0.20796
# Poissons Ratio (z) = 0.49509 0.49510
#
# Static dielectric constant tensor:
#      x y z
#    x 1.548000 0.000000 0.000000 
#    y 0.000000 1.548000 0.000000 
#    z 0.000000 0.000000 1.549770 
# 
# From -- ./inp_files/4458.got.cif
#   From: 2010.05.17/outbox.cif.g08.bks.cpg/sg129_3_cif.got.tgz:4458.got - 2010.05.20 12:12:06.
