data_PCOD9565397
_publ_section_title
;
Structure prediction by ZEFSAII (Michael W. Deem and Ramdas Pophale) SiO2 
 PCOD9565397
Probable space group: P 4/N M M
;
_chemical_formula_sum "Si O2"
_cell_formula_units_Z 112
_cell_length_a 18.622694
_cell_length_b 18.622694
_cell_length_c 18.746424
_cell_angle_alpha 90.000000
_cell_angle_beta 90.000000
_cell_angle_gamma 90.000000
_cell_volume 6501.348548
_symmetry_space_group_name_H-M "P 4/N M M"
_symmetry_group_IT_number 129
_symmetry_cell_setting 'tetragonal'
loop_
_space_group_symop_operation_xyz
x,y,z
1/2-y,x,z
1/2-x,1/2-y,z
y,1/2-x,z
1/2+x,-y,-z
-x,1/2+y,-z
1/2+y,1/2+x,-z
-y,-x,-z
-x,-y,-z
1/2+y,-x,-z
1/2+x,1/2+y,-z
-y,1/2+x,-z
1/2-x,y,z
x,1/2-y,z
1/2-y,1/2-x,z
y,x,z
loop_
_atom_site_type_symbol
_atom_site_label
_atom_site_fract_x
_atom_site_fract_y
_atom_site_fract_z
Si Si1 0.438741 0.943563 0.309102
Si Si2 0.060034 0.327117 0.505775
Si Si3 0.440207 0.169809 0.677494
Si Si4 0.930735 0.053208 0.848863
Si Si5 0.669393 0.404701 0.565181
Si Si6 0.334409 0.453946 0.892085
Si Si7 0.333562 0.048084 0.064238
O O1 0.500097 0.884294 0.295714
O O2 0.401887 0.951133 0.232230
O O3 0.387275 0.913353 0.370724
O O4 0.483450 0.016551 0.328413
O O5 0.094112 0.250000 0.489484
O O6 0.108393 0.391608 0.480002
O O7 0.053237 0.331716 0.591279
O O8 0.982760 0.329860 0.471250
O O9 0.450332 0.250000 0.702366
O O10 0.362901 0.137100 0.695156
O O11 0.971833 0.127533 0.866575
O O12 0.870752 0.022858 0.902443
O O13 0.995100 0.995100 0.852694
O O14 0.646733 0.353268 0.500000
O O15 0.750000 0.387259 0.590255
O O16 0.250000 0.447011 0.871388
O O17 0.386197 0.386197 0.870212
O O18 0.336285 0.455845 0.978378
O O19 0.250000 0.055459 0.085439
O O20 0.383530 0.116471 0.085475
#
# Coordination Sequence:
#
# PCOD9565397 Si02
#       7
#    16  16  16  16  16  16  16
#     4  10  20  33  52  73  95 127 163 203 245 286
#     4   9  17  29  47  70  94 120 149 184 229 284
#     4   9  17  29  46  69  95 123 154 189 234 287
#     4   9  18  32  49  73 102 134 172 207 244 290
#     4  11  22  35  51  70  91 118 156 201 251 300
#     4   9  17  30  50  77 107 139 172 205 244 290
#     4   9  17  30  51  77 106 138 169 206 248 292
#
# _framework density 17.227194999999998
#
# number of rings (size 3 to 8) (size 9 to 14) (size 15 to 20)
#    0.000    2.571    1.429    0.857    0.000    4.143 
#    0.000    2.857    0.000    0.429    0.000    8.000 
#    0.000    3.429    0.000    0.000    0.000    0.000 
#
# Total GULP energy -623599.460686 kJ/mol
# GULP energy per Si atom -5567.852328 kJ/mol
# Density = 1.718799 g / cm^3
# Si number density = 17.227195 Si / 1000 Ang^3
#
#
#
# Elastic Constant Matrix: (Units=GPa)
#
#
# Indices 1 2 3 4 5 6 
#
# 1 63.5316 54.4935 25.6862 0.0000 0.0000 0.0000
# 2 54.4935 63.5168 25.6845 0.0000 0.0000 0.0000
# 3 25.6862 25.6845 56.4371 0.0000 0.0000 0.0000
# 4 0.0000 0.0000 0.0000 -1.3663 0.0000 0.0000
# 5 0.0000 0.0000 0.0000 0.0000 -1.3680 0.0000
# 6 0.0000 0.0000 0.0000 0.0000 0.0000 13.5928
#
#
#
# Elastic Compliance Matrix: (Units=1/GPa)
#
#
# Indices 1 2 3 4 5 6 
#
# 1 0.060643 -0.050084 -0.004807 0.000000 0.000000 0.000000
# 2 -0.050084 0.060658 -0.004811 0.000000 0.000000 0.000000
# 3 -0.004807 -0.004811 0.022096 0.000000 0.000000 0.000000
# 4 0.000000 0.000000 0.000000 -0.731920 0.000000 0.000000
# 5 0.000000 0.000000 0.000000 0.000000 -0.730982 0.000000
# 6 0.000000 0.000000 0.000000 0.000000 0.000000 0.073569
#
#
# Mechanical properties :
#
#
# Convention : Reuss Voigt Hill
#
# Bulk Modulus (GPa) = 41.67839 43.91269 42.79554
# Shear Modulus (GPa) = -4.47013 7.34644 1.43816
#
# Velocity S-wave (km/s) = -1.61259 2.06729 0.91467
# Velocity P-wave (km/s) = 4.55836 5.58963 5.10013
#
# Compressibility (1/GPa) = 0.02399325
#
# Stress axis : x y z
#
# Youngs Moduli (GPa) = 16.49005 16.48583 45.25680
#
# Poissons Ratio (x) = 0.82567 0.21756
# Poissons Ratio (y) = 0.82588 0.21772
# Poissons Ratio (z) = 0.07927 0.07931
#
# Static dielectric constant tensor:
#      x y z
#    x 1.592140 0.000000 0.000000 
#    y 0.000000 1.592140 0.000000 
#    z 0.000000 0.000000 1.622590 
# 
# From -- ./inp_files/6713.got.cif
#   From: 2010.05.17/outbox.cif.g08.bks.cpg/sg129_4_cif.got.tgz:6713.got - 2010.05.20 12:12:06.
