data_PCOD9565186
_publ_section_title
;
Structure prediction by ZEFSAII (Michael W. Deem and Ramdas Pophale) SiO2 
 PCOD9565186
Probable space group: P 4/N M M
;
_chemical_formula_sum "Si O2"
_cell_formula_units_Z 72
_cell_length_a 13.966059
_cell_length_b 13.966059
_cell_length_c 23.911930
_cell_angle_alpha 90.000000
_cell_angle_beta 90.000000
_cell_angle_gamma 90.000000
_cell_volume 4664.041171
_symmetry_space_group_name_H-M "P 4/N M M"
_symmetry_group_IT_number 129
_symmetry_cell_setting 'tetragonal'
loop_
_space_group_symop_operation_xyz
x,y,z
1/2-y,x,z
1/2-x,1/2-y,z
y,1/2-x,z
1/2+x,-y,-z
-x,1/2+y,-z
1/2+y,1/2+x,-z
-y,-x,-z
-x,-y,-z
1/2+y,-x,-z
1/2+x,1/2+y,-z
-y,1/2+x,-z
1/2-x,y,z
x,1/2-y,z
1/2-y,1/2-x,z
y,x,z
loop_
_atom_site_type_symbol
_atom_site_label
_atom_site_fract_x
_atom_site_fract_y
_atom_site_fract_z
Si Si1 0.863088 0.136913 0.000000
Si Si2 0.133871 0.859880 0.657970
Si Si3 0.364527 0.981783 0.110846
Si Si4 0.522275 0.365029 0.547274
Si Si5 0.866497 0.140001 0.781393
O O1 0.889106 0.077557 0.945000
O O2 0.750000 0.122926 0.011116
O O3 0.250000 0.856027 0.660857
O O4 0.101112 0.750000 0.648145
O O5 0.110353 0.928948 0.606902
O O6 0.102814 0.893717 0.719702
O O7 0.250000 0.991742 0.112581
O O8 0.395431 0.923576 0.166125
O O9 0.417986 0.082015 0.109551
O O10 0.593436 0.406565 0.500000
O O11 0.512388 0.250000 0.542881
O O12 0.422764 0.422764 0.541991
O O13 0.750000 0.142320 0.780830
O O14 0.898900 0.250000 0.788350
#
# Coordination Sequence:
#
# PCOD9565186 Si02
#       5
#     8  16  16  16  16
#     4   9  17  30  48  66  81  99 130 178 228 261
#     4   8  14  26  45  67  89 112 140 178 220 258
#     4  10  19  29  42  61  86 115 143 170 204 250
#     4  10  20  32  47  68  92 119 151 185 223 267
#     4   8  14  26  44  65  87 110 140 180 220 250
#
# _framework density 15.437255
#
# number of rings (size 3 to 8) (size 9 to 14) (size 15 to 20)
#    0.000    3.000    0.000    3.000    0.000    5.111 
#    0.000    0.000    0.000    0.000    0.000    0.000 
#    0.000    9.333    0.000    0.889    0.000    0.000 
#
# Total GULP energy -400816.334111 kJ/mol
# GULP energy per Si atom -5566.893529 kJ/mol
# Density = 1.540212 g / cm^3
# Si number density = 15.437255 Si / 1000 Ang^3
#
#
#
# Elastic Constant Matrix: (Units=GPa)
#
#
# Indices 1 2 3 4 5 6 
#
# 1 54.1825 35.8915 47.1881 0.0000 0.0000 0.0000
# 2 35.8915 54.1831 47.1882 0.0000 0.0000 0.0000
# 3 47.1881 47.1882 137.8552 0.0000 0.0000 0.0000
# 4 0.0000 0.0000 0.0000 0.8005 0.0000 0.0000
# 5 0.0000 0.0000 0.0000 0.0000 0.8038 0.0000
# 6 0.0000 0.0000 0.0000 0.0000 0.0000 16.9615
#
#
#
# Elastic Compliance Matrix: (Units=1/GPa)
#
#
# Indices 1 2 3 4 5 6 
#
# 1 0.035991 -0.018680 -0.005925 0.000000 0.000000 0.000000
# 2 -0.018680 0.035990 -0.005925 0.000000 0.000000 0.000000
# 3 -0.005925 -0.005925 0.011311 0.000000 0.000000 0.000000
# 4 0.000000 0.000000 0.000000 1.249264 0.000000 0.000000
# 5 0.000000 0.000000 0.000000 0.000000 1.244076 0.000000
# 6 0.000000 0.000000 0.000000 0.000000 0.000000 0.058957
#
#
# Mechanical properties :
#
#
# Convention : Reuss Voigt Hill
#
# Bulk Modulus (GPa) = 44.98486 56.30626 50.64556
# Shear Modulus (GPa) = 1.84907 11.44336 6.64621
#
# Velocity S-wave (km/s) = 1.09563 2.72560 2.07717
# Velocity P-wave (km/s) = 5.55016 6.81606 6.21542
#
# Compressibility (1/GPa) = 0.02222970
#
# Stress axis : x y z
#
# Youngs Moduli (GPa) = 27.78489 27.78524 88.41326
#
# Poissons Ratio (x) = 0.51904 0.52389
# Poissons Ratio (y) = 0.51903 0.52388
# Poissons Ratio (z) = 0.16464 0.16464
#
# Static dielectric constant tensor:
#      x y z
#    x 1.491730 0.000000 0.000000 
#    y 0.000000 1.491720 0.000000 
#    z 0.000000 0.000000 1.538720 
# 
# From -- ./inp_files/6341.got.cif
#   From: 2010.05.17/outbox.cif.g08.bks.cpg/sg129_4_cif.got.tgz:6341.got - 2010.05.20 12:12:06.
