data_PCOD9565176
_publ_section_title
;
Structure prediction by ZEFSAII (Michael W. Deem and Ramdas Pophale) SiO2 
 PCOD9565176
Probable space group: P 4/N M M
;
_chemical_formula_sum "Si O2"
_cell_formula_units_Z 96
_cell_length_a 18.741206
_cell_length_b 18.741206
_cell_length_c 19.168229
_cell_angle_alpha 90.000000
_cell_angle_beta 90.000000
_cell_angle_gamma 90.000000
_cell_volume 6732.510787
_symmetry_space_group_name_H-M "P 4/N M M"
_symmetry_group_IT_number 129
_symmetry_cell_setting 'tetragonal'
loop_
_space_group_symop_operation_xyz
x,y,z
1/2-y,x,z
1/2-x,1/2-y,z
y,1/2-x,z
1/2+x,-y,-z
-x,1/2+y,-z
1/2+y,1/2+x,-z
-y,-x,-z
-x,-y,-z
1/2+y,-x,-z
1/2+x,1/2+y,-z
-y,1/2+x,-z
1/2-x,y,z
x,1/2-y,z
1/2-y,1/2-x,z
y,x,z
loop_
_atom_site_type_symbol
_atom_site_label
_atom_site_fract_x
_atom_site_fract_y
_atom_site_fract_z
Si Si1 0.464233 0.665456 0.931761
Si Si2 0.836750 0.167457 0.576361
Si Si3 0.667351 0.095409 0.141670
Si Si4 0.049105 0.333368 0.211256
Si Si5 0.548302 0.666299 0.071953
Si Si6 0.835385 0.101426 0.722339
O O1 0.450867 0.750000 0.937013
O O2 0.389380 0.629382 0.912083
O O3 0.516435 0.653612 0.865886
O O4 0.505285 0.644035 0.001778
O O5 0.859868 0.140133 0.500000
O O6 0.750000 0.167284 0.573562
O O7 0.858840 0.250000 0.584959
O O8 0.857559 0.124085 0.644890
O O9 0.750000 0.113114 0.125685
O O10 0.645713 0.124535 0.217567
O O11 0.659956 0.010236 0.133174
O O12 0.069087 0.250000 0.215697
O O13 0.114243 0.385757 0.224298
O O14 0.982052 0.346513 0.262202
O O15 0.567693 0.750000 0.064560
O O16 0.615557 0.615557 0.081551
O O17 0.750000 0.114930 0.730304
#
# Coordination Sequence:
#
# PCOD9565176 Si02
#       6
#    16  16  16  16  16  16
#     4   9  18  31  45  62  84 109 138 171 207 248
#     4   8  13  22  39  63  87 111 139 166 191 224
#     4  10  19  28  41  63  88 115 143 166 194 237
#     4   9  17  28  42  60  80 105 139 176 215 257
#     4  10  21  35  48  62  79 101 136 180 221 258
#     4   9  17  28  42  61  87 117 143 166 196 238
#
# _framework density 14.259167
#
# number of rings (size 3 to 8) (size 9 to 14) (size 15 to 20)
#    0.000    2.833    0.000    3.500    0.000    6.333 
#    0.000    0.833    0.000    9.500    0.000    0.000 
#    0.000    0.000    0.000    0.000    0.000   21.000 
#
# Total GULP energy -534657.848690 kJ/mol
# GULP energy per Si atom -5569.352591 kJ/mol
# Density = 1.422671 g / cm^3
# Si number density = 14.259167 Si / 1000 Ang^3
#
#
#
# Elastic Constant Matrix: (Units=GPa)
#
#
# Indices 1 2 3 4 5 6 
#
# 1 72.0299 61.8577 39.8123 0.0000 0.0000 0.0000
# 2 61.8577 72.0301 39.8123 0.0000 0.0000 0.0000
# 3 39.8123 39.8123 96.3172 0.0000 0.0000 0.0000
# 4 0.0000 0.0000 0.0000 10.9583 0.0000 0.0000
# 5 0.0000 0.0000 0.0000 0.0000 10.9582 0.0000
# 6 0.0000 0.0000 0.0000 0.0000 0.0000 27.7307
#
#
#
# Elastic Compliance Matrix: (Units=1/GPa)
#
#
# Indices 1 2 3 4 5 6 
#
# 1 0.054105 -0.044201 -0.004094 0.000000 0.000000 0.000000
# 2 -0.044201 0.054105 -0.004094 0.000000 0.000000 0.000000
# 3 -0.004094 -0.004094 0.013766 0.000000 0.000000 0.000000
# 4 0.000000 0.000000 0.000000 0.091255 0.000000 0.000000
# 5 0.000000 0.000000 0.000000 0.000000 0.091256 0.000000
# 6 0.000000 0.000000 0.000000 0.000000 0.000000 0.036061
#
#
# Mechanical properties :
#
#
# Convention : Reuss Voigt Hill
#
# Bulk Modulus (GPa) = 58.14240 58.14907 58.14574
# Shear Modulus (GPa) = 11.08506 16.52243 13.80375
#
# Velocity S-wave (km/s) = 2.79121 3.40770 3.11474
# Velocity P-wave (km/s) = 7.15904 7.50679 7.33497
#
# Compressibility (1/GPa) = 0.01719915
#
# Stress axis : x y z
#
# Youngs Moduli (GPa) = 18.48268 18.48274 72.64031
#
# Poissons Ratio (x) = 0.81696 0.29736
# Poissons Ratio (y) = 0.81696 0.29735
# Poissons Ratio (z) = 0.07566 0.07566
#
# Static dielectric constant tensor:
#      x y z
#    x 1.464270 0.000000 0.000000 
#    y 0.000000 1.464270 0.000000 
#    z 0.000000 0.000000 1.483860 
# 
# From -- ./inp_files/5643.got.cif
#   From: 2010.05.17/outbox.cif.g08.bks.cpg/sg129_3_cif.got.tgz:5643.got - 2010.05.20 12:12:06.
