data_PCOD9565016
_publ_section_title
;
Structure prediction by ZEFSAII (Michael W. Deem and Ramdas Pophale) SiO2 
 PCOD9565016
Probable space group: P 4/M N C
;
_chemical_formula_sum "Si O2"
_cell_formula_units_Z 44
_cell_length_a 8.155247
_cell_length_b 8.155247
_cell_length_c 26.979494
_cell_angle_alpha 90.000000
_cell_angle_beta 90.000000
_cell_angle_gamma 90.000000
_cell_volume 1794.353634
_symmetry_space_group_name_H-M "P 4/M N C"
_symmetry_group_IT_number 128
_symmetry_cell_setting 'tetragonal'
loop_
_space_group_symop_operation_xyz
x,y,z
-y,x,z
-x,-y,z
y,-x,z
1/2+x,1/2-y,1/2-z
1/2-x,1/2+y,1/2-z
1/2+y,1/2+x,1/2-z
1/2-y,1/2-x,1/2-z
-x,-y,-z
y,-x,-z
x,y,-z
-y,x,-z
1/2-x,1/2+y,1/2+z
1/2+x,1/2-y,1/2+z
1/2-y,1/2-x,1/2+z
1/2+y,1/2+x,1/2+z
loop_
_atom_site_type_symbol
_atom_site_label
_atom_site_fract_x
_atom_site_fract_y
_atom_site_fract_z
Si Si1 0.500000 0.500000 0.000000
Si Si2 0.910583 0.735466 0.604896
Si Si3 0.692603 0.202836 0.500000
Si Si4 0.587071 0.237382 0.298265
Si Si5 0.000000 0.000000 0.000000
O O1 0.388223 0.335999 0.000000
O O2 0.864954 0.643083 0.554203
O O3 0.861919 0.630650 0.652406
O O4 0.096788 0.801075 0.606474
O O5 0.671090 0.398893 0.500000
O O6 0.699538 0.401198 0.297803
O O7 0.634128 0.134128 0.250000
#
# Coordination Sequence:
#
# PCOD9565016 Si02
#       5
#     2  16   8  16   2
#     4  12  20  56  84 100 142 216 284 276 364 482
#     4  11  22  43  73 102 135 185 246 295 349 440
#     4  12  24  50  72 110 152 202 248 310 372 462
#     4  11  26  45  66  96 136 176 228 296 369 440
#     4  12  36  40  68 116 174 184 252 324 412 418
#
# _framework density 24.521363999999998
#
# number of rings (size 3 to 8) (size 9 to 14) (size 15 to 20)
#    0.000    0.727    3.636    2.182    5.091    8.727 
#    0.000    0.000    0.000    0.000    0.000    0.000 
#    0.000    0.000    0.000    0.000    0.000    0.000 
#
# Total GULP energy -245509.481927 kJ/mol
# GULP energy per Si atom -5579.760953 kJ/mol
# Density = 2.446555 g / cm^3
# Si number density = 24.521364 Si / 1000 Ang^3
#
#
#
# Elastic Constant Matrix: (Units=GPa)
#
#
# Indices 1 2 3 4 5 6 
#
# 1 102.1588 67.5051 57.7193 0.0000 0.0000 0.0000
# 2 67.5051 102.1588 57.7193 0.0000 0.0000 0.0000
# 3 57.7193 57.7193 241.8924 0.0000 0.0000 0.0000
# 4 0.0000 0.0000 0.0000 -32.0371 0.0000 0.0000
# 5 0.0000 0.0000 0.0000 0.0000 -32.0371 0.0000
# 6 0.0000 0.0000 0.0000 0.0000 0.0000 70.9657
#
#
#
# Elastic Compliance Matrix: (Units=1/GPa)
#
#
# Indices 1 2 3 4 5 6 
#
# 1 0.017947 -0.010910 -0.001679 0.000000 0.000000 0.000000
# 2 -0.010910 0.017947 -0.001679 0.000000 0.000000 0.000000
# 3 -0.001679 -0.001679 0.004935 0.000000 0.000000 0.000000
# 4 0.000000 0.000000 0.000000 -0.031214 0.000000 0.000000
# 5 0.000000 0.000000 0.000000 0.000000 -0.031214 0.000000
# 6 0.000000 0.000000 0.000000 0.000000 0.000000 0.014091
#
#
# Mechanical properties :
#
#
# Convention : Reuss Voigt Hill
#
# Bulk Modulus (GPa) = 81.35282 90.23307 85.79294
# Shear Modulus (GPa) = 198.99537 18.92939 108.96238
#
# Velocity S-wave (km/s) = 9.01820 2.78142 6.67324
# Velocity P-wave (km/s) = 11.90318 6.86969 9.71798
#
# Compressibility (1/GPa) = 0.01229214
#
# Stress axis : x y z
#
# Youngs Moduli (GPa) = 55.72066 55.72066 202.62033
#
# Poissons Ratio (x) = 0.60793 0.34020
# Poissons Ratio (y) = 0.60793 0.34020
# Poissons Ratio (z) = 0.09355 0.09355
#
# Static dielectric constant tensor:
#      x y z
#    x 1.930410 0.000000 0.000000 
#    y 0.000000 1.930410 0.000000 
#    z 0.000000 0.000000 1.978250 
# 
# From -- ./inp_files/7010.got.cif
#   From: 2010.05.17/outbox.cif.g08.bks.cpg/sg128_4_cif.got.tgz:7010.got - 2010.05.20 12:07:25.
