data_PCOD9565003
_publ_section_title
;
Structure prediction by ZEFSAII (Michael W. Deem and Ramdas Pophale) SiO2 
 PCOD9565003
Probable space group: P 4/M N C
;
_chemical_formula_sum "Si O2"
_cell_formula_units_Z 80
_cell_length_a 11.221193
_cell_length_b 11.221193
_cell_length_c 32.910885
_cell_angle_alpha 90.000000
_cell_angle_beta 90.000000
_cell_angle_gamma 90.000000
_cell_volume 4143.979757
_symmetry_space_group_name_H-M "P 4/M N C"
_symmetry_group_IT_number 128
_symmetry_cell_setting 'tetragonal'
loop_
_space_group_symop_operation_xyz
x,y,z
-y,x,z
-x,-y,z
y,-x,z
1/2+x,1/2-y,1/2-z
1/2-x,1/2+y,1/2-z
1/2+y,1/2+x,1/2-z
1/2-y,1/2-x,1/2-z
-x,-y,-z
y,-x,-z
x,y,-z
-y,x,-z
1/2-x,1/2+y,1/2+z
1/2+x,1/2-y,1/2+z
1/2-y,1/2-x,1/2+z
1/2+y,1/2+x,1/2+z
loop_
_atom_site_type_symbol
_atom_site_label
_atom_site_fract_x
_atom_site_fract_y
_atom_site_fract_z
Si Si1 0.804702 0.978548 0.658058
Si Si2 0.300811 0.996960 0.747489
Si Si3 0.681571 0.421754 0.451664
Si Si4 0.393989 0.080737 0.107433
Si Si5 0.805598 0.999793 0.165099
O O1 0.766191 0.984854 0.705210
O O2 0.872686 0.101792 0.650350
O O3 0.691599 0.953140 0.630243
O O4 0.372288 0.872288 0.750000
O O5 0.217922 0.003005 0.786843
O O6 0.399093 0.100908 0.750000
O O7 0.650896 0.560559 0.442378
O O8 0.701343 0.412374 0.500000
O O9 0.796153 0.384820 0.426075
O O10 0.500000 0.000000 0.090302
O O11 0.318548 0.008345 0.141557
O O12 0.884165 0.114912 0.154550
#
# Coordination Sequence:
#
# PCOD9565003 Si02
#       5
#    16  16  16  16  16
#     4  11  26  43  59  83 123 173 214 252 308 372
#     4  11  22  37  59  85 115 158 213 265 315 365
#     4   9  20  42  71 101 131 160 194 250 320 376
#     4  12  25  37  65  94 126 162 203 253 307 374
#     4  11  24  39  60  89 118 156 211 271 323 360
#
# _framework density 19.305112999999999
#
# number of rings (size 3 to 8) (size 9 to 14) (size 15 to 20)
#    0.000    1.200    2.000    4.200    8.400    5.200 
#    0.000    0.000    0.000    0.000    0.000    1.400 
#    0.000    0.000    0.000    0.000    0.000    0.000 
#
# Total GULP energy -447485.577639 kJ/mol
# GULP energy per Si atom -5593.569720 kJ/mol
# Density = 1.926117 g / cm^3
# Si number density = 19.305113 Si / 1000 Ang^3
#
#
#
# Elastic Constant Matrix: (Units=GPa)
#
#
# Indices 1 2 3 4 5 6 
#
# 1 66.2276 28.8149 11.5412 0.0000 0.0000 0.0000
# 2 28.8149 66.2279 11.5411 0.0000 0.0000 0.0000
# 3 11.5412 11.5411 71.6627 0.0000 0.0000 0.0000
# 4 0.0000 0.0000 0.0000 10.1930 0.0000 0.0000
# 5 0.0000 0.0000 0.0000 0.0000 10.2104 0.0000
# 6 0.0000 0.0000 0.0000 0.0000 0.0000 5.5697
#
#
#
# Elastic Compliance Matrix: (Units=1/GPa)
#
#
# Indices 1 2 3 4 5 6 
#
# 1 0.018839 -0.007889 -0.001763 0.000000 0.000000 0.000000
# 2 -0.007889 0.018839 -0.001763 0.000000 0.000000 0.000000
# 3 -0.001763 -0.001763 0.014522 0.000000 0.000000 0.000000
# 4 0.000000 0.000000 0.000000 0.098106 0.000000 0.000000
# 5 0.000000 0.000000 0.000000 0.000000 0.097939 0.000000
# 6 0.000000 0.000000 0.000000 0.000000 0.000000 0.179544
#
#
# Mechanical properties :
#
#
# Convention : Reuss Voigt Hill
#
# Bulk Modulus (GPa) = 34.05047 34.21252 34.13149
# Shear Modulus (GPa) = 10.85982 15.34268 13.10125
#
# Velocity S-wave (km/s) = 2.37436 2.82218 2.60790
# Velocity P-wave (km/s) = 5.01927 5.32730 5.17558
#
# Compressibility (1/GPa) = 0.02936817
#
# Stress axis : x y z
#
# Youngs Moduli (GPa) = 53.08027 53.08058 68.85976
#
# Poissons Ratio (x) = 0.41878 0.12143
# Poissons Ratio (y) = 0.41878 0.12143
# Poissons Ratio (z) = 0.09361 0.09360
#
# Static dielectric constant tensor:
#      x y z
#    x 1.669350 0.000000 0.000000 
#    y 0.000000 1.669360 0.000000 
#    z 0.000000 0.000000 1.668180 
# 
# From -- ./inp_files/7156.got.cif
#   From: 2010.05.17/outbox.cif.g08.bks.cpg/sg128_4_cif.got.tgz:7156.got - 2010.05.20 12:07:25.
