data_PCOD9565790
_publ_section_title
;
Structure prediction by ZEFSAII (Michael W. Deem and Ramdas Pophale) SiO2 
 PCOD9565790
Probable space group: P 4/N C C
;
_chemical_formula_sum "Si O2"
_cell_formula_units_Z 72
_cell_length_a 17.124295
_cell_length_b 17.124295
_cell_length_c 9.329313
_cell_angle_alpha 90.000000
_cell_angle_beta 90.000000
_cell_angle_gamma 90.000000
_cell_volume 2735.741544
_symmetry_space_group_name_H-M "P 4/N C C"
_symmetry_group_IT_number 130
_symmetry_cell_setting 'tetragonal'
loop_
_space_group_symop_operation_xyz
x,y,z
1/2-y,x,z
1/2-x,1/2-y,z
y,1/2-x,z
1/2+x,-y,1/2-z
-x,1/2+y,1/2-z
1/2+y,1/2+x,1/2-z
-y,-x,1/2-z
-x,-y,-z
1/2+y,-x,-z
1/2+x,1/2+y,-z
-y,1/2+x,-z
1/2-x,y,1/2+z
x,1/2-y,1/2+z
1/2-y,1/2-x,1/2+z
y,x,1/2+z
loop_
_atom_site_type_symbol
_atom_site_label
_atom_site_fract_x
_atom_site_fract_y
_atom_site_fract_z
Si Si1 0.602583 0.922490 0.598389
Si Si2 0.502774 0.840311 0.822905
Si Si3 0.624090 0.770174 0.288987
Si Si4 0.844542 0.331874 0.011812
Si Si5 0.414795 0.914795 0.250000
O O1 0.534398 0.866842 0.664625
O O2 0.601444 0.955028 0.437834
O O3 0.690049 0.889109 0.631964
O O4 0.596800 0.998100 0.696695
O O5 0.538694 0.753332 0.842202
O O6 0.413020 0.838663 0.870190
O O7 0.667544 0.689642 0.329409
O O8 0.863550 0.391017 0.885274
O O9 0.846568 0.244546 0.943363
#
# Coordination Sequence:
#
# PCOD9565790 Si02
#       5
#    16  16  16  16   8
#     4  10  22  40  64  94 133 175 214 265 328 394
#     4  10  22  42  66  96 134 172 219 270 328 400
#     4   9  19  36  59  89 124 164 209 257 315 382
#     4  10  22  41  65  92 126 170 221 276 331 386
#     4  10  22  43  64  94 134 165 218 276 324 400
#
# _framework density 26.318275
#
# number of rings (size 3 to 8) (size 9 to 14) (size 15 to 20)
#    0.000    2.222    0.000    1.333    0.000   12.444 
#    0.000   24.444    0.000    0.000    0.000    0.000 
#    0.000    0.000    0.000    0.000    0.000    0.000 
#
# Total GULP energy -401066.047900 kJ/mol
# GULP energy per Si atom -5570.361776 kJ/mol
# Density = 2.625837 g / cm^3
# Si number density = 26.318275 Si / 1000 Ang^3
#
#
#
# Elastic Constant Matrix: (Units=GPa)
#
#
# Indices 1 2 3 4 5 6 
#
# 1 38.1820 89.5813 34.6502 0.0000 0.0000 0.0000
# 2 89.5813 38.1820 34.6502 0.0000 0.0000 0.0000
# 3 34.6502 34.6502 98.1822 0.0000 0.0000 0.0000
# 4 0.0000 0.0000 0.0000 7.3464 0.0000 0.0000
# 5 0.0000 0.0000 0.0000 0.0000 7.3464 0.0000
# 6 0.0000 0.0000 0.0000 0.0000 0.0000 34.6651
#
#
#
# Elastic Compliance Matrix: (Units=1/GPa)
#
#
# Indices 1 2 3 4 5 6 
#
# 1 -0.004888 0.014568 -0.003416 0.000000 0.000000 0.000000
# 2 0.014568 -0.004888 -0.003416 0.000000 0.000000 0.000000
# 3 -0.003416 -0.003416 0.012596 0.000000 0.000000 0.000000
# 4 0.000000 0.000000 0.000000 0.136121 0.000000 0.000000
# 5 0.000000 0.000000 0.000000 0.000000 0.136121 0.000000
# 6 0.000000 0.000000 0.000000 0.000000 0.000000 0.028847
#
#
# Mechanical properties :
#
#
# Convention : Reuss Voigt Hill
#
# Bulk Modulus (GPa) = 54.67026 54.70104 54.68565
# Shear Modulus (GPa) = 16.97577 10.91588 13.94582
#
# Velocity S-wave (km/s) = 2.54248 2.03879 2.30443
# Velocity P-wave (km/s) = 5.42556 5.13534 5.28245
#
# Compressibility (1/GPa) = 0.01829148
#
# Stress axis : x y z
#
# Youngs Moduli (GPa) = -204.59180 -204.59180 79.38753
#
# Poissons Ratio (x) = 2.98044 0.27121
# Poissons Ratio (y) = 2.98044 0.27121
# Poissons Ratio (z) = -0.69893 -0.69893
#
# Static dielectric constant tensor:
#      x y z
#    x 2.111650 0.000000 0.000000 
#    y 0.000000 2.111650 0.000000 
#    z 0.000000 0.000000 2.124370 
# 
# From -- ./inp_files/1639.got.cif
#   From: 2010.05.17/outbox.cif.g08.bks.cpg/sg130_1_cif.got.tgz:1639.got - 2010.05.20 12:17:35.
