data_PCOD9565356
_publ_section_title
;
Structure prediction by ZEFSAII (Michael W. Deem and Ramdas Pophale) SiO2 
 PCOD9565356
Probable space group: P 4/N M M
;
_chemical_formula_sum "Si O2"
_cell_formula_units_Z 128
_cell_length_a 18.283504
_cell_length_b 18.283504
_cell_length_c 20.644986
_cell_angle_alpha 90.000000
_cell_angle_beta 90.000000
_cell_angle_gamma 90.000000
_cell_volume 6901.340495
_symmetry_space_group_name_H-M "P 4/N M M"
_symmetry_group_IT_number 129
_symmetry_cell_setting 'tetragonal'
loop_
_space_group_symop_operation_xyz
x,y,z
1/2-y,x,z
1/2-x,1/2-y,z
y,1/2-x,z
1/2+x,-y,-z
-x,1/2+y,-z
1/2+y,1/2+x,-z
-y,-x,-z
-x,-y,-z
1/2+y,-x,-z
1/2+x,1/2+y,-z
-y,1/2+x,-z
1/2-x,y,z
x,1/2-y,z
1/2-y,1/2-x,z
y,x,z
loop_
_atom_site_type_symbol
_atom_site_label
_atom_site_fract_x
_atom_site_fract_y
_atom_site_fract_z
Si Si1 0.919441 0.166901 0.362062
Si Si2 0.520057 0.167025 0.126025
Si Si3 0.069783 0.954473 0.241773
Si Si4 0.880504 0.333076 0.929922
Si Si5 0.336153 0.972714 0.594033
Si Si6 0.456696 0.162742 0.735053
Si Si7 0.166419 0.450824 0.463896
Si Si8 0.663713 0.957726 0.018638
O O1 0.891751 0.250000 0.359397
O O2 0.934974 0.133632 0.291565
O O3 0.867475 0.107642 0.395299
O O4 0.992250 0.166354 0.405293
O O5 0.502866 0.250000 0.146094
O O6 0.507761 0.107126 0.180446
O O7 0.606720 0.157985 0.113456
O O8 0.480482 0.153864 0.057112
O O9 0.021041 0.881814 0.227568
O O10 0.011451 0.011451 0.271658
O O11 0.873864 0.250000 0.907413
O O12 0.842703 0.342703 0.000000
O O13 0.966855 0.350016 0.941986
O O14 0.250000 0.965538 0.585546
O O15 0.347734 0.019967 0.659415
O O16 0.364111 0.010743 0.528975
O O17 0.454035 0.250000 0.748564
O O18 0.380936 0.119065 0.746750
O O19 0.250000 0.428963 0.477224
O O20 0.117856 0.382145 0.447398
O O21 0.750000 0.938590 0.027429
O O22 0.607111 0.892890 0.034713
#
# Coordination Sequence:
#
# PCOD9565356 Si02
#       8
#    16  16  16  16  16  16  16  16
#     4  10  20  33  50  72  97 126 162 202 242 287
#     4  10  20  32  49  74 100 128 164 203 242 286
#     4  10  20  34  51  69  95 132 167 202 244 286
#     4   9  18  31  48  72 101 130 159 193 236 288
#     4   9  18  32  49  71  98 125 155 192 238 296
#     4   9  18  32  49  70  95 123 158 200 245 293
#     4  10  20  33  50  72  96 124 160 200 243 292
#     4   9  18  32  50  74 102 131 165 202 239 282
#
# _framework density 18.547121000000001
#
# number of rings (size 3 to 8) (size 9 to 14) (size 15 to 20)
#    0.000    2.500    0.000    3.000    0.000    6.750 
#    0.000    0.000    0.000    6.750    0.000    0.000 
#    0.000   11.000    0.000    0.000    0.000    0.125 
#
# Total GULP energy -713566.130308 kJ/mol
# GULP energy per Si atom -5574.735393 kJ/mol
# Density = 1.850491 g / cm^3
# Si number density = 18.547121 Si / 1000 Ang^3
#
#
#
# Elastic Constant Matrix: (Units=GPa)
#
#
# Indices 1 2 3 4 5 6 
#
# 1 69.2360 41.0590 0.0781 0.0000 0.0000 0.0000
# 2 41.0590 69.2360 0.0781 0.0000 0.0000 0.0000
# 3 0.0781 0.0781 18.5119 0.0000 0.0000 0.0000
# 4 0.0000 0.0000 0.0000 10.2108 0.0000 0.0000
# 5 0.0000 0.0000 0.0000 0.0000 10.2108 0.0000
# 6 0.0000 0.0000 0.0000 0.0000 0.0000 -375.4990
#
#
#
# Elastic Compliance Matrix: (Units=1/GPa)
#
#
# Indices 1 2 3 4 5 6 
#
# 1 0.022278 -0.013212 -0.000038 0.000000 0.000000 0.000000
# 2 -0.013212 0.022278 -0.000038 0.000000 0.000000 0.000000
# 3 -0.000038 -0.000038 0.054020 0.000000 0.000000 0.000000
# 4 0.000000 0.000000 0.000000 0.097935 0.000000 0.000000
# 5 0.000000 0.000000 0.000000 0.000000 0.097935 0.000000
# 6 0.000000 0.000000 0.000000 0.000000 0.000000 -0.002663
#
#
# Mechanical properties :
#
#
# Convention : Reuss Voigt Hill
#
# Bulk Modulus (GPa) = 13.88888 26.60157 20.24523
# Shear Modulus (GPa) = 14.60453 -63.29755 -24.34651
#
# Velocity S-wave (km/s) = 2.80916 -5.84825 -3.62703
# Velocity P-wave (km/s) = 4.24577 5.58828 2.56928
#
# Compressibility (1/GPa) = 0.07200002
#
# Stress axis : x y z
#
# Youngs Moduli (GPa) = 44.88679 44.88679 18.51176
#
# Poissons Ratio (x) = 0.59303 0.00071
# Poissons Ratio (y) = 0.59303 0.00071
# Poissons Ratio (z) = 0.00172 0.00172
#
# Static dielectric constant tensor:
#      x y z
#    x 1.633910 0.000000 0.000000 
#    y 0.000000 1.633910 0.000000 
#    z 0.000000 0.000000 1.676910 
# 
# From -- ./inp_files/7250.got.cif
#   From: 2010.05.17/outbox.cif.g08.bks.cpg/sg129_4_cif.got.tgz:7250.got - 2010.05.20 12:12:06.
