data_PCOD9565233
_publ_section_title
;
Structure prediction by ZEFSAII (Michael W. Deem and Ramdas Pophale) SiO2 
 PCOD9565233
Probable space group: P 4/N M M
;
_chemical_formula_sum "Si O2"
_cell_formula_units_Z 96
_cell_length_a 20.151640
_cell_length_b 20.151640
_cell_length_c 14.422648
_cell_angle_alpha 90.000000
_cell_angle_beta 90.000000
_cell_angle_gamma 90.000000
_cell_volume 5856.872858
_symmetry_space_group_name_H-M "P 4/N M M"
_symmetry_group_IT_number 129
_symmetry_cell_setting 'tetragonal'
loop_
_space_group_symop_operation_xyz
x,y,z
1/2-y,x,z
1/2-x,1/2-y,z
y,1/2-x,z
1/2+x,-y,-z
-x,1/2+y,-z
1/2+y,1/2+x,-z
-y,-x,-z
-x,-y,-z
1/2+y,-x,-z
1/2+x,1/2+y,-z
-y,1/2+x,-z
1/2-x,y,z
x,1/2-y,z
1/2-y,1/2-x,z
y,x,z
loop_
_atom_site_type_symbol
_atom_site_label
_atom_site_fract_x
_atom_site_fract_y
_atom_site_fract_z
Si Si1 0.823826 0.503576 0.737878
Si Si2 0.176758 0.434087 0.059692
Si Si3 0.328791 0.569300 0.547254
Si Si4 0.429338 0.176556 0.445805
Si Si5 0.097151 0.983566 0.928736
Si Si6 0.959882 0.425405 0.716700
O O1 0.750000 0.472021 0.725467
O O2 0.829372 0.526754 0.843615
O O3 0.824980 0.564288 0.665584
O O4 0.888715 0.461666 0.715013
O O5 0.250000 0.406367 0.052941
O O6 0.122677 0.377323 0.059899
O O7 0.160666 0.482649 0.974680
O O8 0.370378 0.629623 0.500000
O O9 0.250000 0.584471 0.561457
O O10 0.331914 0.504423 0.481501
O O11 0.367997 0.545486 0.639658
O O12 0.406461 0.250000 0.474567
O O13 0.381005 0.118996 0.478814
O O14 0.102951 0.965946 0.821151
O O15 0.073596 0.926405 0.000000
O O16 0.038171 0.038171 0.931393
O O17 0.019671 0.480330 0.701575
#
# Coordination Sequence:
#
# PCOD9565233 Si02
#       6
#    16  16  16  16  16  16
#     4  10  19  30  49  79 110 137 172 216 262 313
#     4  10  19  31  48  73 106 141 175 213 259 313
#     4  11  24  38  54  78 104 134 177 224 269 320
#     4  10  20  34  52  77 108 138 173 214 257 312
#     4   9  17  30  49  75 102 130 168 213 257 301
#     4  11  20  33  58  81 105 140 177 219 269 317
#
# _framework density 16.390999000000001
#
# number of rings (size 3 to 8) (size 9 to 14) (size 15 to 20)
#    0.000    1.833    3.333    2.000    0.000    1.833 
#    0.000    0.000    0.000    3.000    0.000    0.000 
#    0.000    4.333    0.000    0.000    0.000    0.000 
#
# Total GULP energy -534492.079044 kJ/mol
# GULP energy per Si atom -5567.625823 kJ/mol
# Density = 1.635369 g / cm^3
# Si number density = 16.390999 Si / 1000 Ang^3
#
#
#
# Elastic Constant Matrix: (Units=GPa)
#
#
# Indices 1 2 3 4 5 6 
#
# 1 83.1809 45.7624 37.6831 0.0000 0.0000 0.0000
# 2 45.7624 83.1816 37.6833 0.0000 0.0000 0.0000
# 3 37.6831 37.6833 104.1579 0.0000 0.0000 0.0000
# 4 0.0000 0.0000 0.0000 20.9494 0.0000 0.0000
# 5 0.0000 0.0000 0.0000 0.0000 20.9495 0.0000
# 6 0.0000 0.0000 0.0000 0.0000 0.0000 0.5004
#
#
#
# Elastic Compliance Matrix: (Units=1/GPa)
#
#
# Indices 1 2 3 4 5 6 
#
# 1 0.018280 -0.008445 -0.003558 0.000000 0.000000 0.000000
# 2 -0.008445 0.018280 -0.003558 0.000000 0.000000 0.000000
# 3 -0.003558 -0.003558 0.012175 0.000000 0.000000 0.000000
# 4 0.000000 0.000000 0.000000 0.047734 0.000000 0.000000
# 5 0.000000 0.000000 0.000000 0.000000 0.047734 0.000000
# 6 0.000000 0.000000 0.000000 0.000000 0.000000 1.998587
#
#
# Mechanical properties :
#
#
# Convention : Reuss Voigt Hill
#
# Bulk Modulus (GPa) = 56.77716 56.97534 56.87625
# Shear Modulus (GPa) = 2.29381 18.43930 10.36655
#
# Velocity S-wave (km/s) = 1.18426 3.35769 2.51759
# Velocity P-wave (km/s) = 6.04850 7.06171 6.57465
#
# Compressibility (1/GPa) = 0.01761272
#
# Stress axis : x y z
#
# Youngs Moduli (GPa) = 54.70504 54.70550 82.13240
#
# Poissons Ratio (x) = 0.46197 0.29225
# Poissons Ratio (y) = 0.46197 0.29225
# Poissons Ratio (z) = 0.19465 0.19465
#
# Static dielectric constant tensor:
#      x y z
#    x 1.557480 0.000000 0.000000 
#    y 0.000000 1.557480 0.000000 
#    z 0.000000 0.000000 1.582690 
# 
# From -- ./inp_files/3873.got.cif
#   From: 2010.05.17/outbox.cif.g08.bks.cpg/sg129_2_cif.got.tgz:3873.got - 2010.05.20 12:12:06.
