data_PCOD9565021
_publ_section_title
;
Structure prediction by ZEFSAII (Michael W. Deem and Ramdas Pophale) SiO2 
 PCOD9565021
Probable space group: P 4/M N C
;
_chemical_formula_sum "Si O2"
_cell_formula_units_Z 60
_cell_length_a 11.776035
_cell_length_b 11.776035
_cell_length_c 21.520444
_cell_angle_alpha 90.000000
_cell_angle_beta 90.000000
_cell_angle_gamma 90.000000
_cell_volume 2984.347579
_symmetry_space_group_name_H-M "P 4/M N C"
_symmetry_group_IT_number 128
_symmetry_cell_setting 'tetragonal'
loop_
_space_group_symop_operation_xyz
x,y,z
-y,x,z
-x,-y,z
y,-x,z
1/2+x,1/2-y,1/2-z
1/2-x,1/2+y,1/2-z
1/2+y,1/2+x,1/2-z
1/2-y,1/2-x,1/2-z
-x,-y,-z
y,-x,-z
x,y,-z
-y,x,-z
1/2-x,1/2+y,1/2+z
1/2+x,1/2-y,1/2+z
1/2-y,1/2-x,1/2+z
1/2+y,1/2+x,1/2+z
loop_
_atom_site_type_symbol
_atom_site_label
_atom_site_fract_x
_atom_site_fract_y
_atom_site_fract_z
Si Si1 0.625646 0.646827 0.000000
Si Si2 0.233215 0.816275 0.371549
Si Si3 0.244365 0.524386 0.799567
Si Si4 0.000000 0.500000 0.750000
Si Si5 0.325945 0.438902 0.665133
O O1 0.488670 0.654458 0.000000
O O2 0.682646 0.703546 0.060720
O O3 0.155297 0.759644 0.317684
O O4 0.363231 0.776954 0.360893
O O5 0.216257 0.949221 0.357149
O O6 0.112402 0.503790 0.790050
O O7 0.303790 0.469345 0.738415
O O8 0.433944 0.360961 0.645917
#
# Coordination Sequence:
#
# PCOD9565021 Si02
#       5
#     8  16  16   4  16
#     4  11  24  44  68  95 128 178 230 278 333 392
#     4  12  24  42  64  97 133 172 219 281 328 405
#     4  12  23  37  63  96 135 171 211 272 344 395
#     4  12  24  36  60 102 140 172 208 268 350 408
#     4  11  23  41  65  96 133 177 217 264 340 415
#
# _framework density 20.104897999999999
#
# number of rings (size 3 to 8) (size 9 to 14) (size 15 to 20)
#    0.000    0.400    8.000    1.600    0.000    0.533 
#    0.000    1.333    0.000    4.800    0.000    0.000 
#    0.000    0.000    0.000    0.000    0.000    0.000 
#
# Total GULP energy -334114.640977 kJ/mol
# GULP energy per Si atom -5568.577350 kJ/mol
# Density = 2.005914 g / cm^3
# Si number density = 20.104898 Si / 1000 Ang^3
#
#
#
# Elastic Constant Matrix: (Units=GPa)
#
#
# Indices 1 2 3 4 5 6 
#
# 1 38.8360 26.5738 11.5845 0.0000 0.0000 0.0000
# 2 26.5738 38.8360 11.5845 0.0000 0.0000 0.0000
# 3 11.5845 11.5845 80.9935 0.0000 0.0000 0.0000
# 4 0.0000 0.0000 0.0000 10.0985 0.0000 0.0000
# 5 0.0000 0.0000 0.0000 0.0000 10.0985 0.0000
# 6 0.0000 0.0000 0.0000 0.0000 0.0000 35.1749
#
#
#
# Elastic Compliance Matrix: (Units=1/GPa)
#
#
# Indices 1 2 3 4 5 6 
#
# 1 0.048828 -0.032724 -0.002303 0.000000 0.000000 0.000000
# 2 -0.032724 0.048828 -0.002303 0.000000 0.000000 0.000000
# 3 -0.002303 -0.002303 0.013006 0.000000 0.000000 0.000000
# 4 0.000000 0.000000 0.000000 0.099024 0.000000 0.000000
# 5 0.000000 0.000000 0.000000 0.000000 0.099024 0.000000
# 6 0.000000 0.000000 0.000000 0.000000 0.000000 0.028429
#
#
# Mechanical properties :
#
#
# Convention : Reuss Voigt Hill
#
# Bulk Modulus (GPa) = 27.77755 28.68347 28.23051
# Shear Modulus (GPa) = 11.79802 18.33591 15.06697
#
# Velocity S-wave (km/s) = 2.42507 3.02323 2.74052
# Velocity P-wave (km/s) = 4.65699 5.14630 4.90775
#
# Compressibility (1/GPa) = 0.03600029
#
# Stress axis : x y z
#
# Youngs Moduli (GPa) = 20.48013 20.48013 76.89016
#
# Poissons Ratio (x) = 0.67019 0.17711
# Poissons Ratio (y) = 0.67019 0.17711
# Poissons Ratio (z) = 0.04717 0.04717
#
# Static dielectric constant tensor:
#      x y z
#    x 1.652800 0.000000 0.000000 
#    y 0.000000 1.652800 0.000000 
#    z 0.000000 0.000000 1.714070 
# 
# From -- ./inp_files/5448.got.cif
#   From: 2010.05.17/outbox.cif.g08.bks.cpg/sg128_3_cif.got.tgz:5448.got - 2010.05.20 12:07:25.
