data_PCOD9565921
_publ_section_title
;
Structure prediction by ZEFSAII (Michael W. Deem and Ramdas Pophale) SiO2 
 PCOD9565921
Probable space group: P 4/N C C
;
_chemical_formula_sum "Si O2"
_cell_formula_units_Z 96
_cell_length_a 14.648050
_cell_length_b 14.648050
_cell_length_c 19.861190
_cell_angle_alpha 90.000000
_cell_angle_beta 90.000000
_cell_angle_gamma 90.000000
_cell_volume 4261.523557
_symmetry_space_group_name_H-M "P 4/N C C"
_symmetry_group_IT_number 130
_symmetry_cell_setting 'tetragonal'
loop_
_space_group_symop_operation_xyz
x,y,z
1/2-y,x,z
1/2-x,1/2-y,z
y,1/2-x,z
1/2+x,-y,1/2-z
-x,1/2+y,1/2-z
1/2+y,1/2+x,1/2-z
-y,-x,1/2-z
-x,-y,-z
1/2+y,-x,-z
1/2+x,1/2+y,-z
-y,1/2+x,-z
1/2-x,y,1/2+z
x,1/2-y,1/2+z
1/2-y,1/2-x,1/2+z
y,x,1/2+z
loop_
_atom_site_type_symbol
_atom_site_label
_atom_site_fract_x
_atom_site_fract_y
_atom_site_fract_z
Si Si1 0.065921 0.702301 0.210900
Si Si2 0.892215 0.945876 0.400187
Si Si3 0.661248 0.195878 0.413110
Si Si4 0.975510 0.793379 0.035332
Si Si5 0.456696 0.397824 0.394985
Si Si6 0.511284 0.288677 0.661888
O O1 0.137855 0.637855 0.250000
O O2 0.116380 0.745179 0.146853
O O3 0.985153 0.641955 0.177769
O O4 0.034404 0.784797 0.259216
O O5 0.835127 0.930362 0.468767
O O6 0.934682 0.857168 0.365122
O O7 0.816269 0.986812 0.351373
O O8 0.971973 0.020880 0.411672
O O9 0.750000 0.250000 0.432477
O O10 0.583846 0.188669 0.469614
O O11 0.686235 0.098935 0.382287
O O12 0.963221 0.687469 0.052982
O O13 0.938232 0.855621 0.096581
#
# Coordination Sequence:
#
# PCOD9565921 Si02
#       6
#    16  16  16  16  16  16
#     4  11  22  43  71 104 143 183 251 311 372 455
#     4  12  26  46  71 106 149 198 248 310 382 449
#     4  11  22  41  69 106 140 191 243 314 382 428
#     4  11  25  44  72 102 150 193 253 305 371 465
#     4  11  24  46  69 107 142 197 248 309 381 441
#     4  12  25  43  70 103 146 195 244 307 377 454
#
# _framework density 22.527156000000002
#
# number of rings (size 3 to 8) (size 9 to 14) (size 15 to 20)
#    0.000    0.667    5.000    3.000    2.333    3.333 
#    3.000    1.667    0.000    4.000    0.000    0.000 
#    0.000    0.000    0.000    0.000    0.000    0.000 
#
# Total GULP energy -537184.432087 kJ/mol
# GULP energy per Si atom -5595.671168 kJ/mol
# Density = 2.247588 g / cm^3
# Si number density = 22.527156 Si / 1000 Ang^3
#
#
#
# Elastic Constant Matrix: (Units=GPa)
#
#
# Indices 1 2 3 4 5 6 
#
# 1 55.7402 63.1751 13.4163 0.0000 0.0000 0.0000
# 2 63.1751 55.7402 13.4163 0.0000 0.0000 0.0000
# 3 13.4163 13.4163 91.4823 0.0000 0.0000 0.0000
# 4 0.0000 0.0000 0.0000 25.1113 0.0000 0.0000
# 5 0.0000 0.0000 0.0000 0.0000 25.1113 0.0000
# 6 0.0000 0.0000 0.0000 0.0000 0.0000 44.3962
#
#
#
# Elastic Compliance Matrix: (Units=1/GPa)
#
#
# Indices 1 2 3 4 5 6 
#
# 1 -0.062902 0.071599 -0.001275 0.000000 0.000000 0.000000
# 2 0.071599 -0.062902 -0.001275 0.000000 0.000000 0.000000
# 3 -0.001275 -0.001275 0.011305 0.000000 0.000000 0.000000
# 4 0.000000 0.000000 0.000000 0.039823 0.000000 0.000000
# 5 0.000000 0.000000 0.000000 0.000000 0.039823 0.000000
# 6 0.000000 0.000000 0.000000 0.000000 0.000000 0.022524
#
#
# Mechanical properties :
#
#
# Convention : Reuss Voigt Hill
#
# Bulk Modulus (GPa) = 42.37722 42.55312 42.46517
# Shear Modulus (GPa) = -35.07295 26.45411 -4.30942
#
# Velocity S-wave (km/s) = -3.95006 3.43055 -1.38461
# Velocity P-wave (km/s) = 1.39697 5.88407 4.04171
#
# Compressibility (1/GPa) = 0.02359758
#
# Stress axis : x y z
#
# Youngs Moduli (GPa) = -15.89772 -15.89772 88.45503
#
# Poissons Ratio (x) = 1.13826 0.11282
# Poissons Ratio (y) = 1.13826 0.11282
# Poissons Ratio (z) = -0.02028 -0.02028
#
# Static dielectric constant tensor:
#      x y z
#    x 1.838050 0.000000 0.000000 
#    y 0.000000 1.838050 0.000000 
#    z 0.000000 0.000000 1.931020 
# 
# From -- ./inp_files/3782.got.cif
#   From: 2010.05.17/outbox.cif.g08.bks.cpg/sg130_2_cif.got.tgz:3782.got - 2010.05.20 12:17:35.
