data_PCOD9565209
_publ_section_title
;
Structure prediction by ZEFSAII (Michael W. Deem and Ramdas Pophale) SiO2 
 PCOD9565209
Probable space group: P 4/N M M
;
_chemical_formula_sum "Si O2"
_cell_formula_units_Z 72
_cell_length_a 13.683953
_cell_length_b 13.683953
_cell_length_c 23.584012
_cell_angle_alpha 90.000000
_cell_angle_beta 90.000000
_cell_angle_gamma 90.000000
_cell_volume 4416.119683
_symmetry_space_group_name_H-M "P 4/N M M"
_symmetry_group_IT_number 129
_symmetry_cell_setting 'tetragonal'
loop_
_space_group_symop_operation_xyz
x,y,z
1/2-y,x,z
1/2-x,1/2-y,z
y,1/2-x,z
1/2+x,-y,-z
-x,1/2+y,-z
1/2+y,1/2+x,-z
-y,-x,-z
-x,-y,-z
1/2+y,-x,-z
1/2+x,1/2+y,-z
-y,1/2+x,-z
1/2-x,y,z
x,1/2-y,z
1/2-y,1/2-x,z
y,x,z
loop_
_atom_site_type_symbol
_atom_site_label
_atom_site_fract_x
_atom_site_fract_y
_atom_site_fract_z
Si Si1 0.865992 0.134009 0.000000
Si Si2 0.133331 0.973530 0.654980
Si Si3 0.366745 0.978360 0.113638
Si Si4 0.633429 0.470815 0.552568
Si Si5 0.635969 0.134118 0.772252
O O1 0.897511 0.079361 0.942982
O O2 0.750000 0.118701 0.007589
O O3 0.250000 0.982720 0.647164
O O4 0.087158 0.900122 0.608853
O O5 0.114052 0.929186 0.717299
O O6 0.075394 0.075394 0.648572
O O7 0.250000 0.984148 0.112993
O O8 0.394900 0.921990 0.171130
O O9 0.417355 0.082646 0.113559
O O10 0.592940 0.407061 0.500000
O O11 0.750000 0.483344 0.549960
O O12 0.572853 0.572853 0.551501
O O13 0.750000 0.109998 0.760143
O O14 0.631704 0.250000 0.783563
#
# Coordination Sequence:
#
# PCOD9565209 Si02
#       5
#     8  16  16  16  16
#     4   9  17  30  48  68  87 109 144 190 234 271
#     4  10  20  33  50  73 100 130 164 201 241 286
#     4  10  19  30  45  65  91 121 150 183 224 272
#     4  10  21  36  54  77 103 131 165 203 243 288
#     4   9  17  30  49  71  92 117 153 196 239 279
#
# _framework density 16.303906000000001
#
# number of rings (size 3 to 8) (size 9 to 14) (size 15 to 20)
#    0.000    2.333    0.000    3.000    0.000    5.778 
#    0.000    0.000    0.000    4.000    0.000    3.111 
#    0.000   16.000    0.000    0.000    0.000    0.000 
#
# Total GULP energy -401460.668922 kJ/mol
# GULP energy per Si atom -5575.842624 kJ/mol
# Density = 1.626680 g / cm^3
# Si number density = 16.303906 Si / 1000 Ang^3
#
#
#
# Elastic Constant Matrix: (Units=GPa)
#
#
# Indices 1 2 3 4 5 6 
#
# 1 82.1195 63.8170 54.3227 0.0000 0.0000 0.0000
# 2 63.8170 82.1197 54.3220 0.0000 0.0000 0.0000
# 3 54.3227 54.3220 124.6564 0.0000 0.0000 0.0000
# 4 0.0000 0.0000 0.0000 18.6253 0.0000 0.0000
# 5 0.0000 0.0000 0.0000 0.0000 18.6255 0.0000
# 6 0.0000 0.0000 0.0000 0.0000 0.0000 20.9154
#
#
#
# Elastic Compliance Matrix: (Units=1/GPa)
#
#
# Indices 1 2 3 4 5 6 
#
# 1 0.032390 -0.022247 -0.004420 0.000000 0.000000 0.000000
# 2 -0.022247 0.032390 -0.004420 0.000000 0.000000 0.000000
# 3 -0.004420 -0.004420 0.011874 0.000000 0.000000 0.000000
# 4 0.000000 0.000000 0.000000 0.053690 0.000000 0.000000
# 5 0.000000 0.000000 0.000000 0.000000 0.053690 0.000000
# 6 0.000000 0.000000 0.000000 0.000000 0.000000 0.047812
#
#
# Mechanical properties :
#
#
# Convention : Reuss Voigt Hill
#
# Bulk Modulus (GPa) = 69.06101 70.42433 69.74267
# Shear Modulus (GPa) = 16.73096 19.39551 18.06324
#
# Velocity S-wave (km/s) = 3.20690 3.45283 3.33214
# Velocity P-wave (km/s) = 7.49418 7.69315 7.59432
#
# Compressibility (1/GPa) = 0.01447995
#
# Stress axis : x y z
#
# Youngs Moduli (GPa) = 30.87353 30.87393 84.21541
#
# Poissons Ratio (x) = 0.68686 0.37225
# Poissons Ratio (y) = 0.68685 0.37221
# Poissons Ratio (z) = 0.13647 0.13645
#
# Static dielectric constant tensor:
#      x y z
#    x 1.522870 0.000000 0.000000 
#    y 0.000000 1.522870 0.000000 
#    z 0.000000 0.000000 1.550180 
# 
# From -- ./inp_files/7395.got.cif
#   From: 2010.05.17/outbox.cif.g08.bks.cpg/sg129_4_cif.got.tgz:7395.got - 2010.05.20 12:12:06.
