data_PCOD9565823
_publ_section_title
;
Structure prediction by ZEFSAII (Michael W. Deem and Ramdas Pophale) SiO2 
 PCOD9565823
Probable space group: P 4/N C C
;
_chemical_formula_sum "Si O2"
_cell_formula_units_Z 108
_cell_length_a 14.311462
_cell_length_b 14.311462
_cell_length_c 24.877433
_cell_angle_alpha 90.000000
_cell_angle_beta 90.000000
_cell_angle_gamma 90.000000
_cell_volume 5095.344693
_symmetry_space_group_name_H-M "P 4/N C C"
_symmetry_group_IT_number 130
_symmetry_cell_setting 'tetragonal'
loop_
_space_group_symop_operation_xyz
x,y,z
1/2-y,x,z
1/2-x,1/2-y,z
y,1/2-x,z
1/2+x,-y,1/2-z
-x,1/2+y,1/2-z
1/2+y,1/2+x,1/2-z
-y,-x,1/2-z
-x,-y,-z
1/2+y,-x,-z
1/2+x,1/2+y,-z
-y,1/2+x,-z
1/2-x,y,1/2+z
x,1/2-y,1/2+z
1/2-y,1/2-x,1/2+z
y,x,1/2+z
loop_
_atom_site_type_symbol
_atom_site_label
_atom_site_fract_x
_atom_site_fract_y
_atom_site_fract_z
Si Si1 0.584966 0.373123 0.093985
Si Si2 0.586643 0.905370 0.335247
Si Si3 0.420057 0.579944 0.750000
Si Si4 0.793812 0.899139 0.591811
Si Si5 0.548329 0.095153 0.477369
Si Si6 0.250000 0.250000 0.673799
Si Si7 0.094067 0.831654 0.371012
Si Si8 0.737027 0.454186 0.164616
O O1 0.478498 0.395503 0.111266
O O2 0.608886 0.277347 0.123352
O O3 0.659030 0.446402 0.117217
O O4 0.593359 0.362361 0.030657
O O5 0.508185 0.920068 0.289839
O O6 0.655368 0.818238 0.327670
O O7 0.645791 0.999824 0.339448
O O8 0.323729 0.566006 0.782866
O O9 0.690078 0.859805 0.584950
O O10 0.834216 0.973865 0.549592
O O11 0.790165 0.948338 0.650962
O O12 0.622937 0.080142 0.430158
O O13 0.500000 0.000000 0.500000
O O14 0.182910 0.878490 0.343628
#
# Coordination Sequence:
#
# PCOD9565823 Si02
#       8
#    16  16   8  16  16   4  16  16
#     4  11  23  42  64  97 142 185 241 288 347 434
#     4  11  24  46  71 103 142 183 240 293 376 425
#     4  10  26  48  77 106 137 194 238 310 372 457
#     4  10  23  42  64 101 144 189 239 304 366 438
#     4  11  23  37  67  98 143 191 235 287 365 428
#     4  12  24  48  72 104 140 182 224 308 352 448
#     4  11  24  42  68 100 137 190 228 306 352 433
#     4  10  24  46  69  99 141 182 242 301 369 435
#
# _framework density 21.195817999999999
#
# number of rings (size 3 to 8) (size 9 to 14) (size 15 to 20)
#    0.000    1.333    2.963    1.333   12.444    1.185 
#    0.000    2.963    0.000    0.000    0.000    0.000 
#    0.000    0.000    0.000    0.000    0.000    0.000 
#
# Total GULP energy -602015.526535 kJ/mol
# GULP energy per Si atom -5574.217838 kJ/mol
# Density = 2.114758 g / cm^3
# Si number density = 21.195818 Si / 1000 Ang^3
#
#
#
# Elastic Constant Matrix: (Units=GPa)
#
#
# Indices 1 2 3 4 5 6 
#
# 1 93.9268 20.2179 17.9519 0.0000 0.0000 0.0000
# 2 20.2179 93.9264 17.9511 0.0000 0.0000 0.0000
# 3 17.9519 17.9511 88.0395 0.0000 0.0000 0.0000
# 4 0.0000 0.0000 0.0000 17.9631 0.0000 0.0000
# 5 0.0000 0.0000 0.0000 0.0000 17.9628 0.0000
# 6 0.0000 0.0000 0.0000 0.0000 0.0000 34.4166
#
#
#
# Elastic Compliance Matrix: (Units=1/GPa)
#
#
# Indices 1 2 3 4 5 6 
#
# 1 0.011464 -0.002103 -0.001909 0.000000 0.000000 0.000000
# 2 -0.002103 0.011464 -0.001909 0.000000 0.000000 0.000000
# 3 -0.001909 -0.001909 0.012137 0.000000 0.000000 0.000000
# 4 0.000000 0.000000 0.000000 0.055670 0.000000 0.000000
# 5 0.000000 0.000000 0.000000 0.000000 0.055671 0.000000
# 6 0.000000 0.000000 0.000000 0.000000 0.000000 0.029056
#
#
# Mechanical properties :
#
#
# Convention : Reuss Voigt Hill
#
# Bulk Modulus (GPa) = 43.05844 43.12608 43.09226
# Shear Modulus (GPa) = 25.63534 28.71996 27.17765
#
# Velocity S-wave (km/s) = 3.48149 3.68500 3.58469
# Velocity P-wave (km/s) = 6.04316 6.20454 6.12438
#
# Compressibility (1/GPa) = 0.02322425
#
# Stress axis : x y z
#
# Youngs Moduli (GPa) = 87.22914 87.22907 82.39309
#
# Poissons Ratio (x) = 0.18343 0.15727
# Poissons Ratio (y) = 0.18343 0.15726
# Poissons Ratio (z) = 0.16651 0.16650
#
# Static dielectric constant tensor:
#      x y z
#    x 1.793540 0.000000 0.000000 
#    y 0.000000 1.793580 0.000000 
#    z 0.000000 0.000000 1.750740 
# 
# From -- ./inp_files/4325.got.cif
#   From: 2010.05.17/outbox.cif.g08.bks.cpg/sg130_3_cif.got.tgz:4325.got - 2010.05.20 12:17:35.
