data_PCOD9565245
_publ_section_title
;
Structure prediction by ZEFSAII (Michael W. Deem and Ramdas Pophale) SiO2 
 PCOD9565245
Probable space group: P 4/N M M
;
_chemical_formula_sum "Si O2"
_cell_formula_units_Z 128
_cell_length_a 24.185543
_cell_length_b 24.185543
_cell_length_c 13.125693
_cell_angle_alpha 90.000000
_cell_angle_beta 90.000000
_cell_angle_gamma 90.000000
_cell_volume 7677.749298
_symmetry_space_group_name_H-M "P 4/N M M"
_symmetry_group_IT_number 129
_symmetry_cell_setting 'tetragonal'
loop_
_space_group_symop_operation_xyz
x,y,z
1/2-y,x,z
1/2-x,1/2-y,z
y,1/2-x,z
1/2+x,-y,-z
-x,1/2+y,-z
1/2+y,1/2+x,-z
-y,-x,-z
-x,-y,-z
1/2+y,-x,-z
1/2+x,1/2+y,-z
-y,1/2+x,-z
1/2-x,y,z
x,1/2-y,z
1/2-y,1/2-x,z
y,x,z
loop_
_atom_site_type_symbol
_atom_site_label
_atom_site_fract_x
_atom_site_fract_y
_atom_site_fract_z
Si Si1 0.814994 0.595245 0.243461
Si Si2 0.536568 0.631394 0.646105
Si Si3 0.186346 0.812066 0.876479
Si Si4 0.030406 0.315929 0.957562
Si Si5 0.815478 0.591307 0.835670
Si Si6 0.877517 0.422162 0.105093
Si Si7 0.627349 0.532402 0.417850
Si Si8 0.948702 0.457112 0.295187
O O1 0.750000 0.605577 0.240718
O O2 0.849576 0.650425 0.263236
O O3 0.833501 0.569809 0.135401
O O4 0.830152 0.551537 0.331454
O O5 0.585041 0.585041 0.644445
O O6 0.555956 0.673420 0.733232
O O7 0.529664 0.652296 0.530679
O O8 0.481370 0.598128 0.675239
O O9 0.250000 0.818363 0.841777
O O10 0.166837 0.750000 0.846017
O O11 0.150016 0.865759 0.851409
O O12 0.187732 0.812269 0.000000
O O13 0.031193 0.250000 0.960339
O O14 0.968946 0.334268 0.928658
O O15 0.054586 0.334149 0.066661
O O16 0.750000 0.603990 0.844860
O O17 0.853856 0.646145 0.832889
O O18 0.917332 0.447602 0.189749
O O19 0.907856 0.407856 0.000000
O O20 0.580173 0.580173 0.420318
O O21 0.594886 0.478027 0.379991
O O22 0.994289 0.505712 0.284955
#
# Coordination Sequence:
#
# PCOD9565245 Si02
#       8
#    16  16  16  16  16  16  16  16
#     4  10  20  34  53  76 103 138 178 222 272 323
#     4   9  18  33  52  73  97 128 169 212 261 320
#     4   8  15  29  47  66  92 128 169 210 250 299
#     4  10  20  34  50  71 104 141 176 213 259 319
#     4  10  21  36  54  75 102 139 181 228 280 332
#     4  11  20  29  47  75 106 139 172 211 260 310
#     4   9  17  32  53  73  97 130 168 213 264 319
#     4  10  19  31  47  72 102 134 172 207 251 313
#
# _framework density 16.671552999999999
#
# number of rings (size 3 to 8) (size 9 to 14) (size 15 to 20)
#    0.000    2.375    1.250    2.250    0.000    3.500 
#    0.000    0.625    0.000    2.250    0.000    3.500 
#    0.000    0.000    0.000    5.500    0.000    3.125 
#
# Total GULP energy -712983.650563 kJ/mol
# GULP energy per Si atom -5570.184770 kJ/mol
# Density = 1.663361 g / cm^3
# Si number density = 16.671553 Si / 1000 Ang^3
#
#
#
# Elastic Constant Matrix: (Units=GPa)
#
#
# Indices 1 2 3 4 5 6 
#
# 1 57.9211 34.1190 28.4474 0.0000 0.0000 0.0000
# 2 34.1190 57.9211 28.4475 0.0000 0.0000 0.0000
# 3 28.4474 28.4475 112.0686 0.0000 0.0000 0.0000
# 4 0.0000 0.0000 0.0000 14.5676 0.0000 0.0000
# 5 0.0000 0.0000 0.0000 0.0000 14.5674 0.0000
# 6 0.0000 0.0000 0.0000 0.0000 0.0000 21.0523
#
#
#
# Elastic Compliance Matrix: (Units=1/GPa)
#
#
# Indices 1 2 3 4 5 6 
#
# 1 0.027450 -0.014563 -0.003271 0.000000 0.000000 0.000000
# 2 -0.014563 0.027450 -0.003271 0.000000 0.000000 0.000000
# 3 -0.003271 -0.003271 0.010584 0.000000 0.000000 0.000000
# 4 0.000000 0.000000 0.000000 0.068646 0.000000 0.000000
# 5 0.000000 0.000000 0.000000 0.000000 0.068646 0.000000
# 6 0.000000 0.000000 0.000000 0.000000 0.000000 0.047501
#
#
# Mechanical properties :
#
#
# Convention : Reuss Voigt Hill
#
# Bulk Modulus (GPa) = 42.96852 45.54874 44.25863
# Shear Modulus (GPa) = 16.65307 19.16393 17.90850
#
# Velocity S-wave (km/s) = 3.16395 3.39410 3.28105
# Velocity P-wave (km/s) = 6.25915 6.53762 6.39990
#
# Compressibility (1/GPa) = 0.02327285
#
# Stress axis : x y z
#
# Youngs Moduli (GPa) = 36.42989 36.42988 94.48371
#
# Poissons Ratio (x) = 0.53053 0.30908
# Poissons Ratio (y) = 0.53053 0.30908
# Poissons Ratio (z) = 0.11917 0.11917
#
# Static dielectric constant tensor:
#      x y z
#    x 1.565360 0.000000 0.000000 
#    y 0.000000 1.565360 0.000000 
#    z 0.000000 0.000000 1.568210 
# 
# From -- ./inp_files/4185.got.cif
#   From: 2010.05.17/outbox.cif.g08.bks.cpg/sg129_3_cif.got.tgz:4185.got - 2010.05.20 12:12:06.
