data_PCOD9565281
_publ_section_title
;
Structure prediction by ZEFSAII (Michael W. Deem and Ramdas Pophale) SiO2 
 PCOD9565281
Probable space group: P 4/N M M
;
_chemical_formula_sum "Si O2"
_cell_formula_units_Z 128
_cell_length_a 21.628214
_cell_length_b 21.628214
_cell_length_c 17.457707
_cell_angle_alpha 90.000000
_cell_angle_beta 90.000000
_cell_angle_gamma 90.000000
_cell_volume 8166.359910
_symmetry_space_group_name_H-M "P 4/N M M"
_symmetry_group_IT_number 129
_symmetry_cell_setting 'tetragonal'
loop_
_space_group_symop_operation_xyz
x,y,z
1/2-y,x,z
1/2-x,1/2-y,z
y,1/2-x,z
1/2+x,-y,-z
-x,1/2+y,-z
1/2+y,1/2+x,-z
-y,-x,-z
-x,-y,-z
1/2+y,-x,-z
1/2+x,1/2+y,-z
-y,1/2+x,-z
1/2-x,y,z
x,1/2-y,z
1/2-y,1/2-x,z
y,x,z
loop_
_atom_site_type_symbol
_atom_site_label
_atom_site_fract_x
_atom_site_fract_y
_atom_site_fract_z
Si Si1 0.494070 0.597217 0.287950
Si Si2 0.503281 0.898011 0.009184
Si Si3 0.923750 0.678100 0.581547
Si Si4 0.180445 0.547646 0.853229
Si Si5 0.075061 0.177241 0.599093
Si Si6 0.656239 0.181141 0.089727
Si Si7 0.003083 0.106932 0.292708
Si Si8 0.012025 0.678973 0.865976
O O1 0.548269 0.548269 0.267734
O O2 0.472644 0.636069 0.215012
O O3 0.522754 0.642676 0.351493
O O4 0.435457 0.555905 0.312817
O O5 0.560750 0.939251 0.036454
O O6 0.519148 0.865182 0.929010
O O7 0.481855 0.847061 0.069586
O O8 0.446023 0.946023 0.000000
O O9 0.914738 0.750000 0.599040
O O10 0.861523 0.638478 0.593986
O O11 0.939467 0.672290 0.491507
O O12 0.975186 0.648661 0.636461
O O13 0.250000 0.526367 0.839507
O O14 0.180635 0.621733 0.865121
O O15 0.080661 0.250000 0.618056
O O16 0.138663 0.138663 0.611784
O O17 0.678350 0.250000 0.111297
O O18 0.582922 0.180475 0.104913
O O19 0.670821 0.170821 0.000000
O O20 0.058880 0.058880 0.275966
O O21 0.991241 0.147877 0.217358
O O22 0.989439 0.750000 0.864674
#
# Coordination Sequence:
#
# PCOD9565281 Si02
#       8
#    16  16  16  16  16  16  16  16
#     4  10  20  34  50  71  99 129 162 202 250 293
#     4  11  20  32  48  67  93 123 157 196 242 290
#     4   9  18  32  51  76 103 131 163 200 246 300
#     4  12  21  33  49  69  95 126 167 203 242 291
#     4   9  18  33  52  75 102 130 162 201 248 301
#     4  11  21  33  47  66  95 126 161 201 242 288
#     4  10  19  32  50  72  99 129 162 199 243 291
#     4  11  19  31  48  68  95 125 160 197 236 284
#
# _framework density 15.674058
#
# number of rings (size 3 to 8) (size 9 to 14) (size 15 to 20)
#    0.000    1.625    3.750    2.250    0.000    3.625 
#    0.000    3.750    0.000    0.000    0.000    0.000 
#    0.000   19.000    0.000    5.750    0.000    0.250 
#
# Total GULP energy -713808.336633 kJ/mol
# GULP energy per Si atom -5576.627630 kJ/mol
# Density = 1.563838 g / cm^3
# Si number density = 15.674058 Si / 1000 Ang^3
#
#
#
# Elastic Constant Matrix: (Units=GPa)
#
#
# Indices 1 2 3 4 5 6 
#
# 1 95.6385 47.7541 53.2568 0.0000 0.0000 0.0000
# 2 47.7541 95.6385 53.2568 0.0000 0.0000 0.0000
# 3 53.2568 53.2568 82.4088 0.0000 0.0000 0.0000
# 4 0.0000 0.0000 0.0000 18.3594 0.0000 0.0000
# 5 0.0000 0.0000 0.0000 0.0000 18.3594 0.0000
# 6 0.0000 0.0000 0.0000 0.0000 0.0000 9.3910
#
#
#
# Elastic Compliance Matrix: (Units=1/GPa)
#
#
# Indices 1 2 3 4 5 6 
#
# 1 0.017148 -0.003736 -0.008668 0.000000 0.000000 0.000000
# 2 -0.003736 0.017148 -0.008668 0.000000 0.000000 0.000000
# 3 -0.008668 -0.008668 0.023338 0.000000 0.000000 0.000000
# 4 0.000000 0.000000 0.000000 0.054468 0.000000 0.000000
# 5 0.000000 0.000000 0.000000 0.000000 0.054468 0.000000
# 6 0.000000 0.000000 0.000000 0.000000 0.000000 0.106485
#
#
# Mechanical properties :
#
#
# Convention : Reuss Voigt Hill
#
# Bulk Modulus (GPa) = 64.55188 64.69127 64.62158
# Shear Modulus (GPa) = 15.60739 17.18316 16.39527
#
# Velocity S-wave (km/s) = 3.15897 3.31460 3.23772
# Velocity P-wave (km/s) = 7.38774 7.48406 7.43606
#
# Compressibility (1/GPa) = 0.01549142
#
# Stress axis : x y z
#
# Youngs Moduli (GPa) = 58.31585 58.31585 42.84907
#
# Poissons Ratio (x) = 0.21785 0.37141
# Poissons Ratio (y) = 0.21785 0.37141
# Poissons Ratio (z) = 0.50547 0.50547
#
# Static dielectric constant tensor:
#      x y z
#    x 1.524790 0.000000 0.000000 
#    y 0.000000 1.524790 0.000000 
#    z 0.000000 0.000000 1.503670 
# 
# From -- ./inp_files/6123.got.cif
#   From: 2010.05.17/outbox.cif.g08.bks.cpg/sg129_4_cif.got.tgz:6123.got - 2010.05.20 12:12:06.
