data_PCOD9565035
_publ_section_title
;
Structure prediction by ZEFSAII (Michael W. Deem and Ramdas Pophale) SiO2 
 PCOD9565035
Probable space group: P 4/M N C
;
_chemical_formula_sum "Si O2"
_cell_formula_units_Z 40
_cell_length_a 9.617580
_cell_length_b 9.617580
_cell_length_c 16.218031
_cell_angle_alpha 90.000000
_cell_angle_beta 90.000000
_cell_angle_gamma 90.000000
_cell_volume 1500.132919
_symmetry_space_group_name_H-M "P 4/M N C"
_symmetry_group_IT_number 128
_symmetry_cell_setting 'tetragonal'
loop_
_space_group_symop_operation_xyz
x,y,z
-y,x,z
-x,-y,z
y,-x,z
1/2+x,1/2-y,1/2-z
1/2-x,1/2+y,1/2-z
1/2+y,1/2+x,1/2-z
1/2-y,1/2-x,1/2-z
-x,-y,-z
y,-x,-z
x,y,-z
-y,x,-z
1/2-x,1/2+y,1/2+z
1/2+x,1/2-y,1/2+z
1/2-y,1/2-x,1/2+z
1/2+y,1/2+x,1/2+z
loop_
_atom_site_type_symbol
_atom_site_label
_atom_site_fract_x
_atom_site_fract_y
_atom_site_fract_z
Si Si1 0.190496 0.880721 0.613260
Si Si2 0.299219 0.200782 0.750000
Si Si3 0.497750 0.165605 0.589985
O O1 0.186423 0.853517 0.710917
O O2 0.335658 0.807603 0.592428
O O3 0.041767 0.815879 0.587931
O O4 0.410009 0.189817 0.674420
O O5 0.447528 0.219410 0.500000
O O6 0.500000 0.000000 0.585786
#
# Coordination Sequence:
#
# PCOD9565035 Si02
#       3
#    16   8  16
#     4  11  24  41  71 110 147 192 247 306 367 439
#     4  12  23  46  77 108 146 202 249 312 372 451
#     4  11  25  46  73 107 151 201 250 304 377 453
#
# _framework density 26.664304000000001
#
# number of rings (size 3 to 8) (size 9 to 14) (size 15 to 20)
#    0.000    0.800    4.000    3.000    0.000    3.200 
#    0.000    2.000    0.000    0.000    0.000    8.400 
#    0.000    0.000    0.000    0.000    0.000    0.000 
#
# Total GULP energy -222790.195106 kJ/mol
# GULP energy per Si atom -5569.754878 kJ/mol
# Density = 2.660361 g / cm^3
# Si number density = 26.664304 Si / 1000 Ang^3
#
#
#
# Elastic Constant Matrix: (Units=GPa)
#
#
# Indices 1 2 3 4 5 6 
#
# 1 144.2404 39.3245 82.2341 0.0000 0.0000 0.0000
# 2 39.3245 144.2410 82.2346 0.0000 0.0000 0.0000
# 3 82.2341 82.2346 256.1882 0.0000 0.0000 0.0000
# 4 0.0000 0.0000 0.0000 -9.9673 0.0000 0.0000
# 5 0.0000 0.0000 0.0000 0.0000 -9.9676 0.0000
# 6 0.0000 0.0000 0.0000 0.0000 0.0000 36.0722
#
#
#
# Elastic Compliance Matrix: (Units=1/GPa)
#
#
# Indices 1 2 3 4 5 6 
#
# 1 0.008589 -0.000942 -0.002455 0.000000 0.000000 0.000000
# 2 -0.000942 0.008589 -0.002455 0.000000 0.000000 0.000000
# 3 -0.002455 -0.002455 0.005479 0.000000 0.000000 0.000000
# 4 0.000000 0.000000 0.000000 -0.100328 0.000000 0.000000
# 5 0.000000 0.000000 0.000000 0.000000 -0.100325 0.000000
# 6 0.000000 0.000000 0.000000 0.000000 0.000000 0.027722
#
#
# Mechanical properties :
#
#
# Convention : Reuss Voigt Hill
#
# Bulk Modulus (GPa) = 91.28578 105.80624 98.54601
# Shear Modulus (GPa) = -37.05938 25.95254 -5.55342
#
# Velocity S-wave (km/s) = -3.73211 3.12317 -1.44473
# Velocity P-wave (km/s) = 3.96711 7.26447 5.85280
#
# Compressibility (1/GPa) = 0.01095461
#
# Stress axis : x y z
#
# Youngs Moduli (GPa) = 116.42578 116.42595 182.50876
#
# Poissons Ratio (x) = 0.10970 0.44798
# Poissons Ratio (y) = 0.10970 0.44799
# Poissons Ratio (z) = 0.28578 0.28578
#
# Static dielectric constant tensor:
#      x y z
#    x 2.162560 0.000000 0.000000 
#    y 0.000000 2.162550 0.000000 
#    z 0.000000 0.000000 2.201690 
# 
# From -- ./inp_files/3263.got.cif
#   From: 2010.05.17/outbox.cif.g08.bks.cpg/sg128_2_cif.got.tgz:3263.got - 2010.05.20 12:07:25.
