data_PCOD9565402
_publ_section_title
;
Structure prediction by ZEFSAII (Michael W. Deem and Ramdas Pophale) SiO2 
 PCOD9565402
Probable space group: P 4/N M M
;
_chemical_formula_sum "Si O2"
_cell_formula_units_Z 128
_cell_length_a 20.445047
_cell_length_b 20.445047
_cell_length_c 18.443735
_cell_angle_alpha 90.000000
_cell_angle_beta 90.000000
_cell_angle_gamma 90.000000
_cell_volume 7709.480249
_symmetry_space_group_name_H-M "P 4/N M M"
_symmetry_group_IT_number 129
_symmetry_cell_setting 'tetragonal'
loop_
_space_group_symop_operation_xyz
x,y,z
1/2-y,x,z
1/2-x,1/2-y,z
y,1/2-x,z
1/2+x,-y,-z
-x,1/2+y,-z
1/2+y,1/2+x,-z
-y,-x,-z
-x,-y,-z
1/2+y,-x,-z
1/2+x,1/2+y,-z
-y,1/2+x,-z
1/2-x,y,z
x,1/2-y,z
1/2-y,1/2-x,z
y,x,z
loop_
_atom_site_type_symbol
_atom_site_label
_atom_site_fract_x
_atom_site_fract_y
_atom_site_fract_z
Si Si1 0.489356 0.600215 0.284996
Si Si2 0.501976 0.890222 0.999997
Si Si3 0.825192 0.565813 0.572957
Si Si4 0.173078 0.543147 0.856946
Si Si5 0.173140 0.063186 0.592875
Si Si6 0.828923 0.177673 0.085024
Si Si7 0.004653 0.116957 0.289838
Si Si8 0.940003 0.672194 0.857273
O O1 0.543493 0.543493 0.284978
O O2 0.491167 0.637039 0.208772
O O3 0.509158 0.647343 0.350939
O O4 0.419447 0.564686 0.290761
O O5 0.490143 0.841476 0.066147
O O6 0.565791 0.934210 0.014263
O O7 0.441975 0.941975 0.000000
O O8 0.515385 0.853383 0.924371
O O9 0.750000 0.585377 0.579256
O O10 0.871838 0.628163 0.582342
O O11 0.835895 0.541106 0.490783
O O12 0.842937 0.515903 0.636627
O O13 0.250000 0.544480 0.843309
O O14 0.148134 0.617955 0.866355
O O15 0.250000 0.076814 0.604078
O O16 0.127950 0.127950 0.602245
O O17 0.750000 0.180876 0.092877
O O18 0.855968 0.250000 0.099983
O O19 0.838493 0.161508 0.000000
O O20 0.059066 0.059066 0.290192
O O21 0.021557 0.157636 0.217679
O O22 0.926271 0.750000 0.863785
O O23 0.874426 0.625575 0.857173
#
# Coordination Sequence:
#
# PCOD9565402 Si02
#       8
#    16  16  16  16  16  16  16  16
#     4  10  20  34  49  66  93 127 163 202 242 281
#     4  10  20  34  50  68  94 128 165 203 243 286
#     4   9  17  30  49  74 103 131 159 193 236 289
#     4  11  20  30  48  70  91 119 158 201 243 287
#     4   9  18  32  51  75 101 128 157 193 239 291
#     4   8  15  28  43  60  85 113 140 177 228 283
#     4   9  18  32  49  69  95 128 163 198 236 280
#     4  10  20  34  52  74 102 133 164 201 243 291
#
# _framework density 16.602934999999999
#
# number of rings (size 3 to 8) (size 9 to 14) (size 15 to 20)
#    0.000    2.500    0.000    3.000    0.000    2.875 
#    0.000    8.125    0.000    2.250    0.000    0.000 
#    0.000    9.000    0.000    8.250    0.000    0.625 
#
# Total GULP energy -713306.887463 kJ/mol
# GULP energy per Si atom -5572.710058 kJ/mol
# Density = 1.656515 g / cm^3
# Si number density = 16.602935 Si / 1000 Ang^3
#
#
#
# Elastic Constant Matrix: (Units=GPa)
#
#
# Indices 1 2 3 4 5 6 
#
# 1 57.6125 35.0413 45.8342 0.0000 0.0000 0.0000
# 2 35.0413 57.6127 45.8340 0.0000 0.0000 0.0000
# 3 45.8342 45.8340 119.3490 0.0000 0.0000 0.0000
# 4 0.0000 0.0000 0.0000 22.1092 0.0000 0.0000
# 5 0.0000 0.0000 0.0000 0.0000 22.1093 0.0000
# 6 0.0000 0.0000 0.0000 0.0000 0.0000 13.6090
#
#
#
# Elastic Compliance Matrix: (Units=1/GPa)
#
#
# Indices 1 2 3 4 5 6 
#
# 1 0.030855 -0.013449 -0.006685 0.000000 0.000000 0.000000
# 2 -0.013449 0.030855 -0.006685 0.000000 0.000000 0.000000
# 3 -0.006685 -0.006685 0.013513 0.000000 0.000000 0.000000
# 4 0.000000 0.000000 0.000000 0.045230 0.000000 0.000000
# 5 0.000000 0.000000 0.000000 0.000000 0.045230 0.000000
# 6 0.000000 0.000000 0.000000 0.000000 0.000000 0.073481
#
#
# Mechanical properties :
#
#
# Convention : Reuss Voigt Hill
#
# Bulk Modulus (GPa) = 46.32365 54.22145 50.27255
# Shear Modulus (GPa) = 16.66688 18.75648 17.71168
#
# Velocity S-wave (km/s) = 3.17180 3.36476 3.26970
# Velocity P-wave (km/s) = 6.43235 6.91550 6.67830
#
# Compressibility (1/GPa) = 0.02158725
#
# Stress axis : x y z
#
# Youngs Moduli (GPa) = 32.40934 32.40957 74.00245
#
# Poissons Ratio (x) = 0.43587 0.49469
# Poissons Ratio (y) = 0.43587 0.49468
# Poissons Ratio (z) = 0.21665 0.21664
#
# Static dielectric constant tensor:
#      x y z
#    x 1.563070 0.000000 0.000000 
#    y 0.000000 1.563070 0.000000 
#    z 0.000000 0.000000 1.552810 
# 
# From -- ./inp_files/6124.got.cif
#   From: 2010.05.17/outbox.cif.g08.bks.cpg/sg129_4_cif.got.tgz:6124.got - 2010.05.20 12:12:06.
