data_PCOD9565343
_publ_section_title
;
Structure prediction by ZEFSAII (Michael W. Deem and Ramdas Pophale) SiO2 
 PCOD9565343
Probable space group: P 4/N M M
;
_chemical_formula_sum "Si O2"
_cell_formula_units_Z 80
_cell_length_a 13.822973
_cell_length_b 13.822973
_cell_length_c 26.061538
_cell_angle_alpha 90.000000
_cell_angle_beta 90.000000
_cell_angle_gamma 90.000000
_cell_volume 4979.697494
_symmetry_space_group_name_H-M "P 4/N M M"
_symmetry_group_IT_number 129
_symmetry_cell_setting 'tetragonal'
loop_
_space_group_symop_operation_xyz
x,y,z
1/2-y,x,z
1/2-x,1/2-y,z
y,1/2-x,z
1/2+x,-y,-z
-x,1/2+y,-z
1/2+y,1/2+x,-z
-y,-x,-z
-x,-y,-z
1/2+y,-x,-z
1/2+x,1/2+y,-z
-y,1/2+x,-z
1/2-x,y,z
x,1/2-y,z
1/2-y,1/2-x,z
y,x,z
loop_
_atom_site_type_symbol
_atom_site_label
_atom_site_fract_x
_atom_site_fract_y
_atom_site_fract_z
Si Si1 0.476318 0.864846 0.753323
Si Si2 0.138930 0.867459 0.056507
Si Si3 0.136778 0.863303 0.648458
Si Si4 0.523081 0.365561 0.841335
Si Si5 0.976932 0.364719 0.543845
O O1 0.488242 0.750000 0.759423
O O2 0.428928 0.883743 0.697649
O O3 0.404555 0.907263 0.796425
O O4 0.575750 0.924251 0.757669
O O5 0.250000 0.900706 0.064249
O O6 0.142221 0.750000 0.054535
O O7 0.072317 0.892978 0.104350
O O8 0.102685 0.897315 0.000000
O O9 0.250000 0.876866 0.662276
O O10 0.124474 0.750000 0.634671
O O11 0.115584 0.928495 0.599176
O O12 0.512991 0.250000 0.838779
O O13 0.422212 0.422212 0.836308
O O14 0.906803 0.406803 0.500000
O O15 0.988675 0.250000 0.538159
O O16 0.076831 0.423170 0.540015
#
# Coordination Sequence:
#
# PCOD9565343 Si02
#       5
#    16  16  16  16  16
#     4  10  20  33  50  72  97 125 157 193 234 280
#     4   8  14  26  45  68  92 117 148 189 233 275
#     4   9  17  30  50  74  97 123 157 195 232 273
#     4  10  20  32  47  68  93 123 159 197 237 280
#     4  10  20  33  50  72  98 128 162 200 240 282
#
# _framework density 16.065232999999999
#
# number of rings (size 3 to 8) (size 9 to 14) (size 15 to 20)
#    0.000    2.600    0.000    3.000    0.000    4.000 
#    0.000    0.000    0.000    0.000    0.000    5.600 
#    0.000    4.800    0.000    0.000    0.000    0.000 
#
# Total GULP energy -445930.847293 kJ/mol
# GULP energy per Si atom -5574.135591 kJ/mol
# Density = 1.602867 g / cm^3
# Si number density = 16.065233 Si / 1000 Ang^3
#
#
#
# Elastic Constant Matrix: (Units=GPa)
#
#
# Indices 1 2 3 4 5 6 
#
# 1 81.6424 77.7067 63.2012 0.0000 0.0000 0.0000
# 2 77.7067 81.6424 63.2012 0.0000 0.0000 0.0000
# 3 63.2012 63.2012 113.4054 0.0000 0.0000 0.0000
# 4 0.0000 0.0000 0.0000 15.0243 0.0000 0.0000
# 5 0.0000 0.0000 0.0000 0.0000 15.0243 0.0000
# 6 0.0000 0.0000 0.0000 0.0000 0.0000 11.2602
#
#
#
# Elastic Compliance Matrix: (Units=1/GPa)
#
#
# Indices 1 2 3 4 5 6 
#
# 1 0.132668 -0.121420 -0.006269 0.000000 0.000000 0.000000
# 2 -0.121420 0.132668 -0.006269 0.000000 0.000000 0.000000
# 3 -0.006269 -0.006269 0.015805 0.000000 0.000000 0.000000
# 4 0.000000 0.000000 0.000000 0.066559 0.000000 0.000000
# 5 0.000000 0.000000 0.000000 0.000000 0.066559 0.000000
# 6 0.000000 0.000000 0.000000 0.000000 0.000000 0.088808
#
#
# Mechanical properties :
#
#
# Convention : Reuss Voigt Hill
#
# Bulk Modulus (GPa) = 75.60464 76.10093 75.85279
# Shear Modulus (GPa) = 6.44838 13.10051 9.77445
#
# Velocity S-wave (km/s) = 2.00564 2.85872 2.46930
# Velocity P-wave (km/s) = 7.24753 7.63997 7.44633
#
# Compressibility (1/GPa) = 0.01322670
#
# Stress axis : x y z
#
# Youngs Moduli (GPa) = 7.53762 7.53762 63.27158
#
# Poissons Ratio (x) = 0.91522 0.39662
# Poissons Ratio (y) = 0.91522 0.39662
# Poissons Ratio (z) = 0.04725 0.04725
#
# Static dielectric constant tensor:
#      x y z
#    x 1.518330 0.000000 0.000000 
#    y 0.000000 1.518330 0.000000 
#    z 0.000000 0.000000 1.540500 
# 
# From -- ./inp_files/6923.got.cif
#   From: 2010.05.17/outbox.cif.g08.bks.cpg/sg129_4_cif.got.tgz:6923.got - 2010.05.20 12:12:06.
