data_PCOD9565953
_publ_section_title
;
Structure prediction by ZEFSAII (Michael W. Deem and Ramdas Pophale) SiO2 
 PCOD9565953
Probable space group: P 4/N C C
;
_chemical_formula_sum "Si O2"
_cell_formula_units_Z 48
_cell_length_a 15.650213
_cell_length_b 15.650213
_cell_length_c 8.505908
_cell_angle_alpha 90.000000
_cell_angle_beta 90.000000
_cell_angle_gamma 90.000000
_cell_volume 2083.344961
_symmetry_space_group_name_H-M "P 4/N C C"
_symmetry_group_IT_number 130
_symmetry_cell_setting 'tetragonal'
loop_
_space_group_symop_operation_xyz
x,y,z
1/2-y,x,z
1/2-x,1/2-y,z
y,1/2-x,z
1/2+x,-y,1/2-z
-x,1/2+y,1/2-z
1/2+y,1/2+x,1/2-z
-y,-x,1/2-z
-x,-y,-z
1/2+y,-x,-z
1/2+x,1/2+y,-z
-y,1/2+x,-z
1/2-x,y,1/2+z
x,1/2-y,1/2+z
1/2-y,1/2-x,1/2+z
y,x,1/2+z
loop_
_atom_site_type_symbol
_atom_site_label
_atom_site_fract_x
_atom_site_fract_y
_atom_site_fract_z
Si Si1 0.023512 0.343288 0.441300
Si Si2 0.660597 0.975130 0.682294
Si Si3 0.841390 0.341390 0.750000
Si Si4 0.651423 0.151423 0.250000
O O1 0.024558 0.341490 0.629049
O O2 0.083870 0.419631 0.384117
O O3 0.057146 0.251545 0.380004
O O4 0.930663 0.352373 0.361590
O O5 0.653207 0.075387 0.639885
O O6 0.746995 0.349367 0.825322
#
# Coordination Sequence:
#
# PCOD9565953 Si02
#       4
#    16  16   8   8
#     4  11  24  43  67  96 130 170 216 267 323 383
#     4  11  24  43  67  96 130 170 216 267 323 383
#     4   9  21  40  64  94 129 169 210 256 312 375
#     4   9  21  40  64  94 129 169 210 256 312 375
#
# _framework density 23.039873
#
# number of rings (size 3 to 8) (size 9 to 14) (size 15 to 20)
#    0.000    1.667    0.000    3.000    0.000   16.667 
#    0.000   16.667    0.000    0.000    0.000    0.000 
#    0.000    0.000    0.000    0.000    0.000    0.000 
#
# Total GULP energy -268575.086636 kJ/mol
# GULP energy per Si atom -5595.314305 kJ/mol
# Density = 2.298743 g / cm^3
# Si number density = 23.039873 Si / 1000 Ang^3
#
#
#
# Elastic Constant Matrix: (Units=GPa)
#
#
# Indices 1 2 3 4 5 6 
#
# 1 158.6438 106.3865 56.6762 0.0000 0.0000 0.0000
# 2 106.3865 158.6438 56.6762 0.0000 0.0000 0.0000
# 3 56.6762 56.6762 154.6639 0.0000 0.0000 0.0000
# 4 0.0000 0.0000 0.0000 27.9492 0.0000 0.0000
# 5 0.0000 0.0000 0.0000 0.0000 27.9492 0.0000
# 6 0.0000 0.0000 0.0000 0.0000 0.0000 54.4402
#
#
#
# Elastic Compliance Matrix: (Units=1/GPa)
#
#
# Indices 1 2 3 4 5 6 
#
# 1 0.011805 -0.007331 -0.001640 0.000000 0.000000 0.000000
# 2 -0.007331 0.011805 -0.001640 0.000000 0.000000 0.000000
# 3 -0.001640 -0.001640 0.007667 0.000000 0.000000 0.000000
# 4 0.000000 0.000000 0.000000 0.035779 0.000000 0.000000
# 5 0.000000 0.000000 0.000000 0.000000 0.035779 0.000000
# 6 0.000000 0.000000 0.000000 0.000000 0.000000 0.018369
#
#
# Mechanical properties :
#
#
# Convention : Reuss Voigt Hill
#
# Bulk Modulus (GPa) = 99.42735 101.26994 100.34864
# Shear Modulus (GPa) = 34.29877 38.88188 36.59032
#
# Velocity S-wave (km/s) = 3.86251 4.11249 3.98946
# Velocity P-wave (km/s) = 7.94608 8.16086 8.05419
#
# Compressibility (1/GPa) = 0.01005760
#
# Stress axis : x y z
#
# Youngs Moduli (GPa) = 84.70807 84.70807 130.42368
#
# Poissons Ratio (x) = 0.62098 0.21385
# Poissons Ratio (y) = 0.62098 0.21385
# Poissons Ratio (z) = 0.13889 0.13889
#
# Static dielectric constant tensor:
#      x y z
#    x 1.865730 0.000000 0.000000 
#    y 0.000000 1.865730 0.000000 
#    z 0.000000 0.000000 1.847860 
# 
# From -- ./inp_files/507.got.cif
#   From: 2010.05.17/outbox.cif.g08.bks.cpg/sg130_1_cif.got.tgz:507.got - 2010.05.20 12:17:35.
