data_PCOD9565411
_publ_section_title
;
Structure prediction by ZEFSAII (Michael W. Deem and Ramdas Pophale) SiO2 
 PCOD9565411
Probable space group: P 4/N M M
;
_chemical_formula_sum "Si O2"
_cell_formula_units_Z 128
_cell_length_a 17.940050
_cell_length_b 17.940050
_cell_length_c 21.736571
_cell_angle_alpha 90.000000
_cell_angle_beta 90.000000
_cell_angle_gamma 90.000000
_cell_volume 6995.815258
_symmetry_space_group_name_H-M "P 4/N M M"
_symmetry_group_IT_number 129
_symmetry_cell_setting 'tetragonal'
loop_
_space_group_symop_operation_xyz
x,y,z
1/2-y,x,z
1/2-x,1/2-y,z
y,1/2-x,z
1/2+x,-y,-z
-x,1/2+y,-z
1/2+y,1/2+x,-z
-y,-x,-z
-x,-y,-z
1/2+y,-x,-z
1/2+x,1/2+y,-z
-y,1/2+x,-z
1/2-x,y,z
x,1/2-y,z
1/2-y,1/2-x,z
y,x,z
loop_
_atom_site_type_symbol
_atom_site_label
_atom_site_fract_x
_atom_site_fract_y
_atom_site_fract_z
Si Si1 0.463255 0.161742 0.252024
Si Si2 0.169013 0.050069 0.965303
Si Si3 0.577689 0.046376 0.646731
Si Si4 0.552836 0.068558 0.156864
Si Si5 0.338214 0.036098 0.606577
Si Si6 0.903814 0.169983 0.049316
Si Si7 0.662861 0.048984 0.521116
Si Si8 0.456074 0.335514 0.816105
O O1 0.449265 0.250000 0.250179
O O2 0.388219 0.111782 0.262256
O O3 0.524617 0.140023 0.303750
O O4 0.501874 0.129133 0.190704
O O5 0.250000 0.084389 0.977886
O O6 0.103387 0.103387 0.984399
O O7 0.165739 0.040598 0.891254
O O8 0.163944 0.976154 0.005688
O O9 0.534589 0.125559 0.643052
O O10 0.614177 0.029180 0.580531
O O11 0.511479 0.988522 0.659237
O O12 0.593111 0.107475 0.100487
O O13 0.497692 0.002309 0.135813
O O14 0.613259 0.027241 0.200336
O O15 0.250000 0.047409 0.619656
O O16 0.391263 0.108738 0.616342
O O17 0.345378 0.009340 0.535132
O O18 0.902443 0.250000 0.080120
O O19 0.838791 0.161210 0.000000
O O20 0.627795 0.127795 0.500000
O O21 0.750000 0.054668 0.535877
O O22 0.457026 0.250000 0.794786
O O23 0.381789 0.381789 0.798571
#
# Coordination Sequence:
#
# PCOD9565411 Si02
#       8
#    16  16  16  16  16  16  16  16
#     4  10  21  37  57  81 106 135 171 209 251 295
#     4   9  17  28  44  67  92 118 147 181 226 280
#     4   9  17  31  51  72  98 135 178 219 255 301
#     4  10  20  34  54  75  99 132 169 205 242 295
#     4   9  17  29  47  73 104 137 175 218 265 314
#     4  11  21  32  48  69  94 124 159 201 246 293
#     4   9  16  26  43  69 100 135 173 214 260 309
#     4   9  17  30  49  73  99 126 157 195 241 292
#
# _framework density 18.296652000000002
#
# number of rings (size 3 to 8) (size 9 to 14) (size 15 to 20)
#    0.000    2.500    1.250    1.500    0.000    2.750 
#    0.000    1.875    0.000    3.000    0.000    3.500 
#    0.000    5.000    0.000    0.000    0.000    0.000 
#
# Total GULP energy -712728.929790 kJ/mol
# GULP energy per Si atom -5568.194764 kJ/mol
# Density = 1.825501 g / cm^3
# Si number density = 18.296652 Si / 1000 Ang^3
#
#
#
# Elastic Constant Matrix: (Units=GPa)
#
#
# Indices 1 2 3 4 5 6 
#
# 1 113.6918 51.3995 10.2205 0.0000 0.0000 0.0000
# 2 51.3995 113.6912 10.2205 0.0000 0.0000 0.0000
# 3 10.2205 10.2205 29.1907 0.0000 0.0000 0.0000
# 4 0.0000 0.0000 0.0000 16.4786 0.0000 0.0000
# 5 0.0000 0.0000 0.0000 0.0000 16.4791 0.0000
# 6 0.0000 0.0000 0.0000 0.0000 0.0000 13.6934
#
#
#
# Elastic Compliance Matrix: (Units=1/GPa)
#
#
# Indices 1 2 3 4 5 6 
#
# 1 0.011193 -0.004861 -0.002217 0.000000 0.000000 0.000000
# 2 -0.004861 0.011193 -0.002217 0.000000 0.000000 0.000000
# 3 -0.002217 -0.002217 0.035810 0.000000 0.000000 0.000000
# 4 0.000000 0.000000 0.000000 0.060685 0.000000 0.000000
# 5 0.000000 0.000000 0.000000 0.000000 0.060683 0.000000
# 6 0.000000 0.000000 0.000000 0.000000 0.000000 0.073028
#
#
# Mechanical properties :
#
#
# Convention : Reuss Voigt Hill
#
# Bulk Modulus (GPa) = 25.24886 44.47273 34.86080
# Shear Modulus (GPa) = 17.58198 21.64577 19.61388
#
# Velocity S-wave (km/s) = 3.10327 3.44327 3.27768
# Velocity P-wave (km/s) = 5.16430 6.33778 5.78089
#
# Compressibility (1/GPa) = 0.03960574
#
# Stress axis : x y z
#
# Youngs Moduli (GPa) = 89.34509 89.34460 27.92519
#
# Poissons Ratio (x) = 0.43429 0.06191
# Poissons Ratio (y) = 0.43429 0.06191
# Poissons Ratio (z) = 0.19807 0.19807
#
# Static dielectric constant tensor:
#      x y z
#    x 1.634780 0.000000 0.000000 
#    y 0.000000 1.634780 0.000000 
#    z 0.000000 0.000000 1.657260 
# 
# From -- ./inp_files/7291.got.cif
#   From: 2010.05.17/outbox.cif.g08.bks.cpg/sg129_4_cif.got.tgz:7291.got - 2010.05.20 12:12:06.
