data_PCOD9565683
_publ_section_title
;
Structure prediction by ZEFSAII (Michael W. Deem and Ramdas Pophale) SiO2 
 PCOD9565683
Probable space group: P 4/N C C
;
_chemical_formula_sum "Si O2"
_cell_formula_units_Z 112
_cell_length_a 15.325831
_cell_length_b 15.325831
_cell_length_c 22.471515
_cell_angle_alpha 90.000000
_cell_angle_beta 90.000000
_cell_angle_gamma 90.000000
_cell_volume 5278.134068
_symmetry_space_group_name_H-M "P 4/N C C"
_symmetry_group_IT_number 130
_symmetry_cell_setting 'tetragonal'
loop_
_space_group_symop_operation_xyz
x,y,z
1/2-y,x,z
1/2-x,1/2-y,z
y,1/2-x,z
1/2+x,-y,1/2-z
-x,1/2+y,1/2-z
1/2+y,1/2+x,1/2-z
-y,-x,1/2-z
-x,-y,-z
1/2+y,-x,-z
1/2+x,1/2+y,-z
-y,1/2+x,-z
1/2-x,y,1/2+z
x,1/2-y,1/2+z
1/2-y,1/2-x,1/2+z
y,x,1/2+z
loop_
_atom_site_type_symbol
_atom_site_label
_atom_site_fract_x
_atom_site_fract_y
_atom_site_fract_z
Si Si1 0.805273 0.349203 0.965911
Si Si2 0.517013 0.756026 0.264982
Si Si3 0.315788 0.116449 0.560446
Si Si4 0.919097 0.909047 0.318363
Si Si5 0.018830 0.895597 0.665748
Si Si6 0.408475 0.994500 0.468291
Si Si7 0.652071 0.277269 0.164693
O O1 0.753869 0.363996 0.904828
O O2 0.889579 0.405753 0.965876
O O3 0.850115 0.253800 0.975334
O O4 0.565449 0.817519 0.312974
O O5 0.557221 0.659868 0.266383
O O6 0.521498 0.821289 0.208548
O O7 0.418414 0.743420 0.288643
O O8 0.362817 0.212096 0.557923
O O9 0.356055 0.071488 0.620013
O O10 0.341036 0.050172 0.507505
O O11 0.970478 0.001643 0.315863
O O12 0.118770 0.861484 0.664129
O O13 0.977880 0.898685 0.600366
O O14 0.500000 0.000000 0.500000
O O15 0.750000 0.250000 0.178902
#
# Coordination Sequence:
#
# PCOD9565683 Si02
#       7
#    16  16  16  16  16  16  16
#     4  10  21  36  59  95 136 172 221 280 354 433
#     4  11  25  43  68  99 139 186 240 297 352 424
#     4  11  24  42  68 102 132 175 243 297 350 425
#     4  11  21  42  74  96 134 185 236 297 354 425
#     4  10  24  46  62 101 146 177 236 303 354 440
#     4  11  24  40  70  97 134 183 222 294 365 420
#     4  10  20  39  63  93 134 183 228 290 357 430
#
# _framework density 21.219619000000002
#
# number of rings (size 3 to 8) (size 9 to 14) (size 15 to 20)
#    0.000    1.429    4.286    1.714    4.000    1.429 
#    7.714    0.000    0.000    0.000    0.000    0.000 
#    0.000    0.000    0.000    0.000    0.000    0.000 
#
# Total GULP energy -623646.074364 kJ/mol
# GULP energy per Si atom -5568.268521 kJ/mol
# Density = 2.117132 g / cm^3
# Si number density = 21.219619 Si / 1000 Ang^3
#
#
#
# Elastic Constant Matrix: (Units=GPa)
#
#
# Indices 1 2 3 4 5 6 
#
# 1 -70.0424 165.9910 26.9238 0.0000 0.0000 0.0000
# 2 165.9910 -70.0424 26.9238 0.0000 0.0000 0.0000
# 3 26.9238 26.9238 97.7362 0.0000 0.0000 0.0000
# 4 0.0000 0.0000 0.0000 26.8126 0.0000 0.0000
# 5 0.0000 0.0000 0.0000 0.0000 26.8126 0.0000
# 6 0.0000 0.0000 0.0000 0.0000 0.0000 9.9359
#
#
#
# Elastic Compliance Matrix: (Units=1/GPa)
#
#
# Indices 1 2 3 4 5 6 
#
# 1 0.004046 0.008282 -0.003396 0.000000 0.000000 0.000000
# 2 0.008282 0.004046 -0.003396 0.000000 0.000000 0.000000
# 3 -0.003396 -0.003396 0.012103 0.000000 0.000000 0.000000
# 4 0.000000 0.000000 0.000000 0.037296 0.000000 0.000000
# 5 0.000000 0.000000 0.000000 0.000000 0.037296 0.000000
# 6 0.000000 0.000000 0.000000 0.000000 0.000000 0.100645
#
#
# Mechanical properties :
#
#
# Convention : Reuss Voigt Hill
#
# Bulk Modulus (GPa) = 43.15056 44.14763 43.64909
# Shear Modulus (GPa) = 24.97814 -4.76690 10.10562
#
# Velocity S-wave (km/s) = 3.43465 -1.50044 2.18466
# Velocity P-wave (km/s) = 6.00903 4.22475 5.19408
#
# Compressibility (1/GPa) = 0.02317467
#
# Stress axis : x y z
#
# Youngs Moduli (GPa) = 247.17326 247.17326 82.62623
#
# Poissons Ratio (x) = -2.04720 0.28061
# Poissons Ratio (y) = -2.04720 0.28061
# Poissons Ratio (z) = 0.83942 0.83942
#
# Static dielectric constant tensor:
#      x y z
#    x 1.844560 0.000000 0.000000 
#    y 0.000000 1.844560 0.000000 
#    z 0.000000 0.000000 1.829040 
# 
# From -- ./inp_files/4276.got.cif
#   From: 2010.05.17/outbox.cif.g08.bks.cpg/sg130_3_cif.got.tgz:4276.got - 2010.05.20 12:17:35.
