data_PCOD9565904
_publ_section_title
;
Structure prediction by ZEFSAII (Michael W. Deem and Ramdas Pophale) SiO2 
 PCOD9565904
Probable space group: P 4/N C C
;
_chemical_formula_sum "Si O2"
_cell_formula_units_Z 112
_cell_length_a 14.827047
_cell_length_b 14.827047
_cell_length_c 24.849360
_cell_angle_alpha 90.000000
_cell_angle_beta 90.000000
_cell_angle_gamma 90.000000
_cell_volume 5462.916172
_symmetry_space_group_name_H-M "P 4/N C C"
_symmetry_group_IT_number 130
_symmetry_cell_setting 'tetragonal'
loop_
_space_group_symop_operation_xyz
x,y,z
1/2-y,x,z
1/2-x,1/2-y,z
y,1/2-x,z
1/2+x,-y,1/2-z
-x,1/2+y,1/2-z
1/2+y,1/2+x,1/2-z
-y,-x,1/2-z
-x,-y,-z
1/2+y,-x,-z
1/2+x,1/2+y,-z
-y,1/2+x,-z
1/2-x,y,1/2+z
x,1/2-y,1/2+z
1/2-y,1/2-x,1/2+z
y,x,1/2+z
loop_
_atom_site_type_symbol
_atom_site_label
_atom_site_fract_x
_atom_site_fract_y
_atom_site_fract_z
Si Si1 0.171222 0.585548 0.425645
Si Si2 0.316912 0.383565 0.536136
Si Si3 0.785601 0.461991 0.888416
Si Si4 0.379386 0.621197 0.047387
Si Si5 0.598585 0.774779 0.800519
Si Si6 0.697772 0.892554 0.180446
Si Si7 0.901811 0.565877 0.075932
O O1 0.120166 0.644430 0.380186
O O2 0.277836 0.602550 0.430714
O O3 0.135246 0.620107 0.483627
O O4 0.137864 0.482477 0.420131
O O5 0.210818 0.366203 0.545564
O O6 0.339454 0.462284 0.577379
O O7 0.337985 0.408159 0.474474
O O8 0.707165 0.420955 0.925111
O O9 0.737313 0.513836 0.839533
O O10 0.467234 0.562256 0.060890
O O11 0.651753 0.678903 0.807946
O O12 0.566406 0.800929 0.740152
O O13 0.640164 0.800486 0.176524
O O14 0.656368 0.944416 0.130271
#
# Coordination Sequence:
#
# PCOD9565904 Si02
#       7
#    16  16  16  16  16  16  16
#     4  12  25  40  63  91 132 181 219 263 321 401
#     4  11  22  35  56  92 130 163 200 266 333 383
#     4  12  24  37  63  88 131 172 221 260 318 398
#     4  12  24  42  60  89 133 177 217 259 326 399
#     4   9  20  39  66  96 128 166 209 273 343 388
#     4   9  18  37  65  93 125 163 207 264 335 398
#     4  12  23  38  63  95 126 168 221 275 325 391
#
# _framework density 20.501871000000001
#
# number of rings (size 3 to 8) (size 9 to 14) (size 15 to 20)
#    0.000    1.000    2.857    6.000    4.000    2.286 
#    0.000    0.714    0.000    2.571    0.000    6.000 
#    0.000    0.000    0.000    0.000    0.000    0.000 
#
# Total GULP energy -625064.137980 kJ/mol
# GULP energy per Si atom -5580.929803 kJ/mol
# Density = 2.045521 g / cm^3
# Si number density = 20.501871 Si / 1000 Ang^3
#
#
#
# Elastic Constant Matrix: (Units=GPa)
#
#
# Indices 1 2 3 4 5 6 
#
# 1 67.0594 30.3853 30.6789 0.0000 0.0000 0.0000
# 2 30.3853 67.0594 30.6789 0.0000 0.0000 0.0000
# 3 30.6789 30.6789 94.1311 0.0000 0.0000 0.0000
# 4 0.0000 0.0000 0.0000 22.1644 0.0000 0.0000
# 5 0.0000 0.0000 0.0000 0.0000 22.1644 0.0000
# 6 0.0000 0.0000 0.0000 0.0000 0.0000 3.5370
#
#
#
# Elastic Compliance Matrix: (Units=1/GPa)
#
#
# Indices 1 2 3 4 5 6 
#
# 1 0.020090 -0.007178 -0.004208 0.000000 0.000000 0.000000
# 2 -0.007178 0.020090 -0.004208 0.000000 0.000000 0.000000
# 3 -0.004208 -0.004208 0.013367 0.000000 0.000000 0.000000
# 4 0.000000 0.000000 0.000000 0.045117 0.000000 0.000000
# 5 0.000000 0.000000 0.000000 0.000000 0.045117 0.000000
# 6 0.000000 0.000000 0.000000 0.000000 0.000000 0.282727
#
#
# Mechanical properties :
#
#
# Convention : Reuss Voigt Hill
#
# Bulk Modulus (GPa) = 44.72745 45.74844 45.23795
# Shear Modulus (GPa) = 10.74926 18.67362 14.71144
#
# Velocity S-wave (km/s) = 2.29226 3.02126 2.68165
# Velocity P-wave (km/s) = 5.37304 5.87651 5.63041
#
# Compressibility (1/GPa) = 0.02235764
#
# Stress axis : x y z
#
# Youngs Moduli (GPa) = 49.77694 49.77694 74.81363
#
# Poissons Ratio (x) = 0.35728 0.31483
# Poissons Ratio (y) = 0.35728 0.31483
# Poissons Ratio (z) = 0.20947 0.20947
#
# Static dielectric constant tensor:
#      x y z
#    x 1.758400 0.000000 0.000000 
#    y 0.000000 1.758400 0.000000 
#    z 0.000000 0.000000 1.769710 
# 
# From -- ./inp_files/4295.got.cif
#   From: 2010.05.17/outbox.cif.g08.bks.cpg/sg130_3_cif.got.tgz:4295.got - 2010.05.20 12:17:35.
