data_PCOD9565560
_publ_section_title
;
Structure prediction by ZEFSAII (Michael W. Deem and Ramdas Pophale) SiO2 
 PCOD9565560
Probable space group: P 4/N C C
;
_chemical_formula_sum "Si O2"
_cell_formula_units_Z 112
_cell_length_a 22.097842
_cell_length_b 22.097842
_cell_length_c 12.417936
_cell_angle_alpha 90.000000
_cell_angle_beta 90.000000
_cell_angle_gamma 90.000000
_cell_volume 6063.859712
_symmetry_space_group_name_H-M "P 4/N C C"
_symmetry_group_IT_number 130
_symmetry_cell_setting 'tetragonal'
loop_
_space_group_symop_operation_xyz
x,y,z
1/2-y,x,z
1/2-x,1/2-y,z
y,1/2-x,z
1/2+x,-y,1/2-z
-x,1/2+y,1/2-z
1/2+y,1/2+x,1/2-z
-y,-x,1/2-z
-x,-y,-z
1/2+y,-x,-z
1/2+x,1/2+y,-z
-y,1/2+x,-z
1/2-x,y,1/2+z
x,1/2-y,1/2+z
1/2-y,1/2-x,1/2+z
y,x,1/2+z
loop_
_atom_site_type_symbol
_atom_site_label
_atom_site_fract_x
_atom_site_fract_y
_atom_site_fract_z
Si Si1 0.213332 0.439190 0.680462
Si Si2 0.304178 0.336096 0.339620
Si Si3 0.023672 0.768056 0.119293
Si Si4 0.513480 0.352276 0.491504
Si Si5 0.610781 0.076407 0.131717
Si Si6 0.677546 0.920431 0.965867
Si Si7 0.038164 0.056917 0.957604
O O1 0.180426 0.385143 0.746583
O O2 0.228254 0.493124 0.763759
O O3 0.174159 0.469383 0.585182
O O4 0.276920 0.414055 0.633172
O O5 0.231198 0.330314 0.332380
O O6 0.323199 0.362391 0.456012
O O7 0.075517 0.818112 0.107322
O O8 0.038686 0.700995 0.082302
O O9 0.971151 0.789324 0.038110
O O10 0.568407 0.387438 0.549288
O O11 0.472451 0.398703 0.422817
O O12 0.600478 0.100478 0.250000
O O13 0.589433 0.005808 0.127123
O O14 0.609064 0.945131 0.955078
O O15 0.000000 0.000000 0.000000
#
# Coordination Sequence:
#
# PCOD9565560 Si02
#       7
#    16  16  16  16  16  16  16
#     4  10  20  34  54  80 105 151 194 232 284 342
#     4  10  23  36  47  72 109 151 201 246 281 327
#     4   9  19  36  54  83 112 142 184 227 283 344
#     4  10  20  35  59  84 112 149 187 232 291 342
#     4  10  18  37  60  86 117 151 189 232 291 357
#     4   9  20  34  53  71 107 146 185 234 282 328
#     4   9  20  35  54  83 115 142 186 239 289 341
#
# _framework density 18.470084
#
# number of rings (size 3 to 8) (size 9 to 14) (size 15 to 20)
#    0.000    2.429    1.429    0.000    8.000    0.000 
#    5.143    1.429    0.000    0.429    0.000    1.000 
#    0.000    0.000    0.000    0.000    0.000    0.000 
#
# Total GULP energy -623996.615119 kJ/mol
# GULP energy per Si atom -5571.398349 kJ/mol
# Density = 1.842805 g / cm^3
# Si number density = 18.470084 Si / 1000 Ang^3
#
#
#
# Elastic Constant Matrix: (Units=GPa)
#
#
# Indices 1 2 3 4 5 6 
#
# 1 88.8743 30.0474 15.7539 0.0000 0.0000 0.0000
# 2 30.0474 88.8743 15.7539 0.0000 0.0000 0.0000
# 3 15.7539 15.7539 29.0463 0.0000 0.0000 0.0000
# 4 0.0000 0.0000 0.0000 18.3227 0.0000 0.0000
# 5 0.0000 0.0000 0.0000 0.0000 18.3227 0.0000
# 6 0.0000 0.0000 0.0000 0.0000 0.0000 26.1658
#
#
#
# Elastic Compliance Matrix: (Units=1/GPa)
#
#
# Indices 1 2 3 4 5 6 
#
# 1 0.013410 -0.003590 -0.005326 0.000000 0.000000 0.000000
# 2 -0.003590 0.013410 -0.005326 0.000000 0.000000 0.000000
# 3 -0.005326 -0.005326 0.040205 0.000000 0.000000 0.000000
# 4 0.000000 0.000000 0.000000 0.054577 0.000000 0.000000
# 5 0.000000 0.000000 0.000000 0.000000 0.054577 0.000000
# 6 0.000000 0.000000 0.000000 0.000000 0.000000 0.038218
#
#
# Mechanical properties :
#
#
# Convention : Reuss Voigt Hill
#
# Bulk Modulus (GPa) = 25.94646 36.65612 31.30129
# Shear Modulus (GPa) = 19.55214 22.24490 20.89852
#
# Velocity S-wave (km/s) = 3.25712 3.47417 3.36740
# Velocity P-wave (km/s) = 5.31257 5.99854 5.66595
#
# Compressibility (1/GPa) = 0.03854091
#
# Stress axis : x y z
#
# Youngs Moduli (GPa) = 74.57385 74.57385 24.87236
#
# Poissons Ratio (x) = 0.26768 0.13247
# Poissons Ratio (y) = 0.26768 0.13247
# Poissons Ratio (z) = 0.39719 0.39719
#
# Static dielectric constant tensor:
#      x y z
#    x 1.674850 0.000000 0.000000 
#    y 0.000000 1.674850 0.000000 
#    z 0.000000 0.000000 1.653080 
# 
# From -- ./inp_files/1863.got.cif
#   From: 2010.05.17/outbox.cif.g08.bks.cpg/sg130_1_cif.got.tgz:1863.got - 2010.05.20 12:17:35.
