data_PCOD9565876
_publ_section_title
;
Structure prediction by ZEFSAII (Michael W. Deem and Ramdas Pophale) SiO2 
 PCOD9565876
Probable space group: P 4/N C C
;
_chemical_formula_sum "Si O2"
_cell_formula_units_Z 108
_cell_length_a 20.091617
_cell_length_b 20.091617
_cell_length_c 15.117264
_cell_angle_alpha 90.000000
_cell_angle_beta 90.000000
_cell_angle_gamma 90.000000
_cell_volume 6102.432424
_symmetry_space_group_name_H-M "P 4/N C C"
_symmetry_group_IT_number 130
_symmetry_cell_setting 'tetragonal'
loop_
_space_group_symop_operation_xyz
x,y,z
1/2-y,x,z
1/2-x,1/2-y,z
y,1/2-x,z
1/2+x,-y,1/2-z
-x,1/2+y,1/2-z
1/2+y,1/2+x,1/2-z
-y,-x,1/2-z
-x,-y,-z
1/2+y,-x,-z
1/2+x,1/2+y,-z
-y,1/2+x,-z
1/2-x,y,1/2+z
x,1/2-y,1/2+z
1/2-y,1/2-x,1/2+z
y,x,1/2+z
loop_
_atom_site_type_symbol
_atom_site_label
_atom_site_fract_x
_atom_site_fract_y
_atom_site_fract_z
Si Si1 0.996767 0.496767 0.250000
Si Si2 0.954298 0.046695 0.061135
Si Si3 0.750000 0.750000 0.440419
Si Si4 0.717021 0.550235 0.263052
Si Si5 0.010938 0.188988 0.037369
Si Si6 0.371719 0.151279 0.025952
Si Si7 0.495585 0.310214 0.420798
Si Si8 0.418193 0.368542 0.718155
O O1 0.919568 0.523602 0.249558
O O2 0.030361 0.525729 0.161916
O O3 0.968710 0.122501 0.039050
O O4 0.877235 0.031143 0.050762
O O5 0.000000 0.000000 0.000000
O O6 0.819845 0.793049 0.443730
O O7 0.713449 0.521122 0.361955
O O8 0.701917 0.500009 0.183480
O O9 0.655295 0.602394 0.259550
O O10 0.792406 0.576133 0.249620
O O11 0.083826 0.166709 0.002187
O O12 0.982874 0.246630 0.976426
O O13 0.417690 0.133931 0.110856
O O14 0.418129 0.177245 0.947624
#
# Coordination Sequence:
#
# PCOD9565876 Si02
#       8
#     8  16   4  16  16  16  16  16
#     4  12  22  42  62  88 124 164 212 260 296 372
#     4  12  23  40  67  89 115 168 208 264 313 361
#     4  12  20  32  60  78 128 180 194 220 304 370
#     4  11  24  37  58  87 127 168 202 254 298 369
#     4  11  23  41  58  88 124 156 208 258 313 357
#     4  11  20  36  56  82 120 169 205 242 288 360
#     4  12  23  38  60  90 121 157 213 254 308 369
#     4  11  22  40  58  85 124 166 207 249 301 361
#
# _framework density 17.697861
#
# number of rings (size 3 to 8) (size 9 to 14) (size 15 to 20)
#    0.000    0.593    8.889    0.889    4.148    0.296 
#    0.000    0.000    0.000    0.444    0.000    0.000 
#    0.000    5.333    0.000    0.000    0.000    0.000 
#
# Total GULP energy -601884.711067 kJ/mol
# GULP energy per Si atom -5573.006584 kJ/mol
# Density = 1.765758 g / cm^3
# Si number density = 17.697861 Si / 1000 Ang^3
#
#
#
# Elastic Constant Matrix: (Units=GPa)
#
#
# Indices 1 2 3 4 5 6 
#
# 1 100.4035 52.7875 17.4554 0.0000 0.0000 0.0000
# 2 52.7875 100.4035 17.4554 0.0000 0.0000 0.0000
# 3 17.4554 17.4554 58.1291 0.0000 0.0000 0.0000
# 4 0.0000 0.0000 0.0000 18.0503 0.0000 0.0000
# 5 0.0000 0.0000 0.0000 0.0000 18.0503 0.0000
# 6 0.0000 0.0000 0.0000 0.0000 0.0000 33.1466
#
#
#
# Elastic Compliance Matrix: (Units=1/GPa)
#
#
# Indices 1 2 3 4 5 6 
#
# 1 0.014004 -0.006997 -0.002104 0.000000 0.000000 0.000000
# 2 -0.006997 0.014004 -0.002104 0.000000 0.000000 0.000000
# 3 -0.002104 -0.002104 0.018467 0.000000 0.000000 0.000000
# 4 0.000000 0.000000 0.000000 0.055401 0.000000 0.000000
# 5 0.000000 0.000000 0.000000 0.000000 0.055401 0.000000
# 6 0.000000 0.000000 0.000000 0.000000 0.000000 0.030169
#
#
# Mechanical properties :
#
#
# Convention : Reuss Voigt Hill
#
# Bulk Modulus (GPa) = 41.55473 48.25918 44.90696
# Shear Modulus (GPa) = 22.94855 25.26527 24.10691
#
# Velocity S-wave (km/s) = 3.60486 3.78244 3.69472
# Velocity P-wave (km/s) = 6.39200 6.81200 6.60534
#
# Compressibility (1/GPa) = 0.02406465
#
# Stress axis : x y z
#
# Youngs Moduli (GPa) = 71.40639 71.40639 54.15116
#
# Poissons Ratio (x) = 0.49963 0.11395
# Poissons Ratio (y) = 0.49963 0.11395
# Poissons Ratio (z) = 0.15025 0.15025
#
# Static dielectric constant tensor:
#      x y z
#    x 1.631640 0.000000 0.000000 
#    y 0.000000 1.631640 0.000000 
#    z 0.000000 0.000000 1.650070 
# 
# From -- ./inp_files/2560.got.cif
#   From: 2010.05.17/outbox.cif.g08.bks.cpg/sg130_2_cif.got.tgz:2560.got - 2010.05.20 12:17:35.
