data_PCOD9565086
_publ_section_title
;
Structure prediction by ZEFSAII (Michael W. Deem and Ramdas Pophale) SiO2 
 PCOD9565086
Probable space group: P 4/M N C
;
_chemical_formula_sum "Si O2"
_cell_formula_units_Z 116
_cell_length_a 18.000000
_cell_length_b 18.000000
_cell_length_c 18.000000
_cell_angle_alpha 90.000000
_cell_angle_beta 90.000000
_cell_angle_gamma 90.000000
_cell_volume 5832.000000
_symmetry_space_group_name_H-M "P 4/M N C"
_symmetry_group_IT_number 128
_symmetry_cell_setting 'tetragonal'
loop_
_space_group_symop_operation_xyz
x,y,z
-y,x,z
-x,-y,z
y,-x,z
1/2+x,1/2-y,1/2-z
1/2-x,1/2+y,1/2-z
1/2+y,1/2+x,1/2-z
1/2-y,1/2-x,1/2-z
-x,-y,-z
y,-x,-z
x,y,-z
-y,x,-z
1/2-x,1/2+y,1/2+z
1/2+x,1/2-y,1/2+z
1/2-y,1/2-x,1/2+z
1/2+y,1/2+x,1/2+z
loop_
_atom_site_type_symbol
_atom_site_label
_atom_site_fract_x
_atom_site_fract_y
_atom_site_fract_z
Si Si1 0.192739 0.755740 0.911492
Si Si2 0.115853 0.121076 0.824010
Si Si3 0.286019 0.501708 0.238946
Si Si4 0.736012 0.993995 0.581945
Si Si5 0.038976 0.370137 0.191587
Si Si6 0.902357 0.385505 0.912509
Si Si7 0.821877 0.660371 0.914349
Si Si8 0.000000 0.000000 0.872379
O O1 0.164056 0.834437 0.882885
O O2 0.141478 0.688261 0.884775
O O3 0.279293 0.760066 0.890518
O O4 0.188731 0.749961 0.000000
O O5 0.171674 0.066708 0.781458
O O6 0.053366 0.073749 0.865858
O O7 0.073593 0.173117 0.765050
O O8 0.288311 0.519080 0.151786
O O9 0.200802 0.492620 0.263923
O O10 0.765627 0.974143 0.500000
O O11 0.715068 0.080162 0.584502
O O12 0.658871 0.949769 0.591365
O O13 0.070703 0.429298 0.250000
O O14 0.107857 0.342764 0.140282
O O15 0.974069 0.398916 0.137669
O O16 0.923427 0.376839 0.000000
O O17 0.845211 0.677587 0.000000
#
# Coordination Sequence:
#
# PCOD9565086 Si02
#       8
#    16  16  16  16  16  16  16   4
#     4  10  20  37  64  94 125 168 216 260 311 385
#     4  10  20  40  62  89 128 164 211 261 321 375
#     4  11  22  40  62  91 123 164 205 267 321 374
#     4  10  23  44  62  86 120 159 212 263 322 385
#     4  12  22  38  58  90 127 165 216 251 301 379
#     4  10  23  43  64  90 128 172 214 263 323 383
#     4  10  21  38  59  85 121 165 210 254 304 367
#     4   8  20  36  57  84 125 168 200 250 312 372
#
# _framework density 19.890260999999999
#
# number of rings (size 3 to 8) (size 9 to 14) (size 15 to 20)
#    0.000    1.655    4.138    0.414    0.000    2.207 
#    2.483    8.621    0.000    0.000    0.000    2.897 
#    0.000    0.000    0.000    0.000    0.000    0.000 
#
# Total GULP energy -646328.799406 kJ/mol
# GULP energy per Si atom -5571.799995 kJ/mol
# Density = 1.984499 g / cm^3
# Si number density = 19.890261 Si / 1000 Ang^3
#
#
#
# Elastic Constant Matrix: (Units=GPa)
#
#
# Indices 1 2 3 4 5 6 
#
# 1 70.5909 21.6309 2.5437 0.0000 0.0000 0.0000
# 2 21.6309 70.5893 2.5438 0.0000 0.0000 0.0000
# 3 2.5437 2.5438 -22.2363 0.0000 0.0000 0.0000
# 4 0.0000 0.0000 0.0000 12.7956 0.0000 0.0000
# 5 0.0000 0.0000 0.0000 0.0000 12.7961 0.0000
# 6 0.0000 0.0000 0.0000 0.0000 0.0000 36.3799
#
#
#
# Elastic Compliance Matrix: (Units=1/GPa)
#
#
# Indices 1 2 3 4 5 6 
#
# 1 0.015600 -0.004825 0.001233 0.000000 0.000000 0.000000
# 2 -0.004825 0.015601 0.001233 0.000000 0.000000 0.000000
# 3 0.001233 0.001233 -0.044689 0.000000 0.000000 0.000000
# 4 0.000000 0.000000 0.000000 0.078152 0.000000 0.000000
# 5 0.000000 0.000000 0.000000 0.000000 0.078149 0.000000
# 6 0.000000 0.000000 0.000000 0.000000 0.000000 0.027488
#
#
# Mechanical properties :
#
#
# Convention : Reuss Voigt Hill
#
# Bulk Modulus (GPa) = -54.92199 19.15342 -17.88428
# Shear Modulus (GPa) = 29.59470 18.54269 24.06869
#
# Velocity S-wave (km/s) = 3.86151 3.05659 3.48239
# Velocity P-wave (km/s) = 2.79119 4.70185 2.67551
#
# Compressibility (1/GPa) = -0.01820764
#
# Stress axis : x y z
#
# Youngs Moduli (GPa) = 64.10187 64.10049 -22.37664
#
# Poissons Ratio (x) = 0.30927 0.02758
# Poissons Ratio (y) = 0.30928 0.02759
# Poissons Ratio (z) = -0.07901 -0.07902
#
# Static dielectric constant tensor:
#      x y z
#    x 1.700390 0.000000 0.000000 
#    y 0.000000 1.700390 0.000000 
#    z 0.000000 0.000000 1.726220 
# 
# From -- ./inp_files/4934.got.cif
#   From: 2010.05.17/outbox.ucp.g08.bks.cvg/sg128_3_cif.got.tgz:4934.got - 2010.06.11 11:37:33.
