data_PCOD9565287
_publ_section_title
;
Structure prediction by ZEFSAII (Michael W. Deem and Ramdas Pophale) SiO2 
 PCOD9565287
Probable space group: P 4/N M M
;
_chemical_formula_sum "Si O2"
_cell_formula_units_Z 88
_cell_length_a 17.988252
_cell_length_b 17.988252
_cell_length_c 15.902530
_cell_angle_alpha 90.000000
_cell_angle_beta 90.000000
_cell_angle_gamma 90.000000
_cell_volume 5145.696290
_symmetry_space_group_name_H-M "P 4/N M M"
_symmetry_group_IT_number 129
_symmetry_cell_setting 'tetragonal'
loop_
_space_group_symop_operation_xyz
x,y,z
1/2-y,x,z
1/2-x,1/2-y,z
y,1/2-x,z
1/2+x,-y,-z
-x,1/2+y,-z
1/2+y,1/2+x,-z
-y,-x,-z
-x,-y,-z
1/2+y,-x,-z
1/2+x,1/2+y,-z
-y,1/2+x,-z
1/2-x,y,z
x,1/2-y,z
1/2-y,1/2-x,z
y,x,z
loop_
_atom_site_type_symbol
_atom_site_label
_atom_site_fract_x
_atom_site_fract_y
_atom_site_fract_z
Si Si1 0.838604 0.544310 0.409213
Si Si2 0.600622 0.100622 0.500000
Si Si3 0.537189 0.663254 0.779965
Si Si4 0.333676 0.970851 0.768705
Si Si5 0.166179 0.894953 0.323341
Si Si6 0.051270 0.573146 0.907756
O O1 0.750000 0.541172 0.425971
O O2 0.877101 0.622900 0.427343
O O3 0.882026 0.480805 0.461904
O O4 0.849572 0.525141 0.309963
O O5 0.613945 0.154987 0.422086
O O6 0.558511 0.750000 0.779748
O O7 0.606724 0.606724 0.778061
O O8 0.480494 0.648085 0.702523
O O9 0.484402 0.643677 0.859963
O O10 0.250000 0.984224 0.798049
O O11 0.342133 0.890368 0.724966
O O12 0.391151 0.967310 0.845036
O O13 0.250000 0.880950 0.297232
O O14 0.981931 0.518069 0.917371
O O15 0.085275 0.585275 0.000000
#
# Coordination Sequence:
#
# PCOD9565287 Si02
#       6
#    16   8  16  16  16  16
#     4  10  20  33  50  72  98 128 162 201 244 290
#     4  10  19  32  52  75  94 123 166 206 241 284
#     4   9  18  32  49  70  96 125 157 194 236 280
#     4   9  18  31  47  68  93 123 158 194 235 282
#     4   9  18  32  48  67  94 124 155 195 240 285
#     4   9  17  30  49  71  94 122 156 193 234 279
#
# _framework density 17.101669000000001
#
# number of rings (size 3 to 8) (size 9 to 14) (size 15 to 20)
#    0.000    2.727    0.000    1.364    0.000    7.273 
#    0.000    0.000    0.000    3.545    0.000    5.091 
#    0.000    4.364    0.000    0.000    0.000    0.000 
#
# Total GULP energy -489898.222695 kJ/mol
# GULP energy per Si atom -5567.025258 kJ/mol
# Density = 1.706275 g / cm^3
# Si number density = 17.101669 Si / 1000 Ang^3
#
#
#
# Elastic Constant Matrix: (Units=GPa)
#
#
# Indices 1 2 3 4 5 6 
#
# 1 62.5660 35.2915 5.0322 0.0000 0.0000 0.0000
# 2 35.2915 62.5660 5.0322 0.0000 0.0000 0.0000
# 3 5.0322 5.0322 66.1124 0.0000 0.0000 0.0000
# 4 0.0000 0.0000 0.0000 10.6966 0.0000 0.0000
# 5 0.0000 0.0000 0.0000 0.0000 10.6966 0.0000
# 6 0.0000 0.0000 0.0000 0.0000 0.0000 12.1650
#
#
#
# Elastic Compliance Matrix: (Units=1/GPa)
#
#
# Indices 1 2 3 4 5 6 
#
# 1 0.023482 -0.013182 -0.000784 0.000000 0.000000 0.000000
# 2 -0.013182 0.023482 -0.000784 0.000000 0.000000 0.000000
# 3 -0.000784 -0.000784 0.015245 0.000000 0.000000 0.000000
# 4 0.000000 0.000000 0.000000 0.093487 0.000000 0.000000
# 5 0.000000 0.000000 0.000000 0.000000 0.093487 0.000000
# 6 0.000000 0.000000 0.000000 0.000000 0.000000 0.082203
#
#
# Mechanical properties :
#
#
# Convention : Reuss Voigt Hill
#
# Bulk Modulus (GPa) = 30.57320 31.32847 30.95084
# Shear Modulus (GPa) = 13.44846 16.43756 14.94301
#
# Velocity S-wave (km/s) = 2.80729 3.10363 2.95918
# Velocity P-wave (km/s) = 5.33142 5.58588 5.46013
#
# Compressibility (1/GPa) = 0.03270839
#
# Stress axis : x y z
#
# Youngs Moduli (GPa) = 42.58605 42.58605 65.59487
#
# Poissons Ratio (x) = 0.56138 0.05142
# Poissons Ratio (y) = 0.56138 0.05142
# Poissons Ratio (z) = 0.03339 0.03339
#
# Static dielectric constant tensor:
#      x y z
#    x 1.576280 0.000000 0.000000 
#    y 0.000000 1.576280 0.000000 
#    z 0.000000 0.000000 2.556140 
# 
# From -- ./inp_files/4781.got.cif
#   From: 2010.05.17/outbox.cif.g08.bks.cpg/sg129_3_cif.got.tgz:4781.got - 2010.05.20 12:12:06.
