data_PCOD9565714
_publ_section_title
;
Structure prediction by ZEFSAII (Michael W. Deem and Ramdas Pophale) SiO2 
 PCOD9565714
Probable space group: P 4/N C C
;
_chemical_formula_sum "Si O2"
_cell_formula_units_Z 96
_cell_length_a 16.319443
_cell_length_b 16.319443
_cell_length_c 15.883519
_cell_angle_alpha 90.000000
_cell_angle_beta 90.000000
_cell_angle_gamma 90.000000
_cell_volume 4230.165806
_symmetry_space_group_name_H-M "P 4/N C C"
_symmetry_group_IT_number 130
_symmetry_cell_setting 'tetragonal'
loop_
_space_group_symop_operation_xyz
x,y,z
1/2-y,x,z
1/2-x,1/2-y,z
y,1/2-x,z
1/2+x,-y,1/2-z
-x,1/2+y,1/2-z
1/2+y,1/2+x,1/2-z
-y,-x,1/2-z
-x,-y,-z
1/2+y,-x,-z
1/2+x,1/2+y,-z
-y,1/2+x,-z
1/2-x,y,1/2+z
x,1/2-y,1/2+z
1/2-y,1/2-x,1/2+z
y,x,1/2+z
loop_
_atom_site_type_symbol
_atom_site_label
_atom_site_fract_x
_atom_site_fract_y
_atom_site_fract_z
Si Si1 0.420413 0.525162 0.947744
Si Si2 0.885312 0.725606 0.485154
Si Si3 0.448361 0.080499 0.776760
Si Si4 0.690661 0.471594 0.355466
Si Si5 0.869609 0.209029 0.534579
Si Si6 0.706816 0.880925 0.176543
O O1 0.407341 0.457958 0.876661
O O2 0.438884 0.606598 0.895311
O O3 0.500000 0.500000 0.000000
O O4 0.343320 0.552700 0.002774
O O5 0.841574 0.813252 0.476092
O O6 0.915015 0.713198 0.581246
O O7 0.951986 0.714372 0.413949
O O8 0.492460 0.158863 0.732728
O O9 0.350847 0.064405 0.763016
O O10 0.501216 0.001216 0.750000
O O11 0.754763 0.398417 0.375083
O O12 0.788011 0.152873 0.524802
O O13 0.653493 0.797393 0.189455
#
# Coordination Sequence:
#
# PCOD9565714 Si02
#       6
#    16  16  16  16  16  16
#     4  10  21  38  63  88 119 166 215 264 316 385
#     4   9  19  34  58  89 117 157 216 260 311 394
#     4  10  22  39  55  88 130 159 198 261 329 380
#     4  10  21  35  59  88 120 163 198 263 338 376
#     4   9  20  40  64  90 119 161 221 267 314 398
#     4   9  19  36  58  83 111 156 208 254 310 383
#
# _framework density 22.694147000000001
#
# number of rings (size 3 to 8) (size 9 to 14) (size 15 to 20)
#    0.000    2.500    0.000    2.000    7.000    1.333 
#    3.000    2.500    0.000    5.000    0.000    0.000 
#    0.000    0.000    0.000    0.000    0.000    0.000 
#
# Total GULP energy -534808.879434 kJ/mol
# GULP energy per Si atom -5570.925827 kJ/mol
# Density = 2.264249 g / cm^3
# Si number density = 22.694147 Si / 1000 Ang^3
#
#
#
# Elastic Constant Matrix: (Units=GPa)
#
#
# Indices 1 2 3 4 5 6 
#
# 1 71.7088 22.2012 19.5040 0.0000 0.0000 0.0000
# 2 22.2012 71.7088 19.5040 0.0000 0.0000 0.0000
# 3 19.5040 19.5040 53.5679 0.0000 0.0000 0.0000
# 4 0.0000 0.0000 0.0000 24.3249 0.0000 0.0000
# 5 0.0000 0.0000 0.0000 0.0000 24.3249 0.0000
# 6 0.0000 0.0000 0.0000 0.0000 0.0000 19.5949
#
#
#
# Elastic Compliance Matrix: (Units=1/GPa)
#
#
# Indices 1 2 3 4 5 6 
#
# 1 0.016372 -0.003827 -0.004568 0.000000 0.000000 0.000000
# 2 -0.003827 0.016372 -0.004568 0.000000 0.000000 0.000000
# 3 -0.004568 -0.004568 0.021994 0.000000 0.000000 0.000000
# 4 0.000000 0.000000 0.000000 0.041110 0.000000 0.000000
# 5 0.000000 0.000000 0.000000 0.000000 0.041110 0.000000
# 6 0.000000 0.000000 0.000000 0.000000 0.000000 0.051034
#
#
# Mechanical properties :
#
#
# Convention : Reuss Voigt Hill
#
# Bulk Modulus (GPa) = 34.70497 35.48929 35.09713
# Shear Modulus (GPa) = 22.36910 22.70069 22.53489
#
# Velocity S-wave (km/s) = 3.14296 3.16616 3.15458
# Velocity P-wave (km/s) = 5.33822 5.38871 5.36352
#
# Compressibility (1/GPa) = 0.02881432
#
# Stress axis : x y z
#
# Youngs Moduli (GPa) = 61.07832 61.07832 45.46639
#
# Poissons Ratio (x) = 0.23372 0.20769
# Poissons Ratio (y) = 0.23372 0.20769
# Poissons Ratio (z) = 0.27900 0.27900
#
# Static dielectric constant tensor:
#      x y z
#    x 1.884590 0.000000 0.000000 
#    y 0.000000 1.884590 0.000000 
#    z 0.000000 0.000000 1.849410 
# 
# From -- ./inp_files/3083.got.cif
#   From: 2010.05.17/outbox.cif.g08.bks.cpg/sg130_2_cif.got.tgz:3083.got - 2010.05.20 12:17:35.
