data_PCOD9565748
_publ_section_title
;
Structure prediction by ZEFSAII (Michael W. Deem and Ramdas Pophale) SiO2 
 PCOD9565748
Probable space group: P 4/N C C
;
_chemical_formula_sum "Si O2"
_cell_formula_units_Z 56
_cell_length_a 17.061491
_cell_length_b 17.061491
_cell_length_c 8.254861
_cell_angle_alpha 90.000000
_cell_angle_beta 90.000000
_cell_angle_gamma 90.000000
_cell_volume 2402.944430
_symmetry_space_group_name_H-M "P 4/N C C"
_symmetry_group_IT_number 130
_symmetry_cell_setting 'tetragonal'
loop_
_space_group_symop_operation_xyz
x,y,z
1/2-y,x,z
1/2-x,1/2-y,z
y,1/2-x,z
1/2+x,-y,1/2-z
-x,1/2+y,1/2-z
1/2+y,1/2+x,1/2-z
-y,-x,1/2-z
-x,-y,-z
1/2+y,-x,-z
1/2+x,1/2+y,-z
-y,1/2+x,-z
1/2-x,y,1/2+z
x,1/2-y,1/2+z
1/2-y,1/2-x,1/2+z
y,x,1/2+z
loop_
_atom_site_type_symbol
_atom_site_label
_atom_site_fract_x
_atom_site_fract_y
_atom_site_fract_z
Si Si1 0.417499 0.917499 0.250000
Si Si2 0.711771 0.543851 0.600412
Si Si3 0.710933 0.369307 0.508140
Si Si4 0.865116 0.916395 0.253170
O O1 0.400677 0.851981 0.381663
O O2 0.505485 0.907931 0.191740
O O3 0.727745 0.449584 0.607503
O O4 0.670826 0.567483 0.431062
O O5 0.790965 0.591420 0.634311
O O6 0.652872 0.572925 0.739735
O O7 0.790815 0.334253 0.429421
#
# Coordination Sequence:
#
# PCOD9565748 Si02
#       4
#     8  16  16  16
#     4  10  22  43  60 102 140 177 232 278 350 420
#     4  11  24  46  70 104 140 187 234 293 348 421
#     4  10  21  40  65  98 141 182 230 276 351 417
#     4  11  24  45  70 102 142 182 238 288 354 413
#
# _framework density 23.304742000000001
#
# number of rings (size 3 to 8) (size 9 to 14) (size 15 to 20)
#    0.000    1.429    2.857    1.714    0.000    7.429 
#   10.286    2.857    0.000    0.000    0.000    0.000 
#    0.000    0.000    0.000    0.000    0.000    0.000 
#
# Total GULP energy -312531.782270 kJ/mol
# GULP energy per Si atom -5580.924683 kJ/mol
# Density = 2.325170 g / cm^3
# Si number density = 23.304742 Si / 1000 Ang^3
#
#
#
# Elastic Constant Matrix: (Units=GPa)
#
#
# Indices 1 2 3 4 5 6 
#
# 1 95.1027 52.6233 6.2022 0.0000 0.0000 0.0000
# 2 52.6233 95.1027 6.2022 0.0000 0.0000 0.0000
# 3 6.2022 6.2022 53.0016 0.0000 0.0000 0.0000
# 4 0.0000 0.0000 0.0000 27.8966 0.0000 0.0000
# 5 0.0000 0.0000 0.0000 0.0000 27.8966 0.0000
# 6 0.0000 0.0000 0.0000 0.0000 0.0000 39.4209
#
#
#
# Elastic Compliance Matrix: (Units=1/GPa)
#
#
# Indices 1 2 3 4 5 6 
#
# 1 0.015189 -0.008352 -0.000800 0.000000 0.000000 0.000000
# 2 -0.008352 0.015189 -0.000800 0.000000 0.000000 0.000000
# 3 -0.000800 -0.000800 0.019055 0.000000 0.000000 0.000000
# 4 0.000000 0.000000 0.000000 0.035847 0.000000 0.000000
# 5 0.000000 0.000000 0.000000 0.000000 0.035847 0.000000
# 6 0.000000 0.000000 0.000000 0.000000 0.000000 0.025367
#
#
# Mechanical properties :
#
#
# Convention : Reuss Voigt Hill
#
# Bulk Modulus (GPa) = 33.86668 41.47359 37.67013
# Shear Modulus (GPa) = 28.37049 30.92142 29.64596
#
# Velocity S-wave (km/s) = 3.49287 3.64652 3.57052
# Velocity P-wave (km/s) = 5.55252 5.96358 5.76172
#
# Compressibility (1/GPa) = 0.02952755
#
# Stress axis : x y z
#
# Youngs Moduli (GPa) = 65.83860 65.83860 52.48078
#
# Poissons Ratio (x) = 0.54990 0.04198
# Poissons Ratio (y) = 0.54990 0.04198
# Poissons Ratio (z) = 0.05267 0.05267
#
# Static dielectric constant tensor:
#      x y z
#    x 1.906720 0.000000 0.000000 
#    y 0.000000 1.906720 0.000000 
#    z 0.000000 0.000000 1.956990 
# 
# From -- ./inp_files/554.got.cif
#   From: 2010.05.17/outbox.cif.g08.bks.cpg/sg130_1_cif.got.tgz:554.got - 2010.05.20 12:17:35.
