data_PCOD9565370
_publ_section_title
;
Structure prediction by ZEFSAII (Michael W. Deem and Ramdas Pophale) SiO2 
 PCOD9565370
Probable space group: P 4/N M M
;
_chemical_formula_sum "Si O2"
_cell_formula_units_Z 112
_cell_length_a 17.899436
_cell_length_b 17.899436
_cell_length_c 21.317938
_cell_angle_alpha 90.000000
_cell_angle_beta 90.000000
_cell_angle_gamma 90.000000
_cell_volume 6830.050087
_symmetry_space_group_name_H-M "P 4/N M M"
_symmetry_group_IT_number 129
_symmetry_cell_setting 'tetragonal'
loop_
_space_group_symop_operation_xyz
x,y,z
1/2-y,x,z
1/2-x,1/2-y,z
y,1/2-x,z
1/2+x,-y,-z
-x,1/2+y,-z
1/2+y,1/2+x,-z
-y,-x,-z
-x,-y,-z
1/2+y,-x,-z
1/2+x,1/2+y,-z
-y,1/2+x,-z
1/2-x,y,z
x,1/2-y,z
1/2-y,1/2-x,z
y,x,z
loop_
_atom_site_type_symbol
_atom_site_label
_atom_site_fract_x
_atom_site_fract_y
_atom_site_fract_z
Si Si1 0.039540 0.163311 0.611219
Si Si2 0.667634 0.385968 0.066978
Si Si3 0.336953 0.039518 0.259726
Si Si4 0.006874 0.613606 0.877685
Si Si5 0.550140 0.831343 0.010651
Si Si6 0.959373 0.836639 0.539544
Si Si7 0.578721 0.451332 0.637827
O O1 0.050363 0.250000 0.628169
O O2 0.110457 0.110457 0.628055
O O3 0.031759 0.158729 0.535447
O O4 0.963459 0.127447 0.638374
O O5 0.750000 0.366096 0.091938
O O6 0.595447 0.377342 0.110946
O O7 0.655089 0.344912 0.000000
O O8 0.667033 0.472965 0.047890
O O9 0.250000 0.051135 0.272572
O O10 0.386948 0.113053 0.272714
O O11 0.349935 0.017865 0.187295
O O12 0.370826 0.973960 0.303125
O O13 0.970454 0.529547 0.878137
O O14 0.970226 0.653322 0.938039
O O15 0.585009 0.750000 0.016580
O O16 0.604232 0.895769 0.032842
O O17 0.949813 0.750000 0.556856
O O18 0.886977 0.886977 0.556209
O O19 0.028981 0.872829 0.576280
O O20 0.510507 0.510507 0.636479
#
# Coordination Sequence:
#
# PCOD9565370 Si02
#       7
#    16  16  16  16  16  16  16
#     4   9  17  29  47  70  93 117 147 186 231 276
#     4   9  17  29  45  64  85 110 143 183 224 265
#     4  10  20  33  50  70  92 120 151 184 220 257
#     4   9  17  30  46  63  86 117 151 183 217 261
#     4   9  16  26  42  64  89 116 144 176 216 261
#     4   9  16  26  43  67  93 121 152 188 229 270
#     4   9  17  30  46  64  89 122 157 186 216 262
#
# _framework density 16.398122000000001
#
# number of rings (size 3 to 8) (size 9 to 14) (size 15 to 20)
#    0.000    2.857    0.000    1.714    0.000    4.714 
#    0.000    2.143    0.000    7.714    0.000    4.000 
#    0.000    0.000    0.000    9.000    0.000    0.143 
#
# Total GULP energy -623570.558027 kJ/mol
# GULP energy per Si atom -5567.594268 kJ/mol
# Density = 1.636080 g / cm^3
# Si number density = 16.398122 Si / 1000 Ang^3
#
#
#
# Elastic Constant Matrix: (Units=GPa)
#
#
# Indices 1 2 3 4 5 6 
#
# 1 86.4800 43.9286 10.8805 0.0000 0.0000 0.0000
# 2 43.9286 86.4828 10.8812 0.0000 0.0000 0.0000
# 3 10.8805 10.8812 23.6425 0.0000 0.0000 0.0000
# 4 0.0000 0.0000 0.0000 12.2182 0.0000 0.0000
# 5 0.0000 0.0000 0.0000 0.0000 12.2181 0.0000
# 6 0.0000 0.0000 0.0000 0.0000 0.0000 12.0049
#
#
#
# Elastic Compliance Matrix: (Units=1/GPa)
#
#
# Indices 1 2 3 4 5 6 
#
# 1 0.015903 -0.007597 -0.003822 0.000000 0.000000 0.000000
# 2 -0.007597 0.015903 -0.003823 0.000000 0.000000 0.000000
# 3 -0.003822 -0.003823 0.045815 0.000000 0.000000 0.000000
# 4 0.000000 0.000000 0.000000 0.081845 0.000000 0.000000
# 5 0.000000 0.000000 0.000000 0.000000 0.081846 0.000000
# 6 0.000000 0.000000 0.000000 0.000000 0.000000 0.083300
#
#
# Mechanical properties :
#
#
# Convention : Reuss Voigt Hill
#
# Bulk Modulus (GPa) = 21.21489 36.44288 28.82889
# Shear Modulus (GPa) = 13.48404 16.01590 14.74997
#
# Velocity S-wave (km/s) = 2.87067 3.12860 3.00241
# Velocity P-wave (km/s) = 4.89420 5.94331 5.44408
#
# Compressibility (1/GPa) = 0.04713669
#
# Stress axis : x y z
#
# Youngs Moduli (GPa) = 62.87992 62.88163 21.82683
#
# Poissons Ratio (x) = 0.47772 0.08343
# Poissons Ratio (y) = 0.47770 0.08344
# Poissons Ratio (z) = 0.24035 0.24039
#
# Static dielectric constant tensor:
#      x y z
#    x 1.562270 0.000000 0.000000 
#    y 0.000000 1.562270 0.000000 
#    z 0.000000 0.000000 1.544380 
# 
# From -- ./inp_files/6673.got.cif
#   From: 2010.05.17/outbox.cif.g08.bks.cpg/sg129_4_cif.got.tgz:6673.got - 2010.05.20 12:12:06.
