data_PCOD9565237
_publ_section_title
;
Structure prediction by ZEFSAII (Michael W. Deem and Ramdas Pophale) SiO2 
 PCOD9565237
Probable space group: P 4/N M M
;
_chemical_formula_sum "Si O2"
_cell_formula_units_Z 96
_cell_length_a 25.431900
_cell_length_b 25.431900
_cell_length_c 7.829359
_cell_angle_alpha 90.000000
_cell_angle_beta 90.000000
_cell_angle_gamma 90.000000
_cell_volume 5063.884853
_symmetry_space_group_name_H-M "P 4/N M M"
_symmetry_group_IT_number 129
_symmetry_cell_setting 'tetragonal'
loop_
_space_group_symop_operation_xyz
x,y,z
1/2-y,x,z
1/2-x,1/2-y,z
y,1/2-x,z
1/2+x,-y,-z
-x,1/2+y,-z
1/2+y,1/2+x,-z
-y,-x,-z
-x,-y,-z
1/2+y,-x,-z
1/2+x,1/2+y,-z
-y,1/2+x,-z
1/2-x,y,z
x,1/2-y,z
1/2-y,1/2-x,z
y,x,z
loop_
_atom_site_type_symbol
_atom_site_label
_atom_site_fract_x
_atom_site_fract_y
_atom_site_fract_z
Si Si1 0.014057 0.808886 0.879485
Si Si2 0.607222 0.975014 0.458039
Si Si3 0.083255 0.867034 0.647457
Si Si4 0.603370 0.810126 0.893189
Si Si5 0.034821 0.906531 0.122742
Si Si6 0.897107 0.811025 0.306643
O O1 0.014840 0.750000 0.951864
O O2 0.061291 0.815733 0.743077
O O3 0.021048 0.854810 0.016443
O O4 0.954379 0.817022 0.810675
O O5 0.565830 0.934171 0.536072
O O6 0.660284 0.944003 0.407816
O O7 0.613078 0.028108 0.564874
O O8 0.586235 0.994367 0.274209
O O9 0.127251 0.872750 0.500000
O O10 0.101174 0.908378 0.789631
O O11 0.621161 0.750000 0.859866
O O12 0.646102 0.853899 0.843127
O O13 0.595197 0.814501 0.099983
O O14 0.044120 0.955881 0.000000
O O15 0.892788 0.750000 0.351441
O O16 0.844662 0.844662 0.343605
#
# Coordination Sequence:
#
# PCOD9565237 Si02
#       6
#    16  16  16  16  16  16
#     4  10  19  33  54  78 101 134 177 216 260 313
#     4  10  19  31  46  68  98 136 179 217 262 320
#     4   9  20  35  49  71 106 136 163 208 257 309
#     4   9  17  29  46  69  97 131 175 224 267 306
#     4   9  18  32  49  70 100 132 164 213 261 304
#     4   9  17  29  46  68  96 132 176 224 268 306
#
# _framework density 18.957775999999999
#
# number of rings (size 3 to 8) (size 9 to 14) (size 15 to 20)
#    0.000    2.667    1.667    0.000    0.000    5.000 
#    0.000    9.167    0.000    0.000    0.000    0.000 
#    0.000   42.000    0.000    0.000    0.000    0.000 
#
# Total GULP energy -534694.031901 kJ/mol
# GULP energy per Si atom -5569.729499 kJ/mol
# Density = 1.891463 g / cm^3
# Si number density = 18.957776 Si / 1000 Ang^3
#
#
#
# Elastic Constant Matrix: (Units=GPa)
#
#
# Indices 1 2 3 4 5 6 
#
# 1 61.9517 69.1294 9.0891 0.0000 0.0000 0.0000
# 2 69.1294 61.9525 9.0890 0.0000 0.0000 0.0000
# 3 9.0891 9.0890 34.0915 0.0000 0.0000 0.0000
# 4 0.0000 0.0000 0.0000 13.1826 0.0000 0.0000
# 5 0.0000 0.0000 0.0000 0.0000 13.1822 0.0000
# 6 0.0000 0.0000 0.0000 0.0000 0.0000 24.8529
#
#
#
# Elastic Compliance Matrix: (Units=1/GPa)
#
#
# Indices 1 2 3 4 5 6 
#
# 1 -0.065704 0.073625 -0.002112 0.000000 0.000000 0.000000
# 2 0.073625 -0.065703 -0.002112 0.000000 0.000000 0.000000
# 3 -0.002112 -0.002112 0.030459 0.000000 0.000000 0.000000
# 4 0.000000 0.000000 0.000000 0.075858 0.000000 0.000000
# 5 0.000000 0.000000 0.000000 0.000000 0.075860 0.000000
# 6 0.000000 0.000000 0.000000 0.000000 0.000000 0.040237
#
#
# Mechanical properties :
#
#
# Convention : Reuss Voigt Hill
#
# Bulk Modulus (GPa) = 26.41696 36.95673 31.68684
# Shear Modulus (GPa) = -142.13994 14.95608 -63.59193
#
# Velocity S-wave (km/s) = -8.66833 2.81181 -5.79800
# Velocity P-wave (km/s) = 9.28556 5.48436 5.29827
#
# Compressibility (1/GPa) = 0.03785447
#
# Stress axis : x y z
#
# Youngs Moduli (GPa) = -15.21988 -15.22009 32.83106
#
# Poissons Ratio (x) = 1.12058 0.06933
# Poissons Ratio (y) = 1.12056 0.06935
# Poissons Ratio (z) = -0.03214 -0.03215
#
# Static dielectric constant tensor:
#      x y z
#    x 1.645630 0.000000 0.000000 
#    y 0.000000 1.645630 0.000000 
#    z 0.000000 0.000000 1.740190 
# 
# From -- ./inp_files/2765.got.cif
#   From: 2010.05.17/outbox.cif.g08.bks.cpg/sg129_2_cif.got.tgz:2765.got - 2010.05.20 12:12:06.
