data_PCOD9565932
_publ_section_title
;
Structure prediction by ZEFSAII (Michael W. Deem and Ramdas Pophale) SiO2 
 PCOD9565932
Probable space group: P 4/N C C
;
_chemical_formula_sum "Si O2"
_cell_formula_units_Z 112
_cell_length_a 15.675608
_cell_length_b 15.675608
_cell_length_c 24.106738
_cell_angle_alpha 90.000000
_cell_angle_beta 90.000000
_cell_angle_gamma 90.000000
_cell_volume 5923.620630
_symmetry_space_group_name_H-M "P 4/N C C"
_symmetry_group_IT_number 130
_symmetry_cell_setting 'tetragonal'
loop_
_space_group_symop_operation_xyz
x,y,z
1/2-y,x,z
1/2-x,1/2-y,z
y,1/2-x,z
1/2+x,-y,1/2-z
-x,1/2+y,1/2-z
1/2+y,1/2+x,1/2-z
-y,-x,1/2-z
-x,-y,-z
1/2+y,-x,-z
1/2+x,1/2+y,-z
-y,1/2+x,-z
1/2-x,y,1/2+z
x,1/2-y,1/2+z
1/2-y,1/2-x,1/2+z
y,x,1/2+z
loop_
_atom_site_type_symbol
_atom_site_label
_atom_site_fract_x
_atom_site_fract_y
_atom_site_fract_z
Si Si1 0.426001 0.866811 0.198345
Si Si2 0.427344 0.375397 0.077768
Si Si3 0.297334 0.506863 0.118260
Si Si4 0.305425 0.882449 0.507623
Si Si5 0.509283 0.086773 0.922158
Si Si6 0.163530 0.140477 0.457369
Si Si7 0.235225 0.895789 0.224139
O O1 0.433536 0.933536 0.250000
O O2 0.467287 0.891532 0.141247
O O3 0.276398 0.950751 0.274381
O O4 0.321946 0.860760 0.193794
O O5 0.358434 0.426229 0.112779
O O6 0.473167 0.298989 0.109948
O O7 0.499530 0.443816 0.061922
O O8 0.381008 0.341870 0.022653
O O9 0.312862 0.572489 0.067439
O O10 0.310600 0.551378 0.176892
O O11 0.357957 0.793703 0.503302
O O12 0.342063 0.948966 0.462555
O O13 0.407850 0.081893 0.929469
O O14 0.262891 0.134621 0.443509
O O15 0.176306 0.823695 0.250000
#
# Coordination Sequence:
#
# PCOD9565932 Si02
#       7
#    16  16  16  16  16  16  16
#     4   8  18  36  64  86 126 167 205 265 328 392
#     4  12  22  41  63  94 132 170 212 280 325 413
#     4  12  24  40  64  95 131 171 232 263 345 404
#     4  11  23  35  57  93 137 162 194 273 347 424
#     4  12  22  40  64  97 130 165 222 277 335 395
#     4  11  24  41  64  94 132 182 222 256 329 415
#     4   9  19  39  62  93 121 168 217 270 329 411
#
# _framework density 18.907356
#
# number of rings (size 3 to 8) (size 9 to 14) (size 15 to 20)
#    0.857    0.286    5.714    1.286    2.000    0.286 
#    2.571    2.143    0.000    0.000    0.000    0.000 
#    0.000    0.000    0.000    0.000    0.000    0.000 
#
# Total GULP energy -624397.515049 kJ/mol
# GULP energy per Si atom -5574.977813 kJ/mol
# Density = 1.886432 g / cm^3
# Si number density = 18.907356 Si / 1000 Ang^3
#
#
#
# Elastic Constant Matrix: (Units=GPa)
#
#
# Indices 1 2 3 4 5 6 
#
# 1 58.2551 11.3055 1.7278 0.0000 0.0000 0.0000
# 2 11.3055 58.2561 1.7294 0.0000 0.0000 0.0000
# 3 1.7278 1.7294 58.1524 0.0000 0.0000 0.0000
# 4 0.0000 0.0000 0.0000 7.3695 0.0000 0.0000
# 5 0.0000 0.0000 0.0000 0.0000 7.3692 0.0000
# 6 0.0000 0.0000 0.0000 0.0000 0.0000 29.2125
#
#
#
# Elastic Compliance Matrix: (Units=1/GPa)
#
#
# Indices 1 2 3 4 5 6 
#
# 1 0.017848 -0.003451 -0.000428 0.000000 0.000000 0.000000
# 2 -0.003451 0.017848 -0.000428 0.000000 0.000000 0.000000
# 3 -0.000428 -0.000428 0.017222 0.000000 0.000000 0.000000
# 4 0.000000 0.000000 0.000000 0.135695 0.000000 0.000000
# 5 0.000000 0.000000 0.000000 0.000000 0.135700 0.000000
# 6 0.000000 0.000000 0.000000 0.000000 0.000000 0.034232
#
#
# Mechanical properties :
#
#
# Convention : Reuss Voigt Hill
#
# Bulk Modulus (GPa) = 22.57130 22.68766 22.62948
# Shear Modulus (GPa) = 13.09153 19.45031 16.27092
#
# Velocity S-wave (km/s) = 2.63421 3.21084 2.93671
# Velocity P-wave (km/s) = 4.60607 5.07656 4.84702
#
# Compressibility (1/GPa) = 0.04430405
#
# Stress axis : x y z
#
# Youngs Moduli (GPa) = 56.02773 56.02860 58.06651
#
# Poissons Ratio (x) = 0.19336 0.02483
# Poissons Ratio (y) = 0.19335 0.02487
# Poissons Ratio (z) = 0.02396 0.02399
#
# Static dielectric constant tensor:
#      x y z
#    x 1.680460 0.000000 0.000000 
#    y 0.000000 1.680460 0.000000 
#    z 0.000000 0.000000 1.655120 
# 
# From -- ./inp_files/4308.got.cif
#   From: 2010.05.17/outbox.cif.g08.bks.cpg/sg130_3_cif.got.tgz:4308.got - 2010.05.20 12:17:35.
