data_PCOD9565325
_publ_section_title
;
Structure prediction by ZEFSAII (Michael W. Deem and Ramdas Pophale) SiO2 
 PCOD9565325
Probable space group: P 4/N M M
;
_chemical_formula_sum "Si O2"
_cell_formula_units_Z 64
_cell_length_a 22.184055
_cell_length_b 22.184055
_cell_length_c 7.545140
_cell_angle_alpha 90.000000
_cell_angle_beta 90.000000
_cell_angle_gamma 90.000000
_cell_volume 3713.207074
_symmetry_space_group_name_H-M "P 4/N M M"
_symmetry_group_IT_number 129
_symmetry_cell_setting 'tetragonal'
loop_
_space_group_symop_operation_xyz
x,y,z
1/2-y,x,z
1/2-x,1/2-y,z
y,1/2-x,z
1/2+x,-y,-z
-x,1/2+y,-z
1/2+y,1/2+x,-z
-y,-x,-z
-x,-y,-z
1/2+y,-x,-z
1/2+x,1/2+y,-z
-y,1/2+x,-z
1/2-x,y,z
x,1/2-y,z
1/2-y,1/2-x,z
y,x,z
loop_
_atom_site_type_symbol
_atom_site_label
_atom_site_fract_x
_atom_site_fract_y
_atom_site_fract_z
Si Si1 0.502046 0.901661 0.448494
Si Si2 0.320372 0.815678 0.214500
Si Si3 0.551138 0.178476 0.267249
Si Si4 0.997104 0.598416 0.032016
O O1 0.565095 0.934906 0.491059
O O2 0.486500 0.844622 0.566477
O O3 0.501559 0.887970 0.240266
O O4 0.451355 0.951355 0.500000
O O5 0.250000 0.813337 0.269372
O O6 0.347545 0.750000 0.263330
O O7 0.345492 0.879366 0.280283
O O8 0.320255 0.820255 0.000000
O O9 0.554663 0.250000 0.255630
O O10 0.518561 0.151796 0.093938
O O11 0.933037 0.566964 0.987101
O O12 0.046528 0.546528 0.000000
#
# Coordination Sequence:
#
# PCOD9565325 Si02
#       4
#    16  16  16  16
#     4  10  20  35  55  74  97 133 178 220 259 313
#     4   8  15  28  44  62  90 134 178 210 247 294
#     4  11  21  32  51  78 106 133 171 225 273 314
#     4  10  19  34  57  75  95 133 177 219 262 313
#
# _framework density 17.235775
#
# number of rings (size 3 to 8) (size 9 to 14) (size 15 to 20)
#    0.000    2.250    2.500    2.250    0.000    1.000 
#    0.000    1.250    0.000    0.000    0.000    7.000 
#    0.000    8.000    0.000   22.000    0.000    0.000 
#
# Total GULP energy -357029.579250 kJ/mol
# GULP energy per Si atom -5578.587176 kJ/mol
# Density = 1.719655 g / cm^3
# Si number density = 17.235775 Si / 1000 Ang^3
#
#
#
# Elastic Constant Matrix: (Units=GPa)
#
#
# Indices 1 2 3 4 5 6 
#
# 1 78.5172 49.5706 43.7232 0.0000 0.0000 0.0000
# 2 49.5706 78.5172 43.7232 0.0000 0.0000 0.0000
# 3 43.7232 43.7232 90.3526 0.0000 0.0000 0.0000
# 4 0.0000 0.0000 0.0000 15.3183 0.0000 0.0000
# 5 0.0000 0.0000 0.0000 0.0000 15.3183 0.0000
# 6 0.0000 0.0000 0.0000 0.0000 0.0000 25.6521
#
#
#
# Elastic Compliance Matrix: (Units=1/GPa)
#
#
# Indices 1 2 3 4 5 6 
#
# 1 0.023103 -0.011444 -0.005642 0.000000 0.000000 0.000000
# 2 -0.011444 0.023103 -0.005642 0.000000 0.000000 0.000000
# 3 -0.005642 -0.005642 0.016528 0.000000 0.000000 0.000000
# 4 0.000000 0.000000 0.000000 0.065281 0.000000 0.000000
# 5 0.000000 0.000000 0.000000 0.000000 0.065281 0.000000
# 6 0.000000 0.000000 0.000000 0.000000 0.000000 0.038983
#
#
# Mechanical properties :
#
#
# Convention : Reuss Voigt Hill
#
# Bulk Modulus (GPa) = 57.87616 57.93567 57.90591
# Shear Modulus (GPa) = 17.63706 18.61576 18.12641
#
# Velocity S-wave (km/s) = 3.20235 3.29000 3.24647
# Velocity P-wave (km/s) = 6.87934 6.93677 6.90811
#
# Compressibility (1/GPa) = 0.01727827
#
# Stress axis : x y z
#
# Youngs Moduli (GPa) = 43.28499 43.28499 60.50249
#
# Poissons Ratio (x) = 0.49534 0.34135
# Poissons Ratio (y) = 0.49534 0.34135
# Poissons Ratio (z) = 0.24421 0.24421
#
# Static dielectric constant tensor:
#      x y z
#    x 1.633490 0.000000 0.000000 
#    y 0.000000 1.633490 0.000000 
#    z 0.000000 0.000000 1.612600 
# 
# From -- ./inp_files/2080.got.cif
#   From: 2010.05.17/outbox.cif.g08.bks.cpg/sg129_2_cif.got.tgz:2080.got - 2010.05.20 12:12:06.
