data_PCOD9565020
_publ_section_title
;
Structure prediction by ZEFSAII (Michael W. Deem and Ramdas Pophale) SiO2 
 PCOD9565020
Probable space group: P 4/M N C
;
_chemical_formula_sum "Si O2"
_cell_formula_units_Z 76
_cell_length_a 11.663233
_cell_length_b 11.663233
_cell_length_c 31.964627
_cell_angle_alpha 90.000000
_cell_angle_beta 90.000000
_cell_angle_gamma 90.000000
_cell_volume 4348.180304
_symmetry_space_group_name_H-M "P 4/M N C"
_symmetry_group_IT_number 128
_symmetry_cell_setting 'tetragonal'
loop_
_space_group_symop_operation_xyz
x,y,z
-y,x,z
-x,-y,z
y,-x,z
1/2+x,1/2-y,1/2-z
1/2-x,1/2+y,1/2-z
1/2+y,1/2+x,1/2-z
1/2-y,1/2-x,1/2-z
-x,-y,-z
y,-x,-z
x,y,-z
-y,x,-z
1/2-x,1/2+y,1/2+z
1/2+x,1/2-y,1/2+z
1/2-y,1/2-x,1/2+z
1/2+y,1/2+x,1/2+z
loop_
_atom_site_type_symbol
_atom_site_label
_atom_site_fract_x
_atom_site_fract_y
_atom_site_fract_z
Si Si1 0.830525 0.698108 0.164141
Si Si2 0.092720 0.172108 0.407325
Si Si3 0.000000 0.000000 0.306118
Si Si4 0.829742 0.091714 0.500000
Si Si5 0.004054 0.740447 0.716941
Si Si6 0.293813 0.076816 0.811025
O O1 0.758699 0.641206 0.126716
O O2 0.797349 0.623466 0.204958
O O3 0.791906 0.828390 0.171069
O O4 0.967076 0.690418 0.159701
O O5 0.117991 0.219002 0.454204
O O6 0.955610 0.148382 0.402957
O O7 0.969414 0.137303 0.303351
O O8 0.955545 0.148281 0.500000
O O9 0.028930 0.749633 0.766240
O O10 0.088310 0.643750 0.698384
#
# Coordination Sequence:
#
# PCOD9565020 Si02
#       6
#    16  16   4   8  16  16
#     4  12  23  38  54  78 111 151 196 241 286 343
#     4   9  18  32  58  89 118 148 189 240 298 359
#     4  12  20  36  64  80 104 137 196 241 276 352
#     4   7  12  28  52  86 120 145 176 233 301 357
#     4  11  23  38  57  79 107 146 191 245 294 332
#     4  11  25  39  54  78 110 149 194 244 291 334
#
# _framework density 17.478577000000001
#
# number of rings (size 3 to 8) (size 9 to 14) (size 15 to 20)
#    0.000    1.579    2.105    5.053    2.947    2.105 
#    0.000    0.000    0.000    1.263    0.000    7.368 
#    0.000    1.684    0.000    0.000    0.000    0.000 
#
# Total GULP energy -423363.331084 kJ/mol
# GULP energy per Si atom -5570.570146 kJ/mol
# Density = 1.743880 g / cm^3
# Si number density = 17.478577 Si / 1000 Ang^3
#
#
#
# Elastic Constant Matrix: (Units=GPa)
#
#
# Indices 1 2 3 4 5 6 
#
# 1 104.4187 21.7678 42.4439 0.0000 0.0000 0.0000
# 2 21.7678 104.4187 42.4439 0.0000 0.0000 0.0000
# 3 42.4439 42.4439 122.9388 0.0000 0.0000 0.0000
# 4 0.0000 0.0000 0.0000 19.6296 0.0000 0.0000
# 5 0.0000 0.0000 0.0000 0.0000 19.6296 0.0000
# 6 0.0000 0.0000 0.0000 0.0000 0.0000 23.2946
#
#
#
# Elastic Compliance Matrix: (Units=1/GPa)
#
#
# Indices 1 2 3 4 5 6 
#
# 1 0.011211 -0.000888 -0.003564 0.000000 0.000000 0.000000
# 2 -0.000888 0.011211 -0.003564 0.000000 0.000000 0.000000
# 3 -0.003564 -0.003564 0.010595 0.000000 0.000000 0.000000
# 4 0.000000 0.000000 0.000000 0.050944 0.000000 0.000000
# 5 0.000000 0.000000 0.000000 0.000000 0.050944 0.000000
# 6 0.000000 0.000000 0.000000 0.000000 0.000000 0.042928
#
#
# Mechanical properties :
#
#
# Convention : Reuss Voigt Hill
#
# Bulk Modulus (GPa) = 58.87755 60.56528 59.72142
# Shear Modulus (GPa) = 25.05957 27.51878 26.28918
#
# Velocity S-wave (km/s) = 3.79057 3.97221 3.88245
# Velocity P-wave (km/s) = 7.27438 7.46755 7.37160
#
# Compressibility (1/GPa) = 0.01698440
#
# Stress axis : x y z
#
# Youngs Moduli (GPa) = 89.20135 89.20135 94.38605
#
# Poissons Ratio (x) = 0.07925 0.33636
# Poissons Ratio (y) = 0.07925 0.33636
# Poissons Ratio (z) = 0.31788 0.31788
#
# Static dielectric constant tensor:
#      x y z
#    x 1.605150 0.000000 0.000000 
#    y 0.000000 1.605150 0.000000 
#    z 0.000000 0.000000 1.655390 
# 
# From -- ./inp_files/7214.got.cif
#   From: 2010.05.17/outbox.cif.g08.bks.cpg/sg128_4_cif.got.tgz:7214.got - 2010.05.20 12:07:25.
