data_PCOD9565568
_publ_section_title
;
Structure prediction by ZEFSAII (Michael W. Deem and Ramdas Pophale) SiO2 
 PCOD9565568
Probable space group: P 4/N C C
;
_chemical_formula_sum "Si O2"
_cell_formula_units_Z 96
_cell_length_a 19.552552
_cell_length_b 19.552552
_cell_length_c 11.752877
_cell_angle_alpha 90.000000
_cell_angle_beta 90.000000
_cell_angle_gamma 90.000000
_cell_volume 4493.151788
_symmetry_space_group_name_H-M "P 4/N C C"
_symmetry_group_IT_number 130
_symmetry_cell_setting 'tetragonal'
loop_
_space_group_symop_operation_xyz
x,y,z
1/2-y,x,z
1/2-x,1/2-y,z
y,1/2-x,z
1/2+x,-y,1/2-z
-x,1/2+y,1/2-z
1/2+y,1/2+x,1/2-z
-y,-x,1/2-z
-x,-y,-z
1/2+y,-x,-z
1/2+x,1/2+y,-z
-y,1/2+x,-z
1/2-x,y,1/2+z
x,1/2-y,1/2+z
1/2-y,1/2-x,1/2+z
y,x,1/2+z
loop_
_atom_site_type_symbol
_atom_site_label
_atom_site_fract_x
_atom_site_fract_y
_atom_site_fract_z
Si Si1 0.357919 0.219376 0.881073
Si Si2 0.973610 0.825843 0.793693
Si Si3 0.978210 0.318616 0.219243
Si Si4 0.492345 0.935218 0.115961
Si Si5 0.089939 0.938875 0.409404
Si Si6 0.595115 0.867649 0.930901
O O1 0.331468 0.294945 0.859344
O O2 0.420048 0.203673 0.798975
O O3 0.375656 0.200723 0.011509
O O4 0.006807 0.890809 0.729765
O O5 0.926403 0.851575 0.897191
O O6 0.023204 0.761269 0.810923
O O7 0.965065 0.340770 0.349996
O O8 0.926710 0.364939 0.144157
O O9 0.051748 0.347479 0.179422
O O10 0.529684 0.008204 0.129159
O O11 0.421559 0.937512 0.044775
O O12 0.543757 0.897538 0.026161
#
# Coordination Sequence:
#
# PCOD9565568 Si02
#       6
#    16  16  16  16  16  16
#     4  10  21  32  43  63 105 153 194 227 264 309
#     4  11  20  32  52  81 106 141 198 236 267 321
#     4  10  19  32  55  74 108 151 182 229 281 329
#     4   9  19  34  56  75 107 147 188 230 272 342
#     4   9  18  36  52  75 104 154 178 222 295 336
#     4  10  19  32  49  76 105 146 191 231 265 310
#
# _framework density 21.365848
#
# number of rings (size 3 to 8) (size 9 to 14) (size 15 to 20)
#    0.000    2.167    1.667    2.000    2.333    0.000 
#    0.000    1.667    0.000    0.000    0.000    0.000 
#    0.000    0.667    4.667    0.000    0.000    0.000 
#
# Total GULP energy -536078.619631 kJ/mol
# GULP energy per Si atom -5584.152288 kJ/mol
# Density = 2.131722 g / cm^3
# Si number density = 21.365848 Si / 1000 Ang^3
#
#
#
# Elastic Constant Matrix: (Units=GPa)
#
#
# Indices 1 2 3 4 5 6 
#
# 1 71.6017 0.1493 8.1667 0.0000 0.0000 0.0000
# 2 0.1493 71.6017 8.1667 0.0000 0.0000 0.0000
# 3 8.1667 8.1667 88.5280 0.0000 0.0000 0.0000
# 4 0.0000 0.0000 0.0000 23.0965 0.0000 0.0000
# 5 0.0000 0.0000 0.0000 0.0000 23.0965 0.0000
# 6 0.0000 0.0000 0.0000 0.0000 0.0000 2.7535
#
#
#
# Elastic Compliance Matrix: (Units=1/GPa)
#
#
# Indices 1 2 3 4 5 6 
#
# 1 0.014116 0.000120 -0.001313 0.000000 0.000000 0.000000
# 2 0.000120 0.014116 -0.001313 0.000000 0.000000 0.000000
# 3 -0.001313 -0.001313 0.011538 0.000000 0.000000 0.000000
# 4 0.000000 0.000000 0.000000 0.043297 0.000000 0.000000
# 5 0.000000 0.000000 0.000000 0.000000 0.043297 0.000000
# 6 0.000000 0.000000 0.000000 0.000000 0.000000 0.363172
#
#
# Mechanical properties :
#
#
# Convention : Reuss Voigt Hill
#
# Bulk Modulus (GPa) = 28.77108 29.41077 29.09093
# Shear Modulus (GPa) = 9.87883 24.13923 17.00903
#
# Velocity S-wave (km/s) = 2.15260 3.36490 2.82456
# Velocity P-wave (km/s) = 4.43547 5.37512 4.92775
#
# Compressibility (1/GPa) = 0.03475713
#
# Stress axis : x y z
#
# Youngs Moduli (GPa) = 70.84320 70.84320 86.66895
#
# Poissons Ratio (x) = -0.00853 0.11382
# Poissons Ratio (y) = -0.00853 0.11382
# Poissons Ratio (z) = 0.09304 0.09304
#
# Static dielectric constant tensor:
#      x y z
#    x 1.814820 0.000000 0.000000 
#    y 0.000000 1.814820 0.000000 
#    z 0.000000 0.000000 1.866690 
# 
# From -- ./inp_files/1769.got.cif
#   From: 2010.05.17/outbox.cif.g08.bks.cpg/sg130_1_cif.got.tgz:1769.got - 2010.05.20 12:17:35.
