data_PCOD9565605
_publ_section_title
;
Structure prediction by ZEFSAII (Michael W. Deem and Ramdas Pophale) SiO2 
 PCOD9565605
Probable space group: P 4/N C C
;
_chemical_formula_sum "Si O2"
_cell_formula_units_Z 56
_cell_length_a 21.487121
_cell_length_b 21.487121
_cell_length_c 5.372047
_cell_angle_alpha 90.000000
_cell_angle_beta 90.000000
_cell_angle_gamma 90.000000
_cell_volume 2480.254593
_symmetry_space_group_name_H-M "P 4/N C C"
_symmetry_group_IT_number 130
_symmetry_cell_setting 'tetragonal'
loop_
_space_group_symop_operation_xyz
x,y,z
1/2-y,x,z
1/2-x,1/2-y,z
y,1/2-x,z
1/2+x,-y,1/2-z
-x,1/2+y,1/2-z
1/2+y,1/2+x,1/2-z
-y,-x,1/2-z
-x,-y,-z
1/2+y,-x,-z
1/2+x,1/2+y,-z
-y,1/2+x,-z
1/2-x,y,1/2+z
x,1/2-y,1/2+z
1/2-y,1/2-x,1/2+z
y,x,1/2+z
loop_
_atom_site_type_symbol
_atom_site_label
_atom_site_fract_x
_atom_site_fract_y
_atom_site_fract_z
Si Si1 0.037662 0.408904 0.527883
Si Si2 0.718301 0.057066 0.503901
Si Si3 0.589708 0.089708 0.250000
Si Si4 0.767588 0.582976 0.007053
O O1 0.050685 0.429290 0.810255
O O2 0.062415 0.338931 0.495789
O O3 0.966303 0.412299 0.447383
O O4 0.734114 0.077549 0.784073
O O5 0.652762 0.080108 0.403568
O O6 0.725915 0.981441 0.507585
O O7 0.749473 0.617291 0.757606
#
# Coordination Sequence:
#
# PCOD9565605 Si02
#       4
#    16  16   8  16
#     4  12  26  39  60 101 140 164 204 269 337 399
#     4  10  22  39  64  86 113 175 226 257 305 390
#     4  12  24  42  68  91 134 176 214 265 340 398
#     4  10  19  41  63  82 122 180 214 247 301 397
#
# _framework density 22.578327000000002
#
# number of rings (size 3 to 8) (size 9 to 14) (size 15 to 20)
#    0.000    1.143    5.714    2.571    4.000    3.429 
#    0.000    0.000    0.000    2.571    0.000    0.000 
#    0.000   40.000    0.000    0.000    0.000    0.000 
#
# Total GULP energy -313294.861719 kJ/mol
# GULP energy per Si atom -5594.551102 kJ/mol
# Density = 2.252694 g / cm^3
# Si number density = 22.578327 Si / 1000 Ang^3
#
#
#
# Elastic Constant Matrix: (Units=GPa)
#
#
# Indices 1 2 3 4 5 6 
#
# 1 42.3883 7.3021 10.5830 0.0000 0.0000 0.0000
# 2 7.3021 42.3883 10.5830 0.0000 0.0000 0.0000
# 3 10.5830 10.5830 148.6161 0.0000 0.0000 0.0000
# 4 0.0000 0.0000 0.0000 6.0079 0.0000 0.0000
# 5 0.0000 0.0000 0.0000 0.0000 6.0079 0.0000
# 6 0.0000 0.0000 0.0000 0.0000 0.0000 -30.4746
#
#
#
# Elastic Compliance Matrix: (Units=1/GPa)
#
#
# Indices 1 2 3 4 5 6 
#
# 1 0.024628 -0.003874 -0.001478 0.000000 0.000000 0.000000
# 2 -0.003874 0.024628 -0.001478 0.000000 0.000000 0.000000
# 3 -0.001478 -0.001478 0.006939 0.000000 0.000000 0.000000
# 4 0.000000 0.000000 0.000000 0.166446 0.000000 0.000000
# 5 0.000000 0.000000 0.000000 0.000000 0.166446 0.000000
# 6 0.000000 0.000000 0.000000 0.000000 0.000000 -0.032814
#
#
# Mechanical properties :
#
#
# Convention : Reuss Voigt Hill
#
# Bulk Modulus (GPa) = 23.50957 32.25879 27.88418
# Shear Modulus (GPa) = 13.01710 9.96990 11.49350
#
# Velocity S-wave (km/s) = 2.40371 2.10363 2.25866
# Velocity P-wave (km/s) = 4.25897 4.49654 4.37937
#
# Compressibility (1/GPa) = 0.04253587
#
# Stress axis : x y z
#
# Youngs Moduli (GPa) = 40.60468 40.60468 144.10817
#
# Poissons Ratio (x) = 0.15728 0.21298
# Poissons Ratio (y) = 0.15728 0.21298
# Poissons Ratio (z) = 0.06001 0.06001
#
# Static dielectric constant tensor:
#      x y z
#    x 1.839690 0.000000 0.000000 
#    y 0.000000 1.839690 0.000000 
#    z 0.000000 0.000000 1.937180 
# 
# From -- ./inp_files/135.got.cif
#   From: 2010.05.17/outbox.cif.g08.bks.cpg/sg130_1_cif.got.tgz:135.got - 2010.05.20 12:17:35.
