data_PCOD9565604
_publ_section_title
;
Structure prediction by ZEFSAII (Michael W. Deem and Ramdas Pophale) SiO2 
 PCOD9565604
Probable space group: P 4/N C C
;
_chemical_formula_sum "Si O2"
_cell_formula_units_Z 52
_cell_length_a 13.007036
_cell_length_b 13.007036
_cell_length_c 14.943067
_cell_angle_alpha 90.000000
_cell_angle_beta 90.000000
_cell_angle_gamma 90.000000
_cell_volume 2528.112688
_symmetry_space_group_name_H-M "P 4/N C C"
_symmetry_group_IT_number 130
_symmetry_cell_setting 'tetragonal'
loop_
_space_group_symop_operation_xyz
x,y,z
1/2-y,x,z
1/2-x,1/2-y,z
y,1/2-x,z
1/2+x,-y,1/2-z
-x,1/2+y,1/2-z
1/2+y,1/2+x,1/2-z
-y,-x,1/2-z
-x,-y,-z
1/2+y,-x,-z
1/2+x,1/2+y,-z
-y,1/2+x,-z
1/2-x,y,1/2+z
x,1/2-y,1/2+z
1/2-y,1/2-x,1/2+z
y,x,1/2+z
loop_
_atom_site_type_symbol
_atom_site_label
_atom_site_fract_x
_atom_site_fract_y
_atom_site_fract_z
Si Si1 0.957700 0.179670 0.190772
Si Si2 0.416319 0.704939 0.001255
Si Si3 0.267043 0.419340 0.345836
Si Si4 0.750000 0.250000 0.250000
O O1 0.921106 0.078895 0.250000
O O2 0.979902 0.166853 0.086388
O O3 0.850889 0.243236 0.191116
O O4 0.038011 0.247827 0.245688
O O5 0.319833 0.628952 0.010115
O O6 0.485910 0.712887 0.089015
O O7 0.161346 0.357787 0.361474
#
# Coordination Sequence:
#
# PCOD9565604 Si02
#       4
#    16  16  16   4
#     4  10  19  40  64  93 120 167 212 260 322 373
#     4  11  21  40  69  97 127 162 217 277 319 374
#     4  11  26  44  59  91 140 173 210 266 325 385
#     4   8  16  36  62  92 124 146 206 282 310 356
#
# _framework density 20.568704
#
# number of rings (size 3 to 8) (size 9 to 14) (size 15 to 20)
#    0.923    0.615    3.077    3.692    0.000    3.692 
#    8.308    3.077    0.000    0.000    0.000    0.000 
#    0.000    0.000    0.000    0.000    0.000    0.000 
#
# Total GULP energy -289700.393073 kJ/mol
# GULP energy per Si atom -5571.161405 kJ/mol
# Density = 2.052189 g / cm^3
# Si number density = 20.568704 Si / 1000 Ang^3
#
#
#
# Elastic Constant Matrix: (Units=GPa)
#
#
# Indices 1 2 3 4 5 6 
#
# 1 37.3789 12.1006 -4.5446 0.0000 0.0000 0.0000
# 2 12.1006 37.3792 -4.5446 0.0000 0.0000 0.0000
# 3 -4.5446 -4.5446 110.0293 0.0000 0.0000 0.0000
# 4 0.0000 0.0000 0.0000 22.4237 0.0000 0.0000
# 5 0.0000 0.0000 0.0000 0.0000 22.4423 0.0000
# 6 0.0000 0.0000 0.0000 0.0000 0.0000 9.4015
#
#
#
# Elastic Compliance Matrix: (Units=1/GPa)
#
#
# Indices 1 2 3 4 5 6 
#
# 1 0.029962 -0.009597 0.000841 0.000000 0.000000 0.000000
# 2 -0.009597 0.029962 0.000841 0.000000 0.000000 0.000000
# 3 0.000841 0.000841 0.009158 0.000000 0.000000 0.000000
# 4 0.000000 0.000000 0.000000 0.044596 0.000000 0.000000
# 5 0.000000 0.000000 0.000000 0.000000 0.044559 0.000000
# 6 0.000000 0.000000 0.000000 0.000000 0.000000 0.106366
#
#
# Mechanical properties :
#
#
# Convention : Reuss Voigt Hill
#
# Bulk Modulus (GPa) = 18.77857 21.20113 19.98985
# Shear Modulus (GPa) = 16.76823 22.97191 19.87007
#
# Velocity S-wave (km/s) = 2.85832 3.34554 3.11148
# Velocity P-wave (km/s) = 4.47692 5.02527 4.75900
#
# Compressibility (1/GPa) = 0.05325219
#
# Stress axis : x y z
#
# Youngs Moduli (GPa) = 33.37535 33.37561 109.19442
#
# Poissons Ratio (x) = 0.32032 -0.09185
# Poissons Ratio (y) = 0.32031 -0.09185
# Poissons Ratio (z) = -0.02807 -0.02807
#
# Static dielectric constant tensor:
#      x y z
#    x 1.686610 0.000000 0.000000 
#    y 0.000000 1.686670 0.000000 
#    z 0.000000 0.000000 1.852930 
# 
# From -- ./inp_files/2117.got.cif
#   From: 2010.05.17/outbox.cif.g08.bks.cpg/sg130_2_cif.got.tgz:2117.got - 2010.05.20 12:17:35.
