data_PCOD9565526
_publ_section_title
;
Structure prediction by ZEFSAII (Michael W. Deem and Ramdas Pophale) SiO2 
 PCOD9565526
Probable space group: P 4/N M M
;
_chemical_formula_sum "Si O2"
_cell_formula_units_Z 128
_cell_length_a 18.000000
_cell_length_b 18.000000
_cell_length_c 24.000000
_cell_angle_alpha 90.000000
_cell_angle_beta 90.000000
_cell_angle_gamma 90.000000
_cell_volume 7776.000000
_symmetry_space_group_name_H-M "P 4/N M M"
_symmetry_group_IT_number 129
_symmetry_cell_setting 'tetragonal'
loop_
_space_group_symop_operation_xyz
x,y,z
1/2-y,x,z
1/2-x,1/2-y,z
y,1/2-x,z
1/2+x,-y,-z
-x,1/2+y,-z
1/2+y,1/2+x,-z
-y,-x,-z
-x,-y,-z
1/2+y,-x,-z
1/2+x,1/2+y,-z
-y,1/2+x,-z
1/2-x,y,z
x,1/2-y,z
1/2-y,1/2-x,z
y,x,z
loop_
_atom_site_type_symbol
_atom_site_label
_atom_site_fract_x
_atom_site_fract_y
_atom_site_fract_z
Si Si1 0.049437 0.663334 0.525390
Si Si2 0.044055 0.836857 0.079217
Si Si3 0.162977 0.943937 0.129243
Si Si4 0.074023 0.551559 0.240519
Si Si5 0.336683 0.457023 0.807649
Si Si6 0.446367 0.927356 0.635065
Si Si7 0.337601 0.044737 0.027149
Si Si8 0.041521 0.337078 0.583695
O O1 0.118288 0.618288 0.500000
O O2 0.065031 0.750000 0.527933
O O3 0.036275 0.630375 0.586357
O O4 0.983013 0.651934 0.480973
O O5 0.060789 0.750000 0.073888
O O6 0.115933 0.878937 0.100773
O O7 0.982513 0.845576 0.127859
O O8 0.012281 0.864138 0.020523
O O9 0.250000 0.928457 0.128426
O O10 0.133471 0.954355 0.191522
O O11 0.148224 0.013549 0.088768
O O12 0.104533 0.558142 0.302898
O O13 0.019384 0.480617 0.237254
O O14 0.021116 0.622045 0.227424
O O15 0.250000 0.451928 0.794870
O O16 0.381358 0.381358 0.798348
O O17 0.511285 0.988715 0.634688
O O18 0.372518 0.973816 0.618945
O O19 0.250000 0.052554 0.019671
O O20 0.379033 0.120968 0.018627
O O21 0.050548 0.250000 0.594284
O O22 0.114522 0.385479 0.595198
#
# Coordination Sequence:
#
# PCOD9565526 Si02
#       8
#    16  16  16  16  16  16  16  16
#     4   9  17  29  46  68  93 120 150 186 227 270
#     4   9  18  32  48  67  92 121 152 186 227 274
#     4  10  20  32  48  71  95 120 153 191 229 272
#     4   9  18  32  48  65  89 122 155 189 230 271
#     4   9  17  29  45  65  89 117 150 188 229 274
#     4   9  17  30  48  67  88 119 157 191 225 267
#     4  10  20  33  50  72  96 122 153 188 228 276
#     4   9  17  29  46  69  96 123 151 184 222 266
#
# _framework density 16.460905
#
# number of rings (size 3 to 8) (size 9 to 14) (size 15 to 20)
#    0.000    2.750    0.000    1.500    0.000    5.250 
#    0.000    0.000    0.000    4.500    0.000   10.500 
#    0.000    0.000    0.000   23.250    0.000    0.000 
#
# Total GULP energy -713031.896406 kJ/mol
# GULP energy per Si atom -5570.561691 kJ/mol
# Density = 1.642344 g / cm^3
# Si number density = 16.460905 Si / 1000 Ang^3
#
#
#
# Elastic Constant Matrix: (Units=GPa)
#
#
# Indices 1 2 3 4 5 6 
#
# 1 18.6912 21.0937 8.3462 0.0000 0.0000 0.0000
# 2 21.0937 18.6912 8.3462 0.0000 0.0000 0.0000
# 3 8.3462 8.3462 103.6188 0.0000 0.0000 0.0000
# 4 0.0000 0.0000 0.0000 8.2322 0.0000 0.0000
# 5 0.0000 0.0000 0.0000 0.0000 8.2322 0.0000
# 6 0.0000 0.0000 0.0000 0.0000 0.0000 17.4211
#
#
#
# Elastic Compliance Matrix: (Units=1/GPa)
#
#
# Indices 1 2 3 4 5 6 
#
# 1 -0.195111 0.221126 -0.002095 0.000000 0.000000 0.000000
# 2 0.221126 -0.195111 -0.002095 0.000000 0.000000 0.000000
# 3 -0.002095 -0.002095 0.009988 0.000000 0.000000 0.000000
# 4 0.000000 0.000000 0.000000 0.121474 0.000000 0.000000
# 5 0.000000 0.000000 0.000000 0.000000 0.121474 0.000000
# 6 0.000000 0.000000 0.000000 0.000000 0.000000 0.057402
#
#
# Mechanical properties :
#
#
# Convention : Reuss Voigt Hill
#
# Bulk Modulus (GPa) = 18.64440 24.06372 21.35406
# Shear Modulus (GPa) = -10.08318 13.65811 1.78747
#
# Velocity S-wave (km/s) = -2.47767 2.88363 1.04319
# Velocity P-wave (km/s) = 1.77931 5.07322 3.80155
#
# Compressibility (1/GPa) = 0.05363539
#
# Stress axis : x y z
#
# Youngs Moduli (GPa) = -5.12528 -5.12528 100.11702
#
# Poissons Ratio (x) = 1.13333 0.20978
# Poissons Ratio (y) = 1.13333 0.20978
# Poissons Ratio (z) = -0.01074 -0.01074
#
# Static dielectric constant tensor:
#      x y z
#    x 1.531280 0.000000 0.000000 
#    y 0.000000 1.531280 0.000000 
#    z 0.000000 0.000000 1.575870 
# 
# From -- ./inp_files/7279.got.cif
#   From: 2010.05.17/outbox.ucp.g08.bks.cvg/sg129_4_cif.got.tgz:7279.got - 2010.06.11 11:38:03.
