data_PCOD9565413
_publ_section_title
;
Structure prediction by ZEFSAII (Michael W. Deem and Ramdas Pophale) SiO2 
 PCOD9565413
Probable space group: P 4/N M M
;
_chemical_formula_sum "Si O2"
_cell_formula_units_Z 96
_cell_length_a 23.239902
_cell_length_b 23.239902
_cell_length_c 10.217427
_cell_angle_alpha 90.000000
_cell_angle_beta 90.000000
_cell_angle_gamma 90.000000
_cell_volume 5518.361260
_symmetry_space_group_name_H-M "P 4/N M M"
_symmetry_group_IT_number 129
_symmetry_cell_setting 'tetragonal'
loop_
_space_group_symop_operation_xyz
x,y,z
1/2-y,x,z
1/2-x,1/2-y,z
y,1/2-x,z
1/2+x,-y,-z
-x,1/2+y,-z
1/2+y,1/2+x,-z
-y,-x,-z
-x,-y,-z
1/2+y,-x,-z
1/2+x,1/2+y,-z
-y,1/2+x,-z
1/2-x,y,z
x,1/2-y,z
1/2-y,1/2-x,z
y,x,z
loop_
_atom_site_type_symbol
_atom_site_label
_atom_site_fract_x
_atom_site_fract_y
_atom_site_fract_z
Si Si1 0.680568 0.005003 0.181791
Si Si2 0.981313 0.680676 0.470153
Si Si3 0.984253 0.610808 0.920391
Si Si4 0.121808 0.617216 0.144612
Si Si5 0.908779 0.818375 0.715539
Si Si6 0.182079 0.603490 0.412796
O O1 0.750000 0.002055 0.164105
O O2 0.663181 0.975892 0.319276
O O3 0.658671 0.070787 0.192405
O O4 0.646042 0.981908 0.056500
O O5 0.985153 0.750000 0.466635
O O6 0.041125 0.660518 0.535838
O O7 0.930335 0.667067 0.569279
O O8 0.947961 0.552040 0.928811
O O9 0.953466 0.650936 0.812922
O O10 0.050917 0.601983 0.881075
O O11 0.167618 0.612784 0.260345
O O12 0.139355 0.639355 0.000000
O O13 0.909415 0.750000 0.733190
O O14 0.847186 0.847186 0.738984
O O15 0.150677 0.650677 0.500000
O O16 0.250000 0.605808 0.432031
#
# Coordination Sequence:
#
# PCOD9565413 Si02
#       6
#    16  16  16  16  16  16
#     4  10  20  34  54  78 107 143 184 226 273 337
#     4   9  18  33  54  77 104 139 182 225 268 330
#     4  10  21  36  55  81 112 147 185 230 284 334
#     4  10  21  34  54  81 109 145 184 227 280 333
#     4  10  20  35  56  82 111 144 184 228 279 339
#     4  11  21  36  57  80 109 146 191 237 284 333
#
# _framework density 17.396469
#
# number of rings (size 3 to 8) (size 9 to 14) (size 15 to 20)
#    0.000    2.000    3.333    0.500    0.000    6.667 
#    0.000    0.000    0.000    3.000    0.000    3.500 
#    0.000    4.000    0.000    0.000    0.000    0.000 
#
# Total GULP energy -534989.228700 kJ/mol
# GULP energy per Si atom -5572.804466 kJ/mol
# Density = 1.735687 g / cm^3
# Si number density = 17.396469 Si / 1000 Ang^3
#
#
#
# Elastic Constant Matrix: (Units=GPa)
#
#
# Indices 1 2 3 4 5 6 
#
# 1 52.4374 24.0529 12.8438 0.0000 0.0000 0.0000
# 2 24.0529 52.4374 12.8438 0.0000 0.0000 0.0000
# 3 12.8438 12.8438 84.7507 0.0000 0.0000 0.0000
# 4 0.0000 0.0000 0.0000 23.3924 0.0000 0.0000
# 5 0.0000 0.0000 0.0000 0.0000 23.3924 0.0000
# 6 0.0000 0.0000 0.0000 0.0000 0.0000 17.2818
#
#
#
# Elastic Compliance Matrix: (Units=1/GPa)
#
#
# Indices 1 2 3 4 5 6 
#
# 1 0.024503 -0.010728 -0.002088 0.000000 0.000000 0.000000
# 2 -0.010728 0.024503 -0.002088 0.000000 0.000000 0.000000
# 3 -0.002088 -0.002088 0.012432 0.000000 0.000000 0.000000
# 4 0.000000 0.000000 0.000000 0.042749 0.000000 0.000000
# 5 0.000000 0.000000 0.000000 0.000000 0.042749 0.000000
# 6 0.000000 0.000000 0.000000 0.000000 0.000000 0.057864
#
#
# Mechanical properties :
#
#
# Convention : Reuss Voigt Hill
#
# Bulk Modulus (GPa) = 31.61440 32.12296 31.86868
# Shear Modulus (GPa) = 20.39574 22.13896 21.26735
#
# Velocity S-wave (km/s) = 3.42776 3.57124 3.50023
# Velocity P-wave (km/s) = 5.82051 5.95905 5.89019
#
# Compressibility (1/GPa) = 0.03163116
#
# Stress axis : x y z
#
# Youngs Moduli (GPa) = 40.81204 40.81204 80.43732
#
# Poissons Ratio (x) = 0.43783 0.16791
# Poissons Ratio (y) = 0.43783 0.16791
# Poissons Ratio (z) = 0.08520 0.08520
#
# Static dielectric constant tensor:
#      x y z
#    x 1.575080 0.000000 0.000000 
#    y 0.000000 1.575080 0.000000 
#    z 0.000000 0.000000 1.621820 
# 
# From -- ./inp_files/2643.got.cif
#   From: 2010.05.17/outbox.cif.g08.bks.cpg/sg129_2_cif.got.tgz:2643.got - 2010.05.20 12:12:06.
