data_PCOD9565813
_publ_section_title
;
Structure prediction by ZEFSAII (Michael W. Deem and Ramdas Pophale) SiO2 
 PCOD9565813
Probable space group: P 4/N C C
;
_chemical_formula_sum "Si O2"
_cell_formula_units_Z 88
_cell_length_a 11.879556
_cell_length_b 11.879556
_cell_length_c 28.424174
_cell_angle_alpha 90.000000
_cell_angle_beta 90.000000
_cell_angle_gamma 90.000000
_cell_volume 4011.328889
_symmetry_space_group_name_H-M "P 4/N C C"
_symmetry_group_IT_number 130
_symmetry_cell_setting 'tetragonal'
loop_
_space_group_symop_operation_xyz
x,y,z
1/2-y,x,z
1/2-x,1/2-y,z
y,1/2-x,z
1/2+x,-y,1/2-z
-x,1/2+y,1/2-z
1/2+y,1/2+x,1/2-z
-y,-x,1/2-z
-x,-y,-z
1/2+y,-x,-z
1/2+x,1/2+y,-z
-y,1/2+x,-z
1/2-x,y,1/2+z
x,1/2-y,1/2+z
1/2-y,1/2-x,1/2+z
y,x,1/2+z
loop_
_atom_site_type_symbol
_atom_site_label
_atom_site_fract_x
_atom_site_fract_y
_atom_site_fract_z
Si Si1 0.352595 0.601858 0.009096
Si Si2 0.750000 0.750000 0.078610
Si Si3 0.543180 0.330964 0.682925
Si Si4 0.959258 0.091324 0.156271
Si Si5 0.984973 0.245248 0.790574
Si Si6 0.250000 0.250000 0.804524
Si Si7 0.568417 0.936974 0.067979
O O1 0.433172 0.593168 0.054323
O O2 0.218901 0.611001 0.016323
O O3 0.381646 0.494510 0.976893
O O4 0.682408 0.870871 0.078744
O O5 0.548899 0.224388 0.649056
O O6 0.441724 0.415604 0.672513
O O7 0.527620 0.280793 0.735316
O O8 0.656093 0.404967 0.683010
O O9 0.869079 0.054978 0.195545
O O10 0.932243 0.017637 0.110849
O O11 0.113729 0.226912 0.804276
#
# Coordination Sequence:
#
# PCOD9565813 Si02
#       7
#    16   4  16  16  16   4  16
#     4  10  22  46  75 106 143 185 240 295 371 457
#     4  12  24  49  64 108 153 184 246 308 365 460
#     4  11  26  46  69 101 146 194 247 308 371 445
#     4  12  27  45  70 104 143 192 250 311 372 446
#     4  11  24  44  71 103 143 193 247 301 383 437
#     4  12  20  41  76 104 125 184 246 312 353 448
#     4  11  26  43  74 106 145 194 239 303 376 446
#
# _framework density 21.937866
#
# number of rings (size 3 to 8) (size 9 to 14) (size 15 to 20)
#    0.000    0.909    3.636    2.182    7.636    2.545 
#    3.273    0.000    0.000    0.000    0.000    0.000 
#    0.000    0.000    0.000    0.000    0.000    0.000 
#
# Total GULP energy -490573.243818 kJ/mol
# GULP energy per Si atom -5574.695952 kJ/mol
# Density = 2.188793 g / cm^3
# Si number density = 21.937866 Si / 1000 Ang^3
#
#
#
# Elastic Constant Matrix: (Units=GPa)
#
#
# Indices 1 2 3 4 5 6 
#
# 1 136.9620 19.8943 22.1296 0.0000 0.0000 0.0000
# 2 19.8943 136.9620 22.1296 0.0000 0.0000 0.0000
# 3 22.1296 22.1296 49.0556 0.0000 0.0000 0.0000
# 4 0.0000 0.0000 0.0000 74.6695 0.0000 0.0000
# 5 0.0000 0.0000 0.0000 0.0000 74.6695 0.0000
# 6 0.0000 0.0000 0.0000 0.0000 0.0000 45.0372
#
#
#
# Elastic Compliance Matrix: (Units=1/GPa)
#
#
# Indices 1 2 3 4 5 6 
#
# 1 0.007924 -0.000618 -0.003295 0.000000 0.000000 0.000000
# 2 -0.000618 0.007924 -0.003295 0.000000 0.000000 0.000000
# 3 -0.003295 -0.003295 0.023358 0.000000 0.000000 0.000000
# 4 0.000000 0.000000 0.000000 0.013392 0.000000 0.000000
# 5 0.000000 0.000000 0.000000 0.000000 0.013392 0.000000
# 6 0.000000 0.000000 0.000000 0.000000 0.000000 0.022204
#
#
# Mechanical properties :
#
#
# Convention : Reuss Voigt Hill
#
# Bulk Modulus (GPa) = 40.34413 50.14299 45.24356
# Shear Modulus (GPa) = 45.09585 56.13032 50.61308
#
# Velocity S-wave (km/s) = 4.53881 5.06375 4.80845
# Velocity P-wave (km/s) = 6.77479 7.55614 7.17611
#
# Compressibility (1/GPa) = 0.02478675
#
# Stress axis : x y z
#
# Youngs Moduli (GPa) = 126.20542 126.20542 42.81139
#
# Poissons Ratio (x) = 0.07805 0.14108
# Poissons Ratio (y) = 0.07805 0.14108
# Poissons Ratio (z) = 0.41590 0.41590
#
# Static dielectric constant tensor:
#      x y z
#    x 1.766390 0.000000 0.000000 
#    y 0.000000 1.766390 0.000000 
#    z 0.000000 0.000000 1.850420 
# 
# From -- ./inp_files/4900.got.cif
#   From: 2010.05.17/outbox.cif.g08.bks.cpg/sg130_3_cif.got.tgz:4900.got - 2010.05.20 12:17:35.
