data_PCOD9565664
_publ_section_title
;
Structure prediction by ZEFSAII (Michael W. Deem and Ramdas Pophale) SiO2 
 PCOD9565664
Probable space group: P 4/N C C
;
_chemical_formula_sum "Si O2"
_cell_formula_units_Z 128
_cell_length_a 22.629362
_cell_length_b 22.629362
_cell_length_c 12.389174
_cell_angle_alpha 90.000000
_cell_angle_beta 90.000000
_cell_angle_gamma 90.000000
_cell_volume 6344.347639
_symmetry_space_group_name_H-M "P 4/N C C"
_symmetry_group_IT_number 130
_symmetry_cell_setting 'tetragonal'
loop_
_space_group_symop_operation_xyz
x,y,z
1/2-y,x,z
1/2-x,1/2-y,z
y,1/2-x,z
1/2+x,-y,1/2-z
-x,1/2+y,1/2-z
1/2+y,1/2+x,1/2-z
-y,-x,1/2-z
-x,-y,-z
1/2+y,-x,-z
1/2+x,1/2+y,-z
-y,1/2+x,-z
1/2-x,y,1/2+z
x,1/2-y,1/2+z
1/2-y,1/2-x,1/2+z
y,x,1/2+z
loop_
_atom_site_type_symbol
_atom_site_label
_atom_site_fract_x
_atom_site_fract_y
_atom_site_fract_z
Si Si1 0.105226 0.273216 0.677886
Si Si2 0.475355 0.718957 0.911695
Si Si3 0.385888 0.355797 0.785009
Si Si4 0.903474 0.009232 0.788751
Si Si5 0.189750 0.900385 0.793518
Si Si6 0.417706 0.821778 0.624774
Si Si7 0.298316 0.332678 0.467108
Si Si8 0.152898 0.573636 0.529954
O O1 0.106320 0.327567 0.760253
O O2 0.115103 0.209158 0.729072
O O3 0.155402 0.292155 0.593072
O O4 0.043721 0.271435 0.613898
O O5 0.445514 0.689319 0.807012
O O6 0.444777 0.782281 0.930796
O O7 0.461904 0.685679 0.023266
O O8 0.442399 0.389909 0.741289
O O9 0.382931 0.336787 0.910101
O O10 0.966613 0.033388 0.750000
O O11 0.856409 0.048078 0.718971
O O12 0.891120 0.026767 0.912979
O O13 0.159565 0.840436 0.750000
O O14 0.258056 0.896434 0.832779
O O15 0.154759 0.922502 0.900280
O O16 0.365608 0.863054 0.579265
O O17 0.229693 0.327076 0.434965
#
# Coordination Sequence:
#
# PCOD9565664 Si02
#       8
#    16  16  16  16  16  16  16  16
#     4  12  24  40  66  93 132 164 216 267 316 391
#     4  11  22  39  60  93 118 164 214 260 323 380
#     4  12  23  42  64  98 129 171 218 262 326 384
#     4  10  21  41  68  90 122 170 222 266 316 383
#     4  11  21  37  61  90 129 160 210 268 328 382
#     4  10  20  38  65  85 123 164 214 264 319 380
#     4  11  23  39  63  94 134 175 208 259 327 388
#     4  10  20  37  64  88 120 165 213 258 316 388
#
# _framework density 20.175439000000001
#
# number of rings (size 3 to 8) (size 9 to 14) (size 15 to 20)
#    0.000    1.125    6.250    0.750    0.000    1.250 
#    2.250    1.875    0.000    2.250    0.000    0.000 
#    0.000    0.000    0.000    0.000    0.000    0.000 
#
# Total GULP energy -714099.114692 kJ/mol
# GULP energy per Si atom -5578.899334 kJ/mol
# Density = 2.012952 g / cm^3
# Si number density = 20.175439 Si / 1000 Ang^3
#
#
#
# Elastic Constant Matrix: (Units=GPa)
#
#
# Indices 1 2 3 4 5 6 
#
# 1 19.1035 28.2146 -7.8560 0.0000 0.0000 0.0000
# 2 28.2146 19.1045 -7.8552 0.0000 0.0000 0.0000
# 3 -7.8560 -7.8552 67.7614 0.0000 0.0000 0.0000
# 4 0.0000 0.0000 0.0000 14.7515 0.0000 0.0000
# 5 0.0000 0.0000 0.0000 0.0000 14.7512 0.0000
# 6 0.0000 0.0000 0.0000 0.0000 0.0000 8.9584
#
#
#
# Elastic Compliance Matrix: (Units=1/GPa)
#
#
# Indices 1 2 3 4 5 6 
#
# 1 -0.043893 0.065871 0.002547 0.000000 0.000000 0.000000
# 2 0.065871 -0.043890 0.002549 0.000000 0.000000 0.000000
# 3 0.002547 0.002549 0.015348 0.000000 0.000000 0.000000
# 4 0.000000 0.000000 0.000000 0.067790 0.000000 0.000000
# 5 0.000000 0.000000 0.000000 0.000000 0.067791 0.000000
# 6 0.000000 0.000000 0.000000 0.000000 0.000000 0.111627
#
#
# Mechanical properties :
#
#
# Convention : Reuss Voigt Hill
#
# Bulk Modulus (GPa) = 14.38860 14.55292 14.47076
# Shear Modulus (GPa) = 89.27926 13.92331 51.60129
#
# Velocity S-wave (km/s) = 6.65939 2.62985 5.06279
# Velocity P-wave (km/s) = 8.14108 4.05590 6.43147
#
# Compressibility (1/GPa) = 0.06949947
#
# Stress axis : x y z
#
# Youngs Moduli (GPa) = -22.78252 -22.78400 65.15316
#
# Poissons Ratio (x) = 1.50081 -0.16596
# Poissons Ratio (y) = 1.50071 -0.16607
# Poissons Ratio (z) = 0.05803 0.05807
#
# Static dielectric constant tensor:
#      x y z
#    x 1.717540 0.000000 0.000000 
#    y 0.000000 1.717540 0.000000 
#    z 0.000000 0.000000 1.774380 
# 
# From -- ./inp_files/1897.got.cif
#   From: 2010.05.17/outbox.cif.g08.bks.cpg/sg130_1_cif.got.tgz:1897.got - 2010.05.20 12:17:35.
