data_PCOD9565296
_publ_section_title
;
Structure prediction by ZEFSAII (Michael W. Deem and Ramdas Pophale) SiO2 
 PCOD9565296
Probable space group: P 4/N M M
;
_chemical_formula_sum "Si O2"
_cell_formula_units_Z 96
_cell_length_a 24.523479
_cell_length_b 24.523479
_cell_length_c 9.868868
_cell_angle_alpha 90.000000
_cell_angle_beta 90.000000
_cell_angle_gamma 90.000000
_cell_volume 5935.147304
_symmetry_space_group_name_H-M "P 4/N M M"
_symmetry_group_IT_number 129
_symmetry_cell_setting 'tetragonal'
loop_
_space_group_symop_operation_xyz
x,y,z
1/2-y,x,z
1/2-x,1/2-y,z
y,1/2-x,z
1/2+x,-y,-z
-x,1/2+y,-z
1/2+y,1/2+x,-z
-y,-x,-z
-x,-y,-z
1/2+y,-x,-z
1/2+x,1/2+y,-z
-y,1/2+x,-z
1/2-x,y,z
x,1/2-y,z
1/2-y,1/2-x,z
y,x,z
loop_
_atom_site_type_symbol
_atom_site_label
_atom_site_fract_x
_atom_site_fract_y
_atom_site_fract_z
Si Si1 0.486560 0.395841 0.230069
Si Si2 0.586796 0.111927 0.849495
Si Si3 0.537591 0.625993 0.072281
Si Si4 0.312740 0.097349 0.703877
Si Si5 0.685400 0.384666 0.398450
Si Si6 0.686605 0.994842 0.523961
O O1 0.449338 0.449338 0.252618
O O2 0.549956 0.409987 0.205101
O O3 0.483013 0.354526 0.354455
O O4 0.466083 0.368830 0.089477
O O5 0.523195 0.125781 0.869364
O O6 0.614139 0.152659 0.742927
O O7 0.612607 0.112607 0.000000
O O8 0.568415 0.568415 0.099079
O O9 0.572500 0.670946 0.150393
O O10 0.250000 0.113882 0.700525
O O11 0.353183 0.146818 0.674222
O O12 0.321199 0.049245 0.594797
O O13 0.659211 0.340790 0.500000
O O14 0.750000 0.376496 0.379395
O O15 0.677243 0.444572 0.465148
O O16 0.750000 0.991999 0.568041
#
# Coordination Sequence:
#
# PCOD9565296 Si02
#       6
#    16  16  16  16  16  16
#     4  10  19  32  52  80 112 140 173 216 265 319
#     4  10  19  34  54  80 111 139 172 212 262 318
#     4   9  18  31  49  75 109 144 172 209 266 320
#     4  10  20  34  52  75 105 143 184 224 267 313
#     4  11  22  39  58  79 106 138 177 219 265 316
#     4  10  20  34  52  77 107 137 175 221 265 316
#
# _framework density 16.17483
#
# number of rings (size 3 to 8) (size 9 to 14) (size 15 to 20)
#    0.000    2.000    3.333    1.000    0.000    3.000 
#    0.000    4.167    0.000    0.000    0.000    0.000 
#    0.000    4.000    0.000    0.000    0.000    0.000 
#
# Total GULP energy -535417.358138 kJ/mol
# GULP energy per Si atom -5577.264147 kJ/mol
# Density = 1.613802 g / cm^3
# Si number density = 16.174830 Si / 1000 Ang^3
#
#
#
# Elastic Constant Matrix: (Units=GPa)
#
#
# Indices 1 2 3 4 5 6 
#
# 1 96.0273 50.4116 59.6446 0.0000 0.0000 0.0000
# 2 50.4116 96.0293 59.6446 0.0000 0.0000 0.0000
# 3 59.6446 59.6446 100.3352 0.0000 0.0000 0.0000
# 4 0.0000 0.0000 0.0000 21.4419 0.0000 0.0000
# 5 0.0000 0.0000 0.0000 0.0000 21.4412 0.0000
# 6 0.0000 0.0000 0.0000 0.0000 0.0000 18.6117
#
#
#
# Elastic Compliance Matrix: (Units=1/GPa)
#
#
# Indices 1 2 3 4 5 6 
#
# 1 0.017581 -0.004341 -0.007871 0.000000 0.000000 0.000000
# 2 -0.004341 0.017581 -0.007870 0.000000 0.000000 0.000000
# 3 -0.007871 -0.007870 0.019324 0.000000 0.000000 0.000000
# 4 0.000000 0.000000 0.000000 0.046638 0.000000 0.000000
# 5 0.000000 0.000000 0.000000 0.000000 0.046639 0.000000
# 6 0.000000 0.000000 0.000000 0.000000 0.000000 0.053730
#
#
# Mechanical properties :
#
#
# Convention : Reuss Voigt Hill
#
# Bulk Modulus (GPa) = 69.82390 70.19927 70.01158
# Shear Modulus (GPa) = 20.28969 20.47836 20.38403
#
# Velocity S-wave (km/s) = 3.54559 3.56204 3.55382
# Velocity P-wave (km/s) = 7.74749 7.77252 7.76001
#
# Compressibility (1/GPa) = 0.01432174
#
# Stress axis : x y z
#
# Youngs Moduli (GPa) = 56.87888 56.88067 51.74900
#
# Poissons Ratio (x) = 0.24691 0.40731
# Poissons Ratio (y) = 0.24690 0.40729
# Poissons Ratio (z) = 0.44768 0.44768
#
# Static dielectric constant tensor:
#      x y z
#    x 1.524780 0.000000 0.000000 
#    y 0.000000 1.524770 0.000000 
#    z 0.000000 0.000000 1.534740 
# 
# From -- ./inp_files/2603.got.cif
#   From: 2010.05.17/outbox.cif.g08.bks.cpg/sg129_2_cif.got.tgz:2603.got - 2010.05.20 12:12:06.
