data_PCOD9565135
_publ_section_title
;
Structure prediction by ZEFSAII (Michael W. Deem and Ramdas Pophale) SiO2 
 PCOD9565135
Probable space group: P 4/N M M
;
_chemical_formula_sum "Si O2"
_cell_formula_units_Z 96
_cell_length_a 26.849942
_cell_length_b 26.849942
_cell_length_c 10.023522
_cell_angle_alpha 90.000000
_cell_angle_beta 90.000000
_cell_angle_gamma 90.000000
_cell_volume 7226.151320
_symmetry_space_group_name_H-M "P 4/N M M"
_symmetry_group_IT_number 129
_symmetry_cell_setting 'tetragonal'
loop_
_space_group_symop_operation_xyz
x,y,z
1/2-y,x,z
1/2-x,1/2-y,z
y,1/2-x,z
1/2+x,-y,-z
-x,1/2+y,-z
1/2+y,1/2+x,-z
-y,-x,-z
-x,-y,-z
1/2+y,-x,-z
1/2+x,1/2+y,-z
-y,1/2+x,-z
1/2-x,y,z
x,1/2-y,z
1/2-y,1/2-x,z
y,x,z
loop_
_atom_site_type_symbol
_atom_site_label
_atom_site_fract_x
_atom_site_fract_y
_atom_site_fract_z
Si Si1 0.903133 0.982294 0.948520
Si Si2 0.612747 0.192024 0.954829
Si Si3 0.479934 0.694035 0.844003
Si Si4 0.944331 0.474680 0.219072
Si Si5 0.092122 0.640936 0.322972
Si Si6 0.585542 0.191978 0.402924
O O1 0.929686 0.929686 0.935083
O O2 0.847305 0.983533 0.898853
O O3 0.934114 0.020937 0.855782
O O4 0.911829 0.000773 0.099826
O O5 0.624663 0.250000 0.936181
O O6 0.591979 0.168385 0.818668
O O7 0.659971 0.159971 0.000000
O O8 0.570593 0.188003 0.068634
O O9 0.498136 0.750000 0.862579
O O10 0.462734 0.687127 0.691498
O O11 0.907071 0.444469 0.314854
O O12 0.982084 0.517917 0.271489
O O13 0.076912 0.676942 0.443911
O O14 0.149058 0.623013 0.350221
O O15 0.602258 0.250000 0.391018
#
# Coordination Sequence:
#
# PCOD9565135 Si02
#       6
#    16  16  16  16  16  16
#     4   9  15  26  44  67  92 110 131 169 217 259
#     4  11  20  30  45  61  79 103 143 188 223 259
#     4  10  18  30  46  64  86 111 144 177 208 256
#     4   9  16  26  44  67  88 109 134 170 215 261
#     4  11  19  32  48  58  82 108 143 179 214 268
#     4  10  21  32  43  59  80 111 141 178 221 251
#
# _framework density 13.285080000000001
#
# number of rings (size 3 to 8) (size 9 to 14) (size 15 to 20)
#    0.000    2.000    5.000    1.500    0.000    0.167 
#    0.000    2.500    0.000    8.000    0.000    0.000 
#    0.000    0.333    0.000    0.000    0.000    0.000 
#
# Total GULP energy -534659.027333 kJ/mol
# GULP energy per Si atom -5569.364868 kJ/mol
# Density = 1.325484 g / cm^3
# Si number density = 13.285080 Si / 1000 Ang^3
#
#
#
# Elastic Constant Matrix: (Units=GPa)
#
#
# Indices 1 2 3 4 5 6 
#
# 1 69.8008 48.2429 23.0915 0.0000 0.0000 0.0000
# 2 48.2429 69.8008 23.0915 0.0000 0.0000 0.0000
# 3 23.0915 23.0915 53.8054 0.0000 0.0000 0.0000
# 4 0.0000 0.0000 0.0000 14.6228 0.0000 0.0000
# 5 0.0000 0.0000 0.0000 0.0000 14.6228 0.0000
# 6 0.0000 0.0000 0.0000 0.0000 0.0000 17.7632
#
#
#
# Elastic Compliance Matrix: (Units=1/GPa)
#
#
# Indices 1 2 3 4 5 6 
#
# 1 0.028284 -0.018103 -0.004369 0.000000 0.000000 0.000000
# 2 -0.018103 0.028284 -0.004369 0.000000 0.000000 0.000000
# 3 -0.004369 -0.004369 0.022336 0.000000 0.000000 0.000000
# 4 0.000000 0.000000 0.000000 0.068386 0.000000 0.000000
# 5 0.000000 0.000000 0.000000 0.000000 0.068386 0.000000
# 6 0.000000 0.000000 0.000000 0.000000 0.000000 0.056296
#
#
# Mechanical properties :
#
#
# Convention : Reuss Voigt Hill
#
# Bulk Modulus (GPa) = 39.65045 42.47318 41.06181
# Shear Modulus (GPa) = 14.96728 16.00050 15.48389
#
# Velocity S-wave (km/s) = 3.36016 3.47421 3.41766
# Velocity P-wave (km/s) = 6.70559 6.93783 6.82270
#
# Compressibility (1/GPa) = 0.02522039
#
# Stress axis : x y z
#
# Youngs Moduli (GPa) = 35.35590 35.35590 44.77114
#
# Poissons Ratio (x) = 0.64005 0.19562
# Poissons Ratio (y) = 0.64005 0.19562
# Poissons Ratio (z) = 0.15448 0.15448
#
# Static dielectric constant tensor:
#      x y z
#    x 1.428990 0.000000 0.000000 
#    y 0.000000 1.428990 0.000000 
#    z 0.000000 0.000000 1.452480 
# 
# From -- ./inp_files/2772.got.cif
#   From: 2010.05.17/outbox.cif.g08.bks.cpg/sg129_2_cif.got.tgz:2772.got - 2010.05.20 12:12:06.
