data_PCOD9565704
_publ_section_title
;
Structure prediction by ZEFSAII (Michael W. Deem and Ramdas Pophale) SiO2 
 PCOD9565704
Probable space group: P 4/N C C
;
_chemical_formula_sum "Si O2"
_cell_formula_units_Z 116
_cell_length_a 20.326955
_cell_length_b 20.326955
_cell_length_c 14.179681
_cell_angle_alpha 90.000000
_cell_angle_beta 90.000000
_cell_angle_gamma 90.000000
_cell_volume 5858.832906
_symmetry_space_group_name_H-M "P 4/N C C"
_symmetry_group_IT_number 130
_symmetry_cell_setting 'tetragonal'
loop_
_space_group_symop_operation_xyz
x,y,z
1/2-y,x,z
1/2-x,1/2-y,z
y,1/2-x,z
1/2+x,-y,1/2-z
-x,1/2+y,1/2-z
1/2+y,1/2+x,1/2-z
-y,-x,1/2-z
-x,-y,-z
1/2+y,-x,-z
1/2+x,1/2+y,-z
-y,1/2+x,-z
1/2-x,y,1/2+z
x,1/2-y,1/2+z
1/2-y,1/2-x,1/2+z
y,x,1/2+z
loop_
_atom_site_type_symbol
_atom_site_label
_atom_site_fract_x
_atom_site_fract_y
_atom_site_fract_z
Si Si1 0.250000 0.250000 0.867259
Si Si2 0.957356 0.900751 0.792997
Si Si3 0.125858 0.170984 0.440623
Si Si4 0.608360 0.528907 0.648602
Si Si5 0.349784 0.582701 0.828320
Si Si6 0.615333 0.038070 0.971334
Si Si7 0.002638 0.759716 0.079755
Si Si8 0.816113 0.836436 0.349430
O O1 0.320220 0.208543 0.877724
O O2 0.929513 0.965523 0.744804
O O3 0.896066 0.851122 0.797604
O O4 0.018025 0.874950 0.729428
O O5 0.983463 0.908548 0.897893
O O6 0.103515 0.100434 0.401228
O O7 0.164436 0.158889 0.539541
O O8 0.059750 0.215107 0.448827
O O9 0.584371 0.474935 0.573572
O O10 0.686408 0.519074 0.657391
O O11 0.359935 0.640066 0.750000
O O12 0.395437 0.599708 0.917564
O O13 0.281459 0.561070 0.873692
O O14 0.692942 0.025681 0.993724
O O15 0.738405 0.837762 0.328822
#
# Coordination Sequence:
#
# PCOD9565704 Si02
#       8
#     4  16  16  16  16  16  16  16
#     4  12  16  28  52  74 124 172 222 260 300 354
#     4  11  21  35  56  85 125 167 214 265 321 382
#     4  12  17  32  53  80 122 171 215 264 309 378
#     4  10  21  34  55  87 123 164 213 258 313 392
#     4  10  22  40  65  91 124 168 217 275 335 410
#     4   9  21  41  57  88 122 163 216 267 326 395
#     4  10  21  39  59  89 125 165 218 273 331 396
#     4  11  20  31  46  77 119 169 222 265 308 367
#
# _framework density 19.799164000000001
#
# number of rings (size 3 to 8) (size 9 to 14) (size 15 to 20)
#    0.828    0.690    5.517    0.828    1.931    0.552 
#    0.000    0.000    0.000    0.414    0.000    6.759 
#    0.000    0.000    0.000    0.000    0.000    0.000 
#
# Total GULP energy -645744.163421 kJ/mol
# GULP energy per Si atom -5566.760029 kJ/mol
# Density = 1.975410 g / cm^3
# Si number density = 19.799164 Si / 1000 Ang^3
#
#
#
# Elastic Constant Matrix: (Units=GPa)
#
#
# Indices 1 2 3 4 5 6 
#
# 1 56.5246 45.4749 28.8972 0.0000 0.0000 0.0000
# 2 45.4749 56.5236 28.8964 0.0000 0.0000 0.0000
# 3 28.8972 28.8964 65.4516 0.0000 0.0000 0.0000
# 4 0.0000 0.0000 0.0000 16.9885 0.0000 0.0000
# 5 0.0000 0.0000 0.0000 0.0000 16.9885 0.0000
# 6 0.0000 0.0000 0.0000 0.0000 0.0000 46.7204
#
#
#
# Elastic Compliance Matrix: (Units=1/GPa)
#
#
# Indices 1 2 3 4 5 6 
#
# 1 0.051789 -0.038715 -0.005773 0.000000 0.000000 0.000000
# 2 -0.038715 0.051790 -0.005772 0.000000 0.000000 0.000000
# 3 -0.005773 -0.005772 0.020376 0.000000 0.000000 0.000000
# 4 0.000000 0.000000 0.000000 0.058863 0.000000 0.000000
# 5 0.000000 0.000000 0.000000 0.000000 0.058863 0.000000
# 6 0.000000 0.000000 0.000000 0.000000 0.000000 0.021404
#
#
# Mechanical properties :
#
#
# Convention : Reuss Voigt Hill
#
# Bulk Modulus (GPa) = 42.67099 42.78187 42.72643
# Shear Modulus (GPa) = 13.46195 21.15489 17.30842
#
# Velocity S-wave (km/s) = 2.61037 3.27230 2.95989
# Velocity P-wave (km/s) = 5.53932 5.99434 5.77131
#
# Compressibility (1/GPa) = 0.02343512
#
# Stress axis : x y z
#
# Youngs Moduli (GPa) = 19.30896 19.30881 49.07835
#
# Poissons Ratio (x) = 0.74754 0.28333
# Poissons Ratio (y) = 0.74754 0.28328
# Poissons Ratio (z) = 0.11147 0.11145
#
# Static dielectric constant tensor:
#      x y z
#    x 1.718020 0.000000 0.000000 
#    y 0.000000 1.718020 0.000000 
#    z 0.000000 0.000000 1.789050 
# 
# From -- ./inp_files/3223.got.cif
#   From: 2010.05.17/outbox.cif.g08.bks.cpg/sg130_2_cif.got.tgz:3223.got - 2010.05.20 12:17:35.
