data_PCOD9565443
_publ_section_title
;
Structure prediction by ZEFSAII (Michael W. Deem and Ramdas Pophale) SiO2 
 PCOD9565443
Probable space group: P 4/N M M
;
_chemical_formula_sum "Si O2"
_cell_formula_units_Z 58
_cell_length_a 12.501437
_cell_length_b 12.501437
_cell_length_c 20.927282
_cell_angle_alpha 90.000000
_cell_angle_beta 90.000000
_cell_angle_gamma 90.000000
_cell_volume 3270.639668
_symmetry_space_group_name_H-M "P 4/N M M"
_symmetry_group_IT_number 129
_symmetry_cell_setting 'tetragonal'
loop_
_space_group_symop_operation_xyz
x,y,z
1/2-y,x,z
1/2-x,1/2-y,z
y,1/2-x,z
1/2+x,-y,-z
-x,1/2+y,-z
1/2+y,1/2+x,-z
-y,-x,-z
-x,-y,-z
1/2+y,-x,-z
1/2+x,1/2+y,-z
-y,1/2+x,-z
1/2-x,y,z
x,1/2-y,z
1/2-y,1/2-x,z
y,x,z
loop_
_atom_site_type_symbol
_atom_site_label
_atom_site_fract_x
_atom_site_fract_y
_atom_site_fract_z
Si Si1 0.750000 0.750000 0.307903
Si Si2 0.750000 0.374096 0.165464
Si Si3 0.250000 0.989771 0.702246
Si Si4 0.626775 0.126775 0.500000
Si Si5 0.874108 0.448720 0.929964
Si Si6 0.544416 0.376277 0.360264
O O1 0.750000 0.883211 0.307361
O O2 0.750000 0.250000 0.188784
O O3 0.750000 0.456108 0.223557
O O4 0.854169 0.388549 0.121271
O O5 0.354900 0.935528 0.671302
O O6 0.613242 0.250000 0.520715
O O7 0.610971 0.057676 0.563026
O O8 0.750000 0.481271 0.929318
O O9 0.953516 0.546485 0.916864
O O10 0.902540 0.402540 0.000000
O O11 0.545881 0.250000 0.345874
O O12 0.436694 0.436694 0.339984
#
# Coordination Sequence:
#
# PCOD9565443 Si02
#       6
#     2   8   8   8  16  16
#     4  12  28  44  68  88 132 164 196 268 310 364
#     4  10  22  38  64  88 118 158 204 242 293 371
#     4  12  24  44  62  92 122 164 206 254 319 372
#     4   9  17  32  58  88 114 160 210 253 307 370
#     4  10  20  36  58  85 119 158 200 246 295 349
#     4  11  22  38  62  86 124 163 208 257 311 372
#
# _framework density 17.733533999999999
#
# number of rings (size 3 to 8) (size 9 to 14) (size 15 to 20)
#    0.000    1.517    4.138    1.655    1.931    0.552 
#    0.000    0.000    0.000    0.000    0.000    3.862 
#    0.000    0.000    0.000    0.000    0.000    0.000 
#
# Total GULP energy -323190.858913 kJ/mol
# GULP energy per Si atom -5572.256188 kJ/mol
# Density = 1.769317 g / cm^3
# Si number density = 17.733534 Si / 1000 Ang^3
#
#
#
# Elastic Constant Matrix: (Units=GPa)
#
#
# Indices 1 2 3 4 5 6 
#
# 1 154.6857 105.4918 36.3539 0.0000 0.0000 0.0000
# 2 105.4918 154.6857 36.3539 0.0000 0.0000 0.0000
# 3 36.3539 36.3539 51.1571 0.0000 0.0000 0.0000
# 4 0.0000 0.0000 0.0000 6.6566 0.0000 0.0000
# 5 0.0000 0.0000 0.0000 0.0000 6.6566 0.0000
# 6 0.0000 0.0000 0.0000 0.0000 0.0000 32.8077
#
#
#
# Elastic Compliance Matrix: (Units=1/GPa)
#
#
# Indices 1 2 3 4 5 6 
#
# 1 0.012562 -0.007766 -0.003408 0.000000 0.000000 0.000000
# 2 -0.007766 0.012562 -0.003408 0.000000 0.000000 0.000000
# 3 -0.003408 -0.003408 0.024392 0.000000 0.000000 0.000000
# 4 0.000000 0.000000 0.000000 0.150227 0.000000 0.000000
# 5 0.000000 0.000000 0.000000 0.000000 0.150227 0.000000
# 6 0.000000 0.000000 0.000000 0.000000 0.000000 0.030481
#
#
# Mechanical properties :
#
#
# Convention : Reuss Voigt Hill
#
# Bulk Modulus (GPa) = 49.13811 79.65863 64.39837
# Shear Modulus (GPa) = 12.00776 21.37943 16.69359
#
# Velocity S-wave (km/s) = 2.60498 3.47593 3.07148
# Velocity P-wave (km/s) = 6.06772 7.81836 6.99800
#
# Compressibility (1/GPa) = 0.02035080
#
# Stress axis : x y z
#
# Youngs Moduli (GPa) = 79.60617 79.60617 40.99779
#
# Poissons Ratio (x) = 0.61821 0.13973
# Poissons Ratio (y) = 0.61821 0.13973
# Poissons Ratio (z) = 0.27131 0.27131
#
# Static dielectric constant tensor:
#      x y z
#    x 1.594950 0.000000 0.000000 
#    y 0.000000 1.594950 0.000000 
#    z 0.000000 0.000000 1.615160 
# 
# From -- ./inp_files/6267.got.cif
#   From: 2010.05.17/outbox.cif.g08.bks.cpg/sg129_4_cif.got.tgz:6267.got - 2010.05.20 12:12:06.
