data_PCOD9565480
_publ_section_title
;
Structure prediction by ZEFSAII (Michael W. Deem and Ramdas Pophale) SiO2 
 PCOD9565480
Probable space group: P 4/N M M
;
_chemical_formula_sum "Si O2"
_cell_formula_units_Z 52
_cell_length_a 20.053937
_cell_length_b 20.053937
_cell_length_c 7.010399
_cell_angle_alpha 90.000000
_cell_angle_beta 90.000000
_cell_angle_gamma 90.000000
_cell_volume 2819.304790
_symmetry_space_group_name_H-M "P 4/N M M"
_symmetry_group_IT_number 129
_symmetry_cell_setting 'tetragonal'
loop_
_space_group_symop_operation_xyz
x,y,z
1/2-y,x,z
1/2-x,1/2-y,z
y,1/2-x,z
1/2+x,-y,-z
-x,1/2+y,-z
1/2+y,1/2+x,-z
-y,-x,-z
-x,-y,-z
1/2+y,-x,-z
1/2+x,1/2+y,-z
-y,1/2+x,-z
1/2-x,y,z
x,1/2-y,z
1/2-y,1/2-x,z
y,x,z
loop_
_atom_site_type_symbol
_atom_site_label
_atom_site_fract_x
_atom_site_fract_y
_atom_site_fract_z
Si Si1 0.032688 0.250000 0.740349
Si Si2 0.591208 0.750000 0.859289
Si Si3 0.750000 0.250000 0.000000
Si Si4 0.029973 0.140680 0.408319
Si Si5 0.250000 0.250000 0.208504
Si Si6 0.381799 0.618202 0.500000
Si Si7 0.250000 0.616498 0.756135
O O1 0.038084 0.186630 0.598527
O O2 0.958960 0.250000 0.835928
O O3 0.084749 0.250000 0.912167
O O4 0.554986 0.814034 0.766725
O O5 0.667690 0.750000 0.796378
O O6 0.819420 0.250000 0.887749
O O7 0.076068 0.076068 0.423881
O O8 0.952286 0.122270 0.391172
O O9 0.316794 0.620625 0.631119
#
# Coordination Sequence:
#
# PCOD9565480 Si02
#       7
#     8   8   2  16   2   8   8
#     4   9  23  39  59  85 125 156 199 252 304 351
#     4  11  23  41  61  89 126 161 202 256 301 358
#     4  12  24  30  60  92 112 146 204 240 280 374
#     4  10  21  39  63  89 121 161 203 251 305 364
#     4  12  24  40  62  96 108 170 216 236 314 352
#     4  10  21  41  62  86 120 162 198 248 306 358
#     4  10  22  37  58  88 116 156 197 243 300 360
#
# _framework density 18.444265000000001
#
# number of rings (size 3 to 8) (size 9 to 14) (size 15 to 20)
#    0.000    1.846    1.538    2.308    6.462    0.000 
#    0.000    3.077    0.000    5.538    0.000    0.000 
#    0.000    0.000    0.000    0.000    0.000    0.000 
#
# Total GULP energy -289605.180759 kJ/mol
# GULP energy per Si atom -5569.330399 kJ/mol
# Density = 1.840228 g / cm^3
# Si number density = 18.444265 Si / 1000 Ang^3
#
#
#
# Elastic Constant Matrix: (Units=GPa)
#
#
# Indices 1 2 3 4 5 6 
#
# 1 136.9233 27.8429 11.8479 0.0000 0.0000 0.0000
# 2 27.8429 136.9230 11.8487 0.0000 0.0000 0.0000
# 3 11.8479 11.8487 43.2184 0.0000 0.0000 0.0000
# 4 0.0000 0.0000 0.0000 15.5267 0.0000 0.0000
# 5 0.0000 0.0000 0.0000 0.0000 15.5273 0.0000
# 6 0.0000 0.0000 0.0000 0.0000 0.0000 3.3464
#
#
#
# Elastic Compliance Matrix: (Units=1/GPa)
#
#
# Indices 1 2 3 4 5 6 
#
# 1 0.007743 -0.001425 -0.001732 0.000000 0.000000 0.000000
# 2 -0.001425 0.007743 -0.001732 0.000000 0.000000 0.000000
# 3 -0.001732 -0.001732 0.024088 0.000000 0.000000 0.000000
# 4 0.000000 0.000000 0.000000 0.064405 0.000000 0.000000
# 5 0.000000 0.000000 0.000000 0.000000 0.064403 0.000000
# 6 0.000000 0.000000 0.000000 0.000000 0.000000 0.298830
#
#
# Mechanical properties :
#
#
# Convention : Reuss Voigt Hill
#
# Bulk Modulus (GPa) = 33.56151 46.68264 40.12207
# Shear Modulus (GPa) = 10.26859 24.58175 17.42517
#
# Velocity S-wave (km/s) = 2.36209 3.65466 3.07701
# Velocity P-wave (km/s) = 5.06704 6.57067 5.86723
#
# Compressibility (1/GPa) = 0.02979604
#
# Stress axis : x y z
#
# Youngs Moduli (GPa) = 129.15020 129.14944 41.51435
#
# Poissons Ratio (x) = 0.18399 0.07191
# Poissons Ratio (y) = 0.18399 0.07191
# Poissons Ratio (z) = 0.22370 0.22372
#
# Static dielectric constant tensor:
#      x y z
#    x 1.651190 0.000000 0.000000 
#    y 0.000000 1.651190 0.000000 
#    z 0.000000 0.000000 1.619750 
# 
# From -- ./inp_files/577.got.cif
#   From: 2010.05.17/outbox.cif.g08.bks.cpg/sg129_1_cif.got.tgz:577.got - 2010.05.20 12:12:06.
