data_PCOD9565613
_publ_section_title
;
Structure prediction by ZEFSAII (Michael W. Deem and Ramdas Pophale) SiO2 
 PCOD9565613
Probable space group: P 4/N C C
;
_chemical_formula_sum "Si O2"
_cell_formula_units_Z 64
_cell_length_a 19.754528
_cell_length_b 19.754528
_cell_length_c 9.088630
_cell_angle_alpha 90.000000
_cell_angle_beta 90.000000
_cell_angle_gamma 90.000000
_cell_volume 3546.759482
_symmetry_space_group_name_H-M "P 4/N C C"
_symmetry_group_IT_number 130
_symmetry_cell_setting 'tetragonal'
loop_
_space_group_symop_operation_xyz
x,y,z
1/2-y,x,z
1/2-x,1/2-y,z
y,1/2-x,z
1/2+x,-y,1/2-z
-x,1/2+y,1/2-z
1/2+y,1/2+x,1/2-z
-y,-x,1/2-z
-x,-y,-z
1/2+y,-x,-z
1/2+x,1/2+y,-z
-y,1/2+x,-z
1/2-x,y,1/2+z
x,1/2-y,1/2+z
1/2-y,1/2-x,1/2+z
y,x,1/2+z
loop_
_atom_site_type_symbol
_atom_site_label
_atom_site_fract_x
_atom_site_fract_y
_atom_site_fract_z
Si Si1 0.584752 0.653038 0.545408
Si Si2 0.039465 0.562632 0.075523
Si Si3 0.660141 0.992788 0.042753
Si Si4 0.255448 0.444650 0.209318
O O1 0.506078 0.628813 0.552766
O O2 0.624069 0.581921 0.555205
O O3 0.597233 0.692435 0.392902
O O4 0.595381 0.706136 0.678205
O O5 0.048843 0.548843 0.250000
O O6 0.110362 0.554237 0.992397
O O7 0.000000 0.500000 0.000000
O O8 0.708959 0.983870 0.904983
O O9 0.701792 0.996150 0.191657
#
# Coordination Sequence:
#
# PCOD9565613 Si02
#       4
#    16  16  16  16
#     4  10  20  34  53  73 104 135 170 211 260 307
#     4  10  20  32  52  78 102 129 165 212 266 323
#     4  10  20  34  53  73 104 135 170 211 260 307
#     4  10  20  32  50  75 102 137 170 210 256 302
#
# _framework density 18.044640000000001
#
# number of rings (size 3 to 8) (size 9 to 14) (size 15 to 20)
#    0.000    2.000    2.500    1.500   10.500    0.000 
#    0.000    0.000    0.000   52.500    0.000    0.000 
#    0.000   70.000    0.000    0.000    0.000    0.000 
#
# Total GULP energy -356413.879028 kJ/mol
# GULP energy per Si atom -5568.966860 kJ/mol
# Density = 1.800357 g / cm^3
# Si number density = 18.044640 Si / 1000 Ang^3
#
#
#
# Elastic Constant Matrix: (Units=GPa)
#
#
# Indices 1 2 3 4 5 6 
#
# 1 54.3352 22.0007 23.0490 0.0000 0.0000 0.0000
# 2 22.0007 54.3352 23.0490 0.0000 0.0000 0.0000
# 3 23.0490 23.0490 111.0356 0.0000 0.0000 0.0000
# 4 0.0000 0.0000 0.0000 24.3337 0.0000 0.0000
# 5 0.0000 0.0000 0.0000 0.0000 24.3337 0.0000
# 6 0.0000 0.0000 0.0000 0.0000 0.0000 13.0425
#
#
#
# Elastic Compliance Matrix: (Units=1/GPa)
#
#
# Indices 1 2 3 4 5 6 
#
# 1 0.022952 -0.007975 -0.003109 0.000000 0.000000 0.000000
# 2 -0.007975 0.022952 -0.003109 0.000000 0.000000 0.000000
# 3 -0.003109 -0.003109 0.010297 0.000000 0.000000 0.000000
# 4 0.000000 0.000000 0.000000 0.041095 0.000000 0.000000
# 5 0.000000 0.000000 0.000000 0.000000 0.041095 0.000000
# 6 0.000000 0.000000 0.000000 0.000000 0.000000 0.076673
#
#
# Mechanical properties :
#
#
# Convention : Reuss Voigt Hill
#
# Bulk Modulus (GPa) = 35.95097 39.54481 37.74789
# Shear Modulus (GPa) = 19.78463 22.44914 21.11688
#
# Velocity S-wave (km/s) = 3.31483 3.53099 3.42461
# Velocity P-wave (km/s) = 5.88365 6.21180 6.04995
#
# Compressibility (1/GPa) = 0.02781566
#
# Stress axis : x y z
#
# Youngs Moduli (GPa) = 43.56895 43.56895 97.11667
#
# Poissons Ratio (x) = 0.34745 0.30194
# Poissons Ratio (y) = 0.34745 0.30194
# Poissons Ratio (z) = 0.13546 0.13546
#
# Static dielectric constant tensor:
#      x y z
#    x 1.661390 0.000000 0.000000 
#    y 0.000000 1.661390 0.000000 
#    z 0.000000 0.000000 1.647450 
# 
# From -- ./inp_files/718.got.cif
#   From: 2010.05.17/outbox.cif.g08.bks.cpg/sg130_1_cif.got.tgz:718.got - 2010.05.20 12:17:35.
