data_PCOD9565701
_publ_section_title
;
Structure prediction by ZEFSAII (Michael W. Deem and Ramdas Pophale) SiO2 
 PCOD9565701
Probable space group: P 4/N C C
;
_chemical_formula_sum "Si O2"
_cell_formula_units_Z 96
_cell_length_a 27.394405
_cell_length_b 27.394405
_cell_length_c 9.124677
_cell_angle_alpha 90.000000
_cell_angle_beta 90.000000
_cell_angle_gamma 90.000000
_cell_volume 6847.645109
_symmetry_space_group_name_H-M "P 4/N C C"
_symmetry_group_IT_number 130
_symmetry_cell_setting 'tetragonal'
loop_
_space_group_symop_operation_xyz
x,y,z
1/2-y,x,z
1/2-x,1/2-y,z
y,1/2-x,z
1/2+x,-y,1/2-z
-x,1/2+y,1/2-z
1/2+y,1/2+x,1/2-z
-y,-x,1/2-z
-x,-y,-z
1/2+y,-x,-z
1/2+x,1/2+y,-z
-y,1/2+x,-z
1/2-x,y,1/2+z
x,1/2-y,1/2+z
1/2-y,1/2-x,1/2+z
y,x,1/2+z
loop_
_atom_site_type_symbol
_atom_site_label
_atom_site_fract_x
_atom_site_fract_y
_atom_site_fract_z
Si Si1 0.241740 0.103803 0.813104
Si Si2 0.345637 0.433645 0.322149
Si Si3 0.063021 0.497592 0.161031
Si Si4 0.170674 0.260975 0.067388
Si Si5 0.860358 0.919112 0.334880
Si Si6 0.489045 0.577336 0.185749
O O1 0.287911 0.068613 0.800104
O O2 0.258536 0.154195 0.735141
O O3 0.192324 0.086086 0.738434
O O4 0.232405 0.121053 0.977981
O O5 0.375466 0.395207 0.222034
O O6 0.355837 0.417364 0.489758
O O7 0.369436 0.487021 0.301692
O O8 0.045374 0.545374 0.250000
O O9 0.113923 0.471151 0.200502
O O10 0.024606 0.456241 0.213700
O O11 0.062530 0.506339 0.986040
O O12 0.196943 0.209466 0.037353
O O13 0.435990 0.564011 0.250000
#
# Coordination Sequence:
#
# PCOD9565701 Si02
#       6
#    16  16  16  16  16  16
#     4  12  22  33  44  60  80 104 140 177 220 254
#     4  10  21  33  46  61  81 107 135 172 213 255
#     4   9  16  28  44  64  82  99 125 158 203 252
#     4  11  22  34  46  56  72 102 142 186 222 253
#     4  10  21  33  46  61  81 107 135 172 213 255
#     4   9  16  28  44  64  82  99 125 158 203 252
#
# _framework density 14.019418
#
# number of rings (size 3 to 8) (size 9 to 14) (size 15 to 20)
#    0.000    1.833    1.667    5.000    2.333    2.667 
#    0.000    0.000    0.000    0.000    0.000    0.000 
#    0.000    0.000    0.000    0.000    0.000    0.833 
#
# Total GULP energy -534871.673867 kJ/mol
# GULP energy per Si atom -5571.579936 kJ/mol
# Density = 1.398751 g / cm^3
# Si number density = 14.019418 Si / 1000 Ang^3
#
#
#
# Elastic Constant Matrix: (Units=GPa)
#
#
# Indices 1 2 3 4 5 6 
#
# 1 39.8477 24.9996 5.7332 0.0000 0.0000 0.0000
# 2 24.9996 39.8460 5.7330 0.0000 0.0000 0.0000
# 3 5.7332 5.7330 32.5508 0.0000 0.0000 0.0000
# 4 0.0000 0.0000 0.0000 17.5301 0.0000 0.0000
# 5 0.0000 0.0000 0.0000 0.0000 17.5303 0.0000
# 6 0.0000 0.0000 0.0000 0.0000 0.0000 21.4932
#
#
#
# Elastic Compliance Matrix: (Units=1/GPa)
#
#
# Indices 1 2 3 4 5 6 
#
# 1 0.041634 -0.025718 -0.002803 0.000000 0.000000 0.000000
# 2 -0.025718 0.041635 -0.002803 0.000000 0.000000 0.000000
# 3 -0.002803 -0.002803 0.031709 0.000000 0.000000 0.000000
# 4 0.000000 0.000000 0.000000 0.057045 0.000000 0.000000
# 5 0.000000 0.000000 0.000000 0.000000 0.057044 0.000000
# 6 0.000000 0.000000 0.000000 0.000000 0.000000 0.046526
#
#
# Mechanical properties :
#
#
# Convention : Reuss Voigt Hill
#
# Bulk Modulus (GPa) = 19.10997 20.57511 19.84254
# Shear Modulus (GPa) = 14.05737 16.36263 15.21000
#
# Velocity S-wave (km/s) = 3.16999 3.42005 3.29739
# Velocity P-wave (km/s) = 5.20184 5.50488 5.35550
#
# Compressibility (1/GPa) = 0.05232870
#
# Stress axis : x y z
#
# Youngs Moduli (GPa) = 24.01897 24.01797 31.53708
#
# Poissons Ratio (x) = 0.61769 0.08841
# Poissons Ratio (y) = 0.61772 0.08841
# Poissons Ratio (z) = 0.06734 0.06733
#
# Static dielectric constant tensor:
#      x y z
#    x 1.481070 0.000000 0.000000 
#    y 0.000000 1.481070 0.000000 
#    z 0.000000 0.000000 1.498820 
# 
# From -- ./inp_files/998.got.cif
#   From: 2010.05.17/outbox.cif.g08.bks.cpg/sg130_1_cif.got.tgz:998.got - 2010.05.20 12:17:35.
