data_PCOD9565784
_publ_section_title
;
Structure prediction by ZEFSAII (Michael W. Deem and Ramdas Pophale) SiO2 
 PCOD9565784
Probable space group: P 4/N C C
;
_chemical_formula_sum "Si O2"
_cell_formula_units_Z 88
_cell_length_a 12.118019
_cell_length_b 12.118019
_cell_length_c 28.368970
_cell_angle_alpha 90.000000
_cell_angle_beta 90.000000
_cell_angle_gamma 90.000000
_cell_volume 4165.880676
_symmetry_space_group_name_H-M "P 4/N C C"
_symmetry_group_IT_number 130
_symmetry_cell_setting 'tetragonal'
loop_
_space_group_symop_operation_xyz
x,y,z
1/2-y,x,z
1/2-x,1/2-y,z
y,1/2-x,z
1/2+x,-y,1/2-z
-x,1/2+y,1/2-z
1/2+y,1/2+x,1/2-z
-y,-x,1/2-z
-x,-y,-z
1/2+y,-x,-z
1/2+x,1/2+y,-z
-y,1/2+x,-z
1/2-x,y,1/2+z
x,1/2-y,1/2+z
1/2-y,1/2-x,1/2+z
y,x,1/2+z
loop_
_atom_site_type_symbol
_atom_site_label
_atom_site_fract_x
_atom_site_fract_y
_atom_site_fract_z
Si Si1 0.850682 0.387647 0.866819
Si Si2 0.891425 0.639352 0.977644
Si Si3 0.344704 0.406728 0.696138
Si Si4 0.529431 0.029431 0.250000
Si Si5 0.404483 0.852222 0.652996
Si Si6 0.535044 0.959786 0.071928
O O1 0.878825 0.503167 0.841910
O O2 0.895442 0.279494 0.840176
O O3 0.717850 0.380868 0.867864
O O4 0.925107 0.392378 0.913259
O O5 0.898985 0.767818 0.964604
O O6 0.986052 0.569600 0.952456
O O7 0.902420 0.612674 0.033152
O O8 0.214924 0.393439 0.691600
O O9 0.398982 0.449812 0.744197
O O10 0.574426 0.090067 0.296646
O O11 0.497929 0.890708 0.615694
#
# Coordination Sequence:
#
# PCOD9565784 Si02
#       6
#    16  16  16   8  16  16
#     4  11  22  42  63  92 132 170 220 267 330 390
#     4  10  22  39  65  93 122 163 210 264 335 401
#     4  11  24  42  64  91 126 171 224 275 319 378
#     4  12  24  41  62  95 130 174 224 270 324 375
#     4  11  25  39  64  96 129 177 219 271 330 390
#     4  11  21  41  63  92 129 163 212 272 324 398
#
# _framework density 21.123985999999999
#
# number of rings (size 3 to 8) (size 9 to 14) (size 15 to 20)
#    0.000    1.091    3.636    2.182    2.545    1.455 
#    0.000    1.818    0.000   10.909    0.000    0.000 
#    0.000    0.000    0.000    0.000    0.000    0.000 
#
# Total GULP energy -490916.182691 kJ/mol
# GULP energy per Si atom -5578.592985 kJ/mol
# Density = 2.107591 g / cm^3
# Si number density = 21.123986 Si / 1000 Ang^3
#
#
#
# Elastic Constant Matrix: (Units=GPa)
#
#
# Indices 1 2 3 4 5 6 
#
# 1 71.8200 6.1104 -0.6591 0.0000 0.0000 0.0000
# 2 6.1104 71.8200 -0.6591 0.0000 0.0000 0.0000
# 3 -0.6591 -0.6591 46.5643 0.0000 0.0000 0.0000
# 4 0.0000 0.0000 0.0000 74.6664 0.0000 0.0000
# 5 0.0000 0.0000 0.0000 0.0000 74.6664 0.0000
# 6 0.0000 0.0000 0.0000 0.0000 0.0000 9.3442
#
#
#
# Elastic Compliance Matrix: (Units=1/GPa)
#
#
# Indices 1 2 3 4 5 6 
#
# 1 0.014027 -0.001192 0.000182 0.000000 0.000000 0.000000
# 2 -0.001192 0.014027 0.000182 0.000000 0.000000 0.000000
# 3 0.000182 0.000182 0.021481 0.000000 0.000000 0.000000
# 4 0.000000 0.000000 0.000000 0.013393 0.000000 0.000000
# 5 0.000000 0.000000 0.000000 0.000000 0.013393 0.000000
# 6 0.000000 0.000000 0.000000 0.000000 0.000000 0.107018
#
#
# Mechanical properties :
#
#
# Convention : Reuss Voigt Hill
#
# Bulk Modulus (GPa) = 20.88657 22.19872 21.54264
# Shear Modulus (GPa) = 24.88126 44.09621 34.48874
#
# Velocity S-wave (km/s) = 3.43573 4.57387 4.04503
# Velocity P-wave (km/s) = 5.06439 6.19881 5.66009
#
# Compressibility (1/GPa) = 0.04787767
#
# Stress axis : x y z
#
# Youngs Moduli (GPa) = 71.29235 71.29235 46.55311
#
# Poissons Ratio (x) = 0.08496 -0.00846
# Poissons Ratio (y) = 0.08496 -0.00846
# Poissons Ratio (z) = -0.01295 -0.01295
#
# Static dielectric constant tensor:
#      x y z
#    x 1.785100 0.000000 0.000000 
#    y 0.000000 1.785100 0.000000 
#    z 0.000000 0.000000 1.793900 
# 
# From -- ./inp_files/4832.got.cif
#   From: 2010.05.17/outbox.cif.g08.bks.cpg/sg130_3_cif.got.tgz:4832.got - 2010.05.20 12:17:35.
