data_PCOD9565849
_publ_section_title
;
Structure prediction by ZEFSAII (Michael W. Deem and Ramdas Pophale) SiO2 
 PCOD9565849
Probable space group: P 4/N C C
;
_chemical_formula_sum "Si O2"
_cell_formula_units_Z 84
_cell_length_a 12.693875
_cell_length_b 12.693875
_cell_length_c 23.603784
_cell_angle_alpha 90.000000
_cell_angle_beta 90.000000
_cell_angle_gamma 90.000000
_cell_volume 3803.383048
_symmetry_space_group_name_H-M "P 4/N C C"
_symmetry_group_IT_number 130
_symmetry_cell_setting 'tetragonal'
loop_
_space_group_symop_operation_xyz
x,y,z
1/2-y,x,z
1/2-x,1/2-y,z
y,1/2-x,z
1/2+x,-y,1/2-z
-x,1/2+y,1/2-z
1/2+y,1/2+x,1/2-z
-y,-x,1/2-z
-x,-y,-z
1/2+y,-x,-z
1/2+x,1/2+y,-z
-y,1/2+x,-z
1/2-x,y,1/2+z
x,1/2-y,1/2+z
1/2-y,1/2-x,1/2+z
y,x,1/2+z
loop_
_atom_site_type_symbol
_atom_site_label
_atom_site_fract_x
_atom_site_fract_y
_atom_site_fract_z
Si Si1 0.478815 0.169991 0.419174
Si Si2 0.250000 0.250000 0.896572
Si Si3 0.648696 0.895475 0.263178
Si Si4 0.983359 0.995456 0.167406
Si Si5 0.847134 0.183412 0.360667
Si Si6 0.090917 0.704643 0.477506
O O1 0.377072 0.231295 0.398335
O O2 0.479404 0.051524 0.395450
O O3 0.577515 0.231347 0.391299
O O4 0.486893 0.177714 0.487277
O O5 0.609468 0.774416 0.262456
O O6 0.601659 0.955467 0.208757
O O7 0.594822 0.955003 0.315727
O O8 0.892224 0.081897 0.177415
O O9 0.750000 0.250000 0.335813
O O10 0.805888 0.105575 0.410686
O O11 0.127267 0.821353 0.495152
#
# Coordination Sequence:
#
# PCOD9565849 Si02
#       6
#    16   4  16  16  16  16
#     4  11  22  38  64  92 133 172 225 267 318 406
#     4  12  24  40  56  96 132 178 224 264 332 380
#     4  10  24  45  66  86 130 172 206 272 352 406
#     4  11  24  40  65 101 117 167 226 272 329 393
#     4  11  21  39  67  96 129 169 220 273 321 386
#     4   9  17  36  59  88 125 171 209 259 326 373
#
# _framework density 22.085601
#
# number of rings (size 3 to 8) (size 9 to 14) (size 15 to 20)
#    0.000    1.524    5.714    1.143    2.667    0.762 
#    0.000    0.952    0.000    0.000    0.000    0.000 
#    0.000    0.000    0.000    0.000    0.000    0.000 
#
# Total GULP energy -468166.942249 kJ/mol
# GULP energy per Si atom -5573.415979 kJ/mol
# Density = 2.203533 g / cm^3
# Si number density = 22.085601 Si / 1000 Ang^3
#
#
#
# Elastic Constant Matrix: (Units=GPa)
#
#
# Indices 1 2 3 4 5 6 
#
# 1 68.5243 8.0763 -3.3707 0.0000 0.0000 0.0000
# 2 8.0763 68.5243 -3.3707 0.0000 0.0000 0.0000
# 3 -3.3707 -3.3707 26.3636 0.0000 0.0000 0.0000
# 4 0.0000 0.0000 0.0000 -9.4563 0.0000 0.0000
# 5 0.0000 0.0000 0.0000 0.0000 -9.4563 0.0000
# 6 0.0000 0.0000 0.0000 0.0000 0.0000 30.0104
#
#
#
# Elastic Compliance Matrix: (Units=1/GPa)
#
#
# Indices 1 2 3 4 5 6 
#
# 1 0.014873 -0.001670 0.001688 0.000000 0.000000 0.000000
# 2 -0.001670 0.014873 0.001688 0.000000 0.000000 0.000000
# 3 0.001688 0.001688 0.038363 0.000000 0.000000 0.000000
# 4 0.000000 0.000000 0.000000 -0.105750 0.000000 0.000000
# 5 0.000000 0.000000 0.000000 0.000000 -0.105750 0.000000
# 6 0.000000 0.000000 0.000000 0.000000 0.000000 0.033322
#
#
# Mechanical properties :
#
#
# Convention : Reuss Voigt Hill
#
# Bulk Modulus (GPa) = 13.98172 18.45351 16.21762
# Shear Modulus (GPa) = -55.77818 13.02472 -21.37673
#
# Velocity S-wave (km/s) = -5.03093 2.43109 -3.11449
# Velocity P-wave (km/s) = 5.23475 4.03160 2.36101
#
# Compressibility (1/GPa) = 0.07152196
#
# Stress axis : x y z
#
# Youngs Moduli (GPa) = 67.23490 67.23490 26.06690
#
# Poissons Ratio (x) = 0.11228 -0.04400
# Poissons Ratio (y) = 0.11228 -0.04400
# Poissons Ratio (z) = -0.11350 -0.11350
#
# Static dielectric constant tensor:
#      x y z
#    x 1.816790 0.000000 0.000000 
#    y 0.000000 1.816790 0.000000 
#    z 0.000000 0.000000 1.896520 
# 
# From -- ./inp_files/4890.got.cif
#   From: 2010.05.17/outbox.cif.g08.bks.cpg/sg130_3_cif.got.tgz:4890.got - 2010.05.20 12:17:35.
