data_PCOD9565044
_publ_section_title
;
Structure prediction by ZEFSAII (Michael W. Deem and Ramdas Pophale) SiO2 
 PCOD9565044
Probable space group: P 4/M N C
;
_chemical_formula_sum "Si O2"
_cell_formula_units_Z 50
_cell_length_a 8.296881
_cell_length_b 8.296881
_cell_length_c 33.320636
_cell_angle_alpha 90.000000
_cell_angle_beta 90.000000
_cell_angle_gamma 90.000000
_cell_volume 2293.733749
_symmetry_space_group_name_H-M "P 4/M N C"
_symmetry_group_IT_number 128
_symmetry_cell_setting 'tetragonal'
loop_
_space_group_symop_operation_xyz
x,y,z
-y,x,z
-x,-y,z
y,-x,z
1/2+x,1/2-y,1/2-z
1/2-x,1/2+y,1/2-z
1/2+y,1/2+x,1/2-z
1/2-y,1/2-x,1/2-z
-x,-y,-z
y,-x,-z
x,y,-z
-y,x,-z
1/2-x,1/2+y,1/2+z
1/2+x,1/2-y,1/2+z
1/2-y,1/2-x,1/2+z
1/2+y,1/2+x,1/2+z
loop_
_atom_site_type_symbol
_atom_site_label
_atom_site_fract_x
_atom_site_fract_y
_atom_site_fract_z
Si Si1 0.000000 0.500000 0.143763
Si Si2 0.389421 0.844882 0.500000
Si Si3 0.000000 0.000000 0.000000
Si Si4 0.604341 0.253920 0.913283
Si Si5 0.260775 0.082256 0.711579
O O1 0.899519 0.623310 0.115630
O O2 0.875999 0.407847 0.173060
O O3 0.510594 0.695318 0.500000
O O4 0.290039 0.856618 0.541023
O O5 0.500000 0.000000 0.500000
O O6 0.701689 0.416941 0.905895
O O7 0.364821 0.135179 0.750000
O O8 0.101496 0.194374 0.711433
#
# Coordination Sequence:
#
# PCOD9565044 Si02
#       5
#     8   8   2  16  16
#     4  12  23  39  66 102 142 188 244 297 367 450
#     4  12  24  47  70 108 146 194 254 330 381 453
#     4  12  28  44  84 104 144 204 272 312 392 480
#     4  11  24  43  68  99 143 198 252 311 381 444
#     4  11  24  45  73 104 143 189 239 297 366 444
#
# _framework density 21.798521999999998
#
# number of rings (size 3 to 8) (size 9 to 14) (size 15 to 20)
#    0.000    0.640    1.600    7.200    0.000    3.840 
#    0.000    0.000    0.000    3.840    0.000    0.000 
#    0.000    0.000    0.000    0.000    0.000    0.000 
#
# Total GULP energy -279120.398058 kJ/mol
# GULP energy per Si atom -5582.407961 kJ/mol
# Density = 2.174891 g / cm^3
# Si number density = 21.798522 Si / 1000 Ang^3
#
#
#
# Elastic Constant Matrix: (Units=GPa)
#
#
# Indices 1 2 3 4 5 6 
#
# 1 119.6640 26.8433 58.5642 0.0000 0.0000 0.0000
# 2 26.8433 119.6643 58.5644 0.0000 0.0000 0.0000
# 3 58.5642 58.5644 185.7190 0.0000 0.0000 0.0000
# 4 0.0000 0.0000 0.0000 22.1828 0.0000 0.0000
# 5 0.0000 0.0000 0.0000 0.0000 22.1827 0.0000
# 6 0.0000 0.0000 0.0000 0.0000 0.0000 30.3746
#
#
#
# Elastic Compliance Matrix: (Units=1/GPa)
#
#
# Indices 1 2 3 4 5 6 
#
# 1 0.009950 -0.000824 -0.002878 0.000000 0.000000 0.000000
# 2 -0.000824 0.009950 -0.002878 0.000000 0.000000 0.000000
# 3 -0.002878 -0.002878 0.007200 0.000000 0.000000 0.000000
# 4 0.000000 0.000000 0.000000 0.045080 0.000000 0.000000
# 5 0.000000 0.000000 0.000000 0.000000 0.045080 0.000000
# 6 0.000000 0.000000 0.000000 0.000000 0.000000 0.032922
#
#
# Mechanical properties :
#
#
# Convention : Reuss Voigt Hill
#
# Bulk Modulus (GPa) = 71.73250 79.22124 75.47687
# Shear Modulus (GPa) = 29.76417 33.68639 31.72528
#
# Velocity S-wave (km/s) = 3.69917 3.93536 3.81909
# Velocity P-wave (km/s) = 7.15707 7.55452 7.35848
#
# Compressibility (1/GPa) = 0.01394068
#
# Stress axis : x y z
#
# Youngs Moduli (GPa) = 100.50327 100.50349 138.89849
#
# Poissons Ratio (x) = 0.08277 0.39974
# Poissons Ratio (y) = 0.08277 0.39974
# Poissons Ratio (z) = 0.28924 0.28924
#
# Static dielectric constant tensor:
#      x y z
#    x 1.767860 0.000000 0.000000 
#    y 0.000000 1.767860 0.000000 
#    z 0.000000 0.000000 2.053380 
# 
# From -- ./inp_files/7063.got.cif
#   From: 2010.05.17/outbox.cif.g08.bks.cpg/sg128_4_cif.got.tgz:7063.got - 2010.05.20 12:07:25.
