data_PCOD9565401
_publ_section_title
;
Structure prediction by ZEFSAII (Michael W. Deem and Ramdas Pophale) SiO2 
 PCOD9565401
Probable space group: P 4/N M M
;
_chemical_formula_sum "Si O2"
_cell_formula_units_Z 96
_cell_length_a 23.848426
_cell_length_b 23.848426
_cell_length_c 10.078307
_cell_angle_alpha 90.000000
_cell_angle_beta 90.000000
_cell_angle_gamma 90.000000
_cell_volume 5732.011131
_symmetry_space_group_name_H-M "P 4/N M M"
_symmetry_group_IT_number 129
_symmetry_cell_setting 'tetragonal'
loop_
_space_group_symop_operation_xyz
x,y,z
1/2-y,x,z
1/2-x,1/2-y,z
y,1/2-x,z
1/2+x,-y,-z
-x,1/2+y,-z
1/2+y,1/2+x,-z
-y,-x,-z
-x,-y,-z
1/2+y,-x,-z
1/2+x,1/2+y,-z
-y,1/2+x,-z
1/2-x,y,z
x,1/2-y,z
1/2-y,1/2-x,z
y,x,z
loop_
_atom_site_type_symbol
_atom_site_label
_atom_site_fract_x
_atom_site_fract_y
_atom_site_fract_z
Si Si1 0.020870 0.114022 0.756675
Si Si2 0.623689 0.314568 0.116648
Si Si3 0.093073 0.184404 0.546940
Si Si4 0.368341 0.461721 0.293730
Si Si5 0.184832 0.494444 0.022134
Si Si6 0.091736 0.895534 0.653359
O O1 0.057458 0.057458 0.768839
O O2 0.053094 0.153991 0.653355
O O3 0.958969 0.101161 0.702777
O O4 0.017013 0.146051 0.896098
O O5 0.635010 0.250000 0.150849
O O6 0.560440 0.318132 0.058437
O O7 0.624011 0.354071 0.246083
O O8 0.663770 0.336231 0.000000
O O9 0.097420 0.250000 0.571421
O O10 0.152319 0.152319 0.552548
O O11 0.065838 0.171520 0.403884
O O12 0.424807 0.424807 0.290864
O O13 0.338932 0.462774 0.150856
O O14 0.381694 0.525611 0.334191
O O15 0.250000 0.480441 0.997059
O O16 0.109390 0.890611 0.500000
#
# Coordination Sequence:
#
# PCOD9565401 Si02
#       6
#    16  16  16  16  16  16
#     4  11  21  34  56  82 113 147 183 228 282 339
#     4  10  21  39  59  81 107 142 185 227 271 325
#     4  10  21  36  54  79 109 147 191 231 278 332
#     4  10  20  33  54  81 112 147 183 224 277 338
#     4  10  20  35  54  78 111 144 182 228 274 323
#     4  11  21  37  55  85 120 148 180 222 281 338
#
# _framework density 16.748049000000002
#
# number of rings (size 3 to 8) (size 9 to 14) (size 15 to 20)
#    0.000    1.667    3.333    2.000    0.000    1.667 
#    0.000    3.333    0.000    0.000    0.000    0.000 
#    0.000   12.000    0.000    0.000    0.000    0.000 
#
# Total GULP energy -535950.293626 kJ/mol
# GULP energy per Si atom -5582.815559 kJ/mol
# Density = 1.670993 g / cm^3
# Si number density = 16.748049 Si / 1000 Ang^3
#
#
#
# Elastic Constant Matrix: (Units=GPa)
#
#
# Indices 1 2 3 4 5 6 
#
# 1 102.9684 47.0526 50.9553 0.0000 0.0000 0.0000
# 2 47.0526 102.9676 50.9563 0.0000 0.0000 0.0000
# 3 50.9553 50.9563 138.2967 0.0000 0.0000 0.0000
# 4 0.0000 0.0000 0.0000 14.6231 0.0000 0.0000
# 5 0.0000 0.0000 0.0000 0.0000 14.6229 0.0000
# 6 0.0000 0.0000 0.0000 0.0000 0.0000 5.6181
#
#
#
# Elastic Compliance Matrix: (Units=1/GPa)
#
#
# Indices 1 2 3 4 5 6 
#
# 1 0.013388 -0.004497 -0.003276 0.000000 0.000000 0.000000
# 2 -0.004497 0.013388 -0.003276 0.000000 0.000000 0.000000
# 3 -0.003276 -0.003276 0.009645 0.000000 0.000000 0.000000
# 4 0.000000 0.000000 0.000000 0.068385 0.000000 0.000000
# 5 0.000000 0.000000 0.000000 0.000000 0.068386 0.000000
# 6 0.000000 0.000000 0.000000 0.000000 0.000000 0.177997
#
#
# Mechanical properties :
#
#
# Convention : Reuss Voigt Hill
#
# Bulk Modulus (GPa) = 69.81603 71.35125 70.58364
# Shear Modulus (GPa) = 13.22543 19.99070 16.60806
#
# Velocity S-wave (km/s) = 2.81316 3.45862 3.15245
# Velocity P-wave (km/s) = 7.23383 7.65798 7.44892
#
# Compressibility (1/GPa) = 0.01432336
#
# Stress axis : x y z
#
# Youngs Moduli (GPa) = 74.69618 74.69483 103.68148
#
# Poissons Ratio (x) = 0.33587 0.33965
# Poissons Ratio (y) = 0.33587 0.33967
# Poissons Ratio (z) = 0.24470 0.24471
#
# Static dielectric constant tensor:
#      x y z
#    x 1.543170 0.000000 0.000000 
#    y 0.000000 1.543170 0.000000 
#    z 0.000000 0.000000 1.552420 
# 
# From -- ./inp_files/2597.got.cif
#   From: 2010.05.17/outbox.cif.g08.bks.cpg/sg129_2_cif.got.tgz:2597.got - 2010.05.20 12:12:06.
