data_PCOD9565110
_publ_section_title
;
Structure prediction by ZEFSAII (Michael W. Deem and Ramdas Pophale) SiO2 
 PCOD9565110
Probable space group: P 4/N M M
;
_chemical_formula_sum "Si O2"
_cell_formula_units_Z 128
_cell_length_a 18.191201
_cell_length_b 18.191201
_cell_length_c 23.260955
_cell_angle_alpha 90.000000
_cell_angle_beta 90.000000
_cell_angle_gamma 90.000000
_cell_volume 7697.510433
_symmetry_space_group_name_H-M "P 4/N M M"
_symmetry_group_IT_number 129
_symmetry_cell_setting 'tetragonal'
loop_
_space_group_symop_operation_xyz
x,y,z
1/2-y,x,z
1/2-x,1/2-y,z
y,1/2-x,z
1/2+x,-y,-z
-x,1/2+y,-z
1/2+y,1/2+x,-z
-y,-x,-z
-x,-y,-z
1/2+y,-x,-z
1/2+x,1/2+y,-z
-y,1/2+x,-z
1/2-x,y,z
x,1/2-y,z
1/2-y,1/2-x,z
y,x,z
loop_
_atom_site_type_symbol
_atom_site_label
_atom_site_fract_x
_atom_site_fract_y
_atom_site_fract_z
Si Si1 0.948943 0.828705 0.426005
Si Si2 0.057590 0.561925 0.858688
Si Si3 0.888427 0.487381 0.535849
Si Si4 0.046511 0.334555 0.218250
Si Si5 0.330922 0.949918 0.680159
Si Si6 0.834590 0.546869 0.210353
Si Si7 0.835132 0.164211 0.069197
Si Si8 0.485581 0.609282 0.667553
O O1 0.913902 0.750000 0.413945
O O2 0.895276 0.895276 0.413808
O O3 0.973000 0.833763 0.492128
O O4 0.018447 0.835753 0.384198
O O5 0.116140 0.511995 0.824122
O O6 0.105004 0.610654 0.902713
O O7 0.995625 0.504375 0.882026
O O8 0.013510 0.616940 0.816304
O O9 0.916473 0.416473 0.500000
O O10 0.863778 0.479759 0.601614
O O11 0.959175 0.540826 0.540325
O O12 0.046714 0.250000 0.200312
O O13 0.123800 0.376201 0.209158
O O14 0.026947 0.341184 0.285978
O O15 0.250000 0.915575 0.688643
O O16 0.402619 0.901789 0.689273
O O17 0.335254 0.018099 0.724027
O O18 0.750000 0.548526 0.191023
O O19 0.875584 0.624417 0.205802
O O20 0.750000 0.145854 0.085316
O O21 0.847611 0.250000 0.085496
O O22 0.839732 0.160269 0.000000
O O23 0.531638 0.531638 0.668264
#
# Coordination Sequence:
#
# PCOD9565110 Si02
#       8
#    16  16  16  16  16  16  16  16
#     4  10  19  29  42  63  88 115 148 185 232 287
#     4  10  19  32  52  76 103 135 173 212 243 282
#     4   9  16  26  44  63  80 106 143 191 237 277
#     4  10  21  35  53  76 100 128 160 199 249 299
#     4  10  18  28  45  67  94 122 153 197 242 283
#     4  10  19  30  46  69  98 133 169 205 246 288
#     4   9  18  33  53  77 107 141 171 204 251 299
#     4  10  17  30  50  67  90 120 157 199 238 285
#
# _framework density 16.628753
#
# number of rings (size 3 to 8) (size 9 to 14) (size 15 to 20)
#    0.000    2.250    2.500    2.250    0.000    1.125 
#    0.000    0.000    0.000    3.375    0.000    3.500 
#    0.000    0.250    0.000   23.250    0.000    0.000 
#
# Total GULP energy -712568.048257 kJ/mol
# GULP energy per Si atom -5566.937877 kJ/mol
# Density = 1.659091 g / cm^3
# Si number density = 16.628753 Si / 1000 Ang^3
#
#
#
# Elastic Constant Matrix: (Units=GPa)
#
#
# Indices 1 2 3 4 5 6 
#
# 1 86.8273 36.0486 23.7897 0.0000 0.0000 0.0000
# 2 36.0486 86.8274 23.7897 0.0000 0.0000 0.0000
# 3 23.7897 23.7897 49.3967 0.0000 0.0000 0.0000
# 4 0.0000 0.0000 0.0000 20.0545 0.0000 0.0000
# 5 0.0000 0.0000 0.0000 0.0000 20.0544 0.0000
# 6 0.0000 0.0000 0.0000 0.0000 0.0000 13.0225
#
#
#
# Elastic Compliance Matrix: (Units=1/GPa)
#
#
# Indices 1 2 3 4 5 6 
#
# 1 0.014849 -0.004845 -0.004818 0.000000 0.000000 0.000000
# 2 -0.004845 0.014849 -0.004818 0.000000 0.000000 0.000000
# 3 -0.004818 -0.004818 0.024885 0.000000 0.000000 0.000000
# 4 0.000000 0.000000 0.000000 0.049864 0.000000 0.000000
# 5 0.000000 0.000000 0.000000 0.000000 0.049864 0.000000
# 6 0.000000 0.000000 0.000000 0.000000 0.000000 0.076790
#
#
# Mechanical properties :
#
#
# Convention : Reuss Voigt Hill
#
# Bulk Modulus (GPa) = 39.03048 43.36750 41.19899
# Shear Modulus (GPa) = 18.61489 19.92118 19.26804
#
# Velocity S-wave (km/s) = 3.34943 3.46496 3.40769
# Velocity P-wave (km/s) = 6.20330 6.49187 6.34922
#
# Compressibility (1/GPa) = 0.02562100
#
# Stress axis : x y z
#
# Youngs Moduli (GPa) = 67.34656 67.34662 40.18496
#
# Poissons Ratio (x) = 0.32627 0.19361
# Poissons Ratio (y) = 0.32627 0.19361
# Poissons Ratio (z) = 0.32447 0.32447
#
# Static dielectric constant tensor:
#      x y z
#    x 1.564390 0.000000 0.000000 
#    y 0.000000 1.564390 0.000000 
#    z 0.000000 0.000000 1.568040 
# 
# From -- ./inp_files/7318.got.cif
#   From: 2010.05.17/outbox.cif.g08.bks.cpg/sg129_4_cif.got.tgz:7318.got - 2010.05.20 12:12:06.
