data_PCOD9565632
_publ_section_title
;
Structure prediction by ZEFSAII (Michael W. Deem and Ramdas Pophale) SiO2 
 PCOD9565632
Probable space group: P 4/N C C
;
_chemical_formula_sum "Si O2"
_cell_formula_units_Z 96
_cell_length_a 23.859907
_cell_length_b 23.859907
_cell_length_c 8.798697
_cell_angle_alpha 90.000000
_cell_angle_beta 90.000000
_cell_angle_gamma 90.000000
_cell_volume 5009.055634
_symmetry_space_group_name_H-M "P 4/N C C"
_symmetry_group_IT_number 130
_symmetry_cell_setting 'tetragonal'
loop_
_space_group_symop_operation_xyz
x,y,z
1/2-y,x,z
1/2-x,1/2-y,z
y,1/2-x,z
1/2+x,-y,1/2-z
-x,1/2+y,1/2-z
1/2+y,1/2+x,1/2-z
-y,-x,1/2-z
-x,-y,-z
1/2+y,-x,-z
1/2+x,1/2+y,-z
-y,1/2+x,-z
1/2-x,y,1/2+z
x,1/2-y,1/2+z
1/2-y,1/2-x,1/2+z
y,x,1/2+z
loop_
_atom_site_type_symbol
_atom_site_label
_atom_site_fract_x
_atom_site_fract_y
_atom_site_fract_z
Si Si1 0.744228 0.014807 0.966788
Si Si2 0.112508 0.612508 0.750000
Si Si3 0.602820 0.713603 0.855563
Si Si4 0.862859 0.217495 0.545849
Si Si5 0.833657 0.997699 0.747529
Si Si6 0.298626 0.701375 0.750000
Si Si7 0.671280 0.623975 0.687947
O O1 0.744096 0.081475 0.934564
O O2 0.808295 0.000200 0.918243
O O3 0.711518 0.964705 0.878618
O O4 0.720184 0.007886 0.136392
O O5 0.156834 0.627448 0.618709
O O6 0.048260 0.624874 0.714010
O O7 0.628054 0.671720 0.731944
O O8 0.621040 0.775514 0.802313
O O9 0.627860 0.695934 0.018612
O O10 0.812054 0.247324 0.635112
O O11 0.849032 0.208025 0.370155
O O12 0.856636 0.936990 0.708588
#
# Coordination Sequence:
#
# PCOD9565632 Si02
#       7
#    16   8  16  16  16   8  16
#     4   9  18  34  54  75 104 141 186 226 279 343
#     4  10  20  35  54  77 108 145 190 235 290 336
#     4  10  20  35  57  85 114 147 183 229 281 346
#     4  11  22  35  52  77 109 150 191 240 292 349
#     4   9  18  33  54  78 105 143 185 232 276 339
#     4  12  24  35  50  73 108 143 188 237 290 343
#     4  10  20  35  57  84 116 147 184 225 280 338
#
# _framework density 19.165289000000001
#
# number of rings (size 3 to 8) (size 9 to 14) (size 15 to 20)
#    0.000    2.000    0.000    5.000    0.000    4.333 
#    0.000    1.667    0.000    5.000    0.000    0.000 
#    0.000    0.000    0.000    0.000    0.000    0.000 
#
# Total GULP energy -534480.376865 kJ/mol
# GULP energy per Si atom -5567.503926 kJ/mol
# Density = 1.912167 g / cm^3
# Si number density = 19.165289 Si / 1000 Ang^3
#
#
#
# Elastic Constant Matrix: (Units=GPa)
#
#
# Indices 1 2 3 4 5 6 
#
# 1 88.8530 53.9547 28.8094 0.0000 0.0000 0.0000
# 2 53.9547 88.8528 28.8092 0.0000 0.0000 0.0000
# 3 28.8094 28.8092 90.6272 0.0000 0.0000 0.0000
# 4 0.0000 0.0000 0.0000 19.3362 0.0000 0.0000
# 5 0.0000 0.0000 0.0000 0.0000 19.3360 0.0000
# 6 0.0000 0.0000 0.0000 0.0000 0.0000 31.0868
#
#
#
# Elastic Compliance Matrix: (Units=1/GPa)
#
#
# Indices 1 2 3 4 5 6 
#
# 1 0.018344 -0.010311 -0.002554 0.000000 0.000000 0.000000
# 2 -0.010311 0.018344 -0.002553 0.000000 0.000000 0.000000
# 3 -0.002554 -0.002553 0.012658 0.000000 0.000000 0.000000
# 4 0.000000 0.000000 0.000000 0.051716 0.000000 0.000000
# 5 0.000000 0.000000 0.000000 0.000000 0.051717 0.000000
# 6 0.000000 0.000000 0.000000 0.000000 0.000000 0.032168
#
#
# Mechanical properties :
#
#
# Convention : Reuss Voigt Hill
#
# Bulk Modulus (GPa) = 54.02760 54.60885 54.31823
# Shear Modulus (GPa) = 22.52738 24.40247 23.46492
#
# Velocity S-wave (km/s) = 3.43217 3.57215 3.50286
# Velocity P-wave (km/s) = 6.63008 6.75050 6.69056
#
# Compressibility (1/GPa) = 0.01850906
#
# Stress axis : x y z
#
# Youngs Moduli (GPa) = 54.51465 54.51459 79.00355
#
# Poissons Ratio (x) = 0.56210 0.20174
# Poissons Ratio (y) = 0.56210 0.20173
# Poissons Ratio (z) = 0.13920 0.13920
#
# Static dielectric constant tensor:
#      x y z
#    x 1.693180 0.000000 0.000000 
#    y 0.000000 1.693180 0.000000 
#    z 0.000000 0.000000 1.698360 
# 
# From -- ./inp_files/973.got.cif
#   From: 2010.05.17/outbox.cif.g08.bks.cpg/sg130_1_cif.got.tgz:973.got - 2010.05.20 12:17:35.
