data_PCOD9565860
_publ_section_title
;
Structure prediction by ZEFSAII (Michael W. Deem and Ramdas Pophale) SiO2 
 PCOD9565860
Probable space group: P 4/N C C
;
_chemical_formula_sum "Si O2"
_cell_formula_units_Z 64
_cell_length_a 11.999417
_cell_length_b 11.999417
_cell_length_c 22.578410
_cell_angle_alpha 90.000000
_cell_angle_beta 90.000000
_cell_angle_gamma 90.000000
_cell_volume 3250.975131
_symmetry_space_group_name_H-M "P 4/N C C"
_symmetry_group_IT_number 130
_symmetry_cell_setting 'tetragonal'
loop_
_space_group_symop_operation_xyz
x,y,z
1/2-y,x,z
1/2-x,1/2-y,z
y,1/2-x,z
1/2+x,-y,1/2-z
-x,1/2+y,1/2-z
1/2+y,1/2+x,1/2-z
-y,-x,1/2-z
-x,-y,-z
1/2+y,-x,-z
1/2+x,1/2+y,-z
-y,1/2+x,-z
1/2-x,y,1/2+z
x,1/2-y,1/2+z
1/2-y,1/2-x,1/2+z
y,x,1/2+z
loop_
_atom_site_type_symbol
_atom_site_label
_atom_site_fract_x
_atom_site_fract_y
_atom_site_fract_z
Si Si1 0.558422 0.128384 0.184780
Si Si2 0.746919 0.381653 0.586560
Si Si3 0.484489 0.642443 0.865336
Si Si4 0.720974 0.932344 0.991039
O O1 0.588495 0.088495 0.250000
O O2 0.657712 0.103800 0.138754
O O3 0.541422 0.261417 0.182010
O O4 0.449106 0.066291 0.160768
O O5 0.750000 0.250000 0.571558
O O6 0.869284 0.410492 0.611312
O O7 0.713039 0.459140 0.531876
O O8 0.535330 0.705481 0.922540
O O9 0.626471 0.839621 0.002746
#
# Coordination Sequence:
#
# PCOD9565860 Si02
#       4
#    16  16  16  16
#     4  11  26  44  68  96 130 181 223 279 328 400
#     4  10  25  40  66 102 134 173 217 277 341 395
#     4  11  24  43  69  95 135 174 228 270 337 396
#     4  11  23  42  67  97 137 175 222 272 330 398
#
# _framework density 19.686399999999999
#
# number of rings (size 3 to 8) (size 9 to 14) (size 15 to 20)
#    0.000    1.250    2.500    1.500   10.500    6.000 
#    0.000    0.000    0.000    0.000    0.000    0.000 
#    0.000    0.000    0.000    0.000    0.000    0.000 
#
# Total GULP energy -358051.438561 kJ/mol
# GULP energy per Si atom -5594.553728 kJ/mol
# Density = 1.964159 g / cm^3
# Si number density = 19.686400 Si / 1000 Ang^3
#
#
#
# Elastic Constant Matrix: (Units=GPa)
#
#
# Indices 1 2 3 4 5 6 
#
# 1 85.9568 41.7534 67.0256 0.0000 0.0000 0.0000
# 2 41.7534 85.9568 67.0256 0.0000 0.0000 0.0000
# 3 67.0256 67.0256 146.6726 0.0000 0.0000 0.0000
# 4 0.0000 0.0000 0.0000 20.0951 0.0000 0.0000
# 5 0.0000 0.0000 0.0000 0.0000 20.0951 0.0000
# 6 0.0000 0.0000 0.0000 0.0000 0.0000 21.8696
#
#
#
# Elastic Compliance Matrix: (Units=1/GPa)
#
#
# Indices 1 2 3 4 5 6 
#
# 1 0.018836 -0.003787 -0.006877 0.000000 0.000000 0.000000
# 2 -0.003787 0.018836 -0.006877 0.000000 0.000000 0.000000
# 3 -0.006877 -0.006877 0.013103 0.000000 0.000000 0.000000
# 4 0.000000 0.000000 0.000000 0.049763 0.000000 0.000000
# 5 0.000000 0.000000 0.000000 0.000000 0.049763 0.000000
# 6 0.000000 0.000000 0.000000 0.000000 0.000000 0.045726
#
#
# Mechanical properties :
#
#
# Convention : Reuss Voigt Hill
#
# Bulk Modulus (GPa) = 63.72369 74.46616 69.09492
# Shear Modulus (GPa) = 21.15608 21.93072 21.54340
#
# Velocity S-wave (km/s) = 3.28175 3.34129 3.31165
# Velocity P-wave (km/s) = 6.84102 7.26594 7.05668
#
# Compressibility (1/GPa) = 0.01569275
#
# Stress axis : x y z
#
# Youngs Moduli (GPa) = 53.09112 53.09112 76.31922
#
# Poissons Ratio (x) = 0.20107 0.52483
# Poissons Ratio (y) = 0.20107 0.52483
# Poissons Ratio (z) = 0.36509 0.36509
#
# Static dielectric constant tensor:
#      x y z
#    x 1.693470 0.000000 0.000000 
#    y 0.000000 1.693470 0.000000 
#    z 0.000000 0.000000 1.660280 
# 
# From -- ./inp_files/3494.got.cif
#   From: 2010.05.17/outbox.cif.g08.bks.cpg/sg130_2_cif.got.tgz:3494.got - 2010.05.20 12:17:35.
