data_PCOD9565666
_publ_section_title
;
Structure prediction by ZEFSAII (Michael W. Deem and Ramdas Pophale) SiO2 
 PCOD9565666
Probable space group: P 4/N C C
;
_chemical_formula_sum "Si O2"
_cell_formula_units_Z 48
_cell_length_a 10.253306
_cell_length_b 10.253306
_cell_length_c 18.043186
_cell_angle_alpha 90.000000
_cell_angle_beta 90.000000
_cell_angle_gamma 90.000000
_cell_volume 1896.885267
_symmetry_space_group_name_H-M "P 4/N C C"
_symmetry_group_IT_number 130
_symmetry_cell_setting 'tetragonal'
loop_
_space_group_symop_operation_xyz
x,y,z
1/2-y,x,z
1/2-x,1/2-y,z
y,1/2-x,z
1/2+x,-y,1/2-z
-x,1/2+y,1/2-z
1/2+y,1/2+x,1/2-z
-y,-x,1/2-z
-x,-y,-z
1/2+y,-x,-z
1/2+x,1/2+y,-z
-y,1/2+x,-z
1/2-x,y,1/2+z
x,1/2-y,1/2+z
1/2-y,1/2-x,1/2+z
y,x,1/2+z
loop_
_atom_site_type_symbol
_atom_site_label
_atom_site_fract_x
_atom_site_fract_y
_atom_site_fract_z
Si Si1 0.094507 0.108763 0.780862
Si Si2 0.382835 0.000244 0.439705
Si Si3 0.458011 0.216653 0.579175
O O1 0.241737 0.070524 0.759266
O O2 0.097031 0.093010 0.870070
O O3 0.986824 0.013177 0.750000
O O4 0.351571 0.108562 0.605796
O O5 0.259671 0.032057 0.491510
O O6 0.402707 0.852080 0.406797
O O7 0.500000 0.000000 0.500000
#
# Coordination Sequence:
#
# PCOD9565666 Si02
#       3
#    16  16  16
#     4  11  26  49  74 102 142 192 242 295 357 426
#     4  10  20  37  66  99 131 175 225 279 346 416
#     4   9  18  33  55  88 129 167 212 273 336 401
#
# _framework density 25.304639000000002
#
# number of rings (size 3 to 8) (size 9 to 14) (size 15 to 20)
#    0.000    2.000    0.000    4.000    0.000   12.000 
#    0.000   10.000    0.000    0.000    0.000    0.000 
#    0.000    0.000    0.000    0.000    0.000    0.000 
#
# Total GULP energy -267263.926477 kJ/mol
# GULP energy per Si atom -5567.998468 kJ/mol
# Density = 2.524705 g / cm^3
# Si number density = 25.304639 Si / 1000 Ang^3
#
#
#
# Elastic Constant Matrix: (Units=GPa)
#
#
# Indices 1 2 3 4 5 6 
#
# 1 85.8141 84.1690 20.6559 0.0000 0.0000 0.0000
# 2 84.1690 85.8071 20.6512 0.0000 0.0000 0.0000
# 3 20.6559 20.6512 77.6835 0.0000 0.0000 0.0000
# 4 0.0000 0.0000 0.0000 45.3101 0.0000 0.0000
# 5 0.0000 0.0000 0.0000 0.0000 45.3103 0.0000
# 6 0.0000 0.0000 0.0000 0.0000 0.0000 38.5327
#
#
#
# Elastic Compliance Matrix: (Units=1/GPa)
#
#
# Indices 1 2 3 4 5 6 
#
# 1 0.307720 -0.301440 -0.001688 0.000000 0.000000 0.000000
# 2 -0.301440 0.307738 -0.001656 0.000000 0.000000 0.000000
# 3 -0.001688 -0.001656 0.013762 0.000000 0.000000 0.000000
# 4 0.000000 0.000000 0.000000 0.022070 0.000000 0.000000
# 5 0.000000 0.000000 0.000000 0.000000 0.022070 0.000000
# 6 0.000000 0.000000 0.000000 0.000000 0.000000 0.025952
#
#
# Mechanical properties :
#
#
# Convention : Reuss Voigt Hill
#
# Bulk Modulus (GPa) = 50.88516 55.58413 53.23464
# Shear Modulus (GPa) = 3.80104 34.08585 18.94344
#
# Velocity S-wave (km/s) = 1.22694 3.67416 2.73905
# Velocity P-wave (km/s) = 4.70742 6.32558 5.57552
#
# Compressibility (1/GPa) = 0.01965210
#
# Stress axis : x y z
#
# Youngs Moduli (GPa) = 3.24970 3.24952 72.66443
#
# Poissons Ratio (x) = 0.97953 0.12267
# Poissons Ratio (y) = 0.97959 0.12034
# Poissons Ratio (z) = 0.00549 0.00538
#
# Static dielectric constant tensor:
#      x y z
#    x 2.075210 0.000000 0.000000 
#    y 0.000000 2.075210 0.000000 
#    z 0.000000 0.000000 2.229570 
# 
# From -- ./inp_files/3383.got.cif
#   From: 2010.05.17/outbox.cif.g08.bks.cpg/sg130_2_cif.got.tgz:3383.got - 2010.05.20 12:17:35.
