data_PCOD9565831
_publ_section_title
;
Structure prediction by ZEFSAII (Michael W. Deem and Ramdas Pophale) SiO2 
 PCOD9565831
Probable space group: P 4/N C C
;
_chemical_formula_sum "Si O2"
_cell_formula_units_Z 112
_cell_length_a 14.599020
_cell_length_b 14.599020
_cell_length_c 23.273761
_cell_angle_alpha 90.000000
_cell_angle_beta 90.000000
_cell_angle_gamma 90.000000
_cell_volume 4960.368915
_symmetry_space_group_name_H-M "P 4/N C C"
_symmetry_group_IT_number 130
_symmetry_cell_setting 'tetragonal'
loop_
_space_group_symop_operation_xyz
x,y,z
1/2-y,x,z
1/2-x,1/2-y,z
y,1/2-x,z
1/2+x,-y,1/2-z
-x,1/2+y,1/2-z
1/2+y,1/2+x,1/2-z
-y,-x,1/2-z
-x,-y,-z
1/2+y,-x,-z
1/2+x,1/2+y,-z
-y,1/2+x,-z
1/2-x,y,1/2+z
x,1/2-y,1/2+z
1/2-y,1/2-x,1/2+z
y,x,1/2+z
loop_
_atom_site_type_symbol
_atom_site_label
_atom_site_fract_x
_atom_site_fract_y
_atom_site_fract_z
Si Si1 0.394340 0.694265 0.005166
Si Si2 0.303157 0.656802 0.373477
Si Si3 0.438855 0.113904 0.278957
Si Si4 0.613648 0.681473 0.556125
Si Si5 0.925814 0.949738 0.459557
Si Si6 0.011278 0.291326 0.832662
Si Si7 0.011473 0.609125 0.839161
O O1 0.412694 0.682502 0.072864
O O2 0.300842 0.634633 0.999055
O O3 0.477613 0.658610 0.966228
O O4 0.250000 0.750000 0.388596
O O5 0.241790 0.593660 0.332215
O O6 0.405829 0.678353 0.353988
O O7 0.425463 0.203730 0.317749
O O8 0.362426 0.037255 0.283951
O O9 0.450638 0.144194 0.213286
O O10 0.526570 0.066832 0.308645
O O11 0.711181 0.632096 0.561547
O O12 0.585386 0.646303 0.493302
O O13 0.541464 0.661867 0.606996
O O14 0.959086 0.927355 0.395381
O O15 0.000000 0.000000 0.500000
#
# Coordination Sequence:
#
# PCOD9565831 Si02
#       7
#    16  16  16  16  16  16  16
#     4  11  24  41  63 102 145 186 231 283 348 446
#     4  11  23  42  69 103 143 179 232 296 355 431
#     4  10  23  46  68  99 133 181 245 295 349 431
#     4  11  24  42  68 101 136 179 240 297 345 423
#     4  12  25  40  69 102 142 190 222 292 375 431
#     4  11  22  43  74  99 130 181 238 298 352 417
#     4  10  24  47  65  98 147 183 232 297 361 440
#
# _framework density 22.578966000000001
#
# number of rings (size 3 to 8) (size 9 to 14) (size 15 to 20)
#    0.000    1.143    4.286    1.714    6.000    0.286 
#   10.286    5.000    0.000    0.000    0.000    0.000 
#    0.000    0.000    0.000    0.000    0.000    0.000 
#
# Total GULP energy -624752.716485 kJ/mol
# GULP energy per Si atom -5578.149254 kJ/mol
# Density = 2.252758 g / cm^3
# Si number density = 22.578966 Si / 1000 Ang^3
#
#
#
# Elastic Constant Matrix: (Units=GPa)
#
#
# Indices 1 2 3 4 5 6 
#
# 1 78.5784 31.9430 37.8974 0.0000 0.0000 0.0000
# 2 31.9430 78.5784 37.8974 0.0000 0.0000 0.0000
# 3 37.8974 37.8974 158.2876 0.0000 0.0000 0.0000
# 4 0.0000 0.0000 0.0000 23.5925 0.0000 0.0000
# 5 0.0000 0.0000 0.0000 0.0000 23.5925 0.0000
# 6 0.0000 0.0000 0.0000 0.0000 0.0000 33.0660
#
#
#
# Elastic Compliance Matrix: (Units=1/GPa)
#
#
# Indices 1 2 3 4 5 6 
#
# 1 0.016134 -0.005309 -0.002592 0.000000 0.000000 0.000000
# 2 -0.005309 0.016134 -0.002592 0.000000 0.000000 0.000000
# 3 -0.002592 -0.002592 0.007559 0.000000 0.000000 0.000000
# 4 0.000000 0.000000 0.000000 0.042386 0.000000 0.000000
# 5 0.000000 0.000000 0.000000 0.000000 0.042386 0.000000
# 6 0.000000 0.000000 0.000000 0.000000 0.000000 0.030243
#
#
# Mechanical properties :
#
#
# Convention : Reuss Voigt Hill
#
# Bulk Modulus (GPa) = 53.07213 58.99111 56.03162
# Shear Modulus (GPa) = 27.45626 29.89733 28.67680
#
# Velocity S-wave (km/s) = 3.49092 3.64280 3.56767
# Velocity P-wave (km/s) = 6.30911 6.62394 6.46844
#
# Compressibility (1/GPa) = 0.01884228
#
# Stress axis : x y z
#
# Youngs Moduli (GPa) = 61.98015 61.98015 132.29788
#
# Poissons Ratio (x) = 0.32903 0.34290
# Poissons Ratio (y) = 0.32903 0.34290
# Poissons Ratio (z) = 0.16064 0.16064
#
# Static dielectric constant tensor:
#      x y z
#    x 1.910750 0.000000 0.000000 
#    y 0.000000 1.910750 0.000000 
#    z 0.000000 0.000000 1.940970 
# 
# From -- ./inp_files/4299.got.cif
#   From: 2010.05.17/outbox.cif.g08.bks.cpg/sg130_3_cif.got.tgz:4299.got - 2010.05.20 12:17:35.
