data_PCOD9565569
_publ_section_title
;
Structure prediction by ZEFSAII (Michael W. Deem and Ramdas Pophale) SiO2 
 PCOD9565569
Probable space group: P 4/N C C
;
_chemical_formula_sum "Si O2"
_cell_formula_units_Z 80
_cell_length_a 29.718967
_cell_length_b 29.718967
_cell_length_c 5.175383
_cell_angle_alpha 90.000000
_cell_angle_beta 90.000000
_cell_angle_gamma 90.000000
_cell_volume 4570.986245
_symmetry_space_group_name_H-M "P 4/N C C"
_symmetry_group_IT_number 130
_symmetry_cell_setting 'tetragonal'
loop_
_space_group_symop_operation_xyz
x,y,z
1/2-y,x,z
1/2-x,1/2-y,z
y,1/2-x,z
1/2+x,-y,1/2-z
-x,1/2+y,1/2-z
1/2+y,1/2+x,1/2-z
-y,-x,1/2-z
-x,-y,-z
1/2+y,-x,-z
1/2+x,1/2+y,-z
-y,1/2+x,-z
1/2-x,y,1/2+z
x,1/2-y,1/2+z
1/2-y,1/2-x,1/2+z
y,x,1/2+z
loop_
_atom_site_type_symbol
_atom_site_label
_atom_site_fract_x
_atom_site_fract_y
_atom_site_fract_z
Si Si1 0.115085 0.927431 0.005866
Si Si2 0.049961 0.720417 0.053051
Si Si3 0.775241 0.557707 0.591864
Si Si4 0.135663 0.100075 0.124876
Si Si5 0.438302 0.021086 0.601107
O O1 0.103736 0.896265 0.250000
O O2 0.168817 0.933998 0.974044
O O3 0.087194 0.974015 0.053904
O O4 0.094924 0.905077 0.750000
O O5 0.062985 0.752244 0.811582
O O6 0.995654 0.716625 0.063011
O O7 0.764725 0.567553 0.889262
O O8 0.817265 0.584090 0.482966
O O9 0.135756 0.116656 0.418073
O O10 0.101572 0.058021 0.106751
O O11 0.472024 0.036284 0.372791
#
# Coordination Sequence:
#
# PCOD9565569 Si02
#       5
#    16  16  16  16  16
#     4  12  24  37  56  82 112 143 192 231 255 311
#     4  10  21  38  57  77 107 142 176 219 280 321
#     4  10  19  32  53  76 100 133 179 221 268 323
#     4  10  19  32  50  72 105 140 177 218 262 310
#     4  10  21  35  50  71 109 155 191 220 254 296
#
# _framework density 17.501693
#
# number of rings (size 3 to 8) (size 9 to 14) (size 15 to 20)
#    0.000    1.600    2.000    3.600    0.000    2.400 
#    0.000    0.000    0.000    0.000    0.000    0.000 
#    0.000   56.000    0.000    0.000    0.000    0.000 
#
# Total GULP energy -446561.752624 kJ/mol
# GULP energy per Si atom -5582.021908 kJ/mol
# Density = 1.746186 g / cm^3
# Si number density = 17.501693 Si / 1000 Ang^3
#
#
#
# Elastic Constant Matrix: (Units=GPa)
#
#
# Indices 1 2 3 4 5 6 
#
# 1 36.4284 76.5894 29.8034 0.0000 0.0000 0.0000
# 2 76.5894 36.4208 29.7992 0.0000 0.0000 0.0000
# 3 29.8034 29.7992 101.0316 0.0000 0.0000 0.0000
# 4 0.0000 0.0000 0.0000 16.5509 0.0000 0.0000
# 5 0.0000 0.0000 0.0000 0.0000 16.5586 0.0000
# 6 0.0000 0.0000 0.0000 0.0000 0.0000 12.6152
#
#
#
# Elastic Compliance Matrix: (Units=1/GPa)
#
#
# Indices 1 2 3 4 5 6 
#
# 1 -0.007209 0.017688 -0.003091 0.000000 0.000000 0.000000
# 2 0.017688 -0.007210 -0.003091 0.000000 0.000000 0.000000
# 3 -0.003091 -0.003091 0.011721 0.000000 0.000000 0.000000
# 4 0.000000 0.000000 0.000000 0.060420 0.000000 0.000000
# 5 0.000000 0.000000 0.000000 0.000000 0.060391 0.000000
# 6 0.000000 0.000000 0.000000 0.000000 0.000000 0.079269
#
#
# Mechanical properties :
#
#
# Convention : Reuss Voigt Hill
#
# Bulk Modulus (GPa) = 49.22475 49.58497 49.40486
# Shear Modulus (GPa) = 27.60267 11.65754 19.63010
#
# Velocity S-wave (km/s) = 3.97563 2.58365 3.35268
# Velocity P-wave (km/s) = 7.01862 6.10683 6.57854
#
# Compressibility (1/GPa) = 0.02031498
#
# Stress axis : x y z
#
# Youngs Moduli (GPa) = -138.72047 -138.69438 85.31467
#
# Poissons Ratio (x) = 2.45322 0.26367
# Poissons Ratio (y) = 2.45368 0.26372
# Poissons Ratio (z) = -0.42872 -0.42873
#
# Static dielectric constant tensor:
#      x y z
#    x 1.587280 0.000000 0.000000 
#    y 0.000000 1.587280 0.000000 
#    z 0.000000 0.000000 1.496530 
# 
# From -- ./inp_files/215.got.cif
#   From: 2010.05.17/outbox.cif.g08.bks.cpg/sg130_1_cif.got.tgz:215.got - 2010.05.20 12:17:35.
