data_PCOD9565499
_publ_section_title
;
Structure prediction by ZEFSAII (Michael W. Deem and Ramdas Pophale) SiO2 
 PCOD9565499
Probable space group: P 4/N M M
;
_chemical_formula_sum "Si O2"
_cell_formula_units_Z 64
_cell_length_a 19.167354
_cell_length_b 19.167354
_cell_length_c 10.395749
_cell_angle_alpha 90.000000
_cell_angle_beta 90.000000
_cell_angle_gamma 90.000000
_cell_volume 3819.267813
_symmetry_space_group_name_H-M "P 4/N M M"
_symmetry_group_IT_number 129
_symmetry_cell_setting 'tetragonal'
loop_
_space_group_symop_operation_xyz
x,y,z
1/2-y,x,z
1/2-x,1/2-y,z
y,1/2-x,z
1/2+x,-y,-z
-x,1/2+y,-z
1/2+y,1/2+x,-z
-y,-x,-z
-x,-y,-z
1/2+y,-x,-z
1/2+x,1/2+y,-z
-y,1/2+x,-z
1/2-x,y,z
x,1/2-y,z
1/2-y,1/2-x,z
y,x,z
loop_
_atom_site_type_symbol
_atom_site_label
_atom_site_fract_x
_atom_site_fract_y
_atom_site_fract_z
Si Si1 0.666697 0.097456 0.377020
Si Si2 0.600058 0.166749 0.126483
Si Si3 0.054602 0.169629 0.214311
Si Si4 0.831505 0.946437 0.478826
O O1 0.639706 0.139706 0.500000
O O2 0.750000 0.102077 0.369473
O O3 0.633246 0.129653 0.250217
O O4 0.648718 0.016303 0.402240
O O5 0.613538 0.250000 0.130499
O O6 0.516620 0.157145 0.137192
O O7 0.633102 0.133102 0.000000
O O8 0.076688 0.250000 0.194039
O O9 0.115020 0.115020 0.182428
O O10 0.038669 0.162617 0.367582
O O11 0.750000 0.930324 0.453992
O O12 0.882477 0.882477 0.449121
#
# Coordination Sequence:
#
# PCOD9565499 Si02
#       4
#    16  16  16  16
#     4  11  21  34  53  78 105 138 180 221 264 315
#     4  11  23  38  54  77 109 144 181 223 268 316
#     4   9  18  34  55  80 110 140 175 220 266 318
#     4   9  18  33  54  81 110 140 176 219 267 319
#
# _framework density 16.757138000000001
#
# number of rings (size 3 to 8) (size 9 to 14) (size 15 to 20)
#    0.000    2.000    2.500    1.500    0.000    5.500 
#    0.000    2.500    0.000    0.000    0.000    0.000 
#    0.000    8.000    0.000    0.000    0.000    0.000 
#
# Total GULP energy -357145.632143 kJ/mol
# GULP energy per Si atom -5580.400502 kJ/mol
# Density = 1.671900 g / cm^3
# Si number density = 16.757138 Si / 1000 Ang^3
#
#
#
# Elastic Constant Matrix: (Units=GPa)
#
#
# Indices 1 2 3 4 5 6 
#
# 1 116.4029 91.5501 50.2984 0.0000 0.0000 0.0000
# 2 91.5501 116.4029 50.2984 0.0000 0.0000 0.0000
# 3 50.2984 50.2984 81.5119 0.0000 0.0000 0.0000
# 4 0.0000 0.0000 0.0000 12.0964 0.0000 0.0000
# 5 0.0000 0.0000 0.0000 0.0000 12.0964 0.0000
# 6 0.0000 0.0000 0.0000 0.0000 0.0000 36.9429
#
#
#
# Elastic Compliance Matrix: (Units=1/GPa)
#
#
# Indices 1 2 3 4 5 6 
#
# 1 0.023546 -0.016691 -0.004230 0.000000 0.000000 0.000000
# 2 -0.016691 0.023546 -0.004230 0.000000 0.000000 0.000000
# 3 -0.004230 -0.004230 0.017489 0.000000 0.000000 0.000000
# 4 0.000000 0.000000 0.000000 0.082670 0.000000 0.000000
# 5 0.000000 0.000000 0.000000 0.000000 0.082670 0.000000
# 6 0.000000 0.000000 0.000000 0.000000 0.000000 0.027069
#
#
# Mechanical properties :
#
#
# Convention : Reuss Voigt Hill
#
# Bulk Modulus (GPa) = 70.03513 77.62352 73.82933
# Shear Modulus (GPa) = 16.02308 20.37184 18.19746
#
# Velocity S-wave (km/s) = 3.09559 3.49049 3.29895
# Velocity P-wave (km/s) = 7.39337 7.91631 7.65930
#
# Compressibility (1/GPa) = 0.01427855
#
# Stress axis : x y z
#
# Youngs Moduli (GPa) = 42.47012 42.47012 57.18013
#
# Poissons Ratio (x) = 0.70887 0.24187
# Poissons Ratio (y) = 0.70887 0.24187
# Poissons Ratio (z) = 0.17965 0.17965
#
# Static dielectric constant tensor:
#      x y z
#    x 1.554940 0.000000 0.000000 
#    y 0.000000 1.554940 0.000000 
#    z 0.000000 0.000000 1.546870 
# 
# From -- ./inp_files/2083.got.cif
#   From: 2010.05.17/outbox.cif.g08.bks.cpg/sg129_2_cif.got.tgz:2083.got - 2010.05.20 12:12:06.
