data_PCOD9565069
_publ_section_title
;
Structure prediction by ZEFSAII (Michael W. Deem and Ramdas Pophale) SiO2 
 PCOD9565069
Probable space group: P 4/M N C
;
_chemical_formula_sum "Si O2"
_cell_formula_units_Z 40
_cell_length_a 7.708494
_cell_length_b 7.708494
_cell_length_c 24.602403
_cell_angle_alpha 90.000000
_cell_angle_beta 90.000000
_cell_angle_gamma 90.000000
_cell_volume 1461.896430
_symmetry_space_group_name_H-M "P 4/M N C"
_symmetry_group_IT_number 128
_symmetry_cell_setting 'tetragonal'
loop_
_space_group_symop_operation_xyz
x,y,z
-y,x,z
-x,-y,z
y,-x,z
1/2+x,1/2-y,1/2-z
1/2-x,1/2+y,1/2-z
1/2+y,1/2+x,1/2-z
1/2-y,1/2-x,1/2-z
-x,-y,-z
y,-x,-z
x,y,-z
-y,x,-z
1/2-x,1/2+y,1/2+z
1/2+x,1/2-y,1/2+z
1/2-y,1/2-x,1/2+z
1/2+y,1/2+x,1/2+z
loop_
_atom_site_type_symbol
_atom_site_label
_atom_site_fract_x
_atom_site_fract_y
_atom_site_fract_z
Si Si1 0.677370 0.916294 0.336847
Si Si2 0.690166 0.724840 0.439770
Si Si3 0.220734 0.279267 0.750000
O O1 0.766398 0.836043 0.390040
O O2 0.635085 0.755132 0.296852
O O3 0.500000 0.000000 0.356105
O O4 0.741410 0.059153 0.292245
O O5 0.479713 0.732746 0.436246
O O6 0.740758 0.786298 0.500000
#
# Coordination Sequence:
#
# PCOD9565069 Si02
#       3
#    16  16   8
#     4  12  24  44  65 101 143 181 234 292 351 425
#     4   9  20  41  73 107 139 185 237 288 350 425
#     4  12  24  44  64  98 146 184 230 288 362 422
#
# _framework density 27.361722
#
# number of rings (size 3 to 8) (size 9 to 14) (size 15 to 20)
#    0.000    1.200    4.000    3.600    0.000    1.600 
#    0.000    2.000    0.000    0.000    0.000    8.400 
#    0.000    0.000    0.000    0.000    0.000    0.000 
#
# Total GULP energy -222773.316768 kJ/mol
# GULP energy per Si atom -5569.332919 kJ/mol
# Density = 2.729945 g / cm^3
# Si number density = 27.361722 Si / 1000 Ang^3
#
#
#
# Elastic Constant Matrix: (Units=GPa)
#
#
# Indices 1 2 3 4 5 6 
#
# 1 88.0232 1.8362 59.9420 0.0000 0.0000 0.0000
# 2 1.8362 88.0228 59.9424 0.0000 0.0000 0.0000
# 3 59.9420 59.9424 306.2601 0.0000 0.0000 0.0000
# 4 0.0000 0.0000 0.0000 42.6213 0.0000 0.0000
# 5 0.0000 0.0000 0.0000 0.0000 42.6212 0.0000
# 6 0.0000 0.0000 0.0000 0.0000 0.0000 34.3935
#
#
#
# Elastic Compliance Matrix: (Units=1/GPa)
#
#
# Indices 1 2 3 4 5 6 
#
# 1 0.013332 0.001729 -0.002948 0.000000 0.000000 0.000000
# 2 0.001729 0.013332 -0.002948 0.000000 0.000000 0.000000
# 3 -0.002948 -0.002948 0.004419 0.000000 0.000000 0.000000
# 4 0.000000 0.000000 0.000000 0.023462 0.000000 0.000000
# 5 0.000000 0.000000 0.000000 0.000000 0.023462 0.000000
# 6 0.000000 0.000000 0.000000 0.000000 0.000000 0.029075
#
#
# Mechanical properties :
#
#
# Convention : Reuss Voigt Hill
#
# Bulk Modulus (GPa) = 43.95526 80.63861 62.29693
# Shear Modulus (GPa) = 40.65053 47.96624 44.30838
#
# Velocity S-wave (km/s) = 3.85862 4.19148 4.02849
# Velocity P-wave (km/s) = 5.99594 7.27736 6.66751
#
# Compressibility (1/GPa) = 0.02275041
#
# Stress axis : x y z
#
# Youngs Moduli (GPa) = 75.00760 75.00706 226.28908
#
# Poissons Ratio (x) = -0.12971 0.66706
# Poissons Ratio (y) = -0.12971 0.66707
# Poissons Ratio (z) = 0.22111 0.22111
#
# Static dielectric constant tensor:
#      x y z
#    x 2.571810 0.000000 0.000000 
#    y 0.000000 2.571820 0.000000 
#    z 0.000000 0.000000 2.071400 
# 
# From -- ./inp_files/6114.got.cif
#   From: 2010.05.17/outbox.cif.g08.bks.cpg/sg128_4_cif.got.tgz:6114.got - 2010.05.20 12:07:25.
