data_PCOD9565575
_publ_section_title
;
Structure prediction by ZEFSAII (Michael W. Deem and Ramdas Pophale) SiO2 
 PCOD9565575
Probable space group: P 4/N C C
;
_chemical_formula_sum "Si O2"
_cell_formula_units_Z 128
_cell_length_a 25.884994
_cell_length_b 25.884994
_cell_length_c 10.505399
_cell_angle_alpha 90.000000
_cell_angle_beta 90.000000
_cell_angle_gamma 90.000000
_cell_volume 7038.963109
_symmetry_space_group_name_H-M "P 4/N C C"
_symmetry_group_IT_number 130
_symmetry_cell_setting 'tetragonal'
loop_
_space_group_symop_operation_xyz
x,y,z
1/2-y,x,z
1/2-x,1/2-y,z
y,1/2-x,z
1/2+x,-y,1/2-z
-x,1/2+y,1/2-z
1/2+y,1/2+x,1/2-z
-y,-x,1/2-z
-x,-y,-z
1/2+y,-x,-z
1/2+x,1/2+y,-z
-y,1/2+x,-z
1/2-x,y,1/2+z
x,1/2-y,1/2+z
1/2-y,1/2-x,1/2+z
y,x,1/2+z
loop_
_atom_site_type_symbol
_atom_site_label
_atom_site_fract_x
_atom_site_fract_y
_atom_site_fract_z
Si Si1 0.921782 0.691235 0.489753
Si Si2 0.086014 0.300209 0.898327
Si Si3 0.975281 0.560417 0.250252
Si Si4 0.671611 0.711486 0.792230
Si Si5 0.294282 0.618439 0.761130
Si Si6 0.164773 0.743460 0.984282
Si Si7 0.574303 0.902877 0.988760
Si Si8 0.995573 0.170888 0.202032
O O1 0.919261 0.739597 0.581160
O O2 0.872192 0.698585 0.396254
O O3 0.918157 0.632243 0.531316
O O4 0.977895 0.693827 0.423077
O O5 0.143048 0.305702 0.837788
O O6 0.041130 0.317533 0.802437
O O7 0.076740 0.340233 0.013553
O O8 0.928007 0.560219 0.352620
O O9 0.008240 0.508240 0.250000
O O10 0.008754 0.608821 0.302275
O O11 0.959874 0.575062 0.105246
O O12 0.727067 0.683595 0.801365
O O13 0.345424 0.654577 0.750000
O O14 0.256453 0.639025 0.650156
O O15 0.306180 0.559034 0.736754
O O16 0.271200 0.626911 0.901214
O O17 0.197488 0.793721 0.026563
#
# Coordination Sequence:
#
# PCOD9565575 Si02
#       8
#    16  16  16  16  16  16  16  16
#     4  10  20  34  52  76 108 146 184 232 273 329
#     4  10  20  34  52  76 108 146 184 232 273 329
#     4  10  20  38  60  82 108 139 185 238 283 326
#     4  10  20  33  51  77 110 149 190 229 276 329
#     4  10  19  33  54  77 109 143 178 224 268 324
#     4   9  18  32  54  82 108 140 180 221 268 324
#     4  10  21  36  58  85 108 140 192 226 280 337
#     4   9  21  33  50  78 103 146 183 218 277 337
#
# _framework density 18.184495999999999
#
# number of rings (size 3 to 8) (size 9 to 14) (size 15 to 20)
#    0.000    2.250    0.000    3.375    1.750    3.500 
#    0.000    1.250    0.000    0.000    0.000    0.000 
#    0.000    0.000    0.000    0.000    0.000    0.000 
#
# Total GULP energy -712903.901047 kJ/mol
# GULP energy per Si atom -5569.561727 kJ/mol
# Density = 1.814311 g / cm^3
# Si number density = 18.184496 Si / 1000 Ang^3
#
#
#
# Elastic Constant Matrix: (Units=GPa)
#
#
# Indices 1 2 3 4 5 6 
#
# 1 51.9650 14.2158 -6.2181 0.0000 0.0000 0.0000
# 2 14.2158 51.9642 -6.2172 0.0000 0.0000 0.0000
# 3 -6.2181 -6.2172 14.8673 0.0000 0.0000 0.0000
# 4 0.0000 0.0000 0.0000 13.5767 0.0000 0.0000
# 5 0.0000 0.0000 0.0000 0.0000 13.5769 0.0000
# 6 0.0000 0.0000 0.0000 0.0000 0.0000 17.6665
#
#
#
# Elastic Compliance Matrix: (Units=1/GPa)
#
#
# Indices 1 2 3 4 5 6 
#
# 1 0.021445 -0.005046 0.006859 0.000000 0.000000 0.000000
# 2 -0.005046 0.021445 0.006857 0.000000 0.000000 0.000000
# 3 0.006859 0.006857 0.072998 0.000000 0.000000 0.000000
# 4 0.000000 0.000000 0.000000 0.073655 0.000000 0.000000
# 5 0.000000 0.000000 0.000000 0.000000 0.073654 0.000000
# 6 0.000000 0.000000 0.000000 0.000000 0.000000 0.056604
#
#
# Mechanical properties :
#
#
# Convention : Reuss Voigt Hill
#
# Bulk Modulus (GPa) = 7.50589 13.59528 10.55059
# Shear Modulus (GPa) = 14.41458 16.76510 15.58984
#
# Velocity S-wave (km/s) = 2.81852 3.03965 2.93117
# Velocity P-wave (km/s) = 3.83780 4.45105 4.15575
#
# Compressibility (1/GPa) = 0.13322862
#
# Stress axis : x y z
#
# Youngs Moduli (GPa) = 46.63120 46.63109 13.69897
#
# Poissons Ratio (x) = 0.23530 -0.09396
# Poissons Ratio (y) = 0.23530 -0.09394
# Poissons Ratio (z) = -0.31984 -0.31977
#
# Static dielectric constant tensor:
#      x y z
#    x 1.624000 0.000000 0.000000 
#    y 0.000000 1.624000 0.000000 
#    z 0.000000 0.000000 1.667360 
# 
# From -- ./inp_files/1896.got.cif
#   From: 2010.05.17/outbox.cif.g08.bks.cpg/sg130_1_cif.got.tgz:1896.got - 2010.05.20 12:17:35.
