data_PCOD9565366
_publ_section_title
;
Structure prediction by ZEFSAII (Michael W. Deem and Ramdas Pophale) SiO2 
 PCOD9565366
Probable space group: P 4/N M M
;
_chemical_formula_sum "Si O2"
_cell_formula_units_Z 112
_cell_length_a 13.960395
_cell_length_b 13.960395
_cell_length_c 36.325741
_cell_angle_alpha 90.000000
_cell_angle_beta 90.000000
_cell_angle_gamma 90.000000
_cell_volume 7079.619148
_symmetry_space_group_name_H-M "P 4/N M M"
_symmetry_group_IT_number 129
_symmetry_cell_setting 'tetragonal'
loop_
_space_group_symop_operation_xyz
x,y,z
1/2-y,x,z
1/2-x,1/2-y,z
y,1/2-x,z
1/2+x,-y,-z
-x,1/2+y,-z
1/2+y,1/2+x,-z
-y,-x,-z
-x,-y,-z
1/2+y,-x,-z
1/2+x,1/2+y,-z
-y,1/2+x,-z
1/2-x,y,z
x,1/2-y,z
1/2-y,1/2-x,z
y,x,z
loop_
_atom_site_type_symbol
_atom_site_label
_atom_site_fract_x
_atom_site_fract_y
_atom_site_fract_z
Si Si1 0.138162 0.861766 0.105175
Si Si2 0.136242 0.521482 0.030715
Si Si3 0.860372 0.135749 0.604076
Si Si4 0.977499 0.363482 0.240020
Si Si5 0.637556 0.019227 0.676381
Si Si6 0.021360 0.863392 0.179488
Si Si7 0.478072 0.635191 0.469023
O O1 0.250000 0.873081 0.115874
O O2 0.125009 0.750000 0.094458
O O3 0.119658 0.929289 0.070410
O O4 0.071559 0.881628 0.140069
O O5 0.250000 0.509661 0.025551
O O6 0.077355 0.422646 0.028656
O O7 0.091616 0.591616 0.000000
O O8 0.750000 0.107449 0.595415
O O9 0.861469 0.250000 0.608163
O O10 0.929882 0.111761 0.570409
O O11 0.887889 0.088806 0.642851
O O12 0.990679 0.250000 0.234320
O O13 0.904198 0.408450 0.210979
O O14 0.076428 0.423573 0.236238
O O15 0.942686 0.378970 0.282170
O O16 0.750000 0.998518 0.673749
O O17 0.575980 0.924021 0.672541
O O18 0.007219 0.750000 0.183477
O O19 0.923797 0.923797 0.181711
O O20 0.406995 0.593006 0.500000
O O21 0.487870 0.750000 0.472286
O O22 0.577634 0.577634 0.472449
#
# Coordination Sequence:
#
# PCOD9565366 Si02
#       7
#    16  16  16  16  16  16  16
#     4   9  17  30  50  74  96 120 153 192 233 278
#     4  10  20  33  50  72  98 128 161 197 236 278
#     4   9  17  29  46  68  92 119 153 191 228 267
#     4   9  18  31  47  69  95 123 156 193 234 280
#     4   9  17  29  45  66  93 122 151 185 225 271
#     4  10  20  33  49  69  94 124 158 196 236 278
#     4  10  20  33  50  71  94 122 155 191 232 276
#
# _framework density 15.820061000000001
#
# number of rings (size 3 to 8) (size 9 to 14) (size 15 to 20)
#    0.000    2.571    0.000    2.143    0.000    3.571 
#    0.000    2.857    0.000    0.000    0.000    6.000 
#    0.000    3.429    0.000    0.000    0.000    0.000 
#
# Total GULP energy -624125.164106 kJ/mol
# GULP energy per Si atom -5572.546108 kJ/mol
# Density = 1.578405 g / cm^3
# Si number density = 15.820061 Si / 1000 Ang^3
#
#
#
# Elastic Constant Matrix: (Units=GPa)
#
#
# Indices 1 2 3 4 5 6 
#
# 1 91.2116 64.3420 67.3301 0.0000 0.0000 0.0000
# 2 64.3420 91.2111 67.3298 0.0000 0.0000 0.0000
# 3 67.3301 67.3298 111.6867 0.0000 0.0000 0.0000
# 4 0.0000 0.0000 0.0000 25.4471 0.0000 0.0000
# 5 0.0000 0.0000 0.0000 0.0000 25.4470 0.0000
# 6 0.0000 0.0000 0.0000 0.0000 0.0000 15.5762
#
#
#
# Elastic Compliance Matrix: (Units=1/GPa)
#
#
# Indices 1 2 3 4 5 6 
#
# 1 0.025331 -0.011886 -0.008106 0.000000 0.000000 0.000000
# 2 -0.011886 0.025331 -0.008106 0.000000 0.000000 0.000000
# 3 -0.008106 -0.008106 0.018726 0.000000 0.000000 0.000000
# 4 0.000000 0.000000 0.000000 0.039297 0.000000 0.000000
# 5 0.000000 0.000000 0.000000 0.000000 0.039297 0.000000
# 6 0.000000 0.000000 0.000000 0.000000 0.000000 0.064200
#
#
# Mechanical properties :
#
#
# Convention : Reuss Voigt Hill
#
# Bulk Modulus (GPa) = 75.78531 76.90147 76.34339
# Shear Modulus (GPa) = 18.33003 19.63458 18.98231
#
# Velocity S-wave (km/s) = 3.40760 3.52677 3.46770
# Velocity P-wave (km/s) = 7.96812 8.08083 8.02467
#
# Compressibility (1/GPa) = 0.01319517
#
# Stress axis : x y z
#
# Youngs Moduli (GPa) = 39.47682 39.47677 53.40032
#
# Poissons Ratio (x) = 0.46921 0.43284
# Poissons Ratio (y) = 0.46921 0.43284
# Poissons Ratio (z) = 0.31998 0.31998
#
# Static dielectric constant tensor:
#      x y z
#    x 1.509220 0.000000 0.000000 
#    y 0.000000 1.509220 0.000000 
#    z 0.000000 0.000000 1.530510 
# 
# From -- ./inp_files/7908.got.cif
#   From: 2010.05.17/outbox.cif.g08.bks.cpg/sg129_4_cif.got.tgz:7908.got - 2010.05.20 12:12:06.
