data_PCOD9565120
_publ_section_title
;
Structure prediction by ZEFSAII (Michael W. Deem and Ramdas Pophale) SiO2 
 PCOD9565120
Probable space group: P 4/N M M
;
_chemical_formula_sum "Si O2"
_cell_formula_units_Z 64
_cell_length_a 23.296929
_cell_length_b 23.296929
_cell_length_c 7.245828
_cell_angle_alpha 90.000000
_cell_angle_beta 90.000000
_cell_angle_gamma 90.000000
_cell_volume 3932.650691
_symmetry_space_group_name_H-M "P 4/N M M"
_symmetry_group_IT_number 129
_symmetry_cell_setting 'tetragonal'
loop_
_space_group_symop_operation_xyz
x,y,z
1/2-y,x,z
1/2-x,1/2-y,z
y,1/2-x,z
1/2+x,-y,-z
-x,1/2+y,-z
1/2+y,1/2+x,-z
-y,-x,-z
-x,-y,-z
1/2+y,-x,-z
1/2+x,1/2+y,-z
-y,1/2+x,-z
1/2-x,y,z
x,1/2-y,z
1/2-y,1/2-x,z
y,x,z
loop_
_atom_site_type_symbol
_atom_site_label
_atom_site_fract_x
_atom_site_fract_y
_atom_site_fract_z
Si Si1 0.408174 0.315116 0.910512
Si Si2 0.062346 0.970261 0.711755
Si Si3 0.997291 0.815889 0.397082
Si Si4 0.975003 0.620078 0.773688
O O1 0.400452 0.250000 0.969791
O O2 0.349910 0.349910 0.911886
O O3 0.436653 0.315902 0.708936
O O4 0.451348 0.346075 0.051826
O O5 0.043711 0.956290 0.500000
O O6 0.029561 0.919968 0.820344
O O7 0.131198 0.970046 0.704741
O O8 0.031575 0.031575 0.758910
O O9 0.019598 0.750000 0.385471
O O10 0.989594 0.837153 0.606638
O O11 0.925003 0.574998 0.714131
#
# Coordination Sequence:
#
# PCOD9565120 Si02
#       4
#    16  16  16  16
#     4  10  20  31  44  63  86 116 151 181 213 252
#     4   8  14  26  44  64  85 110 140 175 219 264
#     4  10  18  28  43  63  89 115 139 171 211 260
#     4   9  17  30  47  64  84 111 144 184 225 260
#
# _framework density 16.274011999999999
#
# number of rings (size 3 to 8) (size 9 to 14) (size 15 to 20)
#    0.000    2.750    0.000    4.500    0.000    1.250 
#    0.000    3.750    0.000    0.000    0.000    3.500 
#    0.000   59.500    0.000   55.000    0.000    0.250 
#
# Total GULP energy -356423.828657 kJ/mol
# GULP energy per Si atom -5569.122323 kJ/mol
# Density = 1.623697 g / cm^3
# Si number density = 16.274012 Si / 1000 Ang^3
#
#
#
# Elastic Constant Matrix: (Units=GPa)
#
#
# Indices 1 2 3 4 5 6 
#
# 1 116.6140 48.2390 23.2323 0.0000 0.0000 0.0000
# 2 48.2390 116.6132 23.2327 0.0000 0.0000 0.0000
# 3 23.2323 23.2327 36.0790 0.0000 0.0000 0.0000
# 4 0.0000 0.0000 0.0000 19.2745 0.0000 0.0000
# 5 0.0000 0.0000 0.0000 0.0000 19.2745 0.0000
# 6 0.0000 0.0000 0.0000 0.0000 0.0000 15.9645
#
#
#
# Elastic Compliance Matrix: (Units=1/GPa)
#
#
# Indices 1 2 3 4 5 6 
#
# 1 0.011018 -0.003607 -0.004772 0.000000 0.000000 0.000000
# 2 -0.003607 0.011018 -0.004772 0.000000 0.000000 0.000000
# 3 -0.004772 -0.004772 0.033863 0.000000 0.000000 0.000000
# 4 0.000000 0.000000 0.000000 0.051882 0.000000 0.000000
# 5 0.000000 0.000000 0.000000 0.000000 0.051882 0.000000
# 6 0.000000 0.000000 0.000000 0.000000 0.000000 0.062639
#
#
# Mechanical properties :
#
#
# Convention : Reuss Voigt Hill
#
# Bulk Modulus (GPa) = 33.78818 50.96824 42.37821
# Shear Modulus (GPa) = 19.34454 22.54286 20.94370
#
# Velocity S-wave (km/s) = 3.45146 3.72587 3.59129
# Velocity P-wave (km/s) = 6.05727 7.06373 6.57977
#
# Compressibility (1/GPa) = 0.02959615
#
# Stress axis : x y z
#
# Youngs Moduli (GPa) = 90.75936 90.75818 29.53079
#
# Poissons Ratio (x) = 0.32737 0.14092
# Poissons Ratio (y) = 0.32738 0.14093
# Poissons Ratio (z) = 0.43312 0.43313
#
# Static dielectric constant tensor:
#      x y z
#    x 1.555280 0.000000 0.000000 
#    y 0.000000 1.555280 0.000000 
#    z 0.000000 0.000000 1.596170 
# 
# From -- ./inp_files/2060.got.cif
#   From: 2010.05.17/outbox.cif.g08.bks.cpg/sg129_2_cif.got.tgz:2060.got - 2010.05.20 12:12:06.
