data_PCOD9565989
_publ_section_title
;
Structure prediction by ZEFSAII (Michael W. Deem and Ramdas Pophale) SiO2 
 PCOD9565989
Probable space group: P 4/N C C
;
_chemical_formula_sum "Si O2"
_cell_formula_units_Z 52
_cell_length_a 14.647020
_cell_length_b 14.647020
_cell_length_c 9.660079
_cell_angle_alpha 90.000000
_cell_angle_beta 90.000000
_cell_angle_gamma 90.000000
_cell_volume 2072.426931
_symmetry_space_group_name_H-M "P 4/N C C"
_symmetry_group_IT_number 130
_symmetry_cell_setting 'tetragonal'
loop_
_space_group_symop_operation_xyz
x,y,z
1/2-y,x,z
1/2-x,1/2-y,z
y,1/2-x,z
1/2+x,-y,1/2-z
-x,1/2+y,1/2-z
1/2+y,1/2+x,1/2-z
-y,-x,1/2-z
-x,-y,-z
1/2+y,-x,-z
1/2+x,1/2+y,-z
-y,1/2+x,-z
1/2-x,y,1/2+z
x,1/2-y,1/2+z
1/2-y,1/2-x,1/2+z
y,x,1/2+z
loop_
_atom_site_type_symbol
_atom_site_label
_atom_site_fract_x
_atom_site_fract_y
_atom_site_fract_z
Si Si1 0.350532 0.076924 0.551593
Si Si2 0.122559 0.011108 0.325807
Si Si3 0.250000 0.250000 0.973615
Si Si4 0.235496 0.610749 0.467731
O O1 0.444048 0.093177 0.470026
O O2 0.273081 0.140882 0.487772
O O3 0.353139 0.091334 0.716624
O O4 0.319445 0.972385 0.534115
O O5 0.039308 0.960693 0.250000
O O6 0.203489 0.938515 0.351068
O O7 0.162204 0.689907 0.435252
#
# Coordination Sequence:
#
# PCOD9565989 Si02
#       4
#    16  16   4  16
#     4  12  28  49  80 119 161 209 274 337 407 487
#     4  12  27  51  80 118 161 216 269 334 411 485
#     4  12  28  50  80 114 156 218 272 338 404 494
#     4  11  26  51  78 117 162 214 270 339 405 486
#
# _framework density 25.091353999999999
#
# number of rings (size 3 to 8) (size 9 to 14) (size 15 to 20)
#    0.000    0.308    6.154    0.923    4.308    2.462 
#    0.000    0.000    0.000    0.000    0.000    0.000 
#    0.000    0.000    0.000    0.000    0.000    0.000 
#
# Total GULP energy -289878.145977 kJ/mol
# GULP energy per Si atom -5574.579730 kJ/mol
# Density = 2.503424 g / cm^3
# Si number density = 25.091354 Si / 1000 Ang^3
#
#
#
# Elastic Constant Matrix: (Units=GPa)
#
#
# Indices 1 2 3 4 5 6 
#
# 1 141.0237 23.5290 19.5149 0.0000 0.0000 0.0000
# 2 23.5290 141.0219 19.5136 0.0000 0.0000 0.0000
# 3 19.5149 19.5136 92.7501 0.0000 0.0000 0.0000
# 4 0.0000 0.0000 0.0000 19.1206 0.0000 0.0000
# 5 0.0000 0.0000 0.0000 0.0000 19.1213 0.0000
# 6 0.0000 0.0000 0.0000 0.0000 0.0000 90.3854
#
#
#
# Elastic Compliance Matrix: (Units=1/GPa)
#
#
# Indices 1 2 3 4 5 6 
#
# 1 0.007454 -0.001057 -0.001346 0.000000 0.000000 0.000000
# 2 -0.001057 0.007454 -0.001346 0.000000 0.000000 0.000000
# 3 -0.001346 -0.001346 0.011348 0.000000 0.000000 0.000000
# 4 0.000000 0.000000 0.000000 0.052300 0.000000 0.000000
# 5 0.000000 0.000000 0.000000 0.000000 0.052298 0.000000
# 6 0.000000 0.000000 0.000000 0.000000 0.000000 0.011064
#
#
# Mechanical properties :
#
#
# Convention : Reuss Voigt Hill
#
# Bulk Modulus (GPa) = 53.31194 55.54563 54.42879
# Shear Modulus (GPa) = 32.11992 46.54133 39.33062
#
# Velocity S-wave (km/s) = 3.58176 4.31150 3.96346
# Velocity P-wave (km/s) = 6.19666 6.85352 6.53335
#
# Compressibility (1/GPa) = 0.01875752
#
# Stress axis : x y z
#
# Youngs Moduli (GPa) = 134.16225 134.16100 88.12167
#
# Poissons Ratio (x) = 0.14186 0.11859
# Poissons Ratio (y) = 0.14186 0.11859
# Poissons Ratio (z) = 0.18056 0.18054
#
# Static dielectric constant tensor:
#      x y z
#    x 2.020930 0.000000 0.000000 
#    y 0.000000 2.020940 0.000000 
#    z 0.000000 0.000000 2.098650 
# 
# From -- ./inp_files/1368.got.cif
#   From: 2010.05.17/outbox.cif.g08.bks.cpg/sg130_1_cif.got.tgz:1368.got - 2010.05.20 12:17:35.
