data_PCOD9565542
_publ_section_title
;
Structure prediction by ZEFSAII (Michael W. Deem and Ramdas Pophale) SiO2 
 PCOD9565542
Probable space group: P 4/N C C
;
_chemical_formula_sum "Si O2"
_cell_formula_units_Z 88
_cell_length_a 16.922563
_cell_length_b 16.922563
_cell_length_c 15.721463
_cell_angle_alpha 90.000000
_cell_angle_beta 90.000000
_cell_angle_gamma 90.000000
_cell_volume 4502.204701
_symmetry_space_group_name_H-M "P 4/N C C"
_symmetry_group_IT_number 130
_symmetry_cell_setting 'tetragonal'
loop_
_space_group_symop_operation_xyz
x,y,z
1/2-y,x,z
1/2-x,1/2-y,z
y,1/2-x,z
1/2+x,-y,1/2-z
-x,1/2+y,1/2-z
1/2+y,1/2+x,1/2-z
-y,-x,1/2-z
-x,-y,-z
1/2+y,-x,-z
1/2+x,1/2+y,-z
-y,1/2+x,-z
1/2-x,y,1/2+z
x,1/2-y,1/2+z
1/2-y,1/2-x,1/2+z
y,x,1/2+z
loop_
_atom_site_type_symbol
_atom_site_label
_atom_site_fract_x
_atom_site_fract_y
_atom_site_fract_z
Si Si1 0.588485 0.609340 0.302205
Si Si2 0.419504 0.515027 0.051987
Si Si3 0.848524 0.441170 0.187076
Si Si4 0.635423 0.694790 0.659807
Si Si5 0.540628 0.318066 0.397627
Si Si6 0.072264 0.927737 0.750000
O O1 0.562671 0.615258 0.400229
O O2 0.520078 0.652219 0.245865
O O3 0.672891 0.631786 0.261099
O O4 0.581979 0.516452 0.282523
O O5 0.443422 0.575833 0.125911
O O6 0.500000 0.500000 0.000000
O O7 0.352733 0.552405 0.991221
O O8 0.867457 0.367457 0.250000
O O9 0.771304 0.439814 0.128438
O O10 0.714777 0.649123 0.634468
O O11 0.553196 0.667923 0.619996
O O12 0.586236 0.370894 0.329002
#
# Coordination Sequence:
#
# PCOD9565542 Si02
#       6
#    16  16  16  16  16   8
#     4  10  17  37  59  86 120 163 198 240 298 369
#     4  11  20  37  63  91 124 155 206 263 298 370
#     4  10  21  41  63  85 120 162 205 255 310 364
#     4  10  20  35  58  89 125 161 197 241 303 378
#     4  11  22  38  64  94 116 161 215 254 316 365
#     4  10  18  36  63  82 112 159 210 242 288 374
#
# _framework density 19.54598
#
# number of rings (size 3 to 8) (size 9 to 14) (size 15 to 20)
#    0.000    1.636    6.364    1.091    0.000    0.000 
#    9.818    0.455    0.000    2.182    0.000    0.000 
#    0.000    0.000    0.000    0.000    0.000    0.000 
#
# Total GULP energy -490111.272954 kJ/mol
# GULP energy per Si atom -5569.446284 kJ/mol
# Density = 1.950149 g / cm^3
# Si number density = 19.545980 Si / 1000 Ang^3
#
#
#
# Elastic Constant Matrix: (Units=GPa)
#
#
# Indices 1 2 3 4 5 6 
#
# 1 54.5124 -10.9663 -0.4686 0.0000 0.0000 0.0000
# 2 -10.9663 54.5133 -0.4690 0.0000 0.0000 0.0000
# 3 -0.4686 -0.4690 74.5679 0.0000 0.0000 0.0000
# 4 0.0000 0.0000 0.0000 23.4733 0.0000 0.0000
# 5 0.0000 0.0000 0.0000 0.0000 23.4733 0.0000
# 6 0.0000 0.0000 0.0000 0.0000 0.0000 21.1779
#
#
#
# Elastic Compliance Matrix: (Units=1/GPa)
#
#
# Indices 1 2 3 4 5 6 
#
# 1 0.019120 0.003847 0.000144 0.000000 0.000000 0.000000
# 2 0.003847 0.019119 0.000144 0.000000 0.000000 0.000000
# 3 0.000144 0.000144 0.013412 0.000000 0.000000 0.000000
# 4 0.000000 0.000000 0.000000 0.042602 0.000000 0.000000
# 5 0.000000 0.000000 0.000000 0.000000 0.042602 0.000000
# 6 0.000000 0.000000 0.000000 0.000000 0.000000 0.047219
#
#
# Mechanical properties :
#
#
# Convention : Reuss Voigt Hill
#
# Bulk Modulus (GPa) = 16.68779 17.75398 17.22089
# Shear Modulus (GPa) = 25.53943 26.65808 26.09875
#
# Velocity S-wave (km/s) = 3.61866 3.69706 3.65807
# Velocity P-wave (km/s) = 5.10057 5.22755 5.16445
#
# Compressibility (1/GPa) = 0.05992404
#
# Stress axis : x y z
#
# Youngs Moduli (GPa) = 52.30206 52.30299 74.55780
#
# Poissons Ratio (x) = -0.20124 -0.01076
# Poissons Ratio (y) = -0.20123 -0.01077
# Poissons Ratio (z) = -0.00755 -0.00755
#
# Static dielectric constant tensor:
#      x y z
#    x 1.714620 0.000000 0.000000 
#    y 0.000000 1.714620 0.000000 
#    z 0.000000 0.000000 1.720690 
# 
# From -- ./inp_files/2372.got.cif
#   From: 2010.05.17/outbox.cif.g08.bks.cpg/sg130_2_cif.got.tgz:2372.got - 2010.05.20 12:17:35.
