data_PCOD9565945
_publ_section_title
;
Structure prediction by ZEFSAII (Michael W. Deem and Ramdas Pophale) SiO2 
 PCOD9565945
Probable space group: P 4/N C C
;
_chemical_formula_sum "Si O2"
_cell_formula_units_Z 80
_cell_length_a 13.107102
_cell_length_b 13.107102
_cell_length_c 18.909018
_cell_angle_alpha 90.000000
_cell_angle_beta 90.000000
_cell_angle_gamma 90.000000
_cell_volume 3248.495979
_symmetry_space_group_name_H-M "P 4/N C C"
_symmetry_group_IT_number 130
_symmetry_cell_setting 'tetragonal'
loop_
_space_group_symop_operation_xyz
x,y,z
1/2-y,x,z
1/2-x,1/2-y,z
y,1/2-x,z
1/2+x,-y,1/2-z
-x,1/2+y,1/2-z
1/2+y,1/2+x,1/2-z
-y,-x,1/2-z
-x,-y,-z
1/2+y,-x,-z
1/2+x,1/2+y,-z
-y,1/2+x,-z
1/2-x,y,1/2+z
x,1/2-y,1/2+z
1/2-y,1/2-x,1/2+z
y,x,1/2+z
loop_
_atom_site_type_symbol
_atom_site_label
_atom_site_fract_x
_atom_site_fract_y
_atom_site_fract_z
Si Si1 0.349463 0.966728 0.962808
Si Si2 0.760715 0.915449 0.351505
Si Si3 0.814020 0.355372 0.331610
Si Si4 0.199678 0.405453 0.315580
Si Si5 0.365621 0.983174 0.435517
O O1 0.312956 0.126521 0.839169
O O2 0.239396 0.015067 0.972411
O O3 0.436330 0.049187 0.954588
O O4 0.377572 0.896933 0.029761
O O5 0.656785 0.856132 0.377380
O O6 0.242087 0.962337 0.147713
O O7 0.787451 0.906036 0.267689
O O8 0.750000 0.250000 0.334954
O O9 0.857913 0.357913 0.250000
O O10 0.899733 0.347093 0.391932
O O11 0.155134 0.505966 0.351922
#
# Coordination Sequence:
#
# PCOD9565945 Si02
#       5
#    16  16  16  16  16
#     4  11  27  44  73 101 143 188 239 293 366 424
#     4   9  20  42  73 106 142 190 246 306 361 422
#     4  11  26  47  67 107 154 194 237 291 371 443
#     4   9  16  33  69 104 129 172 239 298 346 412
#     4  11  23  44  68 105 130 183 241 297 350 427
#
# _framework density 24.626784000000001
#
# number of rings (size 3 to 8) (size 9 to 14) (size 15 to 20)
#    0.000    1.800    2.000    2.400    5.600    2.000 
#    7.200    0.000    0.000    2.400    0.000    0.000 
#    0.000    0.000    0.000    0.000    0.000    0.000 
#
# Total GULP energy -446304.555050 kJ/mol
# GULP energy per Si atom -5578.806938 kJ/mol
# Density = 2.457073 g / cm^3
# Si number density = 24.626784 Si / 1000 Ang^3
#
#
#
# Elastic Constant Matrix: (Units=GPa)
#
#
# Indices 1 2 3 4 5 6 
#
# 1 126.7190 65.0589 47.8099 0.0000 0.0000 0.0000
# 2 65.0589 126.7190 47.8099 0.0000 0.0000 0.0000
# 3 47.8099 47.8099 89.5519 0.0000 0.0000 0.0000
# 4 0.0000 0.0000 0.0000 24.0604 0.0000 0.0000
# 5 0.0000 0.0000 0.0000 0.0000 24.0604 0.0000
# 6 0.0000 0.0000 0.0000 0.0000 0.0000 31.5105
#
#
#
# Elastic Compliance Matrix: (Units=1/GPa)
#
#
# Indices 1 2 3 4 5 6 
#
# 1 0.011662 -0.004556 -0.003794 0.000000 0.000000 0.000000
# 2 -0.004556 0.011662 -0.003794 0.000000 0.000000 0.000000
# 3 -0.003794 -0.003794 0.015217 0.000000 0.000000 0.000000
# 4 0.000000 0.000000 0.000000 0.041562 0.000000 0.000000
# 5 0.000000 0.000000 0.000000 0.000000 0.041562 0.000000
# 6 0.000000 0.000000 0.000000 0.000000 0.000000 0.031735
#
#
# Mechanical properties :
#
#
# Convention : Reuss Voigt Hill
#
# Bulk Modulus (GPa) = 70.15338 73.81637 71.98487
# Shear Modulus (GPa) = 27.40641 28.08035 27.74338
#
# Velocity S-wave (km/s) = 3.33959 3.38040 3.36006
# Velocity P-wave (km/s) = 6.58931 6.72869 6.65936
#
# Compressibility (1/GPa) = 0.01425448
#
# Stress axis : x y z
#
# Youngs Moduli (GPa) = 85.74927 85.74927 65.71405
#
# Poissons Ratio (x) = 0.39068 0.24930
# Poissons Ratio (y) = 0.39068 0.24930
# Poissons Ratio (z) = 0.32531 0.32531
#
# Static dielectric constant tensor:
#      x y z
#    x 2.010000 0.000000 0.000000 
#    y 0.000000 2.010000 0.000000 
#    z 0.000000 0.000000 1.996570 
# 
# From -- ./inp_files/4783.got.cif
#   From: 2010.05.17/outbox.cif.g08.bks.cpg/sg130_3_cif.got.tgz:4783.got - 2010.05.20 12:17:35.
