data_PCOD9565163
_publ_section_title
;
Structure prediction by ZEFSAII (Michael W. Deem and Ramdas Pophale) SiO2 
 PCOD9565163
Probable space group: P 4/N M M
;
_chemical_formula_sum "Si O2"
_cell_formula_units_Z 88
_cell_length_a 18.594227
_cell_length_b 18.594227
_cell_length_c 13.478524
_cell_angle_alpha 90.000000
_cell_angle_beta 90.000000
_cell_angle_gamma 90.000000
_cell_volume 4660.136024
_symmetry_space_group_name_H-M "P 4/N M M"
_symmetry_group_IT_number 129
_symmetry_cell_setting 'tetragonal'
loop_
_space_group_symop_operation_xyz
x,y,z
1/2-y,x,z
1/2-x,1/2-y,z
y,1/2-x,z
1/2+x,-y,-z
-x,1/2+y,-z
1/2+y,1/2+x,-z
-y,-x,-z
-x,-y,-z
1/2+y,-x,-z
1/2+x,1/2+y,-z
-y,1/2+x,-z
1/2-x,y,z
x,1/2-y,z
1/2-y,1/2-x,z
y,x,z
loop_
_atom_site_type_symbol
_atom_site_label
_atom_site_fract_x
_atom_site_fract_y
_atom_site_fract_z
Si Si1 0.330990 0.530963 0.214757
Si Si2 0.105896 0.605896 0.500000
Si Si3 0.671586 0.551932 0.205457
Si Si4 0.002499 0.619617 0.998083
Si Si5 0.336935 0.045462 0.419740
Si Si6 0.097440 0.669685 0.292523
O O1 0.250000 0.555630 0.231385
O O2 0.339065 0.498859 0.105574
O O3 0.346587 0.474747 0.302779
O O4 0.378464 0.602139 0.227149
O O5 0.125290 0.522998 0.473793
O O6 0.124091 0.652105 0.402898
O O7 0.750000 0.586688 0.209888
O O8 0.608278 0.608278 0.217256
O O9 0.667975 0.489103 0.286576
O O10 0.663171 0.513115 0.098156
O O11 0.941997 0.558004 0.995516
O O12 0.078656 0.578656 0.000000
O O13 0.250000 0.048961 0.439562
O O14 0.382020 0.117981 0.441860
O O15 0.119831 0.750000 0.260858
#
# Coordination Sequence:
#
# PCOD9565163 Si02
#       6
#    16   8  16  16  16  16
#     4  10  20  34  53  78 110 144 182 226 271 323
#     4  10  21  38  60  83 106 143 188 238 281 332
#     4  10  21  36  56  82 112 146 184 226 272 325
#     4  10  18  31  54  81 107 142 185 225 266 313
#     4  10  21  36  56  83 112 145 184 230 284 338
#     4  10  21  37  56  79 108 141 181 228 280 335
#
# _framework density 18.883569999999999
#
# number of rings (size 3 to 8) (size 9 to 14) (size 15 to 20)
#    0.000    2.000    1.818    1.909    0.000    5.091 
#    0.000    0.000    0.000    3.545    0.000    5.091 
#    0.000    0.000    0.000    0.000    0.000    0.000 
#
# Total GULP energy -490417.774024 kJ/mol
# GULP energy per Si atom -5572.929250 kJ/mol
# Density = 1.884059 g / cm^3
# Si number density = 18.883570 Si / 1000 Ang^3
#
#
#
# Elastic Constant Matrix: (Units=GPa)
#
#
# Indices 1 2 3 4 5 6 
#
# 1 79.5176 45.3369 -0.8169 0.0000 0.0000 0.0000
# 2 45.3369 79.5176 -0.8169 0.0000 0.0000 0.0000
# 3 -0.8169 -0.8169 59.2944 0.0000 0.0000 0.0000
# 4 0.0000 0.0000 0.0000 16.2635 0.0000 0.0000
# 5 0.0000 0.0000 0.0000 0.0000 16.2635 0.0000
# 6 0.0000 0.0000 0.0000 0.0000 0.0000 -23.6893
#
#
#
# Elastic Compliance Matrix: (Units=1/GPa)
#
#
# Indices 1 2 3 4 5 6 
#
# 1 0.018634 -0.010623 0.000110 0.000000 0.000000 0.000000
# 2 -0.010623 0.018634 0.000110 0.000000 0.000000 0.000000
# 3 0.000110 0.000110 0.016868 0.000000 0.000000 0.000000
# 4 0.000000 0.000000 0.000000 0.061487 0.000000 0.000000
# 5 0.000000 0.000000 0.000000 0.000000 0.061487 0.000000
# 6 0.000000 0.000000 0.000000 0.000000 0.000000 -0.042213
#
#
# Mechanical properties :
#
#
# Convention : Reuss Voigt Hill
#
# Bulk Modulus (GPa) = 30.00206 33.97063 31.98634
# Shear Modulus (GPa) = 29.97400 13.40931 21.69165
#
# Velocity S-wave (km/s) = 3.98842 2.66767 3.39293
# Velocity P-wave (km/s) = 6.09364 5.24568 5.68549
#
# Compressibility (1/GPa) = 0.03333105
#
# Stress axis : x y z
#
# Youngs Moduli (GPa) = 53.66666 53.66666 59.28375
#
# Poissons Ratio (x) = 0.57009 -0.00654
# Poissons Ratio (y) = 0.57009 -0.00654
# Poissons Ratio (z) = -0.00592 -0.00592
#
# Static dielectric constant tensor:
#      x y z
#    x 1.648550 0.000000 0.000000 
#    y 0.000000 1.648550 0.000000 
#    z 0.000000 0.000000 1.683910 
# 
# From -- ./inp_files/4806.got.cif
#   From: 2010.05.17/outbox.cif.g08.bks.cpg/sg129_3_cif.got.tgz:4806.got - 2010.05.20 12:12:06.
