data_PCOD9565898
_publ_section_title
;
Structure prediction by ZEFSAII (Michael W. Deem and Ramdas Pophale) SiO2 
 PCOD9565898
Probable space group: P 4/N C C
;
_chemical_formula_sum "Si O2"
_cell_formula_units_Z 108
_cell_length_a 15.889894
_cell_length_b 15.889894
_cell_length_c 22.759453
_cell_angle_alpha 90.000000
_cell_angle_beta 90.000000
_cell_angle_gamma 90.000000
_cell_volume 5746.505414
_symmetry_space_group_name_H-M "P 4/N C C"
_symmetry_group_IT_number 130
_symmetry_cell_setting 'tetragonal'
loop_
_space_group_symop_operation_xyz
x,y,z
1/2-y,x,z
1/2-x,1/2-y,z
y,1/2-x,z
1/2+x,-y,1/2-z
-x,1/2+y,1/2-z
1/2+y,1/2+x,1/2-z
-y,-x,1/2-z
-x,-y,-z
1/2+y,-x,-z
1/2+x,1/2+y,-z
-y,1/2+x,-z
1/2-x,y,1/2+z
x,1/2-y,1/2+z
1/2-y,1/2-x,1/2+z
y,x,1/2+z
loop_
_atom_site_type_symbol
_atom_site_label
_atom_site_fract_x
_atom_site_fract_y
_atom_site_fract_z
Si Si1 0.177392 0.931777 0.290840
Si Si2 0.851324 0.351324 0.750000
Si Si3 0.622286 0.707450 0.246045
Si Si4 0.572987 0.128478 0.106929
Si Si5 0.621986 0.869482 0.875332
Si Si6 0.346085 0.850111 0.487858
Si Si7 0.560432 0.175676 0.631153
Si Si8 0.250000 0.250000 0.568939
O O1 0.103324 0.896677 0.250000
O O2 0.258878 0.874248 0.275811
O O3 0.141883 0.922428 0.356274
O O4 0.192312 0.028301 0.274673
O O5 0.911065 0.361621 0.693555
O O6 0.698636 0.647475 0.226137
O O7 0.628306 0.687145 0.315956
O O8 0.476093 0.109207 0.118338
O O9 0.584431 0.225519 0.128071
O O10 0.589303 0.120035 0.038103
O O11 0.666656 0.812659 0.924349
O O12 0.666090 0.960419 0.872706
O O13 0.360989 0.754803 0.511422
O O14 0.390093 0.861661 0.425002
#
# Coordination Sequence:
#
# PCOD9565898 Si02
#       8
#    16   8  16  16  16  16  16   4
#     4  12  23  36  56  91 124 153 193 256 305 353
#     4  12  23  36  58  88 126 154 190 245 318 357
#     4  11  21  39  59  82 120 170 206 241 299 371
#     4  11  22  37  58  85 121 159 199 249 297 357
#     4  12  20  35  59  86 117 153 206 250 294 349
#     4   9  20  40  59  78 114 160 197 227 297 379
#     4  11  23  36  58  88 118 156 196 246 300 363
#     4  12  20  36  60  88 108 162 200 256 284 358
#
# _framework density 18.794032000000001
#
# number of rings (size 3 to 8) (size 9 to 14) (size 15 to 20)
#    0.000    0.889    5.926    2.000    0.000    4.148 
#    1.333    0.000    0.000    0.000    0.000    0.000 
#    0.000    1.185    0.000    0.000    0.000    0.000 
#
# Total GULP energy -601278.239422 kJ/mol
# GULP energy per Si atom -5567.391106 kJ/mol
# Density = 1.875126 g / cm^3
# Si number density = 18.794032 Si / 1000 Ang^3
#
#
#
# Elastic Constant Matrix: (Units=GPa)
#
#
# Indices 1 2 3 4 5 6 
#
# 1 102.3800 41.6679 19.3994 0.0000 0.0000 0.0000
# 2 41.6679 102.3796 19.3998 0.0000 0.0000 0.0000
# 3 19.3994 19.3998 69.5249 0.0000 0.0000 0.0000
# 4 0.0000 0.0000 0.0000 14.2077 0.0000 0.0000
# 5 0.0000 0.0000 0.0000 0.0000 14.2078 0.0000
# 6 0.0000 0.0000 0.0000 0.0000 0.0000 43.3001
#
#
#
# Elastic Compliance Matrix: (Units=1/GPa)
#
#
# Indices 1 2 3 4 5 6 
#
# 1 0.011989 -0.004482 -0.002094 0.000000 0.000000 0.000000
# 2 -0.004482 0.011989 -0.002095 0.000000 0.000000 0.000000
# 3 -0.002094 -0.002095 0.015552 0.000000 0.000000 0.000000
# 4 0.000000 0.000000 0.000000 0.070384 0.000000 0.000000
# 5 0.000000 0.000000 0.000000 0.000000 0.070384 0.000000
# 6 0.000000 0.000000 0.000000 0.000000 0.000000 0.023095
#
#
# Mechanical properties :
#
#
# Convention : Reuss Voigt Hill
#
# Bulk Modulus (GPa) = 45.07182 48.35766 46.71474
# Shear Modulus (GPa) = 21.91725 27.26429 24.59077
#
# Velocity S-wave (km/s) = 3.41864 3.81292 3.62115
# Velocity P-wave (km/s) = 6.29419 6.72091 6.51105
#
# Compressibility (1/GPa) = 0.02218681
#
# Stress axis : x y z
#
# Youngs Moduli (GPa) = 83.41168 83.41116 64.29964
#
# Poissons Ratio (x) = 0.37389 0.13467
# Poissons Ratio (y) = 0.37389 0.13468
# Poissons Ratio (z) = 0.17470 0.17471
#
# Static dielectric constant tensor:
#      x y z
#    x 1.666270 0.000000 0.000000 
#    y 0.000000 1.666270 0.000000 
#    z 0.000000 0.000000 1.677620 
# 
# From -- ./inp_files/4321.got.cif
#   From: 2010.05.17/outbox.cif.g08.bks.cpg/sg130_3_cif.got.tgz:4321.got - 2010.05.20 12:17:35.
