data_PCOD9565417
_publ_section_title
;
Structure prediction by ZEFSAII (Michael W. Deem and Ramdas Pophale) SiO2 
 PCOD9565417
Probable space group: P 4/N M M
;
_chemical_formula_sum "Si O2"
_cell_formula_units_Z 96
_cell_length_a 22.116187
_cell_length_b 22.116187
_cell_length_c 11.647528
_cell_angle_alpha 90.000000
_cell_angle_beta 90.000000
_cell_angle_gamma 90.000000
_cell_volume 5697.105606
_symmetry_space_group_name_H-M "P 4/N M M"
_symmetry_group_IT_number 129
_symmetry_cell_setting 'tetragonal'
loop_
_space_group_symop_operation_xyz
x,y,z
1/2-y,x,z
1/2-x,1/2-y,z
y,1/2-x,z
1/2+x,-y,-z
-x,1/2+y,-z
1/2+y,1/2+x,-z
-y,-x,-z
-x,-y,-z
1/2+y,-x,-z
1/2+x,1/2+y,-z
-y,1/2+x,-z
1/2-x,y,z
x,1/2-y,z
1/2-y,1/2-x,z
y,x,z
loop_
_atom_site_type_symbol
_atom_site_label
_atom_site_fract_x
_atom_site_fract_y
_atom_site_fract_z
Si Si1 0.821010 0.436322 0.750428
Si Si2 0.582638 0.821464 0.382429
Si Si3 0.319204 0.480973 0.858632
Si Si4 0.606334 0.180889 0.722040
Si Si5 0.463159 0.867626 0.497292
Si Si6 0.997414 0.405795 0.060753
O O1 0.750000 0.443261 0.772028
O O2 0.842342 0.366581 0.753879
O O3 0.838349 0.457774 0.622328
O O4 0.862029 0.471670 0.841926
O O5 0.580751 0.750000 0.410581
O O6 0.646385 0.853616 0.402642
O O7 0.563809 0.827379 0.248650
O O8 0.530484 0.857313 0.451156
O O9 0.250000 0.475962 0.898996
O O10 0.327008 0.548418 0.805537
O O11 0.365649 0.472819 0.960848
O O12 0.626169 0.250000 0.727326
O O13 0.580260 0.166031 0.595143
O O14 0.435629 0.935629 0.500000
O O15 0.045590 0.454411 0.106892
O O16 0.944102 0.444102 0.000000
#
# Coordination Sequence:
#
# PCOD9565417 Si02
#       6
#    16  16  16  16  16  16
#     4  11  21  34  52  75 105 137 172 212 256 303
#     4  10  20  34  55  81 109 141 175 216 267 323
#     4   9  17  34  55  74  99 133 175 216 259 306
#     4   9  17  32  53  75 104 137 169 208 253 302
#     4   9  19  35  54  78 104 136 176 218 263 309
#     4  11  22  35  50  71 101 134 174 218 261 306
#
# _framework density 16.850662
#
# number of rings (size 3 to 8) (size 9 to 14) (size 15 to 20)
#    0.000    2.167    1.667    3.500    0.000    1.500 
#    0.000    0.000    0.000    3.000    0.000    0.000 
#    0.000    3.000    0.000    0.333    0.000    0.000 
#
# Total GULP energy -535400.101497 kJ/mol
# GULP energy per Si atom -5577.084391 kJ/mol
# Density = 1.681231 g / cm^3
# Si number density = 16.850662 Si / 1000 Ang^3
#
#
#
# Elastic Constant Matrix: (Units=GPa)
#
#
# Indices 1 2 3 4 5 6 
#
# 1 83.1385 64.7767 42.9756 0.0000 0.0000 0.0000
# 2 64.7767 83.1385 42.9756 0.0000 0.0000 0.0000
# 3 42.9756 42.9756 63.3483 0.0000 0.0000 0.0000
# 4 0.0000 0.0000 0.0000 15.7591 0.0000 0.0000
# 5 0.0000 0.0000 0.0000 0.0000 15.7591 0.0000
# 6 0.0000 0.0000 0.0000 0.0000 0.0000 21.4327
#
#
#
# Elastic Compliance Matrix: (Units=1/GPa)
#
#
# Indices 1 2 3 4 5 6 
#
# 1 0.032811 -0.021651 -0.007571 0.000000 0.000000 0.000000
# 2 -0.021651 0.032811 -0.007571 0.000000 0.000000 0.000000
# 3 -0.007571 -0.007571 0.026058 0.000000 0.000000 0.000000
# 4 0.000000 0.000000 0.000000 0.063455 0.000000 0.000000
# 5 0.000000 0.000000 0.000000 0.000000 0.063455 0.000000
# 6 0.000000 0.000000 0.000000 0.000000 0.000000 0.046658
#
#
# Mechanical properties :
#
#
# Convention : Reuss Voigt Hill
#
# Bulk Modulus (GPa) = 55.26637 59.00904 57.13770
# Shear Modulus (GPa) = 14.49848 15.85000 15.17424
#
# Velocity S-wave (km/s) = 2.93646 3.07027 3.00411
# Velocity P-wave (km/s) = 6.66078 6.90388 6.78342
#
# Compressibility (1/GPa) = 0.01809419
#
# Stress axis : x y z
#
# Youngs Moduli (GPa) = 30.47802 30.47802 38.37585
#
# Poissons Ratio (x) = 0.65987 0.29054
# Poissons Ratio (y) = 0.65987 0.29054
# Poissons Ratio (z) = 0.23075 0.23075
#
# Static dielectric constant tensor:
#      x y z
#    x 1.565510 0.000000 0.000000 
#    y 0.000000 1.565510 0.000000 
#    z 0.000000 0.000000 1.560000 
# 
# From -- ./inp_files/3810.got.cif
#   From: 2010.05.17/outbox.cif.g08.bks.cpg/sg129_2_cif.got.tgz:3810.got - 2010.05.20 12:12:06.
