data_PCOD9565151
_publ_section_title
;
Structure prediction by ZEFSAII (Michael W. Deem and Ramdas Pophale) SiO2 
 PCOD9565151
Probable space group: P 4/N M M
;
_chemical_formula_sum "Si O2"
_cell_formula_units_Z 96
_cell_length_a 22.024350
_cell_length_b 22.024350
_cell_length_c 11.297625
_cell_angle_alpha 90.000000
_cell_angle_beta 90.000000
_cell_angle_gamma 90.000000
_cell_volume 5480.161474
_symmetry_space_group_name_H-M "P 4/N M M"
_symmetry_group_IT_number 129
_symmetry_cell_setting 'tetragonal'
loop_
_space_group_symop_operation_xyz
x,y,z
1/2-y,x,z
1/2-x,1/2-y,z
y,1/2-x,z
1/2+x,-y,-z
-x,1/2+y,-z
1/2+y,1/2+x,-z
-y,-x,-z
-x,-y,-z
1/2+y,-x,-z
1/2+x,1/2+y,-z
-y,1/2+x,-z
1/2-x,y,z
x,1/2-y,z
1/2-y,1/2-x,z
y,x,z
loop_
_atom_site_type_symbol
_atom_site_label
_atom_site_fract_x
_atom_site_fract_y
_atom_site_fract_z
Si Si1 0.904005 0.182478 0.040853
Si Si2 0.123516 0.531832 0.254822
Si Si3 0.498065 0.593039 0.335206
Si Si4 0.821320 0.420751 0.508353
Si Si5 0.818949 0.519022 0.121499
Si Si6 0.178216 0.082731 0.130616
O O1 0.906312 0.250000 0.090176
O O2 0.927557 0.136790 0.139702
O O3 0.838323 0.161678 0.000000
O O4 0.950942 0.180265 0.932123
O O5 0.055355 0.546677 0.295642
O O6 0.167102 0.553634 0.360356
O O7 0.141795 0.464653 0.213147
O O8 0.552611 0.552611 0.387577
O O9 0.465878 0.641111 0.422106
O O10 0.522532 0.630993 0.222829
O O11 0.856022 0.356022 0.500000
O O12 0.750000 0.417609 0.480439
O O13 0.750000 0.531144 0.164662
O O14 0.829944 0.560471 0.005641
O O15 0.250000 0.079816 0.155696
O O16 0.148323 0.148323 0.144344
#
# Coordination Sequence:
#
# PCOD9565151 Si02
#       6
#    16  16  16  16  16  16
#     4  10  18  31  50  72 102 138 174 216 259 304
#     4  10  20  36  53  75 104 136 172 212 265 315
#     4  11  21  33  55  81 107 137 175 223 269 311
#     4  10  22  38  56  77 107 142 180 220 261 310
#     4   9  18  33  51  74 107 139 172 210 258 314
#     4  10  20  33  52  75 101 135 171 212 262 318
#
# _framework density 17.517733
#
# number of rings (size 3 to 8) (size 9 to 14) (size 15 to 20)
#    0.000    2.000    1.667    4.000    0.000    4.167 
#    0.000    2.500    0.000    2.000    0.000    0.000 
#    0.000    3.000    0.000    0.333    0.000    0.000 
#
# Total GULP energy -535203.756360 kJ/mol
# GULP energy per Si atom -5575.039129 kJ/mol
# Density = 1.747786 g / cm^3
# Si number density = 17.517733 Si / 1000 Ang^3
#
#
#
# Elastic Constant Matrix: (Units=GPa)
#
#
# Indices 1 2 3 4 5 6 
#
# 1 85.0850 61.6693 20.2630 0.0000 0.0000 0.0000
# 2 61.6693 85.0861 20.2648 0.0000 0.0000 0.0000
# 3 20.2630 20.2648 15.9614 0.0000 0.0000 0.0000
# 4 0.0000 0.0000 0.0000 13.7694 0.0000 0.0000
# 5 0.0000 0.0000 0.0000 0.0000 13.7687 0.0000
# 6 0.0000 0.0000 0.0000 0.0000 0.0000 12.1243
#
#
#
# Elastic Compliance Matrix: (Units=1/GPa)
#
#
# Indices 1 2 3 4 5 6 
#
# 1 0.026598 -0.016106 -0.013318 0.000000 0.000000 0.000000
# 2 -0.016106 0.026600 -0.013325 0.000000 0.000000 0.000000
# 3 -0.013318 -0.013325 0.096475 0.000000 0.000000 0.000000
# 4 0.000000 0.000000 0.000000 0.072625 0.000000 0.000000
# 5 0.000000 0.000000 0.000000 0.000000 0.072629 0.000000
# 6 0.000000 0.000000 0.000000 0.000000 0.000000 0.082479
#
#
# Mechanical properties :
#
#
# Convention : Reuss Voigt Hill
#
# Bulk Modulus (GPa) = 15.58217 43.39186 29.48701
# Shear Modulus (GPa) = 10.32427 13.52817 11.92622
#
# Velocity S-wave (km/s) = 2.43031 2.78196 2.61206
# Velocity P-wave (km/s) = 4.09751 5.92816 5.09572
#
# Compressibility (1/GPa) = 0.06417593
#
# Stress axis : x y z
#
# Youngs Moduli (GPa) = 37.59630 37.59408 10.36534
#
# Poissons Ratio (x) = 0.60550 0.13804
# Poissons Ratio (y) = 0.60554 0.13812
# Poissons Ratio (z) = 0.50070 0.50093
#
# Static dielectric constant tensor:
#      x y z
#    x 1.602090 0.000000 0.000000 
#    y 0.000000 1.602090 0.000000 
#    z 0.000000 0.000000 1.593940 
# 
# From -- ./inp_files/3834.got.cif
#   From: 2010.05.17/outbox.cif.g08.bks.cpg/sg129_2_cif.got.tgz:3834.got - 2010.05.20 12:12:06.
