data_PCOD9565978
_publ_section_title
;
Structure prediction by ZEFSAII (Michael W. Deem and Ramdas Pophale) SiO2 
 PCOD9565978
Probable space group: P 4/N C C
;
_chemical_formula_sum "Si O2"
_cell_formula_units_Z 64
_cell_length_a 12.164949
_cell_length_b 12.164949
_cell_length_c 18.977801
_cell_angle_alpha 90.000000
_cell_angle_beta 90.000000
_cell_angle_gamma 90.000000
_cell_volume 2808.448558
_symmetry_space_group_name_H-M "P 4/N C C"
_symmetry_group_IT_number 130
_symmetry_cell_setting 'tetragonal'
loop_
_space_group_symop_operation_xyz
x,y,z
1/2-y,x,z
1/2-x,1/2-y,z
y,1/2-x,z
1/2+x,-y,1/2-z
-x,1/2+y,1/2-z
1/2+y,1/2+x,1/2-z
-y,-x,1/2-z
-x,-y,-z
1/2+y,-x,-z
1/2+x,1/2+y,-z
-y,1/2+x,-z
1/2-x,y,1/2+z
x,1/2-y,1/2+z
1/2-y,1/2-x,1/2+z
y,x,1/2+z
loop_
_atom_site_type_symbol
_atom_site_label
_atom_site_fract_x
_atom_site_fract_y
_atom_site_fract_z
Si Si1 0.422862 0.199747 0.728471
Si Si2 0.548405 0.166797 0.863553
Si Si3 0.394925 0.519158 0.434623
Si Si4 0.771044 0.031641 0.419088
O O1 0.381312 0.322411 0.743530
O O2 0.518566 0.165260 0.781399
O O3 0.451164 0.202979 0.645902
O O4 0.520166 0.289242 0.885486
O O5 0.671504 0.141991 0.889289
O O6 0.474704 0.075846 0.905200
O O7 0.449750 0.641396 0.432996
O O8 0.338777 0.498971 0.511044
#
# Coordination Sequence:
#
# PCOD9565978 Si02
#       4
#    16  16  16  16
#     4  11  25  47  73 109 151 197 249 310 369 448
#     4  12  25  48  77 105 154 198 245 311 379 442
#     4  12  27  46  78 111 151 197 251 312 377 444
#     4  12  26  46  73 111 149 198 253 308 370 452
#
# _framework density 22.788381999999999
#
# number of rings (size 3 to 8) (size 9 to 14) (size 15 to 20)
#    0.000    0.250    5.000    3.750    3.500    1.500 
#    0.000    2.500    0.000    0.000    0.000    0.000 
#    0.000    0.000    0.000    0.000    0.000    0.000 
#
# Total GULP energy -357669.907015 kJ/mol
# GULP energy per Si atom -5588.592297 kJ/mol
# Density = 2.273651 g / cm^3
# Si number density = 22.788382 Si / 1000 Ang^3
#
#
#
# Elastic Constant Matrix: (Units=GPa)
#
#
# Indices 1 2 3 4 5 6 
#
# 1 101.7699 34.2751 28.2806 0.0000 0.0000 0.0000
# 2 34.2751 101.7699 28.2806 0.0000 0.0000 0.0000
# 3 28.2806 28.2806 154.3152 0.0000 0.0000 0.0000
# 4 0.0000 0.0000 0.0000 18.2811 0.0000 0.0000
# 5 0.0000 0.0000 0.0000 0.0000 18.2811 0.0000
# 6 0.0000 0.0000 0.0000 0.0000 0.0000 -2.2243
#
#
#
# Elastic Compliance Matrix: (Units=1/GPa)
#
#
# Indices 1 2 3 4 5 6 
#
# 1 0.011386 -0.003430 -0.001458 0.000000 0.000000 0.000000
# 2 -0.003430 0.011386 -0.001458 0.000000 0.000000 0.000000
# 3 -0.001458 -0.001458 0.007015 0.000000 0.000000 0.000000
# 4 0.000000 0.000000 0.000000 0.054701 0.000000 0.000000
# 5 0.000000 0.000000 0.000000 0.000000 0.054701 0.000000
# 6 0.000000 0.000000 0.000000 0.000000 0.000000 -0.449577
#
#
# Mechanical properties :
#
#
# Convention : Reuss Voigt Hill
#
# Bulk Modulus (GPa) = 58.49510 59.94751 59.22130
# Shear Modulus (GPa) = -17.12350 24.66882 3.77266
#
# Velocity S-wave (km/s) = -2.74417 3.29373 1.28807
# Velocity P-wave (km/s) = 3.96030 6.38969 5.31564
#
# Compressibility (1/GPa) = 0.01709545
#
# Stress axis : x y z
#
# Youngs Moduli (GPa) = 87.82440 87.82440 142.55740
#
# Poissons Ratio (x) = 0.30120 0.20788
# Poissons Ratio (y) = 0.30120 0.20788
# Poissons Ratio (z) = 0.12807 0.12807
#
# Static dielectric constant tensor:
#      x y z
#    x 1.822260 0.000000 0.000000 
#    y 0.000000 1.822260 0.000000 
#    z 0.000000 0.000000 1.864590 
# 
# From -- ./inp_files/3506.got.cif
#   From: 2010.05.17/outbox.cif.g08.bks.cpg/sg130_2_cif.got.tgz:3506.got - 2010.05.20 12:17:35.
