data_PCOD9565848
_publ_section_title
;
Structure prediction by ZEFSAII (Michael W. Deem and Ramdas Pophale) SiO2 
 PCOD9565848
Probable space group: P 4/N C C
;
_chemical_formula_sum "Si O2"
_cell_formula_units_Z 64
_cell_length_a 13.723945
_cell_length_b 13.723945
_cell_length_c 12.840381
_cell_angle_alpha 90.000000
_cell_angle_beta 90.000000
_cell_angle_gamma 90.000000
_cell_volume 2418.442956
_symmetry_space_group_name_H-M "P 4/N C C"
_symmetry_group_IT_number 130
_symmetry_cell_setting 'tetragonal'
loop_
_space_group_symop_operation_xyz
x,y,z
1/2-y,x,z
1/2-x,1/2-y,z
y,1/2-x,z
1/2+x,-y,1/2-z
-x,1/2+y,1/2-z
1/2+y,1/2+x,1/2-z
-y,-x,1/2-z
-x,-y,-z
1/2+y,-x,-z
1/2+x,1/2+y,-z
-y,1/2+x,-z
1/2-x,y,1/2+z
x,1/2-y,1/2+z
1/2-y,1/2-x,1/2+z
y,x,1/2+z
loop_
_atom_site_type_symbol
_atom_site_label
_atom_site_fract_x
_atom_site_fract_y
_atom_site_fract_z
Si Si1 0.625425 0.523525 0.707276
Si Si2 0.655669 0.622284 0.040475
Si Si3 0.398006 0.720471 0.833113
Si Si4 0.606996 0.091591 0.482802
O O1 0.527133 0.472868 0.750000
O O2 0.730458 0.622188 0.511713
O O3 0.715202 0.480740 0.774380
O O4 0.874516 0.418387 0.901551
O O5 0.974515 0.613864 0.986860
O O6 0.633863 0.616520 0.166572
O O7 0.319408 0.680592 0.750000
O O8 0.369830 0.794661 0.926927
O O9 0.527695 0.133443 0.405025
#
# Coordination Sequence:
#
# PCOD9565848 Si02
#       4
#    16  16  16  16
#     4  10  24  44  72 112 147 189 248 310 382 450
#     4  11  24  45  70  97 138 194 249 298 355 432
#     4  11  23  41  71 112 151 189 238 298 378 455
#     4  11  24  43  72 109 150 192 241 311 382 445
#
# _framework density 26.463308999999999
#
# number of rings (size 3 to 8) (size 9 to 14) (size 15 to 20)
#    0.000    1.250    0.000    5.250    0.000   14.000 
#    0.000   10.000    0.000   27.000    0.000    0.000 
#    0.000    0.000    0.000    0.000    0.000    0.000 
#
# Total GULP energy -357184.885575 kJ/mol
# GULP energy per Si atom -5581.013837 kJ/mol
# Density = 2.640308 g / cm^3
# Si number density = 26.463309 Si / 1000 Ang^3
#
#
#
# Elastic Constant Matrix: (Units=GPa)
#
#
# Indices 1 2 3 4 5 6 
#
# 1 104.6169 63.0030 55.3275 0.0000 0.0000 0.0000
# 2 63.0030 104.6174 55.3288 0.0000 0.0000 0.0000
# 3 55.3275 55.3288 147.5365 0.0000 0.0000 0.0000
# 4 0.0000 0.0000 0.0000 50.1170 0.0000 0.0000
# 5 0.0000 0.0000 0.0000 0.0000 50.1174 0.0000
# 6 0.0000 0.0000 0.0000 0.0000 0.0000 42.1600
#
#
#
# Elastic Compliance Matrix: (Units=1/GPa)
#
#
# Indices 1 2 3 4 5 6 
#
# 1 0.015980 -0.008051 -0.002973 0.000000 0.000000 0.000000
# 2 -0.008051 0.015980 -0.002974 0.000000 0.000000 0.000000
# 3 -0.002973 -0.002974 0.009008 0.000000 0.000000 0.000000
# 4 0.000000 0.000000 0.000000 0.019953 0.000000 0.000000
# 5 0.000000 0.000000 0.000000 0.000000 0.019953 0.000000
# 6 0.000000 0.000000 0.000000 0.000000 0.000000 0.023719
#
#
# Mechanical properties :
#
#
# Convention : Reuss Voigt Hill
#
# Bulk Modulus (GPa) = 77.08858 78.23216 77.66037
# Shear Modulus (GPa) = 36.51980 40.68630 38.60305
#
# Velocity S-wave (km/s) = 3.71889 3.92530 3.82349
# Velocity P-wave (km/s) = 6.90172 7.08312 6.99301
#
# Compressibility (1/GPa) = 0.01297209
#
# Stress axis : x y z
#
# Youngs Moduli (GPa) = 62.58017 62.57981 111.01094
#
# Poissons Ratio (x) = 0.50381 0.33007
# Poissons Ratio (y) = 0.50382 0.33009
# Poissons Ratio (z) = 0.18607 0.18608
#
# Static dielectric constant tensor:
#      x y z
#    x 2.382410 0.000000 0.000000 
#    y 0.000000 2.382410 0.000000 
#    z 0.000000 0.000000 2.068830 
# 
# From -- ./inp_files/2835.got.cif
#   From: 2010.05.17/outbox.cif.g08.bks.cpg/sg130_2_cif.got.tgz:2835.got - 2010.05.20 12:17:35.
