data_PCOD9565780
_publ_section_title
;
Structure prediction by ZEFSAII (Michael W. Deem and Ramdas Pophale) SiO2 
 PCOD9565780
Probable space group: P 4/N C C
;
_chemical_formula_sum "Si O2"
_cell_formula_units_Z 112
_cell_length_a 14.282204
_cell_length_b 14.282204
_cell_length_c 26.663410
_cell_angle_alpha 90.000000
_cell_angle_beta 90.000000
_cell_angle_gamma 90.000000
_cell_volume 5438.838397
_symmetry_space_group_name_H-M "P 4/N C C"
_symmetry_group_IT_number 130
_symmetry_cell_setting 'tetragonal'
loop_
_space_group_symop_operation_xyz
x,y,z
1/2-y,x,z
1/2-x,1/2-y,z
y,1/2-x,z
1/2+x,-y,1/2-z
-x,1/2+y,1/2-z
1/2+y,1/2+x,1/2-z
-y,-x,1/2-z
-x,-y,-z
1/2+y,-x,-z
1/2+x,1/2+y,-z
-y,1/2+x,-z
1/2-x,y,1/2+z
x,1/2-y,1/2+z
1/2-y,1/2-x,1/2+z
y,x,1/2+z
loop_
_atom_site_type_symbol
_atom_site_label
_atom_site_fract_x
_atom_site_fract_y
_atom_site_fract_z
Si Si1 0.152060 0.367320 0.949843
Si Si2 0.712207 0.602032 0.843835
Si Si3 0.614571 0.324828 0.491479
Si Si4 0.371157 0.505611 0.785878
Si Si5 0.066418 0.373584 0.055997
Si Si6 0.005650 0.660441 0.750800
Si Si7 0.929062 0.473220 0.599901
O O1 0.122588 0.260467 0.937967
O O2 0.080813 0.430422 0.919293
O O3 0.137253 0.380313 0.009365
O O4 0.814251 0.640595 0.831391
O O5 0.705864 0.584835 0.903097
O O6 0.684514 0.516814 0.808745
O O7 0.713529 0.371715 0.505072
O O8 0.533155 0.357441 0.529088
O O9 0.581807 0.358280 0.436693
O O10 0.415589 0.584412 0.750000
O O11 0.425121 0.409351 0.770634
O O12 0.259466 0.502535 0.777967
O O13 0.398996 0.529136 0.842842
O O14 0.065994 0.468744 0.087744
O O15 0.101848 0.601848 0.750000
#
# Coordination Sequence:
#
# PCOD9565780 Si02
#       7
#    16  16  16  16  16  16  16
#     4  10  22  39  60  94 133 167 212 267 328 402
#     4  11  23  41  69 100 130 172 225 286 350 408
#     4  10  24  42  63  92 131 177 222 267 325 405
#     4  11  26  47  69 102 141 178 240 292 350 419
#     4  11  23  37  66  93 131 170 218 273 338 392
#     4  11  24  45  72 100 137 182 227 292 352 413
#     4  11  26  39  67  93 131 174 219 269 338 396
#
# _framework density 20.592631999999998
#
# number of rings (size 3 to 8) (size 9 to 14) (size 15 to 20)
#    0.000    1.286    1.429    4.286   12.000    2.857 
#    0.000    1.429    0.000    0.000    0.000    0.000 
#    0.000    0.000    0.000    0.000    0.000    0.000 
#
# Total GULP energy -626460.513931 kJ/mol
# GULP energy per Si atom -5593.397446 kJ/mol
# Density = 2.054576 g / cm^3
# Si number density = 20.592632 Si / 1000 Ang^3
#
#
#
# Elastic Constant Matrix: (Units=GPa)
#
#
# Indices 1 2 3 4 5 6 
#
# 1 73.2746 26.2418 3.9052 0.0000 0.0000 0.0000
# 2 26.2418 73.2714 3.9039 0.0000 0.0000 0.0000
# 3 3.9052 3.9039 102.2098 0.0000 0.0000 0.0000
# 4 0.0000 0.0000 0.0000 24.5381 0.0000 0.0000
# 5 0.0000 0.0000 0.0000 0.0000 24.5385 0.0000
# 6 0.0000 0.0000 0.0000 0.0000 0.0000 31.0740
#
#
#
# Elastic Compliance Matrix: (Units=1/GPa)
#
#
# Indices 1 2 3 4 5 6 
#
# 1 0.015670 -0.005592 -0.000385 0.000000 0.000000 0.000000
# 2 -0.005592 0.015671 -0.000385 0.000000 0.000000 0.000000
# 3 -0.000385 -0.000385 0.009813 0.000000 0.000000 0.000000
# 4 0.000000 0.000000 0.000000 0.040753 0.000000 0.000000
# 5 0.000000 0.000000 0.000000 0.000000 0.040752 0.000000
# 6 0.000000 0.000000 0.000000 0.000000 0.000000 0.032181
#
#
# Mechanical properties :
#
#
# Convention : Reuss Voigt Hill
#
# Bulk Modulus (GPa) = 35.17282 35.20639 35.18960
# Shear Modulus (GPa) = 28.24191 30.34378 29.29284
#
# Velocity S-wave (km/s) = 3.70734 3.84282 3.77568
# Velocity P-wave (km/s) = 5.95342 6.06823 6.01110
#
# Compressibility (1/GPa) = 0.02843104
#
# Stress axis : x y z
#
# Youngs Moduli (GPa) = 63.81462 63.81185 101.90340
#
# Poissons Ratio (x) = 0.35682 0.03925
# Poissons Ratio (y) = 0.35684 0.03922
# Poissons Ratio (z) = 0.02458 0.02456
#
# Static dielectric constant tensor:
#      x y z
#    x 1.745530 0.000000 0.000000 
#    y 0.000000 1.745530 0.000000 
#    z 0.000000 0.000000 1.707980 
# 
# From -- ./inp_files/4285.got.cif
#   From: 2010.05.17/outbox.cif.g08.bks.cpg/sg130_3_cif.got.tgz:4285.got - 2010.05.20 12:17:35.
