data_PCOD9565995
_publ_section_title
;
Structure prediction by ZEFSAII (Michael W. Deem and Ramdas Pophale) SiO2 
 PCOD9565995
Probable space group: P 4/N C C
;
_chemical_formula_sum "Si O2"
_cell_formula_units_Z 40
_cell_length_a 9.770466
_cell_length_b 9.770466
_cell_length_c 19.363884
_cell_angle_alpha 90.000000
_cell_angle_beta 90.000000
_cell_angle_gamma 90.000000
_cell_volume 1848.515208
_symmetry_space_group_name_H-M "P 4/N C C"
_symmetry_group_IT_number 130
_symmetry_cell_setting 'tetragonal'
loop_
_space_group_symop_operation_xyz
x,y,z
1/2-y,x,z
1/2-x,1/2-y,z
y,1/2-x,z
1/2+x,-y,1/2-z
-x,1/2+y,1/2-z
1/2+y,1/2+x,1/2-z
-y,-x,1/2-z
-x,-y,-z
1/2+y,-x,-z
1/2+x,1/2+y,-z
-y,1/2+x,-z
1/2-x,y,1/2+z
x,1/2-y,1/2+z
1/2-y,1/2-x,1/2+z
y,x,1/2+z
loop_
_atom_site_type_symbol
_atom_site_label
_atom_site_fract_x
_atom_site_fract_y
_atom_site_fract_z
Si Si1 0.750000 0.750000 0.395870
Si Si2 0.916493 0.023168 0.929732
Si Si3 0.250000 0.750000 0.500000
Si Si4 0.371936 0.058482 0.796518
O O1 0.854169 0.616310 0.400104
O O2 0.014878 0.096609 0.874753
O O3 0.795956 0.126082 0.951430
O O4 0.000000 0.000000 0.000000
O O5 0.431384 0.210044 0.783103
O O6 0.446995 0.946995 0.750000
#
# Coordination Sequence:
#
# PCOD9565995 Si02
#       4
#     4  16   4  16
#     4  12  28  40  76 106 152 184 244 294 364 416
#     4  12  26  45  73 109 146 188 239 299 355 422
#     4  12  24  44  74 104 144 192 244 290 360 420
#     4  11  29  50  74 103 143 188 240 295 359 430
#
# _framework density 21.638987
#
# number of rings (size 3 to 8) (size 9 to 14) (size 15 to 20)
#    0.000    0.400    4.000    2.400    5.600    0.800 
#    0.000    0.000    0.000    0.000    0.000    0.000 
#    0.000    0.000    0.000    0.000    0.000    0.000 
#
# Total GULP energy -222942.618302 kJ/mol
# GULP energy per Si atom -5573.565458 kJ/mol
# Density = 2.158974 g / cm^3
# Si number density = 21.638987 Si / 1000 Ang^3
#
#
#
# Elastic Constant Matrix: (Units=GPa)
#
#
# Indices 1 2 3 4 5 6 
#
# 1 80.8395 28.8456 -11.0862 0.0000 0.0000 0.0000
# 2 28.8456 80.8395 -11.0862 0.0000 0.0000 0.0000
# 3 -11.0862 -11.0862 61.8646 0.0000 0.0000 0.0000
# 4 0.0000 0.0000 0.0000 23.1388 0.0000 0.0000
# 5 0.0000 0.0000 0.0000 0.0000 23.1388 0.0000
# 6 0.0000 0.0000 0.0000 0.0000 0.0000 42.8941
#
#
#
# Elastic Compliance Matrix: (Units=1/GPa)
#
#
# Indices 1 2 3 4 5 6 
#
# 1 0.014346 -0.004887 0.001695 0.000000 0.000000 0.000000
# 2 -0.004887 0.014346 0.001695 0.000000 0.000000 0.000000
# 3 0.001695 0.001695 0.016772 0.000000 0.000000 0.000000
# 4 0.000000 0.000000 0.000000 0.043217 0.000000 0.000000
# 5 0.000000 0.000000 0.000000 0.000000 0.043217 0.000000
# 6 0.000000 0.000000 0.000000 0.000000 0.000000 0.023313
#
#
# Mechanical properties :
#
#
# Convention : Reuss Voigt Hill
#
# Bulk Modulus (GPa) = 23.54495 26.32113 24.93304
# Shear Modulus (GPa) = 29.00859 32.29236 30.65048
#
# Velocity S-wave (km/s) = 3.66535 3.86725 3.76765
# Velocity P-wave (km/s) = 5.36819 5.66842 5.52035
#
# Compressibility (1/GPa) = 0.04247195
#
# Stress axis : x y z
#
# Youngs Moduli (GPa) = 69.70412 69.70412 59.62363
#
# Poissons Ratio (x) = 0.34062 -0.10107
# Poissons Ratio (y) = 0.34062 -0.10107
# Poissons Ratio (z) = -0.11816 -0.11816
#
# Static dielectric constant tensor:
#      x y z
#    x 1.755420 0.000000 0.000000 
#    y 0.000000 1.755420 0.000000 
#    z 0.000000 0.000000 1.820080 
# 
# From -- ./inp_files/4043.got.cif
#   From: 2010.05.17/outbox.cif.g08.bks.cpg/sg130_3_cif.got.tgz:4043.got - 2010.05.20 12:17:35.
