data_PCOD9565719
_publ_section_title
;
Structure prediction by ZEFSAII (Michael W. Deem and Ramdas Pophale) SiO2 
 PCOD9565719
Probable space group: P 4/N C C
;
_chemical_formula_sum "Si O2"
_cell_formula_units_Z 64
_cell_length_a 25.797636
_cell_length_b 25.797636
_cell_length_c 5.029586
_cell_angle_alpha 90.000000
_cell_angle_beta 90.000000
_cell_angle_gamma 90.000000
_cell_volume 3347.280132
_symmetry_space_group_name_H-M "P 4/N C C"
_symmetry_group_IT_number 130
_symmetry_cell_setting 'tetragonal'
loop_
_space_group_symop_operation_xyz
x,y,z
1/2-y,x,z
1/2-x,1/2-y,z
y,1/2-x,z
1/2+x,-y,1/2-z
-x,1/2+y,1/2-z
1/2+y,1/2+x,1/2-z
-y,-x,1/2-z
-x,-y,-z
1/2+y,-x,-z
1/2+x,1/2+y,-z
-y,1/2+x,-z
1/2-x,y,1/2+z
x,1/2-y,1/2+z
1/2-y,1/2-x,1/2+z
y,x,1/2+z
loop_
_atom_site_type_symbol
_atom_site_label
_atom_site_fract_x
_atom_site_fract_y
_atom_site_fract_z
Si Si1 0.781708 0.963729 0.027118
Si Si2 0.436730 0.563271 0.750000
Si Si3 0.112569 0.612569 0.750000
Si Si4 0.552289 0.899743 0.186760
Si Si5 0.279117 0.911021 0.481368
O O1 0.761103 0.946563 0.741518
O O2 0.781651 0.026521 0.024221
O O3 0.839447 0.948202 0.109152
O O4 0.399583 0.574075 0.496346
O O5 0.424528 0.505055 0.843505
O O6 0.168022 0.606714 0.613580
O O7 0.570158 0.909771 0.486826
O O8 0.266704 0.894380 0.182355
#
# Coordination Sequence:
#
# PCOD9565719 Si02
#       5
#    16   8   8  16  16
#     4  10  21  38  59  82 112 151 198 244 279 326
#     4  12  24  37  56  86 122 165 193 226 277 353
#     4  12  22  37  60  81 114 146 205 242 291 356
#     4  12  24  39  57  86 126 163 192 228 287 351
#     4  10  21  36  57  81 106 143 195 252 297 334
#
# _framework density 19.120000000000001
#
# number of rings (size 3 to 8) (size 9 to 14) (size 15 to 20)
#    0.000    1.000    2.500    5.250    7.000    0.000 
#    0.000    0.000    0.000    2.250    0.000    0.000 
#    0.000   35.000    0.000    0.000    0.000    0.000 
#
# Total GULP energy -357612.307220 kJ/mol
# GULP energy per Si atom -5587.692300 kJ/mol
# Density = 1.907648 g / cm^3
# Si number density = 19.120000 Si / 1000 Ang^3
#
#
#
# Elastic Constant Matrix: (Units=GPa)
#
#
# Indices 1 2 3 4 5 6 
#
# 1 38.6803 47.5341 10.2688 0.0000 0.0000 0.0000
# 2 47.5341 38.6802 10.2687 0.0000 0.0000 0.0000
# 3 10.2688 10.2687 67.5071 0.0000 0.0000 0.0000
# 4 0.0000 0.0000 0.0000 26.9660 0.0000 0.0000
# 5 0.0000 0.0000 0.0000 0.0000 26.9659 0.0000
# 6 0.0000 0.0000 0.0000 0.0000 0.0000 11.8173
#
#
#
# Elastic Compliance Matrix: (Units=1/GPa)
#
#
# Indices 1 2 3 4 5 6 
#
# 1 -0.050455 0.062490 -0.001831 0.000000 0.000000 0.000000
# 2 0.062490 -0.050455 -0.001831 0.000000 0.000000 0.000000
# 3 -0.001831 -0.001831 0.015370 0.000000 0.000000 0.000000
# 4 0.000000 0.000000 0.000000 0.037084 0.000000 0.000000
# 5 0.000000 0.000000 0.000000 0.000000 0.037084 0.000000
# 6 0.000000 0.000000 0.000000 0.000000 0.000000 0.084621
#
#
# Mechanical properties :
#
#
# Convention : Reuss Voigt Hill
#
# Bulk Modulus (GPa) = 31.13558 31.22342 31.17950
# Shear Modulus (GPa) = -148.36142 18.26957 -65.04592
#
# Velocity S-wave (km/s) = -8.81835 3.09450 -5.83898
# Velocity P-wave (km/s) = 9.34691 5.39756 5.39589
#
# Compressibility (1/GPa) = 0.03211760
#
# Stress axis : x y z
#
# Youngs Moduli (GPa) = -19.81974 -19.81967 65.06092
#
# Poissons Ratio (x) = 1.23853 0.11910
# Poissons Ratio (y) = 1.23853 0.11911
# Poissons Ratio (z) = -0.03628 -0.03629
#
# Static dielectric constant tensor:
#      x y z
#    x 1.668550 0.000000 0.000000 
#    y 0.000000 1.668560 0.000000 
#    z 0.000000 0.000000 1.683320 
# 
# From -- ./inp_files/182.got.cif
#   From: 2010.05.17/outbox.cif.g08.bks.cpg/sg130_1_cif.got.tgz:182.got - 2010.05.20 12:17:35.
