data_PCOD9565155
_publ_section_title
;
Structure prediction by ZEFSAII (Michael W. Deem and Ramdas Pophale) SiO2 
 PCOD9565155
Probable space group: P 4/N M M
;
_chemical_formula_sum "Si O2"
_cell_formula_units_Z 112
_cell_length_a 23.614960
_cell_length_b 23.614960
_cell_length_c 11.851961
_cell_angle_alpha 90.000000
_cell_angle_beta 90.000000
_cell_angle_gamma 90.000000
_cell_volume 6609.439663
_symmetry_space_group_name_H-M "P 4/N M M"
_symmetry_group_IT_number 129
_symmetry_cell_setting 'tetragonal'
loop_
_space_group_symop_operation_xyz
x,y,z
1/2-y,x,z
1/2-x,1/2-y,z
y,1/2-x,z
1/2+x,-y,-z
-x,1/2+y,-z
1/2+y,1/2+x,-z
-y,-x,-z
-x,-y,-z
1/2+y,-x,-z
1/2+x,1/2+y,-z
-y,1/2+x,-z
1/2-x,y,z
x,1/2-y,z
1/2-y,1/2-x,z
y,x,z
loop_
_atom_site_type_symbol
_atom_site_label
_atom_site_fract_x
_atom_site_fract_y
_atom_site_fract_z
Si Si1 0.010776 0.613309 0.102306
Si Si2 0.515058 0.682503 0.426991
Si Si3 0.006871 0.582228 0.840000
Si Si4 0.091486 0.317899 0.780064
Si Si5 0.687431 0.153629 0.625719
Si Si6 0.184562 0.577591 0.750741
Si Si7 0.684018 0.020238 0.666065
O O1 0.034591 0.556738 0.163830
O O2 0.061686 0.655821 0.132239
O O3 0.954893 0.645135 0.149516
O O4 0.003770 0.599527 0.971598
O O5 0.505572 0.750000 0.438531
O O6 0.570088 0.674957 0.349429
O O7 0.463066 0.660399 0.349420
O O8 0.514290 0.662773 0.555706
O O9 0.016333 0.637940 0.765122
O O10 0.949345 0.550656 0.806952
O O11 0.089948 0.250000 0.805251
O O12 0.151900 0.348101 0.795940
O O13 0.674370 0.174370 0.500000
O O14 0.750000 0.172074 0.658286
O O15 0.640746 0.176088 0.710735
O O16 0.685344 0.085621 0.626983
O O17 0.250000 0.563213 0.760139
O O18 0.750000 0.005139 0.695776
#
# Coordination Sequence:
#
# PCOD9565155 Si02
#       7
#    16  16  16  16  16  16  16
#     4  10  20  37  54  75 104 137 176 222 266 314
#     4   8  16  31  50  72 102 137 169 203 249 308
#     4  11  22  36  56  78 102 136 179 226 266 312
#     4  10  20  35  57  82 108 138 172 216 271 330
#     4  11  20  31  48  75 110 145 180 220 262 306
#     4  10  18  31  52  74 101 140 180 215 257 310
#     4  10  20  34  52  77 109 141 174 216 266 316
#
# _framework density 16.945460000000001
#
# number of rings (size 3 to 8) (size 9 to 14) (size 15 to 20)
#    0.000    2.000    2.857    3.429    0.000    2.857 
#    0.000    0.000    0.000    3.000    0.000    0.000 
#    0.000    0.286    0.000    0.286    0.000    0.000 
#
# Total GULP energy -623558.060789 kJ/mol
# GULP energy per Si atom -5567.482686 kJ/mol
# Density = 1.690689 g / cm^3
# Si number density = 16.945460 Si / 1000 Ang^3
#
#
#
# Elastic Constant Matrix: (Units=GPa)
#
#
# Indices 1 2 3 4 5 6 
#
# 1 68.7737 52.3415 31.4846 0.0000 0.0000 0.0000
# 2 52.3415 68.7737 31.4846 0.0000 0.0000 0.0000
# 3 31.4846 31.4846 48.6218 0.0000 0.0000 0.0000
# 4 0.0000 0.0000 0.0000 15.3817 0.0000 0.0000
# 5 0.0000 0.0000 0.0000 0.0000 15.3817 0.0000
# 6 0.0000 0.0000 0.0000 0.0000 0.0000 22.2219
#
#
#
# Elastic Compliance Matrix: (Units=1/GPa)
#
#
# Indices 1 2 3 4 5 6 
#
# 1 0.036652 -0.024205 -0.008060 0.000000 0.000000 0.000000
# 2 -0.024205 0.036652 -0.008060 0.000000 0.000000 0.000000
# 3 -0.008060 -0.008060 0.031005 0.000000 0.000000 0.000000
# 4 0.000000 0.000000 0.000000 0.065012 0.000000 0.000000
# 5 0.000000 0.000000 0.000000 0.000000 0.065012 0.000000
# 6 0.000000 0.000000 0.000000 0.000000 0.000000 0.045001
#
#
# Mechanical properties :
#
#
# Convention : Reuss Voigt Hill
#
# Bulk Modulus (GPa) = 42.26642 46.31007 44.28825
# Shear Modulus (GPa) = 13.59178 15.32096 14.45637
#
# Velocity S-wave (km/s) = 2.83519 3.01014 2.92398
# Velocity P-wave (km/s) = 5.97616 6.28248 6.13123
#
# Compressibility (1/GPa) = 0.02365944
#
# Stress axis : x y z
#
# Youngs Moduli (GPa) = 27.28394 27.28394 32.25263
#
# Poissons Ratio (x) = 0.66039 0.25996
# Poissons Ratio (y) = 0.66039 0.25996
# Poissons Ratio (z) = 0.21991 0.21991
#
# Static dielectric constant tensor:
#      x y z
#    x 1.595170 0.000000 0.000000 
#    y 0.000000 1.595170 0.000000 
#    z 0.000000 0.000000 1.582240 
# 
# From -- ./inp_files/4129.got.cif
#   From: 2010.05.17/outbox.cif.g08.bks.cpg/sg129_3_cif.got.tgz:4129.got - 2010.05.20 12:12:06.
