data_PCOD9565056
_publ_section_title
;
Structure prediction by ZEFSAII (Michael W. Deem and Ramdas Pophale) SiO2 
 PCOD9565056
Probable space group: P 4/M N C
;
_chemical_formula_sum "Si O2"
_cell_formula_units_Z 46
_cell_length_a 8.598485
_cell_length_b 8.598485
_cell_length_c 29.118967
_cell_angle_alpha 90.000000
_cell_angle_beta 90.000000
_cell_angle_gamma 90.000000
_cell_volume 2152.880084
_symmetry_space_group_name_H-M "P 4/M N C"
_symmetry_group_IT_number 128
_symmetry_cell_setting 'tetragonal'
loop_
_space_group_symop_operation_xyz
x,y,z
-y,x,z
-x,-y,z
y,-x,z
1/2+x,1/2-y,1/2-z
1/2-x,1/2+y,1/2-z
1/2+y,1/2+x,1/2-z
1/2-y,1/2-x,1/2-z
-x,-y,-z
y,-x,-z
x,y,-z
-y,x,-z
1/2-x,1/2+y,1/2+z
1/2+x,1/2-y,1/2+z
1/2-y,1/2-x,1/2+z
1/2+y,1/2+x,1/2+z
loop_
_atom_site_type_symbol
_atom_site_label
_atom_site_fract_x
_atom_site_fract_y
_atom_site_fract_z
Si Si1 0.741716 0.588586 0.599160
Si Si2 0.500000 0.000000 0.750000
Si Si3 0.757715 0.540605 0.169129
Si Si4 0.500000 0.500000 0.000000
Si Si5 0.621547 0.141514 0.000000
O O1 0.588482 0.691969 0.609479
O O2 0.892728 0.634374 0.628625
O O3 0.778981 0.619660 0.546061
O O4 0.521583 0.144812 0.784343
O O5 0.621672 0.668736 0.166331
O O6 0.538820 0.309969 0.000000
O O7 0.500000 0.000000 0.000000
#
# Coordination Sequence:
#
# PCOD9565056 Si02
#       5
#    16   4  16   2   8
#     4  11  25  46  72 108 153 204 252 315 389 459
#     4  12  24  48  72  98 144 184 236 316 390 464
#     4  11  26  44  72 106 140 187 248 310 382 465
#     4  12  28  44  76 112 148 228 284 324 412 468
#     4  12  28  45  72 111 158 209 269 329 379 467
#
# _framework density 21.366727000000001
#
# number of rings (size 3 to 8) (size 9 to 14) (size 15 to 20)
#    0.000    0.696    0.000    6.261   12.174    1.391 
#    0.000    3.478    0.000    0.000    0.000    0.000 
#    0.000    0.000    0.000    0.000    0.000    0.000 
#
# Total GULP energy -256426.868305 kJ/mol
# GULP energy per Si atom -5574.497137 kJ/mol
# Density = 2.131810 g / cm^3
# Si number density = 21.366727 Si / 1000 Ang^3
#
#
#
# Elastic Constant Matrix: (Units=GPa)
#
#
# Indices 1 2 3 4 5 6 
#
# 1 149.9969 86.7603 58.3714 0.0000 0.0000 0.0000
# 2 86.7603 149.9969 58.3714 0.0000 0.0000 0.0000
# 3 58.3714 58.3714 129.3234 0.0000 0.0000 0.0000
# 4 0.0000 0.0000 0.0000 25.3361 0.0000 0.0000
# 5 0.0000 0.0000 0.0000 0.0000 25.3361 0.0000
# 6 0.0000 0.0000 0.0000 0.0000 0.0000 40.8001
#
#
#
# Elastic Compliance Matrix: (Units=1/GPa)
#
#
# Indices 1 2 3 4 5 6 
#
# 1 0.010623 -0.005190 -0.002452 0.000000 0.000000 0.000000
# 2 -0.005190 0.010623 -0.002452 0.000000 0.000000 0.000000
# 3 -0.002452 -0.002452 0.009946 0.000000 0.000000 0.000000
# 4 0.000000 0.000000 0.000000 0.039469 0.000000 0.000000
# 5 0.000000 0.000000 0.000000 0.000000 0.039469 0.000000
# 6 0.000000 0.000000 0.000000 0.000000 0.000000 0.024510
#
#
# Mechanical properties :
#
#
# Convention : Reuss Voigt Hill
#
# Bulk Modulus (GPa) = 90.88255 92.92484 91.90369
# Shear Modulus (GPa) = 31.54605 33.34873 32.44739
#
# Velocity S-wave (km/s) = 3.84658 3.95496 3.90114
# Velocity P-wave (km/s) = 7.89653 8.02748 7.96227
#
# Compressibility (1/GPa) = 0.01100321
#
# Stress axis : x y z
#
# Youngs Moduli (GPa) = 94.13311 94.13311 100.54101
#
# Poissons Ratio (x) = 0.48859 0.24655
# Poissons Ratio (y) = 0.48859 0.24655
# Poissons Ratio (z) = 0.23083 0.23083
#
# Static dielectric constant tensor:
#      x y z
#    x 1.825780 0.000000 0.000000 
#    y 0.000000 1.825780 0.000000 
#    z 0.000000 0.000000 1.743100 
# 
# From -- ./inp_files/7008.got.cif
#   From: 2010.05.17/outbox.cif.g08.bks.cpg/sg128_4_cif.got.tgz:7008.got - 2010.05.20 12:07:25.
