data_PCOD9565668
_publ_section_title
;
Structure prediction by ZEFSAII (Michael W. Deem and Ramdas Pophale) SiO2 
 PCOD9565668
Probable space group: P 4/N C C
;
_chemical_formula_sum "Si O2"
_cell_formula_units_Z 128
_cell_length_a 23.604482
_cell_length_b 23.604482
_cell_length_c 12.787589
_cell_angle_alpha 90.000000
_cell_angle_beta 90.000000
_cell_angle_gamma 90.000000
_cell_volume 7124.881046
_symmetry_space_group_name_H-M "P 4/N C C"
_symmetry_group_IT_number 130
_symmetry_cell_setting 'tetragonal'
loop_
_space_group_symop_operation_xyz
x,y,z
1/2-y,x,z
1/2-x,1/2-y,z
y,1/2-x,z
1/2+x,-y,1/2-z
-x,1/2+y,1/2-z
1/2+y,1/2+x,1/2-z
-y,-x,1/2-z
-x,-y,-z
1/2+y,-x,-z
1/2+x,1/2+y,-z
-y,1/2+x,-z
1/2-x,y,1/2+z
x,1/2-y,1/2+z
1/2-y,1/2-x,1/2+z
y,x,1/2+z
loop_
_atom_site_type_symbol
_atom_site_label
_atom_site_fract_x
_atom_site_fract_y
_atom_site_fract_z
Si Si1 0.837353 0.893075 0.516114
Si Si2 0.785069 0.930051 0.721732
Si Si3 0.654473 0.023179 0.944231
Si Si4 0.554156 0.360024 0.290611
Si Si5 0.473666 0.742247 0.576252
Si Si6 0.658312 0.727442 0.832843
Si Si7 0.439135 0.528061 0.974902
Si Si8 0.842547 0.954178 0.940064
O O1 0.819366 0.894806 0.635689
O O2 0.787463 0.865652 0.446903
O O3 0.895745 0.861281 0.493656
O O4 0.845728 0.957766 0.479132
O O5 0.769924 0.989227 0.668087
O O6 0.729120 0.894855 0.754965
O O7 0.822124 0.941000 0.823959
O O8 0.657193 0.024379 0.818060
O O9 0.595640 0.051766 0.980397
O O10 0.708131 0.051090 0.003495
O O11 0.611810 0.388191 0.250000
O O12 0.562448 0.306851 0.367755
O O13 0.521648 0.408659 0.359724
O O14 0.517713 0.708893 0.502480
O O15 0.710157 0.684714 0.819214
O O16 0.394465 0.498394 0.052190
O O17 0.500000 0.500000 0.000000
#
# Coordination Sequence:
#
# PCOD9565668 Si02
#       8
#    16  16  16  16  16  16  16  16
#     4  11  23  37  56  77 110 150 203 254 312 355
#     4  11  23  38  57  78 107 158 195 259 310 352
#     4  10  20  38  58  85 121 154 201 248 304 369
#     4   9  19  35  61  86 119 163 196 244 307 368
#     4  10  21  36  60  83 114 152 199 246 296 368
#     4  11  24  38  52  74 103 143 207 261 302 346
#     4  10  20  38  57  90 123 155 201 251 309 372
#     4  11  22  39  58  81 115 148 201 248 299 379
#
# _framework density 17.965212000000001
#
# number of rings (size 3 to 8) (size 9 to 14) (size 15 to 20)
#    0.000    1.625    2.500    3.000    1.750    2.000 
#    2.250    3.750    0.000    0.000    0.000    0.000 
#    0.000  105.500    0.000    0.000    0.000    0.000 
#
# Total GULP energy -713652.125866 kJ/mol
# GULP energy per Si atom -5575.407233 kJ/mol
# Density = 1.792432 g / cm^3
# Si number density = 17.965212 Si / 1000 Ang^3
#
#
#
# Elastic Constant Matrix: (Units=GPa)
#
#
# Indices 1 2 3 4 5 6 
#
# 1 78.2348 26.7268 44.9132 0.0000 0.0000 0.0000
# 2 26.7268 78.2342 44.9135 0.0000 0.0000 0.0000
# 3 44.9132 44.9135 123.3056 0.0000 0.0000 0.0000
# 4 0.0000 0.0000 0.0000 30.7773 0.0000 0.0000
# 5 0.0000 0.0000 0.0000 0.0000 30.7767 0.0000
# 6 0.0000 0.0000 0.0000 0.0000 0.0000 33.9507
#
#
#
# Elastic Compliance Matrix: (Units=1/GPa)
#
#
# Indices 1 2 3 4 5 6 
#
# 1 0.016628 -0.002786 -0.005042 0.000000 0.000000 0.000000
# 2 -0.002786 0.016629 -0.005042 0.000000 0.000000 0.000000
# 3 -0.005042 -0.005042 0.011783 0.000000 0.000000 0.000000
# 4 0.000000 0.000000 0.000000 0.032492 0.000000 0.000000
# 5 0.000000 0.000000 0.000000 0.000000 0.032492 0.000000
# 6 0.000000 0.000000 0.000000 0.000000 0.000000 0.029454
#
#
# Mechanical properties :
#
#
# Convention : Reuss Voigt Hill
#
# Bulk Modulus (GPa) = 51.81448 56.98685 54.40066
# Shear Modulus (GPa) = 29.12882 29.98234 29.55558
#
# Velocity S-wave (km/s) = 4.03103 4.08966 4.06045
# Velocity P-wave (km/s) = 7.11124 7.35459 7.23394
#
# Compressibility (1/GPa) = 0.01929963
#
# Stress axis : x y z
#
# Youngs Moduli (GPa) = 60.13831 60.13756 84.86842
#
# Poissons Ratio (x) = 0.16755 0.42790
# Poissons Ratio (y) = 0.16755 0.42791
# Poissons Ratio (z) = 0.30321 0.30322
#
# Static dielectric constant tensor:
#      x y z
#    x 1.649240 0.000000 0.000000 
#    y 0.000000 1.649240 0.000000 
#    z 0.000000 0.000000 1.629020 
# 
# From -- ./inp_files/1894.got.cif
#   From: 2010.05.17/outbox.cif.g08.bks.cpg/sg130_1_cif.got.tgz:1894.got - 2010.05.20 12:17:35.
