data_PCOD9565735
_publ_section_title
;
Structure prediction by ZEFSAII (Michael W. Deem and Ramdas Pophale) SiO2 
 PCOD9565735
Probable space group: P 4/N C C
;
_chemical_formula_sum "Si O2"
_cell_formula_units_Z 96
_cell_length_a 23.411507
_cell_length_b 23.411507
_cell_length_c 8.903881
_cell_angle_alpha 90.000000
_cell_angle_beta 90.000000
_cell_angle_gamma 90.000000
_cell_volume 4880.205245
_symmetry_space_group_name_H-M "P 4/N C C"
_symmetry_group_IT_number 130
_symmetry_cell_setting 'tetragonal'
loop_
_space_group_symop_operation_xyz
x,y,z
1/2-y,x,z
1/2-x,1/2-y,z
y,1/2-x,z
1/2+x,-y,1/2-z
-x,1/2+y,1/2-z
1/2+y,1/2+x,1/2-z
-y,-x,1/2-z
-x,-y,-z
1/2+y,-x,-z
1/2+x,1/2+y,-z
-y,1/2+x,-z
1/2-x,y,1/2+z
x,1/2-y,1/2+z
1/2-y,1/2-x,1/2+z
y,x,1/2+z
loop_
_atom_site_type_symbol
_atom_site_label
_atom_site_fract_x
_atom_site_fract_y
_atom_site_fract_z
Si Si1 0.544889 0.986481 0.870531
Si Si2 0.600824 0.190757 0.192178
Si Si3 0.533756 0.790671 0.803254
Si Si4 0.896603 0.312510 0.834956
Si Si5 0.468909 0.176906 0.852853
Si Si6 0.940214 0.602411 0.640936
O O1 0.526217 0.930950 0.774518
O O2 0.537918 0.037918 0.750000
O O3 0.598559 0.969700 0.976752
O O4 0.500000 0.000000 0.000000
O O5 0.636425 0.136425 0.250000
O O6 0.532864 0.192395 0.228454
O O7 0.619225 0.250833 0.265439
O O8 0.610790 0.191202 0.013829
O O9 0.549604 0.726509 0.759965
O O10 0.568824 0.834484 0.700702
O O11 0.539411 0.799587 0.979495
O O12 0.858699 0.358699 0.750000
O O13 0.963642 0.328257 0.817804
O O14 0.435301 0.117485 0.854293
#
# Coordination Sequence:
#
# PCOD9565735 Si02
#       6
#    16  16  16  16  16  16
#     4   9  20  34  53  85 125 157 194 244 288 358
#     4  10  21  39  58  82 114 151 198 245 295 343
#     4  10  23  40  61  87 120 157 200 249 299 365
#     4  10  21  39  58  83 113 151 197 245 294 345
#     4  10  23  40  60  88 118 157 201 245 302 361
#     4  11  20  40  59  87 122 162 204 241 310 372
#
# _framework density 19.671303999999999
#
# number of rings (size 3 to 8) (size 9 to 14) (size 15 to 20)
#    0.000    2.000    1.667    1.000    2.333    5.667 
#    3.000    1.667    0.000    0.500    0.000    2.333 
#    0.000    0.000    0.000    0.000    0.000    0.000 
#
# Total GULP energy -535109.059049 kJ/mol
# GULP energy per Si atom -5574.052698 kJ/mol
# Density = 1.962653 g / cm^3
# Si number density = 19.671304 Si / 1000 Ang^3
#
#
#
# Elastic Constant Matrix: (Units=GPa)
#
#
# Indices 1 2 3 4 5 6 
#
# 1 55.4544 21.2327 28.0026 0.0000 0.0000 0.0000
# 2 21.2327 55.4544 28.0026 0.0000 0.0000 0.0000
# 3 28.0026 28.0026 93.8433 0.0000 0.0000 0.0000
# 4 0.0000 0.0000 0.0000 25.8995 0.0000 0.0000
# 5 0.0000 0.0000 0.0000 0.0000 25.8995 0.0000
# 6 0.0000 0.0000 0.0000 0.0000 0.0000 27.3712
#
#
#
# Elastic Compliance Matrix: (Units=1/GPa)
#
#
# Indices 1 2 3 4 5 6 
#
# 1 0.022947 -0.006274 -0.004975 0.000000 0.000000 0.000000
# 2 -0.006274 0.022947 -0.004975 0.000000 0.000000 0.000000
# 3 -0.004975 -0.004975 0.013625 0.000000 0.000000 0.000000
# 4 0.000000 0.000000 0.000000 0.038611 0.000000 0.000000
# 5 0.000000 0.000000 0.000000 0.000000 0.038611 0.000000
# 6 0.000000 0.000000 0.000000 0.000000 0.000000 0.036535
#
#
# Mechanical properties :
#
#
# Convention : Reuss Voigt Hill
#
# Bulk Modulus (GPa) = 36.93983 39.91419 38.42701
# Shear Modulus (GPa) = 23.28296 24.33497 23.80897
#
# Velocity S-wave (km/s) = 3.44408 3.52103 3.48277
# Velocity P-wave (km/s) = 5.88514 6.07164 5.97912
#
# Compressibility (1/GPa) = 0.02707105
#
# Stress axis : x y z
#
# Youngs Moduli (GPa) = 43.57793 43.57793 73.39272
#
# Poissons Ratio (x) = 0.27340 0.36515
# Poissons Ratio (y) = 0.27340 0.36515
# Poissons Ratio (z) = 0.21682 0.21682
#
# Static dielectric constant tensor:
#      x y z
#    x 1.736830 0.000000 0.000000 
#    y 0.000000 1.736830 0.000000 
#    z 0.000000 0.000000 1.715500 
# 
# From -- ./inp_files/944.got.cif
#   From: 2010.05.17/outbox.cif.g08.bks.cpg/sg130_1_cif.got.tgz:944.got - 2010.05.20 12:17:35.
