data_PCOD9565728
_publ_section_title
;
Structure prediction by ZEFSAII (Michael W. Deem and Ramdas Pophale) SiO2 
 PCOD9565728
Probable space group: P 4/N C C
;
_chemical_formula_sum "Si O2"
_cell_formula_units_Z 120
_cell_length_a 23.706130
_cell_length_b 23.706130
_cell_length_c 9.824978
_cell_angle_alpha 90.000000
_cell_angle_beta 90.000000
_cell_angle_gamma 90.000000
_cell_volume 5521.447027
_symmetry_space_group_name_H-M "P 4/N C C"
_symmetry_group_IT_number 130
_symmetry_cell_setting 'tetragonal'
loop_
_space_group_symop_operation_xyz
x,y,z
1/2-y,x,z
1/2-x,1/2-y,z
y,1/2-x,z
1/2+x,-y,1/2-z
-x,1/2+y,1/2-z
1/2+y,1/2+x,1/2-z
-y,-x,1/2-z
-x,-y,-z
1/2+y,-x,-z
1/2+x,1/2+y,-z
-y,1/2+x,-z
1/2-x,y,1/2+z
x,1/2-y,1/2+z
1/2-y,1/2-x,1/2+z
y,x,1/2+z
loop_
_atom_site_type_symbol
_atom_site_label
_atom_site_fract_x
_atom_site_fract_y
_atom_site_fract_z
Si Si1 0.597530 0.758722 0.513069
Si Si2 0.472877 0.681760 0.319727
Si Si3 0.067569 0.145888 0.326307
Si Si4 0.569658 0.069658 0.250000
Si Si5 0.060245 0.474590 0.965871
Si Si6 0.609632 0.819821 0.779132
Si Si7 0.031736 0.718778 0.513527
Si Si8 0.040028 0.872904 0.815459
O O1 0.585372 0.701899 0.597176
O O2 0.623966 0.800718 0.624164
O O3 0.626755 0.731748 0.379739
O O4 0.536192 0.786802 0.485419
O O5 0.437879 0.624459 0.341615
O O6 0.541563 0.675759 0.307125
O O7 0.456719 0.722135 0.443142
O O8 0.457540 0.708569 0.172212
O O9 0.065422 0.089599 0.420065
O O10 0.116941 0.134664 0.213666
O O11 0.002047 0.156513 0.289742
O O12 0.513359 0.076603 0.338246
O O13 0.092970 0.492892 0.099360
O O14 0.000000 0.500000 0.000000
O O15 0.063064 0.671477 0.423861
O O16 0.085284 0.914717 0.750000
#
# Coordination Sequence:
#
# PCOD9565728 Si02
#       8
#    16  16  16   8  16  16  16  16
#     4  10  22  38  61  82 119 169 214 260 310 370
#     4  10  21  37  61  80 122 162 205 256 300 375
#     4  12  22  36  59  89 121 169 207 253 317 383
#     4  12  22  38  56  88 123 170 198 248 324 371
#     4  12  23  34  52  85 132 160 201 236 309 388
#     4  10  21  38  57  86 116 162 210 259 300 369
#     4  10  21  41  56  85 119 164 216 248 301 371
#     4  12  23  36  55  88 127 163 201 255 310 387
#
# _framework density 21.733433000000002
#
# number of rings (size 3 to 8) (size 9 to 14) (size 15 to 20)
#    0.000    1.067    4.000    4.800    3.733    2.133 
#    0.000    0.000    0.000    0.400    0.000    4.200 
#    0.000    0.000    0.000    0.000    0.000    0.000 
#
# Total GULP energy -669747.443794 kJ/mol
# GULP energy per Si atom -5581.228698 kJ/mol
# Density = 2.168397 g / cm^3
# Si number density = 21.733433 Si / 1000 Ang^3
#
#
#
# Elastic Constant Matrix: (Units=GPa)
#
#
# Indices 1 2 3 4 5 6 
#
# 1 94.8879 -17.5717 12.6519 0.0000 0.0000 0.0000
# 2 -17.5717 94.8847 12.6520 0.0000 0.0000 0.0000
# 3 12.6519 12.6520 66.9947 0.0000 0.0000 0.0000
# 4 0.0000 0.0000 0.0000 27.3228 0.0000 0.0000
# 5 0.0000 0.0000 0.0000 0.0000 27.3231 0.0000
# 6 0.0000 0.0000 0.0000 0.0000 0.0000 13.0015
#
#
#
# Elastic Compliance Matrix: (Units=1/GPa)
#
#
# Indices 1 2 3 4 5 6 
#
# 1 0.011339 0.002447 -0.002603 0.000000 0.000000 0.000000
# 2 0.002447 0.011339 -0.002604 0.000000 0.000000 0.000000
# 3 -0.002603 -0.002604 0.015910 0.000000 0.000000 0.000000
# 4 0.000000 0.000000 0.000000 0.036599 0.000000 0.000000
# 5 0.000000 0.000000 0.000000 0.000000 0.036599 0.000000
# 6 0.000000 0.000000 0.000000 0.000000 0.000000 0.076914
#
#
# Mechanical properties :
#
#
# Convention : Reuss Voigt Hill
#
# Bulk Modulus (GPa) = 30.24046 30.24798 30.24422
# Shear Modulus (GPa) = 24.36124 30.13181 27.24652
#
# Velocity S-wave (km/s) = 3.35163 3.72751 3.54456
# Velocity P-wave (km/s) = 5.37795 5.69857 5.54058
#
# Compressibility (1/GPa) = 0.03306828
#
# Stress axis : x y z
#
# Youngs Moduli (GPa) = 88.19091 88.18779 62.85386
#
# Poissons Ratio (x) = -0.21580 0.16364
# Poissons Ratio (y) = -0.21581 0.16365
# Poissons Ratio (z) = 0.22960 0.22960
#
# Static dielectric constant tensor:
#      x y z
#    x 1.824830 0.000000 0.000000 
#    y 0.000000 1.824790 0.000000 
#    z 0.000000 0.000000 2.043860 
# 
# From -- ./inp_files/1079.got.cif
#   From: 2010.05.17/outbox.cif.g08.bks.cpg/sg130_1_cif.got.tgz:1079.got - 2010.05.20 12:17:35.
