data_PCOD9565827
_publ_section_title
;
Structure prediction by ZEFSAII (Michael W. Deem and Ramdas Pophale) SiO2 
 PCOD9565827
Probable space group: P 4/N C C
;
_chemical_formula_sum "Si O2"
_cell_formula_units_Z 108
_cell_length_a 14.116245
_cell_length_b 14.116245
_cell_length_c 25.463191
_cell_angle_alpha 90.000000
_cell_angle_beta 90.000000
_cell_angle_gamma 90.000000
_cell_volume 5074.008639
_symmetry_space_group_name_H-M "P 4/N C C"
_symmetry_group_IT_number 130
_symmetry_cell_setting 'tetragonal'
loop_
_space_group_symop_operation_xyz
x,y,z
1/2-y,x,z
1/2-x,1/2-y,z
y,1/2-x,z
1/2+x,-y,1/2-z
-x,1/2+y,1/2-z
1/2+y,1/2+x,1/2-z
-y,-x,1/2-z
-x,-y,-z
1/2+y,-x,-z
1/2+x,1/2+y,-z
-y,1/2+x,-z
1/2-x,y,1/2+z
x,1/2-y,1/2+z
1/2-y,1/2-x,1/2+z
y,x,1/2+z
loop_
_atom_site_type_symbol
_atom_site_label
_atom_site_fract_x
_atom_site_fract_y
_atom_site_fract_z
Si Si1 0.564202 0.337974 0.098833
Si Si2 0.591731 0.903103 0.332085
Si Si3 0.421252 0.578749 0.750000
Si Si4 0.708309 0.900629 0.565203
Si Si5 0.598060 0.057537 0.500866
Si Si6 0.250000 0.250000 0.689974
Si Si7 0.106575 0.863387 0.380546
Si Si8 0.704670 0.468444 0.155552
O O1 0.457015 0.345324 0.119293
O O2 0.580591 0.351014 0.037460
O O3 0.617517 0.249096 0.123273
O O4 0.616657 0.427651 0.122700
O O5 0.512318 0.916529 0.287625
O O6 0.682893 0.846627 0.312382
O O7 0.613331 0.008433 0.352082
O O8 0.327923 0.560856 0.786046
O O9 0.636721 0.814061 0.554412
O O10 0.675650 0.987575 0.527827
O O11 0.708731 0.928676 0.627574
O O12 0.619236 0.089404 0.442165
O O13 0.500000 0.000000 0.500000
O O14 0.195960 0.919907 0.358935
#
# Coordination Sequence:
#
# PCOD9565827 Si02
#       8
#    16  16   8  16  16   4  16  16
#     4  10  23  43  61 100 139 184 236 283 336 432
#     4  11  24  46  72 101 141 181 242 291 375 425
#     4  10  26  50  73 104 133 188 238 314 370 443
#     4  10  23  43  66 104 147 191 237 292 358 442
#     4  11  23  37  66  98 144 189 231 278 353 418
#     4  12  24  48  72 104 140 182 224 312 348 448
#     4  12  24  41  70  99 138 189 230 295 351 428
#     4  10  24  46  70  97 140 177 241 299 362 424
#
# _framework density 21.284946999999999
#
# number of rings (size 3 to 8) (size 9 to 14) (size 15 to 20)
#    0.000    1.333    2.963    1.333   10.370    1.185 
#    0.000    2.963    0.000    0.000    0.000    0.000 
#    0.000    0.000    0.000    0.000    0.000    0.000 
#
# Total GULP energy -601274.945410 kJ/mol
# GULP energy per Si atom -5567.360606 kJ/mol
# Density = 2.123650 g / cm^3
# Si number density = 21.284947 Si / 1000 Ang^3
#
#
#
# Elastic Constant Matrix: (Units=GPa)
#
#
# Indices 1 2 3 4 5 6 
#
# 1 91.8705 17.8579 34.4061 0.0000 0.0000 0.0000
# 2 17.8579 91.8703 34.4060 0.0000 0.0000 0.0000
# 3 34.4061 34.4060 103.2137 0.0000 0.0000 0.0000
# 4 0.0000 0.0000 0.0000 14.0658 0.0000 0.0000
# 5 0.0000 0.0000 0.0000 0.0000 14.0653 0.0000
# 6 0.0000 0.0000 0.0000 0.0000 0.0000 32.7518
#
#
#
# Elastic Compliance Matrix: (Units=1/GPa)
#
#
# Indices 1 2 3 4 5 6 
#
# 1 0.012517 -0.000995 -0.003841 0.000000 0.000000 0.000000
# 2 -0.000995 0.012517 -0.003841 0.000000 0.000000 0.000000
# 3 -0.003841 -0.003841 0.012249 0.000000 0.000000 0.000000
# 4 0.000000 0.000000 0.000000 0.071095 0.000000 0.000000
# 5 0.000000 0.000000 0.000000 0.000000 0.071097 0.000000
# 6 0.000000 0.000000 0.000000 0.000000 0.000000 0.030533
#
#
# Mechanical properties :
#
#
# Convention : Reuss Voigt Hill
#
# Bulk Modulus (GPa) = 50.17553 51.14385 50.65969
# Shear Modulus (GPa) = 21.36729 25.52887 23.44808
#
# Velocity S-wave (km/s) = 3.17183 3.46697 3.32268
# Velocity P-wave (km/s) = 6.08592 6.33300 6.21069
#
# Compressibility (1/GPa) = 0.01993003
#
# Stress axis : x y z
#
# Youngs Moduli (GPa) = 79.89361 79.89345 81.63720
#
# Poissons Ratio (x) = 0.07946 0.31356
# Poissons Ratio (y) = 0.07946 0.31356
# Poissons Ratio (z) = 0.30686 0.30686
#
# Static dielectric constant tensor:
#      x y z
#    x 1.770040 0.000000 0.000000 
#    y 0.000000 1.770040 0.000000 
#    z 0.000000 0.000000 1.910990 
# 
# From -- ./inp_files/4326.got.cif
#   From: 2010.05.17/outbox.cif.g08.bks.cpg/sg130_3_cif.got.tgz:4326.got - 2010.05.20 12:17:35.
