data_PCOD9565394
_publ_section_title
;
Structure prediction by ZEFSAII (Michael W. Deem and Ramdas Pophale) SiO2 
 PCOD9565394
Probable space group: P 4/N M M
;
_chemical_formula_sum "Si O2"
_cell_formula_units_Z 88
_cell_length_a 13.363520
_cell_length_b 13.363520
_cell_length_c 29.649330
_cell_angle_alpha 90.000000
_cell_angle_beta 90.000000
_cell_angle_gamma 90.000000
_cell_volume 5294.886069
_symmetry_space_group_name_H-M "P 4/N M M"
_symmetry_group_IT_number 129
_symmetry_cell_setting 'tetragonal'
loop_
_space_group_symop_operation_xyz
x,y,z
1/2-y,x,z
1/2-x,1/2-y,z
y,1/2-x,z
1/2+x,-y,-z
-x,1/2+y,-z
1/2+y,1/2+x,-z
-y,-x,-z
-x,-y,-z
1/2+y,-x,-z
1/2+x,1/2+y,-z
-y,1/2+x,-z
1/2-x,y,z
x,1/2-y,z
1/2-y,1/2-x,z
y,x,z
loop_
_atom_site_type_symbol
_atom_site_label
_atom_site_fract_x
_atom_site_fract_y
_atom_site_fract_z
Si Si1 0.631467 0.367542 0.361539
Si Si2 0.001178 0.001178 0.428626
Si Si3 0.866637 0.033378 0.821428
Si Si4 0.868699 0.469852 0.094471
Si Si5 0.033591 0.867587 0.264283
Si Si6 0.871630 0.628371 0.499057
Si Si7 0.868236 0.368236 0.000000
O O1 0.750000 0.379676 0.370762
O O2 0.607787 0.250000 0.363549
O O3 0.567344 0.429233 0.397210
O O4 0.613173 0.408928 0.311184
O O5 0.928015 0.928015 0.457608
O O6 0.072630 0.072630 0.459159
O O7 0.750000 0.012200 0.819968
O O8 0.895687 0.093522 0.866570
O O9 0.900311 0.097265 0.778020
O O10 0.933305 0.933305 0.821236
O O11 0.750000 0.480804 0.096964
O O12 0.926570 0.573431 0.101735
O O13 0.895556 0.427203 0.045153
O O14 0.012723 0.750000 0.261046
O O15 0.933279 0.933279 0.263741
O O16 0.887495 0.750000 0.498896
O O17 0.883542 0.250000 0.008238
#
# Coordination Sequence:
#
# PCOD9565394 Si02
#       7
#    16   8  16  16  16   8   8
#     4  10  20  34  54  80 108 139 176 219 266 313
#     4  11  20  36  58  80 108 142 180 221 264 314
#     4  10  21  36  55  78 104 137 176 218 265 319
#     4  10  20  33  50  74 103 137 178 221 267 320
#     4  10  20  35  54  79 110 142 175 214 258 307
#     4  10  22  38  56  80 110 144 180 220 266 314
#     4   9  17  30  50  74  99 129 170 224 275 319
#
# _framework density 16.619809
#
# number of rings (size 3 to 8) (size 9 to 14) (size 15 to 20)
#    0.000    2.000    0.909    3.000    0.000    3.455 
#    0.000    0.000    0.000    7.636    0.000    2.545 
#    0.000    0.000    0.000    0.000    0.000    0.000 
#
# Total GULP energy -490992.180295 kJ/mol
# GULP energy per Si atom -5579.456594 kJ/mol
# Density = 1.658198 g / cm^3
# Si number density = 16.619809 Si / 1000 Ang^3
#
#
#
# Elastic Constant Matrix: (Units=GPa)
#
#
# Indices 1 2 3 4 5 6 
#
# 1 112.7646 63.4690 69.3323 0.0000 0.0000 0.0000
# 2 63.4690 112.7646 69.3323 0.0000 0.0000 0.0000
# 3 69.3323 69.3323 130.4494 0.0000 0.0000 0.0000
# 4 0.0000 0.0000 0.0000 21.5592 0.0000 0.0000
# 5 0.0000 0.0000 0.0000 0.0000 21.5592 0.0000
# 6 0.0000 0.0000 0.0000 0.0000 0.0000 18.0634
#
#
#
# Elastic Compliance Matrix: (Units=1/GPa)
#
#
# Indices 1 2 3 4 5 6 
#
# 1 0.015019 -0.005267 -0.005183 0.000000 0.000000 0.000000
# 2 -0.005267 0.015019 -0.005183 0.000000 0.000000 0.000000
# 3 -0.005183 -0.005183 0.013176 0.000000 0.000000 0.000000
# 4 0.000000 0.000000 0.000000 0.046384 0.000000 0.000000
# 5 0.000000 0.000000 0.000000 0.000000 0.046384 0.000000
# 6 0.000000 0.000000 0.000000 0.000000 0.000000 0.055360
#
#
# Mechanical properties :
#
#
# Convention : Reuss Voigt Hill
#
# Bulk Modulus (GPa) = 83.70067 84.47178 84.08622
# Shear Modulus (GPa) = 22.06609 22.49269 22.27939
#
# Velocity S-wave (km/s) = 3.64771 3.68280 3.66530
# Velocity P-wave (km/s) = 8.25908 8.30785 8.28350
#
# Compressibility (1/GPa) = 0.01194734
#
# Stress axis : x y z
#
# Youngs Moduli (GPa) = 66.58113 66.58113 75.89715
#
# Poissons Ratio (x) = 0.35065 0.39341
# Poissons Ratio (y) = 0.35065 0.39341
# Poissons Ratio (z) = 0.34512 0.34512
#
# Static dielectric constant tensor:
#      x y z
#    x 1.531270 0.000000 0.000000 
#    y 0.000000 1.531270 0.000000 
#    z 0.000000 0.000000 1.554160 
# 
# From -- ./inp_files/7806.got.cif
#   From: 2010.05.17/outbox.cif.g08.bks.cpg/sg129_4_cif.got.tgz:7806.got - 2010.05.20 12:12:06.
