data_PCOD9565963
_publ_section_title
;
Structure prediction by ZEFSAII (Michael W. Deem and Ramdas Pophale) SiO2 
 PCOD9565963
Probable space group: P 4/N C C
;
_chemical_formula_sum "Si O2"
_cell_formula_units_Z 56
_cell_length_a 12.526228
_cell_length_b 12.526228
_cell_length_c 13.211927
_cell_angle_alpha 90.000000
_cell_angle_beta 90.000000
_cell_angle_gamma 90.000000
_cell_volume 2073.035743
_symmetry_space_group_name_H-M "P 4/N C C"
_symmetry_group_IT_number 130
_symmetry_cell_setting 'tetragonal'
loop_
_space_group_symop_operation_xyz
x,y,z
1/2-y,x,z
1/2-x,1/2-y,z
y,1/2-x,z
1/2+x,-y,1/2-z
-x,1/2+y,1/2-z
1/2+y,1/2+x,1/2-z
-y,-x,1/2-z
-x,-y,-z
1/2+y,-x,-z
1/2+x,1/2+y,-z
-y,1/2+x,-z
1/2-x,y,1/2+z
x,1/2-y,1/2+z
1/2-y,1/2-x,1/2+z
y,x,1/2+z
loop_
_atom_site_type_symbol
_atom_site_label
_atom_site_fract_x
_atom_site_fract_y
_atom_site_fract_z
Si Si1 0.411657 0.188472 0.410211
Si Si2 0.250000 0.750000 0.126371
Si Si3 0.850654 0.046506 0.411693
Si Si4 0.364499 0.486724 0.196213
O O1 0.382407 0.309051 0.440164
O O2 0.513149 0.143122 0.470873
O O3 0.420610 0.181902 0.289934
O O4 0.250000 0.750000 0.250000
O O5 0.357515 0.831438 0.120501
O O6 0.250000 0.750000 0.000000
O O7 0.729168 0.019546 0.378340
O O8 0.926609 0.964509 0.353153
O O9 0.408339 0.591662 0.250000
#
# Coordination Sequence:
#
# PCOD9565963 Si02
#       4
#    16   8  16  16
#     4  11  24  46  82 121 156 206 280 370 436 510
#     4  12  32  56  82 116 180 236 290 356 444 532
#     4  12  27  50  78 119 164 225 286 360 441 526
#     4  12  27  46  78 114 165 216 287 352 443 524
#
# _framework density 27.013522999999999
#
# number of rings (size 3 to 8) (size 9 to 14) (size 15 to 20)
#    0.000    0.286    5.714    1.714    8.000    4.000 
#    0.000    0.000    0.000    0.000    0.000    0.000 
#    0.000    0.000    0.000    0.000    0.000    0.000 
#
# Total GULP energy -312175.430001 kJ/mol
# GULP energy per Si atom -5574.561250 kJ/mol
# Density = 2.695204 g / cm^3
# Si number density = 27.013523 Si / 1000 Ang^3
#
#
#
# Elastic Constant Matrix: (Units=GPa)
#
#
# Indices 1 2 3 4 5 6 
#
# 1 107.1443 18.5797 13.5751 0.0000 0.0000 0.0000
# 2 18.5797 107.1397 13.5732 0.0000 0.0000 0.0000
# 3 13.5751 13.5732 180.5024 0.0000 0.0000 0.0000
# 4 0.0000 0.0000 0.0000 36.8496 0.0000 0.0000
# 5 0.0000 0.0000 0.0000 0.0000 36.8518 0.0000
# 6 0.0000 0.0000 0.0000 0.0000 0.0000 49.3599
#
#
#
# Elastic Compliance Matrix: (Units=1/GPa)
#
#
# Indices 1 2 3 4 5 6 
#
# 1 0.009688 -0.001603 -0.000608 0.000000 0.000000 0.000000
# 2 -0.001603 0.009689 -0.000608 0.000000 0.000000 0.000000
# 3 -0.000608 -0.000608 0.005632 0.000000 0.000000 0.000000
# 4 0.000000 0.000000 0.000000 0.027137 0.000000 0.000000
# 5 0.000000 0.000000 0.000000 0.000000 0.027136 0.000000
# 6 0.000000 0.000000 0.000000 0.000000 0.000000 0.020259
#
#
# Mechanical properties :
#
#
# Convention : Reuss Voigt Hill
#
# Bulk Modulus (GPa) = 51.62582 54.02692 52.82637
# Shear Modulus (GPa) = 44.78848 47.88280 46.33564
#
# Velocity S-wave (km/s) = 4.07627 4.21473 4.14608
# Velocity P-wave (km/s) = 6.42707 6.61277 6.52058
#
# Compressibility (1/GPa) = 0.01937015
#
# Stress axis : x y z
#
# Youngs Moduli (GPa) = 103.21796 103.21378 177.57125
#
# Poissons Ratio (x) = 0.16546 0.10798
# Poissons Ratio (y) = 0.16546 0.10796
# Poissons Ratio (z) = 0.06276 0.06275
#
# Static dielectric constant tensor:
#      x y z
#    x 2.283530 0.000000 0.000000 
#    y 0.000000 2.283530 0.000000 
#    z 0.000000 0.000000 2.057810 
# 
# From -- ./inp_files/1408.got.cif
#   From: 2010.05.17/outbox.cif.g08.bks.cpg/sg130_1_cif.got.tgz:1408.got - 2010.05.20 12:17:35.
