data_PCOD9565065
_publ_section_title
;
Structure prediction by ZEFSAII (Michael W. Deem and Ramdas Pophale) SiO2 
 PCOD9565065
Probable space group: P 4/M N C
;
_chemical_formula_sum "Si O2"
_cell_formula_units_Z 44
_cell_length_a 6.803375
_cell_length_b 6.803375
_cell_length_c 29.412927
_cell_angle_alpha 90.000000
_cell_angle_beta 90.000000
_cell_angle_gamma 90.000000
_cell_volume 1361.404133
_symmetry_space_group_name_H-M "P 4/M N C"
_symmetry_group_IT_number 128
_symmetry_cell_setting 'tetragonal'
loop_
_space_group_symop_operation_xyz
x,y,z
-y,x,z
-x,-y,z
y,-x,z
1/2+x,1/2-y,1/2-z
1/2-x,1/2+y,1/2-z
1/2+y,1/2+x,1/2-z
1/2-y,1/2-x,1/2-z
-x,-y,-z
y,-x,-z
x,y,-z
-y,x,-z
1/2-x,1/2+y,1/2+z
1/2+x,1/2-y,1/2+z
1/2-y,1/2-x,1/2+z
1/2+y,1/2+x,1/2+z
loop_
_atom_site_type_symbol
_atom_site_label
_atom_site_fract_x
_atom_site_fract_y
_atom_site_fract_z
Si Si1 0.500000 0.500000 0.781905
Si Si2 0.260421 0.239580 0.250000
Si Si3 0.680407 0.780391 0.451098
Si Si4 0.262313 0.198684 0.853315
O O1 0.490449 0.735258 0.741770
O O2 0.345065 0.302093 0.191570
O O3 0.443886 0.758859 0.451092
O O4 0.730503 0.871046 0.500000
O O5 0.741510 0.861453 0.402103
O O6 0.036060 0.262816 0.853464
#
# Coordination Sequence:
#
# PCOD9565065 Si02
#       4
#     4   8  16  16
#     4  12  28  40  68  84 134 156 224 244 324 354
#     4  12  20  42  56  94 116 178 192 262 292 394
#     4   7  10  17  35  66 103 142 182 238 304 350
#     4   9  15  28  48  75 115 152 194 248 304 356
#
# _framework density 32.319578
#
# number of rings (size 3 to 8) (size 9 to 14) (size 15 to 20)
#    0.000    2.909    3.636    3.273    0.000    0.727 
#    0.000    0.000    0.000    0.000    0.000    3.818 
#    0.000   11.636    0.000    0.000    0.000    0.000 
#
# Total GULP energy -244997.133716 kJ/mol
# GULP energy per Si atom -5568.116675 kJ/mol
# Density = 3.224602 g / cm^3
# Si number density = 32.319578 Si / 1000 Ang^3
#
#
#
# Elastic Constant Matrix: (Units=GPa)
#
#
# Indices 1 2 3 4 5 6 
#
# 1 295.7440 88.5133 57.9495 0.0000 0.0000 0.0000
# 2 88.5133 295.7442 57.9491 0.0000 0.0000 0.0000
# 3 57.9495 57.9491 425.6631 0.0000 0.0000 0.0000
# 4 0.0000 0.0000 0.0000 6.2298 0.0000 0.0000
# 5 0.0000 0.0000 0.0000 0.0000 6.2298 0.0000
# 6 0.0000 0.0000 0.0000 0.0000 0.0000 -20.2283
#
#
#
# Elastic Compliance Matrix: (Units=1/GPa)
#
#
# Indices 1 2 3 4 5 6 
#
# 1 0.003770 -0.001056 -0.000369 0.000000 0.000000 0.000000
# 2 -0.001056 0.003770 -0.000369 0.000000 0.000000 0.000000
# 3 -0.000369 -0.000369 0.002450 0.000000 0.000000 0.000000
# 4 0.000000 0.000000 0.000000 0.160519 0.000000 0.000000
# 5 0.000000 0.000000 0.000000 0.000000 0.160519 0.000000
# 6 0.000000 0.000000 0.000000 0.000000 0.000000 -0.049436
#
#
# Mechanical properties :
#
#
# Convention : Reuss Voigt Hill
#
# Bulk Modulus (GPa) = 156.25630 158.44168 157.34899
# Shear Modulus (GPa) = 17.40252 52.62887 35.01569
#
# Velocity S-wave (km/s) = 2.32297 4.03971 3.29511
# Velocity P-wave (km/s) = 7.45970 8.41955 7.95412
#
# Compressibility (1/GPa) = 0.00639974
#
# Stress axis : x y z
#
# Youngs Moduli (GPa) = 265.27305 265.27334 408.18459
#
# Poissons Ratio (x) = 0.28009 0.15081
# Poissons Ratio (y) = 0.28009 0.15081
# Poissons Ratio (z) = 0.09801 0.09801
#
# Static dielectric constant tensor:
#      x y z
#    x 6.299390 0.000000 0.000000 
#    y 0.000000 6.299360 0.000000 
#    z 0.000000 0.000000 2.830410 
# 
# From -- ./inp_files/6995.got.cif
#   From: 2010.05.17/outbox.cif.g08.bks.cpg/sg128_4_cif.got.tgz:6995.got - 2010.05.20 12:07:25.
