data_PCOD9565811
_publ_section_title
;
Structure prediction by ZEFSAII (Michael W. Deem and Ramdas Pophale) SiO2 
 PCOD9565811
Probable space group: P 4/N C C
;
_chemical_formula_sum "Si O2"
_cell_formula_units_Z 104
_cell_length_a 16.478224
_cell_length_b 16.478224
_cell_length_c 15.968061
_cell_angle_alpha 90.000000
_cell_angle_beta 90.000000
_cell_angle_gamma 90.000000
_cell_volume 4335.837403
_symmetry_space_group_name_H-M "P 4/N C C"
_symmetry_group_IT_number 130
_symmetry_cell_setting 'tetragonal'
loop_
_space_group_symop_operation_xyz
x,y,z
1/2-y,x,z
1/2-x,1/2-y,z
y,1/2-x,z
1/2+x,-y,1/2-z
-x,1/2+y,1/2-z
1/2+y,1/2+x,1/2-z
-y,-x,1/2-z
-x,-y,-z
1/2+y,-x,-z
1/2+x,1/2+y,-z
-y,1/2+x,-z
1/2-x,y,1/2+z
x,1/2-y,1/2+z
1/2-y,1/2-x,1/2+z
y,x,1/2+z
loop_
_atom_site_type_symbol
_atom_site_label
_atom_site_fract_x
_atom_site_fract_y
_atom_site_fract_z
Si Si1 0.601223 0.512131 0.204858
Si Si2 0.423103 0.943022 0.475022
Si Si3 0.250000 0.750000 0.250000
Si Si4 0.942331 0.836155 0.934191
Si Si5 0.764237 0.435878 0.219067
Si Si6 0.318159 0.084025 0.875555
Si Si7 0.837379 0.982174 0.874456
Si Si8 0.750000 0.750000 0.654503
O O1 0.522691 0.477310 0.250000
O O2 0.609452 0.474612 0.112189
O O3 0.679299 0.475544 0.250496
O O4 0.592234 0.605757 0.185643
O O5 0.464393 0.857592 0.455209
O O6 0.500000 0.000000 0.500000
O O7 0.361626 0.957478 0.549966
O O8 0.160415 0.752736 0.206007
O O9 0.901318 0.837284 0.026584
O O10 0.902430 0.907804 0.878377
O O11 0.937461 0.747517 0.895239
O O12 0.788879 0.491656 0.140117
O O13 0.826134 0.461530 0.293265
O O14 0.252027 0.150254 0.849511
#
# Coordination Sequence:
#
# PCOD9565811 Si02
#       8
#    16  16   4  16  16  16  16   4
#     4  12  24  45  74 108 145 200 260 318 395 467
#     4  10  22  44  68 101 146 192 253 313 370 469
#     4  12  32  56  68 110 156 196 278 336 380 468
#     4  11  24  45  72 108 156 196 261 314 403 484
#     4  12  29  47  77 104 153 206 262 330 401 463
#     4  12  25  43  76 114 152 210 248 320 401 486
#     4  11  25  45  70 111 147 199 250 322 396 481
#     4  12  24  44  68 110 168 188 256 302 388 492
#
# _framework density 23.986139000000001
#
# number of rings (size 3 to 8) (size 9 to 14) (size 15 to 20)
#    0.000    0.615    5.385    2.769    9.692    0.308 
#    0.000    0.000    0.000    1.846    0.000    0.000 
#    0.000    0.000    0.000    0.000    0.000    0.000 
#
# Total GULP energy -580230.351550 kJ/mol
# GULP energy per Si atom -5579.137996 kJ/mol
# Density = 2.393155 g / cm^3
# Si number density = 23.986139 Si / 1000 Ang^3
#
#
#
# Elastic Constant Matrix: (Units=GPa)
#
#
# Indices 1 2 3 4 5 6 
#
# 1 126.9535 24.7367 19.9907 0.0000 0.0000 0.0000
# 2 24.7367 126.9538 19.9907 0.0000 0.0000 0.0000
# 3 19.9907 19.9907 99.2962 0.0000 0.0000 0.0000
# 4 0.0000 0.0000 0.0000 30.9302 0.0000 0.0000
# 5 0.0000 0.0000 0.0000 0.0000 30.9302 0.0000
# 6 0.0000 0.0000 0.0000 0.0000 0.0000 43.3121
#
#
#
# Elastic Compliance Matrix: (Units=1/GPa)
#
#
# Indices 1 2 3 4 5 6 
#
# 1 0.008372 -0.001411 -0.001402 0.000000 0.000000 0.000000
# 2 -0.001411 0.008372 -0.001402 0.000000 0.000000 0.000000
# 3 -0.001402 -0.001402 0.010635 0.000000 0.000000 0.000000
# 4 0.000000 0.000000 0.000000 0.032331 0.000000 0.000000
# 5 0.000000 0.000000 0.000000 0.000000 0.032331 0.000000
# 6 0.000000 0.000000 0.000000 0.000000 0.000000 0.023088
#
#
# Mechanical properties :
#
#
# Convention : Reuss Voigt Hill
#
# Bulk Modulus (GPa) = 52.76347 53.62663 53.19505
# Shear Modulus (GPa) = 38.49847 40.26684 39.38266
#
# Velocity S-wave (km/s) = 4.01063 4.10171 4.05642
# Velocity P-wave (km/s) = 6.59485 6.69611 6.64567
#
# Compressibility (1/GPa) = 0.01895251
#
# Stress axis : x y z
#
# Youngs Moduli (GPa) = 119.43913 119.43947 94.02717
#
# Poissons Ratio (x) = 0.16849 0.13179
# Poissons Ratio (y) = 0.16849 0.13179
# Poissons Ratio (z) = 0.16740 0.16740
#
# Static dielectric constant tensor:
#      x y z
#    x 1.397670 0.000000 0.000000 
#    y 0.000000 1.397390 0.000000 
#    z 0.000000 0.000000 1.956100 
# 
# From -- ./inp_files/3192.got.cif
#   From: 2010.05.17/outbox.cif.g08.bks.cpg/sg130_2_cif.got.tgz:3192.got - 2010.05.20 12:17:35.
