data_PCOD9565824
_publ_section_title
;
Structure prediction by ZEFSAII (Michael W. Deem and Ramdas Pophale) SiO2 
 PCOD9565824
Probable space group: P 4/N C C
;
_chemical_formula_sum "Si O2"
_cell_formula_units_Z 88
_cell_length_a 17.960984
_cell_length_b 17.960984
_cell_length_c 14.365745
_cell_angle_alpha 90.000000
_cell_angle_beta 90.000000
_cell_angle_gamma 90.000000
_cell_volume 4634.345468
_symmetry_space_group_name_H-M "P 4/N C C"
_symmetry_group_IT_number 130
_symmetry_cell_setting 'tetragonal'
loop_
_space_group_symop_operation_xyz
x,y,z
1/2-y,x,z
1/2-x,1/2-y,z
y,1/2-x,z
1/2+x,-y,1/2-z
-x,1/2+y,1/2-z
1/2+y,1/2+x,1/2-z
-y,-x,1/2-z
-x,-y,-z
1/2+y,-x,-z
1/2+x,1/2+y,-z
-y,1/2+x,-z
1/2-x,y,1/2+z
x,1/2-y,1/2+z
1/2-y,1/2-x,1/2+z
y,x,1/2+z
loop_
_atom_site_type_symbol
_atom_site_label
_atom_site_fract_x
_atom_site_fract_y
_atom_site_fract_z
Si Si1 0.502009 0.589027 0.990587
Si Si2 0.250000 0.750000 0.500000
Si Si3 0.860999 0.139609 0.597611
Si Si4 0.121594 0.999493 0.721459
Si Si5 0.750000 0.750000 0.138030
Si Si6 0.460729 0.787697 0.756662
Si Si7 0.102857 0.146766 0.841392
O O1 0.419651 0.618202 0.018143
O O2 0.559612 0.624104 0.064152
O O3 0.500000 0.500000 0.000000
O O4 0.521758 0.610682 0.885765
O O5 0.293078 0.811649 0.560125
O O6 0.814671 0.094364 0.675166
O O7 0.933995 0.170591 0.650012
O O8 0.053526 0.946475 0.750000
O O9 0.199707 0.957378 0.730885
O O10 0.123057 0.070755 0.788114
O O11 0.825694 0.802964 0.140360
O O12 0.542829 0.811553 0.724348
#
# Coordination Sequence:
#
# PCOD9565824 Si02
#       7
#    16   4  16  16   4  16  16
#     4  11  23  44  70  99 128 176 232 282 338 407
#     4  12  24  38  56 100 144 174 212 276 342 420
#     4  10  24  39  62  92 140 175 217 279 343 407
#     4  12  24  41  73  99 129 177 234 279 340 417
#     4  12  24  52  70 100 144 190 224 292 370 412
#     4  10  23  42  64  94 129 180 223 277 345 407
#     4  11  24  47  69  97 140 174 227 297 344 415
#
# _framework density 18.988658000000001
#
# number of rings (size 3 to 8) (size 9 to 14) (size 15 to 20)
#    0.000    1.091    3.636    2.182    7.636    0.727 
#    6.545    0.909    0.000    0.000    0.000    0.000 
#    0.000    0.000    0.000    0.000    0.000    0.000 
#
# Total GULP energy -490817.644748 kJ/mol
# GULP energy per Si atom -5577.473236 kJ/mol
# Density = 1.894544 g / cm^3
# Si number density = 18.988658 Si / 1000 Ang^3
#
#
#
# Elastic Constant Matrix: (Units=GPa)
#
#
# Indices 1 2 3 4 5 6 
#
# 1 128.1349 45.0161 33.4007 0.0000 0.0000 0.0000
# 2 45.0161 128.1326 33.4006 0.0000 0.0000 0.0000
# 3 33.4007 33.4006 75.4446 0.0000 0.0000 0.0000
# 4 0.0000 0.0000 0.0000 11.2971 0.0000 0.0000
# 5 0.0000 0.0000 0.0000 0.0000 11.2973 0.0000
# 6 0.0000 0.0000 0.0000 0.0000 0.0000 43.7098
#
#
#
# Elastic Compliance Matrix: (Units=1/GPa)
#
#
# Indices 1 2 3 4 5 6 
#
# 1 0.009498 -0.002533 -0.003083 0.000000 0.000000 0.000000
# 2 -0.002533 0.009498 -0.003084 0.000000 0.000000 0.000000
# 3 -0.003083 -0.003084 0.015985 0.000000 0.000000 0.000000
# 4 0.000000 0.000000 0.000000 0.088518 0.000000 0.000000
# 5 0.000000 0.000000 0.000000 0.000000 0.088516 0.000000
# 6 0.000000 0.000000 0.000000 0.000000 0.000000 0.022878
#
#
# Mechanical properties :
#
#
# Convention : Reuss Voigt Hill
#
# Bulk Modulus (GPa) = 56.87995 61.70523 59.29259
# Shear Modulus (GPa) = 19.36825 27.92050 23.64438
#
# Velocity S-wave (km/s) = 3.19719 3.83871 3.53254
# Velocity P-wave (km/s) = 6.60675 7.22592 6.92326
#
# Compressibility (1/GPa) = 0.01758089
#
# Stress axis : x y z
#
# Youngs Moduli (GPa) = 105.28581 105.28372 62.55856
#
# Poissons Ratio (x) = 0.26669 0.19290
# Poissons Ratio (y) = 0.26670 0.19290
# Poissons Ratio (z) = 0.32465 0.32465
#
# Static dielectric constant tensor:
#      x y z
#    x 1.647500 0.000000 0.000000 
#    y 0.000000 1.647500 0.000000 
#    z 0.000000 0.000000 1.652040 
# 
# From -- ./inp_files/2427.got.cif
#   From: 2010.05.17/outbox.cif.g08.bks.cpg/sg130_2_cif.got.tgz:2427.got - 2010.05.20 12:17:35.
