data_PCOD9565140
_publ_section_title
;
Structure prediction by ZEFSAII (Michael W. Deem and Ramdas Pophale) SiO2 
 PCOD9565140
Probable space group: P 4/N M M
;
_chemical_formula_sum "Si O2"
_cell_formula_units_Z 96
_cell_length_a 26.786959
_cell_length_b 26.786959
_cell_length_c 8.544037
_cell_angle_alpha 90.000000
_cell_angle_beta 90.000000
_cell_angle_gamma 90.000000
_cell_volume 6130.698327
_symmetry_space_group_name_H-M "P 4/N M M"
_symmetry_group_IT_number 129
_symmetry_cell_setting 'tetragonal'
loop_
_space_group_symop_operation_xyz
x,y,z
1/2-y,x,z
1/2-x,1/2-y,z
y,1/2-x,z
1/2+x,-y,-z
-x,1/2+y,-z
1/2+y,1/2+x,-z
-y,-x,-z
-x,-y,-z
1/2+y,-x,-z
1/2+x,1/2+y,-z
-y,1/2+x,-z
1/2-x,y,z
x,1/2-y,z
1/2-y,1/2-x,z
y,x,z
loop_
_atom_site_type_symbol
_atom_site_label
_atom_site_fract_x
_atom_site_fract_y
_atom_site_fract_z
Si Si1 0.663113 0.107732 0.861302
Si Si2 0.831624 0.196062 0.666247
Si Si3 0.419438 0.500127 0.063701
Si Si4 0.458774 0.895507 0.616605
Si Si5 0.513970 0.305396 0.961421
Si Si6 0.950379 0.306021 0.604809
O O1 0.689212 0.152975 0.774813
O O2 0.627230 0.083660 0.730665
O O3 0.630785 0.130785 0.000000
O O4 0.695597 0.064665 0.937021
O O5 0.805618 0.194383 0.500000
O O6 0.827693 0.250000 0.742310
O O7 0.890651 0.187359 0.628304
O O8 0.453248 0.453248 0.015561
O O9 0.416316 0.503728 0.253096
O O10 0.450733 0.549268 0.000000
O O11 0.361686 0.495029 0.006247
O O12 0.436812 0.936812 0.500000
O O13 0.472516 0.848415 0.507507
O O14 0.489169 0.250000 0.987574
O O15 0.526499 0.308195 0.777659
O O16 0.957797 0.250000 0.540240
#
# Coordination Sequence:
#
# PCOD9565140 Si02
#       6
#    16  16  16  16  16  16
#     4  11  18  29  45  67  88 113 152 203 249 292
#     4  11  21  33  44  57  82 118 159 204 258 301
#     4  10  22  36  51  74 106 136 165 203 250 301
#     4  11  17  29  47  67  90 122 160 197 243 294
#     4  10  20  33  54  75  94 123 164 205 246 294
#     4  10  18  30  48  72  92 116 159 209 248 290
#
# _framework density 15.658901
#
# number of rings (size 3 to 8) (size 9 to 14) (size 15 to 20)
#    0.000    1.500    5.000    3.000    0.000    3.833 
#    0.000    0.833    0.000    0.000    0.000    0.000 
#    0.000    0.333    0.000    0.000    0.000    4.167 
#
# Total GULP energy -534443.818760 kJ/mol
# GULP energy per Si atom -5567.123112 kJ/mol
# Density = 1.562326 g / cm^3
# Si number density = 15.658901 Si / 1000 Ang^3
#
#
#
# Elastic Constant Matrix: (Units=GPa)
#
#
# Indices 1 2 3 4 5 6 
#
# 1 64.1924 35.9696 16.8807 0.0000 0.0000 0.0000
# 2 35.9696 64.1915 16.8812 0.0000 0.0000 0.0000
# 3 16.8807 16.8812 72.4257 0.0000 0.0000 0.0000
# 4 0.0000 0.0000 0.0000 -6.5078 0.0000 0.0000
# 5 0.0000 0.0000 0.0000 0.0000 -6.5046 0.0000
# 6 0.0000 0.0000 0.0000 0.0000 0.0000 8.3391
#
#
#
# Elastic Compliance Matrix: (Units=1/GPa)
#
#
# Indices 1 2 3 4 5 6 
#
# 1 0.023134 -0.012299 -0.002525 0.000000 0.000000 0.000000
# 2 -0.012299 0.023134 -0.002526 0.000000 0.000000 0.000000
# 3 -0.002525 -0.002526 0.014985 0.000000 0.000000 0.000000
# 4 0.000000 0.000000 0.000000 -0.153662 0.000000 0.000000
# 5 0.000000 0.000000 0.000000 0.000000 -0.153736 0.000000
# 6 0.000000 0.000000 0.000000 0.000000 0.000000 0.119917
#
#
# Mechanical properties :
#
#
# Convention : Reuss Voigt Hill
#
# Bulk Modulus (GPa) = 37.66053 37.80806 37.73429
# Shear Modulus (GPa) = -60.47577 7.80386 -26.33595
#
# Velocity S-wave (km/s) = -6.22130 2.23483 -4.10549
# Velocity P-wave (km/s) = 5.24436 5.55486 1.29484
#
# Compressibility (1/GPa) = 0.02655300
#
# Stress axis : x y z
#
# Youngs Moduli (GPa) = 43.22680 43.22598 66.73555
#
# Poissons Ratio (x) = 0.53163 0.16853
# Poissons Ratio (y) = 0.53164 0.16855
# Poissons Ratio (z) = 0.10916 0.10917
#
# Static dielectric constant tensor:
#      x y z
#    x 1.794950 0.000000 0.000000 
#    y 0.000000 1.796290 0.000000 
#    z 0.000000 0.000000 1.544030 
# 
# From -- ./inp_files/2790.got.cif
#   From: 2010.05.17/outbox.cif.g08.bks.cpg/sg129_2_cif.got.tgz:2790.got - 2010.05.20 12:12:06.
