data_PCOD9565015
_publ_section_title
;
Structure prediction by ZEFSAII (Michael W. Deem and Ramdas Pophale) SiO2 
 PCOD9565015
Probable space group: P 4/M N C
;
_chemical_formula_sum "Si O2"
_cell_formula_units_Z 60
_cell_length_a 11.864221
_cell_length_b 11.864221
_cell_length_c 19.833961
_cell_angle_alpha 90.000000
_cell_angle_beta 90.000000
_cell_angle_gamma 90.000000
_cell_volume 2791.823192
_symmetry_space_group_name_H-M "P 4/M N C"
_symmetry_group_IT_number 128
_symmetry_cell_setting 'tetragonal'
loop_
_space_group_symop_operation_xyz
x,y,z
-y,x,z
-x,-y,z
y,-x,z
1/2+x,1/2-y,1/2-z
1/2-x,1/2+y,1/2-z
1/2+y,1/2+x,1/2-z
1/2-y,1/2-x,1/2-z
-x,-y,-z
y,-x,-z
x,y,-z
-y,x,-z
1/2-x,1/2+y,1/2+z
1/2+x,1/2-y,1/2+z
1/2-y,1/2-x,1/2+z
1/2+y,1/2+x,1/2+z
loop_
_atom_site_type_symbol
_atom_site_label
_atom_site_fract_x
_atom_site_fract_y
_atom_site_fract_z
Si Si1 0.194175 0.378700 0.676695
Si Si2 0.715598 0.885101 0.866557
Si Si3 0.729355 0.006886 0.419524
Si Si4 0.686292 0.473055 0.500000
Si Si5 0.500000 0.500000 0.090003
O O1 0.170280 0.329721 0.750000
O O2 0.191672 0.513726 0.684549
O O3 0.312893 0.324264 0.654094
O O4 0.103272 0.336863 0.621607
O O5 0.610547 0.806188 0.884343
O O6 0.741519 0.954458 0.934177
O O7 0.702218 0.006103 0.500000
O O8 0.863081 0.025301 0.413150
O O9 0.623317 0.591041 0.500000
#
# Coordination Sequence:
#
# PCOD9565015 Si02
#       5
#    16  16  16   8   4
#     4  12  31  49  73 106 153 197 248 300 377 452
#     4  12  26  47  76 109 148 193 247 307 373 442
#     4  12  26  46  77 110 147 192 251 313 371 435
#     4  11  22  42  73 114 151 185 240 309 364 444
#     4  12  25  44  76 116 148 196 249 314 373 432
#
# _framework density 21.491332
#
# number of rings (size 3 to 8) (size 9 to 14) (size 15 to 20)
#    0.000    0.133    6.667    2.000    7.467    2.667 
#    0.000    0.000    0.000    0.000    0.000    0.000 
#    0.000    0.000    0.000    0.000    0.000    0.000 
#
# Total GULP energy -334593.141267 kJ/mol
# GULP energy per Si atom -5576.552354 kJ/mol
# Density = 2.144242 g / cm^3
# Si number density = 21.491332 Si / 1000 Ang^3
#
#
#
# Elastic Constant Matrix: (Units=GPa)
#
#
# Indices 1 2 3 4 5 6 
#
# 1 118.3814 2.1746 7.5831 0.0000 0.0000 0.0000
# 2 2.1746 118.3819 7.5831 0.0000 0.0000 0.0000
# 3 7.5831 7.5831 63.4202 0.0000 0.0000 0.0000
# 4 0.0000 0.0000 0.0000 12.2747 0.0000 0.0000
# 5 0.0000 0.0000 0.0000 0.0000 12.2737 0.0000
# 6 0.0000 0.0000 0.0000 0.0000 0.0000 90.8328
#
#
#
# Elastic Compliance Matrix: (Units=1/GPa)
#
#
# Indices 1 2 3 4 5 6 
#
# 1 0.008513 -0.000092 -0.001007 0.000000 0.000000 0.000000
# 2 -0.000092 0.008513 -0.001007 0.000000 0.000000 0.000000
# 3 -0.001007 -0.001007 0.016009 0.000000 0.000000 0.000000
# 4 0.000000 0.000000 0.000000 0.081468 0.000000 0.000000
# 5 0.000000 0.000000 0.000000 0.000000 0.081475 0.000000
# 6 0.000000 0.000000 0.000000 0.000000 0.000000 0.011009
#
#
# Mechanical properties :
#
#
# Convention : Reuss Voigt Hill
#
# Bulk Modulus (GPa) = 34.69338 37.20723 35.95031
# Shear Modulus (GPa) = 22.64416 41.93244 32.28830
#
# Velocity S-wave (km/s) = 3.24951 4.42195 3.88027
# Velocity P-wave (km/s) = 5.50064 6.58952 6.06955
#
# Compressibility (1/GPa) = 0.02882394
#
# Stress axis : x y z
#
# Youngs Moduli (GPa) = 117.46099 117.46155 62.46623
#
# Poissons Ratio (x) = 0.01079 0.06290
# Poissons Ratio (y) = 0.01079 0.06290
# Poissons Ratio (z) = 0.11828 0.11828
#
# Static dielectric constant tensor:
#      x y z
#    x 1.740670 0.000000 0.000000 
#    y 0.000000 1.740670 0.000000 
#    z 0.000000 0.000000 1.771940 
# 
# From -- ./inp_files/5443.got.cif
#   From: 2010.05.17/outbox.cif.g08.bks.cpg/sg128_3_cif.got.tgz:5443.got - 2010.05.20 12:07:25.
