data_PCOD9565317
_publ_section_title
;
Structure prediction by ZEFSAII (Michael W. Deem and Ramdas Pophale) SiO2 
 PCOD9565317
Probable space group: P 4/N M M
;
_chemical_formula_sum "Si O2"
_cell_formula_units_Z 96
_cell_length_a 25.924824
_cell_length_b 25.924824
_cell_length_c 7.471451
_cell_angle_alpha 90.000000
_cell_angle_beta 90.000000
_cell_angle_gamma 90.000000
_cell_volume 5021.536063
_symmetry_space_group_name_H-M "P 4/N M M"
_symmetry_group_IT_number 129
_symmetry_cell_setting 'tetragonal'
loop_
_space_group_symop_operation_xyz
x,y,z
1/2-y,x,z
1/2-x,1/2-y,z
y,1/2-x,z
1/2+x,-y,-z
-x,1/2+y,-z
1/2+y,1/2+x,-z
-y,-x,-z
-x,-y,-z
1/2+y,-x,-z
1/2+x,1/2+y,-z
-y,1/2+x,-z
1/2-x,y,z
x,1/2-y,z
1/2-y,1/2-x,z
y,x,z
loop_
_atom_site_type_symbol
_atom_site_label
_atom_site_fract_x
_atom_site_fract_y
_atom_site_fract_z
Si Si1 0.912289 0.191019 0.167671
Si Si2 0.107069 0.190403 0.542711
Si Si3 0.043055 0.692181 0.235043
Si Si4 0.152092 0.807895 0.321404
Si Si5 0.444504 0.361058 0.865412
Si Si6 0.188028 0.476072 0.238628
O O1 0.905115 0.250000 0.225504
O O2 0.858032 0.164376 0.203602
O O3 0.964660 0.170191 0.259505
O O4 0.929007 0.191567 0.959168
O O5 0.120543 0.250000 0.527937
O O6 0.153564 0.153564 0.487090
O O7 0.091360 0.175676 0.744455
O O8 0.058583 0.180039 0.412490
O O9 0.019339 0.750000 0.258082
O O10 0.091160 0.688007 0.367644
O O11 0.000519 0.647808 0.225823
O O12 0.185122 0.814879 0.500000
O O13 0.160521 0.750000 0.245551
O O14 0.416817 0.416817 0.862400
O O15 0.451608 0.340066 0.066443
O O16 0.250000 0.477918 0.202409
#
# Coordination Sequence:
#
# PCOD9565317 Si02
#       6
#    16  16  16  16  16  16
#     4   9  18  34  55  78 102 138 181 223 272 323
#     4  10  20  32  51  79 111 149 188 232 287 342
#     4   9  19  36  56  76 103 142 188 227 270 333
#     4  11  23  35  52  79 111 145 177 220 276 337
#     4  10  19  33  56  82 109 138 180 238 286 326
#     4   9  18  33  55  81 109 144 189 233 276 331
#
# _framework density 19.117657000000001
#
# number of rings (size 3 to 8) (size 9 to 14) (size 15 to 20)
#    0.000    2.333    0.000    4.000    2.333    1.333 
#    0.000    0.833    0.000   15.500    0.000    2.333 
#    0.000    0.000    0.000    0.000    0.000    0.000 
#
# Total GULP energy -535107.270748 kJ/mol
# GULP energy per Si atom -5574.034070 kJ/mol
# Density = 1.907414 g / cm^3
# Si number density = 19.117657 Si / 1000 Ang^3
#
#
#
# Elastic Constant Matrix: (Units=GPa)
#
#
# Indices 1 2 3 4 5 6 
#
# 1 114.6473 75.1259 30.9136 0.0000 0.0000 0.0000
# 2 75.1259 114.6478 30.9140 0.0000 0.0000 0.0000
# 3 30.9136 30.9140 56.0961 0.0000 0.0000 0.0000
# 4 0.0000 0.0000 0.0000 25.9024 0.0000 0.0000
# 5 0.0000 0.0000 0.0000 0.0000 25.9021 0.0000
# 6 0.0000 0.0000 0.0000 0.0000 0.0000 37.7198
#
#
#
# Elastic Compliance Matrix: (Units=1/GPa)
#
#
# Indices 1 2 3 4 5 6 
#
# 1 0.015863 -0.009440 -0.003539 0.000000 0.000000 0.000000
# 2 -0.009440 0.015863 -0.003539 0.000000 0.000000 0.000000
# 3 -0.003539 -0.003539 0.021728 0.000000 0.000000 0.000000
# 4 0.000000 0.000000 0.000000 0.038606 0.000000 0.000000
# 5 0.000000 0.000000 0.000000 0.000000 0.038607 0.000000
# 6 0.000000 0.000000 0.000000 0.000000 0.000000 0.026511
#
#
# Mechanical properties :
#
#
# Convention : Reuss Voigt Hill
#
# Bulk Modulus (GPa) = 48.98321 62.14423 55.56372
# Shear Modulus (GPa) = 25.37813 27.80070 26.58941
#
# Velocity S-wave (km/s) = 3.64740 3.81752 3.73343
# Velocity P-wave (km/s) = 6.58905 7.21166 6.90738
#
# Compressibility (1/GPa) = 0.02041516
#
# Stress axis : x y z
#
# Youngs Moduli (GPa) = 63.04145 63.04148 46.02446
#
# Poissons Ratio (x) = 0.59511 0.16289
# Poissons Ratio (y) = 0.59511 0.16290
# Poissons Ratio (z) = 0.22312 0.22313
#
# Static dielectric constant tensor:
#      x y z
#    x 1.673310 0.000000 0.000000 
#    y 0.000000 1.673310 0.000000 
#    z 0.000000 0.000000 1.745140 
# 
# From -- ./inp_files/2659.got.cif
#   From: 2010.05.17/outbox.cif.g08.bks.cpg/sg129_2_cif.got.tgz:2659.got - 2010.05.20 12:12:06.
