data_PCOD9565684
_publ_section_title
;
Structure prediction by ZEFSAII (Michael W. Deem and Ramdas Pophale) SiO2 
 PCOD9565684
Probable space group: P 4/N C C
;
_chemical_formula_sum "Si O2"
_cell_formula_units_Z 56
_cell_length_a 13.169529
_cell_length_b 13.169529
_cell_length_c 13.744124
_cell_angle_alpha 90.000000
_cell_angle_beta 90.000000
_cell_angle_gamma 90.000000
_cell_volume 2383.732681
_symmetry_space_group_name_H-M "P 4/N C C"
_symmetry_group_IT_number 130
_symmetry_cell_setting 'tetragonal'
loop_
_space_group_symop_operation_xyz
x,y,z
1/2-y,x,z
1/2-x,1/2-y,z
y,1/2-x,z
1/2+x,-y,1/2-z
-x,1/2+y,1/2-z
1/2+y,1/2+x,1/2-z
-y,-x,1/2-z
-x,-y,-z
1/2+y,-x,-z
1/2+x,1/2+y,-z
-y,1/2+x,-z
1/2-x,y,1/2+z
x,1/2-y,1/2+z
1/2-y,1/2-x,1/2+z
y,x,1/2+z
loop_
_atom_site_type_symbol
_atom_site_label
_atom_site_fract_x
_atom_site_fract_y
_atom_site_fract_z
Si Si1 0.291658 0.493558 0.200959
Si Si2 0.602119 0.683223 0.969030
Si Si3 0.065173 0.493658 0.876753
Si Si4 0.105742 0.894259 0.750000
O O1 0.213480 0.417519 0.144634
O O2 0.391463 0.525180 0.139832
O O3 0.341229 0.466053 0.303869
O O4 0.219323 0.588604 0.216641
O O5 0.702129 0.622658 0.002085
O O6 0.516057 0.615940 0.017836
O O7 0.974920 0.422531 0.835614
#
# Coordination Sequence:
#
# PCOD9565684 Si02
#       4
#    16  16  16   8
#     4  10  22  40  62  88 121 168 213 256 321 383
#     4  11  23  39  64  96 127 165 212 260 317 385
#     4  10  23  40  62  94 130 163 209 277 325 371
#     4  10  20  39  64  85 124 172 212 262 322 389
#
# _framework density 23.492567000000001
#
# number of rings (size 3 to 8) (size 9 to 14) (size 15 to 20)
#    0.000    2.000    0.000    5.143    0.000    9.143 
#    0.000    2.857    0.000    0.000    0.000    0.000 
#    0.000    0.000    0.000    0.000    0.000    0.000 
#
# Total GULP energy -311941.907611 kJ/mol
# GULP energy per Si atom -5570.391207 kJ/mol
# Density = 2.343910 g / cm^3
# Si number density = 23.492567 Si / 1000 Ang^3
#
#
#
# Elastic Constant Matrix: (Units=GPa)
#
#
# Indices 1 2 3 4 5 6 
#
# 1 75.4642 17.4043 17.2747 0.0000 0.0000 0.0000
# 2 17.4043 75.4642 17.2746 0.0000 0.0000 0.0000
# 3 17.2747 17.2746 91.0700 0.0000 0.0000 0.0000
# 4 0.0000 0.0000 0.0000 41.2258 0.0000 0.0000
# 5 0.0000 0.0000 0.0000 0.0000 41.2257 0.0000
# 6 0.0000 0.0000 0.0000 0.0000 0.0000 30.4421
#
#
#
# Elastic Compliance Matrix: (Units=1/GPa)
#
#
# Indices 1 2 3 4 5 6 
#
# 1 0.014405 -0.002819 -0.002198 0.000000 0.000000 0.000000
# 2 -0.002819 0.014405 -0.002198 0.000000 0.000000 0.000000
# 3 -0.002198 -0.002198 0.011814 0.000000 0.000000 0.000000
# 4 0.000000 0.000000 0.000000 0.024257 0.000000 0.000000
# 5 0.000000 0.000000 0.000000 0.000000 0.024257 0.000000
# 6 0.000000 0.000000 0.000000 0.000000 0.000000 0.032849
#
#
# Mechanical properties :
#
#
# Convention : Reuss Voigt Hill
#
# Bulk Modulus (GPa) = 38.17547 38.43396 38.30472
# Shear Modulus (GPa) = 34.44804 35.24835 34.84820
#
# Velocity S-wave (km/s) = 3.83343 3.87771 3.85563
# Velocity P-wave (km/s) = 5.98990 6.03692 6.01346
#
# Compressibility (1/GPa) = 0.02619483
#
# Stress axis : x y z
#
# Youngs Moduli (GPa) = 69.42253 69.42262 84.64337
#
# Poissons Ratio (x) = 0.19571 0.18601
# Poissons Ratio (y) = 0.19571 0.18601
# Poissons Ratio (z) = 0.15256 0.15256
#
# Static dielectric constant tensor:
#      x y z
#    x 1.894980 0.000000 0.000000 
#    y 0.000000 1.894980 0.000000 
#    z 0.000000 0.000000 2.020670 
# 
# From -- ./inp_files/1430.got.cif
#   From: 2010.05.17/outbox.cif.g08.bks.cpg/sg130_1_cif.got.tgz:1430.got - 2010.05.20 12:17:35.
