data_PCOD9565518
_publ_section_title
;
Structure prediction by ZEFSAII (Michael W. Deem and Ramdas Pophale) SiO2 
 PCOD9565518
Probable space group: P 4/N M M
;
_chemical_formula_sum "Si O2"
_cell_formula_units_Z 112
_cell_length_a 14.671872
_cell_length_b 14.671872
_cell_length_c 31.851542
_cell_angle_alpha 90.000000
_cell_angle_beta 90.000000
_cell_angle_gamma 90.000000
_cell_volume 6856.484858
_symmetry_space_group_name_H-M "P 4/N M M"
_symmetry_group_IT_number 129
_symmetry_cell_setting 'tetragonal'
loop_
_space_group_symop_operation_xyz
x,y,z
1/2-y,x,z
1/2-x,1/2-y,z
y,1/2-x,z
1/2+x,-y,-z
-x,1/2+y,-z
1/2+y,1/2+x,-z
-y,-x,-z
-x,-y,-z
1/2+y,-x,-z
1/2+x,1/2+y,-z
-y,1/2+x,-z
1/2-x,y,z
x,1/2-y,z
1/2-y,1/2-x,z
y,x,z
loop_
_atom_site_type_symbol
_atom_site_label
_atom_site_fract_x
_atom_site_fract_y
_atom_site_fract_z
Si Si1 0.853383 0.999466 0.108312
Si Si2 0.860463 0.352355 0.693047
Si Si3 0.505450 0.144094 0.138131
Si Si4 0.496493 0.644667 0.761344
Si Si5 0.508284 0.142597 0.476541
Si Si6 0.500496 0.853027 0.007617
Si Si7 0.856014 0.495061 0.623249
O O1 0.750000 0.000331 0.124553
O O2 0.848502 0.989475 0.057975
O O3 0.909435 0.091105 0.118094
O O4 0.915643 0.915643 0.124458
O O5 0.750000 0.346889 0.692809
O O6 0.896597 0.250000 0.692702
O O7 0.885146 0.409156 0.734532
O O8 0.885889 0.410994 0.652242
O O9 0.498715 0.250000 0.126066
O O10 0.415043 0.084958 0.127869
O O11 0.517892 0.139558 0.188638
O O12 0.515795 0.750000 0.750885
O O13 0.580801 0.580801 0.750297
O O14 0.589957 0.089957 0.500000
O O15 0.501070 0.250000 0.487421
O O16 0.524743 0.136762 0.426355
O O17 0.415905 0.084096 0.485168
O O18 0.502192 0.750000 0.991005
O O19 0.582042 0.917959 0.991061
O O20 0.406710 0.906710 0.000000
O O21 0.750000 0.514274 0.632426
O O22 0.918722 0.581279 0.632784
#
# Coordination Sequence:
#
# PCOD9565518 Si02
#       7
#    16  16  16  16  16  16  16
#     4   9  18  32  49  69  92 118 150 189 231 272
#     4   9  17  28  41  59  85 115 145 176 210 251
#     4   9  18  31  46  66  92 121 153 188 226 270
#     4   9  17  29  45  65  89 116 146 181 220 263
#     4   9  18  31  46  66  91 118 150 188 229 273
#     4   9  18  32  49  69  93 120 150 186 227 270
#     4   9  17  29  45  65  89 115 143 178 220 266
#
# _framework density 16.334900000000001
#
# number of rings (size 3 to 8) (size 9 to 14) (size 15 to 20)
#    0.000    3.000    0.000    0.429    0.000    3.143 
#    0.000    8.571    0.000    2.571    0.000    4.000 
#    0.000    4.571    0.000    0.000    0.000    0.857 
#
# Total GULP energy -623712.920910 kJ/mol
# GULP energy per Si atom -5568.865365 kJ/mol
# Density = 1.629772 g / cm^3
# Si number density = 16.334900 Si / 1000 Ang^3
#
#
#
# Elastic Constant Matrix: (Units=GPa)
#
#
# Indices 1 2 3 4 5 6 
#
# 1 112.1924 52.5316 15.8623 0.0000 0.0000 0.0000
# 2 52.5316 112.1924 15.8623 0.0000 0.0000 0.0000
# 3 15.8623 15.8623 18.3020 0.0000 0.0000 0.0000
# 4 0.0000 0.0000 0.0000 22.0915 0.0000 0.0000
# 5 0.0000 0.0000 0.0000 0.0000 22.0915 0.0000
# 6 0.0000 0.0000 0.0000 0.0000 0.0000 12.6150
#
#
#
# Elastic Compliance Matrix: (Units=1/GPa)
#
#
# Indices 1 2 3 4 5 6 
#
# 1 0.012024 -0.004737 -0.006316 0.000000 0.000000 0.000000
# 2 -0.004737 0.012024 -0.006316 0.000000 0.000000 0.000000
# 3 -0.006316 -0.006316 0.065586 0.000000 0.000000 0.000000
# 4 0.000000 0.000000 0.000000 0.045266 0.000000 0.000000
# 5 0.000000 0.000000 0.000000 0.000000 0.045266 0.000000
# 6 0.000000 0.000000 0.000000 0.000000 0.000000 0.079271
#
#
# Mechanical properties :
#
#
# Convention : Reuss Voigt Hill
#
# Bulk Modulus (GPa) = 18.21570 45.68882 31.95226
# Shear Modulus (GPa) = 16.00130 21.92162 18.96146
#
# Velocity S-wave (km/s) = 3.13322 3.66732 3.41074
# Velocity P-wave (km/s) = 4.92595 6.77961 5.92571
#
# Compressibility (1/GPa) = 0.05489770
#
# Stress axis : x y z
#
# Youngs Moduli (GPa) = 83.16504 83.16504 15.24707
#
# Poissons Ratio (x) = 0.39397 0.09630
# Poissons Ratio (y) = 0.39397 0.09630
# Poissons Ratio (z) = 0.52525 0.52525
#
# Static dielectric constant tensor:
#      x y z
#    x 1.540650 0.000000 0.000000 
#    y 0.000000 1.540650 0.000000 
#    z 0.000000 0.000000 1.567340 
# 
# From -- ./inp_files/7875.got.cif
#   From: 2010.05.17/outbox.cif.g08.bks.cpg/sg129_4_cif.got.tgz:7875.got - 2010.05.20 12:12:06.
