data_PCOD9565772
_publ_section_title
;
Structure prediction by ZEFSAII (Michael W. Deem and Ramdas Pophale) SiO2 
 PCOD9565772
Probable space group: P 4/N C C
;
_chemical_formula_sum "Si O2"
_cell_formula_units_Z 88
_cell_length_a 15.025629
_cell_length_b 15.025629
_cell_length_c 21.653241
_cell_angle_alpha 90.000000
_cell_angle_beta 90.000000
_cell_angle_gamma 90.000000
_cell_volume 4888.641975
_symmetry_space_group_name_H-M "P 4/N C C"
_symmetry_group_IT_number 130
_symmetry_cell_setting 'tetragonal'
loop_
_space_group_symop_operation_xyz
x,y,z
1/2-y,x,z
1/2-x,1/2-y,z
y,1/2-x,z
1/2+x,-y,1/2-z
-x,1/2+y,1/2-z
1/2+y,1/2+x,1/2-z
-y,-x,1/2-z
-x,-y,-z
1/2+y,-x,-z
1/2+x,1/2+y,-z
-y,1/2+x,-z
1/2-x,y,1/2+z
x,1/2-y,1/2+z
1/2-y,1/2-x,1/2+z
y,x,1/2+z
loop_
_atom_site_type_symbol
_atom_site_label
_atom_site_fract_x
_atom_site_fract_y
_atom_site_fract_z
Si Si1 0.032045 0.291975 0.178578
Si Si2 0.071163 0.034711 0.863518
Si Si3 0.662162 0.872049 0.032912
Si Si4 0.564269 0.435732 0.750000
Si Si5 0.721528 0.893868 0.696396
Si Si6 0.374224 0.050465 0.102287
O O1 0.080926 0.236658 0.232705
O O2 0.091576 0.368468 0.146340
O O3 0.012523 0.219060 0.127071
O O4 0.952806 0.344536 0.213145
O O5 0.069851 0.109372 0.916876
O O6 0.173825 0.026642 0.840125
O O7 0.013094 0.055595 0.801788
O O8 0.026502 0.947406 0.892166
O O9 0.630563 0.769116 0.039863
O O10 0.638577 0.908655 0.965305
O O11 0.651287 0.815326 0.682124
#
# Coordination Sequence:
#
# PCOD9565772 Si02
#       6
#    16  16  16   8  16  16
#     4  11  20  36  60  89 122 169 203 257 310 375
#     4  11  22  38  55  91 126 163 203 250 316 380
#     4  11  23  39  61  95 127 157 202 262 315 372
#     4  10  22  38  56  91 128 161 210 248 310 378
#     4  11  19  31  57  89 119 152 194 255 319 363
#     4  11  22  38  60  85 128 167 211 248 309 378
#
# _framework density 18.000910000000001
#
# number of rings (size 3 to 8) (size 9 to 14) (size 15 to 20)
#    0.000    1.091    5.455    2.727    0.000    1.818 
#    0.000    0.000    0.000    2.182    0.000    0.000 
#    0.000    0.000    0.000    0.000    0.000    0.000 
#
# Total GULP energy -490239.996078 kJ/mol
# GULP energy per Si atom -5570.909046 kJ/mol
# Density = 1.795994 g / cm^3
# Si number density = 18.000910 Si / 1000 Ang^3
#
#
#
# Elastic Constant Matrix: (Units=GPa)
#
#
# Indices 1 2 3 4 5 6 
#
# 1 76.4895 66.2755 50.9482 0.0000 0.0000 0.0000
# 2 66.2755 76.4887 50.9483 0.0000 0.0000 0.0000
# 3 50.9482 50.9483 121.8642 0.0000 0.0000 0.0000
# 4 0.0000 0.0000 0.0000 37.9550 0.0000 0.0000
# 5 0.0000 0.0000 0.0000 0.0000 37.9549 0.0000
# 6 0.0000 0.0000 0.0000 0.0000 0.0000 33.9329
#
#
#
# Elastic Compliance Matrix: (Units=1/GPa)
#
#
# Indices 1 2 3 4 5 6 
#
# 1 0.053946 -0.043963 -0.004174 0.000000 0.000000 0.000000
# 2 -0.043963 0.053947 -0.004174 0.000000 0.000000 0.000000
# 3 -0.004174 -0.004174 0.011696 0.000000 0.000000 0.000000
# 4 0.000000 0.000000 0.000000 0.026347 0.000000 0.000000
# 5 0.000000 0.000000 0.000000 0.000000 0.026347 0.000000
# 6 0.000000 0.000000 0.000000 0.000000 0.000000 0.029470
#
#
# Mechanical properties :
#
#
# Convention : Reuss Voigt Hill
#
# Bulk Modulus (GPa) = 66.81141 67.90960 67.36051
# Shear Modulus (GPa) = 16.05847 29.07990 22.56919
#
# Velocity S-wave (km/s) = 2.99003 4.02365 3.54472
# Velocity P-wave (km/s) = 7.00832 7.70674 7.36581
#
# Compressibility (1/GPa) = 0.01496750
#
# Stress axis : x y z
#
# Youngs Moduli (GPa) = 18.53714 18.53685 85.50044
#
# Poissons Ratio (x) = 0.81493 0.35685
# Poissons Ratio (y) = 0.81494 0.35689
# Poissons Ratio (z) = 0.07737 0.07737
#
# Static dielectric constant tensor:
#      x y z
#    x 1.636380 0.000000 0.000000 
#    y 0.000000 1.636380 0.000000 
#    z 0.000000 0.000000 1.672790 
# 
# From -- ./inp_files/3677.got.cif
#   From: 2010.05.17/outbox.cif.g08.bks.cpg/sg130_2_cif.got.tgz:3677.got - 2010.05.20 12:17:35.
