data_PCOD9565889
_publ_section_title
;
Structure prediction by ZEFSAII (Michael W. Deem and Ramdas Pophale) SiO2 
 PCOD9565889
Probable space group: P 4/N C C
;
_chemical_formula_sum "Si O2"
_cell_formula_units_Z 72
_cell_length_a 16.711726
_cell_length_b 16.711726
_cell_length_c 9.383255
_cell_angle_alpha 90.000000
_cell_angle_beta 90.000000
_cell_angle_gamma 90.000000
_cell_volume 2620.572214
_symmetry_space_group_name_H-M "P 4/N C C"
_symmetry_group_IT_number 130
_symmetry_cell_setting 'tetragonal'
loop_
_space_group_symop_operation_xyz
x,y,z
1/2-y,x,z
1/2-x,1/2-y,z
y,1/2-x,z
1/2+x,-y,1/2-z
-x,1/2+y,1/2-z
1/2+y,1/2+x,1/2-z
-y,-x,1/2-z
-x,-y,-z
1/2+y,-x,-z
1/2+x,1/2+y,-z
-y,1/2+x,-z
1/2-x,y,1/2+z
x,1/2-y,1/2+z
1/2-y,1/2-x,1/2+z
y,x,1/2+z
loop_
_atom_site_type_symbol
_atom_site_label
_atom_site_fract_x
_atom_site_fract_y
_atom_site_fract_z
Si Si1 0.571476 0.605891 0.031912
Si Si2 0.179195 0.951564 0.995698
Si Si3 0.119606 0.235189 0.778694
Si Si4 0.936074 0.063927 0.750000
Si Si5 0.180939 0.962394 0.678013
O O1 0.602347 0.695820 0.064665
O O2 0.520239 0.578499 0.169352
O O3 0.643428 0.543429 0.014088
O O4 0.510632 0.609417 0.899395
O O5 0.124852 0.919876 0.122598
O O6 0.268083 0.927629 0.046402
O O7 0.165662 0.923220 0.832751
O O8 0.183654 0.166770 0.739390
O O9 0.031565 0.253769 0.724011
#
# Coordination Sequence:
#
# PCOD9565889 Si02
#       5
#    16  16  16   8  16
#     4  12  23  43  64  93 136 187 242 294 346 403
#     4  12  24  41  64  93 131 180 229 287 341 409
#     4  11  21  37  63  95 136 186 234 280 332 396
#     4  12  26  44  62  92 130 189 248 291 348 412
#     4  12  22  41  65  91 134 176 228 290 346 404
#
# _framework density 27.474914999999999
#
# number of rings (size 3 to 8) (size 9 to 14) (size 15 to 20)
#    0.000    0.222    6.667    3.333    0.000    0.889 
#    0.000    2.222    0.000    0.000    0.000    0.000 
#    0.000   42.667    0.000    0.889    0.000    0.000 
#
# Total GULP energy -401741.207554 kJ/mol
# GULP energy per Si atom -5579.738994 kJ/mol
# Density = 2.741238 g / cm^3
# Si number density = 27.474915 Si / 1000 Ang^3
#
#
#
# Elastic Constant Matrix: (Units=GPa)
#
#
# Indices 1 2 3 4 5 6 
#
# 1 60.4217 -4.4777 40.3071 0.0000 0.0000 0.0000
# 2 -4.4777 60.4219 40.3072 0.0000 0.0000 0.0000
# 3 40.3071 40.3072 238.3164 0.0000 0.0000 0.0000
# 4 0.0000 0.0000 0.0000 65.8005 0.0000 0.0000
# 5 0.0000 0.0000 0.0000 0.0000 65.8003 0.0000
# 6 0.0000 0.0000 0.0000 0.0000 0.0000 12.7053
#
#
#
# Elastic Compliance Matrix: (Units=1/GPa)
#
#
# Indices 1 2 3 4 5 6 
#
# 1 0.019522 0.004113 -0.003998 0.000000 0.000000 0.000000
# 2 0.004113 0.019522 -0.003998 0.000000 0.000000 0.000000
# 3 -0.003998 -0.003998 0.005548 0.000000 0.000000 0.000000
# 4 0.000000 0.000000 0.000000 0.015197 0.000000 0.000000
# 5 0.000000 0.000000 0.000000 0.000000 0.015198 0.000000
# 6 0.000000 0.000000 0.000000 0.000000 0.000000 0.078707
#
#
# Mechanical properties :
#
#
# Convention : Reuss Voigt Hill
#
# Bulk Modulus (GPa) = 27.15256 56.82589 41.98923
# Shear Modulus (GPa) = 28.77966 47.72945 38.25456
#
# Velocity S-wave (km/s) = 3.24000 4.17250 3.73546
# Velocity P-wave (km/s) = 4.88886 6.62878 5.82416
#
# Compressibility (1/GPa) = 0.03682894
#
# Stress axis : x y z
#
# Youngs Moduli (GPa) = 51.22448 51.22467 180.23467
#
# Poissons Ratio (x) = -0.21071 0.72049
# Poissons Ratio (y) = -0.21071 0.72049
# Poissons Ratio (z) = 0.20477 0.20477
#
# Static dielectric constant tensor:
#      x y z
#    x 2.229410 0.000000 0.000000 
#    y 0.000000 2.229410 0.000000 
#    z 0.000000 0.000000 2.315590 
# 
# From -- ./inp_files/776.got.cif
#   From: 2010.05.17/outbox.cif.g08.bks.cpg/sg130_1_cif.got.tgz:776.got - 2010.05.20 12:17:35.
