data_PCOD9565150
_publ_section_title
;
Structure prediction by ZEFSAII (Michael W. Deem and Ramdas Pophale) SiO2 
 PCOD9565150
Probable space group: P 4/N M M
;
_chemical_formula_sum "Si O2"
_cell_formula_units_Z 128
_cell_length_a 18.132245
_cell_length_b 18.132245
_cell_length_c 23.769134
_cell_angle_alpha 90.000000
_cell_angle_beta 90.000000
_cell_angle_gamma 90.000000
_cell_volume 7814.775677
_symmetry_space_group_name_H-M "P 4/N M M"
_symmetry_group_IT_number 129
_symmetry_cell_setting 'tetragonal'
loop_
_space_group_symop_operation_xyz
x,y,z
1/2-y,x,z
1/2-x,1/2-y,z
y,1/2-x,z
1/2+x,-y,-z
-x,1/2+y,-z
1/2+y,1/2+x,-z
-y,-x,-z
-x,-y,-z
1/2+y,-x,-z
1/2+x,1/2+y,-z
-y,1/2+x,-z
1/2-x,y,z
x,1/2-y,z
1/2-y,1/2-x,z
y,x,z
loop_
_atom_site_type_symbol
_atom_site_label
_atom_site_fract_x
_atom_site_fract_y
_atom_site_fract_z
Si Si1 0.835039 0.545880 0.786991
Si Si2 0.835719 0.541501 0.564617
Si Si3 0.457223 0.163260 0.560962
Si Si4 0.334917 0.046498 0.788155
Si Si5 0.952147 0.167450 0.322794
Si Si6 0.485561 0.894311 0.323208
Si Si7 0.059784 0.939880 0.860235
Si Si8 0.335874 0.835821 0.932317
O O1 0.750000 0.548180 0.805154
O O2 0.876582 0.623419 0.791905
O O3 0.836556 0.518002 0.722502
O O4 0.882611 0.487056 0.822504
O O5 0.750000 0.565557 0.565664
O O6 0.890872 0.609129 0.573765
O O7 0.850312 0.511008 0.501681
O O8 0.844982 0.483767 0.614778
O O9 0.447868 0.250000 0.568148
O O10 0.379600 0.120401 0.562130
O O11 0.502700 0.131972 0.613217
O O12 0.250000 0.046056 0.804889
O O13 0.375487 0.124514 0.797322
O O14 0.343639 0.026404 0.722195
O O15 0.383682 0.986429 0.821590
O O16 0.920512 0.250000 0.319008
O O17 0.898731 0.100258 0.309461
O O18 0.525454 0.974547 0.317440
O O19 0.107725 0.892606 0.904012
O O20 0.999961 0.999961 0.882982
O O21 0.250000 0.850977 0.916766
O O22 0.351490 0.750000 0.916718
O O23 0.340637 0.840637 0.000000
#
# Coordination Sequence:
#
# PCOD9565150 Si02
#       8
#    16  16  16  16  16  16  16  16
#     4  10  19  31  48  70  97 130 166 204 247 292
#     4   9  17  28  42  63  88 114 148 188 235 290
#     4   9  18  30  45  66  89 116 149 188 236 289
#     4  10  20  33  51  74  99 129 162 198 243 291
#     4  10  19  31  47  64  89 120 153 197 242 287
#     4  10  18  31  49  66  90 120 154 195 240 288
#     4  10  19  32  51  75 103 136 171 204 240 286
#     4   9  18  33  53  77 106 138 169 206 251 289
#
# _framework density 16.379228999999999
#
# number of rings (size 3 to 8) (size 9 to 14) (size 15 to 20)
#    0.000    2.375    1.250    2.625    0.000    1.250 
#    0.000    3.125    0.000    6.750    0.000    0.000 
#    0.000    6.000    0.000   23.250    0.000    0.000 
#
# Total GULP energy -713167.826443 kJ/mol
# GULP energy per Si atom -5571.623644 kJ/mol
# Density = 1.634195 g / cm^3
# Si number density = 16.379229 Si / 1000 Ang^3
#
#
#
# Elastic Constant Matrix: (Units=GPa)
#
#
# Indices 1 2 3 4 5 6 
#
# 1 96.0718 49.2361 26.8176 0.0000 0.0000 0.0000
# 2 49.2361 96.0718 26.8176 0.0000 0.0000 0.0000
# 3 26.8176 26.8176 48.7179 0.0000 0.0000 0.0000
# 4 0.0000 0.0000 0.0000 21.7597 0.0000 0.0000
# 5 0.0000 0.0000 0.0000 0.0000 21.7597 0.0000
# 6 0.0000 0.0000 0.0000 0.0000 0.0000 16.9317
#
#
#
# Elastic Compliance Matrix: (Units=1/GPa)
#
#
# Indices 1 2 3 4 5 6 
#
# 1 0.014994 -0.006357 -0.004754 0.000000 0.000000 0.000000
# 2 -0.006357 0.014994 -0.004754 0.000000 0.000000 0.000000
# 3 -0.004754 -0.004754 0.025760 0.000000 0.000000 0.000000
# 4 0.000000 0.000000 0.000000 0.045956 0.000000 0.000000
# 5 0.000000 0.000000 0.000000 0.000000 0.045956 0.000000
# 6 0.000000 0.000000 0.000000 0.000000 0.000000 0.059061
#
#
# Mechanical properties :
#
#
# Convention : Reuss Voigt Hill
#
# Bulk Modulus (GPa) = 41.63717 49.62267 45.62992
# Shear Modulus (GPa) = 20.28731 21.28958 20.78845
#
# Velocity S-wave (km/s) = 3.52319 3.60917 3.56644
# Velocity P-wave (km/s) = 6.48278 6.90869 6.69912
#
# Compressibility (1/GPa) = 0.02401700
#
# Stress axis : x y z
#
# Youngs Moduli (GPa) = 66.69328 66.69328 38.81916
#
# Poissons Ratio (x) = 0.42398 0.18456
# Poissons Ratio (y) = 0.42398 0.18456
# Poissons Ratio (z) = 0.31708 0.31708
#
# Static dielectric constant tensor:
#      x y z
#    x 1.544390 0.000000 0.000000 
#    y 0.000000 1.544390 0.000000 
#    z 0.000000 0.000000 1.555710 
# 
# From -- ./inp_files/7307.got.cif
#   From: 2010.05.17/outbox.cif.g08.bks.cpg/sg129_4_cif.got.tgz:7307.got - 2010.05.20 12:12:06.
