data_PCOD9565335
_publ_section_title
;
Structure prediction by ZEFSAII (Michael W. Deem and Ramdas Pophale) SiO2 
 PCOD9565335
Probable space group: P 4/N M M
;
_chemical_formula_sum "Si O2"
_cell_formula_units_Z 64
_cell_length_a 14.018647
_cell_length_b 14.018647
_cell_length_c 20.626199
_cell_angle_alpha 90.000000
_cell_angle_beta 90.000000
_cell_angle_gamma 90.000000
_cell_volume 4053.511444
_symmetry_space_group_name_H-M "P 4/N M M"
_symmetry_group_IT_number 129
_symmetry_cell_setting 'tetragonal'
loop_
_space_group_symop_operation_xyz
x,y,z
1/2-y,x,z
1/2-x,1/2-y,z
y,1/2-x,z
1/2+x,-y,-z
-x,1/2+y,-z
1/2+y,1/2+x,-z
-y,-x,-z
-x,-y,-z
1/2+y,-x,-z
1/2+x,1/2+y,-z
-y,1/2+x,-z
1/2-x,y,z
x,1/2-y,z
1/2-y,1/2-x,z
y,x,z
loop_
_atom_site_type_symbol
_atom_site_label
_atom_site_fract_x
_atom_site_fract_y
_atom_site_fract_z
Si Si1 0.862033 0.480403 0.699333
Si Si2 0.134220 0.640533 0.928295
Si Si3 0.520216 0.363890 0.801648
Si Si4 0.018202 0.860536 0.547329
O O1 0.750000 0.491105 0.713959
O O2 0.911437 0.401467 0.744271
O O3 0.871428 0.455275 0.623171
O O4 0.922041 0.577960 0.709525
O O5 0.250000 0.644131 0.930295
O O6 0.101202 0.750000 0.917981
O O7 0.108727 0.572641 0.869008
O O8 0.105544 0.605544 0.000000
O O9 0.508552 0.250000 0.799321
O O10 0.421543 0.421543 0.796773
O O11 0.098509 0.901492 0.500000
O O12 0.999760 0.750000 0.534990
O O13 0.924418 0.924418 0.536332
#
# Coordination Sequence:
#
# PCOD9565335 Si02
#       4
#    16  16  16  16
#     4   9  18  32  50  72  95 119 148 184 229 278
#     4   8  14  26  45  68  91 113 141 182 230 276
#     4  10  20  32  46  65  90 122 159 195 229 266
#     4   9  18  32  49  70  96 123 152 187 225 268
#
# _framework density 15.788779
#
# number of rings (size 3 to 8) (size 9 to 14) (size 15 to 20)
#    0.000    3.000    0.000    1.500    0.000    4.000 
#    0.000    5.000    0.000    0.000    0.000    7.000 
#    0.000    6.000    0.000    0.000    0.000    0.000 
#
# Total GULP energy -356407.739209 kJ/mol
# GULP energy per Si atom -5568.870925 kJ/mol
# Density = 1.575284 g / cm^3
# Si number density = 15.788779 Si / 1000 Ang^3
#
#
#
# Elastic Constant Matrix: (Units=GPa)
#
#
# Indices 1 2 3 4 5 6 
#
# 1 95.3737 44.7816 57.1765 0.0000 0.0000 0.0000
# 2 44.7816 95.3732 57.1760 0.0000 0.0000 0.0000
# 3 57.1765 57.1760 77.4874 0.0000 0.0000 0.0000
# 4 0.0000 0.0000 0.0000 23.1723 0.0000 0.0000
# 5 0.0000 0.0000 0.0000 0.0000 23.1724 0.0000
# 6 0.0000 0.0000 0.0000 0.0000 0.0000 6.7614
#
#
#
# Elastic Compliance Matrix: (Units=1/GPa)
#
#
# Indices 1 2 3 4 5 6 
#
# 1 0.018847 -0.000919 -0.013229 0.000000 0.000000 0.000000
# 2 -0.000919 0.018847 -0.013229 0.000000 0.000000 0.000000
# 3 -0.013229 -0.013229 0.032428 0.000000 0.000000 0.000000
# 4 0.000000 0.000000 0.000000 0.043155 0.000000 0.000000
# 5 0.000000 0.000000 0.000000 0.000000 0.043155 0.000000
# 6 0.000000 0.000000 0.000000 0.000000 0.000000 0.147898
#
#
# Mechanical properties :
#
#
# Convention : Reuss Voigt Hill
#
# Bulk Modulus (GPa) = 65.06604 65.16693 65.11648
# Shear Modulus (GPa) = 13.72845 17.89458 15.81151
#
# Velocity S-wave (km/s) = 2.95194 3.37021 3.16799
# Velocity P-wave (km/s) = 7.27450 7.51720 7.39684
#
# Compressibility (1/GPa) = 0.01536900
#
# Stress axis : x y z
#
# Youngs Moduli (GPa) = 53.05784 53.05814 30.83731
#
# Poissons Ratio (x) = 0.04875 0.40795
# Poissons Ratio (y) = 0.04875 0.40795
# Poissons Ratio (z) = 0.70191 0.70191
#
# Static dielectric constant tensor:
#      x y z
#    x 1.506790 0.000000 0.000000 
#    y 0.000000 1.506790 0.000000 
#    z 0.000000 0.000000 1.544520 
# 
# From -- ./inp_files/4455.got.cif
#   From: 2010.05.17/outbox.cif.g08.bks.cpg/sg129_3_cif.got.tgz:4455.got - 2010.05.20 12:12:06.
