data_PCOD9565116
_publ_section_title
;
Structure prediction by ZEFSAII (Michael W. Deem and Ramdas Pophale) SiO2 
 PCOD9565116
Probable space group: P 4/N M M
;
_chemical_formula_sum "Si O2"
_cell_formula_units_Z 128
_cell_length_a 18.743961
_cell_length_b 18.743961
_cell_length_c 23.740248
_cell_angle_alpha 90.000000
_cell_angle_beta 90.000000
_cell_angle_gamma 90.000000
_cell_volume 8340.805527
_symmetry_space_group_name_H-M "P 4/N M M"
_symmetry_group_IT_number 129
_symmetry_cell_setting 'tetragonal'
loop_
_space_group_symop_operation_xyz
x,y,z
1/2-y,x,z
1/2-x,1/2-y,z
y,1/2-x,z
1/2+x,-y,-z
-x,1/2+y,-z
1/2+y,1/2+x,-z
-y,-x,-z
-x,-y,-z
1/2+y,-x,-z
1/2+x,1/2+y,-z
-y,1/2+x,-z
1/2-x,y,z
x,1/2-y,z
1/2-y,1/2-x,z
y,x,z
loop_
_atom_site_type_symbol
_atom_site_label
_atom_site_fract_x
_atom_site_fract_y
_atom_site_fract_z
Si Si1 0.666163 0.092571 0.551549
Si Si2 0.044742 0.163682 0.857603
Si Si3 0.550398 0.430055 0.935467
Si Si4 0.334224 0.924317 0.772124
Si Si5 0.166692 0.571395 0.158041
Si Si6 0.951972 0.666903 0.747376
Si Si7 0.664207 0.169536 0.328885
Si Si8 0.450990 0.333287 0.382360
O O1 0.619364 0.119364 0.500000
O O2 0.750000 0.095582 0.535721
O O3 0.657626 0.141395 0.607020
O O4 0.649522 0.013584 0.574070
O O5 0.053891 0.250000 0.858605
O O6 0.117956 0.117956 0.858258
O O7 0.995676 0.135883 0.909799
O O8 0.997605 0.141446 0.802190
O O9 0.497335 0.497335 0.930939
O O10 0.618191 0.442384 0.895838
O O11 0.574839 0.425162 0.000000
O O12 0.250000 0.931868 0.767572
O O13 0.355176 0.861446 0.815109
O O14 0.360695 0.893957 0.712261
O O15 0.250000 0.572404 0.145811
O O16 0.152343 0.512404 0.206430
O O17 0.931124 0.750000 0.753000
O O18 0.885748 0.614253 0.755978
O O19 0.976900 0.657304 0.682498
O O20 0.750000 0.171666 0.325478
O O21 0.637839 0.250000 0.312180
O O22 0.432819 0.250000 0.388535
O O23 0.383569 0.383569 0.390319
#
# Coordination Sequence:
#
# PCOD9565116 Si02
#       8
#    16  16  16  16  16  16  16  16
#     4  10  19  30  44  64  92 122 151 184 222 266
#     4   9  18  32  50  71  93 118 150 191 237 281
#     4   9  18  32  47  63  87 120 155 188 223 265
#     4   9  17  29  44  63  89 117 145 178 217 265
#     4  10  18  27  43  66  89 114 145 181 221 265
#     4   9  17  29  45  66  91 117 146 180 219 263
#     4   9  16  26  42  63  88 121 155 181 210 256
#     4   9  18  31  46  64  86 113 145 182 222 263
#
# _framework density 15.346239000000001
#
# number of rings (size 3 to 8) (size 9 to 14) (size 15 to 20)
#    0.000    2.750    0.000    1.875    0.000    5.000 
#    0.000    1.875    0.000    0.000    0.000    1.750 
#    0.000    3.000    0.000    6.500    0.000    0.625 
#
# Total GULP energy -712542.486622 kJ/mol
# GULP energy per Si atom -5566.738177 kJ/mol
# Density = 1.531131 g / cm^3
# Si number density = 15.346239 Si / 1000 Ang^3
#
#
#
# Elastic Constant Matrix: (Units=GPa)
#
#
# Indices 1 2 3 4 5 6 
#
# 1 60.6973 39.1217 33.7879 0.0000 0.0000 0.0000
# 2 39.1217 60.6973 33.7879 0.0000 0.0000 0.0000
# 3 33.7879 33.7879 76.8599 0.0000 0.0000 0.0000
# 4 0.0000 0.0000 0.0000 21.7323 0.0000 0.0000
# 5 0.0000 0.0000 0.0000 0.0000 21.7323 0.0000
# 6 0.0000 0.0000 0.0000 0.0000 0.0000 18.0146
#
#
#
# Elastic Compliance Matrix: (Units=1/GPa)
#
#
# Indices 1 2 3 4 5 6 
#
# 1 0.030306 -0.016043 -0.006270 0.000000 0.000000 0.000000
# 2 -0.016043 0.030306 -0.006270 0.000000 0.000000 0.000000
# 3 -0.006270 -0.006270 0.018523 0.000000 0.000000 0.000000
# 4 0.000000 0.000000 0.000000 0.046015 0.000000 0.000000
# 5 0.000000 0.000000 0.000000 0.000000 0.046014 0.000000
# 6 0.000000 0.000000 0.000000 0.000000 0.000000 0.055511
#
#
# Mechanical properties :
#
#
# Convention : Reuss Voigt Hill
#
# Bulk Modulus (GPa) = 45.51873 45.73884 45.62878
# Shear Modulus (GPa) = 17.17251 18.39963 17.78607
#
# Velocity S-wave (km/s) = 3.34878 3.46637 3.40808
# Velocity P-wave (km/s) = 6.68416 6.77423 6.72935
#
# Compressibility (1/GPa) = 0.02196898
#
# Stress axis : x y z
#
# Youngs Moduli (GPa) = 32.99706 32.99708 53.98607
#
# Poissons Ratio (x) = 0.52937 0.33849
# Poissons Ratio (y) = 0.52937 0.33849
# Poissons Ratio (z) = 0.20689 0.20689
#
# Static dielectric constant tensor:
#      x y z
#    x 1.511770 0.000000 0.000000 
#    y 0.000000 1.511770 0.000000 
#    z 0.000000 0.000000 1.511650 
# 
# From -- ./inp_files/7276.got.cif
#   From: 2010.05.17/outbox.cif.g08.bks.cpg/sg129_4_cif.got.tgz:7276.got - 2010.05.20 12:12:06.
