data_PCOD9565410
_publ_section_title
;
Structure prediction by ZEFSAII (Michael W. Deem and Ramdas Pophale) SiO2 
 PCOD9565410
Probable space group: P 4/N M M
;
_chemical_formula_sum "Si O2"
_cell_formula_units_Z 64
_cell_length_a 19.191810
_cell_length_b 19.191810
_cell_length_c 9.974980
_cell_angle_alpha 90.000000
_cell_angle_beta 90.000000
_cell_angle_gamma 90.000000
_cell_volume 3674.040205
_symmetry_space_group_name_H-M "P 4/N M M"
_symmetry_group_IT_number 129
_symmetry_cell_setting 'tetragonal'
loop_
_space_group_symop_operation_xyz
x,y,z
1/2-y,x,z
1/2-x,1/2-y,z
y,1/2-x,z
1/2+x,-y,-z
-x,1/2+y,-z
1/2+y,1/2+x,-z
-y,-x,-z
-x,-y,-z
1/2+y,-x,-z
1/2+x,1/2+y,-z
-y,1/2+x,-z
1/2-x,y,z
x,1/2-y,z
1/2-y,1/2-x,z
y,x,z
loop_
_atom_site_type_symbol
_atom_site_label
_atom_site_fract_x
_atom_site_fract_y
_atom_site_fract_z
Si Si1 0.061975 0.173599 0.344185
Si Si2 0.330322 0.936853 0.550997
Si Si3 0.330590 0.519994 0.081870
Si Si4 0.970932 0.089063 0.817898
O O1 0.091822 0.250000 0.371528
O O2 0.113290 0.113290 0.384712
O O3 0.991076 0.167573 0.428183
O O4 0.043225 0.168796 0.187317
O O5 0.366761 0.866761 0.500000
O O6 0.250000 0.926527 0.590279
O O7 0.374319 0.968082 0.674250
O O8 0.250000 0.546003 0.078933
O O9 0.391239 0.569953 0.141413
O O10 0.358356 0.502721 0.933596
O O11 0.020029 0.020029 0.818221
#
# Coordination Sequence:
#
# PCOD9565410 Si02
#       4
#    16  16  16  16
#     4  10  20  35  55  80 110 143 181 226 276 329
#     4  11  23  37  55  80 111 148 186 230 279 329
#     4  10  20  34  53  81 113 140 177 226 275 328
#     4  11  21  35  59  82 107 146 190 230 276 326
#
# _framework density 17.419515000000001
#
# number of rings (size 3 to 8) (size 9 to 14) (size 15 to 20)
#    0.000    1.500    2.500    4.500    0.000    1.500 
#    0.000    0.000    0.000   12.000    0.000    0.000 
#    0.000   22.000    0.000    0.000    0.000    0.000 
#
# Total GULP energy -356715.381522 kJ/mol
# GULP energy per Si atom -5573.677836 kJ/mol
# Density = 1.737987 g / cm^3
# Si number density = 17.419515 Si / 1000 Ang^3
#
#
#
# Elastic Constant Matrix: (Units=GPa)
#
#
# Indices 1 2 3 4 5 6 
#
# 1 89.6890 61.8935 21.1308 0.0000 0.0000 0.0000
# 2 61.8935 89.6890 21.1308 0.0000 0.0000 0.0000
# 3 21.1308 21.1308 86.3220 0.0000 0.0000 0.0000
# 4 0.0000 0.0000 0.0000 22.3412 0.0000 0.0000
# 5 0.0000 0.0000 0.0000 0.0000 22.3412 0.0000
# 6 0.0000 0.0000 0.0000 0.0000 0.0000 8.2346
#
#
#
# Elastic Compliance Matrix: (Units=1/GPa)
#
#
# Indices 1 2 3 4 5 6 
#
# 1 0.021529 -0.014448 -0.001733 0.000000 0.000000 0.000000
# 2 -0.014448 0.021529 -0.001733 0.000000 0.000000 0.000000
# 3 -0.001733 -0.001733 0.012433 0.000000 0.000000 0.000000
# 4 0.000000 0.000000 0.000000 0.044760 0.000000 0.000000
# 5 0.000000 0.000000 0.000000 0.000000 0.044760 0.000000
# 6 0.000000 0.000000 0.000000 0.000000 0.000000 0.121438
#
#
# Mechanical properties :
#
#
# Convention : Reuss Voigt Hill
#
# Bulk Modulus (GPa) = 50.86240 52.66781 51.76510
# Shear Modulus (GPa) = 16.18999 21.35305 18.77152
#
# Velocity S-wave (km/s) = 3.05194 3.50496 3.28627
# Velocity P-wave (km/s) = 6.45608 6.83229 6.64685
#
# Compressibility (1/GPa) = 0.01966089
#
# Stress axis : x y z
#
# Youngs Moduli (GPa) = 46.44974 46.44974 80.43066
#
# Poissons Ratio (x) = 0.67112 0.13940
# Poissons Ratio (y) = 0.67112 0.13940
# Poissons Ratio (z) = 0.08051 0.08051
#
# Static dielectric constant tensor:
#      x y z
#    x 1.590750 0.000000 0.000000 
#    y 0.000000 1.590750 0.000000 
#    z 0.000000 0.000000 1.606930 
# 
# From -- ./inp_files/3415.got.cif
#   From: 2010.05.17/outbox.cif.g08.bks.cpg/sg129_2_cif.got.tgz:3415.got - 2010.05.20 12:12:06.
