data_PCOD9565097
_publ_section_title
;
Structure prediction by ZEFSAII (Michael W. Deem and Ramdas Pophale) SiO2 
 PCOD9565097
Probable space group: P 4/M N C
;
_chemical_formula_sum "Si O2"
_cell_formula_units_Z 60
_cell_length_a 12.000000
_cell_length_b 12.000000
_cell_length_c 21.000000
_cell_angle_alpha 90.000000
_cell_angle_beta 90.000000
_cell_angle_gamma 90.000000
_cell_volume 3024.000000
_symmetry_space_group_name_H-M "P 4/M N C"
_symmetry_group_IT_number 128
_symmetry_cell_setting 'tetragonal'
loop_
_space_group_symop_operation_xyz
x,y,z
-y,x,z
-x,-y,z
y,-x,z
1/2+x,1/2-y,1/2-z
1/2-x,1/2+y,1/2-z
1/2+y,1/2+x,1/2-z
1/2-y,1/2-x,1/2-z
-x,-y,-z
y,-x,-z
x,y,-z
-y,x,-z
1/2-x,1/2+y,1/2+z
1/2+x,1/2-y,1/2+z
1/2-y,1/2-x,1/2+z
1/2+y,1/2+x,1/2+z
loop_
_atom_site_type_symbol
_atom_site_label
_atom_site_fract_x
_atom_site_fract_y
_atom_site_fract_z
Si Si1 0.698609 0.178060 0.617837
Si Si2 0.000000 0.000000 0.171410
Si Si3 0.700586 0.925224 0.655383
Si Si4 0.830158 0.098703 0.000000
Si Si5 0.494209 0.238291 0.302119
O O1 0.827225 0.217087 0.629120
O O2 0.643232 0.254512 0.560388
O O3 0.620212 0.206376 0.678597
O O4 0.694627 0.040960 0.614270
O O5 0.027238 0.864025 0.173720
O O6 0.584890 0.855975 0.664964
O O7 0.735751 0.965847 0.726659
O O8 0.960692 0.148593 0.000000
#
# Coordination Sequence:
#
# PCOD9565097 Si02
#       5
#    16   4  16   8  16
#     4  12  25  46  68 103 148 193 248 308 368 446
#     4  12  20  36  72  97 144 189 228 300 364 450
#     4  11  25  42  69 106 146 192 242 306 382 449
#     4  11  28  50  78 107 142 199 265 319 372 448
#     4  11  23  40  68 106 145 190 240 305 383 445
#
# _framework density 19.841270000000002
#
# number of rings (size 3 to 8) (size 9 to 14) (size 15 to 20)
#    0.000    0.667    2.667    4.800    3.733    3.733 
#    0.000    4.000    0.000    1.600    0.000    0.000 
#    0.000    0.000    0.000    0.000    0.000    0.000 
#
# Total GULP energy -334065.448589 kJ/mol
# GULP energy per Si atom -5567.757476 kJ/mol
# Density = 1.979611 g / cm^3
# Si number density = 19.841270 Si / 1000 Ang^3
#
#
#
# Elastic Constant Matrix: (Units=GPa)
#
#
# Indices 1 2 3 4 5 6 
#
# 1 199.6322 51.1291 44.0431 0.0000 0.0000 0.0000
# 2 51.1291 199.6322 44.0431 0.0000 0.0000 0.0000
# 3 44.0431 44.0431 92.5766 0.0000 0.0000 0.0000
# 4 0.0000 0.0000 0.0000 32.4812 0.0000 0.0000
# 5 0.0000 0.0000 0.0000 0.0000 32.4812 0.0000
# 6 0.0000 0.0000 0.0000 0.0000 0.0000 49.9693
#
#
#
# Elastic Compliance Matrix: (Units=1/GPa)
#
#
# Indices 1 2 3 4 5 6 
#
# 1 0.005761 -0.000973 -0.002278 0.000000 0.000000 0.000000
# 2 -0.000973 0.005761 -0.002278 0.000000 0.000000 0.000000
# 3 -0.002278 -0.002278 0.012969 0.000000 0.000000 0.000000
# 4 0.000000 0.000000 0.000000 0.030787 0.000000 0.000000
# 5 0.000000 0.000000 0.000000 0.000000 0.030787 0.000000
# 6 0.000000 0.000000 0.000000 0.000000 0.000000 0.020012
#
#
# Mechanical properties :
#
#
# Convention : Reuss Voigt Hill
#
# Bulk Modulus (GPa) = 74.43936 85.58571 80.01253
# Shear Modulus (GPa) = 41.11406 46.49471 43.80438
#
# Velocity S-wave (km/s) = 4.55702 4.84605 4.70376
# Velocity P-wave (km/s) = 8.08007 8.63372 8.36148
#
# Compressibility (1/GPa) = 0.01343375
#
# Stress axis : x y z
#
# Youngs Moduli (GPa) = 173.58269 173.58269 77.10536
#
# Poissons Ratio (x) = 0.16888 0.17564
# Poissons Ratio (y) = 0.16888 0.17564
# Poissons Ratio (z) = 0.39540 0.39540
#
# Static dielectric constant tensor:
#      x y z
#    x 1.723530 0.000000 0.000000 
#    y 0.000000 1.723530 0.000000 
#    z 0.000000 0.000000 1.755230 
# 
# From -- ./inp_files/5454.got.cif
#   From: 2010.05.17/outbox.ucp.g08.bks.cvg/sg128_3_cif.got.tgz:5454.got - 2010.06.11 11:37:33.
