data_PCOD9565557
_publ_section_title
;
Structure prediction by ZEFSAII (Michael W. Deem and Ramdas Pophale) SiO2 
 PCOD9565557
Probable space group: P 4/N C C
;
_chemical_formula_sum "Si O2"
_cell_formula_units_Z 120
_cell_length_a 20.205524
_cell_length_b 20.205524
_cell_length_c 15.302368
_cell_angle_alpha 90.000000
_cell_angle_beta 90.000000
_cell_angle_gamma 90.000000
_cell_volume 6247.393729
_symmetry_space_group_name_H-M "P 4/N C C"
_symmetry_group_IT_number 130
_symmetry_cell_setting 'tetragonal'
loop_
_space_group_symop_operation_xyz
x,y,z
1/2-y,x,z
1/2-x,1/2-y,z
y,1/2-x,z
1/2+x,-y,1/2-z
-x,1/2+y,1/2-z
1/2+y,1/2+x,1/2-z
-y,-x,1/2-z
-x,-y,-z
1/2+y,-x,-z
1/2+x,1/2+y,-z
-y,1/2+x,-z
1/2-x,y,1/2+z
x,1/2-y,1/2+z
1/2-y,1/2-x,1/2+z
y,x,1/2+z
loop_
_atom_site_type_symbol
_atom_site_label
_atom_site_fract_x
_atom_site_fract_y
_atom_site_fract_z
Si Si1 0.532022 0.582422 0.741763
Si Si2 0.029006 0.623036 0.697230
Si Si3 0.509392 0.603939 0.548662
Si Si4 0.300160 0.588353 0.051298
Si Si5 0.999590 0.907777 0.001271
Si Si6 0.331459 0.668542 0.750000
Si Si7 0.962382 0.182856 0.139272
Si Si8 0.625153 0.218059 0.378224
O O1 0.473639 0.526361 0.750000
O O2 0.600358 0.539652 0.744122
O O3 0.526013 0.618735 0.648029
O O4 0.517899 0.641263 0.809660
O O5 0.086795 0.586795 0.750000
O O6 0.020113 0.589550 0.601975
O O7 0.056519 0.695185 0.669549
O O8 0.465249 0.653675 0.495112
O O9 0.462281 0.539271 0.552909
O O10 0.574441 0.577515 0.499415
O O11 0.260462 0.548663 0.126258
O O12 0.336002 0.650855 0.096271
O O13 0.256979 0.616122 0.969696
O O14 0.024176 0.840521 0.959693
O O15 0.392926 0.661782 0.817106
O O16 0.338146 0.734138 0.691001
#
# Coordination Sequence:
#
# PCOD9565557 Si02
#       8
#    16  16  16  16  16   8  16  16
#     4  10  19  35  63  84 107 142 200 261 325 367
#     4  10  22  38  56  86 109 143 206 265 311 355
#     4  10  19  34  58  85 109 147 198 258 310 358
#     4  12  25  40  59  83 120 168 221 250 288 365
#     4  10  18  36  60  80 106 147 199 252 319 358
#     4  12  28  41  56  78 124 174 218 251 294 354
#     4  12  22  39  59  81 111 160 206 250 306 368
#     4  12  26  43  54  80 123 175 222 254 287 351
#
# _framework density 19.208009000000001
#
# number of rings (size 3 to 8) (size 9 to 14) (size 15 to 20)
#    0.000    1.067    4.667    2.400    3.733    2.400 
#    0.000    0.000    0.000    0.000    0.000    0.000 
#    0.000    0.533    0.000    3.467    0.533    0.000 
#
# Total GULP energy -668576.411257 kJ/mol
# GULP energy per Si atom -5571.470094 kJ/mol
# Density = 1.916429 g / cm^3
# Si number density = 19.208009 Si / 1000 Ang^3
#
#
#
# Elastic Constant Matrix: (Units=GPa)
#
#
# Indices 1 2 3 4 5 6 
#
# 1 54.3360 55.3793 36.9633 0.0000 0.0000 0.0000
# 2 55.3793 54.3357 36.9634 0.0000 0.0000 0.0000
# 3 36.9633 36.9634 91.8509 0.0000 0.0000 0.0000
# 4 0.0000 0.0000 0.0000 33.2933 0.0000 0.0000
# 5 0.0000 0.0000 0.0000 0.0000 33.2935 0.0000
# 6 0.0000 0.0000 0.0000 0.0000 0.0000 34.9113
#
#
#
# Elastic Compliance Matrix: (Units=1/GPa)
#
#
# Indices 1 2 3 4 5 6 
#
# 1 -0.472905 0.485412 -0.005034 0.000000 0.000000 0.000000
# 2 0.485412 -0.472908 -0.005032 0.000000 0.000000 0.000000
# 3 -0.005034 -0.005032 0.014938 0.000000 0.000000 0.000000
# 4 0.000000 0.000000 0.000000 0.030036 0.000000 0.000000
# 5 0.000000 0.000000 0.000000 0.000000 0.030036 0.000000
# 6 0.000000 0.000000 0.000000 0.000000 0.000000 0.028644
#
#
# Mechanical properties :
#
#
# Convention : Reuss Voigt Hill
#
# Bulk Modulus (GPa) = 50.45810 51.01498 50.73654
# Shear Modulus (GPa) = -2.79916 25.04737 11.12410
#
# Velocity S-wave (km/s) = -1.20849 3.61502 2.40914
# Velocity P-wave (km/s) = 4.93752 6.63637 5.84895
#
# Compressibility (1/GPa) = 0.01981842
#
# Stress axis : x y z
#
# Youngs Moduli (GPa) = -2.11459 -2.11457 66.94480
#
# Poissons Ratio (x) = 1.02644 0.33697
# Poissons Ratio (y) = 1.02645 0.33683
# Poissons Ratio (z) = -0.01064 -0.01064
#
# Static dielectric constant tensor:
#      x y z
#    x 1.742940 0.000000 0.000000 
#    y 0.000000 1.742940 0.000000 
#    z 0.000000 0.000000 1.740100 
# 
# From -- ./inp_files/2567.got.cif
#   From: 2010.05.17/outbox.cif.g08.bks.cpg/sg130_2_cif.got.tgz:2567.got - 2010.05.20 12:17:35.
