data_PCOD9565322
_publ_section_title
;
Structure prediction by ZEFSAII (Michael W. Deem and Ramdas Pophale) SiO2 
 PCOD9565322
Probable space group: P 4/N M M
;
_chemical_formula_sum "Si O2"
_cell_formula_units_Z 96
_cell_length_a 20.098598
_cell_length_b 20.098598
_cell_length_c 12.306647
_cell_angle_alpha 90.000000
_cell_angle_beta 90.000000
_cell_angle_gamma 90.000000
_cell_volume 4971.314871
_symmetry_space_group_name_H-M "P 4/N M M"
_symmetry_group_IT_number 129
_symmetry_cell_setting 'tetragonal'
loop_
_space_group_symop_operation_xyz
x,y,z
1/2-y,x,z
1/2-x,1/2-y,z
y,1/2-x,z
1/2+x,-y,-z
-x,1/2+y,-z
1/2+y,1/2+x,-z
-y,-x,-z
-x,-y,-z
1/2+y,-x,-z
1/2+x,1/2+y,-z
-y,1/2+x,-z
1/2-x,y,z
x,1/2-y,z
1/2-y,1/2-x,z
y,x,z
loop_
_atom_site_type_symbol
_atom_site_label
_atom_site_fract_x
_atom_site_fract_y
_atom_site_fract_z
Si Si1 0.565672 0.366752 0.784500
Si Si2 0.396740 0.501479 0.554761
Si Si3 0.940396 0.826616 0.073140
Si Si4 0.328733 0.824272 0.619416
Si Si5 0.383974 0.005305 0.150331
Si Si6 0.939312 0.674456 0.632601
O O1 0.528489 0.384989 0.673255
O O2 0.507382 0.331891 0.853386
O O3 0.631266 0.335778 0.727451
O O4 0.592246 0.429491 0.852742
O O5 0.450984 0.549017 0.500000
O O6 0.430142 0.430142 0.569619
O O7 0.337634 0.487180 0.470914
O O8 0.915628 0.750000 0.078855
O O9 0.882757 0.882757 0.098723
O O10 0.966902 0.843943 0.952272
O O11 0.352067 0.852067 0.500000
O O12 0.250000 0.819395 0.601442
O O13 0.356809 0.750000 0.636523
O O14 0.450565 0.049436 0.158806
O O15 0.343141 0.018242 0.260400
O O16 0.915710 0.750000 0.635534
O O17 0.878187 0.621814 0.631473
#
# Coordination Sequence:
#
# PCOD9565322 Si02
#       6
#    16  16  16  16  16  16
#     4  12  21  36  61  93 120 156 199 251 308 366
#     4  10  19  34  54  82 116 150 188 235 294 355
#     4  11  25  43  64  90 120 160 210 261 317 378
#     4   9  20  37  54  80 122 165 201 240 293 360
#     4  10  21  39  60  85 118 153 193 247 308 363
#     4  10  21  36  57  85 119 158 201 249 301 362
#
# _framework density 19.310786
#
# number of rings (size 3 to 8) (size 9 to 14) (size 15 to 20)
#    0.000    1.667    1.667    4.000    0.000    4.333 
#    0.000    0.000    0.000    3.000    0.000    4.667 
#    0.000    0.000    0.000    0.000    0.000    0.000 
#
# Total GULP energy -534734.465093 kJ/mol
# GULP energy per Si atom -5570.150678 kJ/mol
# Density = 1.926683 g / cm^3
# Si number density = 19.310786 Si / 1000 Ang^3
#
#
#
# Elastic Constant Matrix: (Units=GPa)
#
#
# Indices 1 2 3 4 5 6 
#
# 1 91.7062 26.4936 15.5682 0.0000 0.0000 0.0000
# 2 26.4936 91.7103 15.5710 0.0000 0.0000 0.0000
# 3 15.5682 15.5710 53.7656 0.0000 0.0000 0.0000
# 4 0.0000 0.0000 0.0000 15.8408 0.0000 0.0000
# 5 0.0000 0.0000 0.0000 0.0000 15.8433 0.0000
# 6 0.0000 0.0000 0.0000 0.0000 0.0000 18.0277
#
#
#
# Elastic Compliance Matrix: (Units=1/GPa)
#
#
# Indices 1 2 3 4 5 6 
#
# 1 0.012247 -0.003088 -0.002652 0.000000 0.000000 0.000000
# 2 -0.003088 0.012246 -0.002653 0.000000 0.000000 0.000000
# 3 -0.002652 -0.002653 0.020135 0.000000 0.000000 0.000000
# 4 0.000000 0.000000 0.000000 0.063128 0.000000 0.000000
# 5 0.000000 0.000000 0.000000 0.000000 0.063118 0.000000
# 6 0.000000 0.000000 0.000000 0.000000 0.000000 0.055470
#
#
# Mechanical properties :
#
#
# Convention : Reuss Voigt Hill
#
# Bulk Modulus (GPa) = 35.91438 39.16087 37.53763
# Shear Modulus (GPa) = 19.80904 21.91231 20.86067
#
# Velocity S-wave (km/s) = 3.20629 3.37221 3.29030
# Velocity P-wave (km/s) = 5.68731 5.95699 5.82371
#
# Compressibility (1/GPa) = 0.02784400
#
# Stress axis : x y z
#
# Youngs Moduli (GPa) = 81.65545 81.65776 49.66392
#
# Poissons Ratio (x) = 0.25213 0.13170
# Poissons Ratio (y) = 0.25212 0.13174
# Poissons Ratio (z) = 0.21654 0.21660
#
# Static dielectric constant tensor:
#      x y z
#    x 1.736580 0.000000 0.000000 
#    y 0.000000 1.736580 0.000000 
#    z 0.000000 0.000000 1.728780 
# 
# From -- ./inp_files/3877.got.cif
#   From: 2010.05.17/outbox.cif.g08.bks.cpg/sg129_2_cif.got.tgz:3877.got - 2010.05.20 12:12:06.
