data_PCOD9565142
_publ_section_title
;
Structure prediction by ZEFSAII (Michael W. Deem and Ramdas Pophale) SiO2 
 PCOD9565142
Probable space group: P 4/N M M
;
_chemical_formula_sum "Si O2"
_cell_formula_units_Z 128
_cell_length_a 20.887316
_cell_length_b 20.887316
_cell_length_c 18.053401
_cell_angle_alpha 90.000000
_cell_angle_beta 90.000000
_cell_angle_gamma 90.000000
_cell_volume 7876.337241
_symmetry_space_group_name_H-M "P 4/N M M"
_symmetry_group_IT_number 129
_symmetry_cell_setting 'tetragonal'
loop_
_space_group_symop_operation_xyz
x,y,z
1/2-y,x,z
1/2-x,1/2-y,z
y,1/2-x,z
1/2+x,-y,-z
-x,1/2+y,-z
1/2+y,1/2+x,-z
-y,-x,-z
-x,-y,-z
1/2+y,-x,-z
1/2+x,1/2+y,-z
-y,1/2+x,-z
1/2-x,y,z
x,1/2-y,z
1/2-y,1/2-x,z
y,x,z
loop_
_atom_site_type_symbol
_atom_site_label
_atom_site_fract_x
_atom_site_fract_y
_atom_site_fract_z
Si Si1 0.006786 0.596167 0.654058
Si Si2 0.070655 0.175381 0.812061
Si Si3 0.898493 0.003686 0.901351
Si Si4 0.892528 0.175738 0.431913
Si Si5 0.674440 0.571003 0.770359
Si Si6 0.819082 0.325758 0.726489
Si Si7 0.070122 0.323978 0.990538
Si Si8 0.061037 0.603066 0.213895
O O1 0.957983 0.542018 0.627068
O O2 0.966315 0.650387 0.697356
O O3 0.048449 0.630396 0.591325
O O4 0.051501 0.565007 0.718722
O O5 0.074310 0.250000 0.788493
O O6 0.132214 0.132214 0.790622
O O7 0.067710 0.175181 0.901752
O O8 0.005972 0.140130 0.785676
O O9 0.923858 0.068186 0.863959
O O10 0.855461 0.969201 0.838233
O O11 0.961464 0.961464 0.913798
O O12 0.855596 0.993688 0.974238
O O13 0.853813 0.146188 0.500000
O O14 0.910510 0.250000 0.446096
O O15 0.848942 0.175377 0.358094
O O16 0.750000 0.574520 0.774837
O O17 0.639343 0.639343 0.771337
O O18 0.750000 0.350883 0.754451
O O19 0.818389 0.250000 0.728742
O O20 0.879072 0.351337 0.770876
O O21 0.078021 0.250000 0.014474
O O22 0.130194 0.369807 0.013149
#
# Coordination Sequence:
#
# PCOD9565142 Si02
#       8
#    16  16  16  16  16  16  16  16
#     4   9  18  31  46  65  90 119 150 182 216 258
#     4  10  20  33  49  68  90 116 148 189 236 284
#     4   9  17  28  42  60  84 112 143 182 223 264
#     4  10  19  30  47  69  93 120 146 175 213 255
#     4   9  16  26  41  61  87 119 153 189 225 261
#     4   9  18  31  46  67  94 121 148 177 213 260
#     4   9  18  30  43  62  87 115 148 186 230 279
#     4  10  18  30  49  69  89 116 151 188 225 265
#
# _framework density 16.251207999999998
#
# number of rings (size 3 to 8) (size 9 to 14) (size 15 to 20)
#    0.000    2.625    0.000    3.375    0.000    5.250 
#    0.000    3.125    0.000    2.250    0.000    0.000 
#    0.000    3.000    0.000    0.000    0.000   23.000 
#
# Total GULP energy -713035.614829 kJ/mol
# GULP energy per Si atom -5570.590741 kJ/mol
# Density = 1.621422 g / cm^3
# Si number density = 16.251208 Si / 1000 Ang^3
#
#
#
# Elastic Constant Matrix: (Units=GPa)
#
#
# Indices 1 2 3 4 5 6 
#
# 1 90.9149 54.2747 18.0675 0.0000 0.0000 0.0000
# 2 54.2747 90.9135 18.0678 0.0000 0.0000 0.0000
# 3 18.0675 18.0678 23.3050 0.0000 0.0000 0.0000
# 4 0.0000 0.0000 0.0000 19.2097 0.0000 0.0000
# 5 0.0000 0.0000 0.0000 0.0000 19.2096 0.0000
# 6 0.0000 0.0000 0.0000 0.0000 0.0000 19.0222
#
#
#
# Elastic Compliance Matrix: (Units=1/GPa)
#
#
# Indices 1 2 3 4 5 6 
#
# 1 0.017913 -0.009379 -0.006616 0.000000 0.000000 0.000000
# 2 -0.009379 0.017914 -0.006617 0.000000 0.000000 0.000000
# 3 -0.006616 -0.006617 0.053168 0.000000 0.000000 0.000000
# 4 0.000000 0.000000 0.000000 0.052057 0.000000 0.000000
# 5 0.000000 0.000000 0.000000 0.000000 0.052057 0.000000
# 6 0.000000 0.000000 0.000000 0.000000 0.000000 0.052570
#
#
# Mechanical properties :
#
#
# Convention : Reuss Voigt Hill
#
# Bulk Modulus (GPa) = 22.84601 42.88371 32.86486
# Shear Modulus (GPa) = 16.36690 19.13653 17.75171
#
# Velocity S-wave (km/s) = 3.17696 3.43526 3.30863
# Velocity P-wave (km/s) = 5.24842 6.49461 5.90449
#
# Compressibility (1/GPa) = 0.04377132
#
# Stress axis : x y z
#
# Youngs Moduli (GPa) = 55.82406 55.82277 18.80822
#
# Poissons Ratio (x) = 0.52358 0.12444
# Poissons Ratio (y) = 0.52359 0.12445
# Poissons Ratio (z) = 0.36934 0.36936
#
# Static dielectric constant tensor:
#      x y z
#    x 1.552760 0.000000 0.000000 
#    y 0.000000 1.552760 0.000000 
#    z 0.000000 0.000000 1.544540 
# 
# From -- ./inp_files/6156.got.cif
#   From: 2010.05.17/outbox.cif.g08.bks.cpg/sg129_4_cif.got.tgz:6156.got - 2010.05.20 12:12:06.
