data_PCOD9565864
_publ_section_title
;
Structure prediction by ZEFSAII (Michael W. Deem and Ramdas Pophale) SiO2 
 PCOD9565864
Probable space group: P 4/N C C
;
_chemical_formula_sum "Si O2"
_cell_formula_units_Z 60
_cell_length_a 18.140069
_cell_length_b 18.140069
_cell_length_c 8.005668
_cell_angle_alpha 90.000000
_cell_angle_beta 90.000000
_cell_angle_gamma 90.000000
_cell_volume 2634.361951
_symmetry_space_group_name_H-M "P 4/N C C"
_symmetry_group_IT_number 130
_symmetry_cell_setting 'tetragonal'
loop_
_space_group_symop_operation_xyz
x,y,z
1/2-y,x,z
1/2-x,1/2-y,z
y,1/2-x,z
1/2+x,-y,1/2-z
-x,1/2+y,1/2-z
1/2+y,1/2+x,1/2-z
-y,-x,1/2-z
-x,-y,-z
1/2+y,-x,-z
1/2+x,1/2+y,-z
-y,1/2+x,-z
1/2-x,y,1/2+z
x,1/2-y,1/2+z
1/2-y,1/2-x,1/2+z
y,x,1/2+z
loop_
_atom_site_type_symbol
_atom_site_label
_atom_site_fract_x
_atom_site_fract_y
_atom_site_fract_z
Si Si1 0.394077 0.829722 0.908545
Si Si2 0.056270 0.213050 0.601706
Si Si3 0.579044 0.079044 0.750000
Si Si4 0.637210 0.583097 0.252113
Si Si5 0.750000 0.250000 0.000000
O O1 0.383249 0.883249 0.750000
O O2 0.468129 0.782912 0.883877
O O3 0.400265 0.873323 0.084717
O O4 0.324590 0.775346 0.909945
O O5 0.074371 0.175289 0.426744
O O6 0.089779 0.293220 0.624531
O O7 0.086318 0.154181 0.734619
O O8 0.492713 0.093582 0.713746
#
# Coordination Sequence:
#
# PCOD9565864 Si02
#       5
#    16  16   8  16   4
#     4  11  27  42  71  99 150 191 243 297 360 440
#     4  11  26  45  73 103 143 190 245 309 369 439
#     4  10  26  45  70 106 144 189 244 294 364 442
#     4  11  25  46  72 105 144 188 245 308 370 444
#     4  12  26  44  66 110 144 198 238 292 362 434
#
# _framework density 22.775912999999999
#
# number of rings (size 3 to 8) (size 9 to 14) (size 15 to 20)
#    0.000    1.067    0.000    3.600   20.533    2.667 
#    0.000    2.667    0.000    0.000    0.000    0.000 
#    0.000    0.000    0.000    0.000    0.000    0.000 
#
# Total GULP energy -335860.702156 kJ/mol
# GULP energy per Si atom -5597.678369 kJ/mol
# Density = 2.272407 g / cm^3
# Si number density = 22.775913 Si / 1000 Ang^3
#
#
#
# Elastic Constant Matrix: (Units=GPa)
#
#
# Indices 1 2 3 4 5 6 
#
# 1 86.7406 80.0309 14.7915 0.0000 0.0000 0.0000
# 2 80.0309 86.7406 14.7915 0.0000 0.0000 0.0000
# 3 14.7915 14.7915 74.4951 0.0000 0.0000 0.0000
# 4 0.0000 0.0000 0.0000 26.4347 0.0000 0.0000
# 5 0.0000 0.0000 0.0000 0.0000 26.4347 0.0000
# 6 0.0000 0.0000 0.0000 0.0000 0.0000 37.1422
#
#
#
# Elastic Compliance Matrix: (Units=1/GPa)
#
#
# Indices 1 2 3 4 5 6 
#
# 1 0.077627 -0.071411 -0.001234 0.000000 0.000000 0.000000
# 2 -0.071411 0.077627 -0.001234 0.000000 0.000000 0.000000
# 3 -0.001234 -0.001234 0.013914 0.000000 0.000000 0.000000
# 4 0.000000 0.000000 0.000000 0.037829 0.000000 0.000000
# 5 0.000000 0.000000 0.000000 0.000000 0.037829 0.000000
# 6 0.000000 0.000000 0.000000 0.000000 0.000000 0.026924
#
#
# Mechanical properties :
#
#
# Convention : Reuss Voigt Hill
#
# Bulk Modulus (GPa) = 46.71193 51.91155 49.31174
# Shear Modulus (GPa) = 11.71939 27.22649 19.47294
#
# Velocity S-wave (km/s) = 2.27083 3.46122 2.92718
# Velocity P-wave (km/s) = 5.23731 6.23018 5.75520
#
# Compressibility (1/GPa) = 0.02140781
#
# Stress axis : x y z
#
# Youngs Moduli (GPa) = 12.88219 12.88219 71.87133
#
# Poissons Ratio (x) = 0.91994 0.08869
# Poissons Ratio (y) = 0.91994 0.08869
# Poissons Ratio (z) = 0.01590 0.01590
#
# Static dielectric constant tensor:
#      x y z
#    x 1.805870 0.000000 0.000000 
#    y 0.000000 1.805870 0.000000 
#    z 0.000000 0.000000 1.939260 
# 
# From -- ./inp_files/636.got.cif
#   From: 2010.05.17/outbox.cif.g08.bks.cpg/sg130_1_cif.got.tgz:636.got - 2010.05.20 12:17:35.
