data_PCOD9565321
_publ_section_title
;
Structure prediction by ZEFSAII (Michael W. Deem and Ramdas Pophale) SiO2 
 PCOD9565321
Probable space group: P 4/N M M
;
_chemical_formula_sum "Si O2"
_cell_formula_units_Z 128
_cell_length_a 22.817521
_cell_length_b 22.817521
_cell_length_c 13.992424
_cell_angle_alpha 90.000000
_cell_angle_beta 90.000000
_cell_angle_gamma 90.000000
_cell_volume 7285.005341
_symmetry_space_group_name_H-M "P 4/N M M"
_symmetry_group_IT_number 129
_symmetry_cell_setting 'tetragonal'
loop_
_space_group_symop_operation_xyz
x,y,z
1/2-y,x,z
1/2-x,1/2-y,z
y,1/2-x,z
1/2+x,-y,-z
-x,1/2+y,-z
1/2+y,1/2+x,-z
-y,-x,-z
-x,-y,-z
1/2+y,-x,-z
1/2+x,1/2+y,-z
-y,1/2+x,-z
1/2-x,y,z
x,1/2-y,z
1/2-y,1/2-x,z
y,x,z
loop_
_atom_site_type_symbol
_atom_site_label
_atom_site_fract_x
_atom_site_fract_y
_atom_site_fract_z
Si Si1 0.910150 0.818050 0.909446
Si Si2 0.564074 0.181739 0.366836
Si Si3 0.819611 0.137507 0.280839
Si Si4 0.319961 0.530239 0.578957
Si Si5 0.883690 0.412995 0.106649
Si Si6 0.398426 0.004236 0.216473
Si Si7 0.465211 0.181996 0.883732
Si Si8 0.586833 0.680204 0.324934
O O1 0.912409 0.750000 0.884631
O O2 0.847289 0.847289 0.893180
O O3 0.956422 0.854736 0.847340
O O4 0.926591 0.824372 0.021286
O O5 0.545835 0.250000 0.356840
O O6 0.631962 0.177843 0.332833
O O7 0.555972 0.162277 0.476830
O O8 0.523978 0.138732 0.303207
O O9 0.750000 0.152451 0.287212
O O10 0.829500 0.075744 0.335503
O O11 0.842134 0.127196 0.173339
O O12 0.250000 0.523876 0.572813
O O13 0.342488 0.466644 0.609221
O O14 0.857111 0.477663 0.105707
O O15 0.948009 0.416445 0.153667
O O16 0.888812 0.388812 0.000000
O O17 0.453770 0.046231 0.241723
O O18 0.484438 0.250000 0.877873
O O19 0.431866 0.169553 0.785187
O O20 0.593605 0.750000 0.336820
O O21 0.645388 0.645388 0.346625
#
# Coordination Sequence:
#
# PCOD9565321 Si02
#       8
#    16  16  16  16  16  16  16  16
#     4  10  20  34  52  74 102 138 180 227 278 334
#     4  10  21  37  58  82 111 146 186 234 288 340
#     4  10  20  37  59  83 114 147 186 232 278 337
#     4   9  18  35  56  79 107 143 185 228 277 331
#     4  11  20  34  54  83 111 145 182 224 269 331
#     4  10  22  36  52  77 109 143 182 228 279 332
#     4  10  19  34  54  76 108 147 185 224 276 341
#     4  10  20  34  55  83 114 151 192 236 292 351
#
# _framework density 17.570336999999999
#
# number of rings (size 3 to 8) (size 9 to 14) (size 15 to 20)
#    0.000    2.000    2.500    1.500    0.000    2.250 
#    0.000    0.625    0.000    6.750    0.000    0.000 
#    0.000    3.000    0.000    0.000    0.000    0.000 
#
# Total GULP energy -713642.908185 kJ/mol
# GULP energy per Si atom -5575.335220 kJ/mol
# Density = 1.753035 g / cm^3
# Si number density = 17.570337 Si / 1000 Ang^3
#
#
#
# Elastic Constant Matrix: (Units=GPa)
#
#
# Indices 1 2 3 4 5 6 
#
# 1 58.0401 75.1421 39.6384 0.0000 0.0000 0.0000
# 2 75.1421 58.0401 39.6384 0.0000 0.0000 0.0000
# 3 39.6384 39.6384 96.7455 0.0000 0.0000 0.0000
# 4 0.0000 0.0000 0.0000 10.6031 0.0000 0.0000
# 5 0.0000 0.0000 0.0000 0.0000 10.6031 0.0000
# 6 0.0000 0.0000 0.0000 0.0000 0.0000 25.2101
#
#
#
# Elastic Compliance Matrix: (Units=1/GPa)
#
#
# Indices 1 2 3 4 5 6 
#
# 1 -0.024271 0.034202 -0.004069 0.000000 0.000000 0.000000
# 2 0.034202 -0.024271 -0.004069 0.000000 0.000000 0.000000
# 3 -0.004069 -0.004069 0.013670 0.000000 0.000000 0.000000
# 4 0.000000 0.000000 0.000000 0.094312 0.000000 0.000000
# 5 0.000000 0.000000 0.000000 0.000000 0.094312 0.000000
# 6 0.000000 0.000000 0.000000 0.000000 0.000000 0.039667
#
#
# Mechanical properties :
#
#
# Convention : Reuss Voigt Hill
#
# Bulk Modulus (GPa) = 57.94905 57.96260 57.95583
# Shear Modulus (GPa) = 34.00384 13.17705 23.59044
#
# Velocity S-wave (km/s) = 4.40397 2.74151 3.66817
# Velocity P-wave (km/s) = 7.67547 6.56366 7.14123
#
# Compressibility (1/GPa) = 0.01725654
#
# Stress axis : x y z
#
# Youngs Moduli (GPa) = -41.20112 -41.20112 73.15063
#
# Poissons Ratio (x) = 1.40914 0.29763
# Poissons Ratio (y) = 1.40914 0.29763
# Poissons Ratio (z) = -0.16763 -0.16763
#
# Static dielectric constant tensor:
#      x y z
#    x 1.601600 0.000000 0.000000 
#    y 0.000000 1.601600 0.000000 
#    z 0.000000 0.000000 1.606180 
# 
# From -- ./inp_files/4198.got.cif
#   From: 2010.05.17/outbox.cif.g08.bks.cpg/sg129_3_cif.got.tgz:4198.got - 2010.05.20 12:12:06.
