data_PCOD9565172
_publ_section_title
;
Structure prediction by ZEFSAII (Michael W. Deem and Ramdas Pophale) SiO2 
 PCOD9565172
Probable space group: P 4/N M M
;
_chemical_formula_sum "Si O2"
_cell_formula_units_Z 112
_cell_length_a 22.759974
_cell_length_b 22.759974
_cell_length_c 11.675569
_cell_angle_alpha 90.000000
_cell_angle_beta 90.000000
_cell_angle_gamma 90.000000
_cell_volume 6048.136414
_symmetry_space_group_name_H-M "P 4/N M M"
_symmetry_group_IT_number 129
_symmetry_cell_setting 'tetragonal'
loop_
_space_group_symop_operation_xyz
x,y,z
1/2-y,x,z
1/2-x,1/2-y,z
y,1/2-x,z
1/2+x,-y,-z
-x,1/2+y,-z
1/2+y,1/2+x,-z
-y,-x,-z
-x,-y,-z
1/2+y,-x,-z
1/2+x,1/2+y,-z
-y,1/2+x,-z
1/2-x,y,z
x,1/2-y,z
1/2-y,1/2-x,z
y,x,z
loop_
_atom_site_type_symbol
_atom_site_label
_atom_site_fract_x
_atom_site_fract_y
_atom_site_fract_z
Si Si1 0.006624 0.914143 0.837241
Si Si2 0.486956 0.618694 0.101881
Si Si3 0.181624 0.086811 0.519054
Si Si4 0.595364 0.684608 0.205373
Si Si5 0.543707 0.136393 0.521400
Si Si6 0.683302 0.078186 0.710727
Si Si7 0.181284 0.601128 0.755981
O O1 0.058924 0.962331 0.842027
O O2 0.028984 0.861100 0.759391
O O3 0.002790 0.892248 0.968274
O O4 0.947254 0.947254 0.802410
O O5 0.545508 0.641808 0.159534
O O6 0.436350 0.665866 0.131034
O O7 0.250000 0.085017 0.477303
O O8 0.141723 0.141723 0.477693
O O9 0.185526 0.092428 0.657032
O O10 0.147584 0.025169 0.500948
O O11 0.585236 0.750000 0.161949
O O12 0.658020 0.658020 0.172059
O O13 0.571244 0.071244 0.500000
O O14 0.576463 0.175803 0.426271
O O15 0.562015 0.158715 0.647500
O O16 0.750000 0.067789 0.743960
O O17 0.658430 0.140425 0.754093
O O18 0.250000 0.612035 0.745376
#
# Coordination Sequence:
#
# PCOD9565172 Si02
#       7
#    16  16  16  16  16  16  16
#     4  10  21  36  54  75 105 137 171 219 270 321
#     4  10  18  33  55  78 101 132 173 219 266 317
#     4  10  20  33  51  76 108 142 176 217 265 320
#     4  10  19  30  48  74 103 136 171 209 256 312
#     4  10  20  36  54  78 108 143 181 229 279 326
#     4  10  22  36  52  76 109 144 179 222 266 317
#     4  10  19  33  56  80 106 143 180 218 270 324
#
# _framework density 18.518101000000001
#
# number of rings (size 3 to 8) (size 9 to 14) (size 15 to 20)
#    0.000    2.000    1.429    3.429    0.000    2.571 
#    0.000    1.429    0.000    2.571    0.000    4.000 
#    0.000    0.286    0.000    0.286    0.000    0.286 
#
# Total GULP energy -624631.627622 kJ/mol
# GULP energy per Si atom -5577.068104 kJ/mol
# Density = 1.847595 g / cm^3
# Si number density = 18.518101 Si / 1000 Ang^3
#
#
#
# Elastic Constant Matrix: (Units=GPa)
#
#
# Indices 1 2 3 4 5 6 
#
# 1 93.1033 86.8218 19.0227 0.0000 0.0000 0.0000
# 2 86.8218 93.1033 19.0227 0.0000 0.0000 0.0000
# 3 19.0227 19.0227 22.9433 0.0000 0.0000 0.0000
# 4 0.0000 0.0000 0.0000 16.8654 0.0000 0.0000
# 5 0.0000 0.0000 0.0000 0.0000 16.8654 0.0000
# 6 0.0000 0.0000 0.0000 0.0000 0.0000 8.9223
#
#
#
# Elastic Compliance Matrix: (Units=1/GPa)
#
#
# Indices 1 2 3 4 5 6 
#
# 1 0.082968 -0.076229 -0.005588 0.000000 0.000000 0.000000
# 2 -0.076229 0.082968 -0.005588 0.000000 0.000000 0.000000
# 3 -0.005588 -0.005588 0.052851 0.000000 0.000000 0.000000
# 4 0.000000 0.000000 0.000000 0.059293 0.000000 0.000000
# 5 0.000000 0.000000 0.000000 0.000000 0.059293 0.000000
# 6 0.000000 0.000000 0.000000 0.000000 0.000000 0.112079
#
#
# Mechanical properties :
#
#
# Convention : Reuss Voigt Hill
#
# Bulk Modulus (GPa) = 22.73801 50.98715 36.86258
# Shear Modulus (GPa) = 7.82568 14.14947 10.98758
#
# Velocity S-wave (km/s) = 2.05795 2.76721 2.43850
# Velocity P-wave (km/s) = 4.23702 6.14845 5.27995
#
# Compressibility (1/GPa) = 0.04397923
#
# Stress axis : x y z
#
# Youngs Moduli (GPa) = 12.05277 12.05277 18.92098
#
# Poissons Ratio (x) = 0.91877 0.10573
# Poissons Ratio (y) = 0.91877 0.10573
# Poissons Ratio (z) = 0.06735 0.06735
#
# Static dielectric constant tensor:
#      x y z
#    x 1.654370 0.000000 0.000000 
#    y 0.000000 1.654370 0.000000 
#    z 0.000000 0.000000 1.645080 
# 
# From -- ./inp_files/4067.got.cif
#   From: 2010.05.17/outbox.cif.g08.bks.cpg/sg129_3_cif.got.tgz:4067.got - 2010.05.20 12:12:06.
