data_PCOD9565257
_publ_section_title
;
Structure prediction by ZEFSAII (Michael W. Deem and Ramdas Pophale) SiO2 
 PCOD9565257
Probable space group: P 4/N M M
;
_chemical_formula_sum "Si O2"
_cell_formula_units_Z 96
_cell_length_a 15.859985
_cell_length_b 15.859985
_cell_length_c 21.121177
_cell_angle_alpha 90.000000
_cell_angle_beta 90.000000
_cell_angle_gamma 90.000000
_cell_volume 5312.802365
_symmetry_space_group_name_H-M "P 4/N M M"
_symmetry_group_IT_number 129
_symmetry_cell_setting 'tetragonal'
loop_
_space_group_symop_operation_xyz
x,y,z
1/2-y,x,z
1/2-x,1/2-y,z
y,1/2-x,z
1/2+x,-y,-z
-x,1/2+y,-z
1/2+y,1/2+x,-z
-y,-x,-z
-x,-y,-z
1/2+y,-x,-z
1/2+x,1/2+y,-z
-y,1/2+x,-z
1/2-x,y,z
x,1/2-y,z
1/2-y,1/2-x,z
y,x,z
loop_
_atom_site_type_symbol
_atom_site_label
_atom_site_fract_x
_atom_site_fract_y
_atom_site_fract_z
Si Si1 0.012107 0.347666 0.943362
Si Si2 0.653892 0.517392 0.778626
Si Si3 0.029995 0.896901 0.399186
Si Si4 0.526416 0.657274 0.534777
Si Si5 0.347420 0.841980 0.292979
Si Si6 0.944848 0.345196 0.084920
O O1 0.029299 0.250000 0.926807
O O2 0.086897 0.413104 0.926889
O O3 0.923013 0.379836 0.914639
O O4 0.996023 0.351930 0.019271
O O5 0.750000 0.542878 0.762693
O O6 0.584834 0.584834 0.756906
O O7 0.639642 0.424412 0.749648
O O8 0.648348 0.504344 0.854155
O O9 0.083177 0.846887 0.347946
O O10 0.997122 0.846738 0.460400
O O11 0.095569 0.963719 0.428867
O O12 0.951531 0.951531 0.372872
O O13 0.518232 0.750000 0.560245
O O14 0.618876 0.618876 0.541566
O O15 0.250000 0.846870 0.316898
O O16 0.354835 0.750000 0.260783
O O17 0.906591 0.250000 0.086270
#
# Coordination Sequence:
#
# PCOD9565257 Si02
#       6
#    16  16  16  16  16  16
#     4  10  19  31  49  72 100 132 163 198 239 287
#     4  10  20  34  52  73  99 129 160 197 239 286
#     4   9  17  30  47  65  87 117 153 190 228 275
#     4   9  17  28  44  66  90 117 147 182 227 277
#     4  10  20  32  47  68  93 122 156 196 240 281
#     4   9  18  33  52  72  95 125 162 204 248 289
#
# _framework density 18.069559000000002
#
# number of rings (size 3 to 8) (size 9 to 14) (size 15 to 20)
#    0.000    2.500    0.000    4.500    0.000    1.500 
#    0.000    3.333    0.000    7.000    0.000    2.333 
#    0.000    3.000    0.000    0.333    0.000    0.000 
#
# Total GULP energy -534817.210550 kJ/mol
# GULP energy per Si atom -5571.012610 kJ/mol
# Density = 1.802843 g / cm^3
# Si number density = 18.069559 Si / 1000 Ang^3
#
#
#
# Elastic Constant Matrix: (Units=GPa)
#
#
# Indices 1 2 3 4 5 6 
#
# 1 114.2793 76.8064 7.5631 0.0000 0.0000 0.0000
# 2 76.8064 114.2793 7.5631 0.0000 0.0000 0.0000
# 3 7.5631 7.5631 14.7954 0.0000 0.0000 0.0000
# 4 0.0000 0.0000 0.0000 16.1713 0.0000 0.0000
# 5 0.0000 0.0000 0.0000 0.0000 16.1713 0.0000
# 6 0.0000 0.0000 0.0000 0.0000 0.0000 19.9711
#
#
#
# Elastic Compliance Matrix: (Units=1/GPa)
#
#
# Indices 1 2 3 4 5 6 
#
# 1 0.016070 -0.010616 -0.002788 0.000000 0.000000 0.000000
# 2 -0.010616 0.016070 -0.002788 0.000000 0.000000 0.000000
# 3 -0.002788 -0.002788 0.070439 0.000000 0.000000 0.000000
# 4 0.000000 0.000000 0.000000 0.061838 0.000000 0.000000
# 5 0.000000 0.000000 0.000000 0.000000 0.061838 0.000000
# 6 0.000000 0.000000 0.000000 0.000000 0.000000 0.050072
#
#
# Mechanical properties :
#
#
# Convention : Reuss Voigt Hill
#
# Bulk Modulus (GPa) = 14.24606 47.46880 30.85743
# Shear Modulus (GPa) = 15.05530 20.55750 17.80640
#
# Velocity S-wave (km/s) = 2.88963 3.37662 3.14257
# Velocity P-wave (km/s) = 4.36284 6.44431 5.50289
#
# Compressibility (1/GPa) = 0.07019483
#
# Stress axis : x y z
#
# Youngs Moduli (GPa) = 62.22790 62.22790 14.19675
#
# Poissons Ratio (x) = 0.66061 0.03958
# Poissons Ratio (y) = 0.66061 0.03958
# Poissons Ratio (z) = 0.17349 0.17349
#
# Static dielectric constant tensor:
#      x y z
#    x 1.624880 0.000000 0.000000 
#    y 0.000000 1.624880 0.000000 
#    z 0.000000 0.000000 1.626400 
# 
# From -- ./inp_files/6513.got.cif
#   From: 2010.05.17/outbox.cif.g08.bks.cpg/sg129_4_cif.got.tgz:6513.got - 2010.05.20 12:12:06.
