data_PCOD9565681
_publ_section_title
;
Structure prediction by ZEFSAII (Michael W. Deem and Ramdas Pophale) SiO2 
 PCOD9565681
Probable space group: P 4/N C C
;
_chemical_formula_sum "Si O2"
_cell_formula_units_Z 56
_cell_length_a 16.801709
_cell_length_b 16.801709
_cell_length_c 9.960925
_cell_angle_alpha 90.000000
_cell_angle_beta 90.000000
_cell_angle_gamma 90.000000
_cell_volume 2811.943481
_symmetry_space_group_name_H-M "P 4/N C C"
_symmetry_group_IT_number 130
_symmetry_cell_setting 'tetragonal'
loop_
_space_group_symop_operation_xyz
x,y,z
1/2-y,x,z
1/2-x,1/2-y,z
y,1/2-x,z
1/2+x,-y,1/2-z
-x,1/2+y,1/2-z
1/2+y,1/2+x,1/2-z
-y,-x,1/2-z
-x,-y,-z
1/2+y,-x,-z
1/2+x,1/2+y,-z
-y,1/2+x,-z
1/2-x,y,1/2+z
x,1/2-y,1/2+z
1/2-y,1/2-x,1/2+z
y,x,1/2+z
loop_
_atom_site_type_symbol
_atom_site_label
_atom_site_fract_x
_atom_site_fract_y
_atom_site_fract_z
Si Si1 0.595402 0.095402 0.750000
Si Si2 0.766966 0.618451 0.105396
Si Si3 0.869636 0.285152 0.991927
Si Si4 0.984069 0.782405 0.843902
O O1 0.605360 0.159533 0.868897
O O2 0.511766 0.126339 0.688404
O O3 0.835477 0.683562 0.124968
O O4 0.763021 0.547952 0.213249
O O5 0.777867 0.583292 0.957310
O O6 0.940027 0.262195 0.091802
O O7 0.832259 0.202714 0.938512
#
# Coordination Sequence:
#
# PCOD9565681 Si02
#       4
#     8  16  16  16
#     4  10  20  39  60  98 138 172 202 267 334 400
#     4  11  24  44  70  93 121 172 234 286 322 376
#     4   9  19  34  60  91 127 171 212 251 314 396
#     4  11  21  40  64  96 130 163 215 270 332 389
#
# _framework density 19.915051999999999
#
# number of rings (size 3 to 8) (size 9 to 14) (size 15 to 20)
#    0.000    1.714    2.857    1.714    0.000   11.429 
#    0.000    1.429    6.286    0.000    0.000    0.000 
#    0.000    0.000    0.000    0.000    0.000    0.000 
#
# Total GULP energy -312275.129794 kJ/mol
# GULP energy per Si atom -5576.341603 kJ/mol
# Density = 1.986972 g / cm^3
# Si number density = 19.915052 Si / 1000 Ang^3
#
#
#
# Elastic Constant Matrix: (Units=GPa)
#
#
# Indices 1 2 3 4 5 6 
#
# 1 65.0368 31.7627 12.1961 0.0000 0.0000 0.0000
# 2 31.7627 65.0368 12.1961 0.0000 0.0000 0.0000
# 3 12.1961 12.1961 71.2336 0.0000 0.0000 0.0000
# 4 0.0000 0.0000 0.0000 11.4352 0.0000 0.0000
# 5 0.0000 0.0000 0.0000 0.0000 11.4352 0.0000
# 6 0.0000 0.0000 0.0000 0.0000 0.0000 20.1690
#
#
#
# Elastic Compliance Matrix: (Units=1/GPa)
#
#
# Indices 1 2 3 4 5 6 
#
# 1 0.020425 -0.009628 -0.001848 0.000000 0.000000 0.000000
# 2 -0.009628 0.020425 -0.001848 0.000000 0.000000 0.000000
# 3 -0.001848 -0.001848 0.014671 0.000000 0.000000 0.000000
# 4 0.000000 0.000000 0.000000 0.087450 0.000000 0.000000
# 5 0.000000 0.000000 0.000000 0.000000 0.087450 0.000000
# 6 0.000000 0.000000 0.000000 0.000000 0.000000 0.049581
#
#
# Mechanical properties :
#
#
# Convention : Reuss Voigt Hill
#
# Bulk Modulus (GPa) = 34.63780 34.84634 34.74207
# Shear Modulus (GPa) = 15.80900 18.28470 17.04685
#
# Velocity S-wave (km/s) = 2.82054 3.03336 2.92888
# Velocity P-wave (km/s) = 5.29507 5.45929 5.37781
#
# Compressibility (1/GPa) = 0.02887019
#
# Stress axis : x y z
#
# Youngs Moduli (GPa) = 48.95986 48.95986 68.16039
#
# Poissons Ratio (x) = 0.47141 0.12599
# Poissons Ratio (y) = 0.47141 0.12599
# Poissons Ratio (z) = 0.09050 0.09050
#
# Static dielectric constant tensor:
#      x y z
#    x 1.723510 0.000000 0.000000 
#    y 0.000000 1.723510 0.000000 
#    z 0.000000 0.000000 1.702380 
# 
# From -- ./inp_files/589.got.cif
#   From: 2010.05.17/outbox.cif.g08.bks.cpg/sg130_1_cif.got.tgz:589.got - 2010.05.20 12:17:35.
