data_PCOD9565205
_publ_section_title
;
Structure prediction by ZEFSAII (Michael W. Deem and Ramdas Pophale) SiO2 
 PCOD9565205
Probable space group: P 4/N M M
;
_chemical_formula_sum "Si O2"
_cell_formula_units_Z 88
_cell_length_a 14.173312
_cell_length_b 14.173312
_cell_length_c 28.445225
_cell_angle_alpha 90.000000
_cell_angle_beta 90.000000
_cell_angle_gamma 90.000000
_cell_volume 5714.155678
_symmetry_space_group_name_H-M "P 4/N M M"
_symmetry_group_IT_number 129
_symmetry_cell_setting 'tetragonal'
loop_
_space_group_symop_operation_xyz
x,y,z
1/2-y,x,z
1/2-x,1/2-y,z
y,1/2-x,z
1/2+x,-y,-z
-x,1/2+y,-z
1/2+y,1/2+x,-z
-y,-x,-z
-x,-y,-z
1/2+y,-x,-z
1/2+x,1/2+y,-z
-y,1/2+x,-z
1/2-x,y,z
x,1/2-y,z
1/2-y,1/2-x,z
y,x,z
loop_
_atom_site_type_symbol
_atom_site_label
_atom_site_fract_x
_atom_site_fract_y
_atom_site_fract_z
Si Si1 0.638214 0.483340 0.275990
Si Si2 0.516914 0.137723 0.092124
Si Si3 0.861112 0.361112 0.000000
Si Si4 0.861229 0.138858 0.815850
Si Si5 0.137209 0.519691 0.461998
Si Si6 0.859533 0.360529 0.368310
O O1 0.750000 0.502190 0.274831
O O2 0.577223 0.577223 0.276229
O O3 0.614519 0.421827 0.229908
O O4 0.618717 0.423533 0.323087
O O5 0.499862 0.250000 0.092267
O O6 0.577544 0.114651 0.138594
O O7 0.422095 0.077906 0.092086
O O8 0.577400 0.115197 0.045543
O O9 0.874355 0.250000 0.989311
O O10 0.750000 0.125846 0.805607
O O11 0.875046 0.250000 0.826286
O O12 0.090018 0.590018 0.500000
O O13 0.250000 0.508041 0.469620
O O14 0.123325 0.570177 0.411524
O O15 0.077638 0.422363 0.463882
O O16 0.750000 0.378632 0.382505
O O17 0.865101 0.250000 0.355234
#
# Coordination Sequence:
#
# PCOD9565205 Si02
#       6
#    16  16   8  16  16  16
#     4  10  19  30  45  65  91 121 150 182 220 264
#     4  10  19  30  45  65  90 118 145 175 213 260
#     4   9  17  30  48  68  87 109 142 184 224 255
#     4   9  17  30  48  68  87 109 143 187 229 262
#     4  10  20  33  50  72  97 125 157 193 233 277
#     4   9  17  30  49  71  92 116 150 191 231 269
#
# _framework density 15.400351000000001
#
# number of rings (size 3 to 8) (size 9 to 14) (size 15 to 20)
#    0.000    2.455    0.000    3.000    0.000    5.818 
#    0.000    0.000    0.000    0.000    0.000    2.545 
#    0.000   26.182    0.000    0.000    0.000    0.000 
#
# Total GULP energy -490613.154988 kJ/mol
# GULP energy per Si atom -5575.149488 kJ/mol
# Density = 1.536530 g / cm^3
# Si number density = 15.400351 Si / 1000 Ang^3
#
#
#
# Elastic Constant Matrix: (Units=GPa)
#
#
# Indices 1 2 3 4 5 6 
#
# 1 77.3475 62.7669 68.6871 0.0000 0.0000 0.0000
# 2 62.7669 77.3475 68.6871 0.0000 0.0000 0.0000
# 3 68.6871 68.6871 120.9937 0.0000 0.0000 0.0000
# 4 0.0000 0.0000 0.0000 11.0737 0.0000 0.0000
# 5 0.0000 0.0000 0.0000 0.0000 11.0737 0.0000
# 6 0.0000 0.0000 0.0000 0.0000 0.0000 29.5769
#
#
#
# Elastic Compliance Matrix: (Units=1/GPa)
#
#
# Indices 1 2 3 4 5 6 
#
# 1 0.042340 -0.026244 -0.009137 0.000000 0.000000 0.000000
# 2 -0.026244 0.042340 -0.009137 0.000000 0.000000 0.000000
# 3 -0.009137 -0.009137 0.018639 0.000000 0.000000 0.000000
# 4 0.000000 0.000000 0.000000 0.090304 0.000000 0.000000
# 5 0.000000 0.000000 0.000000 0.000000 0.090304 0.000000
# 6 0.000000 0.000000 0.000000 0.000000 0.000000 0.033810
#
#
# Mechanical properties :
#
#
# Convention : Reuss Voigt Hill
#
# Bulk Modulus (GPa) = 70.02227 75.10791 72.56509
# Shear Modulus (GPa) = 12.14960 15.38137 13.76549
#
# Velocity S-wave (km/s) = 2.81181 3.16376 2.99296
# Velocity P-wave (km/s) = 7.49055 7.88809 7.69189
#
# Compressibility (1/GPa) = 0.01428117
#
# Stress axis : x y z
#
# Youngs Moduli (GPa) = 23.61830 23.61830 53.64985
#
# Poissons Ratio (x) = 0.61985 0.49022
# Poissons Ratio (y) = 0.61985 0.49022
# Poissons Ratio (z) = 0.21581 0.21581
#
# Static dielectric constant tensor:
#      x y z
#    x 1.490730 0.000000 0.000000 
#    y 0.000000 1.490730 0.000000 
#    z 0.000000 0.000000 1.499400 
# 
# From -- ./inp_files/6943.got.cif
#   From: 2010.05.17/outbox.cif.g08.bks.cpg/sg129_4_cif.got.tgz:6943.got - 2010.05.20 12:12:06.
