data_PCOD9565286
_publ_section_title
;
Structure prediction by ZEFSAII (Michael W. Deem and Ramdas Pophale) SiO2 
 PCOD9565286
Probable space group: P 4/N M M
;
_chemical_formula_sum "Si O2"
_cell_formula_units_Z 80
_cell_length_a 12.716831
_cell_length_b 12.716831
_cell_length_c 30.693567
_cell_angle_alpha 90.000000
_cell_angle_beta 90.000000
_cell_angle_gamma 90.000000
_cell_volume 4963.695843
_symmetry_space_group_name_H-M "P 4/N M M"
_symmetry_group_IT_number 129
_symmetry_cell_setting 'tetragonal'
loop_
_space_group_symop_operation_xyz
x,y,z
1/2-y,x,z
1/2-x,1/2-y,z
y,1/2-x,z
1/2+x,-y,-z
-x,1/2+y,-z
1/2+y,1/2+x,-z
-y,-x,-z
-x,-y,-z
1/2+y,-x,-z
1/2+x,1/2+y,-z
-y,1/2+x,-z
1/2-x,y,z
x,1/2-y,z
1/2-y,1/2-x,z
y,x,z
loop_
_atom_site_type_symbol
_atom_site_label
_atom_site_fract_x
_atom_site_fract_y
_atom_site_fract_z
Si Si1 0.515007 0.515007 0.927700
Si Si2 0.376077 0.948975 0.547888
Si Si3 0.625102 0.625102 0.008400
Si Si4 0.956392 0.374517 0.760824
Si Si5 0.377867 0.750000 0.707084
Si Si6 0.122719 0.750000 0.607390
Si Si7 0.370868 0.625715 0.858085
O O1 0.581337 0.581337 0.962589
O O2 0.446535 0.587869 0.896057
O O3 0.437880 0.437880 0.954531
O O4 0.403980 0.903980 0.500000
O O5 0.250000 0.968058 0.550837
O O6 0.406464 0.856198 0.581649
O O7 0.447138 0.052863 0.554890
O O8 0.750000 0.606373 0.011767
O O9 0.972890 0.250000 0.754009
O O10 0.854886 0.408680 0.732971
O O11 0.929988 0.390311 0.811864
O O12 0.056913 0.443088 0.748918
O O13 0.250000 0.750000 0.707029
O O14 0.414511 0.750000 0.657217
O O15 0.250000 0.750000 0.608106
O O16 0.250000 0.603556 0.870583
O O17 0.380999 0.750000 0.850842
#
# Coordination Sequence:
#
# PCOD9565286 Si02
#       7
#     8  16   8  16   8   8  16
#     4  11  20  34  56  76  98 132 176 208 253 314
#     4  10  19  32  52  78 109 143 181 230 280 324
#     4  10  22  38  52  72 104 138 166 206 258 312
#     4  10  19  33  53  78 110 142 174 218 272 320
#     4   9  18  34  54  77 103 145 185 218 261 321
#     4   9  18  32  54  77 103 139 189 226 263 323
#     4  10  19  32  51  77 103 129 167 216 260 304
#
# _framework density 16.117024000000001
#
# number of rings (size 3 to 8) (size 9 to 14) (size 15 to 20)
#    0.000    2.100    3.000    1.200    0.000    1.200 
#    0.000    0.000    0.000    5.400    0.000    7.000 
#    0.000    0.000    0.000    0.000    0.000    0.000 
#
# Total GULP energy -446034.347538 kJ/mol
# GULP energy per Si atom -5575.429344 kJ/mol
# Density = 1.608034 g / cm^3
# Si number density = 16.117024 Si / 1000 Ang^3
#
#
#
# Elastic Constant Matrix: (Units=GPa)
#
#
# Indices 1 2 3 4 5 6 
#
# 1 78.0043 54.6846 27.9053 0.0000 0.0000 0.0000
# 2 54.6846 78.0043 27.9053 0.0000 0.0000 0.0000
# 3 27.9053 27.9053 70.1491 0.0000 0.0000 0.0000
# 4 0.0000 0.0000 0.0000 11.5201 0.0000 0.0000
# 5 0.0000 0.0000 0.0000 0.0000 11.5201 0.0000
# 6 0.0000 0.0000 0.0000 0.0000 0.0000 25.2256
#
#
#
# Elastic Compliance Matrix: (Units=1/GPa)
#
#
# Indices 1 2 3 4 5 6 
#
# 1 0.025967 -0.016916 -0.003600 0.000000 0.000000 0.000000
# 2 -0.016916 0.025967 -0.003600 0.000000 0.000000 0.000000
# 3 -0.003600 -0.003600 0.017120 0.000000 0.000000 0.000000
# 4 0.000000 0.000000 0.000000 0.086805 0.000000 0.000000
# 5 0.000000 0.000000 0.000000 0.000000 0.086805 0.000000
# 6 0.000000 0.000000 0.000000 0.000000 0.000000 0.039642
#
#
# Mechanical properties :
#
#
# Convention : Reuss Voigt Hill
#
# Bulk Modulus (GPa) = 48.03118 49.68311 48.85714
# Shear Modulus (GPa) = 14.81581 17.36401 16.08991
#
# Velocity S-wave (km/s) = 3.03523 3.28589 3.16304
# Velocity P-wave (km/s) = 6.49228 6.72975 6.61208
#
# Compressibility (1/GPa) = 0.02081981
#
# Stress axis : x y z
#
# Youngs Moduli (GPa) = 38.51112 38.51112 58.41184
#
# Poissons Ratio (x) = 0.65144 0.21031
# Poissons Ratio (y) = 0.65144 0.21031
# Poissons Ratio (z) = 0.13866 0.13866
#
# Static dielectric constant tensor:
#      x y z
#    x 1.522430 0.000000 0.000000 
#    y 0.000000 1.522430 0.000000 
#    z 0.000000 0.000000 1.531580 
# 
# From -- ./inp_files/7734.got.cif
#   From: 2010.05.17/outbox.cif.g08.bks.cpg/sg129_4_cif.got.tgz:7734.got - 2010.05.20 12:12:06.
