data_PCOD9566765
_publ_section_title
;
Structure prediction by ZEFSAII (Michael W. Deem and Ramdas Pophale) SiO2 
 PCOD9566765
Probable space group: P 42/M M C
;
_chemical_formula_sum "Si O2"
_cell_formula_units_Z 96
_cell_length_a 14.784335
_cell_length_b 14.784335
_cell_length_c 23.267613
_cell_angle_alpha 90.000000
_cell_angle_beta 90.000000
_cell_angle_gamma 90.000000
_cell_volume 5085.754841
_symmetry_space_group_name_H-M "P 42/M M C"
_symmetry_group_IT_number 131
_symmetry_cell_setting 'tetragonal'
loop_
_space_group_symop_operation_xyz
x,y,z
-x,-y,z
-y,x,1/2+z
y,-x,1/2+z
-x,y,-z
x,-y,-z
y,x,1/2-z
-y,-x,1/2-z
-x,-y,-z
x,y,-z
y,-x,1/2-z
-y,x,1/2-z
x,-y,z
-x,y,z
-y,-x,1/2+z
y,x,1/2+z
loop_
_atom_site_type_symbol
_atom_site_label
_atom_site_fract_x
_atom_site_fract_y
_atom_site_fract_z
Si Si1 0.392288 0.742791 0.733033
Si Si2 0.395183 0.185673 0.067275
Si Si3 0.223320 0.736031 0.874591
Si Si4 0.402725 0.101514 0.431548
Si Si5 0.392885 0.095407 0.183527
Si Si6 0.106478 0.893234 0.818814
O O1 0.355857 0.644144 0.750000
O O2 0.500000 0.745451 0.726222
O O3 0.335509 0.767692 0.677036
O O4 0.363019 0.815694 0.782157
O O5 0.500000 0.218403 0.072829
O O6 0.317350 0.251383 0.091142
O O7 0.385849 0.106842 0.114892
O O8 0.381422 0.163158 0.000000
O O9 0.154619 0.685991 0.916262
O O10 0.176891 0.828357 0.851642
O O11 0.407260 0.096104 0.500000
O O12 0.500000 0.141204 0.411720
O O13 0.397606 0.000000 0.407596
O O14 0.500000 0.091580 0.195747
O O15 0.350853 0.000000 0.202374
O O16 0.118399 0.881601 0.750000
O O17 0.000000 0.871983 0.831599
O O18 0.120155 0.000000 0.831838
#
# Coordination Sequence:
#
# PCOD9566765 Si02
#       6
#    16  16  16  16  16  16
#     4  11  23  39  57  87 120 153 192 237 298 363
#     4  10  22  39  58  82 116 155 199 250 296 341
#     4  12  21  35  59  91 114 154 196 247 290 358
#     4   9  19  36  57  83 115 149 190 244 301 352
#     4   9  19  37  59  83 115 150 189 241 295 347
#     4   9  20  38  57  82 119 158 193 229 281 354
#
# _framework density 18.876255
#
# number of rings (size 3 to 8) (size 9 to 14) (size 15 to 20)
#    0.000    2.000    1.667    3.000    0.000    2.500 
#    0.000    3.333    0.000    3.000    0.000   11.667 
#    0.000    0.000    0.000    0.000    0.000    0.000 
#
# Total GULP energy -534730.660398 kJ/mol
# GULP energy per Si atom -5570.111046 kJ/mol
# Density = 1.883329 g / cm^3
# Si number density = 18.876255 Si / 1000 Ang^3
#
#
#
# Elastic Constant Matrix: (Units=GPa)
#
#
# Indices 1 2 3 4 5 6 
#
# 1 108.7326 56.0481 37.2649 0.0000 0.0000 0.0000
# 2 56.0481 108.7348 37.2661 0.0000 0.0000 0.0000
# 3 37.2649 37.2661 62.7756 0.0000 0.0000 0.0000
# 4 0.0000 0.0000 0.0000 20.5560 0.0000 0.0000
# 5 0.0000 0.0000 0.0000 0.0000 20.5558 0.0000
# 6 0.0000 0.0000 0.0000 0.0000 0.0000 24.2494
#
#
#
# Elastic Compliance Matrix: (Units=1/GPa)
#
#
# Indices 1 2 3 4 5 6 
#
# 1 0.013638 -0.005342 -0.004925 0.000000 0.000000 0.000000
# 2 -0.005342 0.013638 -0.004925 0.000000 0.000000 0.000000
# 3 -0.004925 -0.004925 0.021777 0.000000 0.000000 0.000000
# 4 0.000000 0.000000 0.000000 0.048648 0.000000 0.000000
# 5 0.000000 0.000000 0.000000 0.000000 0.048648 0.000000
# 6 0.000000 0.000000 0.000000 0.000000 0.000000 0.041238
#
#
# Mechanical properties :
#
#
# Convention : Reuss Voigt Hill
#
# Bulk Modulus (GPa) = 53.56259 60.15568 56.85914
# Shear Modulus (GPa) = 22.30208 23.04983 22.67596
#
# Velocity S-wave (km/s) = 3.44101 3.49822 3.46973
# Velocity P-wave (km/s) = 6.65016 6.94653 6.79996
#
# Compressibility (1/GPa) = 0.01866975
#
# Stress axis : x y z
#
# Youngs Moduli (GPa) = 73.32246 73.32308 45.92038
#
# Poissons Ratio (x) = 0.39171 0.22614
# Poissons Ratio (y) = 0.39170 0.22616
# Poissons Ratio (z) = 0.36109 0.36112
#
# Static dielectric constant tensor:
#      x y z
#    x 1.690100 0.000000 0.000000 
#    y 0.000000 1.690100 0.000000 
#    z 0.000000 0.000000 1.669390 
# 
# From -- ./inp_files/9711.got.cif
#   From: 2010.05.17/outbox.cif.g08.bks.cpg/sg131_5_cif.got.tgz:9711.got - 2010.05.20 12:21:01.
