data_PCOD9566139
_publ_section_title
;
Structure prediction by ZEFSAII (Michael W. Deem and Ramdas Pophale) SiO2 
 PCOD9566139
Probable space group: P 42/M M C
;
_chemical_formula_sum "Si O2"
_cell_formula_units_Z 104
_cell_length_a 17.484965
_cell_length_b 17.484965
_cell_length_c 17.732495
_cell_angle_alpha 90.000000
_cell_angle_beta 90.000000
_cell_angle_gamma 90.000000
_cell_volume 5421.249320
_symmetry_space_group_name_H-M "P 42/M M C"
_symmetry_group_IT_number 131
_symmetry_cell_setting 'tetragonal'
loop_
_space_group_symop_operation_xyz
x,y,z
-x,-y,z
-y,x,1/2+z
y,-x,1/2+z
-x,y,-z
x,-y,-z
y,x,1/2-z
-y,-x,1/2-z
-x,-y,-z
x,y,-z
y,-x,1/2-z
-y,x,1/2-z
x,-y,z
-x,y,z
-y,-x,1/2+z
y,x,1/2+z
loop_
_atom_site_type_symbol
_atom_site_label
_atom_site_fract_x
_atom_site_fract_y
_atom_site_fract_z
Si Si1 0.874233 0.912984 0.916513
Si Si2 0.086906 0.284288 0.821795
Si Si3 0.587953 0.873532 0.217129
Si Si4 0.293329 0.589310 0.784629
Si Si5 0.701125 0.764666 0.413199
Si Si6 0.138714 0.861287 0.250000
Si Si7 0.130462 0.301645 0.415687
O O1 0.895682 0.886362 0.831199
O O2 0.781753 0.908517 0.913788
O O3 0.899923 0.000000 0.920006
O O4 0.895416 0.878019 0.000000
O O5 0.090547 0.369340 0.788799
O O6 0.148607 0.278724 0.888131
O O7 0.120027 0.228686 0.755761
O O8 0.000000 0.263777 0.840387
O O9 0.500000 0.895104 0.211592
O O10 0.592538 0.781537 0.230656
O O11 0.637374 0.895890 0.144887
O O12 0.364192 0.635809 0.750000
O O13 0.309975 0.500000 0.798550
O O14 0.267300 0.635606 0.858973
O O15 0.678535 0.762427 0.500000
O O16 0.779596 0.717627 0.403650
O O17 0.120560 0.332132 0.500000
#
# Coordination Sequence:
#
# PCOD9566139 Si02
#       7
#    16  16  16  16  16   8  16
#     4  10  21  36  57  87 117 144 184 243 302 349
#     4  11  22  35  56  85 116 152 196 246 293 346
#     4  10  20  34  53  80 114 152 189 231 288 344
#     4  10  20  35  57  83 112 150 194 238 287 344
#     4  10  20  36  58  84 114 150 194 244 292 346
#     4  12  20  34  60  87 110 154 211 246 290 352
#     4  10  18  32  56  83 110 147 192 237 284 341
#
# _framework density 19.183769000000002
#
# number of rings (size 3 to 8) (size 9 to 14) (size 15 to 20)
#    0.000    1.692    4.615    0.462    2.154    1.385 
#    0.000    0.000    0.000    5.538    0.000   12.923 
#    0.000    0.000    0.000    0.000    0.000    0.000 
#
# Total GULP energy -579789.142333 kJ/mol
# GULP energy per Si atom -5574.895599 kJ/mol
# Density = 1.914011 g / cm^3
# Si number density = 19.183769 Si / 1000 Ang^3
#
#
#
# Elastic Constant Matrix: (Units=GPa)
#
#
# Indices 1 2 3 4 5 6 
#
# 1 74.2464 5.3639 21.7231 0.0000 0.0000 0.0000
# 2 5.3639 74.2473 21.7240 0.0000 0.0000 0.0000
# 3 21.7231 21.7240 124.2624 0.0000 0.0000 0.0000
# 4 0.0000 0.0000 0.0000 13.6672 0.0000 0.0000
# 5 0.0000 0.0000 0.0000 0.0000 13.6675 0.0000
# 6 0.0000 0.0000 0.0000 0.0000 0.0000 -10.0516
#
#
#
# Elastic Compliance Matrix: (Units=1/GPa)
#
#
# Indices 1 2 3 4 5 6 
#
# 1 0.014202 -0.000316 -0.002427 0.000000 0.000000 0.000000
# 2 -0.000316 0.014202 -0.002428 0.000000 0.000000 0.000000
# 3 -0.002427 -0.002428 0.008896 0.000000 0.000000 0.000000
# 4 0.000000 0.000000 0.000000 0.073168 0.000000 0.000000
# 5 0.000000 0.000000 0.000000 0.000000 0.073166 0.000000
# 6 0.000000 0.000000 0.000000 0.000000 0.000000 -0.099487
#
#
# Mechanical properties :
#
#
# Convention : Reuss Voigt Hill
#
# Bulk Modulus (GPa) = 37.09478 41.15311 39.12394
# Shear Modulus (GPa) = 48.32108 18.38630 33.35369
#
# Velocity S-wave (km/s) = 5.02426 3.09921 4.17422
# Velocity P-wave (km/s) = 7.28259 5.85708 6.60839
#
# Compressibility (1/GPa) = 0.02695797
#
# Stress axis : x y z
#
# Youngs Moduli (GPa) = 70.41402 70.41460 112.40694
#
# Poissons Ratio (x) = 0.02223 0.27287
# Poissons Ratio (y) = 0.02223 0.27288
# Poissons Ratio (z) = 0.17093 0.17094
#
# Static dielectric constant tensor:
#      x y z
#    x 1.688370 0.000000 0.000000 
#    y 0.000000 1.688370 0.000000 
#    z 0.000000 0.000000 1.704750 
# 
# From -- ./inp_files/8060.got.cif
#   From: 2010.05.17/outbox.cif.g08.bks.cpg/sg131_5_cif.got.tgz:8060.got - 2010.05.20 12:21:01.
