data_PCOD9566085
_publ_section_title
;
Structure prediction by ZEFSAII (Michael W. Deem and Ramdas Pophale) SiO2 
 PCOD9566085
Probable space group: P 42/M M C
;
_chemical_formula_sum "Si O2"
_cell_formula_units_Z 104
_cell_length_a 18.802072
_cell_length_b 18.802072
_cell_length_c 16.569961
_cell_angle_alpha 90.000000
_cell_angle_beta 90.000000
_cell_angle_gamma 90.000000
_cell_volume 5857.778006
_symmetry_space_group_name_H-M "P 42/M M C"
_symmetry_group_IT_number 131
_symmetry_cell_setting 'tetragonal'
loop_
_space_group_symop_operation_xyz
x,y,z
-x,-y,z
-y,x,1/2+z
y,-x,1/2+z
-x,y,-z
x,-y,-z
y,x,1/2-z
-y,-x,1/2-z
-x,-y,-z
x,y,-z
y,-x,1/2-z
-y,x,1/2-z
x,-y,z
-x,y,z
-y,-x,1/2+z
y,x,1/2+z
loop_
_atom_site_type_symbol
_atom_site_label
_atom_site_fract_x
_atom_site_fract_y
_atom_site_fract_z
Si Si1 0.918725 0.918725 0.750000
Si Si2 0.139982 0.136925 0.411585
Si Si3 0.296685 0.799411 0.907845
Si Si4 0.235728 0.345849 0.095591
Si Si5 0.500000 0.078989 0.697655
Si Si6 0.290632 0.079296 0.631088
Si Si7 0.645400 0.920615 0.799233
Si Si8 0.780668 0.500000 0.097492
O O1 0.903801 0.874179 0.669676
O O2 0.000000 0.907943 0.774852
O O3 0.107378 0.121488 0.500000
O O4 0.166040 0.218219 0.412081
O O5 0.211189 0.089859 0.400878
O O6 0.280566 0.721013 0.871266
O O7 0.343454 0.854045 0.857086
O O8 0.323350 0.793242 0.000000
O O9 0.150707 0.331932 0.104672
O O10 0.252425 0.425055 0.125794
O O11 0.249210 0.344274 0.000000
O O12 0.429797 0.084883 0.752898
O O13 0.500000 0.139542 0.631223
O O14 0.500000 0.000000 0.661568
O O15 0.295520 0.082001 0.728290
O O16 0.317374 0.000000 0.607791
O O17 0.649226 0.000000 0.837066
O O18 0.780863 0.500000 0.000000
#
# Coordination Sequence:
#
# PCOD9566085 Si02
#       8
#     8  16  16  16   8  16  16   8
#     4  11  24  38  50  66  90 122 164 212 270 339
#     4  10  21  36  53  72  95 123 162 216 269 315
#     4   9  19  35  52  73  97 125 170 219 263 309
#     4   9  18  30  46  70  99 130 165 207 250 304
#     4  10  20  35  47  70 106 138 171 205 246 303
#     4  10  18  29  46  68  96 127 162 202 250 305
#     4  10  20  33  51  72 102 139 171 212 258 305
#     4  10  18  31  48  69 103 141 170 201 254 315
#
# _framework density 17.754170999999999
#
# number of rings (size 3 to 8) (size 9 to 14) (size 15 to 20)
#    0.000    2.231    1.538    2.769    0.000    6.615 
#    0.000    4.231    0.000    1.385    0.000    0.000 
#    0.000    0.615    0.000    6.308    0.000    3.615 
#
# Total GULP energy -579263.120067 kJ/mol
# GULP energy per Si atom -5569.837693 kJ/mol
# Density = 1.771376 g / cm^3
# Si number density = 17.754171 Si / 1000 Ang^3
#
#
#
# Elastic Constant Matrix: (Units=GPa)
#
#
# Indices 1 2 3 4 5 6 
#
# 1 39.9513 19.5845 7.1485 0.0000 0.0000 0.0000
# 2 19.5845 39.9513 7.1485 0.0000 0.0000 0.0000
# 3 7.1485 7.1485 45.7857 0.0000 0.0000 0.0000
# 4 0.0000 0.0000 0.0000 11.4280 0.0000 0.0000
# 5 0.0000 0.0000 0.0000 0.0000 11.4280 0.0000
# 6 0.0000 0.0000 0.0000 0.0000 0.0000 18.5788
#
#
#
# Elastic Compliance Matrix: (Units=1/GPa)
#
#
# Indices 1 2 3 4 5 6 
#
# 1 0.033275 -0.015824 -0.002725 0.000000 0.000000 0.000000
# 2 -0.015824 0.033275 -0.002725 0.000000 0.000000 0.000000
# 3 -0.002725 -0.002725 0.022692 0.000000 0.000000 0.000000
# 4 0.000000 0.000000 0.000000 0.087505 0.000000 0.000000
# 5 0.000000 0.000000 0.000000 0.000000 0.087505 0.000000
# 6 0.000000 0.000000 0.000000 0.000000 0.000000 0.053825
#
#
# Mechanical properties :
#
#
# Convention : Reuss Voigt Hill
#
# Bulk Modulus (GPa) = 21.41555 21.49459 21.45507
# Shear Modulus (GPa) = 13.29122 14.40739 13.84930
#
# Velocity S-wave (km/s) = 2.73907 2.85176 2.79598
# Velocity P-wave (km/s) = 4.70019 4.79338 4.74701
#
# Compressibility (1/GPa) = 0.04669505
#
# Stress axis : x y z
#
# Youngs Moduli (GPa) = 30.05242 30.05242 44.06898
#
# Poissons Ratio (x) = 0.47556 0.12007
# Poissons Ratio (y) = 0.47556 0.12007
# Poissons Ratio (z) = 0.08188 0.08188
#
# Static dielectric constant tensor:
#      x y z
#    x 1.630820 0.000000 0.000000 
#    y 0.000000 1.630820 0.000000 
#    z 0.000000 0.000000 1.641230 
# 
# From -- ./inp_files/8143.got.cif
#   From: 2010.05.17/outbox.cif.g08.bks.cpg/sg131_5_cif.got.tgz:8143.got - 2010.05.20 12:21:01.
