data_PCOD9566964
_publ_section_title
;
Structure prediction by ZEFSAII (Michael W. Deem and Ramdas Pophale) SiO2 
 PCOD9566964
Probable space group: P 42/M C M
;
_chemical_formula_sum "Si O2"
_cell_formula_units_Z 80
_cell_length_a 23.561498
_cell_length_b 23.561498
_cell_length_c 8.647474
_cell_angle_alpha 90.000000
_cell_angle_beta 90.000000
_cell_angle_gamma 90.000000
_cell_volume 4800.594932
_symmetry_space_group_name_H-M "P 42/M C M"
_symmetry_group_IT_number 132
_symmetry_cell_setting 'tetragonal'
loop_
_space_group_symop_operation_xyz
x,y,z
-y,x,1/2+z
-x,-y,z
y,-x,1/2+z
x,-y,1/2-z
-x,y,1/2-z
y,x,-z
-y,-x,-z
-x,-y,-z
y,-x,1/2-z
x,y,-z
-y,x,1/2-z
-x,y,1/2+z
x,-y,1/2+z
-y,-x,z
y,x,z
loop_
_atom_site_type_symbol
_atom_site_label
_atom_site_fract_x
_atom_site_fract_y
_atom_site_fract_z
Si Si1 0.062734 0.241043 0.315180
Si Si2 0.243847 0.243847 0.819795
Si Si3 0.843826 0.843826 0.685436
Si Si4 0.562084 0.782258 0.685948
Si Si5 0.342873 0.563070 0.313827
Si Si6 0.159133 0.671503 0.814544
O O1 0.059368 0.246261 0.500000
O O2 0.093576 0.180346 0.283256
O O3 0.105472 0.291173 0.258106
O O4 0.000000 0.244816 0.250000
O O5 0.196140 0.196140 0.787587
O O6 0.216706 0.297963 0.739532
O O7 0.253346 0.253346 0.000000
O O8 0.833061 0.833061 0.500000
O O9 0.500000 0.794903 0.750000
O O10 0.560906 0.778803 0.500000
O O11 0.577915 0.719785 0.750211
O O12 0.606763 0.831037 0.732838
O O13 0.356685 0.500000 0.250000
O O14 0.340156 0.560455 0.500000
O O15 0.390167 0.609834 0.270283
O O16 0.156613 0.673914 0.000000
#
# Coordination Sequence:
#
# PCOD9566964 Si02
#       6
#    16   8   8  16  16  16
#     4   9  17  31  51  74 101 131 165 201 238 283
#     4  10  18  26  44  74  99 119 155 205 239 274
#     4   8  16  32  48  65 101 142 163 187 237 292
#     4  10  20  34  52  70  92 125 162 199 245 300
#     4  10  21  35  50  70  96 124 159 204 250 295
#     4   9  19  34  49  68  98 134 161 188 244 308
#
# _framework density 16.664601999999999
#
# number of rings (size 3 to 8) (size 9 to 14) (size 15 to 20)
#    0.000    2.600    0.000    4.500    1.400    6.600 
#    0.000    1.000    0.000    0.900    0.000    6.300 
#    0.000    0.000    0.000    0.000    0.000    0.000 
#
# Total GULP energy -445390.928189 kJ/mol
# GULP energy per Si atom -5567.386602 kJ/mol
# Density = 1.662667 g / cm^3
# Si number density = 16.664602 Si / 1000 Ang^3
#
#
#
# Elastic Constant Matrix: (Units=GPa)
#
#
# Indices 1 2 3 4 5 6 
#
# 1 11.6195 180.2159 23.7111 0.0000 0.0000 0.0000
# 2 180.2159 11.6195 23.7111 0.0000 0.0000 0.0000
# 3 23.7111 23.7111 13.3233 0.0000 0.0000 0.0000
# 4 0.0000 0.0000 0.0000 3.3696 0.0000 0.0000
# 5 0.0000 0.0000 0.0000 0.0000 3.3696 0.0000
# 6 0.0000 0.0000 0.0000 0.0000 0.0000 19.2594
#
#
#
# Elastic Compliance Matrix: (Units=1/GPa)
#
#
# Indices 1 2 3 4 5 6 
#
# 1 0.001688 0.007619 -0.016565 0.000000 0.000000 0.000000
# 2 0.007619 0.001688 -0.016565 0.000000 0.000000 0.000000
# 3 -0.016565 -0.016565 0.134016 0.000000 0.000000 0.000000
# 4 0.000000 0.000000 0.000000 0.296769 0.000000 0.000000
# 5 0.000000 0.000000 0.000000 0.000000 0.296769 0.000000
# 6 0.000000 0.000000 0.000000 0.000000 0.000000 0.051923
#
#
# Mechanical properties :
#
#
# Convention : Reuss Voigt Hill
#
# Bulk Modulus (GPa) = 11.57770 54.64872 33.11321
# Shear Modulus (GPa) = 5.79600 -7.53866 -0.87133
#
# Velocity S-wave (km/s) = 1.86697 -2.12922 -0.72388
# Velocity P-wave (km/s) = 3.40735 5.17878 4.38348
#
# Compressibility (1/GPa) = 0.08637292
#
# Stress axis : x y z
#
# Youngs Moduli (GPa) = 592.36573 592.36573 7.46180
#
# Poissons Ratio (x) = -4.51351 0.12360
# Poissons Ratio (y) = -4.51351 0.12360
# Poissons Ratio (z) = 9.81229 9.81229
#
# Static dielectric constant tensor:
#      x y z
#    x 1.538750 0.000000 0.000000 
#    y 0.000000 1.538750 0.000000 
#    z 0.000000 0.000000 1.562730 
# 
# From -- ./inp_files/1607.got.cif
#   From: 2010.05.17/outbox.cif.g08.bks.cpg/sg132_1_cif.got.tgz:1607.got - 2010.05.20 12:30:18.
