data_PCOD9566780
_publ_section_title
;
Structure prediction by ZEFSAII (Michael W. Deem and Ramdas Pophale) SiO2 
 PCOD9566780
Probable space group: P 42/M M C
;
_chemical_formula_sum "Si O2"
_cell_formula_units_Z 56
_cell_length_a 18.134057
_cell_length_b 18.134057
_cell_length_c 8.882726
_cell_angle_alpha 90.000000
_cell_angle_beta 90.000000
_cell_angle_gamma 90.000000
_cell_volume 2921.031356
_symmetry_space_group_name_H-M "P 42/M M C"
_symmetry_group_IT_number 131
_symmetry_cell_setting 'tetragonal'
loop_
_space_group_symop_operation_xyz
x,y,z
-x,-y,z
-y,x,1/2+z
y,-x,1/2+z
-x,y,-z
x,-y,-z
y,x,1/2-z
-y,-x,1/2-z
-x,-y,-z
x,y,-z
y,-x,1/2-z
-y,x,1/2-z
x,-y,z
-x,y,z
-y,-x,1/2+z
y,x,1/2+z
loop_
_atom_site_type_symbol
_atom_site_label
_atom_site_fract_x
_atom_site_fract_y
_atom_site_fract_z
Si Si1 0.500000 0.779409 0.172317
Si Si2 0.500000 0.394503 0.171030
Si Si3 0.199971 0.087684 0.317807
Si Si4 0.587478 0.000000 0.171586
Si Si5 0.358410 0.853058 0.321003
O O1 0.500000 0.692075 0.173537
O O2 0.421854 0.801876 0.247786
O O3 0.500000 0.808908 0.000000
O O4 0.429171 0.429171 0.250000
O O5 0.500000 0.419001 0.000000
O O6 0.128164 0.128164 0.250000
O O7 0.196426 0.088468 0.500000
O O8 0.272022 0.137709 0.274353
O O9 0.207290 0.000000 0.274109
O O10 0.611492 0.931438 0.269201
O O11 0.500000 0.000000 0.158885
O O12 0.617719 0.000000 0.000000
O O13 0.359676 0.841659 0.500000
#
# Coordination Sequence:
#
# PCOD9566780 Si02
#       5
#     8   8  16   8  16
#     4  11  24  39  58  94 131 160 202 251 296 355
#     4  10  22  41  65  87 117 156 203 254 298 351
#     4  10  23  43  63  88 120 155 204 258 311 373
#     4  11  21  33  55  87 119 152 195 238 284 351
#     4  11  22  38  60  86 121 160 198 241 294 359
#
# _framework density 19.171309000000001
#
# number of rings (size 3 to 8) (size 9 to 14) (size 15 to 20)
#    0.000    1.429    2.857    2.571    0.000    7.143 
#    0.000    7.143    0.000    0.000    0.000    0.000 
#    0.000    0.000    0.000    0.000    0.000    0.000 
#
# Total GULP energy -311829.109527 kJ/mol
# GULP energy per Si atom -5568.376956 kJ/mol
# Density = 1.912767 g / cm^3
# Si number density = 19.171309 Si / 1000 Ang^3
#
#
#
# Elastic Constant Matrix: (Units=GPa)
#
#
# Indices 1 2 3 4 5 6 
#
# 1 115.3421 47.7285 32.4603 0.0000 0.0000 0.0000
# 2 47.7285 115.3421 32.4603 0.0000 0.0000 0.0000
# 3 32.4603 32.4603 58.3449 0.0000 0.0000 0.0000
# 4 0.0000 0.0000 0.0000 32.0901 0.0000 0.0000
# 5 0.0000 0.0000 0.0000 0.0000 32.0901 0.0000
# 6 0.0000 0.0000 0.0000 0.0000 0.0000 -291.4652
#
#
#
# Elastic Compliance Matrix: (Units=1/GPa)
#
#
# Indices 1 2 3 4 5 6 
#
# 1 0.011333 -0.003456 -0.004382 0.000000 0.000000 0.000000
# 2 -0.003456 0.011333 -0.004382 0.000000 0.000000 0.000000
# 3 -0.004382 -0.004382 0.022016 0.000000 0.000000 0.000000
# 4 0.000000 0.000000 0.000000 0.031162 0.000000 0.000000
# 5 0.000000 0.000000 0.000000 0.000000 0.031162 0.000000
# 6 0.000000 0.000000 0.000000 0.000000 0.000000 -0.003431
#
#
# Mechanical properties :
#
#
# Convention : Reuss Voigt Hill
#
# Bulk Modulus (GPa) = 49.40656 57.14745 53.27701
# Shear Modulus (GPa) = 37.10153 -33.69831 1.70161
#
# Velocity S-wave (km/s) = 4.40393 -4.19710 0.94314
# Velocity P-wave (km/s) = 7.18934 2.52706 5.38853
#
# Compressibility (1/GPa) = 0.02024023
#
# Stress axis : x y z
#
# Youngs Moduli (GPa) = 88.23435 88.23435 45.42206
#
# Poissons Ratio (x) = 0.30498 0.19906
# Poissons Ratio (y) = 0.30498 0.19906
# Poissons Ratio (z) = 0.38668 0.38668
#
# Static dielectric constant tensor:
#      x y z
#    x 1.673520 0.000000 0.000000 
#    y 0.000000 1.673520 0.000000 
#    z 0.000000 0.000000 1.672300 
# 
# From -- ./inp_files/1272.got.cif
#   From: 2010.05.17/outbox.cif.g08.bks.cpg/sg131_1_cif.got.tgz:1272.got - 2010.05.20 12:21:01.
