data_PCOD9566359
_publ_section_title
;
Structure prediction by ZEFSAII (Michael W. Deem and Ramdas Pophale) SiO2 
 PCOD9566359
Probable space group: P 42/M M C
;
_chemical_formula_sum "Si O2"
_cell_formula_units_Z 120
_cell_length_a 27.600854
_cell_length_b 27.600854
_cell_length_c 8.264804
_cell_angle_alpha 90.000000
_cell_angle_beta 90.000000
_cell_angle_gamma 90.000000
_cell_volume 6296.186711
_symmetry_space_group_name_H-M "P 42/M M C"
_symmetry_group_IT_number 131
_symmetry_cell_setting 'tetragonal'
loop_
_space_group_symop_operation_xyz
x,y,z
-x,-y,z
-y,x,1/2+z
y,-x,1/2+z
-x,y,-z
x,-y,-z
y,x,1/2-z
-y,-x,1/2-z
-x,-y,-z
x,y,-z
y,-x,1/2-z
-y,x,1/2-z
x,-y,z
-x,y,z
-y,-x,1/2+z
y,x,1/2+z
loop_
_atom_site_type_symbol
_atom_site_label
_atom_site_fract_x
_atom_site_fract_y
_atom_site_fract_z
Si Si1 0.051869 0.338694 0.690033
Si Si2 0.866305 0.055565 0.695322
Si Si3 0.269443 0.347427 0.693140
Si Si4 0.444709 0.769132 0.304569
Si Si5 0.500000 0.054997 0.302051
Si Si6 0.586239 0.875697 0.693801
Si Si7 0.086450 0.241004 0.808341
Si Si8 0.807869 0.270576 0.304987
O O1 0.052760 0.348188 0.500000
O O2 0.099662 0.363206 0.762397
O O3 0.054796 0.281662 0.721708
O O4 0.000000 0.357166 0.757599
O O5 0.908740 0.091261 0.750000
O O6 0.865981 0.055353 0.500000
O O7 0.813549 0.075414 0.747943
O O8 0.872747 0.000000 0.750502
O O9 0.314511 0.314511 0.750000
O O10 0.269436 0.346857 0.500000
O O11 0.267546 0.402518 0.752716
O O12 0.219789 0.319859 0.747443
O O13 0.445591 0.770272 0.500000
O O14 0.500000 0.759530 0.250294
O O15 0.427656 0.822481 0.244592
O O16 0.500000 0.054146 0.500000
O O17 0.546569 0.085348 0.249413
O O18 0.500000 0.000000 0.244784
O O19 0.583250 0.872842 0.500000
O O20 0.141377 0.256985 0.773497
O O21 0.076816 0.243295 0.000000
O O22 0.770925 0.229076 0.250000
O O23 0.813407 0.271506 0.500000
#
# Coordination Sequence:
#
# PCOD9566359 Si02
#       8
#    16  16  16  16   8  16  16  16
#     4  11  24  38  51  72 104 139 178 227 282 335
#     4  10  23  42  62  85 110 134 164 204 252 313
#     4  10  21  36  55  80 112 151 191 231 278 329
#     4  10  20  35  55  81 113 145 183 231 281 331
#     4   9  16  28  49  75 101 135 189 249 292 331
#     4  10  19  34  55  78 104 141 189 237 285 334
#     4  11  22  37  58  81 106 139 177 218 267 323
#     4  10  20  34  53  80 114 146 180 220 265 320
#
# _framework density 19.059156000000002
#
# number of rings (size 3 to 8) (size 9 to 14) (size 15 to 20)
#    0.000    1.800    0.667    3.600    0.000    9.200 
#    0.000    1.000    0.000    1.200    0.000    0.000 
#    0.000    0.267    0.000    2.800    0.000    1.200 
#
# Total GULP energy -670090.146389 kJ/mol
# GULP energy per Si atom -5584.084553 kJ/mol
# Density = 1.901578 g / cm^3
# Si number density = 19.059156 Si / 1000 Ang^3
#
#
#
# Elastic Constant Matrix: (Units=GPa)
#
#
# Indices 1 2 3 4 5 6 
#
# 1 132.2404 58.7176 7.1155 0.0000 0.0000 0.0000
# 2 58.7176 132.2367 7.1120 0.0000 0.0000 0.0000
# 3 7.1155 7.1120 13.5981 0.0000 0.0000 0.0000
# 4 0.0000 0.0000 0.0000 29.3653 0.0000 0.0000
# 5 0.0000 0.0000 0.0000 0.0000 29.3531 0.0000
# 6 0.0000 0.0000 0.0000 0.0000 0.0000 17.5852
#
#
#
# Elastic Compliance Matrix: (Units=1/GPa)
#
#
# Indices 1 2 3 4 5 6 
#
# 1 0.009525 -0.004076 -0.002852 0.000000 0.000000 0.000000
# 2 -0.004076 0.009525 -0.002849 0.000000 0.000000 0.000000
# 3 -0.002852 -0.002849 0.076522 0.000000 0.000000 0.000000
# 4 0.000000 0.000000 0.000000 0.034054 0.000000 0.000000
# 5 0.000000 0.000000 0.000000 0.000000 0.034068 0.000000
# 6 0.000000 0.000000 0.000000 0.000000 0.000000 0.056866
#
#
# Mechanical properties :
#
#
# Convention : Reuss Voigt Hill
#
# Bulk Modulus (GPa) = 13.15477 47.10725 30.13101
# Shear Modulus (GPa) = 18.83555 28.93606 23.88581
#
# Velocity S-wave (km/s) = 3.14708 3.90067 3.54396
# Velocity P-wave (km/s) = 4.48582 6.71245 5.70874
#
# Compressibility (1/GPa) = 0.07601806
#
# Stress axis : x y z
#
# Youngs Moduli (GPa) = 104.98266 104.98268 13.06806
#
# Poissons Ratio (x) = 0.42793 0.03728
# Poissons Ratio (y) = 0.42793 0.03723
# Poissons Ratio (z) = 0.29946 0.29909
#
# Static dielectric constant tensor:
#      x y z
#    x 1.672400 0.000000 0.000000 
#    y 0.000000 1.672390 0.000000 
#    z 0.000000 0.000000 1.664440 
# 
# From -- ./inp_files/2650.got.cif
#   From: 2010.05.17/outbox.cif.g08.bks.cpg/sg131_2_cif.got.tgz:2650.got - 2010.05.20 12:21:01.
