data_PCOD9566204
_publ_section_title
;
Structure prediction by ZEFSAII (Michael W. Deem and Ramdas Pophale) SiO2 
 PCOD9566204
Probable space group: P 42/M M C
;
_chemical_formula_sum "Si O2"
_cell_formula_units_Z 96
_cell_length_a 25.043474
_cell_length_b 25.043474
_cell_length_c 7.608445
_cell_angle_alpha 90.000000
_cell_angle_beta 90.000000
_cell_angle_gamma 90.000000
_cell_volume 4771.830982
_symmetry_space_group_name_H-M "P 42/M M C"
_symmetry_group_IT_number 131
_symmetry_cell_setting 'tetragonal'
loop_
_space_group_symop_operation_xyz
x,y,z
-x,-y,z
-y,x,1/2+z
y,-x,1/2+z
-x,y,-z
x,-y,-z
y,x,1/2-z
-y,-x,1/2-z
-x,-y,-z
x,y,-z
y,-x,1/2-z
-y,x,1/2-z
x,-y,z
-x,y,z
-y,-x,1/2+z
y,x,1/2+z
loop_
_atom_site_type_symbol
_atom_site_label
_atom_site_fract_x
_atom_site_fract_y
_atom_site_fract_z
Si Si1 0.266216 0.647064 0.788660
Si Si2 0.647901 0.439099 0.788756
Si Si3 0.438158 0.941026 0.285421
Si Si4 0.145976 0.941413 0.789689
Si Si5 0.939930 0.732499 0.712564
Si Si6 0.854683 0.356214 0.207676
O O1 0.299145 0.700856 0.750000
O O2 0.302763 0.597615 0.723266
O O3 0.205443 0.647743 0.721042
O O4 0.264318 0.642545 0.000000
O O5 0.594087 0.405914 0.750000
O O6 0.647686 0.500000 0.722641
O O7 0.652641 0.441558 0.000000
O O8 0.435820 0.940944 0.500000
O O9 0.500000 0.935735 0.236893
O O10 0.403197 0.892110 0.218623
O O11 0.419151 0.000000 0.228341
O O12 0.104923 0.895078 0.750000
O O13 0.206436 0.932047 0.727271
O O14 0.128279 0.000000 0.724995
O O15 0.149597 0.944317 0.000000
O O16 0.940020 0.731365 0.500000
O O17 0.891478 0.695885 0.772895
O O18 0.000000 0.715542 0.769991
O O19 0.848690 0.366651 0.000000
#
# Coordination Sequence:
#
# PCOD9566204 Si02
#       6
#    16  16  16  16  16  16
#     4   9  19  34  49  68  96 128 160 196 239 283
#     4   9  18  33  52  73  99 131 164 199 241 288
#     4   8  14  25  42  67  98 124 145 180 232 279
#     4   9  19  35  52  71  96 125 157 193 236 287
#     4   9  19  35  51  68  95 129 160 194 240 288
#     4  10  19  30  49  75  96 120 161 204 236 276
#
# _framework density 20.118061999999998
#
# number of rings (size 3 to 8) (size 9 to 14) (size 15 to 20)
#    0.000    3.000    0.000    2.000    0.000    4.667 
#    0.000   10.000    0.000    0.500    0.000    4.667 
#    0.000    0.000    0.000    0.000    0.000    0.000 
#
# Total GULP energy -535299.307273 kJ/mol
# GULP energy per Si atom -5576.034451 kJ/mol
# Density = 2.007227 g / cm^3
# Si number density = 20.118062 Si / 1000 Ang^3
#
#
#
# Elastic Constant Matrix: (Units=GPa)
#
#
# Indices 1 2 3 4 5 6 
#
# 1 187.3767 119.5920 2.4689 0.0000 0.0000 0.0000
# 2 119.5920 187.3774 2.4697 0.0000 0.0000 0.0000
# 3 2.4689 2.4697 40.7510 0.0000 0.0000 0.0000
# 4 0.0000 0.0000 0.0000 20.1676 0.0000 0.0000
# 5 0.0000 0.0000 0.0000 0.0000 20.1675 0.0000
# 6 0.0000 0.0000 0.0000 0.0000 0.0000 38.7785
#
#
#
# Elastic Compliance Matrix: (Units=1/GPa)
#
#
# Indices 1 2 3 4 5 6 
#
# 1 0.009007 -0.005746 -0.000197 0.000000 0.000000 0.000000
# 2 -0.005746 0.009007 -0.000198 0.000000 0.000000 0.000000
# 3 -0.000197 -0.000198 0.024563 0.000000 0.000000 0.000000
# 4 0.000000 0.000000 0.000000 0.049585 0.000000 0.000000
# 5 0.000000 0.000000 0.000000 0.000000 0.049585 0.000000
# 6 0.000000 0.000000 0.000000 0.000000 0.000000 0.025787
#
#
# Mechanical properties :
#
#
# Convention : Reuss Voigt Hill
#
# Bulk Modulus (GPa) = 33.00928 73.84071 53.42499
# Shear Modulus (GPa) = 26.32780 35.22104 30.77442
#
# Velocity S-wave (km/s) = 3.62147 4.18870 3.91537
# Velocity P-wave (km/s) = 5.82496 7.75738 6.85956
#
# Compressibility (1/GPa) = 0.03029451
#
# Stress axis : x y z
#
# Youngs Moduli (GPa) = 111.02864 111.02902 40.71130
#
# Poissons Ratio (x) = 0.63795 0.00804
# Poissons Ratio (y) = 0.63795 0.00805
# Poissons Ratio (z) = 0.02192 0.02195
#
# Static dielectric constant tensor:
#      x y z
#    x 1.707990 0.000000 0.000000 
#    y 0.000000 1.708000 0.000000 
#    z 0.000000 0.000000 1.772610 
# 
# From -- ./inp_files/2221.got.cif
#   From: 2010.05.17/outbox.cif.g08.bks.cpg/sg131_2_cif.got.tgz:2221.got - 2010.05.20 12:21:01.
