data_PCOD9566314
_publ_section_title
;
Structure prediction by ZEFSAII (Michael W. Deem and Ramdas Pophale) SiO2 
 PCOD9566314
Probable space group: P 42/M M C
;
_chemical_formula_sum "Si O2"
_cell_formula_units_Z 80
_cell_length_a 17.082906
_cell_length_b 17.082906
_cell_length_c 14.010910
_cell_angle_alpha 90.000000
_cell_angle_beta 90.000000
_cell_angle_gamma 90.000000
_cell_volume 4088.743302
_symmetry_space_group_name_H-M "P 42/M M C"
_symmetry_group_IT_number 131
_symmetry_cell_setting 'tetragonal'
loop_
_space_group_symop_operation_xyz
x,y,z
-x,-y,z
-y,x,1/2+z
y,-x,1/2+z
-x,y,-z
x,-y,-z
y,x,1/2-z
-y,-x,1/2-z
-x,-y,-z
x,y,-z
y,-x,1/2-z
-y,x,1/2-z
x,-y,z
-x,y,z
-y,-x,1/2+z
y,x,1/2+z
loop_
_atom_site_type_symbol
_atom_site_label
_atom_site_fract_x
_atom_site_fract_y
_atom_site_fract_z
Si Si1 0.761313 0.590548 0.688217
Si Si2 0.086476 0.872958 0.356638
Si Si3 0.882243 0.261008 0.101448
Si Si4 0.915510 0.310441 0.687726
Si Si5 0.654493 0.721727 0.392167
O O1 0.763003 0.500000 0.662880
O O2 0.842854 0.634310 0.665551
O O3 0.694749 0.639712 0.633711
O O4 0.744619 0.600239 0.802380
O O5 0.093613 0.906388 0.250000
O O6 0.168603 0.898968 0.400436
O O7 0.091556 0.778023 0.352430
O O8 0.000000 0.893524 0.393859
O O9 0.915377 0.297583 0.197543
O O10 0.789107 0.278236 0.109265
O O11 0.907684 0.295662 0.000000
O O12 0.000000 0.342024 0.657467
O O13 0.621439 0.721631 0.500000
#
# Coordination Sequence:
#
# PCOD9566314 Si02
#       5
#    16  16  16  16  16
#     4  10  19  32  54  81 104 131 170 205 241 301
#     4   9  16  27  43  62  88 124 164 204 249 295
#     4   9  16  28  47  67  89 124 169 210 246 289
#     4   9  17  30  46  67  99 133 164 201 247 297
#     4   9  18  34  53  74 103 133 165 208 248 287
#
# _framework density 19.565915
#
# number of rings (size 3 to 8) (size 9 to 14) (size 15 to 20)
#    0.000    2.800    2.000    0.000    0.000    2.200 
#    0.000    0.000    0.000    5.400    0.000   18.200 
#    0.000    0.000    0.000    0.000    0.000    0.000 
#
# Total GULP energy -445641.730789 kJ/mol
# GULP energy per Si atom -5570.521635 kJ/mol
# Density = 1.952138 g / cm^3
# Si number density = 19.565915 Si / 1000 Ang^3
#
#
#
# Elastic Constant Matrix: (Units=GPa)
#
#
# Indices 1 2 3 4 5 6 
#
# 1 91.3033 8.8551 -19.2402 0.0000 0.0000 0.0000
# 2 8.8551 91.3034 -19.2400 0.0000 0.0000 0.0000
# 3 -19.2402 -19.2400 35.4718 0.0000 0.0000 0.0000
# 4 0.0000 0.0000 0.0000 -117.4903 0.0000 0.0000
# 5 0.0000 0.0000 0.0000 0.0000 -117.4000 0.0000
# 6 0.0000 0.0000 0.0000 0.0000 0.0000 5.9347
#
#
#
# Elastic Compliance Matrix: (Units=1/GPa)
#
#
# Indices 1 2 3 4 5 6 
#
# 1 0.012371 0.000242 0.006841 0.000000 0.000000 0.000000
# 2 0.000242 0.012371 0.006841 0.000000 0.000000 0.000000
# 3 0.006841 0.006841 0.035613 0.000000 0.000000 0.000000
# 4 0.000000 0.000000 0.000000 -0.008511 0.000000 0.000000
# 5 0.000000 0.000000 0.000000 0.000000 -0.008518 0.000000
# 6 0.000000 0.000000 0.000000 0.000000 0.000000 0.168499
#
#
# Mechanical properties :
#
#
# Convention : Reuss Voigt Hill
#
# Bulk Modulus (GPa) = 11.33763 17.64760 14.49262
# Shear Modulus (GPa) = 23.43274 -29.27753 -2.92240
#
# Velocity S-wave (km/s) = 3.46443 -3.87247 -1.22346
# Velocity P-wave (km/s) = 4.67014 3.30992 2.32967
#
# Compressibility (1/GPa) = 0.08820183
#
# Stress axis : x y z
#
# Youngs Moduli (GPa) = 80.83634 80.83671 28.07992
#
# Poissons Ratio (x) = -0.01955 -0.19210
# Poissons Ratio (y) = -0.01955 -0.19210
# Poissons Ratio (z) = -0.55301 -0.55300
#
# Static dielectric constant tensor:
#      x y z
#    x 1.677410 0.000000 0.000000 
#    y 0.000000 1.677410 0.000000 
#    z 0.000000 0.000000 1.813560 
# 
# From -- ./inp_files/5688.got.cif
#   From: 2010.05.17/outbox.cif.g08.bks.cpg/sg131_3_cif.got.tgz:5688.got - 2010.05.20 12:21:01.
