data_PCOD9566142
_publ_section_title
;
Structure prediction by ZEFSAII (Michael W. Deem and Ramdas Pophale) SiO2 
 PCOD9566142
Probable space group: P 42/M M C
;
_chemical_formula_sum "Si O2"
_cell_formula_units_Z 96
_cell_length_a 17.156049
_cell_length_b 17.156049
_cell_length_c 18.692598
_cell_angle_alpha 90.000000
_cell_angle_beta 90.000000
_cell_angle_gamma 90.000000
_cell_volume 5501.792693
_symmetry_space_group_name_H-M "P 42/M M C"
_symmetry_group_IT_number 131
_symmetry_cell_setting 'tetragonal'
loop_
_space_group_symop_operation_xyz
x,y,z
-x,-y,z
-y,x,1/2+z
y,-x,1/2+z
-x,y,-z
x,-y,-z
y,x,1/2-z
-y,-x,1/2-z
-x,-y,-z
x,y,-z
y,-x,1/2-z
-y,x,1/2-z
x,-y,z
-x,y,z
-y,-x,1/2+z
y,x,1/2+z
loop_
_atom_site_type_symbol
_atom_site_label
_atom_site_fract_x
_atom_site_fract_y
_atom_site_fract_z
Si Si1 0.592944 0.911688 0.576461
Si Si2 0.588576 0.726969 0.085296
Si Si3 0.347781 0.589631 0.817735
Si Si4 0.677736 0.190608 0.315724
Si Si5 0.743235 0.814531 0.085638
Si Si6 0.208921 0.092626 0.215510
O O1 0.618750 0.876625 0.500000
O O2 0.500000 0.914260 0.575176
O O3 0.619585 0.865856 0.644383
O O4 0.622594 0.000000 0.579500
O O5 0.500000 0.744132 0.109043
O O6 0.618731 0.647772 0.122319
O O7 0.651305 0.795790 0.098401
O O8 0.588132 0.715063 0.000000
O O9 0.404378 0.595623 0.750000
O O10 0.337335 0.500000 0.840419
O O11 0.266018 0.628702 0.792617
O O12 0.740331 0.216042 0.376210
O O13 0.724017 0.143640 0.255321
O O14 0.777291 0.886096 0.131980
O O15 0.756165 0.819263 0.000000
O O16 0.130222 0.130222 0.250000
O O17 0.213733 0.000000 0.227697
#
# Coordination Sequence:
#
# PCOD9566142 Si02
#       6
#    16  16  16  16  16  16
#     4   9  17  28  44  69  99 128 157 195 248 302
#     4   9  18  33  52  73 100 136 175 215 258 300
#     4  11  22  33  47  68  96 132 173 217 261 300
#     4  10  18  33  51  71  97 130 171 208 243 296
#     4   9  18  33  54  78 101 130 170 210 248 293
#     4  10  21  36  56  80 104 131 162 199 247 305
#
# _framework density 17.448858999999999
#
# number of rings (size 3 to 8) (size 9 to 14) (size 15 to 20)
#    0.000    2.333    0.000    5.000    0.000    2.667 
#    0.000    1.667    0.000    7.000    0.000    7.000 
#    0.000    0.000    0.000    0.000    0.000    0.000 
#
# Total GULP energy -534656.458073 kJ/mol
# GULP energy per Si atom -5569.338105 kJ/mol
# Density = 1.740914 g / cm^3
# Si number density = 17.448859 Si / 1000 Ang^3
#
#
#
# Elastic Constant Matrix: (Units=GPa)
#
#
# Indices 1 2 3 4 5 6 
#
# 1 77.4573 30.6830 29.7198 0.0000 0.0000 0.0000
# 2 30.6830 77.4578 29.7196 0.0000 0.0000 0.0000
# 3 29.7198 29.7196 78.2247 0.0000 0.0000 0.0000
# 4 0.0000 0.0000 0.0000 22.1231 0.0000 0.0000
# 5 0.0000 0.0000 0.0000 0.0000 22.1231 0.0000
# 6 0.0000 0.0000 0.0000 0.0000 0.0000 17.3456
#
#
#
# Elastic Compliance Matrix: (Units=1/GPa)
#
#
# Indices 1 2 3 4 5 6 
#
# 1 0.016534 -0.004846 -0.004441 0.000000 0.000000 0.000000
# 2 -0.004846 0.016533 -0.004441 0.000000 0.000000 0.000000
# 3 -0.004441 -0.004441 0.016158 0.000000 0.000000 0.000000
# 4 0.000000 0.000000 0.000000 0.045202 0.000000 0.000000
# 5 0.000000 0.000000 0.000000 0.000000 0.045202 0.000000
# 6 0.000000 0.000000 0.000000 0.000000 0.000000 0.057652
#
#
# Mechanical properties :
#
#
# Convention : Reuss Voigt Hill
#
# Bulk Modulus (GPa) = 45.93158 45.93164 45.93161
# Shear Modulus (GPa) = 21.55261 21.85286 21.70274
#
# Velocity S-wave (km/s) = 3.51834 3.54276 3.53057
# Velocity P-wave (km/s) = 6.54871 6.56624 6.55748
#
# Compressibility (1/GPa) = 0.02177151
#
# Stress axis : x y z
#
# Youngs Moduli (GPa) = 60.48267 60.48335 61.88933
#
# Poissons Ratio (x) = 0.29308 0.27483
# Poissons Ratio (y) = 0.29307 0.27482
# Poissons Ratio (z) = 0.26858 0.26858
#
# Static dielectric constant tensor:
#      x y z
#    x 1.602100 0.000000 0.000000 
#    y 0.000000 1.602100 0.000000 
#    z 0.000000 0.000000 1.629200 
# 
# From -- ./inp_files/7929.got.cif
#   From: 2010.05.17/outbox.cif.g08.bks.cpg/sg131_4_cif.got.tgz:7929.got - 2010.05.20 12:21:01.
