data_PCOD9566628
_publ_section_title
;
Structure prediction by ZEFSAII (Michael W. Deem and Ramdas Pophale) SiO2 
 PCOD9566628
Probable space group: P 42/M M C
;
_chemical_formula_sum "Si O2"
_cell_formula_units_Z 108
_cell_length_a 15.215939
_cell_length_b 15.215939
_cell_length_c 23.945686
_cell_angle_alpha 90.000000
_cell_angle_beta 90.000000
_cell_angle_gamma 90.000000
_cell_volume 5544.020154
_symmetry_space_group_name_H-M "P 42/M M C"
_symmetry_group_IT_number 131
_symmetry_cell_setting 'tetragonal'
loop_
_space_group_symop_operation_xyz
x,y,z
-x,-y,z
-y,x,1/2+z
y,-x,1/2+z
-x,y,-z
x,-y,-z
y,x,1/2-z
-y,-x,1/2-z
-x,-y,-z
x,y,-z
y,-x,1/2-z
-y,x,1/2-z
x,-y,z
-x,y,z
-y,-x,1/2+z
y,x,1/2+z
loop_
_atom_site_type_symbol
_atom_site_label
_atom_site_fract_x
_atom_site_fract_y
_atom_site_fract_z
Si Si1 0.605481 0.899443 0.500000
Si Si2 0.401614 0.270137 0.067004
Si Si3 0.165697 0.869667 0.435324
Si Si4 0.235644 0.904091 0.770238
Si Si5 0.000000 0.000000 0.077827
Si Si6 0.323967 0.095523 0.347487
Si Si7 0.601381 0.242827 0.404834
Si Si8 0.104178 0.685921 0.608267
O O1 0.500000 0.908268 0.500000
O O2 0.625283 0.834518 0.551100
O O3 0.639586 0.000000 0.500000
O O4 0.500000 0.302704 0.079802
O O5 0.324953 0.334209 0.089483
O O6 0.389250 0.172405 0.091408
O O7 0.391871 0.267248 0.000000
O O8 0.195090 0.885182 0.500000
O O9 0.077809 0.925129 0.425259
O O10 0.236556 0.893098 0.386823
O O11 0.137533 0.768835 0.427937
O O12 0.163207 0.836794 0.750000
O O13 0.297791 0.910580 0.716898
O O14 0.285268 0.881301 0.827280
O O15 0.194071 0.000000 0.780653
O O16 0.382218 0.183246 0.350939
O O17 0.364376 0.000000 0.363940
O O18 0.500000 0.268264 0.412709
O O19 0.000000 0.669007 0.600192
#
# Coordination Sequence:
#
# PCOD9566628 Si02
#       8
#     8  16  16  16   4  16  16  16
#     4   9  18  32  53  85 122 159 197 233 281 355
#     4  11  24  42  65  93 123 158 205 260 322 383
#     4  12  22  33  53  80 120 164 204 250 300 359
#     4  10  20  37  55  82 118 165 211 263 310 359
#     4  12  25  36  48  85 126 169 220 252 301 368
#     4  11  23  37  57  87 124 164 208 250 301 369
#     4  11  22  39  61  88 124 161 199 248 307 374
#     4  11  23  40  62  85 117 161 211 262 312 359
#
# _framework density 19.480449
#
# number of rings (size 3 to 8) (size 9 to 14) (size 15 to 20)
#    0.000    1.111    5.185    1.556    1.037    2.519 
#    0.000    2.222    0.000    2.667    0.000    0.000 
#    0.000    3.556    0.000    0.000    0.000    0.000 
#
# Total GULP energy -601295.671057 kJ/mol
# GULP energy per Si atom -5567.552510 kJ/mol
# Density = 1.943611 g / cm^3
# Si number density = 19.480449 Si / 1000 Ang^3
#
#
#
# Elastic Constant Matrix: (Units=GPa)
#
#
# Indices 1 2 3 4 5 6 
#
# 1 107.8832 48.5723 15.6649 0.0000 0.0000 0.0000
# 2 48.5723 107.8835 15.6657 0.0000 0.0000 0.0000
# 3 15.6649 15.6657 59.3673 0.0000 0.0000 0.0000
# 4 0.0000 0.0000 0.0000 16.9548 0.0000 0.0000
# 5 0.0000 0.0000 0.0000 0.0000 16.9547 0.0000
# 6 0.0000 0.0000 0.0000 0.0000 0.0000 27.1195
#
#
#
# Elastic Compliance Matrix: (Units=1/GPa)
#
#
# Indices 1 2 3 4 5 6 
#
# 1 0.011804 -0.005056 -0.001781 0.000000 0.000000 0.000000
# 2 -0.005056 0.011804 -0.001781 0.000000 0.000000 0.000000
# 3 -0.001781 -0.001781 0.017784 0.000000 0.000000 0.000000
# 4 0.000000 0.000000 0.000000 0.058980 0.000000 0.000000
# 5 0.000000 0.000000 0.000000 0.000000 0.058981 0.000000
# 6 0.000000 0.000000 0.000000 0.000000 0.000000 0.036874
#
#
# Mechanical properties :
#
#
# Convention : Reuss Voigt Hill
#
# Bulk Modulus (GPa) = 41.39458 48.32665 44.86062
# Shear Modulus (GPa) = 22.57190 25.22122 23.89656
#
# Velocity S-wave (km/s) = 3.40765 3.60209 3.50622
# Velocity P-wave (km/s) = 6.06451 6.49320 6.28251
#
# Compressibility (1/GPa) = 0.02415775
#
# Stress axis : x y z
#
# Youngs Moduli (GPa) = 84.71561 84.71551 56.23029
#
# Poissons Ratio (x) = 0.42832 0.10012
# Poissons Ratio (y) = 0.42833 0.10013
# Poissons Ratio (z) = 0.15084 0.15086
#
# Static dielectric constant tensor:
#      x y z
#    x 1.719230 0.000000 0.000000 
#    y 0.000000 1.719230 0.000000 
#    z 0.000000 0.000000 1.900990 
# 
# From -- ./inp_files/11336.got.cif
#   From: 2010.05.17/outbox.cif.g08.bks.cpg/sg131_6_cif.got.tgz:11336.got - 2010.05.20 12:21:01.
