data_PCOD9566059
_publ_section_title
;
Structure prediction by ZEFSAII (Michael W. Deem and Ramdas Pophale) SiO2 
 PCOD9566059
Probable space group: P 42/M M C
;
_chemical_formula_sum "Si O2"
_cell_formula_units_Z 80
_cell_length_a 22.688207
_cell_length_b 22.688207
_cell_length_c 9.391026
_cell_angle_alpha 90.000000
_cell_angle_beta 90.000000
_cell_angle_gamma 90.000000
_cell_volume 4834.075118
_symmetry_space_group_name_H-M "P 42/M M C"
_symmetry_group_IT_number 131
_symmetry_cell_setting 'tetragonal'
loop_
_space_group_symop_operation_xyz
x,y,z
-x,-y,z
-y,x,1/2+z
y,-x,1/2+z
-x,y,-z
x,-y,-z
y,x,1/2-z
-y,-x,1/2-z
-x,-y,-z
x,y,-z
y,-x,1/2-z
-y,x,1/2-z
x,-y,z
-x,y,z
-y,-x,1/2+z
y,x,1/2+z
loop_
_atom_site_type_symbol
_atom_site_label
_atom_site_fract_x
_atom_site_fract_y
_atom_site_fract_z
Si Si1 0.652336 0.567846 0.169838
Si Si2 0.000000 0.192539 0.664552
Si Si3 0.115024 0.806354 0.836924
Si Si4 0.663524 0.000000 0.836280
Si Si5 0.750998 0.664911 0.171105
Si Si6 0.664451 0.115546 0.336712
O O1 0.597943 0.597943 0.250000
O O2 0.661004 0.500000 0.211121
O O3 0.709171 0.608755 0.199056
O O4 0.642313 0.570191 0.000000
O O5 0.057671 0.173142 0.750352
O O6 0.000000 0.173866 0.500000
O O7 0.000000 0.264477 0.664953
O O8 0.170784 0.829217 0.750000
O O9 0.113424 0.735707 0.840000
O O10 0.115708 0.827218 0.000000
O O11 0.644598 0.059886 0.756414
O O12 0.644714 0.000000 0.000000
O O13 0.719914 0.719914 0.250000
O O14 0.818159 0.651582 0.215597
O O15 0.752143 0.676233 0.000000
O O16 0.643464 0.109268 0.500000
#
# Coordination Sequence:
#
# PCOD9566059 Si02
#       6
#    16   8  16   8  16  16
#     4   9  18  32  49  70  97 128 162 199 236 275
#     4   9  17  29  41  54  74 100 130 165 204 247
#     4  10  18  27  40  58  78 101 129 162 203 252
#     4   9  17  27  41  61  85 113 145 180 218 263
#     4   9  17  29  45  66  92 122 154 190 234 281
#     4   9  17  28  42  61  87 116 144 177 220 269
#
# _framework density 16.549182999999999
#
# number of rings (size 3 to 8) (size 9 to 14) (size 15 to 20)
#    0.000    2.800    0.000    1.800    0.000    4.600 
#    0.000    1.000    0.000    0.300    0.000    2.800 
#    0.000    5.600    0.000    0.000    0.000    0.000 
#
# Total GULP energy -445600.721381 kJ/mol
# GULP energy per Si atom -5570.009017 kJ/mol
# Density = 1.651152 g / cm^3
# Si number density = 16.549183 Si / 1000 Ang^3
#
#
#
# Elastic Constant Matrix: (Units=GPa)
#
#
# Indices 1 2 3 4 5 6 
#
# 1 89.3911 26.4271 38.5007 0.0000 0.0000 0.0000
# 2 26.4271 89.3920 38.5008 0.0000 0.0000 0.0000
# 3 38.5007 38.5008 79.2971 0.0000 0.0000 0.0000
# 4 0.0000 0.0000 0.0000 19.4870 0.0000 0.0000
# 5 0.0000 0.0000 0.0000 0.0000 19.4867 0.0000
# 6 0.0000 0.0000 0.0000 0.0000 0.0000 7.9447
#
#
#
# Elastic Compliance Matrix: (Units=1/GPa)
#
#
# Indices 1 2 3 4 5 6 
#
# 1 0.014316 -0.001566 -0.006190 0.000000 0.000000 0.000000
# 2 -0.001566 0.014316 -0.006190 0.000000 0.000000 0.000000
# 3 -0.006190 -0.006190 0.018622 0.000000 0.000000 0.000000
# 4 0.000000 0.000000 0.000000 0.051316 0.000000 0.000000
# 5 0.000000 0.000000 0.000000 0.000000 0.051317 0.000000
# 6 0.000000 0.000000 0.000000 0.000000 0.000000 0.125870
#
#
# Mechanical properties :
#
#
# Convention : Reuss Voigt Hill
#
# Bulk Modulus (GPa) = 51.65249 51.65972 51.65610
# Shear Modulus (GPa) = 16.12361 19.69377 17.90869
#
# Velocity S-wave (km/s) = 3.12474 3.45340 3.29317
# Velocity P-wave (km/s) = 6.65567 6.86913 6.76324
#
# Compressibility (1/GPa) = 0.01936015
#
# Stress axis : x y z
#
# Youngs Moduli (GPa) = 69.85203 69.85274 53.70000
#
# Poissons Ratio (x) = 0.10939 0.33242
# Poissons Ratio (y) = 0.10939 0.33242
# Poissons Ratio (z) = 0.43241 0.43241
#
# Static dielectric constant tensor:
#      x y z
#    x 1.556630 0.000000 0.000000 
#    y 0.000000 1.556630 0.000000 
#    z 0.000000 0.000000 1.561530 
# 
# From -- ./inp_files/2105.got.cif
#   From: 2010.05.17/outbox.cif.g08.bks.cpg/sg131_2_cif.got.tgz:2105.got - 2010.05.20 12:21:01.
