data_PCOD9566228
_publ_section_title
;
Structure prediction by ZEFSAII (Michael W. Deem and Ramdas Pophale) SiO2 
 PCOD9566228
Probable space group: P 42/M M C
;
_chemical_formula_sum "Si O2"
_cell_formula_units_Z 112
_cell_length_a 15.109494
_cell_length_b 15.109494
_cell_length_c 30.186884
_cell_angle_alpha 90.000000
_cell_angle_beta 90.000000
_cell_angle_gamma 90.000000
_cell_volume 6891.569289
_symmetry_space_group_name_H-M "P 42/M M C"
_symmetry_group_IT_number 131
_symmetry_cell_setting 'tetragonal'
loop_
_space_group_symop_operation_xyz
x,y,z
-x,-y,z
-y,x,1/2+z
y,-x,1/2+z
-x,y,-z
x,-y,-z
y,x,1/2-z
-y,-x,1/2-z
-x,-y,-z
x,y,-z
y,-x,1/2-z
-y,x,1/2-z
x,-y,z
-x,y,z
-y,-x,1/2+z
y,x,1/2+z
loop_
_atom_site_type_symbol
_atom_site_label
_atom_site_fract_x
_atom_site_fract_y
_atom_site_fract_z
Si Si1 0.338719 0.395688 0.202400
Si Si2 0.097102 0.604809 0.367174
Si Si3 0.283099 0.838340 0.698342
Si Si4 0.704038 0.396694 0.612950
Si Si5 0.394416 0.740239 0.449020
Si Si6 0.250928 0.903614 0.794684
Si Si7 0.100649 0.602546 0.116980
O O1 0.386471 0.386471 0.250000
O O2 0.332671 0.500000 0.190739
O O3 0.243884 0.348437 0.208496
O O4 0.380978 0.339660 0.161734
O O5 0.100072 0.500000 0.359738
O O6 0.191484 0.627772 0.388923
O O7 0.097800 0.658141 0.321615
O O8 0.000000 0.624500 0.388623
O O9 0.272571 0.893860 0.742999
O O10 0.183318 0.802778 0.690085
O O11 0.329058 0.885197 0.656988
O O12 0.695734 0.500000 0.602753
O O13 0.652235 0.337002 0.578236
O O14 0.365596 0.745211 0.500000
O O15 0.500000 0.725654 0.448493
O O16 0.377864 0.830161 0.421791
O O17 0.207930 0.000000 0.802817
O O18 0.116601 0.500000 0.131874
O O19 0.000000 0.607362 0.101228
#
# Coordination Sequence:
#
# PCOD9566228 Si02
#       7
#    16  16  16  16  16  16  16
#     4  12  22  33  48  70 103 144 181 215 258 308
#     4   9  17  30  49  73 100 131 172 217 258 303
#     4  11  19  34  49  72 102 136 171 219 270 306
#     4  11  21  35  53  75 105 141 178 218 262 310
#     4  10  21  37  55  76 105 139 176 219 264 315
#     4  10  19  31  49  70  97 137 180 214 257 310
#     4  10  20  34  55  80 103 132 170 216 270 323
#
# _framework density 16.251740999999999
#
# number of rings (size 3 to 8) (size 9 to 14) (size 15 to 20)
#    0.000    1.571    4.286    1.714    0.000    4.714 
#    0.000    3.571    0.000    7.714    0.000    2.000 
#    0.000    0.000    0.000    6.000    0.000    0.286 
#
# Total GULP energy -623983.620147 kJ/mol
# GULP energy per Si atom -5571.282323 kJ/mol
# Density = 1.621475 g / cm^3
# Si number density = 16.251741 Si / 1000 Ang^3
#
#
#
# Elastic Constant Matrix: (Units=GPa)
#
#
# Indices 1 2 3 4 5 6 
#
# 1 89.1758 33.7037 36.7668 0.0000 0.0000 0.0000
# 2 33.7037 89.1758 36.7668 0.0000 0.0000 0.0000
# 3 36.7668 36.7668 81.5309 0.0000 0.0000 0.0000
# 4 0.0000 0.0000 0.0000 1.4506 0.0000 0.0000
# 5 0.0000 0.0000 0.0000 0.0000 1.4506 0.0000
# 6 0.0000 0.0000 0.0000 0.0000 0.0000 17.2701
#
#
#
# Elastic Compliance Matrix: (Units=1/GPa)
#
#
# Indices 1 2 3 4 5 6 
#
# 1 0.014587 -0.003441 -0.005026 0.000000 0.000000 0.000000
# 2 -0.003441 0.014587 -0.005026 0.000000 0.000000 0.000000
# 3 -0.005026 -0.005026 0.016799 0.000000 0.000000 0.000000
# 4 0.000000 0.000000 0.000000 0.689359 0.000000 0.000000
# 5 0.000000 0.000000 0.000000 0.000000 0.689359 0.000000
# 6 0.000000 0.000000 0.000000 0.000000 0.000000 0.057904
#
#
# Mechanical properties :
#
#
# Convention : Reuss Voigt Hill
#
# Bulk Modulus (GPa) = 52.67277 52.70636 52.68957
# Shear Modulus (GPa) = 3.29835 14.21060 8.75448
#
# Velocity S-wave (km/s) = 1.42616 2.96024 2.32346
# Velocity P-wave (km/s) = 5.93235 6.64723 6.29994
#
# Compressibility (1/GPa) = 0.01898514
#
# Stress axis : x y z
#
# Youngs Moduli (GPa) = 68.55654 68.55654 59.52885
#
# Poissons Ratio (x) = 0.23588 0.29921
# Poissons Ratio (y) = 0.23588 0.29921
# Poissons Ratio (z) = 0.34459 0.34459
#
# Static dielectric constant tensor:
#      x y z
#    x 1.566880 0.000000 0.000000 
#    y 0.000000 1.566880 0.000000 
#    z 0.000000 0.000000 1.530600 
# 
# From -- ./inp_files/12502.got.cif
#   From: 2010.05.17/outbox.cif.g08.bks.cpg/sg131_7_cif.got.tgz:12502.got - 2010.05.20 12:21:01.
