data_PCOD9566396
_publ_section_title
;
Structure prediction by ZEFSAII (Michael W. Deem and Ramdas Pophale) SiO2 
 PCOD9566396
Probable space group: P 42/M M C
;
_chemical_formula_sum "Si O2"
_cell_formula_units_Z 84
_cell_length_a 11.880961
_cell_length_b 11.880961
_cell_length_c 35.294912
_cell_angle_alpha 90.000000
_cell_angle_beta 90.000000
_cell_angle_gamma 90.000000
_cell_volume 4982.132162
_symmetry_space_group_name_H-M "P 42/M M C"
_symmetry_group_IT_number 131
_symmetry_cell_setting 'tetragonal'
loop_
_space_group_symop_operation_xyz
x,y,z
-x,-y,z
-y,x,1/2+z
y,-x,1/2+z
-x,y,-z
x,-y,-z
y,x,1/2-z
-y,-x,1/2-z
-x,-y,-z
x,y,-z
y,-x,1/2-z
-y,x,1/2-z
x,-y,z
-x,y,z
-y,-x,1/2+z
y,x,1/2+z
loop_
_atom_site_type_symbol
_atom_site_label
_atom_site_fract_x
_atom_site_fract_y
_atom_site_fract_z
Si Si1 0.000000 0.245998 0.402643
Si Si2 0.762231 0.367899 0.282164
Si Si3 0.000000 0.365399 0.320850
Si Si4 0.629651 0.633136 0.860843
Si Si5 0.632278 0.365295 0.500000
Si Si6 0.248505 0.749501 0.928798
Si Si7 0.243375 0.000000 0.456071
Si Si8 0.000000 0.000000 0.925301
O O1 0.000000 0.304445 0.361611
O O2 0.116157 0.270791 0.424958
O O3 0.000000 0.110609 0.399570
O O4 0.712584 0.287417 0.250000
O O5 0.760927 0.500000 0.270007
O O6 0.682673 0.358629 0.318952
O O7 0.887675 0.339875 0.296859
O O8 0.000000 0.500000 0.328191
O O9 0.648350 0.500000 0.861096
O O10 0.500000 0.654355 0.872941
O O11 0.710911 0.694880 0.889830
O O12 0.500000 0.333062 0.500000
O O13 0.637992 0.500000 0.500000
O O14 0.694140 0.316538 0.536835
O O15 0.116952 0.723669 0.936403
O O16 0.277533 0.000000 0.500000
O O17 0.108350 0.000000 0.451926
#
# Coordination Sequence:
#
# PCOD9566396 Si02
#       8
#     8  16   8  16   8  16   8   4
#     4  10  20  36  59  85 113 148 188 235 283 340
#     4  10  20  36  59  87 117 149 189 232 279 337
#     4  10  20  36  58  86 121 154 180 229 296 340
#     4  10  20  35  57  83 113 150 190 233 281 335
#     4  11  24  40  56  77 112 152 190 239 292 342
#     4  11  21  37  58  83 112 148 192 235 283 341
#     4  10  19  36  55  78 109 147 188 234 280 332
#     4   8  19  32  58  82 103 144 192 234 275 326
#
# _framework density 16.860250000000001
#
# number of rings (size 3 to 8) (size 9 to 14) (size 15 to 20)
#    0.000    1.810    2.857    1.857    0.000    3.619 
#    0.000    4.762    0.000    0.000    0.000    0.000 
#    0.000    0.000    0.000    0.000    0.000    0.000 
#
# Total GULP energy -468584.103729 kJ/mol
# GULP energy per Si atom -5578.382187 kJ/mol
# Density = 1.682188 g / cm^3
# Si number density = 16.860250 Si / 1000 Ang^3
#
#
#
# Elastic Constant Matrix: (Units=GPa)
#
#
# Indices 1 2 3 4 5 6 
#
# 1 102.2441 68.6847 59.9187 0.0000 0.0000 0.0000
# 2 68.6847 102.2447 59.9193 0.0000 0.0000 0.0000
# 3 59.9187 59.9193 90.4893 0.0000 0.0000 0.0000
# 4 0.0000 0.0000 0.0000 15.7212 0.0000 0.0000
# 5 0.0000 0.0000 0.0000 0.0000 15.7237 0.0000
# 6 0.0000 0.0000 0.0000 0.0000 0.0000 25.0813
#
#
#
# Elastic Compliance Matrix: (Units=1/GPa)
#
#
# Indices 1 2 3 4 5 6 
#
# 1 0.020359 -0.009439 -0.007231 0.000000 0.000000 0.000000
# 2 -0.009439 0.020359 -0.007231 0.000000 0.000000 0.000000
# 3 -0.007231 -0.007231 0.020627 0.000000 0.000000 0.000000
# 4 0.000000 0.000000 0.000000 0.063609 0.000000 0.000000
# 5 0.000000 0.000000 0.000000 0.000000 0.063598 0.000000
# 6 0.000000 0.000000 0.000000 0.000000 0.000000 0.039870
#
#
# Mechanical properties :
#
#
# Convention : Reuss Voigt Hill
#
# Bulk Modulus (GPa) = 73.83547 74.66926 74.25237
# Shear Modulus (GPa) = 17.81026 18.40225 18.10626
#
# Velocity S-wave (km/s) = 3.25367 3.30731 3.28060
# Velocity P-wave (km/s) = 7.61596 7.67904 7.64757
#
# Compressibility (1/GPa) = 0.01354363
#
# Stress axis : x y z
#
# Youngs Moduli (GPa) = 49.11901 49.11882 48.48016
#
# Poissons Ratio (x) = 0.46363 0.35054
# Poissons Ratio (y) = 0.46363 0.35056
# Poissons Ratio (z) = 0.35516 0.35517
#
# Static dielectric constant tensor:
#      x y z
#    x 1.573750 0.000000 0.000000 
#    y 0.000000 1.573750 0.000000 
#    z 0.000000 0.000000 1.536730 
# 
# From -- ./inp_files/13630.got.cif
#   From: 2010.05.17/outbox.cif.g08.bks.cpg/sg131_7_cif.got.tgz:13630.got - 2010.05.20 12:21:01.
