data_PCOD9566447
_publ_section_title
;
Structure prediction by ZEFSAII (Michael W. Deem and Ramdas Pophale) SiO2 
 PCOD9566447
Probable space group: P 42/M M C
;
_chemical_formula_sum "Si O2"
_cell_formula_units_Z 96
_cell_length_a 25.532263
_cell_length_b 25.532263
_cell_length_c 9.159362
_cell_angle_alpha 90.000000
_cell_angle_beta 90.000000
_cell_angle_gamma 90.000000
_cell_volume 5970.955608
_symmetry_space_group_name_H-M "P 42/M M C"
_symmetry_group_IT_number 131
_symmetry_cell_setting 'tetragonal'
loop_
_space_group_symop_operation_xyz
x,y,z
-x,-y,z
-y,x,1/2+z
y,-x,1/2+z
-x,y,-z
x,-y,-z
y,x,1/2-z
-y,-x,1/2-z
-x,-y,-z
x,y,-z
y,-x,1/2-z
-y,x,1/2-z
x,-y,z
-x,y,z
-y,-x,1/2+z
y,x,1/2+z
loop_
_atom_site_type_symbol
_atom_site_label
_atom_site_fract_x
_atom_site_fract_y
_atom_site_fract_z
Si Si1 0.063515 0.257836 0.332630
Si Si2 0.062205 0.636337 0.173153
Si Si3 0.859584 0.938791 0.823787
Si Si4 0.563595 0.748404 0.331920
Si Si5 0.144310 0.437454 0.326977
Si Si6 0.359279 0.562508 0.673520
O O1 0.080952 0.266737 0.500000
O O2 0.078361 0.306205 0.231257
O O3 0.079072 0.199525 0.283961
O O4 0.000000 0.256364 0.335786
O O5 0.096288 0.593444 0.256441
O O6 0.000000 0.629933 0.202802
O O7 0.070091 0.632396 0.000000
O O8 0.902694 0.902694 0.750000
O O9 0.865981 0.000000 0.782810
O O10 0.862987 0.936048 0.000000
O O11 0.581377 0.747236 0.500000
O O12 0.500000 0.748733 0.333167
O O13 0.579462 0.801619 0.250627
O O14 0.578733 0.696081 0.245231
O O15 0.147308 0.427987 0.500000
O O16 0.138245 0.500000 0.304754
O O17 0.405245 0.594756 0.750000
O O18 0.358622 0.571804 0.500000
O O19 0.365797 0.500000 0.696798
#
# Coordination Sequence:
#
# PCOD9566447 Si02
#       6
#    16  16  16  16  16  16
#     4   8  15  30  49  66  88 121 160 197 233 279
#     4  10  20  32  48  72  99 126 158 197 241 286
#     4   9  18  31  47  69  96 126 159 195 236 281
#     4   9  17  31  51  72  95 125 162 202 242 285
#     4  10  20  33  50  72  98 129 163 196 234 284
#     4  10  20  33  50  73 101 132 166 203 243 289
#
# _framework density 16.077828
#
# number of rings (size 3 to 8) (size 9 to 14) (size 15 to 20)
#    0.000    2.667    0.000    3.000    0.000    6.667 
#    0.000    5.000    0.000    1.000    0.000    4.667 
#    0.000    0.000    0.000    0.000    0.000    0.000 
#
# Total GULP energy -535049.379293 kJ/mol
# GULP energy per Si atom -5573.431034 kJ/mol
# Density = 1.604123 g / cm^3
# Si number density = 16.077828 Si / 1000 Ang^3
#
#
#
# Elastic Constant Matrix: (Units=GPa)
#
#
# Indices 1 2 3 4 5 6 
#
# 1 82.8536 59.4564 70.5110 0.0000 0.0000 0.0000
# 2 59.4564 82.8600 70.5100 0.0000 0.0000 0.0000
# 3 70.5110 70.5100 108.0075 0.0000 0.0000 0.0000
# 4 0.0000 0.0000 0.0000 28.7982 0.0000 0.0000
# 5 0.0000 0.0000 0.0000 0.0000 28.7979 0.0000
# 6 0.0000 0.0000 0.0000 0.0000 0.0000 -5.3257
#
#
#
# Elastic Compliance Matrix: (Units=1/GPa)
#
#
# Indices 1 2 3 4 5 6 
#
# 1 0.031321 -0.011417 -0.012994 0.000000 0.000000 0.000000
# 2 -0.011417 0.031314 -0.012989 0.000000 0.000000 0.000000
# 3 -0.012994 -0.012989 0.026221 0.000000 0.000000 0.000000
# 4 0.000000 0.000000 0.000000 0.034724 0.000000 0.000000
# 5 0.000000 0.000000 0.000000 0.000000 0.034725 0.000000
# 6 0.000000 0.000000 0.000000 0.000000 0.000000 -0.187769
#
#
# Mechanical properties :
#
#
# Convention : Reuss Voigt Hill
#
# Bulk Modulus (GPa) = 71.14567 74.96399 73.05483
# Shear Modulus (GPa) = 99.95644 15.33698 57.64671
#
# Velocity S-wave (km/s) = 7.89337 3.09191 5.99438
# Velocity P-wave (km/s) = 11.28807 7.71190 9.66680
#
# Compressibility (1/GPa) = 0.01405567
#
# Stress axis : x y z
#
# Youngs Moduli (GPa) = 31.92788 31.93453 38.13721
#
# Poissons Ratio (x) = 0.36460 0.49555
# Poissons Ratio (y) = 0.36452 0.49537
# Poissons Ratio (z) = 0.41487 0.41480
#
# Static dielectric constant tensor:
#      x y z
#    x 1.525270 0.000000 0.000000 
#    y 0.000000 1.525270 0.000000 
#    z 0.000000 0.000000 1.536390 
# 
# From -- ./inp_files/2277.got.cif
#   From: 2010.05.17/outbox.cif.g08.bks.cpg/sg131_2_cif.got.tgz:2277.got - 2010.05.20 12:21:01.
