data_PCOD9566617
_publ_section_title
;
Structure prediction by ZEFSAII (Michael W. Deem and Ramdas Pophale) SiO2 
 PCOD9566617
Probable space group: P 42/M M C
;
_chemical_formula_sum "Si O2"
_cell_formula_units_Z 88
_cell_length_a 12.397070
_cell_length_b 12.397070
_cell_length_c 29.050839
_cell_angle_alpha 90.000000
_cell_angle_beta 90.000000
_cell_angle_gamma 90.000000
_cell_volume 4464.746304
_symmetry_space_group_name_H-M "P 42/M M C"
_symmetry_group_IT_number 131
_symmetry_cell_setting 'tetragonal'
loop_
_space_group_symop_operation_xyz
x,y,z
-x,-y,z
-y,x,1/2+z
y,-x,1/2+z
-x,y,-z
x,-y,-z
y,x,1/2-z
-y,-x,1/2-z
-x,-y,-z
x,y,-z
y,-x,1/2-z
-y,x,1/2-z
x,-y,z
-x,y,z
-y,-x,1/2+z
y,x,1/2+z
loop_
_atom_site_type_symbol
_atom_site_label
_atom_site_fract_x
_atom_site_fract_y
_atom_site_fract_z
Si Si1 0.000000 0.783566 0.945915
Si Si2 0.375130 0.125687 0.262741
Si Si3 0.000000 0.878645 0.149957
Si Si4 0.630007 0.119862 0.000000
Si Si5 0.766928 0.789319 0.179875
Si Si6 0.254043 0.629310 0.408258
Si Si7 0.383136 0.193112 0.554570
O O1 0.104827 0.708806 0.937280
O O2 0.000000 0.870545 0.905678
O O3 0.000000 0.816474 0.000000
O O4 0.500000 0.146897 0.250611
O O5 0.293697 0.145260 0.220170
O O6 0.331113 0.207684 0.301380
O O7 0.367998 0.000000 0.277096
O O8 0.113082 0.829813 0.167539
O O9 0.000000 0.000000 0.166172
O O10 0.656705 0.181309 0.046912
O O11 0.500000 0.113011 0.000000
O O12 0.676563 0.000000 0.000000
O O13 0.686714 0.792632 0.136743
O O14 0.263428 0.500000 0.404176
O O15 0.362177 0.695417 0.419373
O O16 0.382359 0.214756 0.500000
O O17 0.500000 0.147329 0.566820
#
# Coordination Sequence:
#
# PCOD9566617 Si02
#       7
#     8  16   8   8  16  16  16
#     4  10  21  41  60  87 127 174 222 265 307 371
#     4  10  22  43  70  95 120 159 210 259 316 389
#     4  12  24  40  63  98 134 169 211 258 324 385
#     4   9  20  38  59  84 121 174 223 264 310 363
#     4  11  23  42  63  97 132 162 204 266 326 382
#     4  11  22  38  60  91 131 170 217 264 310 378
#     4  10  20  36  59  85 118 163 216 271 318 363
#
# _framework density 19.709965
#
# number of rings (size 3 to 8) (size 9 to 14) (size 15 to 20)
#    0.000    1.545    3.636    1.364    0.000    3.818 
#    0.000    2.727    0.000    8.727    0.000    0.000 
#    0.000    0.000    0.000    0.000    0.000    0.000 
#
# Total GULP energy -490690.909954 kJ/mol
# GULP energy per Si atom -5576.033068 kJ/mol
# Density = 1.966510 g / cm^3
# Si number density = 19.709965 Si / 1000 Ang^3
#
#
#
# Elastic Constant Matrix: (Units=GPa)
#
#
# Indices 1 2 3 4 5 6 
#
# 1 100.0598 23.4372 31.2772 0.0000 0.0000 0.0000
# 2 23.4372 100.0598 31.2772 0.0000 0.0000 0.0000
# 3 31.2772 31.2772 82.0266 0.0000 0.0000 0.0000
# 4 0.0000 0.0000 0.0000 22.0302 0.0000 0.0000
# 5 0.0000 0.0000 0.0000 0.0000 22.0302 0.0000
# 6 0.0000 0.0000 0.0000 0.0000 0.0000 19.3374
#
#
#
# Elastic Compliance Matrix: (Units=1/GPa)
#
#
# Indices 1 2 3 4 5 6 
#
# 1 0.011543 -0.001508 -0.003827 0.000000 0.000000 0.000000
# 2 -0.001508 0.011543 -0.003827 0.000000 0.000000 0.000000
# 3 -0.003827 -0.003827 0.015109 0.000000 0.000000 0.000000
# 4 0.000000 0.000000 0.000000 0.045392 0.000000 0.000000
# 5 0.000000 0.000000 0.000000 0.000000 0.045392 0.000000
# 6 0.000000 0.000000 0.000000 0.000000 0.000000 0.051713
#
#
# Mechanical properties :
#
#
# Convention : Reuss Voigt Hill
#
# Bulk Modulus (GPa) = 50.31671 50.45885 50.38778
# Shear Modulus (GPa) = 24.31427 25.75652 25.03540
#
# Velocity S-wave (km/s) = 3.51608 3.61886 3.56784
# Velocity P-wave (km/s) = 6.48596 6.56641 6.52631
#
# Compressibility (1/GPa) = 0.01987411
#
# Stress axis : x y z
#
# Youngs Moduli (GPa) = 86.63014 86.63014 66.18383
#
# Poissons Ratio (x) = 0.13061 0.25326
# Poissons Ratio (y) = 0.13061 0.25326
# Poissons Ratio (z) = 0.33150 0.33150
#
# Static dielectric constant tensor:
#      x y z
#    x 1.691650 0.000000 0.000000 
#    y 0.000000 1.691650 0.000000 
#    z 0.000000 0.000000 1.718610 
# 
# From -- ./inp_files/13587.got.cif
#   From: 2010.05.17/outbox.cif.g08.bks.cpg/sg131_7_cif.got.tgz:13587.got - 2010.05.20 12:21:01.
