data_PCOD9566304
_publ_section_title
;
Structure prediction by ZEFSAII (Michael W. Deem and Ramdas Pophale) SiO2 
 PCOD9566304
Probable space group: P 42/M M C
;
_chemical_formula_sum "Si O2"
_cell_formula_units_Z 112
_cell_length_a 14.306513
_cell_length_b 14.306513
_cell_length_c 31.396298
_cell_angle_alpha 90.000000
_cell_angle_beta 90.000000
_cell_angle_gamma 90.000000
_cell_volume 6426.078555
_symmetry_space_group_name_H-M "P 42/M M C"
_symmetry_group_IT_number 131
_symmetry_cell_setting 'tetragonal'
loop_
_space_group_symop_operation_xyz
x,y,z
-x,-y,z
-y,x,1/2+z
y,-x,1/2+z
-x,y,-z
x,-y,-z
y,x,1/2-z
-y,-x,1/2-z
-x,-y,-z
x,y,-z
y,-x,1/2-z
-y,x,1/2-z
x,-y,z
-x,y,z
-y,-x,1/2+z
y,x,1/2+z
loop_
_atom_site_type_symbol
_atom_site_label
_atom_site_fract_x
_atom_site_fract_y
_atom_site_fract_z
Si Si1 0.788567 0.113985 0.452463
Si Si2 0.888199 0.219651 0.214393
Si Si3 0.391940 0.786379 0.687078
Si Si4 0.113564 0.105212 0.130829
Si Si5 0.603600 0.888127 0.595488
Si Si6 0.386158 0.609833 0.045856
Si Si7 0.614046 0.607291 0.360521
O O1 0.809246 0.147108 0.500000
O O2 0.858226 0.144890 0.415189
O O3 0.684785 0.139713 0.436761
O O4 0.791955 0.000000 0.453369
O O5 0.849936 0.150065 0.250000
O O6 0.838952 0.320004 0.217297
O O7 0.861335 0.175657 0.168528
O O8 0.000000 0.227936 0.216333
O O9 0.500000 0.787087 0.701309
O O10 0.389117 0.839600 0.641324
O O11 0.360914 0.680943 0.675787
O O12 0.000000 0.104012 0.130103
O O13 0.145590 0.000000 0.139511
O O14 0.500000 0.868693 0.578268
O O15 0.612247 0.000000 0.602422
O O16 0.360392 0.500000 0.045478
O O17 0.500000 0.612580 0.046349
O O18 0.359400 0.647575 0.092454
O O19 0.355668 0.650472 0.000000
O O20 0.642572 0.500000 0.353147
O O21 0.500000 0.608115 0.362582
#
# Coordination Sequence:
#
# PCOD9566304 Si02
#       7
#    16  16  16  16  16  16  16
#     4   9  16  26  41  64  96 134 173 208 243 289
#     4  11  22  37  57  80 102 126 161 210 268 323
#     4  10  19  32  52  75 101 137 175 207 249 308
#     4   9  17  30  48  70  96 125 159 202 252 307
#     4   9  16  27  43  63  92 134 178 213 244 284
#     4   7   9  15  30  53  82 117 158 205 251 286
#     4   8  14  25  42  65  94 130 171 211 250 294
#
# _framework density 17.428981
#
# number of rings (size 3 to 8) (size 9 to 14) (size 15 to 20)
#    0.000    3.000    1.429    2.143    0.000    2.143 
#    0.000    4.286    0.000    2.571    0.000    0.000 
#    0.000    0.000    0.000    0.000    0.000    1.714 
#
# Total GULP energy -623810.881804 kJ/mol
# GULP energy per Si atom -5569.740016 kJ/mol
# Density = 1.738931 g / cm^3
# Si number density = 17.428981 Si / 1000 Ang^3
#
#
#
# Elastic Constant Matrix: (Units=GPa)
#
#
# Indices 1 2 3 4 5 6 
#
# 1 59.1533 17.1290 9.6557 0.0000 0.0000 0.0000
# 2 17.1290 59.1540 9.6560 0.0000 0.0000 0.0000
# 3 9.6557 9.6560 20.1058 0.0000 0.0000 0.0000
# 4 0.0000 0.0000 0.0000 19.2678 0.0000 0.0000
# 5 0.0000 0.0000 0.0000 0.0000 19.2677 0.0000
# 6 0.0000 0.0000 0.0000 0.0000 0.0000 11.0470
#
#
#
# Elastic Compliance Matrix: (Units=1/GPa)
#
#
# Indices 1 2 3 4 5 6 
#
# 1 0.019360 -0.004436 -0.007167 0.000000 0.000000 0.000000
# 2 -0.004436 0.019360 -0.007167 0.000000 0.000000 0.000000
# 3 -0.007167 -0.007167 0.056621 0.000000 0.000000 0.000000
# 4 0.000000 0.000000 0.000000 0.051900 0.000000 0.000000
# 5 0.000000 0.000000 0.000000 0.000000 0.051900 0.000000
# 6 0.000000 0.000000 0.000000 0.000000 0.000000 0.090522
#
#
# Mechanical properties :
#
#
# Convention : Reuss Voigt Hill
#
# Bulk Modulus (GPa) = 17.30115 23.47716 20.38916
# Shear Modulus (GPa) = 14.43129 16.71466 15.57297
#
# Velocity S-wave (km/s) = 2.88063 3.10016 2.99241
# Velocity P-wave (km/s) = 4.58391 5.12972 4.86448
#
# Compressibility (1/GPa) = 0.05779962
#
# Stress axis : x y z
#
# Youngs Moduli (GPa) = 51.65387 51.65422 17.66136
#
# Poissons Ratio (x) = 0.22914 0.12658
# Poissons Ratio (y) = 0.22914 0.12658
# Poissons Ratio (z) = 0.37020 0.37022
#
# Static dielectric constant tensor:
#      x y z
#    x 1.611240 0.000000 0.000000 
#    y 0.000000 1.611240 0.000000 
#    z 0.000000 0.000000 1.619440 
# 
# From -- ./inp_files/13812.got.cif
#   From: 2010.05.17/outbox.cif.g08.bks.cpg/sg131_7_cif.got.tgz:13812.got - 2010.05.20 12:21:01.
