data_PCOD9566326
_publ_section_title
;
Structure prediction by ZEFSAII (Michael W. Deem and Ramdas Pophale) SiO2 
 PCOD9566326
Probable space group: P 42/M M C
;
_chemical_formula_sum "Si O2"
_cell_formula_units_Z 88
_cell_length_a 14.985051
_cell_length_b 14.985051
_cell_length_c 20.753441
_cell_angle_alpha 90.000000
_cell_angle_beta 90.000000
_cell_angle_gamma 90.000000
_cell_volume 4660.221567
_symmetry_space_group_name_H-M "P 42/M M C"
_symmetry_group_IT_number 131
_symmetry_cell_setting 'tetragonal'
loop_
_space_group_symop_operation_xyz
x,y,z
-x,-y,z
-y,x,1/2+z
y,-x,1/2+z
-x,y,-z
x,-y,-z
y,x,1/2-z
-y,-x,1/2-z
-x,-y,-z
x,y,-z
y,-x,1/2-z
-y,x,1/2-z
x,-y,z
-x,y,z
-y,-x,1/2+z
y,x,1/2+z
loop_
_atom_site_type_symbol
_atom_site_label
_atom_site_fract_x
_atom_site_fract_y
_atom_site_fract_z
Si Si1 0.832058 0.279126 0.573200
Si Si2 0.597326 0.000000 0.923385
Si Si3 0.348108 0.606086 0.572437
Si Si4 0.704460 0.401698 0.198083
Si Si5 0.397779 0.899987 0.726451
Si Si6 0.213274 0.895402 0.802577
O O1 0.843078 0.244350 0.500000
O O2 0.744526 0.339745 0.574280
O O3 0.839502 0.209089 0.631002
O O4 0.913377 0.345228 0.589206
O O5 0.500000 0.000000 0.892575
O O6 0.586035 0.000000 0.000000
O O7 0.386369 0.619051 0.500000
O O8 0.334847 0.500000 0.580516
O O9 0.398622 0.647282 0.633084
O O10 0.669910 0.330091 0.250000
O O11 0.692684 0.500000 0.228136
O O12 0.809940 0.390002 0.184234
O O13 0.500000 0.896092 0.753205
O O14 0.315122 0.891514 0.775370
O O15 0.389653 0.000000 0.697144
O O16 0.149176 0.850825 0.750000
O O17 0.192247 0.000000 0.812983
#
# Coordination Sequence:
#
# PCOD9566326 Si02
#       6
#    16   8  16  16  16  16
#     4  10  19  33  52  78 110 145 182 222 274 335
#     4   9  16  26  44  74 111 143 170 205 257 329
#     4  10  21  35  52  78 115 155 189 224 271 329
#     4  11  22  36  56  79 107 146 193 240 281 328
#     4   9  19  35  55  80 107 137 177 230 289 341
#     4  11  22  36  55  80 110 147 185 225 275 331
#
# _framework density 18.883222
#
# number of rings (size 3 to 8) (size 9 to 14) (size 15 to 20)
#    0.000    1.909    0.909    3.818    0.000    6.909 
#    0.000    0.909    0.000    1.091    0.000    8.909 
#    0.000    0.000    0.000    0.000    0.000    0.000 
#
# Total GULP energy -490300.496430 kJ/mol
# GULP energy per Si atom -5571.596550 kJ/mol
# Density = 1.884024 g / cm^3
# Si number density = 18.883222 Si / 1000 Ang^3
#
#
#
# Elastic Constant Matrix: (Units=GPa)
#
#
# Indices 1 2 3 4 5 6 
#
# 1 78.3778 27.0907 42.3542 0.0000 0.0000 0.0000
# 2 27.0907 78.3774 42.3530 0.0000 0.0000 0.0000
# 3 42.3542 42.3530 111.2603 0.0000 0.0000 0.0000
# 4 0.0000 0.0000 0.0000 -3.3705 0.0000 0.0000
# 5 0.0000 0.0000 0.0000 0.0000 -3.3721 0.0000
# 6 0.0000 0.0000 0.0000 0.0000 0.0000 37.4216
#
#
#
# Elastic Compliance Matrix: (Units=1/GPa)
#
#
# Indices 1 2 3 4 5 6 
#
# 1 0.016578 -0.002921 -0.005199 0.000000 0.000000 0.000000
# 2 -0.002921 0.016578 -0.005199 0.000000 0.000000 0.000000
# 3 -0.005199 -0.005199 0.012946 0.000000 0.000000 0.000000
# 4 0.000000 0.000000 0.000000 -0.296693 0.000000 0.000000
# 5 0.000000 0.000000 0.000000 0.000000 -0.296550 0.000000
# 6 0.000000 0.000000 0.000000 0.000000 0.000000 0.026723
#
#
# Mechanical properties :
#
#
# Convention : Reuss Voigt Hill
#
# Bulk Modulus (GPa) = 51.37511 54.62350 52.99930
# Shear Modulus (GPa) = -10.26073 16.55029 3.14478
#
# Velocity S-wave (km/s) = -2.33358 2.96371 1.29190
# Velocity P-wave (km/s) = 4.47270 6.37975 5.50937
#
# Compressibility (1/GPa) = 0.01946468
#
# Stress axis : x y z
#
# Youngs Moduli (GPa) = 60.32221 60.32272 77.24382
#
# Poissons Ratio (x) = 0.17618 0.40159
# Poissons Ratio (y) = 0.17618 0.40157
# Poissons Ratio (z) = 0.31361 0.31360
#
# Static dielectric constant tensor:
#      x y z
#    x 1.670810 0.000000 0.000000 
#    y 0.000000 1.670810 0.000000 
#    z 0.000000 0.000000 1.671120 
# 
# From -- ./inp_files/9578.got.cif
#   From: 2010.05.17/outbox.cif.g08.bks.cpg/sg131_5_cif.got.tgz:9578.got - 2010.05.20 12:21:01.
