data_PCOD9566766
_publ_section_title
;
Structure prediction by ZEFSAII (Michael W. Deem and Ramdas Pophale) SiO2 
 PCOD9566766
Probable space group: P 42/M M C
;
_chemical_formula_sum "Si O2"
_cell_formula_units_Z 80
_cell_length_a 17.131528
_cell_length_b 17.131528
_cell_length_c 13.914853
_cell_angle_alpha 90.000000
_cell_angle_beta 90.000000
_cell_angle_gamma 90.000000
_cell_volume 4083.859793
_symmetry_space_group_name_H-M "P 42/M M C"
_symmetry_group_IT_number 131
_symmetry_cell_setting 'tetragonal'
loop_
_space_group_symop_operation_xyz
x,y,z
-x,-y,z
-y,x,1/2+z
y,-x,1/2+z
-x,y,-z
x,-y,-z
y,x,1/2-z
-y,-x,1/2-z
-x,-y,-z
x,y,-z
y,-x,1/2-z
-y,x,1/2-z
x,-y,z
-x,y,z
-y,-x,1/2+z
y,x,1/2+z
loop_
_atom_site_type_symbol
_atom_site_label
_atom_site_fract_x
_atom_site_fract_y
_atom_site_fract_z
Si Si1 0.646755 0.000000 0.117027
Si Si2 0.586688 0.292443 0.272984
Si Si3 0.268761 0.778715 0.388460
Si Si4 0.159945 0.910772 0.382066
Si Si5 0.377222 0.173512 0.888065
Si Si6 0.172779 0.000000 0.882724
O O1 0.611509 0.084054 0.145474
O O2 0.737238 0.000000 0.146672
O O3 0.644698 0.000000 0.000000
O O4 0.622573 0.377428 0.250000
O O5 0.500000 0.296079 0.315214
O O6 0.654532 0.252192 0.336169
O O7 0.583788 0.238392 0.178191
O O8 0.288089 0.789016 0.500000
O O9 0.232148 0.858054 0.348634
O O10 0.199631 0.714086 0.383927
O O11 0.161512 0.908865 0.500000
O O12 0.078218 0.872005 0.353420
O O13 0.165035 0.000000 0.352092
O O14 0.400411 0.178868 0.000000
O O15 0.173225 0.000000 0.000000
#
# Coordination Sequence:
#
# PCOD9566766 Si02
#       6
#     8  16  16  16  16   8
#     4   9  14  25  49  77 104 137 177 216 258 307
#     4  10  22  39  59  83 106 130 168 214 269 333
#     4   9  17  32  53  76 106 144 182 216 255 310
#     4   9  15  23  40  70 107 146 187 227 263 297
#     4   9  17  32  55  80 107 139 174 214 262 315
#     4   9  13  20  39  71 108 141 179 227 267 301
#
# _framework density 19.589310999999999
#
# number of rings (size 3 to 8) (size 9 to 14) (size 15 to 20)
#    0.000    2.800    2.000    0.300    0.000    2.200 
#    1.800    0.500    0.000    1.800    0.000    8.400 
#    0.000    0.000    0.000    0.000    0.000    0.000 
#
# Total GULP energy -446447.858078 kJ/mol
# GULP energy per Si atom -5580.598226 kJ/mol
# Density = 1.954472 g / cm^3
# Si number density = 19.589311 Si / 1000 Ang^3
#
#
#
# Elastic Constant Matrix: (Units=GPa)
#
#
# Indices 1 2 3 4 5 6 
#
# 1 114.4531 30.2144 16.0809 0.0000 0.0000 0.0000
# 2 30.2144 114.4504 16.0804 0.0000 0.0000 0.0000
# 3 16.0809 16.0804 54.3047 0.0000 0.0000 0.0000
# 4 0.0000 0.0000 0.0000 11.7983 0.0000 0.0000
# 5 0.0000 0.0000 0.0000 0.0000 11.7992 0.0000
# 6 0.0000 0.0000 0.0000 0.0000 0.0000 4.7673
#
#
#
# Elastic Compliance Matrix: (Units=1/GPa)
#
#
# Indices 1 2 3 4 5 6 
#
# 1 0.009635 -0.002236 -0.002191 0.000000 0.000000 0.000000
# 2 -0.002236 0.009636 -0.002191 0.000000 0.000000 0.000000
# 3 -0.002191 -0.002191 0.019712 0.000000 0.000000 0.000000
# 4 0.000000 0.000000 0.000000 0.084758 0.000000 0.000000
# 5 0.000000 0.000000 0.000000 0.000000 0.084752 0.000000
# 6 0.000000 0.000000 0.000000 0.000000 0.000000 0.209762
#
#
# Mechanical properties :
#
#
# Convention : Reuss Voigt Hill
#
# Bulk Modulus (GPa) = 38.83973 45.32886 42.08429
# Shear Modulus (GPa) = 11.36175 20.39513 15.87844
#
# Velocity S-wave (km/s) = 2.41093 3.23016 2.85013
# Velocity P-wave (km/s) = 5.25549 6.09112 5.68867
#
# Compressibility (1/GPa) = 0.02574684
#
# Stress axis : x y z
#
# Youngs Moduli (GPa) = 103.78510 103.78279 50.72976
#
# Poissons Ratio (x) = 0.23204 0.11116
# Poissons Ratio (y) = 0.23204 0.11116
# Poissons Ratio (z) = 0.22741 0.22740
#
# Static dielectric constant tensor:
#      x y z
#    x 1.683280 0.000000 0.000000 
#    y 0.000000 1.683280 0.000000 
#    z 0.000000 0.000000 1.750820 
# 
# From -- ./inp_files/5799.got.cif
#   From: 2010.05.17/outbox.cif.g08.bks.cpg/sg131_3_cif.got.tgz:5799.got - 2010.05.20 12:21:01.
