data_PCOD9566925
_publ_section_title
;
Structure prediction by ZEFSAII (Michael W. Deem and Ramdas Pophale) SiO2 
 PCOD9566925
Probable space group: P 42/M M C
;
_chemical_formula_sum "Si O2"
_cell_formula_units_Z 96
_cell_length_a 24.000000
_cell_length_b 24.000000
_cell_length_c 9.000000
_cell_angle_alpha 90.000000
_cell_angle_beta 90.000000
_cell_angle_gamma 90.000000
_cell_volume 5184.000000
_symmetry_space_group_name_H-M "P 42/M M C"
_symmetry_group_IT_number 131
_symmetry_cell_setting 'tetragonal'
loop_
_space_group_symop_operation_xyz
x,y,z
-x,-y,z
-y,x,1/2+z
y,-x,1/2+z
-x,y,-z
x,-y,-z
y,x,1/2-z
-y,-x,1/2-z
-x,-y,-z
x,y,-z
y,-x,1/2-z
-y,x,1/2-z
x,-y,z
-x,y,z
-y,-x,1/2+z
y,x,1/2+z
loop_
_atom_site_type_symbol
_atom_site_label
_atom_site_fract_x
_atom_site_fract_y
_atom_site_fract_z
Si Si1 0.935681 0.147210 0.672082
Si Si2 0.937667 0.266829 0.179405
Si Si3 0.360359 0.143626 0.672165
Si Si4 0.935164 0.566248 0.663264
Si Si5 0.356348 0.560807 0.321953
Si Si6 0.438560 0.227023 0.822082
O O1 0.897091 0.102910 0.750000
O O2 0.920571 0.154311 0.500000
O O3 0.931279 0.205752 0.755639
O O4 0.000000 0.129429 0.679848
O O5 0.886960 0.305340 0.231174
O O6 0.000000 0.287290 0.222671
O O7 0.936299 0.265882 0.000000
O O8 0.353307 0.156586 0.500000
O O9 0.406674 0.096525 0.701386
O O10 0.386061 0.195522 0.756557
O O11 0.913131 0.584953 0.500000
O O12 0.930084 0.500000 0.666545
O O13 0.000000 0.579967 0.668620
O O14 0.390982 0.609019 0.250000
O O15 0.359344 0.563878 0.500000
O O16 0.377853 0.500000 0.275250
O O17 0.291618 0.563907 0.280968
O O18 0.500000 0.205191 0.773169
O O19 0.437852 0.223029 0.000000
#
# Coordination Sequence:
#
# PCOD9566925 Si02
#       6
#    16  16  16  16  16  16
#     4  10  21  37  59  86 112 139 172 209 252 305
#     4   9  19  36  54  73 104 143 178 217 265 312
#     4  11  21  31  48  75 102 132 175 222 267 312
#     4   9  18  31  45  63  91 129 171 215 265 318
#     4   9  19  36  57  81 108 137 169 207 254 309
#     4   9  19  36  54  72 101 142 182 218 259 309
#
# _framework density 18.518519000000001
#
# number of rings (size 3 to 8) (size 9 to 14) (size 15 to 20)
#    0.000    2.500    0.000    3.500    0.000    7.333 
#    0.000    6.667    0.000    2.000    0.000    0.000 
#    0.000    0.000    0.000    0.000    0.000    0.000 
#
# Total GULP energy -534817.445596 kJ/mol
# GULP energy per Si atom -5571.015058 kJ/mol
# Density = 1.847637 g / cm^3
# Si number density = 18.518519 Si / 1000 Ang^3
#
#
#
# Elastic Constant Matrix: (Units=GPa)
#
#
# Indices 1 2 3 4 5 6 
#
# 1 69.7852 67.9123 30.0886 0.0000 0.0000 0.0000
# 2 67.9123 69.7904 30.0843 0.0000 0.0000 0.0000
# 3 30.0886 30.0843 1.3991 0.0000 0.0000 0.0000
# 4 0.0000 0.0000 0.0000 25.2459 0.0000 0.0000
# 5 0.0000 0.0000 0.0000 0.0000 25.2450 0.0000
# 6 0.0000 0.0000 0.0000 0.0000 0.0000 34.3609
#
#
#
# Elastic Compliance Matrix: (Units=1/GPa)
#
#
# Indices 1 2 3 4 5 6 
#
# 1 0.266116 -0.267025 0.018723 0.000000 0.000000 0.000000
# 2 -0.267025 0.266204 0.018473 0.000000 0.000000 0.000000
# 3 0.018723 0.018473 -0.085119 0.000000 0.000000 0.000000
# 4 0.000000 0.000000 0.000000 0.039610 0.000000 0.000000
# 5 0.000000 0.000000 0.000000 0.000000 0.039612 0.000000
# 6 0.000000 0.000000 0.000000 0.000000 0.000000 0.029103
#
#
# Mechanical properties :
#
#
# Convention : Reuss Voigt Hill
#
# Bulk Modulus (GPa) = -80.27507 44.12724 -18.07391
# Shear Modulus (GPa) = 4.94544 17.82968 11.38756
#
# Velocity S-wave (km/s) = 1.63595 3.10627 2.48246
# Velocity P-wave (km/s) = 6.31460 6.06182 1.25070
#
# Compressibility (1/GPa) = -0.01245717
#
# Stress axis : x y z
#
# Youngs Moduli (GPa) = 3.75776 3.75651 -11.74826
#
# Poissons Ratio (x) = 1.00308 0.21996
# Poissons Ratio (y) = 1.00342 0.21703
# Poissons Ratio (z) = -0.07035 -0.06939
#
# Static dielectric constant tensor:
#      x y z
#    x 1.638970 0.000000 0.000000 
#    y 0.000000 1.638970 0.000000 
#    z 0.000000 0.000000 1.640490 
# 
# From -- ./inp_files/2219.got.cif
#   From: 2010.05.17/outbox.ucp.g08.bks.cvg/sg131_2_cif.got.tgz:2219.got - 2010.06.11 11:38:44.
