data_PCOD9566812
_publ_section_title
;
Structure prediction by ZEFSAII (Michael W. Deem and Ramdas Pophale) SiO2 
 PCOD9566812
Probable space group: P 42/M M C
;
_chemical_formula_sum "Si O2"
_cell_formula_units_Z 112
_cell_length_a 15.373482
_cell_length_b 15.373482
_cell_length_c 26.761547
_cell_angle_alpha 90.000000
_cell_angle_beta 90.000000
_cell_angle_gamma 90.000000
_cell_volume 6324.929694
_symmetry_space_group_name_H-M "P 42/M M C"
_symmetry_group_IT_number 131
_symmetry_cell_setting 'tetragonal'
loop_
_space_group_symop_operation_xyz
x,y,z
-x,-y,z
-y,x,1/2+z
y,-x,1/2+z
-x,y,-z
x,-y,-z
y,x,1/2-z
-y,-x,1/2-z
-x,-y,-z
x,y,-z
y,-x,1/2-z
-y,x,1/2-z
x,-y,z
-x,y,z
-y,-x,1/2+z
y,x,1/2+z
loop_
_atom_site_type_symbol
_atom_site_label
_atom_site_fract_x
_atom_site_fract_y
_atom_site_fract_z
Si Si1 0.396625 0.895856 0.873917
Si Si2 0.226517 0.246102 0.407081
Si Si3 0.671697 0.399886 0.056519
Si Si4 0.097746 0.097392 0.059781
Si Si5 0.397778 0.404615 0.664690
Si Si6 0.298724 0.235873 0.700552
Si Si7 0.903218 0.396444 0.742115
O O1 0.500000 0.879904 0.881861
O O2 0.334286 0.832052 0.905028
O O3 0.375595 0.877729 0.815319
O O4 0.382016 0.000000 0.882489
O O5 0.318295 0.263710 0.434946
O O6 0.167971 0.169665 0.428219
O O7 0.249614 0.219469 0.350538
O O8 0.707216 0.500000 0.060484
O O9 0.608428 0.391348 0.104512
O O10 0.635252 0.392960 0.000000
O O11 0.000000 0.118310 0.078032
O O12 0.121166 0.000000 0.078265
O O13 0.093167 0.092445 0.000000
O O14 0.364304 0.500000 0.678464
O O15 0.500000 0.399393 0.677310
O O16 0.345960 0.328154 0.691196
O O17 0.240726 0.240726 0.750000
O O18 0.162495 0.366879 0.784411
O O19 0.907918 0.500000 0.742775
O O20 0.000000 0.360407 0.750507
#
# Coordination Sequence:
#
# PCOD9566812 Si02
#       7
#    16  16  16  16  16  16  16
#     4   9  18  33  53  77 104 135 173 218 265 318
#     4  11  20  32  57  82 110 140 184 219 269 320
#     4   9  19  35  52  73 105 145 187 228 269 318
#     4   9  19  37  61  88 113 136 169 217 275 337
#     4   9  19  33  48  69  98 137 184 229 271 313
#     4  11  21  32  46  74 106 139 173 220 265 313
#     4   9  18  34  53  69  93 136 185 225 263 309
#
# _framework density 17.707706000000002
#
# number of rings (size 3 to 8) (size 9 to 14) (size 15 to 20)
#    0.000    2.429    1.429    2.571    0.000    4.857 
#    0.000    2.143    0.000    1.714    0.000    8.000 
#    0.000    0.000    0.000    0.000    0.000    0.286 
#
# Total GULP energy -623839.995837 kJ/mol
# GULP energy per Si atom -5569.999963 kJ/mol
# Density = 1.766740 g / cm^3
# Si number density = 17.707706 Si / 1000 Ang^3
#
#
#
# Elastic Constant Matrix: (Units=GPa)
#
#
# Indices 1 2 3 4 5 6 
#
# 1 86.5847 53.5999 15.2456 0.0000 0.0000 0.0000
# 2 53.5999 86.5847 15.2456 0.0000 0.0000 0.0000
# 3 15.2456 15.2456 52.9963 0.0000 0.0000 0.0000
# 4 0.0000 0.0000 0.0000 10.3879 0.0000 0.0000
# 5 0.0000 0.0000 0.0000 0.0000 10.3879 0.0000
# 6 0.0000 0.0000 0.0000 0.0000 0.0000 19.6251
#
#
#
# Elastic Compliance Matrix: (Units=1/GPa)
#
#
# Indices 1 2 3 4 5 6 
#
# 1 0.018963 -0.011354 -0.002189 0.000000 0.000000 0.000000
# 2 -0.011354 0.018963 -0.002189 0.000000 0.000000 0.000000
# 3 -0.002189 -0.002189 0.020129 0.000000 0.000000 0.000000
# 4 0.000000 0.000000 0.000000 0.096266 0.000000 0.000000
# 5 0.000000 0.000000 0.000000 0.000000 0.096266 0.000000
# 6 0.000000 0.000000 0.000000 0.000000 0.000000 0.050955
#
#
# Mechanical properties :
#
#
# Convention : Reuss Voigt Hill
#
# Bulk Modulus (GPa) = 37.60583 43.81641 40.71112
# Shear Modulus (GPa) = 14.62548 17.55184 16.08866
#
# Velocity S-wave (km/s) = 2.87703 3.15174 3.01752
# Velocity P-wave (km/s) = 5.68503 6.16787 5.93136
#
# Compressibility (1/GPa) = 0.02659162
#
# Stress axis : x y z
#
# Youngs Moduli (GPa) = 52.73347 52.73347 49.68028
#
# Poissons Ratio (x) = 0.59872 0.10875
# Poissons Ratio (y) = 0.59872 0.10875
# Poissons Ratio (z) = 0.11544 0.11544
#
# Static dielectric constant tensor:
#      x y z
#    x 1.626340 0.000000 0.000000 
#    y 0.000000 1.626340 0.000000 
#    z 0.000000 0.000000 1.610530 
# 
# From -- ./inp_files/12490.got.cif
#   From: 2010.05.17/outbox.cif.g08.bks.cpg/sg131_7_cif.got.tgz:12490.got - 2010.05.20 12:21:01.
