data_PCOD9566623
_publ_section_title
;
Structure prediction by ZEFSAII (Michael W. Deem and Ramdas Pophale) SiO2 
 PCOD9566623
Probable space group: P 42/M M C
;
_chemical_formula_sum "Si O2"
_cell_formula_units_Z 88
_cell_length_a 17.653413
_cell_length_b 17.653413
_cell_length_c 13.815089
_cell_angle_alpha 90.000000
_cell_angle_beta 90.000000
_cell_angle_gamma 90.000000
_cell_volume 4305.375651
_symmetry_space_group_name_H-M "P 42/M M C"
_symmetry_group_IT_number 131
_symmetry_cell_setting 'tetragonal'
loop_
_space_group_symop_operation_xyz
x,y,z
-x,-y,z
-y,x,1/2+z
y,-x,1/2+z
-x,y,-z
x,-y,-z
y,x,1/2-z
-y,-x,1/2-z
-x,-y,-z
x,y,-z
y,-x,1/2-z
-y,x,1/2-z
x,-y,z
-x,y,z
-y,-x,1/2+z
y,x,1/2+z
loop_
_atom_site_type_symbol
_atom_site_label
_atom_site_fract_x
_atom_site_fract_y
_atom_site_fract_z
Si Si1 0.291201 0.416608 0.730724
Si Si2 0.416172 0.000000 0.616168
Si Si3 0.856303 0.788171 0.892361
Si Si4 0.587382 0.148816 0.886087
Si Si5 0.827934 0.621986 0.890760
Si Si6 0.746502 0.085905 0.815104
O O1 0.351736 0.351736 0.750000
O O2 0.326485 0.500000 0.726379
O O3 0.238355 0.404865 0.636854
O O4 0.228116 0.415686 0.815894
O O5 0.382299 0.082699 0.636787
O O6 0.500000 0.000000 0.658325
O O7 0.419384 0.000000 0.500000
O O8 0.808202 0.710728 0.892032
O O9 0.906859 0.775924 0.796438
O O10 0.800634 0.857854 0.874435
O O11 0.892704 0.792272 0.000000
O O12 0.500000 0.127795 0.856595
O O13 0.659210 0.110363 0.833496
O O14 0.593671 0.133332 0.000000
O O15 0.821210 0.591790 0.000000
O O16 0.754645 0.000000 0.846716
#
# Coordination Sequence:
#
# PCOD9566623 Si02
#       6
#    16   8  16  16  16  16
#     4  11  23  39  59  84 116 157 210 262 312 368
#     4   9  18  32  54  90 128 152 178 223 288 368
#     4  10  22  39  62  92 125 164 208 255 310 375
#     4  10  22  40  61  87 122 164 206 251 310 380
#     4  10  20  36  60  89 123 160 193 234 301 382
#     4  11  23  40  64  94 126 162 210 262 309 370
#
# _framework density 20.439565000000002
#
# number of rings (size 3 to 8) (size 9 to 14) (size 15 to 20)
#    0.000    1.727    1.818    2.182    1.273    5.636 
#    0.000    0.909    0.000    4.909    0.000    8.909 
#    0.000    0.000    0.000    0.000    0.000    0.000 
#
# Total GULP energy -490673.987678 kJ/mol
# GULP energy per Si atom -5575.840769 kJ/mol
# Density = 2.039304 g / cm^3
# Si number density = 20.439565 Si / 1000 Ang^3
#
#
#
# Elastic Constant Matrix: (Units=GPa)
#
#
# Indices 1 2 3 4 5 6 
#
# 1 117.6001 69.9227 25.3550 0.0000 0.0000 0.0000
# 2 69.9227 117.6001 25.3550 0.0000 0.0000 0.0000
# 3 25.3550 25.3550 99.5761 0.0000 0.0000 0.0000
# 4 0.0000 0.0000 0.0000 11.9407 0.0000 0.0000
# 5 0.0000 0.0000 0.0000 0.0000 11.9407 0.0000
# 6 0.0000 0.0000 0.0000 0.0000 0.0000 15.1094
#
#
#
# Elastic Compliance Matrix: (Units=1/GPa)
#
#
# Indices 1 2 3 4 5 6 
#
# 1 0.013351 -0.007624 -0.001458 0.000000 0.000000 0.000000
# 2 -0.007624 0.013351 -0.001458 0.000000 0.000000 0.000000
# 3 -0.001458 -0.001458 0.010785 0.000000 0.000000 0.000000
# 4 0.000000 0.000000 0.000000 0.083748 0.000000 0.000000
# 5 0.000000 0.000000 0.000000 0.000000 0.083748 0.000000
# 6 0.000000 0.000000 0.000000 0.000000 0.000000 0.066184
#
#
# Mechanical properties :
#
#
# Convention : Reuss Voigt Hill
#
# Bulk Modulus (GPa) = 60.95259 64.00462 62.47860
# Shear Modulus (GPa) = 16.79460 22.07438 19.43449
#
# Velocity S-wave (km/s) = 2.86959 3.28987 3.08689
# Velocity P-wave (km/s) = 6.39258 6.76854 6.58324
#
# Compressibility (1/GPa) = 0.01640619
#
# Stress axis : x y z
#
# Youngs Moduli (GPa) = 74.90264 74.90264 92.71964
#
# Poissons Ratio (x) = 0.57103 0.13521
# Poissons Ratio (y) = 0.57103 0.13521
# Poissons Ratio (z) = 0.10923 0.10923
#
# Static dielectric constant tensor:
#      x y z
#    x 1.748630 0.000000 0.000000 
#    y 0.000000 1.748630 0.000000 
#    z 0.000000 0.000000 1.806760 
# 
# From -- ./inp_files/5855.got.cif
#   From: 2010.05.17/outbox.cif.g08.bks.cpg/sg131_3_cif.got.tgz:5855.got - 2010.05.20 12:21:01.
