data_PCOD9566165
_publ_section_title
;
Structure prediction by ZEFSAII (Michael W. Deem and Ramdas Pophale) SiO2 
 PCOD9566165
Probable space group: P 42/M M C
;
_chemical_formula_sum "Si O2"
_cell_formula_units_Z 88
_cell_length_a 14.406981
_cell_length_b 14.406981
_cell_length_c 26.725302
_cell_angle_alpha 90.000000
_cell_angle_beta 90.000000
_cell_angle_gamma 90.000000
_cell_volume 5547.133122
_symmetry_space_group_name_H-M "P 42/M M C"
_symmetry_group_IT_number 131
_symmetry_cell_setting 'tetragonal'
loop_
_space_group_symop_operation_xyz
x,y,z
-x,-y,z
-y,x,1/2+z
y,-x,1/2+z
-x,y,-z
x,-y,-z
y,x,1/2-z
-y,-x,1/2-z
-x,-y,-z
x,y,-z
y,-x,1/2-z
-y,x,1/2-z
x,-y,z
-x,y,z
-y,-x,1/2+z
y,x,1/2+z
loop_
_atom_site_type_symbol
_atom_site_label
_atom_site_fract_x
_atom_site_fract_y
_atom_site_fract_z
Si Si1 0.605989 0.388262 0.805821
Si Si2 0.277952 0.105073 0.178148
Si Si3 0.111256 0.392185 0.775254
Si Si4 0.101306 0.898695 0.750000
Si Si5 0.296322 0.767949 0.639705
Si Si6 0.892695 0.609023 0.940248
O O1 0.639889 0.360112 0.750000
O O2 0.605517 0.500000 0.805258
O O3 0.500000 0.356548 0.812294
O O4 0.674248 0.351827 0.847817
O O5 0.358767 0.128133 0.218361
O O6 0.184691 0.104708 0.211524
O O7 0.260639 0.188671 0.140315
O O8 0.292503 0.000000 0.158937
O O9 0.138683 0.500000 0.782637
O O10 0.164476 0.325906 0.813973
O O11 0.000000 0.384885 0.783309
O O12 0.000000 0.893067 0.775431
O O13 0.329958 0.821239 0.590753
O O14 0.878982 0.500000 0.927599
O O15 0.000000 0.631652 0.927466
O O16 0.882468 0.618548 0.000000
#
# Coordination Sequence:
#
# PCOD9566165 Si02
#       6
#    16  16  16   8  16  16
#     4   9  18  30  43  65  99 132 160 189 222 268
#     4  10  20  31  41  63  96 126 156 191 228 268
#     4  10  19  29  43  67  97 124 152 191 234 273
#     4   9  16  28  42  54  80 121 154 180 216 261
#     4  12  19  28  49  70  87 123 164 196 224 274
#     4   9  19  35  53  74  97 116 140 185 243 291
#
# _framework density 15.864051
#
# number of rings (size 3 to 8) (size 9 to 14) (size 15 to 20)
#    0.000    2.091    1.818    4.364    0.000    4.364 
#    0.000    0.000    0.000    1.091    0.000    3.818 
#    0.000    0.000    0.000    6.182    0.000    0.182 
#
# Total GULP energy -490757.547569 kJ/mol
# GULP energy per Si atom -5576.790313 kJ/mol
# Density = 1.582794 g / cm^3
# Si number density = 15.864051 Si / 1000 Ang^3
#
#
#
# Elastic Constant Matrix: (Units=GPa)
#
#
# Indices 1 2 3 4 5 6 
#
# 1 73.4797 17.4197 24.7389 0.0000 0.0000 0.0000
# 2 17.4197 73.4795 24.7386 0.0000 0.0000 0.0000
# 3 24.7389 24.7386 38.7159 0.0000 0.0000 0.0000
# 4 0.0000 0.0000 0.0000 21.7465 0.0000 0.0000
# 5 0.0000 0.0000 0.0000 0.0000 21.7466 0.0000
# 6 0.0000 0.0000 0.0000 0.0000 0.0000 20.5979
#
#
#
# Elastic Compliance Matrix: (Units=1/GPa)
#
#
# Indices 1 2 3 4 5 6 
#
# 1 0.017353 -0.000485 -0.010778 0.000000 0.000000 0.000000
# 2 -0.000485 0.017353 -0.010778 0.000000 0.000000 0.000000
# 3 -0.010778 -0.010778 0.039604 0.000000 0.000000 0.000000
# 4 0.000000 0.000000 0.000000 0.045984 0.000000 0.000000
# 5 0.000000 0.000000 0.000000 0.000000 0.045984 0.000000
# 6 0.000000 0.000000 0.000000 0.000000 0.000000 0.048549
#
#
# Mechanical properties :
#
#
# Convention : Reuss Voigt Hill
#
# Bulk Modulus (GPa) = 33.08397 35.49662 34.29029
# Shear Modulus (GPa) = 18.58836 20.73673 19.66254
#
# Velocity S-wave (km/s) = 3.42677 3.61938 3.52439
# Velocity P-wave (km/s) = 6.04623 6.31590 6.18254
#
# Compressibility (1/GPa) = 0.03022612
#
# Stress axis : x y z
#
# Youngs Moduli (GPa) = 57.62680 57.62706 25.25027
#
# Poissons Ratio (x) = 0.02795 0.27216
# Poissons Ratio (y) = 0.02795 0.27215
# Poissons Ratio (z) = 0.62113 0.62112
#
# Static dielectric constant tensor:
#      x y z
#    x 1.563800 0.000000 0.000000 
#    y 0.000000 1.563800 0.000000 
#    z 0.000000 0.000000 1.503810 
# 
# From -- ./inp_files/12284.got.cif
#   From: 2010.05.17/outbox.cif.g08.bks.cpg/sg131_7_cif.got.tgz:12284.got - 2010.05.20 12:21:01.
