data_PCOD9566882
_publ_section_title
;
Structure prediction by ZEFSAII (Michael W. Deem and Ramdas Pophale) SiO2 
 PCOD9566882
Probable space group: P 42/M M C
;
_chemical_formula_sum "Si O2"
_cell_formula_units_Z 38
_cell_length_a 11.542795
_cell_length_b 11.542795
_cell_length_c 14.647599
_cell_angle_alpha 90.000000
_cell_angle_beta 90.000000
_cell_angle_gamma 90.000000
_cell_volume 1951.589206
_symmetry_space_group_name_H-M "P 42/M M C"
_symmetry_group_IT_number 131
_symmetry_cell_setting 'tetragonal'
loop_
_space_group_symop_operation_xyz
x,y,z
-x,-y,z
-y,x,1/2+z
y,-x,1/2+z
-x,y,-z
x,-y,-z
y,x,1/2-z
-y,-x,1/2-z
-x,-y,-z
x,y,-z
y,-x,1/2-z
-y,x,1/2-z
x,-y,z
-x,y,z
-y,-x,1/2+z
y,x,1/2+z
loop_
_atom_site_type_symbol
_atom_site_label
_atom_site_fract_x
_atom_site_fract_y
_atom_site_fract_z
Si Si1 0.137514 0.742561 0.500000
Si Si2 0.214201 0.637290 0.690987
Si Si3 0.000000 0.000000 0.750000
Si Si4 0.223248 0.000000 0.500000
Si Si5 0.261750 0.000000 0.303644
O O1 0.199195 0.692991 0.590637
O O2 0.000000 0.712151 0.500000
O O3 0.150502 0.881332 0.500000
O O4 0.325905 0.674096 0.750000
O O5 0.203358 0.500000 0.683190
O O6 0.109957 0.691504 0.750013
O O7 0.000000 0.121143 0.804030
O O8 0.298267 0.000000 0.408252
#
# Coordination Sequence:
#
# PCOD9566882 Si02
#       5
#     8  16   2   4   8
#     4  12  24  40  69 107 139 176 221 279 355 422
#     4  12  26  46  68  97 137 185 235 282 334 402
#     4  12  20  38  68  96 140 174 204 286 356 416
#     4  12  23  36  67 102 140 170 209 285 346 416
#     4  12  23  40  64 101 139 175 220 278 353 411
#
# _framework density 19.471311
#
# number of rings (size 3 to 8) (size 9 to 14) (size 15 to 20)
#    0.000    0.000    8.421    1.579    2.947    1.263 
#    0.000    5.263    0.000    2.526    0.000    0.000 
#    0.000    0.000    0.000    0.000    0.000    0.000 
#
# Total GULP energy -212427.400683 kJ/mol
# GULP energy per Si atom -5590.194755 kJ/mol
# Density = 1.942699 g / cm^3
# Si number density = 19.471311 Si / 1000 Ang^3
#
#
#
# Elastic Constant Matrix: (Units=GPa)
#
#
# Indices 1 2 3 4 5 6 
#
# 1 117.8965 32.8043 51.5230 0.0000 0.0000 0.0000
# 2 32.8043 117.8997 51.5236 0.0000 0.0000 0.0000
# 3 51.5230 51.5236 210.8938 0.0000 0.0000 0.0000
# 4 0.0000 0.0000 0.0000 2.9539 0.0000 0.0000
# 5 0.0000 0.0000 0.0000 0.0000 2.9522 0.0000
# 6 0.0000 0.0000 0.0000 0.0000 0.0000 14.0741
#
#
#
# Elastic Compliance Matrix: (Units=1/GPa)
#
#
# Indices 1 2 3 4 5 6 
#
# 1 0.009859 -0.001893 -0.001946 0.000000 0.000000 0.000000
# 2 -0.001893 0.009859 -0.001946 0.000000 0.000000 0.000000
# 3 -0.001946 -0.001946 0.005693 0.000000 0.000000 0.000000
# 4 0.000000 0.000000 0.000000 0.338540 0.000000 0.000000
# 5 0.000000 0.000000 0.000000 0.000000 0.338735 0.000000
# 6 0.000000 0.000000 0.000000 0.000000 0.000000 0.071052
#
#
# Mechanical properties :
#
#
# Convention : Reuss Voigt Hill
#
# Bulk Modulus (GPa) = 72.25200 79.82133 76.03667
# Shear Modulus (GPa) = 6.32974 24.71863 15.52418
#
# Velocity S-wave (km/s) = 1.80495 3.56686 2.82669
# Velocity P-wave (km/s) = 6.44448 7.61883 7.05613
#
# Compressibility (1/GPa) = 0.01384045
#
# Stress axis : x y z
#
# Youngs Moduli (GPa) = 101.42801 101.43080 175.66343
#
# Poissons Ratio (x) = 0.19198 0.34189
# Poissons Ratio (y) = 0.19197 0.34188
# Poissons Ratio (z) = 0.19741 0.19741
#
# Static dielectric constant tensor:
#      x y z
#    x 1.686850 0.000000 0.000000 
#    y 0.000000 1.686850 0.000000 
#    z 0.000000 0.000000 1.702070 
# 
# From -- ./inp_files/5072.got.cif
#   From: 2010.05.17/outbox.cif.g08.bks.cpg/sg131_3_cif.got.tgz:5072.got - 2010.05.20 12:21:01.
