data_PCOD9566585
_publ_section_title
;
Structure prediction by ZEFSAII (Michael W. Deem and Ramdas Pophale) SiO2 
 PCOD9566585
Probable space group: P 42/M M C
;
_chemical_formula_sum "Si O2"
_cell_formula_units_Z 72
_cell_length_a 21.258747
_cell_length_b 21.258747
_cell_length_c 8.401823
_cell_angle_alpha 90.000000
_cell_angle_beta 90.000000
_cell_angle_gamma 90.000000
_cell_volume 3797.072198
_symmetry_space_group_name_H-M "P 42/M M C"
_symmetry_group_IT_number 131
_symmetry_cell_setting 'tetragonal'
loop_
_space_group_symop_operation_xyz
x,y,z
-x,-y,z
-y,x,1/2+z
y,-x,1/2+z
-x,y,-z
x,-y,-z
y,x,1/2-z
-y,-x,1/2-z
-x,-y,-z
x,y,-z
y,-x,1/2-z
-y,x,1/2-z
x,-y,z
-x,y,z
-y,-x,1/2+z
y,x,1/2+z
loop_
_atom_site_type_symbol
_atom_site_label
_atom_site_fract_x
_atom_site_fract_y
_atom_site_fract_z
Si Si1 0.672171 0.769524 0.808805
Si Si2 0.173685 0.928874 0.809485
Si Si3 0.570304 0.666723 0.191513
Si Si4 0.093036 0.316391 0.812853
Si Si5 0.426287 0.000000 0.306075
O O1 0.734148 0.734148 0.750000
O O2 0.614272 0.724851 0.761507
O O3 0.669697 0.835130 0.722802
O O4 0.673086 0.776779 0.000000
O O5 0.126650 0.873351 0.750000
O O6 0.247508 0.921361 0.761087
O O7 0.154255 0.000000 0.756748
O O8 0.171317 0.926803 0.000000
O O9 0.603940 0.603940 0.250000
O O10 0.500000 0.672862 0.252482
O O11 0.569291 0.665795 0.000000
O O12 0.056864 0.379580 0.756545
O O13 0.079859 0.310069 0.000000
O O14 0.500000 0.000000 0.251115
O O15 0.430077 0.000000 0.500000
#
# Coordination Sequence:
#
# PCOD9566585 Si02
#       5
#    16  16  16  16   8
#     4  10  20  35  55  80 110 144 185 233 282 336
#     4  11  24  41  63  90 122 159 201 247 295 353
#     4   9  19  35  53  75 106 143 183 230 284 342
#     4  11  21  37  61  86 116 153 193 239 289 345
#     4   9  20  38  59  85 116 151 190 233 283 342
#
# _framework density 18.961977999999998
#
# number of rings (size 3 to 8) (size 9 to 14) (size 15 to 20)
#    0.000    1.889    1.111    2.667    0.000    4.000 
#    0.000    2.222    0.000    4.667    0.000    0.000 
#    0.000    0.000    0.000    0.000    0.000    0.000 
#
# Total GULP energy -401411.022469 kJ/mol
# GULP energy per Si atom -5575.153090 kJ/mol
# Density = 1.891882 g / cm^3
# Si number density = 18.961978 Si / 1000 Ang^3
#
#
#
# Elastic Constant Matrix: (Units=GPa)
#
#
# Indices 1 2 3 4 5 6 
#
# 1 164.7514 61.9865 13.9664 0.0000 0.0000 0.0000
# 2 61.9865 164.7536 13.9676 0.0000 0.0000 0.0000
# 3 13.9664 13.9676 23.0648 0.0000 0.0000 0.0000
# 4 0.0000 0.0000 0.0000 65.6793 0.0000 0.0000
# 5 0.0000 0.0000 0.0000 0.0000 65.6558 0.0000
# 6 0.0000 0.0000 0.0000 0.0000 0.0000 -19.0593
#
#
#
# Elastic Compliance Matrix: (Units=1/GPa)
#
#
# Indices 1 2 3 4 5 6 
#
# 1 0.007248 -0.002482 -0.002886 0.000000 0.000000 0.000000
# 2 -0.002482 0.007248 -0.002886 0.000000 0.000000 0.000000
# 3 -0.002886 -0.002886 0.046852 0.000000 0.000000 0.000000
# 4 0.000000 0.000000 0.000000 0.015226 0.000000 0.000000
# 5 0.000000 0.000000 0.000000 0.000000 0.015231 0.000000
# 6 0.000000 0.000000 0.000000 0.000000 0.000000 -0.052468
#
#
# Mechanical properties :
#
#
# Convention : Reuss Voigt Hill
#
# Bulk Modulus (GPa) = 22.30191 59.15677 40.72934
# Shear Modulus (GPa) = 70.62907 39.96510 55.29708
#
# Velocity S-wave (km/s) = 6.10971 4.59589 5.40605
# Velocity P-wave (km/s) = 7.84591 7.70897 7.77774
#
# Compressibility (1/GPa) = 0.04483921
#
# Stress axis : x y z
#
# Youngs Moduli (GPa) = 137.96157 137.96221 21.34403
#
# Poissons Ratio (x) = 0.34249 0.06159
# Poissons Ratio (y) = 0.34248 0.06160
# Poissons Ratio (z) = 0.39813 0.39820
#
# Static dielectric constant tensor:
#      x y z
#    x 1.640680 0.000000 0.000000 
#    y 0.000000 1.640670 0.000000 
#    z 0.000000 0.000000 1.672900 
# 
# From -- ./inp_files/1757.got.cif
#   From: 2010.05.17/outbox.cif.g08.bks.cpg/sg131_1_cif.got.tgz:1757.got - 2010.05.20 12:21:01.
