data_PCOD9566621
_publ_section_title
;
Structure prediction by ZEFSAII (Michael W. Deem and Ramdas Pophale) SiO2 
 PCOD9566621
Probable space group: P 42/M M C
;
_chemical_formula_sum "Si O2"
_cell_formula_units_Z 112
_cell_length_a 14.560003
_cell_length_b 14.560003
_cell_length_c 26.722110
_cell_angle_alpha 90.000000
_cell_angle_beta 90.000000
_cell_angle_gamma 90.000000
_cell_volume 5664.918633
_symmetry_space_group_name_H-M "P 42/M M C"
_symmetry_group_IT_number 131
_symmetry_cell_setting 'tetragonal'
loop_
_space_group_symop_operation_xyz
x,y,z
-x,-y,z
-y,x,1/2+z
y,-x,1/2+z
-x,y,-z
x,-y,-z
y,x,1/2-z
-y,-x,1/2-z
-x,-y,-z
x,y,-z
y,-x,1/2-z
-y,x,1/2-z
x,-y,z
-x,y,z
-y,-x,1/2+z
y,x,1/2+z
loop_
_atom_site_type_symbol
_atom_site_label
_atom_site_fract_x
_atom_site_fract_y
_atom_site_fract_z
Si Si1 0.608665 0.249813 0.767627
Si Si2 0.392655 0.235826 0.886056
Si Si3 0.610063 0.100781 0.595459
Si Si4 0.283445 0.894276 0.298999
Si Si5 0.609067 0.298430 0.443678
Si Si6 0.109525 0.752065 0.442104
Si Si7 0.890194 0.105320 0.853826
O O1 0.655428 0.344573 0.750000
O O2 0.500000 0.248062 0.756950
O O3 0.622146 0.232974 0.826620
O O4 0.662342 0.170995 0.737895
O O5 0.500000 0.222363 0.896209
O O6 0.358479 0.334592 0.905032
O O7 0.331232 0.163264 0.916243
O O8 0.500000 0.103513 0.604136
O O9 0.662702 0.107362 0.647972
O O10 0.633090 0.190906 0.563837
O O11 0.631144 0.000000 0.573180
O O12 0.180308 0.862698 0.312625
O O13 0.281280 0.000000 0.281533
O O14 0.632596 0.326678 0.500000
O O15 0.500000 0.307410 0.436854
O O16 0.137243 0.765333 0.500000
O O17 0.125739 0.839414 0.406040
O O18 0.000000 0.735065 0.441504
O O19 0.000000 0.113667 0.860178
O O20 0.869199 0.000000 0.839465
#
# Coordination Sequence:
#
# PCOD9566621 Si02
#       7
#    16  16  16  16  16  16  16
#     4  11  24  41  62  87 114 148 192 243 302 362
#     4  11  25  42  59  81 110 145 189 244 298 345
#     4   9  17  30  52  85 122 155 188 230 280 336
#     4  10  20  36  60  88 119 157 197 236 284 343
#     4  10  21  37  59  86 115 150 190 232 284 349
#     4  10  21  37  59  86 116 155 200 241 283 333
#     4   9  18  34  59  93 129 160 192 233 283 342
#
# _framework density 19.770803999999998
#
# number of rings (size 3 to 8) (size 9 to 14) (size 15 to 20)
#    0.000    2.000    0.000    3.429    0.000    5.571 
#    0.000    7.857    0.000    6.000    0.000    4.000 
#    0.000    0.000    0.000    0.000    0.000    0.000 
#
# Total GULP energy -625851.817695 kJ/mol
# GULP energy per Si atom -5587.962658 kJ/mol
# Density = 1.972580 g / cm^3
# Si number density = 19.770804 Si / 1000 Ang^3
#
#
#
# Elastic Constant Matrix: (Units=GPa)
#
#
# Indices 1 2 3 4 5 6 
#
# 1 93.0859 57.1273 67.2251 0.0000 0.0000 0.0000
# 2 57.1273 93.0847 67.2258 0.0000 0.0000 0.0000
# 3 67.2251 67.2258 104.7318 0.0000 0.0000 0.0000
# 4 0.0000 0.0000 0.0000 11.7802 0.0000 0.0000
# 5 0.0000 0.0000 0.0000 0.0000 11.7795 0.0000
# 6 0.0000 0.0000 0.0000 0.0000 0.0000 26.6200
#
#
#
# Elastic Compliance Matrix: (Units=1/GPa)
#
#
# Indices 1 2 3 4 5 6 
#
# 1 0.021728 -0.006082 -0.010043 0.000000 0.000000 0.000000
# 2 -0.006082 0.021729 -0.010044 0.000000 0.000000 0.000000
# 3 -0.010043 -0.010044 0.022442 0.000000 0.000000 0.000000
# 4 0.000000 0.000000 0.000000 0.084888 0.000000 0.000000
# 5 0.000000 0.000000 0.000000 0.000000 0.084894 0.000000
# 6 0.000000 0.000000 0.000000 0.000000 0.000000 0.037566
#
#
# Mechanical properties :
#
#
# Convention : Reuss Voigt Hill
#
# Bulk Modulus (GPa) = 73.73792 74.89544 74.31668
# Shear Modulus (GPa) = 15.14677 16.65755 15.90216
#
# Velocity S-wave (km/s) = 2.77089 2.90579 2.83914
# Velocity P-wave (km/s) = 6.90032 7.01586 6.95833
#
# Compressibility (1/GPa) = 0.01356154
#
# Stress axis : x y z
#
# Youngs Moduli (GPa) = 46.02353 46.02154 44.56025
#
# Poissons Ratio (x) = 0.27989 0.44752
# Poissons Ratio (y) = 0.27990 0.44755
# Poissons Ratio (z) = 0.46221 0.46223
#
# Static dielectric constant tensor:
#      x y z
#    x 1.698020 0.000000 0.000000 
#    y 0.000000 1.698020 0.000000 
#    z 0.000000 0.000000 1.667140 
# 
# From -- ./inp_files/11279.got.cif
#   From: 2010.05.17/outbox.cif.g08.bks.cpg/sg131_6_cif.got.tgz:11279.got - 2010.05.20 12:21:01.
