data_PCOD9566012
_publ_section_title
;
Structure prediction by ZEFSAII (Michael W. Deem and Ramdas Pophale) SiO2 
 PCOD9566012
Probable space group: P 4/N C C
;
_chemical_formula_sum "Si O2"
_cell_formula_units_Z 40
_cell_length_a 11.866172
_cell_length_b 11.866172
_cell_length_c 9.475843
_cell_angle_alpha 90.000000
_cell_angle_beta 90.000000
_cell_angle_gamma 90.000000
_cell_volume 1334.255909
_symmetry_space_group_name_H-M "P 4/N C C"
_symmetry_group_IT_number 130
_symmetry_cell_setting 'tetragonal'
loop_
_space_group_symop_operation_xyz
x,y,z
1/2-y,x,z
1/2-x,1/2-y,z
y,1/2-x,z
1/2+x,-y,1/2-z
-x,1/2+y,1/2-z
1/2+y,1/2+x,1/2-z
-y,-x,1/2-z
-x,-y,-z
1/2+y,-x,-z
1/2+x,1/2+y,-z
-y,1/2+x,-z
1/2-x,y,1/2+z
x,1/2-y,1/2+z
1/2-y,1/2-x,1/2+z
y,x,1/2+z
loop_
_atom_site_type_symbol
_atom_site_label
_atom_site_fract_x
_atom_site_fract_y
_atom_site_fract_z
Si Si1 0.278655 0.955434 0.793557
Si Si2 0.376474 0.046299 0.051013
Si Si3 0.250000 0.250000 0.124655
Si Si4 0.250000 0.750000 0.500000
O O1 0.308231 0.054503 0.902439
O O2 0.240407 0.858581 0.903172
O O3 0.329066 0.134812 0.616613
O O4 0.185405 0.974318 0.673989
O O5 0.601870 0.101870 0.250000
O O6 0.500000 0.000000 0.000000
#
# Coordination Sequence:
#
# PCOD9566012 Si02
#       4
#    16  16   4   4
#     4  12  27  53  89 137 190 247 332 412 499 612
#     4  12  31  58  92 137 197 263 325 420 519 603
#     4  12  32  62  88 130 196 246 332 402 504 618
#     4  12  26  48  94 140 186 244 346 416 498 604
#
# _framework density 29.979258000000002
#
# number of rings (size 3 to 8) (size 9 to 14) (size 15 to 20)
#    0.000    0.000    4.000    3.000    0.000    8.000 
#    7.200    2.000    0.000    0.000    0.000    0.000 
#    0.000    0.000    0.000    0.000    0.000    0.000 
#
# Total GULP energy -222825.822208 kJ/mol
# GULP energy per Si atom -5570.645555 kJ/mol
# Density = 2.991102 g / cm^3
# Si number density = 29.979258 Si / 1000 Ang^3
#
#
#
# Elastic Constant Matrix: (Units=GPa)
#
#
# Indices 1 2 3 4 5 6 
#
# 1 79.8381 -19.2670 38.6491 0.0000 0.0000 0.0000
# 2 -19.2670 79.8381 38.6491 0.0000 0.0000 0.0000
# 3 38.6491 38.6491 257.6161 0.0000 0.0000 0.0000
# 4 0.0000 0.0000 0.0000 45.6951 0.0000 0.0000
# 5 0.0000 0.0000 0.0000 0.0000 45.6951 0.0000
# 6 0.0000 0.0000 0.0000 0.0000 0.0000 79.2860
#
#
#
# Elastic Compliance Matrix: (Units=1/GPa)
#
#
# Indices 1 2 3 4 5 6 
#
# 1 0.015255 0.005164 -0.003063 0.000000 0.000000 0.000000
# 2 0.005164 0.015255 -0.003063 0.000000 0.000000 0.000000
# 3 -0.003063 -0.003063 0.004801 0.000000 0.000000 0.000000
# 4 0.000000 0.000000 0.000000 0.021884 0.000000 0.000000
# 5 0.000000 0.000000 0.000000 0.000000 0.021884 0.000000
# 6 0.000000 0.000000 0.000000 0.000000 0.000000 0.012613
#
#
# Mechanical properties :
#
#
# Convention : Reuss Voigt Hill
#
# Bulk Modulus (GPa) = 29.95339 59.26160 44.60750
# Shear Modulus (GPa) = 47.73531 58.08598 52.91065
#
# Velocity S-wave (km/s) = 3.99466 4.40652 4.20564
# Velocity P-wave (km/s) = 5.59370 6.76021 6.20443
#
# Compressibility (1/GPa) = 0.03338520
#
# Stress axis : x y z
#
# Youngs Moduli (GPa) = 65.55410 65.55410 208.29391
#
# Poissons Ratio (x) = -0.33854 0.63808
# Poissons Ratio (y) = -0.33854 0.63808
# Poissons Ratio (z) = 0.20082 0.20082
#
# Static dielectric constant tensor:
#      x y z
#    x 2.469920 0.000000 0.000000 
#    y 0.000000 2.469920 0.000000 
#    z 0.000000 0.000000 2.403530 
# 
# From -- ./inp_files/433.got.cif
#   From: 2010.05.17/outbox.cif.g08.bks.cpg/sg130_1_cif.got.tgz:433.got - 2010.05.20 12:17:35.
