data_PCOD9566234
_publ_section_title
;
Structure prediction by ZEFSAII (Michael W. Deem and Ramdas Pophale) SiO2 
 PCOD9566234
Probable space group: P 42/M M C
;
_chemical_formula_sum "Si O2"
_cell_formula_units_Z 88
_cell_length_a 15.609780
_cell_length_b 15.609780
_cell_length_c 19.504282
_cell_angle_alpha 90.000000
_cell_angle_beta 90.000000
_cell_angle_gamma 90.000000
_cell_volume 4752.515392
_symmetry_space_group_name_H-M "P 42/M M C"
_symmetry_group_IT_number 131
_symmetry_cell_setting 'tetragonal'
loop_
_space_group_symop_operation_xyz
x,y,z
-x,-y,z
-y,x,1/2+z
y,-x,1/2+z
-x,y,-z
x,-y,-z
y,x,1/2-z
-y,-x,1/2-z
-x,-y,-z
x,y,-z
y,-x,1/2-z
-y,x,1/2-z
x,-y,z
-x,y,z
-y,-x,1/2+z
y,x,1/2+z
loop_
_atom_site_type_symbol
_atom_site_label
_atom_site_fract_x
_atom_site_fract_y
_atom_site_fract_z
Si Si1 0.776869 0.246977 0.420240
Si Si2 0.602025 0.907849 0.500000
Si Si3 0.624230 0.094136 0.265979
Si Si4 0.180815 0.903556 0.686759
Si Si5 0.404106 0.222975 0.379611
Si Si6 0.596364 0.098686 0.104125
O O1 0.768428 0.220114 0.500000
O O2 0.813183 0.170178 0.371754
O O3 0.683242 0.275943 0.389940
O O4 0.840004 0.327780 0.418878
O O5 0.500000 0.918008 0.500000
O O6 0.617604 0.854447 0.431945
O O7 0.645162 0.000000 0.500000
O O8 0.725846 0.096633 0.277575
O O9 0.591681 0.176071 0.307007
O O10 0.600461 0.098842 0.186946
O O11 0.595607 0.000000 0.292739
O O12 0.118252 0.881748 0.750000
O O13 0.164978 0.000000 0.659822
O O14 0.500000 0.257431 0.396218
O O15 0.500000 0.123990 0.083248
O O16 0.610401 0.000000 0.082658
#
# Coordination Sequence:
#
# PCOD9566234 Si02
#       6
#    16   8  16  16  16  16
#     4  11  23  38  56  83 118 153 192 238 285 338
#     4   9  16  26  42  70 110 149 182 214 260 331
#     4   9  17  31  53  80 110 142 181 231 282 332
#     4  10  20  36  58  83 115 154 192 229 276 339
#     4  10  19  31  49  77 113 151 183 219 275 339
#     4  10  21  38  61  85 107 137 184 244 305 349
#
# _framework density 18.516508999999999
#
# number of rings (size 3 to 8) (size 9 to 14) (size 15 to 20)
#    0.000    2.091    2.727    1.091    0.000    3.818 
#    0.000    0.909    0.000    0.545    0.000    3.818 
#    0.000    3.273    0.000    0.000    0.000    0.000 
#
# Total GULP energy -490145.757779 kJ/mol
# GULP energy per Si atom -5569.838157 kJ/mol
# Density = 1.847436 g / cm^3
# Si number density = 18.516509 Si / 1000 Ang^3
#
#
#
# Elastic Constant Matrix: (Units=GPa)
#
#
# Indices 1 2 3 4 5 6 
#
# 1 93.0955 61.0776 24.6606 0.0000 0.0000 0.0000
# 2 61.0776 93.0955 24.6606 0.0000 0.0000 0.0000
# 3 24.6606 24.6606 88.9382 0.0000 0.0000 0.0000
# 4 0.0000 0.0000 0.0000 -0.0982 0.0000 0.0000
# 5 0.0000 0.0000 0.0000 0.0000 -0.0982 0.0000
# 6 0.0000 0.0000 0.0000 0.0000 0.0000 10.4828
#
#
#
# Elastic Compliance Matrix: (Units=1/GPa)
#
#
# Indices 1 2 3 4 5 6 
#
# 1 0.019175 -0.012057 -0.001974 0.000000 0.000000 0.000000
# 2 -0.012057 0.019175 -0.001974 0.000000 0.000000 0.000000
# 3 -0.001974 -0.001974 0.012338 0.000000 0.000000 0.000000
# 4 0.000000 0.000000 0.000000-10.186953 0.000000 0.000000
# 5 0.000000 0.000000 0.000000 0.000000-10.186953 0.000000
# 6 0.000000 0.000000 0.000000 0.000000 0.000000 0.095394
#
#
# Mechanical properties :
#
#
# Convention : Reuss Voigt Hill
#
# Bulk Modulus (GPa) = 53.53560 55.10299 54.31929
# Shear Modulus (GPa) = -0.24765 13.03932 6.39584
#
# Velocity S-wave (km/s) = -0.36611 2.65656 1.86054
# Velocity P-wave (km/s) = 5.36623 6.26364 5.83222
#
# Compressibility (1/GPa) = 0.01867916
#
# Stress axis : x y z
#
# Youngs Moduli (GPa) = 52.15115 52.15115 81.04909
#
# Poissons Ratio (x) = 0.62881 0.15995
# Poissons Ratio (y) = 0.62881 0.15995
# Poissons Ratio (z) = 0.10292 0.10292
#
# Static dielectric constant tensor:
#      x y z
#    x 1.687000 0.000000 0.000000 
#    y 0.000000 1.687000 0.000000 
#    z 0.000000 0.000000 1.691910 
# 
# From -- ./inp_files/9611.got.cif
#   From: 2010.05.17/outbox.cif.g08.bks.cpg/sg131_5_cif.got.tgz:9611.got - 2010.05.20 12:21:01.
