data_PCOD9566247
_publ_section_title
;
Structure prediction by ZEFSAII (Michael W. Deem and Ramdas Pophale) SiO2 
 PCOD9566247
Probable space group: P 42/M M C
;
_chemical_formula_sum "Si O2"
_cell_formula_units_Z 72
_cell_length_a 21.298928
_cell_length_b 21.298928
_cell_length_c 8.523292
_cell_angle_alpha 90.000000
_cell_angle_beta 90.000000
_cell_angle_gamma 90.000000
_cell_volume 3866.543122
_symmetry_space_group_name_H-M "P 42/M M C"
_symmetry_group_IT_number 131
_symmetry_cell_setting 'tetragonal'
loop_
_space_group_symop_operation_xyz
x,y,z
-x,-y,z
-y,x,1/2+z
y,-x,1/2+z
-x,y,-z
x,-y,-z
y,x,1/2-z
-y,-x,1/2-z
-x,-y,-z
x,y,-z
y,-x,1/2-z
-y,x,1/2-z
x,-y,z
-x,y,z
-y,-x,1/2+z
y,x,1/2+z
loop_
_atom_site_type_symbol
_atom_site_label
_atom_site_fract_x
_atom_site_fract_y
_atom_site_fract_z
Si Si1 0.830450 0.070424 0.187482
Si Si2 0.570638 0.328012 0.310287
Si Si3 0.737126 0.836520 0.687511
Si Si4 0.500000 0.074107 0.691317
Si Si5 0.594888 0.816480 0.309346
O O1 0.884884 0.115117 0.250000
O O2 0.765693 0.099306 0.248026
O O3 0.839611 0.000000 0.242970
O O4 0.830971 0.072198 0.000000
O O5 0.625982 0.374019 0.250000
O O6 0.574597 0.327936 0.500000
O O7 0.500000 0.349893 0.265954
O O8 0.575703 0.254322 0.259064
O O9 0.781394 0.781394 0.750000
O O10 0.740289 0.836986 0.500000
O O11 0.666551 0.825227 0.737399
O O12 0.500000 0.070896 0.500000
O O13 0.557240 0.120724 0.739647
O O14 0.500000 0.000000 0.743354
O O15 0.589620 0.815452 0.500000
#
# Coordination Sequence:
#
# PCOD9566247 Si02
#       5
#    16  16  16   8  16
#     4  10  21  36  53  74 102 136 172 212 261 315
#     4  10  20  35  55  77 108 145 181 226 274 323
#     4  10  19  31  51  77 104 133 170 215 259 309
#     4   9  16  28  48  74 104 135 170 212 261 317
#     4   9  17  31  50  75 106 139 174 216 268 315
#
# _framework density 18.621286000000001
#
# number of rings (size 3 to 8) (size 9 to 14) (size 15 to 20)
#    0.000    2.333    1.111    3.333    0.000    3.556 
#    0.000    5.556    0.000    0.000    0.000    0.000 
#    0.000    6.222    0.000    0.000    0.000    0.000 
#
# Total GULP energy -401118.693706 kJ/mol
# GULP energy per Si atom -5571.092968 kJ/mol
# Density = 1.857890 g / cm^3
# Si number density = 18.621286 Si / 1000 Ang^3
#
#
#
# Elastic Constant Matrix: (Units=GPa)
#
#
# Indices 1 2 3 4 5 6 
#
# 1 144.3768 65.0156 16.9812 0.0000 0.0000 0.0000
# 2 65.0156 144.3774 16.9815 0.0000 0.0000 0.0000
# 3 16.9812 16.9815 14.2741 0.0000 0.0000 0.0000
# 4 0.0000 0.0000 0.0000 -7.6157 0.0000 0.0000
# 5 0.0000 0.0000 0.0000 0.0000 -7.6045 0.0000
# 6 0.0000 0.0000 0.0000 0.0000 0.0000 7.0914
#
#
#
# Elastic Compliance Matrix: (Units=1/GPa)
#
#
# Indices 1 2 3 4 5 6 
#
# 1 0.009259 -0.003342 -0.007040 0.000000 0.000000 0.000000
# 2 -0.003342 0.009259 -0.007040 0.000000 0.000000 0.000000
# 3 -0.007040 -0.007040 0.086807 0.000000 0.000000 0.000000
# 4 0.000000 0.000000 0.000000 -0.131308 0.000000 0.000000
# 5 0.000000 0.000000 0.000000 0.000000 -0.131501 0.000000
# 6 0.000000 0.000000 0.000000 0.000000 0.000000 0.141015
#
#
# Mechanical properties :
#
#
# Convention : Reuss Voigt Hill
#
# Bulk Modulus (GPa) = 14.18785 55.66498 34.92642
# Shear Modulus (GPa) = 119.42145 11.97758 65.69952
#
# Velocity S-wave (km/s) = 8.01691 2.53893 5.94630
# Velocity P-wave (km/s) = 9.66076 6.20910 8.12044
#
# Compressibility (1/GPa) = 0.07048282
#
# Stress axis : x y z
#
# Youngs Moduli (GPa) = 108.00227 108.00223 11.51977
#
# Poissons Ratio (x) = 0.36089 0.08110
# Poissons Ratio (y) = 0.36089 0.08110
# Poissons Ratio (z) = 0.76031 0.76034
#
# Static dielectric constant tensor:
#      x y z
#    x 1.651090 0.000000 0.000000 
#    y 0.000000 1.651090 0.000000 
#    z 0.000000 0.000000 1.642440 
# 
# From -- ./inp_files/1783.got.cif
#   From: 2010.05.17/outbox.cif.g08.bks.cpg/sg131_1_cif.got.tgz:1783.got - 2010.05.20 12:21:01.
