data_PCOD9566813
_publ_section_title
;
Structure prediction by ZEFSAII (Michael W. Deem and Ramdas Pophale) SiO2 
 PCOD9566813
Probable space group: P 42/M M C
;
_chemical_formula_sum "Si O2"
_cell_formula_units_Z 72
_cell_length_a 11.939760
_cell_length_b 11.939760
_cell_length_c 28.852096
_cell_angle_alpha 90.000000
_cell_angle_beta 90.000000
_cell_angle_gamma 90.000000
_cell_volume 4113.093318
_symmetry_space_group_name_H-M "P 42/M M C"
_symmetry_group_IT_number 131
_symmetry_cell_setting 'tetragonal'
loop_
_space_group_symop_operation_xyz
x,y,z
-x,-y,z
-y,x,1/2+z
y,-x,1/2+z
-x,y,-z
x,-y,-z
y,x,1/2-z
-y,-x,1/2-z
-x,-y,-z
x,y,-z
y,-x,1/2-z
-y,x,1/2-z
x,-y,z
-x,y,z
-y,-x,1/2+z
y,x,1/2+z
loop_
_atom_site_type_symbol
_atom_site_label
_atom_site_fract_x
_atom_site_fract_y
_atom_site_fract_z
Si Si1 0.000000 0.632080 0.153315
Si Si2 0.242466 0.306054 0.886880
Si Si3 0.128986 0.133252 0.053504
Si Si4 0.000000 0.363871 0.741398
Si Si5 0.500000 0.634843 0.555648
Si Si6 0.634638 0.754986 0.207443
O O1 0.116422 0.658366 0.127760
O O2 0.000000 0.680565 0.205682
O O3 0.000000 0.500000 0.159392
O O4 0.219931 0.192856 0.915105
O O5 0.305581 0.394263 0.919732
O O6 0.312851 0.287896 0.840319
O O7 0.000000 0.159424 0.067351
O O8 0.139993 0.000000 0.055360
O O9 0.141247 0.169169 0.000000
O O10 0.115481 0.331693 0.716549
O O11 0.000000 0.500000 0.742561
O O12 0.500000 0.500000 0.563593
O O13 0.500000 0.652973 0.500000
O O14 0.682780 0.682780 0.250000
O O15 0.500000 0.747696 0.206465
#
# Coordination Sequence:
#
# PCOD9566813 Si02
#       6
#     8  16  16   8   8  16
#     4  11  20  36  57  88 120 157 198 243 301 357
#     4  12  22  38  62  90 119 159 200 248 304 366
#     4   9  19  36  58  86 119 155 197 244 296 356
#     4   9  20  40  56  78 118 158 197 240 295 348
#     4  11  26  45  63  87 123 162 207 265 321 366
#     4  11  24  39  60  87 118 156 200 244 292 357
#
# _framework density 17.505071999999998
#
# number of rings (size 3 to 8) (size 9 to 14) (size 15 to 20)
#    0.000    1.444    4.444    2.000    3.111    0.222 
#    0.000    0.556    0.000    1.667    0.000    4.667 
#    0.000    0.000    0.000    0.000    0.000    0.000 
#
# Total GULP energy -401600.349801 kJ/mol
# GULP energy per Si atom -5577.782636 kJ/mol
# Density = 1.746523 g / cm^3
# Si number density = 17.505072 Si / 1000 Ang^3
#
#
#
# Elastic Constant Matrix: (Units=GPa)
#
#
# Indices 1 2 3 4 5 6 
#
# 1 99.4503 44.6613 66.9987 0.0000 0.0000 0.0000
# 2 44.6613 99.4503 66.9987 0.0000 0.0000 0.0000
# 3 66.9987 66.9987 138.0966 0.0000 0.0000 0.0000
# 4 0.0000 0.0000 0.0000 24.5344 0.0000 0.0000
# 5 0.0000 0.0000 0.0000 0.0000 24.5344 0.0000
# 6 0.0000 0.0000 0.0000 0.0000 0.0000 20.6128
#
#
#
# Elastic Compliance Matrix: (Units=1/GPa)
#
#
# Indices 1 2 3 4 5 6 
#
# 1 0.015447 -0.002805 -0.006133 0.000000 0.000000 0.000000
# 2 -0.002805 0.015447 -0.006133 0.000000 0.000000 0.000000
# 3 -0.006133 -0.006133 0.013193 0.000000 0.000000 0.000000
# 4 0.000000 0.000000 0.000000 0.040759 0.000000 0.000000
# 5 0.000000 0.000000 0.000000 0.000000 0.040759 0.000000
# 6 0.000000 0.000000 0.000000 0.000000 0.000000 0.048513
#
#
# Mechanical properties :
#
#
# Convention : Reuss Voigt Hill
#
# Bulk Modulus (GPa) = 71.71997 77.14607 74.43302
# Shear Modulus (GPa) = 23.93385 24.49221 24.21303
#
# Velocity S-wave (km/s) = 3.70165 3.74458 3.72318
# Velocity P-wave (km/s) = 7.70257 7.92857 7.81638
#
# Compressibility (1/GPa) = 0.01394312
#
# Stress axis : x y z
#
# Youngs Moduli (GPa) = 64.73790 64.73790 75.80009
#
# Poissons Ratio (x) = 0.18159 0.46491
# Poissons Ratio (y) = 0.18159 0.46491
# Poissons Ratio (z) = 0.39706 0.39706
#
# Static dielectric constant tensor:
#      x y z
#    x 1.582750 0.000000 0.000000 
#    y 0.000000 1.582750 0.000000 
#    z 0.000000 0.000000 1.611120 
# 
# From -- ./inp_files/12154.got.cif
#   From: 2010.05.17/outbox.cif.g08.bks.cpg/sg131_7_cif.got.tgz:12154.got - 2010.05.20 12:21:01.
