data_PCOD9566707
_publ_section_title
;
Structure prediction by ZEFSAII (Michael W. Deem and Ramdas Pophale) SiO2 
 PCOD9566707
Probable space group: P 42/M M C
;
_chemical_formula_sum "Si O2"
_cell_formula_units_Z 40
_cell_length_a 8.324754
_cell_length_b 8.324754
_cell_length_c 29.188215
_cell_angle_alpha 90.000000
_cell_angle_beta 90.000000
_cell_angle_gamma 90.000000
_cell_volume 2022.787933
_symmetry_space_group_name_H-M "P 42/M M C"
_symmetry_group_IT_number 131
_symmetry_cell_setting 'tetragonal'
loop_
_space_group_symop_operation_xyz
x,y,z
-x,-y,z
-y,x,1/2+z
y,-x,1/2+z
-x,y,-z
x,-y,-z
y,x,1/2-z
-y,-x,1/2-z
-x,-y,-z
x,y,-z
y,-x,1/2-z
-y,x,1/2-z
x,-y,z
-x,y,z
-y,-x,1/2+z
y,x,1/2+z
loop_
_atom_site_type_symbol
_atom_site_label
_atom_site_fract_x
_atom_site_fract_y
_atom_site_fract_z
Si Si1 0.687530 0.684551 0.604767
Si Si2 0.000000 0.808578 0.947997
Si Si3 0.817483 0.689598 0.702973
O O1 0.753366 0.500000 0.597621
O O2 0.500000 0.677606 0.593920
O O3 0.710092 0.723113 0.658718
O O4 0.758767 0.834230 0.576976
O O5 0.000000 0.000000 0.949508
O O6 0.000000 0.744223 0.000000
O O7 0.776710 0.776710 0.750000
O O8 0.803269 0.500000 0.712610
O O9 0.000000 0.725813 0.689201
#
# Coordination Sequence:
#
# PCOD9566707 Si02
#       3
#    16   8  16
#     4  10  22  41  65  91 123 163 207 260 314 371
#     4  11  25  43  65  93 125 163 207 259 317 378
#     4  10  21  36  56  84 119 160 203 248 302 365
#
# _framework density 19.77469
#
# number of rings (size 3 to 8) (size 9 to 14) (size 15 to 20)
#    0.000    1.800    0.000    3.000    2.800    7.200 
#    0.000    4.000    0.000    0.000    0.000    0.000 
#    0.000    0.000    0.000    0.000    0.000    0.000 
#
# Total GULP energy -223141.487529 kJ/mol
# GULP energy per Si atom -5578.537188 kJ/mol
# Density = 1.972968 g / cm^3
# Si number density = 19.774690 Si / 1000 Ang^3
#
#
#
# Elastic Constant Matrix: (Units=GPa)
#
#
# Indices 1 2 3 4 5 6 
#
# 1 72.2359 45.8181 40.1301 0.0000 0.0000 0.0000
# 2 45.8181 72.2359 40.1301 0.0000 0.0000 0.0000
# 3 40.1301 40.1301 87.0913 0.0000 0.0000 0.0000
# 4 0.0000 0.0000 0.0000 37.9493 0.0000 0.0000
# 5 0.0000 0.0000 0.0000 0.0000 37.9493 0.0000
# 6 0.0000 0.0000 0.0000 0.0000 0.0000 27.7633
#
#
#
# Elastic Compliance Matrix: (Units=1/GPa)
#
#
# Indices 1 2 3 4 5 6 
#
# 1 0.025094 -0.012759 -0.005684 0.000000 0.000000 0.000000
# 2 -0.012759 0.025094 -0.005684 0.000000 0.000000 0.000000
# 3 -0.005684 -0.005684 0.016720 0.000000 0.000000 0.000000
# 4 0.000000 0.000000 0.000000 0.026351 0.000000 0.000000
# 5 0.000000 0.000000 0.000000 0.000000 0.026351 0.000000
# 6 0.000000 0.000000 0.000000 0.000000 0.000000 0.036019
#
#
# Mechanical properties :
#
#
# Convention : Reuss Voigt Hill
#
# Bulk Modulus (GPa) = 53.60485 53.74664 53.67574
# Shear Modulus (GPa) = 23.79818 27.76470 25.78144
#
# Velocity S-wave (km/s) = 3.47287 3.75113 3.61468
# Velocity P-wave (km/s) = 6.57630 6.78232 6.68010
#
# Compressibility (1/GPa) = 0.01865503
#
# Stress axis : x y z
#
# Youngs Moduli (GPa) = 39.85018 39.85018 59.80840
#
# Poissons Ratio (x) = 0.50846 0.33993
# Poissons Ratio (y) = 0.50846 0.33993
# Poissons Ratio (z) = 0.22649 0.22649
#
# Static dielectric constant tensor:
#      x y z
#    x 1.708530 0.000000 0.000000 
#    y 0.000000 1.708530 0.000000 
#    z 0.000000 0.000000 1.686830 
# 
# From -- ./inp_files/10353.got.cif
#   From: 2010.05.17/outbox.cif.g08.bks.cpg/sg131_6_cif.got.tgz:10353.got - 2010.05.20 12:21:01.
