data_PCOD9566510
_publ_section_title
;
Structure prediction by ZEFSAII (Michael W. Deem and Ramdas Pophale) SiO2 
 PCOD9566510
Probable space group: P 42/M M C
;
_chemical_formula_sum "Si O2"
_cell_formula_units_Z 42
_cell_length_a 14.952043
_cell_length_b 14.952043
_cell_length_c 8.886956
_cell_angle_alpha 90.000000
_cell_angle_beta 90.000000
_cell_angle_gamma 90.000000
_cell_volume 1986.799786
_symmetry_space_group_name_H-M "P 42/M M C"
_symmetry_group_IT_number 131
_symmetry_cell_setting 'tetragonal'
loop_
_space_group_symop_operation_xyz
x,y,z
-x,-y,z
-y,x,1/2+z
y,-x,1/2+z
-x,y,-z
x,-y,-z
y,x,1/2-z
-y,-x,1/2-z
-x,-y,-z
x,y,-z
y,-x,1/2-z
-y,x,1/2-z
x,-y,z
-x,y,z
-y,-x,1/2+z
y,x,1/2+z
loop_
_atom_site_type_symbol
_atom_site_label
_atom_site_fract_x
_atom_site_fract_y
_atom_site_fract_z
Si Si1 0.192387 0.672192 0.682171
Si Si2 0.000000 0.338511 0.826126
Si Si3 0.000000 0.126796 0.169546
Si Si4 0.500000 0.500000 0.750000
Si Si5 0.500000 0.702618 0.171113
O O1 0.237519 0.762482 0.750000
O O2 0.191055 0.681259 0.500000
O O3 0.257169 0.591150 0.736064
O O4 0.093608 0.643869 0.740646
O O5 0.000000 0.231494 0.830462
O O6 0.000000 0.372126 0.000000
O O7 0.914552 0.085449 0.250000
O O8 0.000000 0.095602 0.000000
O O9 0.404248 0.500000 0.669289
O O10 0.500000 0.735536 0.000000
#
# Coordination Sequence:
#
# PCOD9566510 Si02
#       5
#    16   8   8   2   8
#     4  11  23  42  65  95 131 172 218 271 327 391
#     4  11  24  41  60  88 124 171 220 268 322 385
#     4  10  20  33  53  79 111 147 200 258 313 369
#     4  12  18  44  72 102 136 168 210 264 330 396
#     4  10  23  40  66 100 133 169 212 263 331 396
#
# _framework density 21.139524000000002
#
# number of rings (size 3 to 8) (size 9 to 14) (size 15 to 20)
#    0.000    1.333    1.905    4.286    0.000    6.857 
#    0.000    7.619    0.000    0.000    0.000    0.000 
#    0.000    0.000    0.000    0.000    0.000    0.000 
#
# Total GULP energy -234185.813701 kJ/mol
# GULP energy per Si atom -5575.852707 kJ/mol
# Density = 2.109141 g / cm^3
# Si number density = 21.139524 Si / 1000 Ang^3
#
#
#
# Elastic Constant Matrix: (Units=GPa)
#
#
# Indices 1 2 3 4 5 6 
#
# 1 121.2004 40.4348 31.0049 0.0000 0.0000 0.0000
# 2 40.4348 121.1964 31.0044 0.0000 0.0000 0.0000
# 3 31.0049 31.0044 112.6887 0.0000 0.0000 0.0000
# 4 0.0000 0.0000 0.0000 16.2136 0.0000 0.0000
# 5 0.0000 0.0000 0.0000 0.0000 16.2140 0.0000
# 6 0.0000 0.0000 0.0000 0.0000 0.0000 59.4235
#
#
#
# Elastic Compliance Matrix: (Units=1/GPa)
#
#
# Indices 1 2 3 4 5 6 
#
# 1 0.009649 -0.002732 -0.001903 0.000000 0.000000 0.000000
# 2 -0.002732 0.009650 -0.001903 0.000000 0.000000 0.000000
# 3 -0.001903 -0.001903 0.009921 0.000000 0.000000 0.000000
# 4 0.000000 0.000000 0.000000 0.061677 0.000000 0.000000
# 5 0.000000 0.000000 0.000000 0.000000 0.061675 0.000000
# 6 0.000000 0.000000 0.000000 0.000000 0.000000 0.016828
#
#
# Mechanical properties :
#
#
# Convention : Reuss Voigt Hill
#
# Bulk Modulus (GPa) = 61.94736 62.21930 62.08333
# Shear Modulus (GPa) = 26.61581 35.21299 30.91440
#
# Velocity S-wave (km/s) = 3.55217 4.08578 3.82828
# Velocity P-wave (km/s) = 6.79643 7.19407 6.99808
#
# Compressibility (1/GPa) = 0.01614274
#
# Stress axis : x y z
#
# Youngs Moduli (GPa) = 103.63532 103.63184 100.79405
#
# Poissons Ratio (x) = 0.28317 0.19182
# Poissons Ratio (y) = 0.28318 0.19182
# Poissons Ratio (z) = 0.19723 0.19722
#
# Static dielectric constant tensor:
#      x y z
#    x 1.788510 0.000000 0.000000 
#    y 0.000000 1.788520 0.000000 
#    z 0.000000 0.000000 1.767570 
# 
# From -- ./inp_files/813.got.cif
#   From: 2010.05.17/outbox.cif.g08.bks.cpg/sg131_1_cif.got.tgz:813.got - 2010.05.20 12:21:01.
