data_PCOD9566226
_publ_section_title
;
Structure prediction by ZEFSAII (Michael W. Deem and Ramdas Pophale) SiO2 
 PCOD9566226
Probable space group: P 42/M M C
;
_chemical_formula_sum "Si O2"
_cell_formula_units_Z 112
_cell_length_a 15.358912
_cell_length_b 15.358912
_cell_length_c 26.136409
_cell_angle_alpha 90.000000
_cell_angle_beta 90.000000
_cell_angle_gamma 90.000000
_cell_volume 6165.478985
_symmetry_space_group_name_H-M "P 42/M M C"
_symmetry_group_IT_number 131
_symmetry_cell_setting 'tetragonal'
loop_
_space_group_symop_operation_xyz
x,y,z
-x,-y,z
-y,x,1/2+z
y,-x,1/2+z
-x,y,-z
x,-y,-z
y,x,1/2-z
-y,-x,1/2-z
-x,-y,-z
x,y,-z
y,-x,1/2-z
-y,x,1/2-z
x,-y,z
-x,y,z
-y,-x,1/2+z
y,x,1/2+z
loop_
_atom_site_type_symbol
_atom_site_label
_atom_site_fract_x
_atom_site_fract_y
_atom_site_fract_z
Si Si1 0.601404 0.785809 0.000000
Si Si2 0.900097 0.771556 0.655132
Si Si3 0.098132 0.756006 0.874173
Si Si4 0.400038 0.784238 0.603517
Si Si5 0.601410 0.272270 0.718274
Si Si6 0.097281 0.690545 0.757905
Si Si7 0.600931 0.898899 0.905950
Si Si8 0.403324 0.329563 0.500000
O O1 0.634528 0.833503 0.949506
O O2 0.612689 0.682925 0.000000
O O3 0.500000 0.808284 0.000000
O O4 0.835848 0.834677 0.625002
O O5 0.884072 0.764251 0.715663
O O6 0.890188 0.670844 0.638572
O O7 0.000000 0.797478 0.646086
O O8 0.140228 0.671408 0.900579
O O9 0.093765 0.731034 0.814243
O O10 0.000000 0.775107 0.891898
O O11 0.500000 0.816220 0.609735
O O12 0.379637 0.732305 0.656731
O O13 0.397751 0.727069 0.552096
O O14 0.661954 0.338047 0.750000
O O15 0.500000 0.293831 0.724452
O O16 0.622071 0.175607 0.739506
O O17 0.000000 0.654914 0.746482
O O18 0.500000 0.879937 0.892275
O O19 0.603107 0.000000 0.923796
O O20 0.500000 0.371384 0.500000
#
# Coordination Sequence:
#
# PCOD9566226 Si02
#       8
#     8  16  16  16  16  16  16   8
#     4  10  19  31  50  74  99 127 160 199 246 302
#     4  10  19  31  48  72 104 137 168 203 245 302
#     4  10  19  32  51  73 100 133 168 210 258 308
#     4   9  19  36  56  76  98 130 173 219 265 305
#     4  10  20  34  53  77 107 140 173 210 251 304
#     4   9  18  32  50  71  97 131 169 211 258 302
#     4   9  18  32  50  73 100 129 162 201 243 289
#     4  10  20  36  56  74  99 135 173 216 263 311
#
# _framework density 18.165662000000001
#
# number of rings (size 3 to 8) (size 9 to 14) (size 15 to 20)
#    0.000    2.429    0.000    3.214    0.000    2.571 
#    0.000    6.786    0.000    6.429    0.000    0.000 
#    0.000    5.714    0.000    0.000    0.000    0.286 
#
# Total GULP energy -623782.887643 kJ/mol
# GULP energy per Si atom -5569.490068 kJ/mol
# Density = 1.812432 g / cm^3
# Si number density = 18.165662 Si / 1000 Ang^3
#
#
#
# Elastic Constant Matrix: (Units=GPa)
#
#
# Indices 1 2 3 4 5 6 
#
# 1 58.9662 33.1490 21.0706 0.0000 0.0000 0.0000
# 2 33.1490 58.9692 21.0699 0.0000 0.0000 0.0000
# 3 21.0706 21.0699 51.6156 0.0000 0.0000 0.0000
# 4 0.0000 0.0000 0.0000 24.9400 0.0000 0.0000
# 5 0.0000 0.0000 0.0000 0.0000 24.9382 0.0000
# 6 0.0000 0.0000 0.0000 0.0000 0.0000 19.7725
#
#
#
# Elastic Compliance Matrix: (Units=1/GPa)
#
#
# Indices 1 2 3 4 5 6 
#
# 1 0.026041 -0.012691 -0.005450 0.000000 0.000000 0.000000
# 2 -0.012691 0.026039 -0.005448 0.000000 0.000000 0.000000
# 3 -0.005450 -0.005448 0.023823 0.000000 0.000000 0.000000
# 4 0.000000 0.000000 0.000000 0.040096 0.000000 0.000000
# 5 0.000000 0.000000 0.000000 0.000000 0.040099 0.000000
# 6 0.000000 0.000000 0.000000 0.000000 0.000000 0.050575
#
#
# Mechanical properties :
#
#
# Convention : Reuss Voigt Hill
#
# Bulk Modulus (GPa) = 34.81460 35.57000 35.19230
# Shear Modulus (GPa) = 18.98056 20.21424 19.59740
#
# Velocity S-wave (km/s) = 3.23593 3.33944 3.28810
# Velocity P-wave (km/s) = 5.75920 5.87304 5.81640
#
# Compressibility (1/GPa) = 0.02872358
#
# Stress axis : x y z
#
# Youngs Moduli (GPa) = 38.40101 38.40366 41.97664
#
# Poissons Ratio (x) = 0.48740 0.22876
# Poissons Ratio (y) = 0.48737 0.22871
# Poissons Ratio (z) = 0.20927 0.20924
#
# Static dielectric constant tensor:
#      x y z
#    x 1.630910 0.000000 0.000000 
#    y 0.000000 1.630910 0.000000 
#    z 0.000000 0.000000 1.670680 
# 
# From -- ./inp_files/12510.got.cif
#   From: 2010.05.17/outbox.cif.g08.bks.cpg/sg131_7_cif.got.tgz:12510.got - 2010.05.20 12:21:01.
