data_PCOD9566477
_publ_section_title
;
Structure prediction by ZEFSAII (Michael W. Deem and Ramdas Pophale) SiO2 
 PCOD9566477
Probable space group: P 42/M M C
;
_chemical_formula_sum "Si O2"
_cell_formula_units_Z 56
_cell_length_a 19.851298
_cell_length_b 19.851298
_cell_length_c 8.937048
_cell_angle_alpha 90.000000
_cell_angle_beta 90.000000
_cell_angle_gamma 90.000000
_cell_volume 3521.858542
_symmetry_space_group_name_H-M "P 42/M M C"
_symmetry_group_IT_number 131
_symmetry_cell_setting 'tetragonal'
loop_
_space_group_symop_operation_xyz
x,y,z
-x,-y,z
-y,x,1/2+z
y,-x,1/2+z
-x,y,-z
x,-y,-z
y,x,1/2-z
-y,-x,1/2-z
-x,-y,-z
x,y,-z
y,-x,1/2-z
-y,x,1/2-z
x,-y,z
-x,y,z
-y,-x,1/2+z
y,x,1/2+z
loop_
_atom_site_type_symbol
_atom_site_label
_atom_site_fract_x
_atom_site_fract_y
_atom_site_fract_z
Si Si1 0.421730 0.140891 0.178775
Si Si2 0.581015 0.000000 0.331751
Si Si3 0.818095 0.921843 0.319704
Si Si4 0.708278 0.188907 0.679097
O O1 0.500000 0.154666 0.218992
O O2 0.366297 0.187757 0.253965
O O3 0.403309 0.067025 0.241462
O O4 0.416638 0.142129 0.000000
O O5 0.500000 0.000000 0.346041
O O6 0.610474 0.000000 0.500000
O O7 0.880661 0.880661 0.250000
O O8 0.824506 0.920474 0.500000
O O9 0.750855 0.879047 0.281689
O O10 0.814974 0.000000 0.272207
O O11 0.751051 0.248950 0.750000
O O12 0.706182 0.193550 0.500000
#
# Coordination Sequence:
#
# PCOD9566477 Si02
#       4
#    16   8  16  16
#     4  10  20  33  49  72 101 129 161 202 246 293
#     4   9  17  29  45  67  95 127 162 197 238 287
#     4   9  19  34  49  67  90 118 156 202 249 295
#     4  10  20  34  52  71  97 130 165 203 246 297
#
# _framework density 15.900695000000001
#
# number of rings (size 3 to 8) (size 9 to 14) (size 15 to 20)
#    0.000    2.429    0.000    2.143    2.000    5.429 
#    0.000    1.429    0.000    0.000    0.000    0.000 
#    0.000    0.571    0.000    6.000    0.000    2.571 
#
# Total GULP energy -312270.366120 kJ/mol
# GULP energy per Si atom -5576.256538 kJ/mol
# Density = 1.586450 g / cm^3
# Si number density = 15.900695 Si / 1000 Ang^3
#
#
#
# Elastic Constant Matrix: (Units=GPa)
#
#
# Indices 1 2 3 4 5 6 
#
# 1 110.4216 56.1692 46.5149 0.0000 0.0000 0.0000
# 2 56.1692 110.4200 46.5169 0.0000 0.0000 0.0000
# 3 46.5149 46.5169 60.3653 0.0000 0.0000 0.0000
# 4 0.0000 0.0000 0.0000 25.3834 0.0000 0.0000
# 5 0.0000 0.0000 0.0000 0.0000 25.3834 0.0000
# 6 0.0000 0.0000 0.0000 0.0000 0.0000 10.3827
#
#
#
# Elastic Compliance Matrix: (Units=1/GPa)
#
#
# Indices 1 2 3 4 5 6 
#
# 1 0.014484 -0.003948 -0.008119 0.000000 0.000000 0.000000
# 2 -0.003948 0.014485 -0.008120 0.000000 0.000000 0.000000
# 3 -0.008119 -0.008120 0.029079 0.000000 0.000000 0.000000
# 4 0.000000 0.000000 0.000000 0.039396 0.000000 0.000000
# 5 0.000000 0.000000 0.000000 0.000000 0.039396 0.000000
# 6 0.000000 0.000000 0.000000 0.000000 0.000000 0.096314
#
#
# Mechanical properties :
#
#
# Convention : Reuss Voigt Hill
#
# Bulk Modulus (GPa) = 56.57683 64.40101 60.48892
# Shear Modulus (GPa) = 17.89417 21.03030 19.46224
#
# Velocity S-wave (km/s) = 3.35829 3.64071 3.50235
# Velocity P-wave (km/s) = 7.12012 7.63302 7.38102
#
# Compressibility (1/GPa) = 0.01767508
#
# Stress axis : x y z
#
# Youngs Moduli (GPa) = 69.03960 69.03521 34.38861
#
# Poissons Ratio (x) = 0.27253 0.27920
# Poissons Ratio (y) = 0.27255 0.27925
# Poissons Ratio (z) = 0.56053 0.56059
#
# Static dielectric constant tensor:
#      x y z
#    x 1.571910 0.000000 0.000000 
#    y 0.000000 1.571900 0.000000 
#    z 0.000000 0.000000 1.529390 
# 
# From -- ./inp_files/1190.got.cif
#   From: 2010.05.17/outbox.cif.g08.bks.cpg/sg131_1_cif.got.tgz:1190.got - 2010.05.20 12:21:01.
