data_PCOD9566264
_publ_section_title
;
Structure prediction by ZEFSAII (Michael W. Deem and Ramdas Pophale) SiO2 
 PCOD9566264
Probable space group: P 42/M M C
;
_chemical_formula_sum "Si O2"
_cell_formula_units_Z 104
_cell_length_a 19.227873
_cell_length_b 19.227873
_cell_length_c 17.482617
_cell_angle_alpha 90.000000
_cell_angle_beta 90.000000
_cell_angle_gamma 90.000000
_cell_volume 6463.517564
_symmetry_space_group_name_H-M "P 42/M M C"
_symmetry_group_IT_number 131
_symmetry_cell_setting 'tetragonal'
loop_
_space_group_symop_operation_xyz
x,y,z
-x,-y,z
-y,x,1/2+z
y,-x,1/2+z
-x,y,-z
x,-y,-z
y,x,1/2-z
-y,-x,1/2-z
-x,-y,-z
x,y,-z
y,-x,1/2-z
-y,x,1/2-z
x,-y,z
-x,y,z
-y,-x,1/2+z
y,x,1/2+z
loop_
_atom_site_type_symbol
_atom_site_label
_atom_site_fract_x
_atom_site_fract_y
_atom_site_fract_z
Si Si1 0.080500 0.080334 0.157807
Si Si2 0.793356 0.165135 0.408343
Si Si3 0.415700 0.500000 0.087077
Si Si4 0.712528 0.711416 0.659158
Si Si5 0.577949 0.212408 0.592278
Si Si6 0.078201 0.656785 0.092563
Si Si7 0.653991 0.418956 0.592650
O O1 0.084983 0.084983 0.250000
O O2 0.132408 0.135160 0.120709
O O3 0.000000 0.095837 0.136343
O O4 0.094624 0.000000 0.136603
O O5 0.792909 0.169600 0.500000
O O6 0.773387 0.240051 0.374142
O O7 0.729972 0.113444 0.384708
O O8 0.500000 0.500000 0.081888
O O9 0.398918 0.424511 0.120749
O O10 0.387729 0.500000 0.000000
O O11 0.713706 0.713706 0.750000
O O12 0.640490 0.744372 0.628075
O O13 0.709564 0.632885 0.628419
O O14 0.582488 0.219418 0.500000
O O15 0.500000 0.232242 0.615601
O O16 0.595665 0.132150 0.611985
O O17 0.000000 0.649090 0.121995
O O18 0.074847 0.657931 0.000000
O O19 0.653376 0.412452 0.500000
O O20 0.665563 0.500000 0.610619
#
# Coordination Sequence:
#
# PCOD9566264 Si02
#       7
#    16  16   8  16  16  16  16
#     4   9  18  32  50  75 108 140 163 188 233 290
#     4  10  19  32  49  69  95 129 171 207 236 273
#     4   7  12  24  44  66  84 108 142 182 232 285
#     4  11  22  33  46  65  93 125 158 199 248 299
#     4   9  18  31  47  68  93 123 157 191 232 283
#     4   8  14  25  42  66  94 122 153 189 227 264
#     4   9  17  31  49  67  87 115 155 198 242 294
#
# _framework density 16.090309999999999
#
# number of rings (size 3 to 8) (size 9 to 14) (size 15 to 20)
#    0.000    2.846    0.000    4.615    1.077    2.154 
#    0.000    2.308    0.000    0.000    0.000    0.000 
#    0.000    0.615    0.000    3.231    0.000    0.000 
#
# Total GULP energy -579420.281171 kJ/mol
# GULP energy per Si atom -5571.348857 kJ/mol
# Density = 1.605369 g / cm^3
# Si number density = 16.090310 Si / 1000 Ang^3
#
#
#
# Elastic Constant Matrix: (Units=GPa)
#
#
# Indices 1 2 3 4 5 6 
#
# 1 94.1433 46.4440 31.7461 0.0000 0.0000 0.0000
# 2 46.4440 94.1433 31.7461 0.0000 0.0000 0.0000
# 3 31.7461 31.7461 41.0747 0.0000 0.0000 0.0000
# 4 0.0000 0.0000 0.0000 13.5903 0.0000 0.0000
# 5 0.0000 0.0000 0.0000 0.0000 13.5903 0.0000
# 6 0.0000 0.0000 0.0000 0.0000 0.0000 29.0720
#
#
#
# Elastic Compliance Matrix: (Units=1/GPa)
#
#
# Indices 1 2 3 4 5 6 
#
# 1 0.015946 -0.005019 -0.008445 0.000000 0.000000 0.000000
# 2 -0.005019 0.015946 -0.008445 0.000000 0.000000 0.000000
# 3 -0.008445 -0.008445 0.037401 0.000000 0.000000 0.000000
# 4 0.000000 0.000000 0.000000 0.073582 0.000000 0.000000
# 5 0.000000 0.000000 0.000000 0.000000 0.073582 0.000000
# 6 0.000000 0.000000 0.000000 0.000000 0.000000 0.034397
#
#
# Mechanical properties :
#
#
# Convention : Reuss Voigt Hill
#
# Bulk Modulus (GPa) = 39.25705 49.91486 44.58595
# Shear Modulus (GPa) = 16.49272 19.21219 17.85246
#
# Velocity S-wave (km/s) = 3.20505 3.45921 3.33455
# Velocity P-wave (km/s) = 6.17636 6.85886 6.52653
#
# Compressibility (1/GPa) = 0.02547313
#
# Stress axis : x y z
#
# Youngs Moduli (GPa) = 62.71195 62.71195 26.73752
#
# Poissons Ratio (x) = 0.31474 0.22581
# Poissons Ratio (y) = 0.31474 0.22581
# Poissons Ratio (z) = 0.52963 0.52963
#
# Static dielectric constant tensor:
#      x y z
#    x 1.561060 0.000000 0.000000 
#    y 0.000000 1.561060 0.000000 
#    z 0.000000 0.000000 1.525180 
# 
# From -- ./inp_files/8064.got.cif
#   From: 2010.05.17/outbox.cif.g08.bks.cpg/sg131_5_cif.got.tgz:8064.got - 2010.05.20 12:21:01.
