data_PCOD9566504
_publ_section_title
;
Structure prediction by ZEFSAII (Michael W. Deem and Ramdas Pophale) SiO2 
 PCOD9566504
Probable space group: P 42/M M C
;
_chemical_formula_sum "Si O2"
_cell_formula_units_Z 112
_cell_length_a 14.779099
_cell_length_b 14.779099
_cell_length_c 29.506981
_cell_angle_alpha 90.000000
_cell_angle_beta 90.000000
_cell_angle_gamma 90.000000
_cell_volume 6444.966936
_symmetry_space_group_name_H-M "P 42/M M C"
_symmetry_group_IT_number 131
_symmetry_cell_setting 'tetragonal'
loop_
_space_group_symop_operation_xyz
x,y,z
-x,-y,z
-y,x,1/2+z
y,-x,1/2+z
-x,y,-z
x,-y,-z
y,x,1/2-z
-y,-x,1/2-z
-x,-y,-z
x,y,-z
y,-x,1/2-z
-y,x,1/2-z
x,-y,z
-x,y,z
-y,-x,1/2+z
y,x,1/2+z
loop_
_atom_site_type_symbol
_atom_site_label
_atom_site_fract_x
_atom_site_fract_y
_atom_site_fract_z
Si Si1 0.702773 0.097803 0.554195
Si Si2 0.140814 0.098222 0.052982
Si Si3 0.640797 0.896221 0.947798
Si Si4 0.392853 0.750900 0.230888
Si Si5 0.259867 0.602072 0.375618
Si Si6 0.607149 0.233468 0.386462
Si Si7 0.102803 0.390649 0.803377
O O1 0.708717 0.100222 0.500000
O O2 0.805980 0.108007 0.572106
O O3 0.637985 0.176480 0.570336
O O4 0.666555 0.000000 0.568612
O O5 0.249773 0.102642 0.053545
O O6 0.113592 0.000000 0.072637
O O7 0.113040 0.096521 0.000000
O O8 0.610741 0.824330 0.910234
O O9 0.610857 0.000000 0.939152
O O10 0.615015 0.872810 0.000000
O O11 0.330143 0.669858 0.250000
O O12 0.500000 0.731697 0.239731
O O13 0.382347 0.765055 0.177146
O O14 0.368141 0.842220 0.257883
O O15 0.295147 0.500000 0.379146
O O16 0.336494 0.674884 0.386315
O O17 0.500000 0.248482 0.384043
O O18 0.635888 0.168447 0.344646
O O19 0.097076 0.500000 0.805411
O O20 0.000000 0.355630 0.805676
#
# Coordination Sequence:
#
# PCOD9566504 Si02
#       7
#    16  16  16  16  16  16  16
#     4  10  20  33  52  79 107 137 178 227 277 327
#     4   8  14  27  49  75 102 134 172 214 265 327
#     4   9  18  35  58  81 110 150 189 226 278 344
#     4  10  20  35  55  82 112 142 178 224 277 329
#     4  11  23  36  56  85 113 143 185 234 281 335
#     4  11  22  37  55  74 104 146 188 230 275 329
#     4   9  18  34  56  79 103 136 177 220 269 326
#
# _framework density 17.377901999999999
#
# number of rings (size 3 to 8) (size 9 to 14) (size 15 to 20)
#    0.000    2.286    2.857    1.286    0.000    3.000 
#    0.000    5.714    0.000    0.000    0.000    2.000 
#    0.000    1.429    0.000    0.000    0.000    0.000 
#
# Total GULP energy -623987.890982 kJ/mol
# GULP energy per Si atom -5571.320455 kJ/mol
# Density = 1.733835 g / cm^3
# Si number density = 17.377902 Si / 1000 Ang^3
#
#
#
# Elastic Constant Matrix: (Units=GPa)
#
#
# Indices 1 2 3 4 5 6 
#
# 1 101.6523 50.3686 46.8334 0.0000 0.0000 0.0000
# 2 50.3686 101.6536 46.8330 0.0000 0.0000 0.0000
# 3 46.8334 46.8330 80.0523 0.0000 0.0000 0.0000
# 4 0.0000 0.0000 0.0000 19.2355 0.0000 0.0000
# 5 0.0000 0.0000 0.0000 0.0000 19.2353 0.0000
# 6 0.0000 0.0000 0.0000 0.0000 0.0000 -5.4223
#
#
#
# Elastic Compliance Matrix: (Units=1/GPa)
#
#
# Indices 1 2 3 4 5 6 
#
# 1 0.014893 -0.004607 -0.006018 0.000000 0.000000 0.000000
# 2 -0.004607 0.014892 -0.006017 0.000000 0.000000 0.000000
# 3 -0.006018 -0.006017 0.019533 0.000000 0.000000 0.000000
# 4 0.000000 0.000000 0.000000 0.051987 0.000000 0.000000
# 5 0.000000 0.000000 0.000000 0.000000 0.051988 0.000000
# 6 0.000000 0.000000 0.000000 0.000000 0.000000 -0.184423
#
#
# Mechanical properties :
#
#
# Convention : Reuss Voigt Hill
#
# Bulk Modulus (GPa) = 62.36691 63.49202 62.92946
# Shear Modulus (GPa) = 666.94076 15.89792 341.41934
#
# Velocity S-wave (km/s) = 19.61173 3.02791 14.03189
# Velocity P-wave (km/s) = 23.42633 6.98854 17.28631
#
# Compressibility (1/GPa) = 0.01603414
#
# Stress axis : x y z
#
# Youngs Moduli (GPa) = 67.14783 67.14947 51.19653
#
# Poissons Ratio (x) = 0.30934 0.30808
# Poissons Ratio (y) = 0.30933 0.30806
# Poissons Ratio (z) = 0.40407 0.40405
#
# Static dielectric constant tensor:
#      x y z
#    x 1.602360 0.000000 0.000000 
#    y 0.000000 1.602350 0.000000 
#    z 0.000000 0.000000 1.608480 
# 
# From -- ./inp_files/13858.got.cif
#   From: 2010.05.17/outbox.cif.g08.bks.cpg/sg131_7_cif.got.tgz:13858.got - 2010.05.20 12:21:01.
