data_PCOD9566646
_publ_section_title
;
Structure prediction by ZEFSAII (Michael W. Deem and Ramdas Pophale) SiO2 
 PCOD9566646
Probable space group: P 42/M M C
;
_chemical_formula_sum "Si O2"
_cell_formula_units_Z 42
_cell_length_a 16.991052
_cell_length_b 16.991052
_cell_length_c 7.658135
_cell_angle_alpha 90.000000
_cell_angle_beta 90.000000
_cell_angle_gamma 90.000000
_cell_volume 2210.871778
_symmetry_space_group_name_H-M "P 42/M M C"
_symmetry_group_IT_number 131
_symmetry_cell_setting 'tetragonal'
loop_
_space_group_symop_operation_xyz
x,y,z
-x,-y,z
-y,x,1/2+z
y,-x,1/2+z
-x,y,-z
x,-y,-z
y,x,1/2-z
-y,-x,1/2-z
-x,-y,-z
x,y,-z
y,-x,1/2-z
-y,x,1/2-z
x,-y,z
-x,y,z
-y,-x,1/2+z
y,x,1/2+z
loop_
_atom_site_type_symbol
_atom_site_label
_atom_site_fract_x
_atom_site_fract_y
_atom_site_fract_z
Si Si1 0.214727 0.338952 0.708730
Si Si2 0.137035 0.500000 0.195975
Si Si3 0.500000 0.000000 0.000000
Si Si4 0.088099 0.210973 0.290452
O O1 0.298144 0.298144 0.750000
O O2 0.208215 0.343848 0.500000
O O3 0.192008 0.423266 0.782391
O O4 0.148034 0.277514 0.775129
O O5 0.069743 0.500000 0.345454
O O6 0.103237 0.500000 0.000000
O O7 0.127454 0.127454 0.250000
O O8 0.085035 0.219140 0.500000
O O9 0.000000 0.219373 0.222104
#
# Coordination Sequence:
#
# PCOD9566646 Si02
#       4
#    16   8   2  16
#     4  10  20  38  62  87 122 160 204 258 312 377
#     4  12  25  41  65  97 128 174 214 258 331 389
#     4  12  26  44  60  98 144 162 208 280 320 390
#     4   9  19  33  51  72 103 146 190 241 298 349
#
# _framework density 18.997029999999999
#
# number of rings (size 3 to 8) (size 9 to 14) (size 15 to 20)
#    0.000    1.905    1.905    1.429    2.667    2.667 
#    0.000    1.905    0.000    0.571    0.000    4.000 
#    0.000    0.000    0.000    0.000    0.000    0.000 
#
# Total GULP energy -233847.368171 kJ/mol
# GULP energy per Si atom -5567.794480 kJ/mol
# Density = 1.895379 g / cm^3
# Si number density = 18.997030 Si / 1000 Ang^3
#
#
#
# Elastic Constant Matrix: (Units=GPa)
#
#
# Indices 1 2 3 4 5 6 
#
# 1 131.2390 60.6417 25.1188 0.0000 0.0000 0.0000
# 2 60.6417 131.2390 25.1188 0.0000 0.0000 0.0000
# 3 25.1188 25.1188 113.3063 0.0000 0.0000 0.0000
# 4 0.0000 0.0000 0.0000 20.8609 0.0000 0.0000
# 5 0.0000 0.0000 0.0000 0.0000 20.8609 0.0000
# 6 0.0000 0.0000 0.0000 0.0000 0.0000 3.9992
#
#
#
# Elastic Compliance Matrix: (Units=1/GPa)
#
#
# Indices 1 2 3 4 5 6 
#
# 1 0.009849 -0.004316 -0.001227 0.000000 0.000000 0.000000
# 2 -0.004316 0.009849 -0.001227 0.000000 0.000000 0.000000
# 3 -0.001227 -0.001227 0.009369 0.000000 0.000000 0.000000
# 4 0.000000 0.000000 0.000000 0.047936 0.000000 0.000000
# 5 0.000000 0.000000 0.000000 0.000000 0.047936 0.000000
# 6 0.000000 0.000000 0.000000 0.000000 0.000000 0.250050
#
#
# Mechanical properties :
#
#
# Convention : Reuss Voigt Hill
#
# Bulk Modulus (GPa) = 64.39689 66.39363 65.39526
# Shear Modulus (GPa) = 12.69989 26.80455 19.75222
#
# Velocity S-wave (km/s) = 2.58838 3.76039 3.22802
# Velocity P-wave (km/s) = 6.55019 7.34026 6.95645
#
# Compressibility (1/GPa) = 0.01552870
#
# Stress axis : x y z
#
# Youngs Moduli (GPa) = 101.53545 101.53545 106.72978
#
# Poissons Ratio (x) = 0.43823 0.13091
# Poissons Ratio (y) = 0.43823 0.13091
# Poissons Ratio (z) = 0.12454 0.12454
#
# Static dielectric constant tensor:
#      x y z
#    x 1.665520 0.000000 0.000000 
#    y 0.000000 1.665520 0.000000 
#    z 0.000000 0.000000 1.704240 
# 
# From -- ./inp_files/748.got.cif
#   From: 2010.05.17/outbox.cif.g08.bks.cpg/sg131_1_cif.got.tgz:748.got - 2010.05.20 12:21:01.
