data_PCOD9566348
_publ_section_title
;
Structure prediction by ZEFSAII (Michael W. Deem and Ramdas Pophale) SiO2 
 PCOD9566348
Probable space group: P 42/M M C
;
_chemical_formula_sum "Si O2"
_cell_formula_units_Z 120
_cell_length_a 15.223854
_cell_length_b 15.223854
_cell_length_c 26.343842
_cell_angle_alpha 90.000000
_cell_angle_beta 90.000000
_cell_angle_gamma 90.000000
_cell_volume 6105.599788
_symmetry_space_group_name_H-M "P 42/M M C"
_symmetry_group_IT_number 131
_symmetry_cell_setting 'tetragonal'
loop_
_space_group_symop_operation_xyz
x,y,z
-x,-y,z
-y,x,1/2+z
y,-x,1/2+z
-x,y,-z
x,-y,-z
y,x,1/2-z
-y,-x,1/2-z
-x,-y,-z
x,y,-z
y,-x,1/2-z
-y,x,1/2-z
x,-y,z
-x,y,z
-y,-x,1/2+z
y,x,1/2+z
loop_
_atom_site_type_symbol
_atom_site_label
_atom_site_fract_x
_atom_site_fract_y
_atom_site_fract_z
Si Si1 0.900391 0.248512 0.143211
Si Si2 0.596871 0.219743 0.653702
Si Si3 0.899626 0.106307 0.000000
Si Si4 0.904079 0.239492 0.259946
Si Si5 0.170232 0.599804 0.438823
Si Si6 0.213814 0.103563 0.902073
Si Si7 0.337708 0.596095 0.632355
Si Si8 0.402086 0.796672 0.225222
O O1 0.840857 0.330621 0.126440
O O2 0.913509 0.271780 0.202080
O O3 0.836665 0.163634 0.138925
O O4 0.000000 0.236007 0.122230
O O5 0.500000 0.182288 0.646604
O O6 0.603931 0.317801 0.632158
O O7 0.609672 0.228546 0.715358
O O8 0.842900 0.131405 0.951422
O O9 0.000000 0.138601 0.000000
O O10 0.903935 0.000000 0.000000
O O11 0.843863 0.156138 0.250000
O O12 0.858843 0.320480 0.288390
O O13 0.000000 0.218539 0.280386
O O14 0.172100 0.610438 0.500000
O O15 0.134842 0.500000 0.428606
O O16 0.121736 0.683775 0.414030
O O17 0.266025 0.601185 0.412713
O O18 0.201730 0.000000 0.894189
O O19 0.380759 0.500000 0.630098
O O20 0.282870 0.600031 0.685417
O O21 0.500000 0.836909 0.220571
#
# Coordination Sequence:
#
# PCOD9566348 Si02
#       8
#    16  16   8  16  16  16  16  16
#     4  10  21  37  54  76 108 144 184 228 276 325
#     4  10  19  33  56  84 113 146 184 226 274 329
#     4   9  18  32  51  79 108 134 174 227 281 333
#     4  10  21  35  51  72 104 145 186 227 267 316
#     4  10  21  37  57  82 113 149 187 226 273 333
#     4  11  21  35  56  81 109 143 182 228 281 334
#     4  10  19  34  56  81 113 148 183 226 275 331
#     4   9  18  33  55  81 110 144 181 226 279 330
#
# _framework density 19.654088000000002
#
# number of rings (size 3 to 8) (size 9 to 14) (size 15 to 20)
#    0.000    2.067    2.000    2.400    0.000    2.533 
#    0.000    4.667    0.000    5.200    0.000    1.867 
#    0.000    2.667    0.000    0.000    0.000    0.000 
#
# Total GULP energy -668214.700022 kJ/mol
# GULP energy per Si atom -5568.455834 kJ/mol
# Density = 1.960935 g / cm^3
# Si number density = 19.654088 Si / 1000 Ang^3
#
#
#
# Elastic Constant Matrix: (Units=GPa)
#
#
# Indices 1 2 3 4 5 6 
#
# 1 115.1273 54.7676 7.1211 0.0000 0.0000 0.0000
# 2 54.7676 115.1307 7.1218 0.0000 0.0000 0.0000
# 3 7.1211 7.1218 58.2002 0.0000 0.0000 0.0000
# 4 0.0000 0.0000 0.0000 18.0892 0.0000 0.0000
# 5 0.0000 0.0000 0.0000 0.0000 18.0892 0.0000
# 6 0.0000 0.0000 0.0000 0.0000 0.0000 -7.0507
#
#
#
# Elastic Compliance Matrix: (Units=1/GPa)
#
#
# Indices 1 2 3 4 5 6 
#
# 1 0.011257 -0.005310 -0.000728 0.000000 0.000000 0.000000
# 2 -0.005310 0.011257 -0.000728 0.000000 0.000000 0.000000
# 3 -0.000728 -0.000728 0.017360 0.000000 0.000000 0.000000
# 4 0.000000 0.000000 0.000000 0.055282 0.000000 0.000000
# 5 0.000000 0.000000 0.000000 0.000000 0.055282 0.000000
# 6 0.000000 0.000000 0.000000 0.000000 0.000000 -0.141831
#
#
# Mechanical properties :
#
#
# Convention : Reuss Voigt Hill
#
# Bulk Modulus (GPa) = 37.96030 47.38658 42.67344
# Shear Modulus (GPa) = 161.71621 20.45539 91.08580
#
# Velocity S-wave (km/s) = 9.08074 3.22960 6.81506
# Velocity P-wave (km/s) = 11.37113 6.17006 9.14801
#
# Compressibility (1/GPa) = 0.02634331
#
# Stress axis : x y z
#
# Youngs Moduli (GPa) = 88.83314 88.83563 57.60322
#
# Poissons Ratio (x) = 0.47171 0.04191
# Poissons Ratio (y) = 0.47170 0.04192
# Poissons Ratio (z) = 0.06463 0.06465
#
# Static dielectric constant tensor:
#      x y z
#    x 1.705570 0.000000 0.000000 
#    y 0.000000 1.705570 0.000000 
#    z 0.000000 0.000000 1.774230 
# 
# From -- ./inp_files/13954.got.cif
#   From: 2010.05.17/outbox.cif.g08.bks.cpg/sg131_7_cif.got.tgz:13954.got - 2010.05.20 12:21:01.
