data_PCOD9566168
_publ_section_title
;
Structure prediction by ZEFSAII (Michael W. Deem and Ramdas Pophale) SiO2 
 PCOD9566168
Probable space group: P 42/M M C
;
_chemical_formula_sum "Si O2"
_cell_formula_units_Z 104
_cell_length_a 27.628185
_cell_length_b 27.628185
_cell_length_c 7.897034
_cell_angle_alpha 90.000000
_cell_angle_beta 90.000000
_cell_angle_gamma 90.000000
_cell_volume 6027.937193
_symmetry_space_group_name_H-M "P 42/M M C"
_symmetry_group_IT_number 131
_symmetry_cell_setting 'tetragonal'
loop_
_space_group_symop_operation_xyz
x,y,z
-x,-y,z
-y,x,1/2+z
y,-x,1/2+z
-x,y,-z
x,-y,-z
y,x,1/2-z
-y,-x,1/2-z
-x,-y,-z
x,y,-z
y,-x,1/2-z
-y,x,1/2-z
x,-y,z
-x,y,z
-y,-x,1/2+z
y,x,1/2+z
loop_
_atom_site_type_symbol
_atom_site_label
_atom_site_fract_x
_atom_site_fract_y
_atom_site_fract_z
Si Si1 0.500000 0.944723 0.292053
Si Si2 0.263676 0.342155 0.797706
Si Si3 0.239440 0.446996 0.207111
Si Si4 0.155055 0.683582 0.299722
Si Si5 0.867124 0.054946 0.204272
Si Si6 0.868766 0.421803 0.200654
Si Si7 0.132448 0.210526 0.704414
O O1 0.500000 0.946302 0.500000
O O2 0.453332 0.913575 0.235562
O O3 0.500000 0.000000 0.233567
O O4 0.308076 0.308076 0.750000
O O5 0.266878 0.398155 0.738772
O O6 0.212591 0.321226 0.732401
O O7 0.259777 0.342811 0.000000
O O8 0.256950 0.500000 0.262119
O O9 0.183609 0.439995 0.264558
O O10 0.239585 0.447077 0.000000
O O11 0.147338 0.683086 0.500000
O O12 0.129898 0.635495 0.229117
O O13 0.136038 0.734748 0.230958
O O14 0.915149 0.084852 0.250000
O O15 0.821631 0.087153 0.265700
O O16 0.867168 0.000000 0.267553
O O17 0.864334 0.053477 0.000000
O O18 0.867199 0.430313 0.000000
O O19 0.180437 0.180437 0.750000
O O20 0.129801 0.212389 0.500000
#
# Coordination Sequence:
#
# PCOD9566168 Si02
#       7
#     8  16  16  16  16  16  16
#     4   9  16  28  49  71  89 115 155 201 240 279
#     4  10  19  29  44  66  95 125 152 187 229 274
#     4   8  13  24  43  63  82 112 153 188 219 264
#     4  10  19  30  45  66  92 119 152 190 228 273
#     4   9  18  33  51  69  89 113 142 175 213 260
#     4   9  16  28  47  67  88 115 152 194 234 276
#     4   9  18  31  47  66  88 117 149 180 214 260
#
# _framework density 17.252998999999999
#
# number of rings (size 3 to 8) (size 9 to 14) (size 15 to 20)
#    0.000    2.846    0.769    2.308    0.000    2.923 
#    0.000    1.923    0.000    3.231    0.000    0.000 
#    0.000    0.308    0.000    3.846    0.000    0.000 
#
# Total GULP energy -579495.758835 kJ/mol
# GULP energy per Si atom -5572.074604 kJ/mol
# Density = 1.721373 g / cm^3
# Si number density = 17.252999 Si / 1000 Ang^3
#
#
#
# Elastic Constant Matrix: (Units=GPa)
#
#
# Indices 1 2 3 4 5 6 
#
# 1 139.0279 73.0854 -7.2168 0.0000 0.0000 0.0000
# 2 73.0854 139.0302 -7.2171 0.0000 0.0000 0.0000
# 3 -7.2168 -7.2171 8.5925 0.0000 0.0000 0.0000
# 4 0.0000 0.0000 0.0000 31.1035 0.0000 0.0000
# 5 0.0000 0.0000 0.0000 0.0000 31.1024 0.0000
# 6 0.0000 0.0000 0.0000 0.0000 0.0000 19.9507
#
#
#
# Elastic Compliance Matrix: (Units=1/GPa)
#
#
# Indices 1 2 3 4 5 6 
#
# 1 0.010082 -0.005082 0.004200 0.000000 0.000000 0.000000
# 2 -0.005082 0.010082 0.004200 0.000000 0.000000 0.000000
# 3 0.004200 0.004200 0.123435 0.000000 0.000000 0.000000
# 4 0.000000 0.000000 0.000000 0.032151 0.000000 0.000000
# 5 0.000000 0.000000 0.000000 0.000000 0.032152 0.000000
# 6 0.000000 0.000000 0.000000 0.000000 0.000000 0.050123
#
#
# Mechanical properties :
#
#
# Convention : Reuss Voigt Hill
#
# Bulk Modulus (GPa) = 6.65627 44.88374 25.77000
# Shear Modulus (GPa) = 16.58545 31.63128 24.10837
#
# Velocity S-wave (km/s) = 3.10386 4.28644 3.74216
# Velocity P-wave (km/s) = 4.08799 7.11123 5.80006
#
# Compressibility (1/GPa) = 0.15023429
#
# Stress axis : x y z
#
# Youngs Moduli (GPa) = 99.18262 99.18399 8.10143
#
# Poissons Ratio (x) = 0.50407 -0.03402
# Poissons Ratio (y) = 0.50406 -0.03403
# Poissons Ratio (z) = -0.41652 -0.41657
#
# Static dielectric constant tensor:
#      x y z
#    x 1.577890 0.000000 0.000000 
#    y 0.000000 1.577890 0.000000 
#    z 0.000000 0.000000 1.637160 
# 
# From -- ./inp_files/2535.got.cif
#   From: 2010.05.17/outbox.cif.g08.bks.cpg/sg131_2_cif.got.tgz:2535.got - 2010.05.20 12:21:01.
