data_PCOD9566768
_publ_section_title
;
Structure prediction by ZEFSAII (Michael W. Deem and Ramdas Pophale) SiO2 
 PCOD9566768
Probable space group: P 42/M M C
;
_chemical_formula_sum "Si O2"
_cell_formula_units_Z 96
_cell_length_a 15.242729
_cell_length_b 15.242729
_cell_length_c 19.640007
_cell_angle_alpha 90.000000
_cell_angle_beta 90.000000
_cell_angle_gamma 90.000000
_cell_volume 4563.174690
_symmetry_space_group_name_H-M "P 42/M M C"
_symmetry_group_IT_number 131
_symmetry_cell_setting 'tetragonal'
loop_
_space_group_symop_operation_xyz
x,y,z
-x,-y,z
-y,x,1/2+z
y,-x,1/2+z
-x,y,-z
x,-y,-z
y,x,1/2-z
-y,-x,1/2-z
-x,-y,-z
x,y,-z
y,-x,1/2-z
-y,x,1/2-z
x,-y,z
-x,y,z
-y,-x,1/2+z
y,x,1/2+z
loop_
_atom_site_type_symbol
_atom_site_label
_atom_site_fract_x
_atom_site_fract_y
_atom_site_fract_z
Si Si1 0.600551 0.158144 0.693996
Si Si2 0.897909 0.725013 0.927131
Si Si3 0.098144 0.101200 0.153522
Si Si4 0.398402 0.237457 0.919208
Si Si5 0.365146 0.405949 0.174941
Si Si6 0.101421 0.296759 0.328273
O O1 0.500000 0.126601 0.687518
O O2 0.662431 0.136622 0.630949
O O3 0.599409 0.262795 0.694050
O O4 0.645879 0.121454 0.761620
O O5 0.895836 0.826462 0.905265
O O6 0.000000 0.702747 0.932204
O O7 0.853856 0.711652 0.000000
O O8 0.193171 0.113034 0.188828
O O9 0.000000 0.114786 0.187102
O O10 0.097256 0.000000 0.130574
O O11 0.500000 0.206866 0.911226
O O12 0.389442 0.325888 0.874198
O O13 0.331292 0.167380 0.886351
O O14 0.382863 0.251002 0.000000
O O15 0.405652 0.405652 0.250000
O O16 0.383395 0.500000 0.141294
O O17 0.000000 0.308704 0.348545
#
# Coordination Sequence:
#
# PCOD9566768 Si02
#       6
#    16  16  16  16  16  16
#     4  11  24  41  63  92 126 168 219 272 325 383
#     4  10  22  39  60  89 125 168 217 268 325 388
#     4   9  20  39  63  93 128 166 212 270 332 392
#     4  11  25  44  66  97 136 173 215 272 330 386
#     4  11  23  41  67  95 126 167 215 269 329 394
#     4  11  23  41  67  95 129 176 222 265 321 390
#
# _framework density 21.037987000000001
#
# number of rings (size 3 to 8) (size 9 to 14) (size 15 to 20)
#    0.000    1.500    1.667    2.500    0.000    7.500 
#    0.000   10.000    0.000    6.000    0.000    0.000 
#    0.000    0.000    0.000    0.000    0.000    0.000 
#
# Total GULP energy -535893.551487 kJ/mol
# GULP energy per Si atom -5582.224495 kJ/mol
# Density = 2.099010 g / cm^3
# Si number density = 21.037987 Si / 1000 Ang^3
#
#
#
# Elastic Constant Matrix: (Units=GPa)
#
#
# Indices 1 2 3 4 5 6 
#
# 1 129.9057 53.1743 58.4569 0.0000 0.0000 0.0000
# 2 53.1743 129.9057 58.4569 0.0000 0.0000 0.0000
# 3 58.4569 58.4569 123.4412 0.0000 0.0000 0.0000
# 4 0.0000 0.0000 0.0000 41.3098 0.0000 0.0000
# 5 0.0000 0.0000 0.0000 0.0000 41.3098 0.0000
# 6 0.0000 0.0000 0.0000 0.0000 0.0000 -24.0947
#
#
#
# Elastic Compliance Matrix: (Units=1/GPa)
#
#
# Indices 1 2 3 4 5 6 
#
# 1 0.010431 -0.002601 -0.003708 0.000000 0.000000 0.000000
# 2 -0.002601 0.010431 -0.003708 0.000000 0.000000 0.000000
# 3 -0.003708 -0.003708 0.011613 0.000000 0.000000 0.000000
# 4 0.000000 0.000000 0.000000 0.024207 0.000000 0.000000
# 5 0.000000 0.000000 0.000000 0.000000 0.024207 0.000000
# 6 0.000000 0.000000 0.000000 0.000000 0.000000 -0.041503
#
#
# Mechanical properties :
#
#
# Convention : Reuss Voigt Hill
#
# Bulk Modulus (GPa) = 80.37942 80.38100 80.38021
# Shear Modulus (GPa) = 78.65526 25.91595 52.28561
#
# Velocity S-wave (km/s) = 6.12115 3.51360 4.99068
# Velocity P-wave (km/s) = 9.39402 7.39939 8.45573
#
# Compressibility (1/GPa) = 0.01244100
#
# Stress axis : x y z
#
# Youngs Moduli (GPa) = 95.86603 95.86603 86.11100
#
# Poissons Ratio (x) = 0.24937 0.31930
# Poissons Ratio (y) = 0.24937 0.31930
# Poissons Ratio (z) = 0.35547 0.35547
#
# Static dielectric constant tensor:
#      x y z
#    x 1.796420 0.000000 0.000000 
#    y 0.000000 1.796420 0.000000 
#    z 0.000000 0.000000 1.907580 
# 
# From -- ./inp_files/9778.got.cif
#   From: 2010.05.17/outbox.cif.g08.bks.cpg/sg131_5_cif.got.tgz:9778.got - 2010.05.20 12:21:01.
