data_PCOD9566081
_publ_section_title
;
Structure prediction by ZEFSAII (Michael W. Deem and Ramdas Pophale) SiO2 
 PCOD9566081
Probable space group: P 42/M M C
;
_chemical_formula_sum "Si O2"
_cell_formula_units_Z 56
_cell_length_a 14.082620
_cell_length_b 14.082620
_cell_length_c 14.874313
_cell_angle_alpha 90.000000
_cell_angle_beta 90.000000
_cell_angle_gamma 90.000000
_cell_volume 2949.876522
_symmetry_space_group_name_H-M "P 42/M M C"
_symmetry_group_IT_number 131
_symmetry_cell_setting 'tetragonal'
loop_
_space_group_symop_operation_xyz
x,y,z
-x,-y,z
-y,x,1/2+z
y,-x,1/2+z
-x,y,-z
x,-y,-z
y,x,1/2-z
-y,-x,1/2-z
-x,-y,-z
x,y,-z
y,-x,1/2-z
-y,x,1/2-z
x,-y,z
-x,y,z
-y,-x,1/2+z
y,x,1/2+z
loop_
_atom_site_type_symbol
_atom_site_label
_atom_site_fract_x
_atom_site_fract_y
_atom_site_fract_z
Si Si1 0.606470 0.108874 0.359374
Si Si2 0.889769 0.394375 0.640004
Si Si3 0.000000 0.107541 0.107470
Si Si4 0.209088 0.798536 0.356497
O O1 0.500000 0.129958 0.388933
O O2 0.606816 0.111006 0.249779
O O3 0.686287 0.179862 0.392797
O O4 0.629779 0.000000 0.384852
O O5 0.853427 0.500000 0.613430
O O6 0.838751 0.297961 0.608213
O O7 0.000000 0.389031 0.613197
O O8 0.100618 0.154633 0.133798
O O9 0.000000 0.000000 0.141735
O O10 0.000000 0.106857 0.000000
O O11 0.217035 0.782966 0.250000
#
# Coordination Sequence:
#
# PCOD9566081 Si02
#       4
#    16  16   8  16
#     4   8  13  23  39  63  91 113 143 191 236 262
#     4   8  14  24  39  63  90 112 147 197 231 253
#     4  11  24  34  41  65 105 129 138 181 244 276
#     4  10  18  28  49  69  84 121 163 189 213 275
#
# _framework density 18.983846
#
# number of rings (size 3 to 8) (size 9 to 14) (size 15 to 20)
#    0.000    3.000    1.429    2.571    4.000    0.000 
#    0.000    0.000    0.000    3.429    0.000   10.000 
#    0.000    0.000    0.000    2.571    0.000    3.143 
#
# Total GULP energy -311961.357515 kJ/mol
# GULP energy per Si atom -5570.738527 kJ/mol
# Density = 1.894064 g / cm^3
# Si number density = 18.983846 Si / 1000 Ang^3
#
#
#
# Elastic Constant Matrix: (Units=GPa)
#
#
# Indices 1 2 3 4 5 6 
#
# 1 163.5313 105.3454 1.5799 0.0000 0.0000 0.0000
# 2 105.3454 163.5316 1.5803 0.0000 0.0000 0.0000
# 3 1.5799 1.5803 56.9656 0.0000 0.0000 0.0000
# 4 0.0000 0.0000 0.0000 -22.7745 0.0000 0.0000
# 5 0.0000 0.0000 0.0000 0.0000 -22.7753 0.0000
# 6 0.0000 0.0000 0.0000 0.0000 0.0000 3.5988
#
#
#
# Elastic Compliance Matrix: (Units=1/GPa)
#
#
# Indices 1 2 3 4 5 6 
#
# 1 0.010453 -0.006733 -0.000103 0.000000 0.000000 0.000000
# 2 -0.006733 0.010453 -0.000103 0.000000 0.000000 0.000000
# 3 -0.000103 -0.000103 0.017560 0.000000 0.000000 0.000000
# 4 0.000000 0.000000 0.000000 -0.043909 0.000000 0.000000
# 5 0.000000 0.000000 0.000000 0.000000 -0.043907 0.000000
# 6 0.000000 0.000000 0.000000 0.000000 0.000000 0.277870
#
#
# Mechanical properties :
#
#
# Convention : Reuss Voigt Hill
#
# Bulk Modulus (GPa) = 40.66996 66.78219 53.72607
# Shear Modulus (GPa) = 19.95250 9.97800 14.96525
#
# Velocity S-wave (km/s) = 3.24547 2.29509 2.81074
# Velocity P-wave (km/s) = 5.95937 6.50216 6.23667
#
# Compressibility (1/GPa) = 0.02458817
#
# Stress axis : x y z
#
# Youngs Moduli (GPa) = 95.66339 95.66357 56.94705
#
# Poissons Ratio (x) = 0.64410 0.00587
# Poissons Ratio (y) = 0.64409 0.00588
# Poissons Ratio (z) = 0.00987 0.00988
#
# Static dielectric constant tensor:
#      x y z
#    x 1.690910 0.000000 0.000000 
#    y 0.000000 1.690910 0.000000 
#    z 0.000000 0.000000 1.696160 
# 
# From -- ./inp_files/7228.got.cif
#   From: 2010.05.17/outbox.cif.g08.bks.cpg/sg131_4_cif.got.tgz:7228.got - 2010.05.20 12:21:01.
