data_PCOD9566832
_publ_section_title
;
Structure prediction by ZEFSAII (Michael W. Deem and Ramdas Pophale) SiO2 
 PCOD9566832
Probable space group: P 42/M M C
;
_chemical_formula_sum "Si O2"
_cell_formula_units_Z 96
_cell_length_a 15.472794
_cell_length_b 15.472794
_cell_length_c 20.099502
_cell_angle_alpha 90.000000
_cell_angle_beta 90.000000
_cell_angle_gamma 90.000000
_cell_volume 4811.968594
_symmetry_space_group_name_H-M "P 42/M M C"
_symmetry_group_IT_number 131
_symmetry_cell_setting 'tetragonal'
loop_
_space_group_symop_operation_xyz
x,y,z
-x,-y,z
-y,x,1/2+z
y,-x,1/2+z
-x,y,-z
x,-y,-z
y,x,1/2-z
-y,-x,1/2-z
-x,-y,-z
x,y,-z
y,-x,1/2-z
-y,x,1/2-z
x,-y,z
-x,y,z
-y,-x,1/2+z
y,x,1/2+z
loop_
_atom_site_type_symbol
_atom_site_label
_atom_site_fract_x
_atom_site_fract_y
_atom_site_fract_z
Si Si1 0.094484 0.396483 0.424517
Si Si2 0.676969 0.246117 0.162282
Si Si3 0.099959 0.883080 0.924189
Si Si4 0.690634 0.836138 0.423377
Si Si5 0.095247 0.791900 0.705725
Si Si6 0.398465 0.601536 0.250000
Si Si7 0.600897 0.000000 0.576632
O O1 0.098940 0.362873 0.500000
O O2 0.091145 0.500000 0.426627
O O3 0.181795 0.371930 0.387627
O O4 0.000000 0.367732 0.396358
O O5 0.753050 0.294312 0.121900
O O6 0.720872 0.171542 0.208749
O O7 0.620918 0.320637 0.197412
O O8 0.112453 0.780576 0.925265
O O9 0.169522 0.910091 0.869114
O O10 0.000000 0.903834 0.907709
O O11 0.117098 0.911149 0.000000
O O12 0.666883 0.812645 0.500000
O O13 0.628058 0.908533 0.393402
O O14 0.128612 0.871389 0.750000
O O15 0.000000 0.763249 0.727366
O O16 0.500000 0.610330 0.271864
O O17 0.500000 0.000000 0.572127
O O18 0.636281 0.000000 0.500000
#
# Coordination Sequence:
#
# PCOD9566832 Si02
#       7
#    16  16  16  16  16   8   8
#     4   9  18  34  61  98 133 160 187 228 293 372
#     4  11  21  39  61  89 116 155 199 251 305 367
#     4   9  17  31  51  74 108 158 211 254 290 338
#     4   9  17  30  52  81 115 152 190 238 293 355
#     4  11  23  37  54  81 120 164 208 251 303 361
#     4  11  26  48  70  88 109 148 206 268 327 382
#     4   9  16  28  48  76 111 151 191 233 289 352
#
# _framework density 19.950256
#
# number of rings (size 3 to 8) (size 9 to 14) (size 15 to 20)
#    0.000    2.167    1.667    2.500    0.000    2.833 
#    0.000    0.833    0.000    1.500    0.000    5.833 
#    0.000    0.000    0.000    0.000    0.000    0.000 
#
# Total GULP energy -534688.525864 kJ/mol
# GULP energy per Si atom -5569.672144 kJ/mol
# Density = 1.990485 g / cm^3
# Si number density = 19.950256 Si / 1000 Ang^3
#
#
#
# Elastic Constant Matrix: (Units=GPa)
#
#
# Indices 1 2 3 4 5 6 
#
# 1 113.2910 48.4761 29.6197 0.0000 0.0000 0.0000
# 2 48.4761 113.2904 29.6200 0.0000 0.0000 0.0000
# 3 29.6197 29.6200 39.9003 0.0000 0.0000 0.0000
# 4 0.0000 0.0000 0.0000 25.1169 0.0000 0.0000
# 5 0.0000 0.0000 0.0000 0.0000 25.1146 0.0000
# 6 0.0000 0.0000 0.0000 0.0000 0.0000 32.5138
#
#
#
# Elastic Compliance Matrix: (Units=1/GPa)
#
#
# Indices 1 2 3 4 5 6 
#
# 1 0.011959 -0.003469 -0.006302 0.000000 0.000000 0.000000
# 2 -0.003469 0.011959 -0.006302 0.000000 0.000000 0.000000
# 3 -0.006302 -0.006302 0.034419 0.000000 0.000000 0.000000
# 4 0.000000 0.000000 0.000000 0.039814 0.000000 0.000000
# 5 0.000000 0.000000 0.000000 0.000000 0.039817 0.000000
# 6 0.000000 0.000000 0.000000 0.000000 0.000000 0.030756
#
#
# Mechanical properties :
#
#
# Convention : Reuss Voigt Hill
#
# Bulk Modulus (GPa) = 38.18306 53.54592 45.86449
# Shear Modulus (GPa) = 23.85462 27.13346 25.49404
#
# Velocity S-wave (km/s) = 3.46165 3.69189 3.57862
# Velocity P-wave (km/s) = 5.92942 6.71353 6.33362
#
# Compressibility (1/GPa) = 0.02618963
#
# Stress axis : x y z
#
# Youngs Moduli (GPa) = 83.61847 83.61761 29.05343
#
# Poissons Ratio (x) = 0.29011 0.18310
# Poissons Ratio (y) = 0.29011 0.18310
# Poissons Ratio (z) = 0.52698 0.52699
#
# Static dielectric constant tensor:
#      x y z
#    x 1.728250 0.000000 0.000000 
#    y 0.000000 1.728260 0.000000 
#    z 0.000000 0.000000 1.778580 
# 
# From -- ./inp_files/11166.got.cif
#   From: 2010.05.17/outbox.cif.g08.bks.cpg/sg131_6_cif.got.tgz:11166.got - 2010.05.20 12:21:01.
