data_PCOD9566916
_publ_section_title
;
Structure prediction by ZEFSAII (Michael W. Deem and Ramdas Pophale) SiO2 
 PCOD9566916
Probable space group: P 42/M M C
;
_chemical_formula_sum "Si O2"
_cell_formula_units_Z 96
_cell_length_a 15.000000
_cell_length_b 15.000000
_cell_length_c 21.000000
_cell_angle_alpha 90.000000
_cell_angle_beta 90.000000
_cell_angle_gamma 90.000000
_cell_volume 4725.000000
_symmetry_space_group_name_H-M "P 42/M M C"
_symmetry_group_IT_number 131
_symmetry_cell_setting 'tetragonal'
loop_
_space_group_symop_operation_xyz
x,y,z
-x,-y,z
-y,x,1/2+z
y,-x,1/2+z
-x,y,-z
x,-y,-z
y,x,1/2-z
-y,-x,1/2-z
-x,-y,-z
x,y,-z
y,-x,1/2-z
-y,x,1/2-z
x,-y,z
-x,y,z
-y,-x,1/2+z
y,x,1/2+z
loop_
_atom_site_type_symbol
_atom_site_label
_atom_site_fract_x
_atom_site_fract_y
_atom_site_fract_z
Si Si1 0.355065 0.734265 0.926919
Si Si2 0.392284 0.102338 0.160867
Si Si3 0.892687 0.906127 0.074450
Si Si4 0.639604 0.401493 0.178467
Si Si5 0.603897 0.147237 0.695441
Si Si6 0.710211 0.147698 0.426552
O O1 0.356209 0.830627 0.892801
O O2 0.395709 0.669915 0.872432
O O3 0.253805 0.698965 0.932355
O O4 0.390356 0.736184 0.000000
O O5 0.500000 0.113683 0.161135
O O6 0.361370 0.121605 0.233928
O O7 0.371995 0.000000 0.145517
O O8 0.863950 0.810983 0.098842
O O9 0.000000 0.906703 0.075827
O O10 0.861294 0.000000 0.103484
O O11 0.865538 0.906176 0.000000
O O12 0.602698 0.397303 0.250000
O O13 0.624954 0.500000 0.151840
O O14 0.745622 0.388533 0.189893
O O15 0.500000 0.122058 0.694371
O O16 0.648872 0.111796 0.630464
O O17 0.701516 0.111723 0.500000
#
# Coordination Sequence:
#
# PCOD9566916 Si02
#       6
#    16  16  16  16  16  16
#     4  10  21  36  55  82 114 145 182 235 289 335
#     4  10  21  37  56  77 103 142 191 234 278 336
#     4   8  14  26  44  66  97 139 182 222 267 322
#     4  10  19  34  58  83 111 150 190 229 279 344
#     4   9  18  33  53  75 105 145 185 231 285 341
#     4   9  18  30  49  79 111 142 179 227 280 339
#
# _framework density 20.317460000000001
#
# number of rings (size 3 to 8) (size 9 to 14) (size 15 to 20)
#    0.000    2.667    1.667    0.500    0.000    2.833 
#    0.000    5.833    0.000    0.000    0.000    7.000 
#    0.000    4.000    0.000    0.167    0.000    0.000 
#
# Total GULP energy -534520.717824 kJ/mol
# GULP energy per Si atom -5567.924144 kJ/mol
# Density = 2.027122 g / cm^3
# Si number density = 20.317460 Si / 1000 Ang^3
#
#
#
# Elastic Constant Matrix: (Units=GPa)
#
#
# Indices 1 2 3 4 5 6 
#
# 1 56.4494 12.7020 34.3313 0.0000 0.0000 0.0000
# 2 12.7020 56.4483 34.3300 0.0000 0.0000 0.0000
# 3 34.3313 34.3300 154.7824 0.0000 0.0000 0.0000
# 4 0.0000 0.0000 0.0000 -0.7663 0.0000 0.0000
# 5 0.0000 0.0000 0.0000 0.0000 -0.7680 0.0000
# 6 0.0000 0.0000 0.0000 0.0000 0.0000 -85.3688
#
#
#
# Elastic Compliance Matrix: (Units=1/GPa)
#
#
# Indices 1 2 3 4 5 6 
#
# 1 0.020702 -0.002157 -0.004113 0.000000 0.000000 0.000000
# 2 -0.002157 0.020702 -0.004113 0.000000 0.000000 0.000000
# 3 -0.004113 -0.004113 0.008285 0.000000 0.000000 0.000000
# 4 0.000000 0.000000 0.000000 -1.304968 0.000000 0.000000
# 5 0.000000 0.000000 0.000000 0.000000 -1.302108 0.000000
# 6 0.000000 0.000000 0.000000 0.000000 0.000000 -0.011714
#
#
# Mechanical properties :
#
#
# Convention : Reuss Voigt Hill
#
# Bulk Modulus (GPa) = 34.57491 47.82295 41.19893
# Shear Modulus (GPa) = -1.96952 -4.95950 -3.46451
#
# Velocity S-wave (km/s) = -0.98563 -1.56407 -1.30724
# Velocity P-wave (km/s) = 3.96976 4.50857 4.24772
#
# Compressibility (1/GPa) = 0.02892270
#
# Stress axis : x y z
#
# Youngs Moduli (GPa) = 48.30459 48.30406 120.69481
#
# Poissons Ratio (x) = 0.10418 0.49647
# Poissons Ratio (y) = 0.10418 0.49645
# Poissons Ratio (z) = 0.19870 0.19869
#
# Static dielectric constant tensor:
#      x y z
#    x 1.773380 0.000000 0.000000 
#    y 0.000000 1.773380 0.000000 
#    z 0.000000 0.000000 1.705730 
# 
# From -- ./inp_files/9766.got.cif
#   From: 2010.05.17/outbox.ucp.g08.bks.cvg/sg131_5_cif.got.tgz:9766.got - 2010.06.11 11:38:44.
