data_PCOD9566892
_publ_section_title
;
Structure prediction by ZEFSAII (Michael W. Deem and Ramdas Pophale) SiO2 
 PCOD9566892
Probable space group: P 42/M M C
;
_chemical_formula_sum "Si O2"
_cell_formula_units_Z 96
_cell_length_a 25.101270
_cell_length_b 25.101270
_cell_length_c 7.424150
_cell_angle_alpha 90.000000
_cell_angle_beta 90.000000
_cell_angle_gamma 90.000000
_cell_volume 4677.762073
_symmetry_space_group_name_H-M "P 42/M M C"
_symmetry_group_IT_number 131
_symmetry_cell_setting 'tetragonal'
loop_
_space_group_symop_operation_xyz
x,y,z
-x,-y,z
-y,x,1/2+z
y,-x,1/2+z
-x,y,-z
x,-y,-z
y,x,1/2-z
-y,-x,1/2-z
-x,-y,-z
x,y,-z
y,-x,1/2-z
-y,x,1/2-z
x,-y,z
-x,y,z
-y,-x,1/2+z
y,x,1/2+z
loop_
_atom_site_type_symbol
_atom_site_label
_atom_site_fract_x
_atom_site_fract_y
_atom_site_fract_z
Si Si1 0.353393 0.855357 0.279665
Si Si2 0.059072 0.561418 0.219264
Si Si3 0.560658 0.647715 0.284250
Si Si4 0.266517 0.353596 0.784455
Si Si5 0.058226 0.854312 0.214775
Si Si6 0.060118 0.733611 0.219724
O O1 0.353149 0.853861 0.500000
O O2 0.403893 0.890837 0.222674
O O3 0.353096 0.794230 0.217531
O O4 0.303482 0.891521 0.222147
O O5 0.063942 0.500000 0.273320
O O6 0.000000 0.580885 0.275097
O O7 0.058900 0.562885 0.000000
O O8 0.593565 0.593565 0.250000
O O9 0.557857 0.653541 0.500000
O O10 0.500000 0.647346 0.215965
O O11 0.597848 0.696306 0.215822
O O12 0.299432 0.299432 0.750000
O O13 0.263621 0.359678 0.000000
O O14 0.104405 0.895595 0.250000
O O15 0.068113 0.794369 0.280320
O O16 0.000000 0.872219 0.281584
O O17 0.054778 0.849704 0.000000
O O18 0.000000 0.716883 0.273396
O O19 0.060149 0.732172 0.000000
#
# Coordination Sequence:
#
# PCOD9566892 Si02
#       6
#    16  16  16  16  16  16
#     4   9  15  23  39  60  81 112 150 178 205 250
#     4   8  13  20  31  53  87 119 142 170 211 253
#     4   9  18  32  48  66  90 118 145 176 215 255
#     4   9  18  31  45  63  88 116 145 177 213 252
#     4   9  18  31  45  62  84 109 138 173 213 257
#     4   8  14  25  40  58  81 108 139 176 214 250
#
# _framework density 20.522635999999999
#
# number of rings (size 3 to 8) (size 9 to 14) (size 15 to 20)
#    0.000    3.333    0.000    2.000    0.000    4.333 
#    0.000    5.000    0.000    0.000    0.000    0.000 
#    0.000    2.000    0.000    1.833    0.000    3.167 
#
# Total GULP energy -535275.628669 kJ/mol
# GULP energy per Si atom -5575.787799 kJ/mol
# Density = 2.047593 g / cm^3
# Si number density = 20.522636 Si / 1000 Ang^3
#
#
#
# Elastic Constant Matrix: (Units=GPa)
#
#
# Indices 1 2 3 4 5 6 
#
# 1 198.2104 132.5711 4.2650 0.0000 0.0000 0.0000
# 2 132.5711 198.2153 4.2644 0.0000 0.0000 0.0000
# 3 4.2650 4.2644 64.0301 0.0000 0.0000 0.0000
# 4 0.0000 0.0000 0.0000 -2.2287 0.0000 0.0000
# 5 0.0000 0.0000 0.0000 0.0000 -2.2285 0.0000
# 6 0.0000 0.0000 0.0000 0.0000 0.0000 41.5115
#
#
#
# Elastic Compliance Matrix: (Units=1/GPa)
#
#
# Indices 1 2 3 4 5 6 
#
# 1 0.009131 -0.006103 -0.000202 0.000000 0.000000 0.000000
# 2 -0.006103 0.009131 -0.000202 0.000000 0.000000 0.000000
# 3 -0.000202 -0.000202 0.015645 0.000000 0.000000 0.000000
# 4 0.000000 0.000000 0.000000 -0.448696 0.000000 0.000000
# 5 0.000000 0.000000 0.000000 0.000000 -0.448734 0.000000
# 6 0.000000 0.000000 0.000000 0.000000 0.000000 0.024090
#
#
# Mechanical properties :
#
#
# Convention : Reuss Voigt Hill
#
# Bulk Modulus (GPa) = 47.85981 82.51744 65.18862
# Shear Modulus (GPa) = -6.10161 28.70121 11.29980
#
# Velocity S-wave (km/s) = -1.72614 3.74373 2.34904
# Velocity P-wave (km/s) = 4.40436 7.68002 6.26023
#
# Compressibility (1/GPa) = 0.02089436
#
# Stress axis : x y z
#
# Youngs Moduli (GPa) = 109.51246 109.51522 63.92017
#
# Poissons Ratio (x) = 0.66837 0.01290
# Poissons Ratio (y) = 0.66835 0.01289
# Poissons Ratio (z) = 0.02210 0.02208
#
# Static dielectric constant tensor:
#      x y z
#    x 1.719260 0.000000 0.000000 
#    y 0.000000 1.719260 0.000000 
#    z 0.000000 0.000000 1.831060 
# 
# From -- ./inp_files/2220.got.cif
#   From: 2010.05.17/outbox.cif.g08.bks.cpg/sg131_2_cif.got.tgz:2220.got - 2010.05.20 12:21:01.
