data_PCOD9566520
_publ_section_title
;
Structure prediction by ZEFSAII (Michael W. Deem and Ramdas Pophale) SiO2 
 PCOD9566520
Probable space group: P 42/M M C
;
_chemical_formula_sum "Si O2"
_cell_formula_units_Z 96
_cell_length_a 25.014091
_cell_length_b 25.014091
_cell_length_c 8.161732
_cell_angle_alpha 90.000000
_cell_angle_beta 90.000000
_cell_angle_gamma 90.000000
_cell_volume 5106.834469
_symmetry_space_group_name_H-M "P 42/M M C"
_symmetry_group_IT_number 131
_symmetry_cell_setting 'tetragonal'
loop_
_space_group_symop_operation_xyz
x,y,z
-x,-y,z
-y,x,1/2+z
y,-x,1/2+z
-x,y,-z
x,-y,-z
y,x,1/2-z
-y,-x,1/2-z
-x,-y,-z
x,y,-z
y,-x,1/2-z
-y,x,1/2-z
x,-y,z
-x,y,z
-y,-x,1/2+z
y,x,1/2+z
loop_
_atom_site_type_symbol
_atom_site_label
_atom_site_fract_x
_atom_site_fract_y
_atom_site_fract_z
Si Si1 0.059937 0.266084 0.195728
Si Si2 0.059310 0.561602 0.199576
Si Si3 0.940011 0.854252 0.304407
Si Si4 0.732716 0.646888 0.196054
Si Si5 0.144780 0.647660 0.200822
Si Si6 0.647007 0.561095 0.696005
O O1 0.070193 0.204172 0.231203
O O2 0.108682 0.302251 0.256112
O O3 0.000000 0.279032 0.260323
O O4 0.057632 0.274261 0.000000
O O5 0.064278 0.500000 0.249842
O O6 0.109228 0.596889 0.252777
O O7 0.000000 0.581337 0.250079
O O8 0.059248 0.562758 0.000000
O O9 0.896790 0.896790 0.250000
O O10 0.939118 0.849474 0.500000
O O11 0.000000 0.870563 0.253095
O O12 0.698465 0.698465 0.250000
O O13 0.793886 0.647495 0.257237
O O14 0.698854 0.595068 0.250375
O O15 0.733867 0.646699 0.000000
O O16 0.146585 0.647972 0.000000
O O17 0.595452 0.595452 0.750000
O O18 0.646861 0.559663 0.500000
O O19 0.646867 0.500000 0.758039
#
# Coordination Sequence:
#
# PCOD9566520 Si02
#       6
#    16  16  16  16  16  16
#     4   9  17  31  51  73 100 133 168 209 255 300
#     4   8  13  22  38  63  97 131 159 194 242 291
#     4  10  21  36  53  74 100 128 161 202 248 302
#     4  10  20  34  51  71 100 135 170 209 250 292
#     4   9  17  28  45  71  98 129 171 210 246 293
#     4  10  21  37  57  80 106 135 167 204 246 294
#
# _framework density 18.798338999999999
#
# number of rings (size 3 to 8) (size 9 to 14) (size 15 to 20)
#    0.000    2.667    0.000    3.500    0.000    6.000 
#    0.000    6.667    0.000    0.000    0.000    0.000 
#    0.000    0.000    0.000   17.000    0.000   15.333 
#
# Total GULP energy -535306.018284 kJ/mol
# GULP energy per Si atom -5576.104357 kJ/mol
# Density = 1.875555 g / cm^3
# Si number density = 18.798339 Si / 1000 Ang^3
#
#
#
# Elastic Constant Matrix: (Units=GPa)
#
#
# Indices 1 2 3 4 5 6 
#
# 1 160.0471 133.4862 11.6054 0.0000 0.0000 0.0000
# 2 133.4862 160.0471 11.6054 0.0000 0.0000 0.0000
# 3 11.6054 11.6054 18.2556 0.0000 0.0000 0.0000
# 4 0.0000 0.0000 0.0000 4.9077 0.0000 0.0000
# 5 0.0000 0.0000 0.0000 0.0000 4.9077 0.0000
# 6 0.0000 0.0000 0.0000 0.0000 0.0000 31.5661
#
#
#
# Elastic Compliance Matrix: (Units=1/GPa)
#
#
# Indices 1 2 3 4 5 6 
#
# 1 0.020618 -0.017031 -0.002280 0.000000 0.000000 0.000000
# 2 -0.017031 0.020618 -0.002280 0.000000 0.000000 0.000000
# 3 -0.002280 -0.002280 0.057677 0.000000 0.000000 0.000000
# 4 0.000000 0.000000 0.000000 0.203762 0.000000 0.000000
# 5 0.000000 0.000000 0.000000 0.000000 0.203762 0.000000
# 6 0.000000 0.000000 0.000000 0.000000 0.000000 0.031680
#
#
# Mechanical properties :
#
#
# Convention : Reuss Voigt Hill
#
# Bulk Modulus (GPa) = 17.94376 72.41599 45.17988
# Shear Modulus (GPa) = 8.33504 20.38648 14.36076
#
# Velocity S-wave (km/s) = 2.10797 3.29672 2.76694
# Velocity P-wave (km/s) = 3.93584 7.28679 5.85612
#
# Compressibility (1/GPa) = 0.05572968
#
# Stress axis : x y z
#
# Youngs Moduli (GPa) = 48.50096 48.50096 17.33793
#
# Poissons Ratio (x) = 0.82602 0.03954
# Poissons Ratio (y) = 0.82602 0.03954
# Poissons Ratio (z) = 0.11060 0.11060
#
# Static dielectric constant tensor:
#      x y z
#    x 1.644440 0.000000 0.000000 
#    y 0.000000 1.644440 0.000000 
#    z 0.000000 0.000000 1.665160 
# 
# From -- ./inp_files/2285.got.cif
#   From: 2010.05.17/outbox.cif.g08.bks.cpg/sg131_2_cif.got.tgz:2285.got - 2010.05.20 12:21:01.
