data_PCOD9566063
_publ_section_title
;
Structure prediction by ZEFSAII (Michael W. Deem and Ramdas Pophale) SiO2 
 PCOD9566063
Probable space group: P 42/M M C
;
_chemical_formula_sum "Si O2"
_cell_formula_units_Z 104
_cell_length_a 14.842387
_cell_length_b 14.842387
_cell_length_c 29.975126
_cell_angle_alpha 90.000000
_cell_angle_beta 90.000000
_cell_angle_gamma 90.000000
_cell_volume 6603.413902
_symmetry_space_group_name_H-M "P 42/M M C"
_symmetry_group_IT_number 131
_symmetry_cell_setting 'tetragonal'
loop_
_space_group_symop_operation_xyz
x,y,z
-x,-y,z
-y,x,1/2+z
y,-x,1/2+z
-x,y,-z
x,-y,-z
y,x,1/2-z
-y,-x,1/2-z
-x,-y,-z
x,y,-z
y,-x,1/2-z
-y,x,1/2-z
x,-y,z
-x,y,z
-y,-x,1/2+z
y,x,1/2+z
loop_
_atom_site_type_symbol
_atom_site_label
_atom_site_fract_x
_atom_site_fract_y
_atom_site_fract_z
Si Si1 0.602756 0.107655 0.835048
Si Si2 0.845324 0.901016 0.294962
Si Si3 0.333815 0.807508 0.742554
Si Si4 0.402547 0.103223 0.337952
Si Si5 0.894889 0.214863 0.619484
Si Si6 0.265818 0.106585 0.418251
Si Si7 0.109287 0.395523 0.000000
O O1 0.500000 0.129268 0.848124
O O2 0.627409 0.156192 0.788728
O O3 0.680501 0.128345 0.871057
O O4 0.608108 0.000000 0.827144
O O5 0.902881 0.902881 0.250000
O O6 0.749921 0.868191 0.275299
O O7 0.882167 0.833616 0.332189
O O8 0.838968 0.000000 0.315210
O O9 0.290585 0.709416 0.750000
O O10 0.399951 0.824737 0.701632
O O11 0.500000 0.108318 0.361408
O O12 0.321922 0.116520 0.372371
O O13 0.396254 0.000000 0.320068
O O14 0.824446 0.165308 0.587026
O O15 0.000000 0.206975 0.606456
O O16 0.335058 0.134450 0.457153
O O17 0.244838 0.000000 0.424221
O O18 0.141203 0.500000 0.000000
O O19 0.000000 0.400497 0.000000
#
# Coordination Sequence:
#
# PCOD9566063 Si02
#       7
#    16  16  16  16  16  16   8
#     4  10  19  31  45  61  88 128 169 208 246 280
#     4  11  19  27  39  56  87 129 166 199 231 263
#     4  11  18  27  40  58  88 122 160 202 239 275
#     4  10  18  27  42  63  87 117 154 197 240 275
#     4  11  21  32  45  65  94 128 166 202 236 279
#     4  10  19  32  49  71 100 128 155 190 230 278
#     4   9  18  34  55  77 102 131 157 185 233 294
#
# _framework density 15.749428
#
# number of rings (size 3 to 8) (size 9 to 14) (size 15 to 20)
#    0.000    1.615    4.615    3.231    0.000    5.077 
#    0.000    0.385    0.000    1.385    0.000    0.538 
#    0.000   35.077    0.000    0.000    0.000    0.000 
#
# Total GULP energy -579429.050245 kJ/mol
# GULP energy per Si atom -5571.433175 kJ/mol
# Density = 1.571358 g / cm^3
# Si number density = 15.749428 Si / 1000 Ang^3
#
#
#
# Elastic Constant Matrix: (Units=GPa)
#
#
# Indices 1 2 3 4 5 6 
#
# 1 94.8558 36.7609 28.4094 0.0000 0.0000 0.0000
# 2 36.7609 94.8563 28.4096 0.0000 0.0000 0.0000
# 3 28.4094 28.4096 57.4110 0.0000 0.0000 0.0000
# 4 0.0000 0.0000 0.0000 14.4966 0.0000 0.0000
# 5 0.0000 0.0000 0.0000 0.0000 14.4971 0.0000
# 6 0.0000 0.0000 0.0000 0.0000 0.0000 14.2872
#
#
#
# Elastic Compliance Matrix: (Units=1/GPa)
#
#
# Indices 1 2 3 4 5 6 
#
# 1 0.013437 -0.003776 -0.004781 0.000000 0.000000 0.000000
# 2 -0.003776 0.013437 -0.004781 0.000000 0.000000 0.000000
# 3 -0.004781 -0.004781 0.022150 0.000000 0.000000 0.000000
# 4 0.000000 0.000000 0.000000 0.068982 0.000000 0.000000
# 5 0.000000 0.000000 0.000000 0.000000 0.068979 0.000000
# 6 0.000000 0.000000 0.000000 0.000000 0.000000 0.069993
#
#
# Mechanical properties :
#
#
# Convention : Reuss Voigt Hill
#
# Bulk Modulus (GPa) = 44.74411 48.25365 46.49888
# Shear Modulus (GPa) = 17.17599 18.89240 18.03419
#
# Velocity S-wave (km/s) = 3.30597 3.46723 3.38756
# Velocity P-wave (km/s) = 6.56081 6.83621 6.69993
#
# Compressibility (1/GPa) = 0.02234931
#
# Stress axis : x y z
#
# Youngs Moduli (GPa) = 74.41861 74.41891 45.14668
#
# Poissons Ratio (x) = 0.28098 0.21585
# Poissons Ratio (y) = 0.28098 0.21585
# Poissons Ratio (z) = 0.35580 0.35580
#
# Static dielectric constant tensor:
#      x y z
#    x 1.571790 0.000000 0.000000 
#    y 0.000000 1.571790 0.000000 
#    z 0.000000 0.000000 1.539050 
# 
# From -- ./inp_files/13821.got.cif
#   From: 2010.05.17/outbox.cif.g08.bks.cpg/sg131_7_cif.got.tgz:13821.got - 2010.05.20 12:21:01.
