data_PCOD9566801
_publ_section_title
;
Structure prediction by ZEFSAII (Michael W. Deem and Ramdas Pophale) SiO2 
 PCOD9566801
Probable space group: P 42/M M C
;
_chemical_formula_sum "Si O2"
_cell_formula_units_Z 80
_cell_length_a 13.836190
_cell_length_b 13.836190
_cell_length_c 26.268626
_cell_angle_alpha 90.000000
_cell_angle_beta 90.000000
_cell_angle_gamma 90.000000
_cell_volume 5028.869799
_symmetry_space_group_name_H-M "P 42/M M C"
_symmetry_group_IT_number 131
_symmetry_cell_setting 'tetragonal'
loop_
_space_group_symop_operation_xyz
x,y,z
-x,-y,z
-y,x,1/2+z
y,-x,1/2+z
-x,y,-z
x,-y,-z
y,x,1/2-z
-y,-x,1/2-z
-x,-y,-z
x,y,-z
y,-x,1/2-z
-y,x,1/2-z
x,-y,z
-x,y,z
-y,-x,1/2+z
y,x,1/2+z
loop_
_atom_site_type_symbol
_atom_site_label
_atom_site_fract_x
_atom_site_fract_y
_atom_site_fract_z
Si Si1 0.611776 0.112025 0.314547
Si Si2 0.888448 0.110071 0.438842
Si Si3 0.113147 0.252051 0.719389
Si Si4 0.751315 0.751330 0.623094
Si Si5 0.615971 0.611741 0.060035
O O1 0.500000 0.138861 0.313301
O O2 0.659458 0.119558 0.258877
O O3 0.671667 0.178868 0.352048
O O4 0.620340 0.000000 0.330283
O O5 0.884127 0.112127 0.500000
O O6 0.816096 0.186733 0.415544
O O7 0.000000 0.129497 0.424073
O O8 0.865271 0.000000 0.422222
O O9 0.162391 0.162391 0.750000
O O10 0.176097 0.274914 0.669391
O O11 0.000000 0.233443 0.708156
O O12 0.692043 0.667839 0.594396
O O13 0.643144 0.500000 0.073123
O O14 0.500000 0.618651 0.065087
O O15 0.639419 0.625808 0.000000
#
# Coordination Sequence:
#
# PCOD9566801 Si02
#       5
#    16  16  16  16  16
#     4   9  18  32  47  65  93 123 149 185 236 288
#     4   9  18  31  46  68 100 132 156 183 226 278
#     4   9  19  32  46  68  96 126 160 195 233 278
#     4  11  18  29  51  75  92 118 162 203 235 275
#     4   9  19  35  52  71  96 125 159 202 252 301
#
# _framework density 15.908148000000001
#
# number of rings (size 3 to 8) (size 9 to 14) (size 15 to 20)
#    0.000    2.600    0.000    3.600    0.000    1.800 
#    0.000    0.000    0.000    1.800    0.000   25.200 
#    0.000    0.000    0.000    0.000    0.000    0.000 
#
# Total GULP energy -445770.236513 kJ/mol
# GULP energy per Si atom -5572.127956 kJ/mol
# Density = 1.587194 g / cm^3
# Si number density = 15.908148 Si / 1000 Ang^3
#
#
#
# Elastic Constant Matrix: (Units=GPa)
#
#
# Indices 1 2 3 4 5 6 
#
# 1 92.9060 51.4313 45.8399 0.0000 0.0000 0.0000
# 2 51.4313 92.9060 45.8399 0.0000 0.0000 0.0000
# 3 45.8399 45.8399 68.5110 0.0000 0.0000 0.0000
# 4 0.0000 0.0000 0.0000 21.5639 0.0000 0.0000
# 5 0.0000 0.0000 0.0000 0.0000 21.5639 0.0000
# 6 0.0000 0.0000 0.0000 0.0000 0.0000 31.1394
#
#
#
# Elastic Compliance Matrix: (Units=1/GPa)
#
#
# Indices 1 2 3 4 5 6 
#
# 1 0.018080 -0.006031 -0.008062 0.000000 0.000000 0.000000
# 2 -0.006031 0.018080 -0.008062 0.000000 0.000000 0.000000
# 3 -0.008062 -0.008062 0.025384 0.000000 0.000000 0.000000
# 4 0.000000 0.000000 0.000000 0.046374 0.000000 0.000000
# 5 0.000000 0.000000 0.000000 0.000000 0.046374 0.000000
# 6 0.000000 0.000000 0.000000 0.000000 0.000000 0.032114
#
#
# Mechanical properties :
#
#
# Convention : Reuss Voigt Hill
#
# Bulk Modulus (GPa) = 58.02163 60.06058 59.04111
# Shear Modulus (GPa) = 21.14525 22.26756 21.70640
#
# Velocity S-wave (km/s) = 3.64979 3.74539 3.69790
# Velocity P-wave (km/s) = 7.36976 7.51934 7.44493
#
# Compressibility (1/GPa) = 0.01723495
#
# Stress axis : x y z
#
# Youngs Moduli (GPa) = 55.30980 55.30980 39.39451
#
# Poissons Ratio (x) = 0.33358 0.31759
# Poissons Ratio (y) = 0.33358 0.31759
# Poissons Ratio (z) = 0.44589 0.44589
#
# Static dielectric constant tensor:
#      x y z
#    x 1.516830 0.000000 0.000000 
#    y 0.000000 1.516830 0.000000 
#    z 0.000000 0.000000 1.530310 
# 
# From -- ./inp_files/10960.got.cif
#   From: 2010.05.17/outbox.cif.g08.bks.cpg/sg131_6_cif.got.tgz:10960.got - 2010.05.20 12:21:01.
