data_PCOD9566245
_publ_section_title
;
Structure prediction by ZEFSAII (Michael W. Deem and Ramdas Pophale) SiO2 
 PCOD9566245
Probable space group: P 42/M M C
;
_chemical_formula_sum "Si O2"
_cell_formula_units_Z 64
_cell_length_a 20.412664
_cell_length_b 20.412664
_cell_length_c 8.278236
_cell_angle_alpha 90.000000
_cell_angle_beta 90.000000
_cell_angle_gamma 90.000000
_cell_volume 3449.349313
_symmetry_space_group_name_H-M "P 42/M M C"
_symmetry_group_IT_number 131
_symmetry_cell_setting 'tetragonal'
loop_
_space_group_symop_operation_xyz
x,y,z
-x,-y,z
-y,x,1/2+z
y,-x,1/2+z
-x,y,-z
x,-y,-z
y,x,1/2-z
-y,-x,1/2-z
-x,-y,-z
x,y,-z
y,-x,1/2-z
-y,x,1/2-z
x,-y,z
-x,y,z
-y,-x,1/2+z
y,x,1/2+z
loop_
_atom_site_type_symbol
_atom_site_label
_atom_site_fract_x
_atom_site_fract_y
_atom_site_fract_z
Si Si1 0.179827 0.428126 0.310787
Si Si2 0.675714 0.572711 0.811822
Si Si3 0.824113 0.924970 0.693846
Si Si4 0.717381 0.179527 0.193018
O O1 0.161546 0.428612 0.500000
O O2 0.158411 0.500000 0.242508
O O3 0.258235 0.427150 0.291253
O O4 0.163067 0.355845 0.242794
O O5 0.626570 0.626570 0.750000
O O6 0.646199 0.500000 0.799129
O O7 0.693039 0.583605 0.000000
O O8 0.891499 0.891499 0.750000
O O9 0.821312 0.922740 0.500000
O O10 0.766538 0.878753 0.760566
O O11 0.818238 0.000000 0.747473
O O12 0.752966 0.247035 0.250000
O O13 0.712787 0.184495 0.000000
#
# Coordination Sequence:
#
# PCOD9566245 Si02
#       4
#    16  16  16  16
#     4   9  18  32  49  70  96 125 160 205 254 300
#     4  10  20  31  43  60  82 112 151 194 244 301
#     4  10  21  36  55  80 109 140 172 205 242 288
#     4  10  19  31  51  76 102 134 170 210 254 301
#
# _framework density 18.554223
#
# number of rings (size 3 to 8) (size 9 to 14) (size 15 to 20)
#    0.000    2.250    0.000    4.500    0.000    8.000 
#    0.000    2.500    0.000    0.750    0.000    5.250 
#    0.000    0.000    0.000    0.000    0.000    0.000 
#
# Total GULP energy -356515.616363 kJ/mol
# GULP energy per Si atom -5570.556506 kJ/mol
# Density = 1.851199 g / cm^3
# Si number density = 18.554223 Si / 1000 Ang^3
#
#
#
# Elastic Constant Matrix: (Units=GPa)
#
#
# Indices 1 2 3 4 5 6 
#
# 1 105.3887 30.2661 5.5740 0.0000 0.0000 0.0000
# 2 30.2661 105.3854 5.5743 0.0000 0.0000 0.0000
# 3 5.5740 5.5743 25.3355 0.0000 0.0000 0.0000
# 4 0.0000 0.0000 0.0000 2.3765 0.0000 0.0000
# 5 0.0000 0.0000 0.0000 0.0000 2.3721 0.0000
# 6 0.0000 0.0000 0.0000 0.0000 0.0000 14.3644
#
#
#
# Elastic Compliance Matrix: (Units=1/GPa)
#
#
# Indices 1 2 3 4 5 6 
#
# 1 0.010410 -0.002902 -0.001652 0.000000 0.000000 0.000000
# 2 -0.002902 0.010410 -0.001652 0.000000 0.000000 0.000000
# 3 -0.001652 -0.001652 0.040197 0.000000 0.000000 0.000000
# 4 0.000000 0.000000 0.000000 0.420790 0.000000 0.000000
# 5 0.000000 0.000000 0.000000 0.000000 0.421568 0.000000
# 6 0.000000 0.000000 0.000000 0.000000 0.000000 0.069616
#
#
# Mechanical properties :
#
#
# Convention : Reuss Voigt Hill
#
# Bulk Modulus (GPa) = 20.57396 35.43759 28.00578
# Shear Modulus (GPa) = 4.99199 16.80228 10.89714
#
# Velocity S-wave (km/s) = 1.64205 3.01255 2.42608
# Velocity P-wave (km/s) = 3.83507 5.58941 4.79319
#
# Compressibility (1/GPa) = 0.04860513
#
# Stress axis : x y z
#
# Youngs Moduli (GPa) = 96.06600 96.06291 24.87740
#
# Poissons Ratio (x) = 0.27879 0.04109
# Poissons Ratio (y) = 0.27880 0.04109
# Poissons Ratio (z) = 0.15867 0.15868
#
# Static dielectric constant tensor:
#      x y z
#    x 1.655210 0.000000 0.000000 
#    y 0.000000 1.655220 0.000000 
#    z 0.000000 0.000000 1.657020 
# 
# From -- ./inp_files/1593.got.cif
#   From: 2010.05.17/outbox.cif.g08.bks.cpg/sg131_1_cif.got.tgz:1593.got - 2010.05.20 12:21:01.
