data_PCOD9566528
_publ_section_title
;
Structure prediction by ZEFSAII (Michael W. Deem and Ramdas Pophale) SiO2 
 PCOD9566528
Probable space group: P 42/M M C
;
_chemical_formula_sum "Si O2"
_cell_formula_units_Z 56
_cell_length_a 18.402525
_cell_length_b 18.402525
_cell_length_c 7.411579
_cell_angle_alpha 90.000000
_cell_angle_beta 90.000000
_cell_angle_gamma 90.000000
_cell_volume 2509.952917
_symmetry_space_group_name_H-M "P 42/M M C"
_symmetry_group_IT_number 131
_symmetry_cell_setting 'tetragonal'
loop_
_space_group_symop_operation_xyz
x,y,z
-x,-y,z
-y,x,1/2+z
y,-x,1/2+z
-x,y,-z
x,-y,-z
y,x,1/2-z
-y,-x,1/2-z
-x,-y,-z
x,y,-z
y,-x,1/2-z
-y,x,1/2-z
x,-y,z
-x,y,z
-y,-x,1/2+z
y,x,1/2+z
loop_
_atom_site_type_symbol
_atom_site_label
_atom_site_fract_x
_atom_site_fract_y
_atom_site_fract_z
Si Si1 0.796824 0.917089 0.215954
Si Si2 0.649534 0.160710 0.220310
Si Si3 0.916964 0.500000 0.280529
Si Si4 0.581578 0.305817 0.784897
O O1 0.866386 0.866386 0.250000
O O2 0.723417 0.877309 0.283713
O O3 0.803433 0.000000 0.283511
O O4 0.789341 0.921726 0.000000
O O5 0.575267 0.120150 0.275001
O O6 0.636040 0.243197 0.281659
O O7 0.652359 0.159364 0.000000
O O8 0.914221 0.500000 0.500000
O O9 0.000000 0.500000 0.223895
O O10 0.616394 0.383607 0.750000
O O11 0.500000 0.297322 0.713611
O O12 0.577117 0.296146 0.000000
#
# Coordination Sequence:
#
# PCOD9566528 Si02
#       4
#    16  16   8  16
#     4  10  21  36  55  80 108 139 177 219 263 313
#     4   9  16  30  50  76 107 134 166 211 261 310
#     4   9  14  22  44  76 106 133 160 200 255 309
#     4  10  20  34  52  74 102 135 171 212 256 303
#
# _framework density 22.311176
#
# number of rings (size 3 to 8) (size 9 to 14) (size 15 to 20)
#    0.000    2.429    1.429    1.714    0.000    5.143 
#    0.000    2.857    0.000    0.000    0.000    0.000 
#    0.000    4.571    0.000    0.000    0.000    0.000 
#
# Total GULP energy -312772.262027 kJ/mol
# GULP energy per Si atom -5585.218965 kJ/mol
# Density = 2.226039 g / cm^3
# Si number density = 22.311176 Si / 1000 Ang^3
#
#
#
# Elastic Constant Matrix: (Units=GPa)
#
#
# Indices 1 2 3 4 5 6 
#
# 1 163.1743 125.9981 2.4422 0.0000 0.0000 0.0000
# 2 125.9981 163.1530 2.4427 0.0000 0.0000 0.0000
# 3 2.4422 2.4427 74.1401 0.0000 0.0000 0.0000
# 4 0.0000 0.0000 0.0000 11.3463 0.0000 0.0000
# 5 0.0000 0.0000 0.0000 0.0000 11.3466 0.0000
# 6 0.0000 0.0000 0.0000 0.0000 0.0000 34.6767
#
#
#
# Elastic Compliance Matrix: (Units=1/GPa)
#
#
# Indices 1 2 3 4 5 6 
#
# 1 0.015182 -0.011723 -0.000114 0.000000 0.000000 0.000000
# 2 -0.011723 0.015184 -0.000114 0.000000 0.000000 0.000000
# 3 -0.000114 -0.000114 0.013495 0.000000 0.000000 0.000000
# 4 0.000000 0.000000 0.000000 0.088135 0.000000 0.000000
# 5 0.000000 0.000000 0.000000 0.000000 0.088132 0.000000
# 6 0.000000 0.000000 0.000000 0.000000 0.000000 0.028838
#
#
# Mechanical properties :
#
#
# Convention : Reuss Voigt Hill
#
# Bulk Modulus (GPa) = 50.10040 73.58148 61.84094
# Shear Modulus (GPa) = 17.88767 29.44622 23.66694
#
# Velocity S-wave (km/s) = 2.83457 3.63684 3.26047
# Velocity P-wave (km/s) = 5.76342 7.11946 6.47703
#
# Compressibility (1/GPa) = 0.01995992
#
# Stress axis : x y z
#
# Youngs Moduli (GPa) = 65.86560 65.85700 74.09881
#
# Poissons Ratio (x) = 0.77206 0.00844
# Poissons Ratio (y) = 0.77216 0.00846
# Poissons Ratio (z) = 0.00750 0.00751
#
# Static dielectric constant tensor:
#      x y z
#    x 1.799940 0.000000 0.000000 
#    y 0.000000 1.799950 0.000000 
#    z 0.000000 0.000000 1.893870 
# 
# From -- ./inp_files/1199.got.cif
#   From: 2010.05.17/outbox.cif.g08.bks.cpg/sg131_1_cif.got.tgz:1199.got - 2010.05.20 12:21:01.
