data_PCOD9566372
_publ_section_title
;
Structure prediction by ZEFSAII (Michael W. Deem and Ramdas Pophale) SiO2 
 PCOD9566372
Probable space group: P 42/M M C
;
_chemical_formula_sum "Si O2"
_cell_formula_units_Z 72
_cell_length_a 13.520555
_cell_length_b 13.520555
_cell_length_c 24.098986
_cell_angle_alpha 90.000000
_cell_angle_beta 90.000000
_cell_angle_gamma 90.000000
_cell_volume 4405.424956
_symmetry_space_group_name_H-M "P 42/M M C"
_symmetry_group_IT_number 131
_symmetry_cell_setting 'tetragonal'
loop_
_space_group_symop_operation_xyz
x,y,z
-x,-y,z
-y,x,1/2+z
y,-x,1/2+z
-x,y,-z
x,-y,-z
y,x,1/2-z
-y,-x,1/2-z
-x,-y,-z
x,y,-z
y,-x,1/2-z
-y,x,1/2-z
x,-y,z
-x,y,z
-y,-x,1/2+z
y,x,1/2+z
loop_
_atom_site_type_symbol
_atom_site_label
_atom_site_fract_x
_atom_site_fract_y
_atom_site_fract_z
Si Si1 0.118426 0.614463 0.373345
Si Si2 0.885208 0.617128 0.137955
Si Si3 0.000000 0.888500 0.067261
Si Si4 0.795963 0.221020 0.066356
Si Si5 0.384243 0.218541 0.753434
O O1 0.140549 0.500000 0.389656
O O2 0.167380 0.697589 0.411936
O O3 0.161017 0.628983 0.311308
O O4 0.000000 0.625647 0.373335
O O5 0.877825 0.500000 0.129043
O O6 0.813095 0.675040 0.096809
O O7 0.852339 0.637444 0.201115
O O8 0.000000 0.645070 0.129084
O O9 0.103813 0.838287 0.082740
O O10 0.000000 0.000000 0.088176
O O11 0.000000 0.889391 0.000000
O O12 0.793513 0.230225 0.000000
O O13 0.311867 0.311867 0.750000
O O14 0.500000 0.247448 0.749727
#
# Coordination Sequence:
#
# PCOD9566372 Si02
#       5
#    16  16   8  16  16
#     4  10  21  37  57  80 107 142 183 225 268 318
#     4  10  20  35  56  81 109 141 178 221 269 322
#     4   9  18  32  49  73 105 139 176 218 262 309
#     4  11  21  34  54  79 108 145 184 221 264 317
#     4  10  19  34  57  82 106 135 174 222 274 324
#
# _framework density 16.343487
#
# number of rings (size 3 to 8) (size 9 to 14) (size 15 to 20)
#    0.000    1.889    3.333    1.333    0.000    5.111 
#    0.000    2.222    0.000    0.667    0.000    3.111 
#    0.000    0.000    0.000    0.000    0.000    0.000 
#
# Total GULP energy -401419.346429 kJ/mol
# GULP energy per Si atom -5575.268700 kJ/mol
# Density = 1.630629 g / cm^3
# Si number density = 16.343487 Si / 1000 Ang^3
#
#
#
# Elastic Constant Matrix: (Units=GPa)
#
#
# Indices 1 2 3 4 5 6 
#
# 1 86.0840 51.5968 43.0574 0.0000 0.0000 0.0000
# 2 51.5968 86.0840 43.0574 0.0000 0.0000 0.0000
# 3 43.0574 43.0574 81.5572 0.0000 0.0000 0.0000
# 4 0.0000 0.0000 0.0000 23.6541 0.0000 0.0000
# 5 0.0000 0.0000 0.0000 0.0000 23.6541 0.0000
# 6 0.0000 0.0000 0.0000 0.0000 0.0000 33.8614
#
#
#
# Elastic Compliance Matrix: (Units=1/GPa)
#
#
# Indices 1 2 3 4 5 6 
#
# 1 0.019920 -0.009076 -0.005725 0.000000 0.000000 0.000000
# 2 -0.009076 0.019920 -0.005725 0.000000 0.000000 0.000000
# 3 -0.005725 -0.005725 0.018306 0.000000 0.000000 0.000000
# 4 0.000000 0.000000 0.000000 0.042276 0.000000 0.000000
# 5 0.000000 0.000000 0.000000 0.000000 0.042276 0.000000
# 6 0.000000 0.000000 0.000000 0.000000 0.000000 0.029532
#
#
# Mechanical properties :
#
#
# Convention : Reuss Voigt Hill
#
# Bulk Modulus (GPa) = 58.49918 58.79427 58.64673
# Shear Modulus (GPa) = 22.83303 23.96814 23.40058
#
# Velocity S-wave (km/s) = 3.74180 3.83368 3.78802
# Velocity P-wave (km/s) = 7.38508 7.45978 7.42252
#
# Compressibility (1/GPa) = 0.01709426
#
# Stress axis : x y z
#
# Youngs Moduli (GPa) = 50.20044 50.20044 54.62625
#
# Poissons Ratio (x) = 0.45563 0.31273
# Poissons Ratio (y) = 0.45563 0.31273
# Poissons Ratio (z) = 0.28740 0.28740
#
# Static dielectric constant tensor:
#      x y z
#    x 1.543240 0.000000 0.000000 
#    y 0.000000 1.543240 0.000000 
#    z 0.000000 0.000000 1.532980 
# 
# From -- ./inp_files/12060.got.cif
#   From: 2010.05.17/outbox.cif.g08.bks.cpg/sg131_7_cif.got.tgz:12060.got - 2010.05.20 12:21:01.
