data_PCOD9566484
_publ_section_title
;
Structure prediction by ZEFSAII (Michael W. Deem and Ramdas Pophale) SiO2 
 PCOD9566484
Probable space group: P 42/M M C
;
_chemical_formula_sum "Si O2"
_cell_formula_units_Z 72
_cell_length_a 14.119941
_cell_length_b 14.119941
_cell_length_c 21.650990
_cell_angle_alpha 90.000000
_cell_angle_beta 90.000000
_cell_angle_gamma 90.000000
_cell_volume 4316.617067
_symmetry_space_group_name_H-M "P 42/M M C"
_symmetry_group_IT_number 131
_symmetry_cell_setting 'tetragonal'
loop_
_space_group_symop_operation_xyz
x,y,z
-x,-y,z
-y,x,1/2+z
y,-x,1/2+z
-x,y,-z
x,-y,-z
y,x,1/2-z
-y,-x,1/2-z
-x,-y,-z
x,y,-z
y,-x,1/2-z
-y,x,1/2-z
x,-y,z
-x,y,z
-y,-x,1/2+z
y,x,1/2+z
loop_
_atom_site_type_symbol
_atom_site_label
_atom_site_fract_x
_atom_site_fract_y
_atom_site_fract_z
Si Si1 0.114621 0.110832 0.931933
Si Si2 0.614685 0.893591 0.500000
Si Si3 0.196836 0.614058 0.868949
Si Si4 0.783071 0.113178 0.306222
Si Si5 0.385895 0.605360 0.678605
O O1 0.143297 0.165934 0.870457
O O2 0.000000 0.114922 0.932638
O O3 0.140623 0.000000 0.926652
O O4 0.146865 0.145281 0.000000
O O5 0.500000 0.899312 0.500000
O O6 0.638738 0.842831 0.436363
O O7 0.653985 0.000000 0.500000
O O8 0.189045 0.500000 0.860243
O O9 0.139352 0.673503 0.818183
O O10 0.306828 0.642933 0.863098
O O11 0.830622 0.169378 0.250000
O O12 0.794664 0.000000 0.297779
O O13 0.368045 0.631956 0.750000
O O14 0.347575 0.500000 0.665734
O O15 0.500000 0.598875 0.673787
#
# Coordination Sequence:
#
# PCOD9566484 Si02
#       5
#    16   8  16  16  16
#     4   8  15  29  48  68  91 123 161 197 239 296
#     4   9  18  32  47  65  94 132 169 206 253 311
#     4  10  20  33  50  73 101 134 171 209 256 318
#     4  11  22  33  49  73 102 132 167 212 261 306
#     4   8  14  27  48  71  96 128 164 203 249 301
#
# _framework density 16.679728000000001
#
# number of rings (size 3 to 8) (size 9 to 14) (size 15 to 20)
#    0.000    2.778    0.000    3.333    1.556    2.444 
#    0.000    0.556    0.000    3.333    0.000    0.000 
#    0.000    0.000    0.000    7.111    0.000    0.444 
#
# Total GULP energy -401006.149687 kJ/mol
# GULP energy per Si atom -5569.529857 kJ/mol
# Density = 1.664176 g / cm^3
# Si number density = 16.679728 Si / 1000 Ang^3
#
#
#
# Elastic Constant Matrix: (Units=GPa)
#
#
# Indices 1 2 3 4 5 6 
#
# 1 75.7820 31.2867 57.9325 0.0000 0.0000 0.0000
# 2 31.2867 75.7818 57.9329 0.0000 0.0000 0.0000
# 3 57.9325 57.9329 117.7997 0.0000 0.0000 0.0000
# 4 0.0000 0.0000 0.0000 23.2129 0.0000 0.0000
# 5 0.0000 0.0000 0.0000 0.0000 23.2130 0.0000
# 6 0.0000 0.0000 0.0000 0.0000 0.0000 13.8904
#
#
#
# Elastic Compliance Matrix: (Units=1/GPa)
#
#
# Indices 1 2 3 4 5 6 
#
# 1 0.021220 -0.001255 -0.009819 0.000000 0.000000 0.000000
# 2 -0.001255 0.021220 -0.009819 0.000000 0.000000 0.000000
# 3 -0.009819 -0.009819 0.018146 0.000000 0.000000 0.000000
# 4 0.000000 0.000000 0.000000 0.043079 0.000000 0.000000
# 5 0.000000 0.000000 0.000000 0.000000 0.043079 0.000000
# 6 0.000000 0.000000 0.000000 0.000000 0.000000 0.071992
#
#
# Mechanical properties :
#
#
# Convention : Reuss Voigt Hill
#
# Bulk Modulus (GPa) = 53.18554 62.62976 57.90765
# Shear Modulus (GPa) = 18.74148 20.21070 19.47609
#
# Velocity S-wave (km/s) = 3.35566 3.48471 3.42080
# Velocity P-wave (km/s) = 6.85343 7.33627 7.09896
#
# Compressibility (1/GPa) = 0.01880210
#
# Stress axis : x y z
#
# Youngs Moduli (GPa) = 47.12617 47.12560 55.10723
#
# Poissons Ratio (x) = 0.05912 0.54107
# Poissons Ratio (y) = 0.05912 0.54109
# Poissons Ratio (z) = 0.46271 0.46272
#
# Static dielectric constant tensor:
#      x y z
#    x 1.586820 0.000000 0.000000 
#    y 0.000000 1.586820 0.000000 
#    z 0.000000 0.000000 1.543670 
# 
# From -- ./inp_files/7562.got.cif
#   From: 2010.05.17/outbox.cif.g08.bks.cpg/sg131_4_cif.got.tgz:7562.got - 2010.05.20 12:21:01.
