data_PCOD9566287
_publ_section_title
;
Structure prediction by ZEFSAII (Michael W. Deem and Ramdas Pophale) SiO2 
 PCOD9566287
Probable space group: P 42/M M C
;
_chemical_formula_sum "Si O2"
_cell_formula_units_Z 104
_cell_length_a 27.259493
_cell_length_b 27.259493
_cell_length_c 8.894745
_cell_angle_alpha 90.000000
_cell_angle_beta 90.000000
_cell_angle_gamma 90.000000
_cell_volume 6609.506747
_symmetry_space_group_name_H-M "P 42/M M C"
_symmetry_group_IT_number 131
_symmetry_cell_setting 'tetragonal'
loop_
_space_group_symop_operation_xyz
x,y,z
-x,-y,z
-y,x,1/2+z
y,-x,1/2+z
-x,y,-z
x,-y,-z
y,x,1/2-z
-y,-x,1/2-z
-x,-y,-z
x,y,-z
y,-x,1/2-z
-y,x,1/2-z
x,-y,z
-x,y,z
-y,-x,1/2+z
y,x,1/2+z
loop_
_atom_site_type_symbol
_atom_site_label
_atom_site_fract_x
_atom_site_fract_y
_atom_site_fract_z
Si Si1 0.631244 0.556313 0.318985
Si Si2 0.185511 0.343036 0.179478
Si Si3 0.556244 0.000000 0.816637
Si Si4 0.231719 0.155962 0.679796
Si Si5 0.085271 0.370561 0.319885
Si Si6 0.945019 0.741443 0.680024
Si Si7 0.363977 0.711347 0.180021
O O1 0.585494 0.585494 0.250000
O O2 0.626936 0.557146 0.500000
O O3 0.633693 0.500000 0.269333
O O4 0.679808 0.587633 0.280041
O O5 0.177993 0.285449 0.220839
O O6 0.137245 0.370661 0.237846
O O7 0.234316 0.363494 0.255074
O O8 0.189055 0.345985 0.000000
O O9 0.587058 0.952053 0.771136
O O10 0.500000 0.000000 0.766051
O O11 0.556264 0.000000 0.000000
O O12 0.189560 0.189560 0.750000
O O13 0.227865 0.156119 0.500000
O O14 0.231918 0.100249 0.740209
O O15 0.092590 0.374285 0.500000
O O16 0.061612 0.316932 0.291419
O O17 0.940959 0.748224 0.500000
O O18 0.000000 0.756129 0.726961
O O19 0.318549 0.681452 0.250000
O O20 0.359347 0.712388 0.000000
#
# Coordination Sequence:
#
# PCOD9566287 Si02
#       7
#    16  16   8  16  16  16  16
#     4   9  19  35  53  74  98 122 151 187 228 277
#     4  10  20  32  47  69  95 125 161 198 238 285
#     4   9  16  28  49  73  93 117 157 207 250 291
#     4  10  20  31  44  66  96 127 157 193 236 281
#     4   9  16  29  48  69  92 120 158 200 243 288
#     4   9  16  28  47  68  91 122 158 195 235 281
#     4  10  19  32  51  72  95 125 157 191 231 279
#
# _framework density 15.734911
#
# number of rings (size 3 to 8) (size 9 to 14) (size 15 to 20)
#    0.000    2.538    0.769    1.846    0.000    4.462 
#    0.000    1.923    0.000    5.538    0.000    0.000 
#    0.000    0.308    0.000    3.231    0.000    1.385 
#
# Total GULP energy -579952.022681 kJ/mol
# GULP energy per Si atom -5576.461757 kJ/mol
# Density = 1.569910 g / cm^3
# Si number density = 15.734911 Si / 1000 Ang^3
#
#
#
# Elastic Constant Matrix: (Units=GPa)
#
#
# Indices 1 2 3 4 5 6 
#
# 1 135.8109 75.8412 41.8523 0.0000 0.0000 0.0000
# 2 75.8412 135.8057 41.8516 0.0000 0.0000 0.0000
# 3 41.8523 41.8516 30.6209 0.0000 0.0000 0.0000
# 4 0.0000 0.0000 0.0000 22.4608 0.0000 0.0000
# 5 0.0000 0.0000 0.0000 0.0000 22.4609 0.0000
# 6 0.0000 0.0000 0.0000 0.0000 0.0000 17.4045
#
#
#
# Elastic Compliance Matrix: (Units=1/GPa)
#
#
# Indices 1 2 3 4 5 6 
#
# 1 0.013479 -0.003196 -0.014055 0.000000 0.000000 0.000000
# 2 -0.003196 0.013480 -0.014055 0.000000 0.000000 0.000000
# 3 -0.014055 -0.014055 0.071077 0.000000 0.000000 0.000000
# 4 0.000000 0.000000 0.000000 0.044522 0.000000 0.000000
# 5 0.000000 0.000000 0.000000 0.000000 0.044522 0.000000
# 6 0.000000 0.000000 0.000000 0.000000 0.000000 0.057456
#
#
# Mechanical properties :
#
#
# Convention : Reuss Voigt Hill
#
# Bulk Modulus (GPa) = 28.22937 69.03643 48.63290
# Shear Modulus (GPa) = 15.67609 21.97806 18.82708
#
# Velocity S-wave (km/s) = 3.15979 3.74139 3.46282
# Velocity P-wave (km/s) = 5.59391 7.91416 6.85295
#
# Compressibility (1/GPa) = 0.03542409
#
# Stress axis : x y z
#
# Youngs Moduli (GPa) = 74.18809 74.18473 14.06918
#
# Poissons Ratio (x) = 0.23711 0.19774
# Poissons Ratio (y) = 0.23712 0.19775
# Poissons Ratio (z) = 1.04269 1.04268
#
# Static dielectric constant tensor:
#      x y z
#    x 1.512070 0.000000 0.000000 
#    y 0.000000 1.512070 0.000000 
#    z 0.000000 0.000000 1.524570 
# 
# From -- ./inp_files/2532.got.cif
#   From: 2010.05.17/outbox.cif.g08.bks.cpg/sg131_2_cif.got.tgz:2532.got - 2010.05.20 12:21:01.
