data_PCOD9566883
_publ_section_title
;
Structure prediction by ZEFSAII (Michael W. Deem and Ramdas Pophale) SiO2 
 PCOD9566883
Probable space group: P 42/M M C
;
_chemical_formula_sum "Si O2"
_cell_formula_units_Z 76
_cell_length_a 14.160564
_cell_length_b 14.160564
_cell_length_c 19.609222
_cell_angle_alpha 90.000000
_cell_angle_beta 90.000000
_cell_angle_gamma 90.000000
_cell_volume 3932.072037
_symmetry_space_group_name_H-M "P 42/M M C"
_symmetry_group_IT_number 131
_symmetry_cell_setting 'tetragonal'
loop_
_space_group_symop_operation_xyz
x,y,z
-x,-y,z
-y,x,1/2+z
y,-x,1/2+z
-x,y,-z
x,-y,-z
y,x,1/2-z
-y,-x,1/2-z
-x,-y,-z
x,y,-z
y,-x,1/2-z
-y,x,1/2-z
x,-y,z
-x,y,z
-y,-x,1/2+z
y,x,1/2+z
loop_
_atom_site_type_symbol
_atom_site_label
_atom_site_fract_x
_atom_site_fract_y
_atom_site_fract_z
Si Si1 0.612622 0.604750 0.578607
Si Si2 0.169792 0.169792 0.750000
Si Si3 0.106393 0.778767 0.000000
Si Si4 0.000000 0.138011 0.500000
Si Si5 0.738718 0.238468 0.628484
Si Si6 0.389217 0.110237 0.081480
Si Si7 0.000000 0.116723 0.349021
O O1 0.647382 0.613950 0.500000
O O2 0.641540 0.500000 0.603049
O O3 0.500000 0.605726 0.576701
O O4 0.649986 0.693200 0.619906
O O5 0.181377 0.257746 0.800974
O O6 0.088218 0.149494 0.695316
O O7 0.165425 0.748729 0.066281
O O8 0.097785 0.893013 0.000000
O O9 0.000000 0.740562 0.000000
O O10 0.000000 0.170148 0.421298
O O11 0.824279 0.315145 0.620755
O O12 0.500000 0.136821 0.090146
O O13 0.382041 0.000000 0.100225
O O14 0.367729 0.117292 0.000000
O O15 0.000000 0.000000 0.358460
#
# Coordination Sequence:
#
# PCOD9566883 Si02
#       7
#    16   8   8   4  16  16   8
#     4   9  18  37  68 101 124 148 197 266 326 374
#     4  12  27  36  54  83 124 170 206 258 314 365
#     4  12  25  36  56  89 121 160 216 264 293 361
#     4  12  25  40  64  88 117 166 231 260 298 350
#     4  12  23  37  58  87 122 165 202 251 306 382
#     4   9  18  32  54  87 121 149 186 238 300 370
#     4  12  23  42  60  82 122 174 221 272 304 349
#
# _framework density 19.328233000000001
#
# number of rings (size 3 to 8) (size 9 to 14) (size 15 to 20)
#    0.000    1.263    5.263    2.842    4.421    1.684 
#    0.000    2.105    0.000    2.526    0.000    0.000 
#    0.000    0.000    0.000    0.000    0.000    0.000 
#
# Total GULP energy -423485.156673 kJ/mol
# GULP energy per Si atom -5572.173114 kJ/mol
# Density = 1.928424 g / cm^3
# Si number density = 19.328233 Si / 1000 Ang^3
#
#
#
# Elastic Constant Matrix: (Units=GPa)
#
#
# Indices 1 2 3 4 5 6 
#
# 1 83.5742 26.0444 19.9533 0.0000 0.0000 0.0000
# 2 26.0444 83.5742 19.9533 0.0000 0.0000 0.0000
# 3 19.9533 19.9533 112.1588 0.0000 0.0000 0.0000
# 4 0.0000 0.0000 0.0000 -11.3922 0.0000 0.0000
# 5 0.0000 0.0000 0.0000 0.0000 -11.3922 0.0000
# 6 0.0000 0.0000 0.0000 0.0000 0.0000 -4.1927
#
#
#
# Elastic Compliance Matrix: (Units=1/GPa)
#
#
# Indices 1 2 3 4 5 6 
#
# 1 0.013568 -0.003814 -0.001735 0.000000 0.000000 0.000000
# 2 -0.003814 0.013568 -0.001735 0.000000 0.000000 0.000000
# 3 -0.001735 -0.001735 0.009533 0.000000 0.000000 0.000000
# 4 0.000000 0.000000 0.000000 -0.087779 0.000000 0.000000
# 5 0.000000 0.000000 0.000000 0.000000 -0.087779 0.000000
# 6 0.000000 0.000000 0.000000 0.000000 0.000000 -0.238509
#
#
# Mechanical properties :
#
#
# Convention : Reuss Voigt Hill
#
# Bulk Modulus (GPa) = 45.24749 45.68993 45.46871
# Shear Modulus (GPa) = -14.06624 8.82831 -2.61897
#
# Velocity S-wave (km/s) = -2.70062 2.13951 -1.16531
# Velocity P-wave (km/s) = 3.70626 5.45835 4.66530
#
# Compressibility (1/GPa) = 0.02210068
#
# Stress axis : x y z
#
# Youngs Moduli (GPa) = 73.70127 73.70127 104.89484
#
# Poissons Ratio (x) = 0.28110 0.18202
# Poissons Ratio (y) = 0.28110 0.18202
# Poissons Ratio (z) = 0.12789 0.12789
#
# Static dielectric constant tensor:
#      x y z
#    x 1.718100 0.000000 0.000000 
#    y 0.000000 1.718100 0.000000 
#    z 0.000000 0.000000 1.693450 
# 
# From -- ./inp_files/9513.got.cif
#   From: 2010.05.17/outbox.cif.g08.bks.cpg/sg131_5_cif.got.tgz:9513.got - 2010.05.20 12:21:01.
