data_PCOD9566675
_publ_section_title
;
Structure prediction by ZEFSAII (Michael W. Deem and Ramdas Pophale) SiO2 
 PCOD9566675
Probable space group: P 42/M M C
;
_chemical_formula_sum "Si O2"
_cell_formula_units_Z 42
_cell_length_a 7.875493
_cell_length_b 7.875493
_cell_length_c 33.223285
_cell_angle_alpha 90.000000
_cell_angle_beta 90.000000
_cell_angle_gamma 90.000000
_cell_volume 2060.620762
_symmetry_space_group_name_H-M "P 42/M M C"
_symmetry_group_IT_number 131
_symmetry_cell_setting 'tetragonal'
loop_
_space_group_symop_operation_xyz
x,y,z
-x,-y,z
-y,x,1/2+z
y,-x,1/2+z
-x,y,-z
x,-y,-z
y,x,1/2-z
-y,-x,1/2-z
-x,-y,-z
x,y,-z
y,-x,1/2-z
-y,x,1/2-z
x,-y,z
-x,y,z
-y,-x,1/2+z
y,x,1/2+z
loop_
_atom_site_type_symbol
_atom_site_label
_atom_site_fract_x
_atom_site_fract_y
_atom_site_fract_z
Si Si1 0.303110 0.698210 0.379068
Si Si2 0.694298 0.802702 0.792834
Si Si3 0.189921 0.000000 0.434697
Si Si4 0.000000 0.500000 0.000000
O O1 0.242854 0.500000 0.380709
O O2 0.500000 0.697600 0.391246
O O3 0.291880 0.757335 0.332494
O O4 0.207891 0.831664 0.406980
O O5 0.782028 0.782028 0.750000
O O6 0.500000 0.747006 0.786276
O O7 0.696890 0.000000 0.803844
O O8 0.347825 0.000000 0.465218
O O9 0.000000 0.000000 0.452473
#
# Coordination Sequence:
#
# PCOD9566675 Si02
#       4
#    16  16   8   2
#     4  10  21  41  68  96 132 179 228 278 341 409
#     4  10  21  35  53  83 123 169 222 276 326 389
#     4  12  25  45  75 102 137 179 220 285 349 416
#     4  12  26  52  70 110 140 170 238 284 350 430
#
# _framework density 20.382206
#
# number of rings (size 3 to 8) (size 9 to 14) (size 15 to 20)
#    0.000    1.524    1.905    2.571    2.667    4.571 
#    0.000    1.905    0.000    2.286    0.000    0.000 
#    0.000    0.000    0.000    0.000    0.000    0.000 
#
# Total GULP energy -233836.953606 kJ/mol
# GULP energy per Si atom -5567.546514 kJ/mol
# Density = 2.033582 g / cm^3
# Si number density = 20.382206 Si / 1000 Ang^3
#
#
#
# Elastic Constant Matrix: (Units=GPa)
#
#
# Indices 1 2 3 4 5 6 
#
# 1 100.7942 29.4668 48.5093 0.0000 0.0000 0.0000
# 2 29.4668 100.7942 48.5093 0.0000 0.0000 0.0000
# 3 48.5093 48.5093 109.7354 0.0000 0.0000 0.0000
# 4 0.0000 0.0000 0.0000 -18.8933 0.0000 0.0000
# 5 0.0000 0.0000 0.0000 0.0000 -18.8933 0.0000
# 6 0.0000 0.0000 0.0000 0.0000 0.0000 14.6881
#
#
#
# Elastic Compliance Matrix: (Units=1/GPa)
#
#
# Indices 1 2 3 4 5 6 
#
# 1 0.012733 -0.001287 -0.005059 0.000000 0.000000 0.000000
# 2 -0.001287 0.012733 -0.005059 0.000000 0.000000 0.000000
# 3 -0.005059 -0.005059 0.013586 0.000000 0.000000 0.000000
# 4 0.000000 0.000000 0.000000 -0.052929 0.000000 0.000000
# 5 0.000000 0.000000 0.000000 0.000000 -0.052929 0.000000
# 6 0.000000 0.000000 0.000000 0.000000 0.000000 0.068082
#
#
# Mechanical properties :
#
#
# Convention : Reuss Voigt Hill
#
# Bulk Modulus (GPa) = 61.58170 62.69940 62.14055
# Shear Modulus (GPa) = 169.48873 7.70288 88.59581
#
# Velocity S-wave (km/s) = 9.12884 1.94613 6.60012
# Velocity P-wave (km/s) = 11.89090 5.98987 9.41467
#
# Compressibility (1/GPa) = 0.01623859
#
# Stress axis : x y z
#
# Youngs Moduli (GPa) = 78.53917 78.53917 73.60559
#
# Poissons Ratio (x) = 0.10111 0.37240
# Poissons Ratio (y) = 0.10111 0.37240
# Poissons Ratio (z) = 0.39736 0.39736
#
# Static dielectric constant tensor:
#      x y z
#    x 1.745170 0.000000 0.000000 
#    y 0.000000 1.745170 0.000000 
#    z 0.000000 0.000000 1.704690 
# 
# From -- ./inp_files/12716.got.cif
#   From: 2010.05.17/outbox.cif.g08.bks.cpg/sg131_7_cif.got.tgz:12716.got - 2010.05.20 12:21:01.
