data_PCOD9566886
_publ_section_title
;
Structure prediction by ZEFSAII (Michael W. Deem and Ramdas Pophale) SiO2 
 PCOD9566886
Probable space group: P 42/M M C
;
_chemical_formula_sum "Si O2"
_cell_formula_units_Z 34
_cell_length_a 7.599649
_cell_length_b 7.599649
_cell_length_c 28.802649
_cell_angle_alpha 90.000000
_cell_angle_beta 90.000000
_cell_angle_gamma 90.000000
_cell_volume 1663.487342
_symmetry_space_group_name_H-M "P 42/M M C"
_symmetry_group_IT_number 131
_symmetry_cell_setting 'tetragonal'
loop_
_space_group_symop_operation_xyz
x,y,z
-x,-y,z
-y,x,1/2+z
y,-x,1/2+z
-x,y,-z
x,-y,-z
y,x,1/2-z
-y,-x,1/2-z
-x,-y,-z
x,y,-z
y,-x,1/2-z
-y,x,1/2-z
x,-y,z
-x,y,z
-y,-x,1/2+z
y,x,1/2+z
loop_
_atom_site_type_symbol
_atom_site_label
_atom_site_fract_x
_atom_site_fract_y
_atom_site_fract_z
Si Si1 0.204344 0.714138 0.398556
Si Si2 0.500000 0.500000 0.250000
Si Si3 0.296178 0.785662 0.000000
Si Si4 0.804595 0.500000 0.825093
O O1 0.210480 0.500000 0.399507
O O2 0.264502 0.778132 0.449846
O O3 0.331648 0.777242 0.358340
O O4 0.000000 0.764081 0.391695
O O5 0.500000 0.666072 0.283922
O O6 0.500000 0.727636 0.000000
O O7 0.296687 0.000000 0.000000
O O8 0.000000 0.500000 0.805878
#
# Coordination Sequence:
#
# PCOD9566886 Si02
#       4
#    16   2   8   8
#     4   9  17  35  63  94 131 169 203 243 290 352
#     4  12  28  52  64  86 116 152 204 268 332 374
#     4   7  12  25  53  92 129 169 205 230 277 346
#     4  12  26  43  67  93 117 154 205 259 317 374
#
# _framework density 20.43899
#
# number of rings (size 3 to 8) (size 9 to 14) (size 15 to 20)
#    0.000    2.588    2.353    2.824    0.000    3.765 
#    0.000    5.882    0.000    4.235    0.000    0.000 
#    0.000    0.000    0.000    0.000    0.000    0.000 
#
# Total GULP energy -189817.346432 kJ/mol
# GULP energy per Si atom -5582.863130 kJ/mol
# Density = 2.039247 g / cm^3
# Si number density = 20.438990 Si / 1000 Ang^3
#
#
#
# Elastic Constant Matrix: (Units=GPa)
#
#
# Indices 1 2 3 4 5 6 
#
# 1 103.5789 33.1291 69.8489 0.0000 0.0000 0.0000
# 2 33.1291 103.5789 69.8489 0.0000 0.0000 0.0000
# 3 69.8489 69.8489 178.8653 0.0000 0.0000 0.0000
# 4 0.0000 0.0000 0.0000 -124.6922 0.0000 0.0000
# 5 0.0000 0.0000 0.0000 0.0000 -124.6922 0.0000
# 6 0.0000 0.0000 0.0000 0.0000 0.0000 222.2334
#
#
#
# Elastic Compliance Matrix: (Units=1/GPa)
#
#
# Indices 1 2 3 4 5 6 
#
# 1 0.013183 -0.001011 -0.004753 0.000000 0.000000 0.000000
# 2 -0.001011 0.013183 -0.004753 0.000000 0.000000 0.000000
# 3 -0.004753 -0.004753 0.009303 0.000000 0.000000 0.000000
# 4 0.000000 0.000000 0.000000 -0.008020 0.000000 0.000000
# 5 0.000000 0.000000 0.000000 0.000000 -0.008020 0.000000
# 6 0.000000 0.000000 0.000000 0.000000 0.000000 0.004500
#
#
# Mechanical properties :
#
#
# Convention : Reuss Voigt Hill
#
# Bulk Modulus (GPa) = 68.33319 81.29742 74.81531
# Shear Modulus (GPa) = 99.91172 8.78287 54.34730
#
# Velocity S-wave (km/s) = 6.99922 2.07520 5.16214
# Velocity P-wave (km/s) = 9.94103 6.75307 8.49788
#
# Compressibility (1/GPa) = 0.01463418
#
# Stress axis : x y z
#
# Youngs Moduli (GPa) = 75.85322 75.85322 107.48880
#
# Poissons Ratio (x) = 0.07670 0.51094
# Poissons Ratio (y) = 0.07670 0.51094
# Poissons Ratio (z) = 0.36056 0.36056
#
# Static dielectric constant tensor:
#      x y z
#    x 1.747860 0.000000 0.000000 
#    y 0.000000 1.747860 0.000000 
#    z 0.000000 0.000000 1.702750 
# 
# From -- ./inp_files/10284.got.cif
#   From: 2010.05.17/outbox.cif.g08.bks.cpg/sg131_6_cif.got.tgz:10284.got - 2010.05.20 12:21:01.
