data_PCOD9566401
_publ_section_title
;
Structure prediction by ZEFSAII (Michael W. Deem and Ramdas Pophale) SiO2 
 PCOD9566401
Probable space group: P 42/M M C
;
_chemical_formula_sum "Si O2"
_cell_formula_units_Z 72
_cell_length_a 11.833337
_cell_length_b 11.833337
_cell_length_c 28.786626
_cell_angle_alpha 90.000000
_cell_angle_beta 90.000000
_cell_angle_gamma 90.000000
_cell_volume 4030.929767
_symmetry_space_group_name_H-M "P 42/M M C"
_symmetry_group_IT_number 131
_symmetry_cell_setting 'tetragonal'
loop_
_space_group_symop_operation_xyz
x,y,z
-x,-y,z
-y,x,1/2+z
y,-x,1/2+z
-x,y,-z
x,-y,-z
y,x,1/2-z
-y,-x,1/2-z
-x,-y,-z
x,y,-z
y,-x,1/2-z
-y,x,1/2-z
x,-y,z
-x,y,z
-y,-x,1/2+z
y,x,1/2+z
loop_
_atom_site_type_symbol
_atom_site_label
_atom_site_fract_x
_atom_site_fract_y
_atom_site_fract_z
Si Si1 0.131197 0.750491 0.550158
Si Si2 0.867381 0.500000 0.585043
Si Si3 0.500000 0.371678 0.141983
Si Si4 0.273848 0.369321 0.796013
Si Si5 0.865306 0.707655 0.881400
Si Si6 0.500000 0.137256 0.553038
O O1 0.182338 0.784626 0.500000
O O2 0.139126 0.615640 0.556236
O O3 0.185215 0.809226 0.594539
O O4 0.000000 0.780305 0.549048
O O5 0.749230 0.500000 0.614776
O O6 0.000000 0.500000 0.605299
O O7 0.500000 0.500000 0.118757
O O8 0.610768 0.370065 0.174137
O O9 0.297611 0.297611 0.750000
O O10 0.247383 0.500000 0.784086
O O11 0.180257 0.319315 0.830402
O O12 0.828591 0.607095 0.916333
O O13 0.000000 0.714805 0.881526
O O14 0.500000 0.178738 0.500000
O O15 0.500000 0.000000 0.551137
#
# Coordination Sequence:
#
# PCOD9566401 Si02
#       6
#    16   8   8  16  16   8
#     4  10  21  37  59  85 116 158 204 245 287 346
#     4  10  19  36  59  87 119 158 199 243 297 357
#     4  10  20  34  58  88 117 148 189 244 303 352
#     4  11  21  37  61  87 115 149 197 247 303 364
#     4  11  22  37  57  84 120 158 196 243 298 355
#     4   9  18  33  54  81 115 157 198 235 284 350
#
# _framework density 17.861882999999999
#
# number of rings (size 3 to 8) (size 9 to 14) (size 15 to 20)
#    0.000    1.667    4.444    1.000    0.000    3.111 
#    0.000    3.333    0.000    0.667    0.000    0.000 
#    0.000    0.000    0.000    0.000    0.000    0.000 
#
# Total GULP energy -401114.878563 kJ/mol
# GULP energy per Si atom -5571.039980 kJ/mol
# Density = 1.782123 g / cm^3
# Si number density = 17.861883 Si / 1000 Ang^3
#
#
#
# Elastic Constant Matrix: (Units=GPa)
#
#
# Indices 1 2 3 4 5 6 
#
# 1 83.3666 19.0694 45.3823 0.0000 0.0000 0.0000
# 2 19.0694 83.3666 45.3823 0.0000 0.0000 0.0000
# 3 45.3823 45.3823 125.4094 0.0000 0.0000 0.0000
# 4 0.0000 0.0000 0.0000 18.7891 0.0000 0.0000
# 5 0.0000 0.0000 0.0000 0.0000 18.7891 0.0000
# 6 0.0000 0.0000 0.0000 0.0000 0.0000 15.8478
#
#
#
# Elastic Compliance Matrix: (Units=1/GPa)
#
#
# Indices 1 2 3 4 5 6 
#
# 1 0.014961 -0.000592 -0.005200 0.000000 0.000000 0.000000
# 2 -0.000592 0.014961 -0.005200 0.000000 0.000000 0.000000
# 3 -0.005200 -0.005200 0.011737 0.000000 0.000000 0.000000
# 4 0.000000 0.000000 0.000000 0.053222 0.000000 0.000000
# 5 0.000000 0.000000 0.000000 0.000000 0.053222 0.000000
# 6 0.000000 0.000000 0.000000 0.000000 0.000000 0.063100
#
#
# Mechanical properties :
#
#
# Convention : Reuss Voigt Hill
#
# Bulk Modulus (GPa) = 50.82135 56.86782 53.84458
# Shear Modulus (GPa) = 20.85535 22.83913 21.84724
#
# Velocity S-wave (km/s) = 3.42071 3.57970 3.50111
# Velocity P-wave (km/s) = 6.64197 6.99945 6.82306
#
# Compressibility (1/GPa) = 0.01967677
#
# Stress axis : x y z
#
# Youngs Moduli (GPa) = 66.83935 66.83935 85.19797
#
# Poissons Ratio (x) = 0.03954 0.44303
# Poissons Ratio (y) = 0.03954 0.44303
# Poissons Ratio (z) = 0.34757 0.34757
#
# Static dielectric constant tensor:
#      x y z
#    x 1.629390 0.000000 0.000000 
#    y 0.000000 1.629390 0.000000 
#    z 0.000000 0.000000 1.596800 
# 
# From -- ./inp_files/12181.got.cif
#   From: 2010.05.17/outbox.cif.g08.bks.cpg/sg131_7_cif.got.tgz:12181.got - 2010.05.20 12:21:01.
