data_PCOD9566850
_publ_section_title
;
Structure prediction by ZEFSAII (Michael W. Deem and Ramdas Pophale) SiO2 
 PCOD9566850
Probable space group: P 42/M M C
;
_chemical_formula_sum "Si O2"
_cell_formula_units_Z 96
_cell_length_a 14.788670
_cell_length_b 14.788670
_cell_length_c 21.926729
_cell_angle_alpha 90.000000
_cell_angle_beta 90.000000
_cell_angle_gamma 90.000000
_cell_volume 4795.480012
_symmetry_space_group_name_H-M "P 42/M M C"
_symmetry_group_IT_number 131
_symmetry_cell_setting 'tetragonal'
loop_
_space_group_symop_operation_xyz
x,y,z
-x,-y,z
-y,x,1/2+z
y,-x,1/2+z
-x,y,-z
x,-y,-z
y,x,1/2-z
-y,-x,1/2-z
-x,-y,-z
x,y,-z
y,-x,1/2-z
-y,x,1/2-z
x,-y,z
-x,y,z
-y,-x,1/2+z
y,x,1/2+z
loop_
_atom_site_type_symbol
_atom_site_label
_atom_site_fract_x
_atom_site_fract_y
_atom_site_fract_z
Si Si1 0.142559 0.603494 0.659962
Si Si2 0.264067 0.104266 0.399788
Si Si3 0.356292 0.399028 0.321142
Si Si4 0.749668 0.098391 0.259117
Si Si5 0.603864 0.736846 0.432831
Si Si6 0.764605 0.896921 0.927567
O O1 0.109025 0.500000 0.654439
O O2 0.248538 0.598690 0.673557
O O3 0.103529 0.664297 0.714448
O O4 0.128882 0.668101 0.601615
O O5 0.284511 0.102957 0.328027
O O6 0.333594 0.174906 0.428709
O O7 0.167692 0.154283 0.406615
O O8 0.264376 0.000000 0.421807
O O9 0.377998 0.377998 0.250000
O O10 0.391740 0.500000 0.334682
O O11 0.384326 0.327856 0.373721
O O12 0.819594 0.180407 0.250000
O O13 0.794550 0.000000 0.250223
O O14 0.622312 0.692967 0.500000
O O15 0.500000 0.765459 0.432403
O O16 0.783893 0.000000 0.909881
O O17 0.758301 0.890155 0.000000
#
# Coordination Sequence:
#
# PCOD9566850 Si02
#       6
#    16  16  16  16  16  16
#     4  11  23  40  65  95 131 173 213 260 321 387
#     4  11  24  42  67  94 126 170 217 268 326 388
#     4  11  23  40  66  98 135 176 217 267 327 391
#     4  11  22  38  62  92 127 165 210 263 320 383
#     4  11  24  42  65  93 129 173 222 274 324 382
#     4  11  24  42  65  93 128 169 215 267 320 382
#
# _framework density 20.01885
#
# number of rings (size 3 to 8) (size 9 to 14) (size 15 to 20)
#    0.000    1.000    3.333    3.000    0.000    7.333 
#    0.000    8.333    0.000    0.000    0.000    0.000 
#    0.000    0.000    0.000    0.000    0.000    0.000 
#
# Total GULP energy -535776.175550 kJ/mol
# GULP energy per Si atom -5581.001829 kJ/mol
# Density = 1.997329 g / cm^3
# Si number density = 20.018850 Si / 1000 Ang^3
#
#
#
# Elastic Constant Matrix: (Units=GPa)
#
#
# Indices 1 2 3 4 5 6 
#
# 1 119.1583 28.8455 22.7321 0.0000 0.0000 0.0000
# 2 28.8455 119.1569 22.7313 0.0000 0.0000 0.0000
# 3 22.7321 22.7313 103.4490 0.0000 0.0000 0.0000
# 4 0.0000 0.0000 0.0000 30.5839 0.0000 0.0000
# 5 0.0000 0.0000 0.0000 0.0000 30.5836 0.0000
# 6 0.0000 0.0000 0.0000 0.0000 0.0000 -21.4536
#
#
#
# Elastic Compliance Matrix: (Units=1/GPa)
#
#
# Indices 1 2 3 4 5 6 
#
# 1 0.009159 -0.001914 -0.001592 0.000000 0.000000 0.000000
# 2 -0.001914 0.009159 -0.001592 0.000000 0.000000 0.000000
# 3 -0.001592 -0.001592 0.010366 0.000000 0.000000 0.000000
# 4 0.000000 0.000000 0.000000 0.032697 0.000000 0.000000
# 5 0.000000 0.000000 0.000000 0.000000 0.032697 0.000000
# 6 0.000000 0.000000 0.000000 0.000000 0.000000 -0.046612
#
#
# Mechanical properties :
#
#
# Convention : Reuss Voigt Hill
#
# Bulk Modulus (GPa) = 54.08601 54.48691 54.28646
# Shear Modulus (GPa) = 78.33882 25.77313 52.05598
#
# Velocity S-wave (km/s) = 6.26239 3.59199 5.10489
# Velocity P-wave (km/s) = 8.90877 6.66934 7.86912
#
# Compressibility (1/GPa) = 0.01848907
#
# Stress axis : x y z
#
# Youngs Moduli (GPa) = 109.18035 109.17933 96.46624
#
# Poissons Ratio (x) = 0.20892 0.15359
# Poissons Ratio (y) = 0.20892 0.15359
# Poissons Ratio (z) = 0.17384 0.17383
#
# Static dielectric constant tensor:
#      x y z
#    x 1.716420 0.000000 0.000000 
#    y 0.000000 1.716430 0.000000 
#    z 0.000000 0.000000 1.727570 
# 
# From -- ./inp_files/9695.got.cif
#   From: 2010.05.17/outbox.cif.g08.bks.cpg/sg131_5_cif.got.tgz:9695.got - 2010.05.20 12:21:01.
