data_PCOD9566461
_publ_section_title
;
Structure prediction by ZEFSAII (Michael W. Deem and Ramdas Pophale) SiO2 
 PCOD9566461
Probable space group: P 42/M M C
;
_chemical_formula_sum "Si O2"
_cell_formula_units_Z 96
_cell_length_a 14.895839
_cell_length_b 14.895839
_cell_length_c 24.937022
_cell_angle_alpha 90.000000
_cell_angle_beta 90.000000
_cell_angle_gamma 90.000000
_cell_volume 5533.176550
_symmetry_space_group_name_H-M "P 42/M M C"
_symmetry_group_IT_number 131
_symmetry_cell_setting 'tetragonal'
loop_
_space_group_symop_operation_xyz
x,y,z
-x,-y,z
-y,x,1/2+z
y,-x,1/2+z
-x,y,-z
x,-y,-z
y,x,1/2-z
-y,-x,1/2-z
-x,-y,-z
x,y,-z
y,-x,1/2-z
-y,x,1/2-z
x,-y,z
-x,y,z
-y,-x,1/2+z
y,x,1/2+z
loop_
_atom_site_type_symbol
_atom_site_label
_atom_site_fract_x
_atom_site_fract_y
_atom_site_fract_z
Si Si1 0.891908 0.761334 0.655746
Si Si2 0.891129 0.602025 0.265054
Si Si3 0.602691 0.743942 0.563302
Si Si4 0.792731 0.680740 0.563515
Si Si5 0.101203 0.391398 0.853106
Si Si6 0.101421 0.500000 0.435296
Si Si7 0.105747 0.894253 0.250000
O O1 0.867303 0.672025 0.689389
O O2 0.837818 0.756418 0.600584
O O3 0.868615 0.841630 0.696209
O O4 0.000000 0.761767 0.646305
O O5 0.859771 0.500000 0.274547
O O6 0.863767 0.635699 0.205776
O O7 0.000000 0.599384 0.262852
O O8 0.603223 0.766133 0.500000
O O9 0.500000 0.714840 0.576381
O O10 0.685481 0.676394 0.572406
O O11 0.625785 0.830434 0.599135
O O12 0.806832 0.697136 0.500000
O O13 0.844010 0.589121 0.578170
O O14 0.094804 0.500000 0.849325
O O15 0.000000 0.356849 0.861919
O O16 0.093802 0.500000 0.500000
O O17 0.000000 0.500000 0.412384
O O18 0.000000 0.878142 0.242075
#
# Coordination Sequence:
#
# PCOD9566461 Si02
#       7
#    16  16  16  16  16   8   8
#     4  10  20  32  52  76  99 133 168 211 264 310
#     4   8  15  27  44  71 102 126 154 197 251 307
#     4   9  18  32  48  68  99 138 177 216 253 297
#     4  10  21  35  52  77 104 131 167 207 258 324
#     4   8  14  26  45  69  99 134 168 206 251 296
#     4   9  18  34  55  77 103 131 158 202 266 330
#     4   9  20  38  54  72 100 138 185 222 252 302
#
# _framework density 17.349889000000001
#
# number of rings (size 3 to 8) (size 9 to 14) (size 15 to 20)
#    0.000    3.000    0.000    1.500    3.500    1.333 
#    0.000    2.083    0.000    4.000    0.000    2.333 
#    0.000    0.000    0.000    0.000    0.000    0.000 
#
# Total GULP energy -534613.699647 kJ/mol
# GULP energy per Si atom -5568.892705 kJ/mol
# Density = 1.731040 g / cm^3
# Si number density = 17.349889 Si / 1000 Ang^3
#
#
#
# Elastic Constant Matrix: (Units=GPa)
#
#
# Indices 1 2 3 4 5 6 
#
# 1 55.8417 55.2180 41.8469 0.0000 0.0000 0.0000
# 2 55.2180 55.8443 41.8472 0.0000 0.0000 0.0000
# 3 41.8469 41.8472 72.1276 0.0000 0.0000 0.0000
# 4 0.0000 0.0000 0.0000 19.2615 0.0000 0.0000
# 5 0.0000 0.0000 0.0000 0.0000 19.2616 0.0000
# 6 0.0000 0.0000 0.0000 0.0000 0.0000 19.1140
#
#
#
# Elastic Compliance Matrix: (Units=1/GPa)
#
#
# Indices 1 2 3 4 5 6 
#
# 1 0.808013 -0.791985 -0.009295 0.000000 0.000000 0.000000
# 2 -0.791985 0.807956 -0.009269 0.000000 0.000000 0.000000
# 3 -0.009295 -0.009269 0.024635 0.000000 0.000000 0.000000
# 4 0.000000 0.000000 0.000000 0.051917 0.000000 0.000000
# 5 0.000000 0.000000 0.000000 0.000000 0.051917 0.000000
# 6 0.000000 0.000000 0.000000 0.000000 0.000000 0.052318
#
#
# Mechanical properties :
#
#
# Convention : Reuss Voigt Hill
#
# Bulk Modulus (GPa) = 51.27161 51.29306 51.28233
# Shear Modulus (GPa) = 1.46013 14.52086 7.99050
#
# Velocity S-wave (km/s) = 0.91837 2.89613 2.14837
# Velocity P-wave (km/s) = 5.54439 6.38839 5.98130
#
# Compressibility (1/GPa) = 0.01950397
#
# Stress axis : x y z
#
# Youngs Moduli (GPa) = 1.23760 1.23769 40.59223
#
# Poissons Ratio (x) = 0.98023 0.37732
# Poissons Ratio (y) = 0.98016 0.37626
# Poissons Ratio (z) = 0.01150 0.01147
#
# Static dielectric constant tensor:
#      x y z
#    x 1.605180 0.000000 0.000000 
#    y 0.000000 1.605180 0.000000 
#    z 0.000000 0.000000 1.612320 
# 
# From -- ./inp_files/12360.got.cif
#   From: 2010.05.17/outbox.cif.g08.bks.cpg/sg131_7_cif.got.tgz:12360.got - 2010.05.20 12:21:01.
