data_PCOD9566315
_publ_section_title
;
Structure prediction by ZEFSAII (Michael W. Deem and Ramdas Pophale) SiO2 
 PCOD9566315
Probable space group: P 42/M M C
;
_chemical_formula_sum "Si O2"
_cell_formula_units_Z 112
_cell_length_a 14.864693
_cell_length_b 14.864693
_cell_length_c 24.810799
_cell_angle_alpha 90.000000
_cell_angle_beta 90.000000
_cell_angle_gamma 90.000000
_cell_volume 5482.171767
_symmetry_space_group_name_H-M "P 42/M M C"
_symmetry_group_IT_number 131
_symmetry_cell_setting 'tetragonal'
loop_
_space_group_symop_operation_xyz
x,y,z
-x,-y,z
-y,x,1/2+z
y,-x,1/2+z
-x,y,-z
x,-y,-z
y,x,1/2-z
-y,-x,1/2-z
-x,-y,-z
x,y,-z
y,-x,1/2-z
-y,x,1/2-z
x,-y,z
-x,y,z
-y,-x,1/2+z
y,x,1/2+z
loop_
_atom_site_type_symbol
_atom_site_label
_atom_site_fract_x
_atom_site_fract_y
_atom_site_fract_z
Si Si1 0.791713 0.105030 0.296102
Si Si2 0.685047 0.403261 0.059670
Si Si3 0.100796 0.892575 0.908917
Si Si4 0.606878 0.793346 0.165581
Si Si5 0.723619 0.205429 0.059401
Si Si6 0.401108 0.892505 0.276075
Si Si7 0.604453 0.596628 0.826438
O O1 0.834065 0.165936 0.250000
O O2 0.853148 0.108840 0.348661
O O3 0.688829 0.134287 0.307859
O O4 0.790011 0.000000 0.278364
O O5 0.733381 0.500000 0.064000
O O6 0.742138 0.312687 0.064038
O O7 0.615508 0.401115 0.108699
O O8 0.642796 0.400721 0.000000
O O9 0.184335 0.848986 0.938949
O O10 0.000000 0.869355 0.928828
O O11 0.108181 0.000000 0.908832
O O12 0.500000 0.785880 0.152793
O O13 0.661782 0.816213 0.111398
O O14 0.615565 0.863328 0.214193
O O15 0.638149 0.695603 0.188788
O O16 0.680682 0.191039 0.000000
O O17 0.500000 0.856774 0.292390
O O18 0.406123 0.000000 0.279292
O O19 0.644534 0.500000 0.808466
O O20 0.500000 0.593782 0.811789
#
# Coordination Sequence:
#
# PCOD9566315 Si02
#       7
#    16  16  16  16  16  16  16
#     4  10  19  32  54  81 105 128 159 205 260 316
#     4   8  14  25  41  62  90 125 166 212 256 293
#     4  10  22  39  57  78 102 127 162 213 272 327
#     4   9  17  29  47  74 108 143 177 213 254 302
#     4  10  20  33  51  75 104 142 184 220 257 306
#     4   9  18  33  53  76 103 136 170 204 249 309
#     4   8  13  21  35  59  93 132 171 208 245 284
#
# _framework density 20.429860000000001
#
# number of rings (size 3 to 8) (size 9 to 14) (size 15 to 20)
#    0.000    2.857    0.000    1.286    0.000    3.571 
#    0.000    5.714    0.000    3.857    0.000    5.000 
#    0.000    0.000    0.000    0.000    0.000    0.000 
#
# Total GULP energy -623803.099822 kJ/mol
# GULP energy per Si atom -5569.670534 kJ/mol
# Density = 2.038336 g / cm^3
# Si number density = 20.429860 Si / 1000 Ang^3
#
#
#
# Elastic Constant Matrix: (Units=GPa)
#
#
# Indices 1 2 3 4 5 6 
#
# 1 62.9134 30.3374 18.8348 0.0000 0.0000 0.0000
# 2 30.3374 62.9145 18.8338 0.0000 0.0000 0.0000
# 3 18.8348 18.8338 51.3234 0.0000 0.0000 0.0000
# 4 0.0000 0.0000 0.0000 21.2252 0.0000 0.0000
# 5 0.0000 0.0000 0.0000 0.0000 21.2253 0.0000
# 6 0.0000 0.0000 0.0000 0.0000 0.0000 15.0703
#
#
#
# Elastic Compliance Matrix: (Units=1/GPa)
#
#
# Indices 1 2 3 4 5 6 
#
# 1 0.021644 -0.009053 -0.004621 0.000000 0.000000 0.000000
# 2 -0.009053 0.021643 -0.004620 0.000000 0.000000 0.000000
# 3 -0.004621 -0.004620 0.022875 0.000000 0.000000 0.000000
# 4 0.000000 0.000000 0.000000 0.047114 0.000000 0.000000
# 5 0.000000 0.000000 0.000000 0.000000 0.047113 0.000000
# 6 0.000000 0.000000 0.000000 0.000000 0.000000 0.066356
#
#
# Mechanical properties :
#
#
# Convention : Reuss Voigt Hill
#
# Bulk Modulus (GPa) = 33.81291 34.79594 34.30442
# Shear Modulus (GPa) = 18.30220 18.78051 18.54136
#
# Velocity S-wave (km/s) = 2.99633 3.03523 3.01584
# Velocity P-wave (km/s) = 5.34391 5.41778 5.38097
#
# Compressibility (1/GPa) = 0.02957451
#
# Stress axis : x y z
#
# Youngs Moduli (GPa) = 46.20253 46.20405 43.71538
#
# Poissons Ratio (x) = 0.41831 0.20199
# Poissons Ratio (y) = 0.41829 0.20195
# Poissons Ratio (z) = 0.21349 0.21345
#
# Static dielectric constant tensor:
#      x y z
#    x 1.756470 0.000000 0.000000 
#    y 0.000000 1.756470 0.000000 
#    z 0.000000 0.000000 1.746530 
# 
# From -- ./inp_files/11289.got.cif
#   From: 2010.05.17/outbox.cif.g08.bks.cpg/sg131_6_cif.got.tgz:11289.got - 2010.05.20 12:21:01.
