data_PCOD9566575
_publ_section_title
;
Structure prediction by ZEFSAII (Michael W. Deem and Ramdas Pophale) SiO2 
 PCOD9566575
Probable space group: P 42/M M C
;
_chemical_formula_sum "Si O2"
_cell_formula_units_Z 104
_cell_length_a 27.258558
_cell_length_b 27.258558
_cell_length_c 8.697554
_cell_angle_alpha 90.000000
_cell_angle_beta 90.000000
_cell_angle_gamma 90.000000
_cell_volume 6462.534714
_symmetry_space_group_name_H-M "P 42/M M C"
_symmetry_group_IT_number 131
_symmetry_cell_setting 'tetragonal'
loop_
_space_group_symop_operation_xyz
x,y,z
-x,-y,z
-y,x,1/2+z
y,-x,1/2+z
-x,y,-z
x,-y,-z
y,x,1/2-z
-y,-x,1/2-z
-x,-y,-z
x,y,-z
y,-x,1/2-z
-y,x,1/2-z
x,-y,z
-x,y,z
-y,-x,1/2+z
y,x,1/2+z
loop_
_atom_site_type_symbol
_atom_site_label
_atom_site_fract_x
_atom_site_fract_y
_atom_site_fract_z
Si Si1 0.872834 0.582515 0.816356
Si Si2 0.057494 0.132760 0.315694
Si Si3 0.867158 0.790735 0.816190
Si Si4 0.341270 0.265011 0.184292
Si Si5 0.153287 0.685238 0.684790
Si Si6 0.942390 0.500000 0.684146
Si Si7 0.554165 0.232978 0.185661
O O1 0.874233 0.637613 0.750299
O O2 0.915177 0.547562 0.752006
O O3 0.820677 0.561011 0.758698
O O4 0.873894 0.583145 0.000000
O O5 0.085025 0.085025 0.250000
O O6 0.063741 0.134107 0.500000
O O7 0.085913 0.178902 0.243046
O O8 0.000000 0.132849 0.279825
O O9 0.820322 0.820322 0.750000
O O10 0.866232 0.735759 0.753230
O O11 0.865325 0.791414 0.000000
O O12 0.307703 0.307703 0.250000
O O13 0.320984 0.210963 0.227715
O O14 0.398555 0.264872 0.232053
O O15 0.339468 0.267963 0.000000
O O16 0.150182 0.685428 0.500000
O O17 0.936506 0.500000 0.500000
O O18 0.000000 0.500000 0.720902
O O19 0.500000 0.252189 0.224539
O O20 0.556694 0.227024 0.000000
#
# Coordination Sequence:
#
# PCOD9566575 Si02
#       7
#    16  16  16  16  16   8  16
#     4  11  21  33  52  78 102 124 162 213 261 302
#     4  10  21  37  57  80 105 134 167 203 247 300
#     4  11  21  34  54  79 107 138 172 209 250 300
#     4   9  18  29  44  69  98 132 165 202 248 294
#     4  10  20  35  53  73 101 137 174 207 248 303
#     4  11  23  39  57  73  95 131 169 207 256 309
#     4   9  17  31  50  68  94 133 173 205 244 303
#
# _framework density 16.092756000000001
#
# number of rings (size 3 to 8) (size 9 to 14) (size 15 to 20)
#    0.000    1.923    0.769    6.231    0.000    6.308 
#    0.000    1.538    0.000    4.615    0.000    0.000 
#    0.000    0.308    0.000    3.846    0.000    0.000 
#
# Total GULP energy -580485.214941 kJ/mol
# GULP energy per Si atom -5581.588605 kJ/mol
# Density = 1.605613 g / cm^3
# Si number density = 16.092756 Si / 1000 Ang^3
#
#
#
# Elastic Constant Matrix: (Units=GPa)
#
#
# Indices 1 2 3 4 5 6 
#
# 1 141.8610 80.7895 55.2611 0.0000 0.0000 0.0000
# 2 80.7895 141.8610 55.2611 0.0000 0.0000 0.0000
# 3 55.2611 55.2611 71.9378 0.0000 0.0000 0.0000
# 4 0.0000 0.0000 0.0000 26.3265 0.0000 0.0000
# 5 0.0000 0.0000 0.0000 0.0000 26.3265 0.0000
# 6 0.0000 0.0000 0.0000 0.0000 0.0000 14.8147
#
#
#
# Elastic Compliance Matrix: (Units=1/GPa)
#
#
# Indices 1 2 3 4 5 6 
#
# 1 0.011817 -0.004557 -0.005577 0.000000 0.000000 0.000000
# 2 -0.004557 0.011817 -0.005577 0.000000 0.000000 0.000000
# 3 -0.005577 -0.005577 0.022469 0.000000 0.000000 0.000000
# 4 0.000000 0.000000 0.000000 0.037985 0.000000 0.000000
# 5 0.000000 0.000000 0.000000 0.000000 0.037985 0.000000
# 6 0.000000 0.000000 0.000000 0.000000 0.000000 0.067501
#
#
# Mechanical properties :
#
#
# Convention : Reuss Voigt Hill
#
# Bulk Modulus (GPa) = 68.11446 82.03145 75.07296
# Shear Modulus (GPa) = 22.13498 24.45009 23.29253
#
# Velocity S-wave (km/s) = 3.71275 3.90208 3.80859
# Velocity P-wave (km/s) = 7.79727 8.44905 8.12969
#
# Compressibility (1/GPa) = 0.01468117
#
# Stress axis : x y z
#
# Youngs Moduli (GPa) = 84.62462 84.62462 44.50663
#
# Poissons Ratio (x) = 0.38566 0.24820
# Poissons Ratio (y) = 0.38566 0.24820
# Poissons Ratio (z) = 0.47192 0.47192
#
# Static dielectric constant tensor:
#      x y z
#    x 1.530840 0.000000 0.000000 
#    y 0.000000 1.530840 0.000000 
#    z 0.000000 0.000000 1.539880 
# 
# From -- ./inp_files/2567.got.cif
#   From: 2010.05.17/outbox.cif.g08.bks.cpg/sg131_2_cif.got.tgz:2567.got - 2010.05.20 12:21:01.
