data_PCOD9566680
_publ_section_title
;
Structure prediction by ZEFSAII (Michael W. Deem and Ramdas Pophale) SiO2 
 PCOD9566680
Probable space group: P 42/M M C
;
_chemical_formula_sum "Si O2"
_cell_formula_units_Z 44
_cell_length_a 7.488157
_cell_length_b 7.488157
_cell_length_c 41.717734
_cell_angle_alpha 90.000000
_cell_angle_beta 90.000000
_cell_angle_gamma 90.000000
_cell_volume 2339.217442
_symmetry_space_group_name_H-M "P 42/M M C"
_symmetry_group_IT_number 131
_symmetry_cell_setting 'tetragonal'
loop_
_space_group_symop_operation_xyz
x,y,z
-x,-y,z
-y,x,1/2+z
y,-x,1/2+z
-x,y,-z
x,-y,-z
y,x,1/2-z
-y,-x,1/2-z
-x,-y,-z
x,y,-z
y,-x,1/2-z
-y,x,1/2-z
x,-y,z
-x,y,z
-y,-x,1/2+z
y,x,1/2+z
loop_
_atom_site_type_symbol
_atom_site_label
_atom_site_fract_x
_atom_site_fract_y
_atom_site_fract_z
Si Si1 0.709474 0.290527 0.750000
Si Si2 0.000000 0.000000 0.142076
Si Si3 0.295142 0.282902 0.964365
Si Si4 0.000000 0.283804 0.086769
Si Si5 0.000000 0.287442 0.303008
O O1 0.500000 0.262122 0.743011
O O2 0.829947 0.244885 0.719476
O O3 0.171209 0.000000 0.165235
O O4 0.000000 0.826832 0.119267
O O5 0.292723 0.500000 0.964908
O O6 0.500000 0.226761 0.960081
O O7 0.168946 0.231845 0.935305
O O8 0.235033 0.225302 0.000000
O O9 0.000000 0.500000 0.091479
O O10 0.000000 0.500000 0.309552
#
# Coordination Sequence:
#
# PCOD9566680 Si02
#       5
#     8   4  16   8   8
#     4   9  18  35  62  90 108 129 168 215 262 304
#     4  12  26  37  49  76 110 148 186 204 236 310
#     4   8  14  28  53  79  98 124 169 224 278 320
#     4  10  21  36  52  71 102 142 177 213 256 306
#     4  10  21  37  57  81 110 139 168 211 256 295
#
# _framework density 18.809709000000002
#
# number of rings (size 3 to 8) (size 9 to 14) (size 15 to 20)
#    0.000    2.727    0.000    2.727    0.000    5.091 
#    0.000    1.818    0.000    2.182    0.000    0.000 
#    0.000    0.000    0.000    0.000    0.000    0.000 
#
# Total GULP energy -245599.356002 kJ/mol
# GULP energy per Si atom -5581.803545 kJ/mol
# Density = 1.876690 g / cm^3
# Si number density = 18.809709 Si / 1000 Ang^3
#
#
#
# Elastic Constant Matrix: (Units=GPa)
#
#
# Indices 1 2 3 4 5 6 
#
# 1 88.9645 43.0071 84.0993 0.0000 0.0000 0.0000
# 2 43.0071 88.9653 84.0991 0.0000 0.0000 0.0000
# 3 84.0993 84.0991 187.6077 0.0000 0.0000 0.0000
# 4 0.0000 0.0000 0.0000 -11.7015 0.0000 0.0000
# 5 0.0000 0.0000 0.0000 0.0000 -11.6902 0.0000
# 6 0.0000 0.0000 0.0000 0.0000 0.0000 9.5297
#
#
#
# Elastic Compliance Matrix: (Units=1/GPa)
#
#
# Indices 1 2 3 4 5 6 
#
# 1 0.019718 -0.002041 -0.007924 0.000000 0.000000 0.000000
# 2 -0.002041 0.019717 -0.007924 0.000000 0.000000 0.000000
# 3 -0.007924 -0.007924 0.012434 0.000000 0.000000 0.000000
# 4 0.000000 0.000000 0.000000 -0.085459 0.000000 0.000000
# 5 0.000000 0.000000 0.000000 0.000000 -0.085541 0.000000
# 6 0.000000 0.000000 0.000000 0.000000 0.000000 0.104935
#
#
# Mechanical properties :
#
#
# Convention : Reuss Voigt Hill
#
# Bulk Modulus (GPa) = 62.14401 87.54983 74.84692
# Shear Modulus (GPa) = 185.55990 7.51639 96.53814
#
# Velocity S-wave (km/s) = 9.94310 2.00117 7.17182
# Velocity P-wave (km/s) = 12.84252 7.21011 10.41432
#
# Compressibility (1/GPa) = 0.01609166
#
# Stress axis : x y z
#
# Youngs Moduli (GPa) = 50.71557 50.71652 80.42316
#
# Poissons Ratio (x) = 0.10354 0.63726
# Poissons Ratio (y) = 0.10353 0.63724
# Poissons Ratio (z) = 0.40186 0.40186
#
# Static dielectric constant tensor:
#      x y z
#    x 1.675830 0.000000 0.000000 
#    y 0.000000 1.675830 0.000000 
#    z 0.000000 0.000000 1.595220 
# 
# From -- ./inp_files/12795.got.cif
#   From: 2010.05.17/outbox.cif.g08.bks.cpg/sg131_7_cif.got.tgz:12795.got - 2010.05.20 12:21:01.
