data_PCOD9566339
_publ_section_title
;
Structure prediction by ZEFSAII (Michael W. Deem and Ramdas Pophale) SiO2 
 PCOD9566339
Probable space group: P 42/M M C
;
_chemical_formula_sum "Si O2"
_cell_formula_units_Z 96
_cell_length_a 14.907539
_cell_length_b 14.907539
_cell_length_c 24.421586
_cell_angle_alpha 90.000000
_cell_angle_beta 90.000000
_cell_angle_gamma 90.000000
_cell_volume 5427.324303
_symmetry_space_group_name_H-M "P 42/M M C"
_symmetry_group_IT_number 131
_symmetry_cell_setting 'tetragonal'
loop_
_space_group_symop_operation_xyz
x,y,z
-x,-y,z
-y,x,1/2+z
y,-x,1/2+z
-x,y,-z
x,-y,-z
y,x,1/2-z
-y,-x,1/2-z
-x,-y,-z
x,y,-z
y,-x,1/2-z
-y,x,1/2-z
x,-y,z
-x,y,z
-y,-x,1/2+z
y,x,1/2+z
loop_
_atom_site_type_symbol
_atom_site_label
_atom_site_fract_x
_atom_site_fract_y
_atom_site_fract_z
Si Si1 0.759040 0.604777 0.434272
Si Si2 0.394974 0.741748 0.434745
Si Si3 0.596948 0.108261 0.762938
Si Si4 0.139452 0.898907 0.314387
Si Si5 0.286932 0.102839 0.138115
Si Si6 0.345540 0.896725 0.352500
O O1 0.769565 0.605774 0.500000
O O2 0.762553 0.500000 0.416916
O O3 0.665271 0.654797 0.421167
O O4 0.834927 0.667498 0.407063
O O5 0.386324 0.757278 0.500000
O O6 0.500000 0.728671 0.422440
O O7 0.359120 0.828046 0.401724
O O8 0.500000 0.129771 0.787155
O O9 0.673897 0.138031 0.803823
O O10 0.602016 0.139093 0.700688
O O11 0.605004 0.000000 0.758823
O O12 0.122292 0.877709 0.250000
O O13 0.102593 0.819727 0.352756
O O14 0.244382 0.899658 0.329607
O O15 0.105539 0.000000 0.324394
O O16 0.316468 0.000000 0.129943
O O17 0.371922 0.000000 0.366062
#
# Coordination Sequence:
#
# PCOD9566339 Si02
#       6
#    16  16  16  16  16  16
#     4  10  22  40  60  82 109 141 181 233 289 341
#     4  10  21  37  58  83 110 144 187 232 281 339
#     4   9  17  29  48  77 109 139 173 219 273 324
#     4  11  21  35  55  82 118 157 192 228 274 327
#     4  11  21  35  56  82 111 144 186 231 277 333
#     4  10  19  33  54  80 113 150 186 230 280 332
#
# _framework density 17.688274
#
# number of rings (size 3 to 8) (size 9 to 14) (size 15 to 20)
#    0.000    1.833    3.333    1.500    0.000    4.167 
#    0.000    3.333    0.000    0.500    0.000    1.167 
#    0.000    5.333    0.000    0.000    0.000    0.000 
#
# Total GULP energy -534848.842285 kJ/mol
# GULP energy per Si atom -5571.342107 kJ/mol
# Density = 1.764801 g / cm^3
# Si number density = 17.688274 Si / 1000 Ang^3
#
#
#
# Elastic Constant Matrix: (Units=GPa)
#
#
# Indices 1 2 3 4 5 6 
#
# 1 117.3430 38.2094 40.8139 0.0000 0.0000 0.0000
# 2 38.2094 117.3430 40.8138 0.0000 0.0000 0.0000
# 3 40.8139 40.8138 51.4032 0.0000 0.0000 0.0000
# 4 0.0000 0.0000 0.0000 23.5573 0.0000 0.0000
# 5 0.0000 0.0000 0.0000 0.0000 23.5571 0.0000
# 6 0.0000 0.0000 0.0000 0.0000 0.0000 15.8188
#
#
#
# Elastic Compliance Matrix: (Units=1/GPa)
#
#
# Indices 1 2 3 4 5 6 
#
# 1 0.011829 -0.000808 -0.008750 0.000000 0.000000 0.000000
# 2 -0.000808 0.011829 -0.008750 0.000000 0.000000 0.000000
# 3 -0.008750 -0.008750 0.033349 0.000000 0.000000 0.000000
# 4 0.000000 0.000000 0.000000 0.042450 0.000000 0.000000
# 5 0.000000 0.000000 0.000000 0.000000 0.042450 0.000000
# 6 0.000000 0.000000 0.000000 0.000000 0.000000 0.063216
#
#
# Mechanical properties :
#
#
# Convention : Reuss Voigt Hill
#
# Bulk Modulus (GPa) = 49.04501 58.41815 53.73158
# Shear Modulus (GPa) = 20.11783 23.67011 21.89397
#
# Velocity S-wave (km/s) = 3.37613 3.66208 3.52201
# Velocity P-wave (km/s) = 6.55631 7.13998 6.85436
#
# Compressibility (1/GPa) = 0.02038943
#
# Stress axis : x y z
#
# Youngs Moduli (GPa) = 84.54042 84.54060 29.98570
#
# Poissons Ratio (x) = 0.06833 0.26238
# Poissons Ratio (y) = 0.06833 0.26238
# Poissons Ratio (z) = 0.73974 0.73974
#
# Static dielectric constant tensor:
#      x y z
#    x 1.639970 0.000000 0.000000 
#    y 0.000000 1.639970 0.000000 
#    z 0.000000 0.000000 1.597630 
# 
# From -- ./inp_files/9697.got.cif
#   From: 2010.05.17/outbox.cif.g08.bks.cpg/sg131_5_cif.got.tgz:9697.got - 2010.05.20 12:21:01.
