data_PCOD9566538
_publ_section_title
;
Structure prediction by ZEFSAII (Michael W. Deem and Ramdas Pophale) SiO2 
 PCOD9566538
Probable space group: P 42/M M C
;
_chemical_formula_sum "Si O2"
_cell_formula_units_Z 80
_cell_length_a 15.558668
_cell_length_b 15.558668
_cell_length_c 14.502783
_cell_angle_alpha 90.000000
_cell_angle_beta 90.000000
_cell_angle_gamma 90.000000
_cell_volume 3510.719861
_symmetry_space_group_name_H-M "P 42/M M C"
_symmetry_group_IT_number 131
_symmetry_cell_setting 'tetragonal'
loop_
_space_group_symop_operation_xyz
x,y,z
-x,-y,z
-y,x,1/2+z
y,-x,1/2+z
-x,y,-z
x,-y,-z
y,x,1/2-z
-y,-x,1/2-z
-x,-y,-z
x,y,-z
y,-x,1/2-z
-y,x,1/2-z
x,-y,z
-x,y,z
-y,-x,1/2+z
y,x,1/2+z
loop_
_atom_site_type_symbol
_atom_site_label
_atom_site_fract_x
_atom_site_fract_y
_atom_site_fract_z
Si Si1 0.838447 0.405651 0.612014
Si Si2 0.638238 0.593832 0.351615
Si Si3 0.214071 0.592483 0.106641
Si Si4 0.219539 0.094684 0.112281
Si Si5 0.099434 0.250929 0.112917
O O1 0.829903 0.402717 0.500000
O O2 0.876574 0.500000 0.633893
O O3 0.741661 0.402603 0.650790
O O4 0.885963 0.318244 0.639225
O O5 0.599635 0.599635 0.250000
O O6 0.615308 0.500000 0.392036
O O7 0.610239 0.683949 0.395091
O O8 0.199192 0.500000 0.151611
O O9 0.156873 0.668755 0.146112
O O10 0.187537 0.587151 0.000000
O O11 0.152191 0.166792 0.141697
O O12 0.194153 0.000000 0.142904
O O13 0.219383 0.095858 0.000000
O O14 0.000000 0.254077 0.141438
O O15 0.099551 0.251125 0.000000
#
# Coordination Sequence:
#
# PCOD9566538 Si02
#       5
#    16  16  16  16  16
#     4   9  17  31  52  76 104 139 175 212 257 308
#     4  11  22  35  52  75 106 140 173 210 254 306
#     4  10  20  34  53  76 102 135 176 217 259 308
#     4   9  16  27  47  77 109 137 168 209 259 312
#     4   9  17  30  48  73 106 137 168 213 264 309
#
# _framework density 22.78735
#
# number of rings (size 3 to 8) (size 9 to 14) (size 15 to 20)
#    0.000    2.400    2.000    1.200    0.000    3.800 
#    0.000    7.000    0.000    1.200    0.000    2.800 
#    0.000    1.600    0.000    0.000    0.000    0.000 
#
# Total GULP energy -446724.507679 kJ/mol
# GULP energy per Si atom -5584.056346 kJ/mol
# Density = 2.273549 g / cm^3
# Si number density = 22.787350 Si / 1000 Ang^3
#
#
#
# Elastic Constant Matrix: (Units=GPa)
#
#
# Indices 1 2 3 4 5 6 
#
# 1 199.7639 126.2364 4.2125 0.0000 0.0000 0.0000
# 2 126.2364 199.7639 4.2125 0.0000 0.0000 0.0000
# 3 4.2125 4.2125 70.1781 0.0000 0.0000 0.0000
# 4 0.0000 0.0000 0.0000 0.9254 0.0000 0.0000
# 5 0.0000 0.0000 0.0000 0.0000 0.9254 0.0000
# 6 0.0000 0.0000 0.0000 0.0000 0.0000 -9.3159
#
#
#
# Elastic Compliance Matrix: (Units=1/GPa)
#
#
# Indices 1 2 3 4 5 6 
#
# 1 0.008336 -0.005264 -0.000184 0.000000 0.000000 0.000000
# 2 -0.005264 0.008336 -0.000184 0.000000 0.000000 0.000000
# 3 -0.000184 -0.000184 0.014272 0.000000 0.000000 0.000000
# 4 0.000000 0.000000 0.000000 1.080627 0.000000 0.000000
# 5 0.000000 0.000000 0.000000 0.000000 1.080627 0.000000
# 6 0.000000 0.000000 0.000000 0.000000 0.000000 -0.107344
#
#
# Mechanical properties :
#
#
# Convention : Reuss Voigt Hill
#
# Bulk Modulus (GPa) = 50.81703 82.11429 66.46566
# Shear Modulus (GPa) = 2.37792 20.84330 11.61061
#
# Velocity S-wave (km/s) = 1.02264 3.02766 2.25970
# Velocity P-wave (km/s) = 4.87271 6.95238 6.00329
#
# Compressibility (1/GPa) = 0.01967844
#
# Stress axis : x y z
#
# Youngs Moduli (GPa) = 119.95737 119.95737 70.06925
#
# Poissons Ratio (x) = 0.63146 0.01292
# Poissons Ratio (y) = 0.63146 0.01292
# Poissons Ratio (z) = 0.02212 0.02212
#
# Static dielectric constant tensor:
#      x y z
#    x 1.820830 0.000000 0.000000 
#    y 0.000000 1.820830 0.000000 
#    z 0.000000 0.000000 1.919160 
# 
# From -- ./inp_files/9438.got.cif
#   From: 2010.05.17/outbox.cif.g08.bks.cpg/sg131_5_cif.got.tgz:9438.got - 2010.05.20 12:21:01.
