data_PCOD9566218
_publ_section_title
;
Structure prediction by ZEFSAII (Michael W. Deem and Ramdas Pophale) SiO2 
 PCOD9566218
Probable space group: P 42/M M C
;
_chemical_formula_sum "Si O2"
_cell_formula_units_Z 96
_cell_length_a 23.618411
_cell_length_b 23.618411
_cell_length_c 9.570068
_cell_angle_alpha 90.000000
_cell_angle_beta 90.000000
_cell_angle_gamma 90.000000
_cell_volume 5338.464699
_symmetry_space_group_name_H-M "P 42/M M C"
_symmetry_group_IT_number 131
_symmetry_cell_setting 'tetragonal'
loop_
_space_group_symop_operation_xyz
x,y,z
-x,-y,z
-y,x,1/2+z
y,-x,1/2+z
-x,y,-z
x,-y,-z
y,x,1/2-z
-y,-x,1/2-z
-x,-y,-z
x,y,-z
y,-x,1/2-z
-y,x,1/2-z
x,-y,z
-x,y,z
-y,-x,1/2+z
y,x,1/2+z
loop_
_atom_site_type_symbol
_atom_site_label
_atom_site_fract_x
_atom_site_fract_y
_atom_site_fract_z
Si Si1 0.232282 0.155308 0.659814
Si Si2 0.633080 0.560872 0.342389
Si Si3 0.329582 0.251037 0.660132
Si Si4 0.436485 0.931591 0.163505
Si Si5 0.231413 0.564051 0.659502
Si Si6 0.067714 0.325072 0.166574
O O1 0.180831 0.180831 0.750000
O O2 0.213844 0.144681 0.500000
O O3 0.280321 0.204107 0.656102
O O4 0.268392 0.101123 0.712053
O O5 0.609874 0.609874 0.250000
O O6 0.612390 0.566465 0.500000
O O7 0.614283 0.500000 0.285414
O O8 0.700509 0.560952 0.346229
O O9 0.302132 0.302132 0.750000
O O10 0.342085 0.268635 0.500000
O O11 0.384419 0.223324 0.733954
O O12 0.500000 0.914066 0.209911
O O13 0.382096 0.913111 0.252674
O O14 0.436359 0.000000 0.170601
O O15 0.430294 0.916654 0.000000
O O16 0.212217 0.576397 0.500000
O O17 0.212273 0.500000 0.696894
O O18 0.000000 0.318929 0.186517
O O19 0.078290 0.332129 0.000000
#
# Coordination Sequence:
#
# PCOD9566218 Si02
#       6
#    16  16  16  16  16  16
#     4   9  19  34  50  71  98 127 159 196 238 282
#     4   9  18  30  41  54  72  93 118 152 196 247
#     4  10  19  31  48  67  87 113 147 184 223 271
#     4   8  14  25  41  63  93 128 166 207 248 291
#     4   9  18  32  47  63  84 107 135 176 223 270
#     4   9  17  30  49  72  98 129 166 206 247 293
#
# _framework density 17.982697000000002
#
# number of rings (size 3 to 8) (size 9 to 14) (size 15 to 20)
#    0.000    3.000    0.000    2.500    0.000    4.500 
#    0.000    5.000    0.000    5.000    0.000    0.000 
#    0.000    0.333    0.000    4.167    0.000    0.000 
#
# Total GULP energy -534775.310566 kJ/mol
# GULP energy per Si atom -5570.576152 kJ/mol
# Density = 1.794177 g / cm^3
# Si number density = 17.982697 Si / 1000 Ang^3
#
#
#
# Elastic Constant Matrix: (Units=GPa)
#
#
# Indices 1 2 3 4 5 6 
#
# 1 79.4636 36.5298 35.5748 0.0000 0.0000 0.0000
# 2 36.5298 79.4636 35.5748 0.0000 0.0000 0.0000
# 3 35.5748 35.5748 61.3391 0.0000 0.0000 0.0000
# 4 0.0000 0.0000 0.0000 10.6207 0.0000 0.0000
# 5 0.0000 0.0000 0.0000 0.0000 10.6207 0.0000
# 6 0.0000 0.0000 0.0000 0.0000 0.0000 2.6955
#
#
#
# Elastic Compliance Matrix: (Units=1/GPa)
#
#
# Indices 1 2 3 4 5 6 
#
# 1 0.018337 -0.004955 -0.007761 0.000000 0.000000 0.000000
# 2 -0.004955 0.018337 -0.007761 0.000000 0.000000 0.000000
# 3 -0.007761 -0.007761 0.025305 0.000000 0.000000 0.000000
# 4 0.000000 0.000000 0.000000 0.094156 0.000000 0.000000
# 5 0.000000 0.000000 0.000000 0.000000 0.094156 0.000000
# 6 0.000000 0.000000 0.000000 0.000000 0.000000 0.370993
#
#
# Mechanical properties :
#
#
# Convention : Reuss Voigt Hill
#
# Bulk Modulus (GPa) = 47.56336 48.40276 47.98306
# Shear Modulus (GPa) = 7.47110 12.29315 9.88213
#
# Velocity S-wave (km/s) = 2.04050 2.61743 2.34676
# Velocity P-wave (km/s) = 5.66202 6.00910 5.83814
#
# Compressibility (1/GPa) = 0.02102459
#
# Stress axis : x y z
#
# Youngs Moduli (GPa) = 54.53545 54.53545 39.51775
#
# Poissons Ratio (x) = 0.27022 0.30670
# Poissons Ratio (y) = 0.27022 0.30670
# Poissons Ratio (z) = 0.42325 0.42325
#
# Static dielectric constant tensor:
#      x y z
#    x 1.649020 0.000000 0.000000 
#    y 0.000000 1.649020 0.000000 
#    z 0.000000 0.000000 1.640730 
# 
# From -- ./inp_files/2268.got.cif
#   From: 2010.05.17/outbox.cif.g08.bks.cpg/sg131_2_cif.got.tgz:2268.got - 2010.05.20 12:21:01.
