data_PCOD9566789
_publ_section_title
;
Structure prediction by ZEFSAII (Michael W. Deem and Ramdas Pophale) SiO2 
 PCOD9566789
Probable space group: P 42/M M C
;
_chemical_formula_sum "Si O2"
_cell_formula_units_Z 40
_cell_length_a 10.228699
_cell_length_b 10.228699
_cell_length_c 19.435684
_cell_angle_alpha 90.000000
_cell_angle_beta 90.000000
_cell_angle_gamma 90.000000
_cell_volume 2033.483379
_symmetry_space_group_name_H-M "P 42/M M C"
_symmetry_group_IT_number 131
_symmetry_cell_setting 'tetragonal'
loop_
_space_group_symop_operation_xyz
x,y,z
-x,-y,z
-y,x,1/2+z
y,-x,1/2+z
-x,y,-z
x,-y,-z
y,x,1/2-z
-y,-x,1/2-z
-x,-y,-z
x,y,-z
y,-x,1/2-z
-y,x,1/2-z
x,-y,z
-x,y,z
-y,-x,1/2+z
y,x,1/2+z
loop_
_atom_site_type_symbol
_atom_site_label
_atom_site_fract_x
_atom_site_fract_y
_atom_site_fract_z
Si Si1 0.646134 0.849189 0.280141
Si Si2 0.149222 0.229595 0.920290
Si Si3 0.649696 0.000000 0.916954
O O1 0.753428 0.753428 0.250000
O O2 0.500000 0.813059 0.258721
O O3 0.658913 0.844311 0.363050
O O4 0.671012 0.000000 0.259746
O O5 0.260802 0.125267 0.900852
O O6 0.000000 0.174174 0.915925
O O7 0.167889 0.269083 0.000000
O O8 0.500000 0.000000 0.890399
O O9 0.640180 0.000000 0.000000
#
# Coordination Sequence:
#
# PCOD9566789 Si02
#       3
#    16  16   8
#     4  10  23  41  60  85 116 153 195 238 288 346
#     4   9  18  34  57  84 113 146 187 237 290 340
#     4   9  17  29  49  81 117 149 182 225 278 335
#
# _framework density 19.670677999999999
#
# number of rings (size 3 to 8) (size 9 to 14) (size 15 to 20)
#    0.000    2.600    0.000    0.600    2.800    5.600 
#    0.000    4.000    0.000    0.000    0.000    8.400 
#    0.000    0.000    0.000    0.000    0.000    0.000 
#
# Total GULP energy -223033.377513 kJ/mol
# GULP energy per Si atom -5575.834438 kJ/mol
# Density = 1.962591 g / cm^3
# Si number density = 19.670678 Si / 1000 Ang^3
#
#
#
# Elastic Constant Matrix: (Units=GPa)
#
#
# Indices 1 2 3 4 5 6 
#
# 1 117.0468 73.7066 30.6618 0.0000 0.0000 0.0000
# 2 73.7066 117.0468 30.6618 0.0000 0.0000 0.0000
# 3 30.6618 30.6618 81.3351 0.0000 0.0000 0.0000
# 4 0.0000 0.0000 0.0000 18.4898 0.0000 0.0000
# 5 0.0000 0.0000 0.0000 0.0000 18.4898 0.0000
# 6 0.0000 0.0000 0.0000 0.0000 0.0000 9.7946
#
#
#
# Elastic Compliance Matrix: (Units=1/GPa)
#
#
# Indices 1 2 3 4 5 6 
#
# 1 0.014519 -0.008554 -0.002249 0.000000 0.000000 0.000000
# 2 -0.008554 0.014519 -0.002249 0.000000 0.000000 0.000000
# 3 -0.002249 -0.002249 0.013990 0.000000 0.000000 0.000000
# 4 0.000000 0.000000 0.000000 0.054084 0.000000 0.000000
# 5 0.000000 0.000000 0.000000 0.000000 0.054084 0.000000
# 6 0.000000 0.000000 0.000000 0.000000 0.000000 0.102097
#
#
# Mechanical properties :
#
#
# Convention : Reuss Voigt Hill
#
# Bulk Modulus (GPa) = 59.08165 65.05435 62.06800
# Shear Modulus (GPa) = 17.54148 21.38141 19.46145
#
# Velocity S-wave (km/s) = 2.98947 3.30050 3.14883
# Velocity P-wave (km/s) = 6.48201 6.90420 6.69643
#
# Compressibility (1/GPa) = 0.01692573
#
# Stress axis : x y z
#
# Youngs Moduli (GPa) = 68.87389 68.87389 71.47790
#
# Poissons Ratio (x) = 0.58915 0.16074
# Poissons Ratio (y) = 0.58915 0.16074
# Poissons Ratio (z) = 0.15488 0.15488
#
# Static dielectric constant tensor:
#      x y z
#    x 1.661920 0.000000 0.000000 
#    y 0.000000 1.661920 0.000000 
#    z 0.000000 0.000000 1.741800 
# 
# From -- ./inp_files/10334.got.cif
#   From: 2010.05.17/outbox.cif.g08.bks.cpg/sg131_6_cif.got.tgz:10334.got - 2010.05.20 12:21:01.
