data_PCOD9566986
_publ_section_title
;
Structure prediction by ZEFSAII (Michael W. Deem and Ramdas Pophale) SiO2 
 PCOD9566986
Probable space group: P 42/M C M
;
_chemical_formula_sum "Si O2"
_cell_formula_units_Z 80
_cell_length_a 23.379297
_cell_length_b 23.379297
_cell_length_c 8.838096
_cell_angle_alpha 90.000000
_cell_angle_beta 90.000000
_cell_angle_gamma 90.000000
_cell_volume 4830.828399
_symmetry_space_group_name_H-M "P 42/M C M"
_symmetry_group_IT_number 132
_symmetry_cell_setting 'tetragonal'
loop_
_space_group_symop_operation_xyz
x,y,z
-y,x,1/2+z
-x,-y,z
y,-x,1/2+z
x,-y,1/2-z
-x,y,1/2-z
y,x,-z
-y,-x,-z
-x,-y,-z
y,-x,1/2-z
x,y,-z
-y,x,1/2-z
-x,y,1/2+z
x,-y,1/2+z
-y,-x,z
y,x,z
loop_
_atom_site_type_symbol
_atom_site_label
_atom_site_fract_x
_atom_site_fract_y
_atom_site_fract_z
Si Si1 0.062190 0.241635 0.679954
Si Si2 0.244037 0.244037 0.822209
Si Si3 0.843168 0.843168 0.680955
Si Si4 0.562153 0.789075 0.818697
Si Si5 0.343404 0.437280 0.182577
Si Si6 0.161146 0.669453 0.818787
O O1 0.056782 0.246927 0.500000
O O2 0.093395 0.180420 0.709336
O O3 0.106690 0.291615 0.728958
O O4 0.000000 0.245986 0.750000
O O5 0.196207 0.196207 0.786100
O O6 0.217755 0.299154 0.743395
O O7 0.252791 0.252791 0.000000
O O8 0.831141 0.831141 0.500000
O O9 0.500000 0.799768 0.750000
O O10 0.576758 0.722706 0.777417
O O11 0.606947 0.833865 0.750604
O O12 0.561697 0.792759 0.000000
O O13 0.356660 0.500000 0.250000
O O14 0.388560 0.388560 0.231063
O O15 0.345946 0.441017 0.000000
O O16 0.161889 0.668169 0.000000
#
# Coordination Sequence:
#
# PCOD9566986 Si02
#       6
#    16   8   8  16  16  16
#     4   9  18  32  52  76 106 137 169 207 249 294
#     4  10  18  28  46  74 101 127 163 205 247 300
#     4   8  16  32  48  69 105 142 167 201 249 290
#     4  10  20  34  52  72  97 130 167 210 258 311
#     4   9  19  34  49  68  95 125 161 207 252 298
#     4  10  20  34  50  73 103 134 165 205 256 306
#
# _framework density 16.560306000000001
#
# number of rings (size 3 to 8) (size 9 to 14) (size 15 to 20)
#    0.000    2.600    0.000    3.300    1.400    5.400 
#    0.000    1.000    0.000    0.900    0.000    6.300 
#    0.000    0.000    0.000    0.000    0.000    0.000 
#
# Total GULP energy -445594.501607 kJ/mol
# GULP energy per Si atom -5569.931270 kJ/mol
# Density = 1.652261 g / cm^3
# Si number density = 16.560306 Si / 1000 Ang^3
#
#
#
# Elastic Constant Matrix: (Units=GPa)
#
#
# Indices 1 2 3 4 5 6 
#
# 1 105.2357 73.7311 34.3881 0.0000 0.0000 0.0000
# 2 73.7311 105.2357 34.3881 0.0000 0.0000 0.0000
# 3 34.3881 34.3881 41.9161 0.0000 0.0000 0.0000
# 4 0.0000 0.0000 0.0000 27.5562 0.0000 0.0000
# 5 0.0000 0.0000 0.0000 0.0000 27.5562 0.0000
# 6 0.0000 0.0000 0.0000 0.0000 0.0000 18.2973
#
#
#
# Elastic Compliance Matrix: (Units=1/GPa)
#
#
# Indices 1 2 3 4 5 6 
#
# 1 0.019951 -0.011790 -0.006695 0.000000 0.000000 0.000000
# 2 -0.011790 0.019951 -0.006695 0.000000 0.000000 0.000000
# 3 -0.006695 -0.006695 0.034842 0.000000 0.000000 0.000000
# 4 0.000000 0.000000 0.000000 0.036290 0.000000 0.000000
# 5 0.000000 0.000000 0.000000 0.000000 0.036290 0.000000
# 6 0.000000 0.000000 0.000000 0.000000 0.000000 0.054653
#
#
# Mechanical properties :
#
#
# Convention : Reuss Voigt Hill
#
# Bulk Modulus (GPa) = 41.01117 59.71133 50.36125
# Shear Modulus (GPa) = 19.19651 22.00727 20.60189
#
# Velocity S-wave (km/s) = 3.40838 3.64939 3.53094
# Velocity P-wave (km/s) = 6.34885 7.34115 6.86296
#
# Compressibility (1/GPa) = 0.02438360
#
# Stress axis : x y z
#
# Youngs Moduli (GPa) = 50.12304 50.12304 28.70093
#
# Poissons Ratio (x) = 0.59097 0.19215
# Poissons Ratio (y) = 0.59097 0.19215
# Poissons Ratio (z) = 0.33557 0.33557
#
# Static dielectric constant tensor:
#      x y z
#    x 1.436170 0.000000 0.000000 
#    y 0.000000 1.436170 0.000000 
#    z 0.000000 0.000000 1.552260 
# 
# From -- ./inp_files/1605.got.cif
#   From: 2010.05.17/outbox.cif.g08.bks.cpg/sg132_1_cif.got.tgz:1605.got - 2010.05.20 12:30:18.
