data_PCOD9566124
_publ_section_title
;
Structure prediction by ZEFSAII (Michael W. Deem and Ramdas Pophale) SiO2 
 PCOD9566124
Probable space group: P 42/M M C
;
_chemical_formula_sum "Si O2"
_cell_formula_units_Z 88
_cell_length_a 17.887696
_cell_length_b 17.887696
_cell_length_c 13.802311
_cell_angle_alpha 90.000000
_cell_angle_beta 90.000000
_cell_angle_gamma 90.000000
_cell_volume 4416.320871
_symmetry_space_group_name_H-M "P 42/M M C"
_symmetry_group_IT_number 131
_symmetry_cell_setting 'tetragonal'
loop_
_space_group_symop_operation_xyz
x,y,z
-x,-y,z
-y,x,1/2+z
y,-x,1/2+z
-x,y,-z
x,-y,-z
y,x,1/2-z
-y,-x,1/2-z
-x,-y,-z
x,y,-z
y,-x,1/2-z
-y,x,1/2-z
x,-y,z
-x,y,z
-y,-x,1/2+z
y,x,1/2+z
loop_
_atom_site_type_symbol
_atom_site_label
_atom_site_fract_x
_atom_site_fract_y
_atom_site_fract_z
Si Si1 0.709515 0.865937 0.107393
Si Si2 0.704141 0.365119 0.606637
Si Si3 0.914999 0.000000 0.617557
Si Si4 0.915111 0.352790 0.798436
Si Si5 0.416939 0.251252 0.314106
Si Si6 0.192666 0.869060 0.382910
O O1 0.666904 0.787577 0.099041
O O2 0.666230 0.915372 0.184249
O O3 0.789171 0.839227 0.148379
O O4 0.717988 0.898998 0.000000
O O5 0.685601 0.398235 0.500000
O O6 0.713035 0.412928 0.705119
O O7 0.646947 0.296804 0.628367
O O8 0.868129 0.928935 0.648246
O O9 0.914819 0.000000 0.500000
O O10 0.000000 0.000000 0.647725
O O11 0.838688 0.401015 0.813870
O O12 0.895170 0.274084 0.849484
O O13 0.000000 0.377902 0.826708
O O14 0.500000 0.263826 0.353321
O O15 0.195734 0.865258 0.500000
#
# Coordination Sequence:
#
# PCOD9566124 Si02
#       6
#    16  16   8  16  16  16
#     4   9  18  33  54  74  95 132 188 242 276 314
#     4   9  18  36  61  84 109 147 190 228 269 323
#     4   9  18  30  44  66  96 134 180 231 292 346
#     4  11  21  33  52  77 112 151 190 227 280 343
#     4  10  21  36  57  89 121 146 184 234 276 329
#     4  10  18  31  51  71  98 138 183 235 288 338
#
# _framework density 19.926086999999999
#
# number of rings (size 3 to 8) (size 9 to 14) (size 15 to 20)
#    0.000    2.273    2.727    0.545    0.000    2.182 
#    0.000    1.818    0.000    4.364    0.000   12.727 
#    0.000    0.000    0.000    0.000    0.000    0.000 
#
# Total GULP energy -490093.533912 kJ/mol
# GULP energy per Si atom -5569.244704 kJ/mol
# Density = 1.988073 g / cm^3
# Si number density = 19.926087 Si / 1000 Ang^3
#
#
#
# Elastic Constant Matrix: (Units=GPa)
#
#
# Indices 1 2 3 4 5 6 
#
# 1 59.8791 13.5918 -0.9598 0.0000 0.0000 0.0000
# 2 13.5918 59.8791 -0.9598 0.0000 0.0000 0.0000
# 3 -0.9598 -0.9598 51.7755 0.0000 0.0000 0.0000
# 4 0.0000 0.0000 0.0000 2.4466 0.0000 0.0000
# 5 0.0000 0.0000 0.0000 0.0000 2.4466 0.0000
# 6 0.0000 0.0000 0.0000 0.0000 0.0000 16.7509
#
#
#
# Elastic Compliance Matrix: (Units=1/GPa)
#
#
# Indices 1 2 3 4 5 6 
#
# 1 0.017611 -0.003993 0.000252 0.000000 0.000000 0.000000
# 2 -0.003993 0.017611 0.000252 0.000000 0.000000 0.000000
# 3 0.000252 0.000252 0.019324 0.000000 0.000000 0.000000
# 4 0.000000 0.000000 0.000000 0.408729 0.000000 0.000000
# 5 0.000000 0.000000 0.000000 0.000000 0.408729 0.000000
# 6 0.000000 0.000000 0.000000 0.000000 0.000000 0.059698
#
#
# Mechanical properties :
#
#
# Convention : Reuss Voigt Hill
#
# Bulk Modulus (GPa) = 21.02249 21.65312 21.33780
# Shear Modulus (GPa) = 5.23815 14.98625 10.11220
#
# Velocity S-wave (km/s) = 1.62311 2.74540 2.25519
# Velocity P-wave (km/s) = 3.75311 4.57602 4.18484
#
# Compressibility (1/GPa) = 0.04756812
#
# Stress axis : x y z
#
# Youngs Moduli (GPa) = 56.78325 56.78325 51.75044
#
# Poissons Ratio (x) = 0.22676 -0.01306
# Poissons Ratio (y) = 0.22676 -0.01306
# Poissons Ratio (z) = -0.01433 -0.01433
#
# Static dielectric constant tensor:
#      x y z
#    x 1.672450 0.000000 0.000000 
#    y 0.000000 1.672450 0.000000 
#    z 0.000000 0.000000 1.799670 
# 
# From -- ./inp_files/5831.got.cif
#   From: 2010.05.17/outbox.cif.g08.bks.cpg/sg131_3_cif.got.tgz:5831.got - 2010.05.20 12:21:01.
