data_PCOD9566699
_publ_section_title
;
Structure prediction by ZEFSAII (Michael W. Deem and Ramdas Pophale) SiO2 
 PCOD9566699
Probable space group: P 42/M M C
;
_chemical_formula_sum "Si O2"
_cell_formula_units_Z 96
_cell_length_a 24.243900
_cell_length_b 24.243900
_cell_length_c 8.141663
_cell_angle_alpha 90.000000
_cell_angle_beta 90.000000
_cell_angle_gamma 90.000000
_cell_volume 4785.398290
_symmetry_space_group_name_H-M "P 42/M M C"
_symmetry_group_IT_number 131
_symmetry_cell_setting 'tetragonal'
loop_
_space_group_symop_operation_xyz
x,y,z
-x,-y,z
-y,x,1/2+z
y,-x,1/2+z
-x,y,-z
x,-y,-z
y,x,1/2-z
-y,-x,1/2-z
-x,-y,-z
x,y,-z
y,-x,1/2-z
-y,x,1/2-z
x,-y,z
-x,y,z
-y,-x,1/2+z
y,x,1/2+z
loop_
_atom_site_type_symbol
_atom_site_label
_atom_site_fract_x
_atom_site_fract_y
_atom_site_fract_z
Si Si1 0.434518 0.818467 0.804295
Si Si2 0.270965 0.350638 0.805699
Si Si3 0.396989 0.059647 0.192555
Si Si4 0.151345 0.938599 0.697775
Si Si5 0.074946 0.722138 0.813128
Si Si6 0.814522 0.265307 0.685185
O O1 0.500000 0.816100 0.783976
O O2 0.406621 0.763643 0.727370
O O3 0.415191 0.879762 0.741925
O O4 0.421233 0.817328 0.000000
O O5 0.333487 0.333487 0.750000
O O6 0.234330 0.308655 0.697510
O O7 0.267061 0.339761 0.000000
O O8 0.330725 0.056623 0.211732
O O9 0.418028 0.000000 0.260612
O O10 0.411966 0.060431 0.000000
O O11 0.110042 0.889959 0.750000
O O12 0.154017 0.936546 0.500000
O O13 0.215714 0.934536 0.752685
O O14 0.131268 0.000000 0.747198
O O15 0.140208 0.715551 0.810259
O O16 0.055655 0.718758 0.000000
O O17 0.792448 0.207553 0.750000
O O18 0.835355 0.262134 0.500000
#
# Coordination Sequence:
#
# PCOD9566699 Si02
#       6
#    16  16  16  16  16  16
#     4  10  21  38  59  84 119 161 203 247 293 344
#     4  11  21  35  57  85 117 153 193 239 290 345
#     4  10  21  36  55  80 111 151 198 245 293 346
#     4  10  23  41  58  78 103 132 170 217 276 346
#     4  11  21  35  55  78 105 138 174 221 281 341
#     4  11  20  31  49  76 108 138 172 216 270 334
#
# _framework density 20.061025999999998
#
# number of rings (size 3 to 8) (size 9 to 14) (size 15 to 20)
#    0.000    1.500    1.667    5.500    0.000    4.833 
#    0.000    2.500    0.000    0.000    0.000    2.333 
#    0.000    0.333    0.000    3.500    0.000    1.500 
#
# Total GULP energy -534512.463880 kJ/mol
# GULP energy per Si atom -5567.838165 kJ/mol
# Density = 2.001537 g / cm^3
# Si number density = 20.061026 Si / 1000 Ang^3
#
#
#
# Elastic Constant Matrix: (Units=GPa)
#
#
# Indices 1 2 3 4 5 6 
#
# 1 71.1280 57.8422 17.2113 0.0000 0.0000 0.0000
# 2 57.8422 71.1243 17.2183 0.0000 0.0000 0.0000
# 3 17.2113 17.2183 71.5373 0.0000 0.0000 0.0000
# 4 0.0000 0.0000 0.0000 37.7998 0.0000 0.0000
# 5 0.0000 0.0000 0.0000 0.0000 37.8016 0.0000
# 6 0.0000 0.0000 0.0000 0.0000 0.0000 -28.9888
#
#
#
# Elastic Compliance Matrix: (Units=1/GPa)
#
#
# Indices 1 2 3 4 5 6 
#
# 1 0.041780 -0.033496 -0.001990 0.000000 0.000000 0.000000
# 2 -0.033496 0.041785 -0.001998 0.000000 0.000000 0.000000
# 3 -0.001990 -0.001998 0.014938 0.000000 0.000000 0.000000
# 4 0.000000 0.000000 0.000000 0.026455 0.000000 0.000000
# 5 0.000000 0.000000 0.000000 0.000000 0.026454 0.000000
# 6 0.000000 0.000000 0.000000 0.000000 0.000000 -0.034496
#
#
# Mechanical properties :
#
#
# Convention : Reuss Voigt Hill
#
# Bulk Modulus (GPa) = 42.49036 44.25925 43.37480
# Shear Modulus (GPa) = 25.03384 17.42371 21.22877
#
# Velocity S-wave (km/s) = 3.53637 2.95029 3.25654
# Velocity P-wave (km/s) = 6.15639 5.80653 5.98402
#
# Compressibility (1/GPa) = 0.02353475
#
# Stress axis : x y z
#
# Youngs Moduli (GPa) = 23.93477 23.93225 66.94164
#
# Poissons Ratio (x) = 0.80164 0.13320
# Poissons Ratio (y) = 0.80173 0.13376
# Poissons Ratio (z) = 0.04763 0.04782
#
# Static dielectric constant tensor:
#      x y z
#    x 1.788490 0.000000 0.000000 
#    y 0.000000 1.788480 0.000000 
#    z 0.000000 0.000000 1.729110 
# 
# From -- ./inp_files/2258.got.cif
#   From: 2010.05.17/outbox.cif.g08.bks.cpg/sg131_2_cif.got.tgz:2258.got - 2010.05.20 12:21:01.
