data_PCOD9566439
_publ_section_title
;
Structure prediction by ZEFSAII (Michael W. Deem and Ramdas Pophale) SiO2 
 PCOD9566439
Probable space group: P 42/M M C
;
_chemical_formula_sum "Si O2"
_cell_formula_units_Z 128
_cell_length_a 20.570319
_cell_length_b 20.570319
_cell_length_c 15.923652
_cell_angle_alpha 90.000000
_cell_angle_beta 90.000000
_cell_angle_gamma 90.000000
_cell_volume 6737.902638
_symmetry_space_group_name_H-M "P 42/M M C"
_symmetry_group_IT_number 131
_symmetry_cell_setting 'tetragonal'
loop_
_space_group_symop_operation_xyz
x,y,z
-x,-y,z
-y,x,1/2+z
y,-x,1/2+z
-x,y,-z
x,-y,-z
y,x,1/2-z
-y,-x,1/2-z
-x,-y,-z
x,y,-z
y,-x,1/2-z
-y,x,1/2-z
x,-y,z
-x,y,z
-y,-x,1/2+z
y,x,1/2+z
loop_
_atom_site_type_symbol
_atom_site_label
_atom_site_fract_x
_atom_site_fract_y
_atom_site_fract_z
Si Si1 0.072732 0.609077 0.600948
Si Si2 0.698544 0.698583 0.102172
Si Si3 0.069588 0.257346 0.123478
Si Si4 0.929897 0.752006 0.677936
Si Si5 0.408335 0.071864 0.596126
Si Si6 0.780679 0.572851 0.602453
Si Si7 0.572710 0.780692 0.397684
Si Si8 0.810022 0.200909 0.593398
O O1 0.072354 0.602329 0.500000
O O2 0.075260 0.684259 0.628186
O O3 0.143289 0.581839 0.629589
O O4 0.000000 0.584915 0.629622
O O5 0.629389 0.730028 0.130231
O O6 0.731610 0.630268 0.130785
O O7 0.751016 0.753797 0.123931
O O8 0.694962 0.693994 0.000000
O O9 0.073584 0.262193 0.223895
O O10 0.072045 0.330720 0.092708
O O11 0.129822 0.218558 0.090402
O O12 0.000000 0.228203 0.101124
O O13 0.871242 0.796624 0.652303
O O14 0.000000 0.781304 0.658394
O O15 0.431950 0.071728 0.500000
O O16 0.423962 0.143540 0.633051
O O17 0.426201 0.000000 0.633409
O O18 0.781900 0.576290 0.500000
O O19 0.759961 0.500000 0.626625
O O20 0.579067 0.784854 0.500000
O O21 0.500000 0.756451 0.378465
O O22 0.828962 0.223465 0.500000
#
# Coordination Sequence:
#
# PCOD9566439 Si02
#       8
#    16  16  16  16  16  16  16  16
#     4   9  16  27  44  67  95 126 162 200 238 288
#     4   9  16  27  43  68  94 117 156 206 250 292
#     4  10  20  32  47  71 102 132 162 197 243 297
#     4  10  20  32  47  71 102 132 162 197 243 297
#     4   9  16  27  44  67  95 126 162 200 238 288
#     4   9  16  26  42  65  94 126 160 205 255 294
#     4   9  16  26  42  65  94 126 160 205 255 294
#     4  11  19  31  53  74  95 125 165 212 249 284
#
# _framework density 18.997011000000001
#
# number of rings (size 3 to 8) (size 9 to 14) (size 15 to 20)
#    0.000    2.500    2.500    1.125    0.000    2.000 
#    0.000    2.500    0.000    1.500    0.000    8.750 
#    0.000    0.000    0.000    0.000    0.000    2.875 
#
# Total GULP energy -712723.222067 kJ/mol
# GULP energy per Si atom -5568.150172 kJ/mol
# Density = 1.895377 g / cm^3
# Si number density = 18.997011 Si / 1000 Ang^3
#
#
#
# Elastic Constant Matrix: (Units=GPa)
#
#
# Indices 1 2 3 4 5 6 
#
# 1 137.1193 85.2492 19.2617 0.0000 0.0000 0.0000
# 2 85.2492 137.1193 19.2617 0.0000 0.0000 0.0000
# 3 19.2617 19.2617 9.6238 0.0000 0.0000 0.0000
# 4 0.0000 0.0000 0.0000 34.2009 0.0000 0.0000
# 5 0.0000 0.0000 0.0000 0.0000 34.2009 0.0000
# 6 0.0000 0.0000 0.0000 0.0000 0.0000 31.9462
#
#
#
# Elastic Compliance Matrix: (Units=1/GPa)
#
#
# Indices 1 2 3 4 5 6 
#
# 1 0.013081 -0.006197 -0.013778 0.000000 0.000000 0.000000
# 2 -0.006197 0.013081 -0.013778 0.000000 0.000000 0.000000
# 3 -0.013778 -0.013778 0.159060 0.000000 0.000000 0.000000
# 4 0.000000 0.000000 0.000000 0.029239 0.000000 0.000000
# 5 0.000000 0.000000 0.000000 0.000000 0.029239 0.000000
# 6 0.000000 0.000000 0.000000 0.000000 0.000000 0.031303
#
#
# Mechanical properties :
#
#
# Convention : Reuss Voigt Hill
#
# Bulk Modulus (GPa) = 8.49497 59.04530 33.77014
# Shear Modulus (GPa) = 13.09760 30.74226 21.91993
#
# Velocity S-wave (km/s) = 2.62860 4.02713 3.40054
# Velocity P-wave (km/s) = 3.70056 7.26447 5.76484
#
# Compressibility (1/GPa) = 0.11771667
#
# Stress axis : x y z
#
# Youngs Moduli (GPa) = 76.44420 76.44420 6.28692
#
# Poissons Ratio (x) = 0.47376 0.08662
# Poissons Ratio (y) = 0.47376 0.08662
# Poissons Ratio (z) = 1.05324 1.05324
#
# Static dielectric constant tensor:
#      x y z
#    x 1.667520 0.000000 0.000000 
#    y 0.000000 1.667520 0.000000 
#    z 0.000000 0.000000 1.686250 
# 
# From -- ./inp_files/8417.got.cif
#   From: 2010.05.17/outbox.cif.g08.bks.cpg/sg131_5_cif.got.tgz:8417.got - 2010.05.20 12:21:01.
