data_PCOD9566244
_publ_section_title
;
Structure prediction by ZEFSAII (Michael W. Deem and Ramdas Pophale) SiO2 
 PCOD9566244
Probable space group: P 42/M M C
;
_chemical_formula_sum "Si O2"
_cell_formula_units_Z 120
_cell_length_a 22.875739
_cell_length_b 22.875739
_cell_length_c 14.198217
_cell_angle_alpha 90.000000
_cell_angle_beta 90.000000
_cell_angle_gamma 90.000000
_cell_volume 7429.918931
_symmetry_space_group_name_H-M "P 42/M M C"
_symmetry_group_IT_number 131
_symmetry_cell_setting 'tetragonal'
loop_
_space_group_symop_operation_xyz
x,y,z
-x,-y,z
-y,x,1/2+z
y,-x,1/2+z
-x,y,-z
x,-y,-z
y,x,1/2-z
-y,-x,1/2-z
-x,-y,-z
x,y,-z
y,-x,1/2-z
-y,x,1/2-z
x,-y,z
-x,y,z
-y,-x,1/2+z
y,x,1/2+z
loop_
_atom_site_type_symbol
_atom_site_label
_atom_site_fract_x
_atom_site_fract_y
_atom_site_fract_z
Si Si1 0.370512 0.360320 0.109388
Si Si2 0.861918 0.935606 0.113294
Si Si3 0.320987 0.815183 0.795235
Si Si4 0.819930 0.069567 0.392138
Si Si5 0.710637 0.251829 0.388800
Si Si6 0.432053 0.760389 0.112872
Si Si7 0.433248 0.566753 0.250000
Si Si8 0.932865 0.739744 0.281700
O O1 0.306227 0.333995 0.126332
O O2 0.414538 0.306940 0.132767
O O3 0.388403 0.416054 0.168484
O O4 0.375867 0.372954 0.000000
O O5 0.899200 0.879181 0.141248
O O6 0.796101 0.929508 0.150260
O O7 0.883333 0.000000 0.145832
O O8 0.862595 0.936152 0.000000
O O9 0.308685 0.796304 0.687035
O O10 0.277530 0.773773 0.857185
O O11 0.385901 0.798945 0.829432
O O12 0.305526 0.882780 0.807771
O O13 0.807482 0.087408 0.500000
O O14 0.767184 0.080927 0.321057
O O15 0.830023 0.000000 0.390996
O O16 0.710827 0.236631 0.500000
O O17 0.500000 0.771046 0.133528
O O18 0.422496 0.768752 0.000000
O O19 0.500000 0.574001 0.218428
O O20 0.000000 0.718448 0.282903
#
# Coordination Sequence:
#
# PCOD9566244 Si02
#       8
#    16  16  16  16  16  16   8  16
#     4   9  17  32  49  65  93 126 154 193 240 276
#     4   9  18  30  44  63  88 121 160 201 241 281
#     4  10  19  31  51  73  96 129 157 190 245 288
#     4   9  18  31  46  64  88 120 160 205 244 280
#     4   9  19  32  49  77 101 118 155 204 247 295
#     4   9  17  31  54  79  97 118 153 195 237 286
#     4  11  22  30  40  64  96 134 178 206 216 246
#     4  10  21  34  45  64  95 126 160 193 233 293
#
# _framework density 16.150917
#
# number of rings (size 3 to 8) (size 9 to 14) (size 15 to 20)
#    0.000    2.600    0.000    3.600    3.733    2.933 
#    0.000    2.000    0.000    4.000    0.000    0.933 
#    0.000    0.000    0.000    4.533    0.000    0.000 
#
# Total GULP energy -668880.335039 kJ/mol
# GULP energy per Si atom -5574.002792 kJ/mol
# Density = 1.611416 g / cm^3
# Si number density = 16.150917 Si / 1000 Ang^3
#
#
#
# Elastic Constant Matrix: (Units=GPa)
#
#
# Indices 1 2 3 4 5 6 
#
# 1 38.8380 26.4898 9.9788 0.0000 0.0000 0.0000
# 2 26.4898 38.8409 9.9792 0.0000 0.0000 0.0000
# 3 9.9788 9.9792 39.8530 0.0000 0.0000 0.0000
# 4 0.0000 0.0000 0.0000 9.7313 0.0000 0.0000
# 5 0.0000 0.0000 0.0000 0.0000 9.7304 0.0000
# 6 0.0000 0.0000 0.0000 0.0000 0.0000 23.2331
#
#
#
# Elastic Compliance Matrix: (Units=1/GPa)
#
#
# Indices 1 2 3 4 5 6 
#
# 1 0.048776 -0.032199 -0.004150 0.000000 0.000000 0.000000
# 2 -0.032199 0.048773 -0.004150 0.000000 0.000000 0.000000
# 3 -0.004150 -0.004150 0.027171 0.000000 0.000000 0.000000
# 4 0.000000 0.000000 0.000000 0.102761 0.000000 0.000000
# 5 0.000000 0.000000 0.000000 0.000000 0.102771 0.000000
# 6 0.000000 0.000000 0.000000 0.000000 0.000000 0.043042
#
#
# Mechanical properties :
#
#
# Convention : Reuss Voigt Hill
#
# Bulk Modulus (GPa) = 22.87311 23.38082 23.12697
# Shear Modulus (GPa) = 10.66403 13.27790 11.97096
#
# Velocity S-wave (km/s) = 2.57237 2.87036 2.72544
# Velocity P-wave (km/s) = 4.79746 5.04908 4.92488
#
# Compressibility (1/GPa) = 0.04371945
#
# Stress axis : x y z
#
# Youngs Moduli (GPa) = 20.50186 20.50333 36.80439
#
# Poissons Ratio (x) = 0.66019 0.15275
# Poissons Ratio (y) = 0.66015 0.15275
# Poissons Ratio (z) = 0.08509 0.08510
#
# Static dielectric constant tensor:
#      x y z
#    x 1.534020 0.000000 0.000000 
#    y 0.000000 1.534020 0.000000 
#    z 0.000000 0.000000 1.585300 
# 
# From -- ./inp_files/6348.got.cif
#   From: 2010.05.17/outbox.cif.g08.bks.cpg/sg131_4_cif.got.tgz:6348.got - 2010.05.20 12:21:01.
