data_PCOD9566994
_publ_section_title
;
Structure prediction by ZEFSAII (Michael W. Deem and Ramdas Pophale) SiO2 
 PCOD9566994
Probable space group: P 42/M C M
;
_chemical_formula_sum "Si O2"
_cell_formula_units_Z 96
_cell_length_a 19.598437
_cell_length_b 19.598437
_cell_length_c 17.896084
_cell_angle_alpha 90.000000
_cell_angle_beta 90.000000
_cell_angle_gamma 90.000000
_cell_volume 6873.863187
_symmetry_space_group_name_H-M "P 42/M C M"
_symmetry_group_IT_number 132
_symmetry_cell_setting 'tetragonal'
loop_
_space_group_symop_operation_xyz
x,y,z
-y,x,1/2+z
-x,-y,z
y,-x,1/2+z
x,-y,1/2-z
-x,y,1/2-z
y,x,-z
-y,-x,-z
-x,-y,-z
y,-x,1/2-z
x,y,-z
-y,x,1/2-z
-x,y,1/2+z
x,-y,1/2+z
-y,-x,z
y,x,z
loop_
_atom_site_type_symbol
_atom_site_label
_atom_site_fract_x
_atom_site_fract_y
_atom_site_fract_z
Si Si1 0.025241 0.862938 0.335538
Si Si2 0.926275 0.646840 0.658773
Si Si3 0.793817 0.900966 0.588555
Si Si4 0.909806 0.372243 0.669650
Si Si5 0.493488 0.082677 0.584431
Si Si6 0.129606 0.240234 0.912551
O O1 0.065606 0.934395 0.345663
O O2 0.078699 0.804622 0.361084
O O3 0.000000 0.857248 0.250000
O O4 0.959611 0.846288 0.385215
O O5 0.909733 0.721292 0.627807
O O6 0.898695 0.637996 0.742599
O O7 0.900586 0.583078 0.609883
O O8 0.008731 0.640136 0.659379
O O9 0.784600 0.906285 0.500000
O O10 0.829380 0.829380 0.607061
O O11 0.893351 0.448049 0.641125
O O12 0.872269 0.315941 0.619693
O O13 0.506920 0.105974 0.500000
O O14 0.500000 0.000000 0.584470
O O15 0.202090 0.202090 0.908952
O O16 0.107289 0.238599 0.000000
#
# Coordination Sequence:
#
# PCOD9566994 Si02
#       6
#    16  16  16  16  16  16
#     4  11  22  35  48  61  77 102 137 182 230 271
#     4  10  19  31  45  64  87 109 135 175 214 254
#     4  11  23  35  47  62  81 109 144 180 220 265
#     4  10  18  29  47  67  85 108 138 172 210 258
#     4   9  17  28  45  66  87 110 133 165 207 253
#     4  10  20  32  47  65  85 110 140 176 219 265
#
# _framework density 13.965945
#
# number of rings (size 3 to 8) (size 9 to 14) (size 15 to 20)
#    0.000    1.833    1.667    3.500    0.000    7.500 
#    0.000    0.833    0.000    0.000    0.000    0.000 
#    0.000    0.000    0.000    0.000    0.000    0.833 
#
# Total GULP energy -535361.681889 kJ/mol
# GULP energy per Si atom -5576.684186 kJ/mol
# Density = 1.393416 g / cm^3
# Si number density = 13.965945 Si / 1000 Ang^3
#
#
#
# Elastic Constant Matrix: (Units=GPa)
#
#
# Indices 1 2 3 4 5 6 
#
# 1 57.6326 31.7749 34.7026 0.0000 0.0000 0.0000
# 2 31.7749 57.6326 34.7026 0.0000 0.0000 0.0000
# 3 34.7026 34.7026 68.9874 0.0000 0.0000 0.0000
# 4 0.0000 0.0000 0.0000 -541.8290 0.0000 0.0000
# 5 0.0000 0.0000 0.0000 0.0000 -541.8290 0.0000
# 6 0.0000 0.0000 0.0000 0.0000 0.0000 9.8771
#
#
#
# Elastic Compliance Matrix: (Units=1/GPa)
#
#
# Indices 1 2 3 4 5 6 
#
# 1 0.028512 -0.010161 -0.009231 0.000000 0.000000 0.000000
# 2 -0.010161 0.028512 -0.009231 0.000000 0.000000 0.000000
# 3 -0.009231 -0.009231 0.023782 0.000000 0.000000 0.000000
# 4 0.000000 0.000000 0.000000 -0.001846 0.000000 0.000000
# 5 0.000000 0.000000 0.000000 0.000000 -0.001846 0.000000
# 6 0.000000 0.000000 0.000000 0.000000 0.000000 0.101245
#
#
# Mechanical properties :
#
#
# Convention : Reuss Voigt Hill
#
# Bulk Modulus (GPa) = 42.44517 42.95697 42.70107
# Shear Modulus (GPa) = 20.53743 -209.21801 -94.34029
#
# Velocity S-wave (km/s) = 3.83892 -12.25280 -8.22781
# Velocity P-wave (km/s) = 7.07867 13.01344 7.72146
#
# Compressibility (1/GPa) = 0.02355981
#
# Stress axis : x y z
#
# Youngs Moduli (GPa) = 35.07325 35.07325 42.04852
#
# Poissons Ratio (x) = 0.35639 0.38814
# Poissons Ratio (y) = 0.35639 0.38814
# Poissons Ratio (z) = 0.32375 0.32375
#
# Static dielectric constant tensor:
#      x y z
#    x 1.446380 0.000000 0.000000 
#    y 0.000000 1.446380 0.000000 
#    z 0.000000 0.000000 1.478440 
# 
# From -- ./inp_files/6451.got.cif
#   From: 2010.05.17/outbox.cif.g08.bks.cpg/sg132_4_cif.got.tgz:6451.got - 2010.05.20 12:30:18.
