data_PCOD9566266
_publ_section_title
;
Structure prediction by ZEFSAII (Michael W. Deem and Ramdas Pophale) SiO2 
 PCOD9566266
Probable space group: P 42/M M C
;
_chemical_formula_sum "Si O2"
_cell_formula_units_Z 96
_cell_length_a 14.217069
_cell_length_b 14.217069
_cell_length_c 28.721844
_cell_angle_alpha 90.000000
_cell_angle_beta 90.000000
_cell_angle_gamma 90.000000
_cell_volume 5805.404182
_symmetry_space_group_name_H-M "P 42/M M C"
_symmetry_group_IT_number 131
_symmetry_cell_setting 'tetragonal'
loop_
_space_group_symop_operation_xyz
x,y,z
-x,-y,z
-y,x,1/2+z
y,-x,1/2+z
-x,y,-z
x,-y,-z
y,x,1/2-z
-y,-x,1/2-z
-x,-y,-z
x,y,-z
y,-x,1/2-z
-y,x,1/2-z
x,-y,z
-x,y,z
-y,-x,1/2+z
y,x,1/2+z
loop_
_atom_site_type_symbol
_atom_site_label
_atom_site_fract_x
_atom_site_fract_y
_atom_site_fract_z
Si Si1 0.605446 0.113522 0.299078
Si Si2 0.249956 0.888537 0.775561
Si Si3 0.389642 0.787602 0.944021
Si Si4 0.888274 0.712240 0.894133
Si Si5 0.234044 0.109827 0.885689
Si Si6 0.727245 0.605795 0.055745
O O1 0.500000 0.150957 0.304966
O O2 0.655379 0.142023 0.251223
O O3 0.672585 0.135272 0.342581
O O4 0.598935 0.000000 0.298470
O O5 0.166654 0.833347 0.750000
O O6 0.253492 0.874368 0.830765
O O7 0.237273 0.000000 0.767654
O O8 0.500000 0.797089 0.933773
O O9 0.324268 0.860152 0.916127
O O10 0.350267 0.683859 0.930799
O O11 0.377159 0.798861 0.000000
O O12 0.849306 0.818041 0.898720
O O13 0.827515 0.646289 0.927954
O O14 0.000000 0.706679 0.901259
O O15 0.211505 0.000000 0.892494
O O16 0.711421 0.500000 0.073702
O O17 0.725904 0.601817 0.000000
#
# Coordination Sequence:
#
# PCOD9566266 Si02
#       6
#    16  16  16  16  16  16
#     4   9  17  29  46  68  93 124 161 200 246 301
#     4  10  19  32  49  72 101 132 167 209 258 308
#     4   9  19  36  56  78 105 137 173 216 268 320
#     4  10  19  32  49  70 100 136 172 207 248 304
#     4  10  21  34  51  75 103 135 175 221 261 305
#     4   9  18  32  51  77 105 131 165 211 259 307
#
# _framework density 16.536314999999998
#
# number of rings (size 3 to 8) (size 9 to 14) (size 15 to 20)
#    0.000    2.500    1.667    0.500    0.000    3.500 
#    0.000    6.667    0.000    0.000    0.000    4.667 
#    0.000    0.333    0.000    0.000    0.000    0.000 
#
# Total GULP energy -534691.864985 kJ/mol
# GULP energy per Si atom -5569.706927 kJ/mol
# Density = 1.649868 g / cm^3
# Si number density = 16.536315 Si / 1000 Ang^3
#
#
#
# Elastic Constant Matrix: (Units=GPa)
#
#
# Indices 1 2 3 4 5 6 
#
# 1 68.8296 17.7596 14.6482 0.0000 0.0000 0.0000
# 2 17.7596 68.8248 14.6480 0.0000 0.0000 0.0000
# 3 14.6482 14.6480 25.0240 0.0000 0.0000 0.0000
# 4 0.0000 0.0000 0.0000 21.1156 0.0000 0.0000
# 5 0.0000 0.0000 0.0000 0.0000 21.1161 0.0000
# 6 0.0000 0.0000 0.0000 0.0000 0.0000 9.3473
#
#
#
# Elastic Compliance Matrix: (Units=1/GPa)
#
#
# Indices 1 2 3 4 5 6 
#
# 1 0.016991 -0.002590 -0.008430 0.000000 0.000000 0.000000
# 2 -0.002590 0.016992 -0.008430 0.000000 0.000000 0.000000
# 3 -0.008430 -0.008430 0.049831 0.000000 0.000000 0.000000
# 4 0.000000 0.000000 0.000000 0.047358 0.000000 0.000000
# 5 0.000000 0.000000 0.000000 0.000000 0.047357 0.000000
# 6 0.000000 0.000000 0.000000 0.000000 0.000000 0.106983
#
#
# Mechanical properties :
#
#
# Convention : Reuss Voigt Hill
#
# Bulk Modulus (GPa) = 22.26501 28.53222 25.39862
# Shear Modulus (GPa) = 14.73255 18.02396 16.37826
#
# Velocity S-wave (km/s) = 2.98807 3.30504 3.15054
# Velocity P-wave (km/s) = 5.03967 5.64412 5.35044
#
# Compressibility (1/GPa) = 0.04491352
#
# Stress axis : x y z
#
# Youngs Moduli (GPa) = 58.85471 58.85032 20.06789
#
# Poissons Ratio (x) = 0.15244 0.16917
# Poissons Ratio (y) = 0.15245 0.16918
# Poissons Ratio (z) = 0.49613 0.49612
#
# Static dielectric constant tensor:
#      x y z
#    x 1.554380 0.000000 0.000000 
#    y 0.000000 1.554380 0.000000 
#    z 0.000000 0.000000 1.561640 
# 
# From -- ./inp_files/13739.got.cif
#   From: 2010.05.17/outbox.cif.g08.bks.cpg/sg131_7_cif.got.tgz:13739.got - 2010.05.20 12:21:01.
