data_PCOD9566222
_publ_section_title
;
Structure prediction by ZEFSAII (Michael W. Deem and Ramdas Pophale) SiO2 
 PCOD9566222
Probable space group: P 42/M M C
;
_chemical_formula_sum "Si O2"
_cell_formula_units_Z 80
_cell_length_a 23.497116
_cell_length_b 23.497116
_cell_length_c 8.507043
_cell_angle_alpha 90.000000
_cell_angle_beta 90.000000
_cell_angle_gamma 90.000000
_cell_volume 4696.861455
_symmetry_space_group_name_H-M "P 42/M M C"
_symmetry_group_IT_number 131
_symmetry_cell_setting 'tetragonal'
loop_
_space_group_symop_operation_xyz
x,y,z
-x,-y,z
-y,x,1/2+z
y,-x,1/2+z
-x,y,-z
x,-y,-z
y,x,1/2-z
-y,-x,1/2-z
-x,-y,-z
x,y,-z
y,-x,1/2-z
-y,x,1/2-z
x,-y,z
-x,y,z
-y,-x,1/2+z
y,x,1/2+z
loop_
_atom_site_type_symbol
_atom_site_label
_atom_site_fract_x
_atom_site_fract_y
_atom_site_fract_z
Si Si1 0.154407 0.624067 0.308932
Si Si2 0.154977 0.935019 0.311960
Si Si3 0.283550 0.626182 0.187223
Si Si4 0.065140 0.719331 0.310117
Si Si5 0.500000 0.850158 0.814966
Si Si6 0.500000 0.723733 0.688829
O O1 0.155557 0.623235 0.500000
O O2 0.219244 0.632732 0.252499
O O3 0.111349 0.673222 0.257234
O O4 0.132206 0.561895 0.252478
O O5 0.108432 0.891569 0.250000
O O6 0.155575 0.933691 0.500000
O O7 0.217824 0.920478 0.250183
O O8 0.142663 0.000000 0.260462
O O9 0.326681 0.673320 0.250000
O O10 0.303782 0.561223 0.224662
O O11 0.280553 0.631233 0.000000
O O12 0.065741 0.720031 0.500000
O O13 0.000000 0.706188 0.260407
O O14 0.500000 0.782415 0.785128
O O15 0.500000 0.863230 0.000000
O O16 0.500000 0.736158 0.500000
#
# Coordination Sequence:
#
# PCOD9566222 Si02
#       6
#    16  16  16  16   8   8
#     4   9  17  30  48  70  96 126 159 196 237 278
#     4  10  21  36  54  75  97 123 156 193 234 280
#     4  10  19  31  48  71  96 122 155 194 236 280
#     4   9  18  33  51  70  96 130 163 194 232 279
#     4   8  14  26  45  68  93 121 156 195 233 275
#     4   8  16  30  46  64  90 123 155 189 230 277
#
# _framework density 17.032651000000001
#
# number of rings (size 3 to 8) (size 9 to 14) (size 15 to 20)
#    0.000    2.800    0.000    1.200    0.000    3.800 
#    0.000    1.500    0.000    3.300    0.000    2.100 
#    0.000   11.200    0.000    0.000    0.000    0.000 
#
# Total GULP energy -445452.683475 kJ/mol
# GULP energy per Si atom -5568.158543 kJ/mol
# Density = 1.699388 g / cm^3
# Si number density = 17.032651 Si / 1000 Ang^3
#
#
#
# Elastic Constant Matrix: (Units=GPa)
#
#
# Indices 1 2 3 4 5 6 
#
# 1 134.0860 116.4405 25.2097 0.0000 0.0000 0.0000
# 2 116.4405 134.0798 25.2066 0.0000 0.0000 0.0000
# 3 25.2097 25.2066 15.6570 0.0000 0.0000 0.0000
# 4 0.0000 0.0000 0.0000 15.6367 0.0000 0.0000
# 5 0.0000 0.0000 0.0000 0.0000 15.6368 0.0000
# 6 0.0000 0.0000 0.0000 0.0000 0.0000 -9.5226
#
#
#
# Elastic Compliance Matrix: (Units=1/GPa)
#
#
# Indices 1 2 3 4 5 6 
#
# 1 0.031294 -0.025388 -0.009514 0.000000 0.000000 0.000000
# 2 -0.025388 0.031293 -0.009500 0.000000 0.000000 0.000000
# 3 -0.009514 -0.009500 0.094482 0.000000 0.000000 0.000000
# 4 0.000000 0.000000 0.000000 0.063952 0.000000 0.000000
# 5 0.000000 0.000000 0.000000 0.000000 0.063952 0.000000
# 6 0.000000 0.000000 0.000000 0.000000 0.000000 -0.105014
#
#
# Mechanical properties :
#
#
# Convention : Reuss Voigt Hill
#
# Bulk Modulus (GPa) = 14.64898 68.61514 41.63206
# Shear Modulus (GPa) = 17.15154 12.14790 14.64972
#
# Velocity S-wave (km/s) = 3.17674 2.67350 2.93592
# Velocity P-wave (km/s) = 4.69838 7.06414 5.99903
#
# Compressibility (1/GPa) = 0.06826415
#
# Stress axis : x y z
#
# Youngs Moduli (GPa) = 31.95508 31.95632 10.58398
#
# Poissons Ratio (x) = 0.81132 0.10069
# Poissons Ratio (y) = 0.81129 0.10055
# Poissons Ratio (z) = 0.30400 0.30360
#
# Static dielectric constant tensor:
#      x y z
#    x 1.576910 0.000000 0.000000 
#    y 0.000000 1.576910 0.000000 
#    z 0.000000 0.000000 1.583780 
# 
# From -- ./inp_files/2090.got.cif
#   From: 2010.05.17/outbox.cif.g08.bks.cpg/sg131_2_cif.got.tgz:2090.got - 2010.05.20 12:21:01.
