data_PCOD9566399
_publ_section_title
;
Structure prediction by ZEFSAII (Michael W. Deem and Ramdas Pophale) SiO2 
 PCOD9566399
Probable space group: P 42/M M C
;
_chemical_formula_sum "Si O2"
_cell_formula_units_Z 56
_cell_length_a 18.362836
_cell_length_b 18.362836
_cell_length_c 7.482036
_cell_angle_alpha 90.000000
_cell_angle_beta 90.000000
_cell_angle_gamma 90.000000
_cell_volume 2522.895746
_symmetry_space_group_name_H-M "P 42/M M C"
_symmetry_group_IT_number 131
_symmetry_cell_setting 'tetragonal'
loop_
_space_group_symop_operation_xyz
x,y,z
-x,-y,z
-y,x,1/2+z
y,-x,1/2+z
-x,y,-z
x,-y,-z
y,x,1/2-z
-y,-x,1/2-z
-x,-y,-z
x,y,-z
y,-x,1/2-z
-y,x,1/2-z
x,-y,z
-x,y,z
-y,-x,1/2+z
y,x,1/2+z
loop_
_atom_site_type_symbol
_atom_site_label
_atom_site_fract_x
_atom_site_fract_y
_atom_site_fract_z
Si Si1 0.849258 0.650906 0.799654
Si Si2 0.297462 0.415101 0.785619
Si Si3 0.500000 0.913676 0.213810
Si Si4 0.000000 0.117927 0.791558
Si Si5 0.278826 0.000000 0.279289
O O1 0.769084 0.636846 0.716875
O O2 0.878589 0.569161 0.803248
O O3 0.921366 0.689579 0.719415
O O4 0.839165 0.682033 0.000000
O O5 0.373189 0.373189 0.750000
O O6 0.295045 0.500000 0.722049
O O7 0.287658 0.418222 0.000000
O O8 0.500000 0.000000 0.239036
O O9 0.500000 0.899603 0.000000
O O10 0.069853 0.069853 0.750000
O O11 0.000000 0.196758 0.711532
O O12 0.000000 0.130659 0.000000
O O13 0.287204 0.000000 0.500000
#
# Coordination Sequence:
#
# PCOD9566399 Si02
#       5
#    16  16   8   8   8
#     4  10  19  36  59  81 109 149 189 224 270 338
#     4  10  22  39  59  84 110 144 192 239 290 350
#     4  11  21  31  49  83 118 145 178 223 273 326
#     4  10  20  37  57  81 107 145 192 232 274 324
#     4   9  19  33  58  88 112 145 190 229 268 328
#
# _framework density 22.196717
#
# number of rings (size 3 to 8) (size 9 to 14) (size 15 to 20)
#    0.000    2.000    2.857    1.286    0.000    3.714 
#    0.000    4.286    0.000    0.000    0.000    0.000 
#    0.000    0.000    0.000    0.000    0.000    0.000 
#
# Total GULP energy -311936.459015 kJ/mol
# GULP energy per Si atom -5570.293911 kJ/mol
# Density = 2.214620 g / cm^3
# Si number density = 22.196717 Si / 1000 Ang^3
#
#
#
# Elastic Constant Matrix: (Units=GPa)
#
#
# Indices 1 2 3 4 5 6 
#
# 1 149.3833 72.0003 -5.2738 0.0000 0.0000 0.0000
# 2 72.0003 149.3833 -5.2738 0.0000 0.0000 0.0000
# 3 -5.2738 -5.2738 69.0029 0.0000 0.0000 0.0000
# 4 0.0000 0.0000 0.0000 9.1330 0.0000 0.0000
# 5 0.0000 0.0000 0.0000 0.0000 9.1330 0.0000
# 6 0.0000 0.0000 0.0000 0.0000 0.0000 -22.9634
#
#
#
# Elastic Compliance Matrix: (Units=1/GPa)
#
#
# Indices 1 2 3 4 5 6 
#
# 1 0.008728 -0.004195 0.000346 0.000000 0.000000 0.000000
# 2 -0.004195 0.008728 0.000346 0.000000 0.000000 0.000000
# 3 0.000346 0.000346 0.014545 0.000000 0.000000 0.000000
# 4 0.000000 0.000000 0.000000 0.109494 0.000000 0.000000
# 5 0.000000 0.000000 0.000000 0.000000 0.109494 0.000000
# 6 0.000000 0.000000 0.000000 0.000000 0.000000 -0.043548
#
#
# Mechanical properties :
#
#
# Convention : Reuss Voigt Hill
#
# Bulk Modulus (GPa) = 40.00290 54.51943 47.26117
# Shear Modulus (GPa) = 22.44399 19.48162 20.96281
#
# Velocity S-wave (km/s) = 3.18329 2.96578 3.07646
# Velocity P-wave (km/s) = 5.61892 6.02852 5.82732
#
# Compressibility (1/GPa) = 0.02499819
#
# Stress axis : x y z
#
# Youngs Moduli (GPa) = 114.57185 114.57185 68.75166
#
# Poissons Ratio (x) = 0.48058 -0.02382
# Poissons Ratio (y) = 0.48058 -0.02382
# Poissons Ratio (z) = -0.03970 -0.03970
#
# Static dielectric constant tensor:
#      x y z
#    x 1.796160 0.000000 0.000000 
#    y 0.000000 1.796160 0.000000 
#    z 0.000000 0.000000 1.930710 
# 
# From -- ./inp_files/1273.got.cif
#   From: 2010.05.17/outbox.cif.g08.bks.cpg/sg131_1_cif.got.tgz:1273.got - 2010.05.20 12:21:01.
