data_PCOD9566907
_publ_section_title
;
Structure prediction by ZEFSAII (Michael W. Deem and Ramdas Pophale) SiO2 
 PCOD9566907
Probable space group: P 42/M M C
;
_chemical_formula_sum "Si O2"
_cell_formula_units_Z 120
_cell_length_a 27.000000
_cell_length_b 27.000000
_cell_length_c 9.000000
_cell_angle_alpha 90.000000
_cell_angle_beta 90.000000
_cell_angle_gamma 90.000000
_cell_volume 6561.000000
_symmetry_space_group_name_H-M "P 42/M M C"
_symmetry_group_IT_number 131
_symmetry_cell_setting 'tetragonal'
loop_
_space_group_symop_operation_xyz
x,y,z
-x,-y,z
-y,x,1/2+z
y,-x,1/2+z
-x,y,-z
x,-y,-z
y,x,1/2-z
-y,-x,1/2-z
-x,-y,-z
x,y,-z
y,-x,1/2-z
-y,x,1/2-z
x,-y,z
-x,y,z
-y,-x,1/2+z
y,x,1/2+z
loop_
_atom_site_type_symbol
_atom_site_label
_atom_site_fract_x
_atom_site_fract_y
_atom_site_fract_z
Si Si1 0.381173 0.804121 0.673999
Si Si2 0.792638 0.278425 0.672102
Si Si3 0.000000 0.556023 0.817570
Si Si4 0.941079 0.731629 0.829333
Si Si5 0.719938 0.442533 0.675427
Si Si6 0.122792 0.806442 0.330326
Si Si7 0.377665 0.558718 0.835899
Si Si8 0.375391 0.912695 0.678735
O O1 0.383889 0.792447 0.500000
O O2 0.325126 0.805927 0.729463
O O3 0.411303 0.765212 0.766983
O O4 0.399118 0.859575 0.700945
O O5 0.745285 0.254716 0.750000
O O6 0.784115 0.291741 0.500000
O O7 0.835290 0.236816 0.675773
O O8 0.953389 0.587244 0.765626
O O9 0.000000 0.500000 0.767307
O O10 0.000000 0.555398 0.000000
O O11 0.923573 0.780386 0.745843
O O12 0.919560 0.680436 0.762712
O O13 0.000000 0.726252 0.829516
O O14 0.923394 0.736202 0.000000
O O15 0.715364 0.440598 0.500000
O O16 0.726457 0.500000 0.719860
O O17 0.669922 0.422663 0.748485
O O18 0.146565 0.853436 0.250000
O O19 0.112679 0.818294 0.500000
O O20 0.426252 0.573749 0.750000
O O21 0.373983 0.500000 0.842669
O O22 0.378434 0.579702 0.000000
O O23 0.369922 0.919667 0.500000
#
# Coordination Sequence:
#
# PCOD9566907 Si02
#       8
#    16  16   8  16  16  16  16  16
#     4  11  21  33  53  77 104 135 174 223 269 319
#     4  10  20  33  49  72 102 135 172 211 259 313
#     4   9  16  28  46  70 101 135 173 221 278 331
#     4  10  18  31  53  77 108 147 188 228 275 330
#     4  10  22  40  58  75 100 135 173 215 264 318
#     4  10  20  33  51  75 107 143 181 223 270 323
#     4  10  21  38  61  88 116 144 175 212 256 311
#     4   9  17  29  46  72 103 136 174 223 275 327
#
# _framework density 18.289895000000001
#
# number of rings (size 3 to 8) (size 9 to 14) (size 15 to 20)
#    0.000    2.067    2.000    2.000    0.000    4.133 
#    0.000    4.667    0.000    0.000    0.000    0.000 
#    0.000    4.000    0.000    2.800    0.000    1.200 
#
# Total GULP energy -668519.290794 kJ/mol
# GULP energy per Si atom -5570.994090 kJ/mol
# Density = 1.824827 g / cm^3
# Si number density = 18.289895 Si / 1000 Ang^3
#
#
#
# Elastic Constant Matrix: (Units=GPa)
#
#
# Indices 1 2 3 4 5 6 
#
# 1 22.0803 27.2306 16.1545 0.0000 0.0000 0.0000
# 2 27.2306 22.0955 16.1494 0.0000 0.0000 0.0000
# 3 16.1545 16.1494 18.9669 0.0000 0.0000 0.0000
# 4 0.0000 0.0000 0.0000 -28.3478 0.0000 0.0000
# 5 0.0000 0.0000 0.0000 0.0000 -28.3794 0.0000
# 6 0.0000 0.0000 0.0000 0.0000 0.0000 3.4431
#
#
#
# Elastic Compliance Matrix: (Units=1/GPa)
#
#
# Indices 1 2 3 4 5 6 
#
# 1 -0.074404 0.120151 -0.038931 0.000000 0.000000 0.000000
# 2 0.120151 -0.074191 -0.039164 0.000000 0.000000 0.000000
# 3 -0.038931 -0.039164 0.119229 0.000000 0.000000 0.000000
# 4 0.000000 0.000000 0.000000 -0.035276 0.000000 0.000000
# 5 0.000000 0.000000 0.000000 0.000000 -0.035237 0.000000
# 6 0.000000 0.000000 0.000000 0.000000 0.000000 0.290436
#
#
# Mechanical properties :
#
#
# Convention : Reuss Voigt Hill
#
# Bulk Modulus (GPa) = 18.26706 20.24576 19.25641
# Shear Modulus (GPa) = 40.09826 -10.41628 14.84099
#
# Velocity S-wave (km/s) = 4.68736 -2.38903 2.85165
# Velocity P-wave (km/s) = 6.26931 1.86640 4.62535
#
# Compressibility (1/GPa) = 0.05474334
#
# Stress axis : x y z
#
# Youngs Moduli (GPa) = -13.44012 -13.47865 8.38725
#
# Poissons Ratio (x) = 1.61947 0.32653
# Poissons Ratio (y) = 1.61484 0.32848
# Poissons Ratio (z) = -0.52324 -0.52788
#
# Static dielectric constant tensor:
#      x y z
#    x 1.636620 0.000000 0.000000 
#    y 0.000000 1.636620 0.000000 
#    z 0.000000 0.000000 1.632240 
# 
# From -- ./inp_files/2619.got.cif
#   From: 2010.05.17/outbox.ucp.g08.bks.cvg/sg131_2_cif.got.tgz:2619.got - 2010.06.11 11:38:44.
