data_PCOD9566915
_publ_section_title
;
Structure prediction by ZEFSAII (Michael W. Deem and Ramdas Pophale) SiO2 
 PCOD9566915
Probable space group: P 42/M M C
;
_chemical_formula_sum "Si O2"
_cell_formula_units_Z 120
_cell_length_a 21.000000
_cell_length_b 21.000000
_cell_length_c 15.000000
_cell_angle_alpha 90.000000
_cell_angle_beta 90.000000
_cell_angle_gamma 90.000000
_cell_volume 6615.000000
_symmetry_space_group_name_H-M "P 42/M M C"
_symmetry_group_IT_number 131
_symmetry_cell_setting 'tetragonal'
loop_
_space_group_symop_operation_xyz
x,y,z
-x,-y,z
-y,x,1/2+z
y,-x,1/2+z
-x,y,-z
x,-y,-z
y,x,1/2-z
-y,-x,1/2-z
-x,-y,-z
x,y,-z
y,-x,1/2-z
-y,x,1/2-z
x,-y,z
-x,y,z
-y,-x,1/2+z
y,x,1/2+z
loop_
_atom_site_type_symbol
_atom_site_label
_atom_site_fract_x
_atom_site_fract_y
_atom_site_fract_z
Si Si1 0.375013 0.233056 0.600357
Si Si2 0.130019 0.741984 0.598375
Si Si3 0.642404 0.068721 0.221731
Si Si4 0.429259 0.199879 0.782184
Si Si5 0.926091 0.000000 0.607357
Si Si6 0.102862 0.297063 0.901597
Si Si7 0.737735 0.677624 0.605442
Si Si8 0.123838 0.848299 0.849291
O O1 0.400688 0.240384 0.500000
O O2 0.423765 0.217451 0.677988
O O3 0.325410 0.174169 0.598183
O O4 0.330297 0.292170 0.625442
O O5 0.118735 0.715043 0.500000
O O6 0.084934 0.706146 0.666662
O O7 0.203653 0.726539 0.622792
O O8 0.123232 0.817285 0.596542
O O9 0.595908 0.127855 0.206789
O O10 0.664350 0.069008 0.324092
O O11 0.616336 0.000000 0.196658
O O12 0.500000 0.205686 0.815302
O O13 0.382572 0.245308 0.836149
O O14 0.891442 0.062165 0.643716
O O15 0.920049 0.000000 0.500000
O O16 0.000000 0.000000 0.630893
O O17 0.106393 0.222458 0.880347
O O18 0.075937 0.306287 0.000000
O O19 0.739223 0.664106 0.500000
O O20 0.151197 0.848804 0.750000
#
# Coordination Sequence:
#
# PCOD9566915 Si02
#       8
#    16  16  16  16   8  16  16  16
#     4   9  17  31  55  82 107 135 169 215 264 310
#     4  10  19  34  55  79 102 124 160 219 281 324
#     4  10  22  36  51  75 101 136 185 226 260 308
#     4  10  21  34  51  76 112 151 179 213 261 317
#     4  11  28  46  54  64  90 134 175 207 260 343
#     4  10  19  33  54  80 103 122 157 215 279 325
#     4   9  17  31  55  82 107 134 171 220 269 311
#     4  12  23  35  58  77  98 128 162 212 275 337
#
# _framework density 18.14059
#
# number of rings (size 3 to 8) (size 9 to 14) (size 15 to 20)
#    0.000    1.933    2.667    1.600    1.867    1.867 
#    0.000    0.000    0.000    0.000    0.000    7.467 
#    0.000    4.267    0.000   11.733    0.000    0.000 
#
# Total GULP energy -669141.802273 kJ/mol
# GULP energy per Si atom -5576.181686 kJ/mol
# Density = 1.809930 g / cm^3
# Si number density = 18.140590 Si / 1000 Ang^3
#
#
#
# Elastic Constant Matrix: (Units=GPa)
#
#
# Indices 1 2 3 4 5 6 
#
# 1 66.0665 6.3095 13.1735 0.0000 0.0000 0.0000
# 2 6.3095 66.0665 13.1734 0.0000 0.0000 0.0000
# 3 13.1735 13.1734 22.1057 0.0000 0.0000 0.0000
# 4 0.0000 0.0000 0.0000 -0.9265 0.0000 0.0000
# 5 0.0000 0.0000 0.0000 0.0000 -0.9268 0.0000
# 6 0.0000 0.0000 0.0000 0.0000 0.0000 305.8389
#
#
#
# Elastic Compliance Matrix: (Units=1/GPa)
#
#
# Indices 1 2 3 4 5 6 
#
# 1 0.017189 0.000455 -0.010515 0.000000 0.000000 0.000000
# 2 0.000455 0.017189 -0.010515 0.000000 0.000000 0.000000
# 3 -0.010515 -0.010515 0.057769 0.000000 0.000000 0.000000
# 4 0.000000 0.000000 0.000000 -1.079304 0.000000 0.000000
# 5 0.000000 0.000000 0.000000 0.000000 -1.078927 0.000000
# 6 0.000000 0.000000 0.000000 0.000000 0.000000 0.003270
#
#
# Mechanical properties :
#
#
# Convention : Reuss Voigt Hill
#
# Bulk Modulus (GPa) = 19.60830 24.39465 22.00147
# Shear Modulus (GPa) = -2.49418 68.90259 33.20420
#
# Velocity S-wave (km/s) = -1.17384 6.16968 4.28294
# Velocity P-wave (km/s) = 2.99922 8.01437 6.05084
#
# Compressibility (1/GPa) = 0.05099882
#
# Stress axis : x y z
#
# Youngs Moduli (GPa) = 58.17521 58.17534 17.31021
#
# Poissons Ratio (x) = -0.02647 0.18202
# Poissons Ratio (y) = -0.02647 0.18201
# Poissons Ratio (z) = 0.61171 0.61170
#
# Static dielectric constant tensor:
#      x y z
#    x 1.593070 0.000000 0.000000 
#    y 0.000000 1.593070 0.000000 
#    z 0.000000 0.000000 1.670710 
# 
# From -- ./inp_files/6323.got.cif
#   From: 2010.05.17/outbox.ucp.g08.bks.cvg/sg131_4_cif.got.tgz:6323.got - 2010.06.11 11:38:44.
