data_PCOD9566543
_publ_section_title
;
Structure prediction by ZEFSAII (Michael W. Deem and Ramdas Pophale) SiO2 
 PCOD9566543
Probable space group: P 42/M M C
;
_chemical_formula_sum "Si O2"
_cell_formula_units_Z 88
_cell_length_a 17.636464
_cell_length_b 17.636464
_cell_length_c 15.476628
_cell_angle_alpha 90.000000
_cell_angle_beta 90.000000
_cell_angle_gamma 90.000000
_cell_volume 4813.925627
_symmetry_space_group_name_H-M "P 42/M M C"
_symmetry_group_IT_number 131
_symmetry_cell_setting 'tetragonal'
loop_
_space_group_symop_operation_xyz
x,y,z
-x,-y,z
-y,x,1/2+z
y,-x,1/2+z
-x,y,-z
x,-y,-z
y,x,1/2-z
-y,-x,1/2-z
-x,-y,-z
x,y,-z
y,-x,1/2-z
-y,x,1/2-z
x,-y,z
-x,y,z
-y,-x,1/2+z
y,x,1/2+z
loop_
_atom_site_type_symbol
_atom_site_label
_atom_site_fract_x
_atom_site_fract_y
_atom_site_fract_z
Si Si1 0.750913 0.820358 0.099023
Si Si2 0.851540 0.916900 0.666628
Si Si3 0.685583 0.916423 0.247858
Si Si4 0.302388 0.648945 0.901430
Si Si5 0.141087 0.586546 0.095281
Si Si6 0.408987 0.591014 0.750000
O O1 0.837854 0.849142 0.113575
O O2 0.696836 0.860837 0.167792
O O3 0.738386 0.730504 0.114693
O O4 0.730609 0.835714 0.000000
O O5 0.905157 0.905157 0.750000
O O6 0.767371 0.919026 0.706307
O O7 0.866494 0.000000 0.625610
O O8 0.629004 0.892192 0.322944
O O9 0.666042 0.000000 0.215836
O O10 0.232083 0.591178 0.897378
O O11 0.365969 0.626748 0.832739
O O12 0.331854 0.649977 0.000000
O O13 0.115880 0.500000 0.095554
O O14 0.121719 0.620371 0.000000
O O15 0.500000 0.603584 0.753027
#
# Coordination Sequence:
#
# PCOD9566543 Si02
#       6
#    16  16  16  16  16   8
#     4  10  20  35  57  82 108 146 197 238 270 322
#     4   9  18  32  52  80 112 148 189 231 280 333
#     4  10  20  34  53  77 111 150 183 223 275 326
#     4  10  20  36  58  82 110 145 184 230 276 323
#     4  10  20  34  56  86 113 140 177 221 277 341
#     4  11  24  38  56  84 114 148 187 226 276 338
#
# _framework density 18.2803
#
# number of rings (size 3 to 8) (size 9 to 14) (size 15 to 20)
#    0.000    2.091    1.818    1.636    1.273    3.091 
#    0.000    3.636    0.000    1.636    0.000    6.364 
#    0.000    0.000    0.000    0.000    0.000    0.000 
#
# Total GULP energy -490330.952863 kJ/mol
# GULP energy per Si atom -5571.942646 kJ/mol
# Density = 1.823869 g / cm^3
# Si number density = 18.280300 Si / 1000 Ang^3
#
#
#
# Elastic Constant Matrix: (Units=GPa)
#
#
# Indices 1 2 3 4 5 6 
#
# 1 63.2717 20.5588 31.6117 0.0000 0.0000 0.0000
# 2 20.5588 63.2701 31.6106 0.0000 0.0000 0.0000
# 3 31.6117 31.6106 67.6459 0.0000 0.0000 0.0000
# 4 0.0000 0.0000 0.0000 7.2847 0.0000 0.0000
# 5 0.0000 0.0000 0.0000 0.0000 7.2843 0.0000
# 6 0.0000 0.0000 0.0000 0.0000 0.0000 -12.0065
#
#
#
# Elastic Compliance Matrix: (Units=1/GPa)
#
#
# Indices 1 2 3 4 5 6 
#
# 1 0.020917 -0.002496 -0.008608 0.000000 0.000000 0.000000
# 2 -0.002496 0.020917 -0.008608 0.000000 0.000000 0.000000
# 3 -0.008608 -0.008608 0.022828 0.000000 0.000000 0.000000
# 4 0.000000 0.000000 0.000000 0.137273 0.000000 0.000000
# 5 0.000000 0.000000 0.000000 0.000000 0.137281 0.000000
# 6 0.000000 0.000000 0.000000 0.000000 0.000000 -0.083288
#
#
# Mechanical properties :
#
#
# Convention : Reuss Voigt Hill
#
# Bulk Modulus (GPa) = 39.62374 40.19443 39.90909
# Shear Modulus (GPa) = 16.46008 7.87295 12.16652
#
# Velocity S-wave (km/s) = 3.00397 2.07753 2.58263
# Velocity P-wave (km/s) = 5.80986 5.27166 5.54729
#
# Compressibility (1/GPa) = 0.02523739
#
# Stress axis : x y z
#
# Youngs Moduli (GPa) = 47.80876 47.80818 43.80557
#
# Poissons Ratio (x) = 0.11932 0.37709
# Poissons Ratio (y) = 0.11932 0.37708
# Poissons Ratio (z) = 0.41155 0.41154
#
# Static dielectric constant tensor:
#      x y z
#    x 1.653120 0.000000 0.000000 
#    y 0.000000 1.653130 0.000000 
#    z 0.000000 0.000000 1.631290 
# 
# From -- ./inp_files/5827.got.cif
#   From: 2010.05.17/outbox.cif.g08.bks.cpg/sg131_3_cif.got.tgz:5827.got - 2010.05.20 12:21:01.
