data_PCOD9566533
_publ_section_title
;
Structure prediction by ZEFSAII (Michael W. Deem and Ramdas Pophale) SiO2 
 PCOD9566533
Probable space group: P 42/M M C
;
_chemical_formula_sum "Si O2"
_cell_formula_units_Z 88
_cell_length_a 12.634917
_cell_length_b 12.634917
_cell_length_c 31.268454
_cell_angle_alpha 90.000000
_cell_angle_beta 90.000000
_cell_angle_gamma 90.000000
_cell_volume 4991.731255
_symmetry_space_group_name_H-M "P 42/M M C"
_symmetry_group_IT_number 131
_symmetry_cell_setting 'tetragonal'
loop_
_space_group_symop_operation_xyz
x,y,z
-x,-y,z
-y,x,1/2+z
y,-x,1/2+z
-x,y,-z
x,-y,-z
y,x,1/2-z
-y,-x,1/2-z
-x,-y,-z
x,y,-z
y,-x,1/2-z
-y,x,1/2-z
x,-y,z
-x,y,z
-y,-x,1/2+z
y,x,1/2+z
loop_
_atom_site_type_symbol
_atom_site_label
_atom_site_fract_x
_atom_site_fract_y
_atom_site_fract_z
Si Si1 0.378648 0.378648 0.250000
Si Si2 0.875570 0.124431 0.250000
Si Si3 0.624436 0.874165 0.900762
Si Si4 0.120641 0.626234 0.874642
Si Si5 0.617973 0.500000 0.051659
Si Si6 0.243659 0.704976 0.050559
Si Si7 0.767947 0.274819 0.681489
O O1 0.365465 0.500000 0.235510
O O2 0.352884 0.296259 0.212452
O O3 0.840667 0.198674 0.289457
O O4 0.000000 0.140334 0.240468
O O5 0.500000 0.849642 0.906758
O O6 0.695902 0.810255 0.934593
O O7 0.663295 0.834022 0.854375
O O8 0.638285 0.000000 0.904412
O O9 0.137710 0.500000 0.877561
O O10 0.141765 0.681187 0.920522
O O11 0.201437 0.682201 0.842561
O O12 0.000000 0.643569 0.860878
O O13 0.500000 0.500000 0.069656
O O14 0.679707 0.393521 0.062757
O O15 0.611620 0.500000 0.000000
O O16 0.224211 0.703474 0.000000
#
# Coordination Sequence:
#
# PCOD9566533 Si02
#       7
#     8   8  16  16   8  16  16
#     4  10  20  34  54  80 110 142 174 212 260 320
#     4  10  20  34  54  78 102 132 174 220 262 306
#     4  10  21  36  54  77 106 141 179 218 262 316
#     4  10  20  34  53  77 106 139 176 219 266 318
#     4   9  16  28  47  71  99 129 162 204 255 309
#     4  10  20  34  52  76 105 136 174 219 264 315
#     4  10  20  35  54  77 106 139 175 216 263 314
#
# _framework density 17.629155000000001
#
# number of rings (size 3 to 8) (size 9 to 14) (size 15 to 20)
#    0.000    2.091    0.909    2.727    0.000    1.818 
#    0.000    1.818    0.000   13.636    0.000    5.091 
#    0.000    0.000    0.000    0.000    0.000    0.000 
#
# Total GULP energy -490949.781210 kJ/mol
# GULP energy per Si atom -5578.974786 kJ/mol
# Density = 1.758903 g / cm^3
# Si number density = 17.629155 Si / 1000 Ang^3
#
#
#
# Elastic Constant Matrix: (Units=GPa)
#
#
# Indices 1 2 3 4 5 6 
#
# 1 59.4205 18.0313 -9.7706 0.0000 0.0000 0.0000
# 2 18.0313 59.4208 -9.7701 0.0000 0.0000 0.0000
# 3 -9.7706 -9.7701 31.2611 0.0000 0.0000 0.0000
# 4 0.0000 0.0000 0.0000 17.6165 0.0000 0.0000
# 5 0.0000 0.0000 0.0000 0.0000 17.6162 0.0000
# 6 0.0000 0.0000 0.0000 0.0000 0.0000 29.6653
#
#
#
# Elastic Compliance Matrix: (Units=1/GPa)
#
#
# Indices 1 2 3 4 5 6 
#
# 1 0.019089 -0.005072 0.004381 0.000000 0.000000 0.000000
# 2 -0.005072 0.019089 0.004381 0.000000 0.000000 0.000000
# 3 0.004381 0.004381 0.034727 0.000000 0.000000 0.000000
# 4 0.000000 0.000000 0.000000 0.056765 0.000000 0.000000
# 5 0.000000 0.000000 0.000000 0.000000 0.056766 0.000000
# 6 0.000000 0.000000 0.000000 0.000000 0.000000 0.033709
#
#
# Mechanical properties :
#
#
# Convention : Reuss Voigt Hill
#
# Bulk Modulus (GPa) = 12.45599 16.34263 14.39931
# Shear Modulus (GPa) = 20.87447 23.08704 21.98076
#
# Velocity S-wave (km/s) = 3.44479 3.62276 3.53489
# Velocity P-wave (km/s) = 4.78571 5.17586 4.98460
#
# Compressibility (1/GPa) = 0.08028266
#
# Stress axis : x y z
#
# Youngs Moduli (GPa) = 52.38694 52.38751 28.79610
#
# Poissons Ratio (x) = 0.26572 -0.12615
# Poissons Ratio (y) = 0.26572 -0.12614
# Poissons Ratio (z) = -0.22950 -0.22948
#
# Static dielectric constant tensor:
#      x y z
#    x 1.582980 0.000000 0.000000 
#    y 0.000000 1.582980 0.000000 
#    z 0.000000 0.000000 1.593150 
# 
# From -- ./inp_files/13609.got.cif
#   From: 2010.05.17/outbox.cif.g08.bks.cpg/sg131_7_cif.got.tgz:13609.got - 2010.05.20 12:21:01.
