data_PCOD9566972
_publ_section_title
;
Structure prediction by ZEFSAII (Michael W. Deem and Ramdas Pophale) SiO2 
 PCOD9566972
Probable space group: P 42/M C M
;
_chemical_formula_sum "Si O2"
_cell_formula_units_Z 112
_cell_length_a 20.846634
_cell_length_b 20.846634
_cell_length_c 18.264736
_cell_angle_alpha 90.000000
_cell_angle_beta 90.000000
_cell_angle_gamma 90.000000
_cell_volume 7937.528224
_symmetry_space_group_name_H-M "P 42/M C M"
_symmetry_group_IT_number 132
_symmetry_cell_setting 'tetragonal'
loop_
_space_group_symop_operation_xyz
x,y,z
-y,x,1/2+z
-x,-y,z
y,-x,1/2+z
x,-y,1/2-z
-x,y,1/2-z
y,x,-z
-y,-x,-z
-x,-y,-z
y,-x,1/2-z
x,y,-z
-y,x,1/2-z
-x,y,1/2+z
x,-y,1/2+z
-y,-x,z
y,x,z
loop_
_atom_site_type_symbol
_atom_site_label
_atom_site_fract_x
_atom_site_fract_y
_atom_site_fract_z
Si Si1 0.962679 0.359490 0.412659
Si Si2 0.034492 0.131393 0.823093
Si Si3 0.931158 0.733729 0.791567
Si Si4 0.921570 0.184765 0.081283
Si Si5 0.885490 0.611113 0.586516
Si Si6 0.076332 0.486700 0.165739
Si Si7 0.721866 0.169971 0.173627
O O1 0.952335 0.362260 0.500000
O O2 0.939732 0.295818 0.371604
O O3 0.924194 0.416041 0.369896
O O4 0.040078 0.365842 0.400407
O O5 0.075855 0.075855 0.858236
O O6 0.077645 0.189971 0.794655
O O7 0.000000 0.106492 0.750000
O O8 0.984572 0.164181 0.876684
O O9 0.869348 0.708207 0.748291
O O10 0.000000 0.721405 0.750000
O O11 0.878628 0.121373 0.075562
O O12 0.879209 0.233736 0.127390
O O13 0.934174 0.210719 0.000000
O O14 0.874447 0.613890 0.500000
O O15 0.887363 0.538504 0.616069
O O16 0.833904 0.655384 0.628565
O O17 0.096187 0.500000 0.250000
O O18 0.000000 0.500000 0.164073
O O19 0.764050 0.235951 0.180218
#
# Coordination Sequence:
#
# PCOD9566972 Si02
#       7
#    16  16  16  16  16  16  16
#     4  10  19  30  46  66  88 112 136 168 216 269
#     4  11  21  33  46  59  74  97 131 173 223 276
#     4  11  19  31  47  62  78 102 138 172 215 264
#     4  10  20  32  44  58  74  93 122 165 217 272
#     4  10  18  28  42  64  89 110 135 171 213 264
#     4   9  17  27  44  65  90 114 137 162 199 257
#     4  11  20  32  47  62  80 107 141 178 218 268
#
# _framework density 14.110186000000001
#
# number of rings (size 3 to 8) (size 9 to 14) (size 15 to 20)
#    0.000    1.714    4.286    2.571    2.000    5.571 
#    0.000    0.714    0.000    1.286    0.000    0.000 
#    0.000    0.000    0.000    0.000    0.000    0.000 
#
# Total GULP energy -623758.315698 kJ/mol
# GULP energy per Si atom -5569.270676 kJ/mol
# Density = 1.407807 g / cm^3
# Si number density = 14.110186 Si / 1000 Ang^3
#
#
#
# Elastic Constant Matrix: (Units=GPa)
#
#
# Indices 1 2 3 4 5 6 
#
# 1 29.8825 27.4422 8.4363 0.0000 0.0000 0.0000
# 2 27.4422 29.8825 8.4363 0.0000 0.0000 0.0000
# 3 8.4363 8.4363 51.9355 0.0000 0.0000 0.0000
# 4 0.0000 0.0000 0.0000 10.6389 0.0000 0.0000
# 5 0.0000 0.0000 0.0000 0.0000 10.6389 0.0000
# 6 0.0000 0.0000 0.0000 0.0000 0.0000 11.6554
#
#
#
# Elastic Compliance Matrix: (Units=1/GPa)
#
#
# Indices 1 2 3 4 5 6 
#
# 1 0.214052 -0.195732 -0.002976 0.000000 0.000000 0.000000
# 2 -0.195732 0.214052 -0.002976 0.000000 0.000000 0.000000
# 3 -0.002976 -0.002976 0.020221 0.000000 0.000000 0.000000
# 4 0.000000 0.000000 0.000000 0.093994 0.000000 0.000000
# 5 0.000000 0.000000 0.000000 0.000000 0.093994 0.000000
# 6 0.000000 0.000000 0.000000 0.000000 0.000000 0.085797
#
#
# Mechanical properties :
#
#
# Convention : Reuss Voigt Hill
#
# Bulk Modulus (GPa) = 22.24272 22.25891 22.25082
# Shear Modulus (GPa) = 4.38418 11.07905 7.73161
#
# Velocity S-wave (km/s) = 1.76461 2.80515 2.34336
# Velocity P-wave (km/s) = 4.46650 5.12846 4.80888
#
# Compressibility (1/GPa) = 0.04495852
#
# Stress axis : x y z
#
# Youngs Moduli (GPa) = 4.67176 4.67176 49.45247
#
# Poissons Ratio (x) = 0.91441 0.14717
# Poissons Ratio (y) = 0.91441 0.14717
# Poissons Ratio (z) = 0.01390 0.01390
#
# Static dielectric constant tensor:
#      x y z
#    x 1.487300 0.000000 0.000000 
#    y 0.000000 1.487300 0.000000 
#    z 0.000000 0.000000 1.517780 
# 
# From -- ./inp_files/6777.got.cif
#   From: 2010.05.17/outbox.cif.g08.bks.cpg/sg132_4_cif.got.tgz:6777.got - 2010.05.20 12:30:18.
