data_PCOD9566199
_publ_section_title
;
Structure prediction by ZEFSAII (Michael W. Deem and Ramdas Pophale) SiO2 
 PCOD9566199
Probable space group: P 42/M M C
;
_chemical_formula_sum "Si O2"
_cell_formula_units_Z 112
_cell_length_a 15.151239
_cell_length_b 15.151239
_cell_length_c 30.950642
_cell_angle_alpha 90.000000
_cell_angle_beta 90.000000
_cell_angle_gamma 90.000000
_cell_volume 7105.030716
_symmetry_space_group_name_H-M "P 42/M M C"
_symmetry_group_IT_number 131
_symmetry_cell_setting 'tetragonal'
loop_
_space_group_symop_operation_xyz
x,y,z
-x,-y,z
-y,x,1/2+z
y,-x,1/2+z
-x,y,-z
x,-y,-z
y,x,1/2-z
-y,-x,1/2-z
-x,-y,-z
x,y,-z
y,-x,1/2-z
-y,x,1/2-z
x,-y,z
-x,y,z
-y,-x,1/2+z
y,x,1/2+z
loop_
_atom_site_type_symbol
_atom_site_label
_atom_site_fract_x
_atom_site_fract_y
_atom_site_fract_z
Si Si1 0.599285 0.895821 0.911083
Si Si2 0.215934 0.643877 0.326705
Si Si3 0.598369 0.103769 0.743036
Si Si4 0.781047 0.106465 0.047285
Si Si5 0.898015 0.099343 0.373478
Si Si6 0.400720 0.394911 0.297721
Si Si7 0.215675 0.156372 0.296098
O O1 0.500000 0.881647 0.927570
O O2 0.615124 0.837544 0.868640
O O3 0.677951 0.875927 0.944097
O O4 0.607257 0.000000 0.899613
O O5 0.166542 0.602643 0.285050
O O6 0.319721 0.621719 0.329310
O O7 0.213802 0.747441 0.317559
O O8 0.500000 0.115477 0.723333
O O9 0.683708 0.127019 0.713871
O O10 0.606338 0.000000 0.755387
O O11 0.836405 0.136601 0.088857
O O12 0.792109 0.000000 0.046690
O O13 0.808181 0.140046 0.000000
O O14 0.839095 0.100700 0.330577
O O15 0.000000 0.124812 0.362780
O O16 0.899661 0.000000 0.390937
O O17 0.366837 0.366837 0.250000
O O18 0.409418 0.500000 0.294044
O O19 0.500000 0.359516 0.306444
O O20 0.166506 0.166506 0.250000
#
# Coordination Sequence:
#
# PCOD9566199 Si02
#       7
#    16  16  16  16  16  16  16
#     4  10  19  30  47  71  99 129 158 191 233 283
#     4  11  19  29  46  66  92 128 165 198 236 282
#     4  10  20  32  46  66  94 128 166 204 239 281
#     4   9  18  33  51  71  96 124 157 198 242 290
#     4  10  20  34  51  70  95 126 161 202 242 283
#     4   9  17  28  41  59  86 120 159 201 237 270
#     4  10  21  32  46  68  96 130 164 201 237 279
#
# _framework density 15.763479
#
# number of rings (size 3 to 8) (size 9 to 14) (size 15 to 20)
#    0.000    2.143    1.429    3.857    0.000    6.286 
#    0.000    3.571    0.000    0.000    0.000    0.000 
#    0.000    2.286    0.000    6.000    0.000    0.286 
#
# Total GULP energy -623735.126751 kJ/mol
# GULP energy per Si atom -5569.063632 kJ/mol
# Density = 1.572760 g / cm^3
# Si number density = 15.763479 Si / 1000 Ang^3
#
#
#
# Elastic Constant Matrix: (Units=GPa)
#
#
# Indices 1 2 3 4 5 6 
#
# 1 71.9864 18.0585 24.1458 0.0000 0.0000 0.0000
# 2 18.0585 71.9864 24.1458 0.0000 0.0000 0.0000
# 3 24.1458 24.1458 69.7615 0.0000 0.0000 0.0000
# 4 0.0000 0.0000 0.0000 69.6108 0.0000 0.0000
# 5 0.0000 0.0000 0.0000 0.0000 69.6108 0.0000
# 6 0.0000 0.0000 0.0000 0.0000 0.0000 21.0962
#
#
#
# Elastic Compliance Matrix: (Units=1/GPa)
#
#
# Indices 1 2 3 4 5 6 
#
# 1 0.016090 -0.002453 -0.004720 0.000000 0.000000 0.000000
# 2 -0.002453 0.016090 -0.004720 0.000000 0.000000 0.000000
# 3 -0.004720 -0.004720 0.017602 0.000000 0.000000 0.000000
# 4 0.000000 0.000000 0.000000 0.014366 0.000000 0.000000
# 5 0.000000 0.000000 0.000000 0.000000 0.014366 0.000000
# 6 0.000000 0.000000 0.000000 0.000000 0.000000 0.047402
#
#
# Mechanical properties :
#
#
# Convention : Reuss Voigt Hill
#
# Bulk Modulus (GPa) = 38.46776 38.49269 38.48023
# Shear Modulus (GPa) = 31.57225 41.88916 36.73071
#
# Velocity S-wave (km/s) = 4.48020 5.16055 4.83236
# Velocity P-wave (km/s) = 7.15675 7.74469 7.45652
#
# Compressibility (1/GPa) = 0.02599579
#
# Stress axis : x y z
#
# Youngs Moduli (GPa) = 62.14997 62.14997 56.81197
#
# Poissons Ratio (x) = 0.15246 0.26815
# Poissons Ratio (y) = 0.15246 0.26815
# Poissons Ratio (z) = 0.29335 0.29335
#
# Static dielectric constant tensor:
#      x y z
#    x 1.569310 0.000000 0.000000 
#    y 0.000000 1.569310 0.000000 
#    z 0.000000 0.000000 1.516560 
# 
# From -- ./inp_files/13873.got.cif
#   From: 2010.05.17/outbox.cif.g08.bks.cpg/sg131_7_cif.got.tgz:13873.got - 2010.05.20 12:21:01.
