data_PCOD9566761
_publ_section_title
;
Structure prediction by ZEFSAII (Michael W. Deem and Ramdas Pophale) SiO2 
 PCOD9566761
Probable space group: P 42/M M C
;
_chemical_formula_sum "Si O2"
_cell_formula_units_Z 96
_cell_length_a 15.097734
_cell_length_b 15.097734
_cell_length_c 20.309862
_cell_angle_alpha 90.000000
_cell_angle_beta 90.000000
_cell_angle_gamma 90.000000
_cell_volume 4629.461870
_symmetry_space_group_name_H-M "P 42/M M C"
_symmetry_group_IT_number 131
_symmetry_cell_setting 'tetragonal'
loop_
_space_group_symop_operation_xyz
x,y,z
-x,-y,z
-y,x,1/2+z
y,-x,1/2+z
-x,y,-z
x,-y,-z
y,x,1/2-z
-y,-x,1/2-z
-x,-y,-z
x,y,-z
y,-x,1/2-z
-y,x,1/2-z
x,-y,z
-x,y,z
-y,-x,1/2+z
y,x,1/2+z
loop_
_atom_site_type_symbol
_atom_site_label
_atom_site_fract_x
_atom_site_fract_y
_atom_site_fract_z
Si Si1 0.605643 0.798983 0.178619
Si Si2 0.602932 0.404108 0.152082
Si Si3 0.101322 0.105970 0.177214
Si Si4 0.901209 0.395344 0.806872
Si Si5 0.369852 0.772385 0.427989
Si Si6 0.160200 0.251445 0.574759
O O1 0.500000 0.811608 0.170355
O O2 0.619069 0.692432 0.183884
O O3 0.638935 0.845195 0.245216
O O4 0.658832 0.842921 0.118101
O O5 0.614316 0.500000 0.188879
O O6 0.500000 0.402502 0.130280
O O7 0.676848 0.404895 0.095405
O O8 0.134699 0.134699 0.250000
O O9 0.169885 0.126574 0.119157
O O10 0.000000 0.138257 0.165042
O O11 0.096107 0.000000 0.182542
O O12 0.909468 0.500000 0.794749
O O13 0.845323 0.387602 0.873043
O O14 0.000000 0.357084 0.810946
O O15 0.402902 0.796603 0.500000
O O16 0.264713 0.763769 0.431454
O O17 0.123212 0.256359 0.500000
#
# Coordination Sequence:
#
# PCOD9566761 Si02
#       6
#    16  16  16  16  16  16
#     4   9  20  39  60  85 122 161 202 258 310 360
#     4   9  18  34  59  88 117 156 204 253 311 376
#     4   9  20  39  62  90 121 154 197 250 311 375
#     4  10  22  39  58  80 107 148 202 251 299 357
#     4  10  22  38  55  82 122 160 197 249 306 361
#     4  10  22  37  58  90 121 156 200 242 298 369
#
# _framework density 20.736750000000001
#
# number of rings (size 3 to 8) (size 9 to 14) (size 15 to 20)
#    0.000    2.500    0.000    1.000    2.333    6.333 
#    0.000   10.000    0.000    5.000    0.000    3.500 
#    0.000    0.000    0.000    0.000    0.000    0.000 
#
# Total GULP energy -535182.588096 kJ/mol
# GULP energy per Si atom -5574.818626 kJ/mol
# Density = 2.068955 g / cm^3
# Si number density = 20.736750 Si / 1000 Ang^3
#
#
#
# Elastic Constant Matrix: (Units=GPa)
#
#
# Indices 1 2 3 4 5 6 
#
# 1 90.4181 33.8338 69.8197 0.0000 0.0000 0.0000
# 2 33.8338 90.4181 69.8197 0.0000 0.0000 0.0000
# 3 69.8197 69.8197 193.8157 0.0000 0.0000 0.0000
# 4 0.0000 0.0000 0.0000 28.6510 0.0000 0.0000
# 5 0.0000 0.0000 0.0000 0.0000 28.6510 0.0000
# 6 0.0000 0.0000 0.0000 0.0000 0.0000 28.3314
#
#
#
# Elastic Compliance Matrix: (Units=1/GPa)
#
#
# Indices 1 2 3 4 5 6 
#
# 1 0.015598 -0.002075 -0.004871 0.000000 0.000000 0.000000
# 2 -0.002075 0.015598 -0.004871 0.000000 0.000000 0.000000
# 3 -0.004871 -0.004871 0.008669 0.000000 0.000000 0.000000
# 4 0.000000 0.000000 0.000000 0.034903 0.000000 0.000000
# 5 0.000000 0.000000 0.000000 0.000000 0.034903 0.000000
# 6 0.000000 0.000000 0.000000 0.000000 0.000000 0.035296
#
#
# Mechanical properties :
#
#
# Convention : Reuss Voigt Hill
#
# Bulk Modulus (GPa) = 61.61697 80.17760 70.89728
# Shear Modulus (GPa) = 28.73355 30.53858 29.63606
#
# Velocity S-wave (km/s) = 3.72645 3.84171 3.78452
# Velocity P-wave (km/s) = 6.94936 7.64374 7.30481
#
# Compressibility (1/GPa) = 0.01622929
#
# Stress axis : x y z
#
# Youngs Moduli (GPa) = 64.11145 64.11145 115.34938
#
# Poissons Ratio (x) = 0.13303 0.56192
# Poissons Ratio (y) = 0.13303 0.56192
# Poissons Ratio (z) = 0.31232 0.31232
#
# Static dielectric constant tensor:
#      x y z
#    x 1.769840 0.000000 0.000000 
#    y 0.000000 1.769840 0.000000 
#    z 0.000000 0.000000 1.798280 
# 
# From -- ./inp_files/9750.got.cif
#   From: 2010.05.17/outbox.cif.g08.bks.cpg/sg131_5_cif.got.tgz:9750.got - 2010.05.20 12:21:01.
