data_PCOD9566668
_publ_section_title
;
Structure prediction by ZEFSAII (Michael W. Deem and Ramdas Pophale) SiO2 
 PCOD9566668
Probable space group: P 42/M M C
;
_chemical_formula_sum "Si O2"
_cell_formula_units_Z 56
_cell_length_a 13.138779
_cell_length_b 13.138779
_cell_length_c 18.363040
_cell_angle_alpha 90.000000
_cell_angle_beta 90.000000
_cell_angle_gamma 90.000000
_cell_volume 3169.965938
_symmetry_space_group_name_H-M "P 42/M M C"
_symmetry_group_IT_number 131
_symmetry_cell_setting 'tetragonal'
loop_
_space_group_symop_operation_xyz
x,y,z
-x,-y,z
-y,x,1/2+z
y,-x,1/2+z
-x,y,-z
x,-y,-z
y,x,1/2-z
-y,-x,1/2-z
-x,-y,-z
x,y,-z
y,-x,1/2-z
-y,x,1/2-z
x,-y,z
-x,y,z
-y,-x,1/2+z
y,x,1/2+z
loop_
_atom_site_type_symbol
_atom_site_label
_atom_site_fract_x
_atom_site_fract_y
_atom_site_fract_z
Si Si1 0.805729 0.882243 0.677606
Si Si2 0.620680 0.185630 0.585608
Si Si3 0.000000 0.876607 0.417732
Si Si4 0.622737 0.386191 0.667932
O O1 0.815658 0.815658 0.750000
O O2 0.698843 0.875792 0.635664
O O3 0.897011 0.848328 0.624190
O O4 0.825352 0.000000 0.698336
O O5 0.636938 0.166663 0.500000
O O6 0.500000 0.168001 0.600823
O O7 0.645750 0.302478 0.607496
O O8 0.000000 0.837739 0.500000
O O9 0.000000 0.000000 0.420682
O O10 0.649024 0.350977 0.750000
O O11 0.663425 0.500000 0.654677
O O12 0.500000 0.393633 0.669476
#
# Coordination Sequence:
#
# PCOD9566668 Si02
#       4
#    16  16   8  16
#     4  11  21  36  57  79 105 137 181 231 276 324
#     4  10  21  34  50  79 116 149 182 220 271 337
#     4   9  18  32  54  80 103 130 169 225 282 326
#     4   8  14  27  48  73 103 140 183 229 270 313
#
# _framework density 17.665806
#
# number of rings (size 3 to 8) (size 9 to 14) (size 15 to 20)
#    0.000    2.429    1.429    2.571    0.000    2.857 
#    0.000    4.286    0.000    0.000    0.000    0.000 
#    0.000    4.571    0.000    0.000    0.000    0.000 
#
# Total GULP energy -311924.909366 kJ/mol
# GULP energy per Si atom -5570.087667 kJ/mol
# Density = 1.762560 g / cm^3
# Si number density = 17.665806 Si / 1000 Ang^3
#
#
#
# Elastic Constant Matrix: (Units=GPa)
#
#
# Indices 1 2 3 4 5 6 
#
# 1 55.3245 26.5135 34.5781 0.0000 0.0000 0.0000
# 2 26.5135 55.3245 34.5780 0.0000 0.0000 0.0000
# 3 34.5781 34.5780 108.7493 0.0000 0.0000 0.0000
# 4 0.0000 0.0000 0.0000 23.6543 0.0000 0.0000
# 5 0.0000 0.0000 0.0000 0.0000 23.6543 0.0000
# 6 0.0000 0.0000 0.0000 0.0000 0.0000 21.8326
#
#
#
# Elastic Compliance Matrix: (Units=1/GPa)
#
#
# Indices 1 2 3 4 5 6 
#
# 1 0.025709 -0.009000 -0.005313 0.000000 0.000000 0.000000
# 2 -0.009000 0.025709 -0.005313 0.000000 0.000000 0.000000
# 3 -0.005313 -0.005313 0.012574 0.000000 0.000000 0.000000
# 4 0.000000 0.000000 0.000000 0.042276 0.000000 0.000000
# 5 0.000000 0.000000 0.000000 0.000000 0.042276 0.000000
# 6 0.000000 0.000000 0.000000 0.000000 0.000000 0.045803
#
#
# Mechanical properties :
#
#
# Convention : Reuss Voigt Hill
#
# Bulk Modulus (GPa) = 40.41960 45.63751 43.02855
# Shear Modulus (GPa) = 20.67450 22.07683 21.37566
#
# Velocity S-wave (km/s) = 3.42469 3.53893 3.48228
# Velocity P-wave (km/s) = 6.21030 6.52600 6.37010
#
# Compressibility (1/GPa) = 0.02474048
#
# Stress axis : x y z
#
# Youngs Moduli (GPa) = 38.89704 38.89709 79.52955
#
# Poissons Ratio (x) = 0.35008 0.42252
# Poissons Ratio (y) = 0.35008 0.42252
# Poissons Ratio (z) = 0.20665 0.20665
#
# Static dielectric constant tensor:
#      x y z
#    x 1.615170 0.000000 0.000000 
#    y 0.000000 1.615170 0.000000 
#    z 0.000000 0.000000 1.610170 
# 
# From -- ./inp_files/7178.got.cif
#   From: 2010.05.17/outbox.cif.g08.bks.cpg/sg131_4_cif.got.tgz:7178.got - 2010.05.20 12:21:01.
