data_PCOD9566090
_publ_section_title
;
Structure prediction by ZEFSAII (Michael W. Deem and Ramdas Pophale) SiO2 
 PCOD9566090
Probable space group: P 42/M M C
;
_chemical_formula_sum "Si O2"
_cell_formula_units_Z 128
_cell_length_a 20.203680
_cell_length_b 20.203680
_cell_length_c 17.582088
_cell_angle_alpha 90.000000
_cell_angle_beta 90.000000
_cell_angle_gamma 90.000000
_cell_volume 7176.809390
_symmetry_space_group_name_H-M "P 42/M M C"
_symmetry_group_IT_number 131
_symmetry_cell_setting 'tetragonal'
loop_
_space_group_symop_operation_xyz
x,y,z
-x,-y,z
-y,x,1/2+z
y,-x,1/2+z
-x,y,-z
x,-y,-z
y,x,1/2-z
-y,-x,1/2-z
-x,-y,-z
x,y,-z
y,-x,1/2-z
-y,x,1/2-z
x,-y,z
-x,y,z
-y,-x,1/2+z
y,x,1/2+z
loop_
_atom_site_type_symbol
_atom_site_label
_atom_site_fract_x
_atom_site_fract_y
_atom_site_fract_z
Si Si1 0.425630 0.345731 0.411231
Si Si2 0.394550 0.928813 0.363221
Si Si3 0.209038 0.631780 0.866980
Si Si4 0.927374 0.423162 0.683707
Si Si5 0.343481 0.799650 0.189283
Si Si6 0.578190 0.337612 0.812336
Si Si7 0.241677 0.927947 0.408474
Si Si8 0.777733 0.783056 0.413712
O O1 0.421285 0.330661 0.500000
O O2 0.500000 0.365129 0.391790
O O3 0.407400 0.277398 0.368898
O O4 0.376971 0.404413 0.388862
O O5 0.410510 0.855095 0.392598
O O6 0.417591 0.929236 0.275853
O O7 0.314470 0.928373 0.370794
O O8 0.416269 0.000000 0.397168
O O9 0.196311 0.658509 0.781142
O O10 0.217301 0.697662 0.915988
O O11 0.918953 0.500000 0.663911
O O12 0.864627 0.380882 0.659322
O O13 0.000000 0.400586 0.656566
O O14 0.386623 0.733338 0.178230
O O15 0.273245 0.795778 0.146992
O O16 0.618027 0.381974 0.750000
O O17 0.500000 0.332470 0.797219
O O18 0.251814 0.925613 0.500000
O O19 0.205669 0.858909 0.389671
O O20 0.210695 0.000000 0.390696
O O21 0.802219 0.770333 0.500000
#
# Coordination Sequence:
#
# PCOD9566090 Si02
#       8
#    16  16  16  16  16  16  16  16
#     4  11  24  40  55  71  94 127 167 211 263 317
#     4   8  15  26  44  69  95 125 161 198 239 294
#     4  10  18  31  50  72 101 131 165 203 252 302
#     4   9  18  32  50  72  98 129 165 207 255 307
#     4  11  20  33  54  80 103 131 167 210 254 305
#     4  12  24  38  56  77  99 127 166 215 265 313
#     4   8  14  25  42  67 101 138 168 198 244 302
#     4  10  18  29  48  73 103 135 169 212 254 297
#
# _framework density 17.835225000000001
#
# number of rings (size 3 to 8) (size 9 to 14) (size 15 to 20)
#    0.000    2.125    2.500    1.500    0.000    3.625 
#    0.000    0.625    0.000    1.875    0.000    4.375 
#    0.000    0.500    0.000    3.125    0.000   54.125 
#
# Total GULP energy -712584.055356 kJ/mol
# GULP energy per Si atom -5567.062932 kJ/mol
# Density = 1.779463 g / cm^3
# Si number density = 17.835225 Si / 1000 Ang^3
#
#
#
# Elastic Constant Matrix: (Units=GPa)
#
#
# Indices 1 2 3 4 5 6 
#
# 1 119.1997 48.3988 26.3941 0.0000 0.0000 0.0000
# 2 48.3988 119.1990 26.3940 0.0000 0.0000 0.0000
# 3 26.3941 26.3940 44.8371 0.0000 0.0000 0.0000
# 4 0.0000 0.0000 0.0000 11.0210 0.0000 0.0000
# 5 0.0000 0.0000 0.0000 0.0000 11.0210 0.0000
# 6 0.0000 0.0000 0.0000 0.0000 0.0000 11.4589
#
#
#
# Elastic Compliance Matrix: (Units=1/GPa)
#
#
# Indices 1 2 3 4 5 6 
#
# 1 0.010724 -0.003400 -0.004312 0.000000 0.000000 0.000000
# 2 -0.003400 0.010724 -0.004312 0.000000 0.000000 0.000000
# 3 -0.004312 -0.004312 0.027379 0.000000 0.000000 0.000000
# 4 0.000000 0.000000 0.000000 0.090736 0.000000 0.000000
# 5 0.000000 0.000000 0.000000 0.000000 0.090736 0.000000
# 6 0.000000 0.000000 0.000000 0.000000 0.000000 0.087269
#
#
# Mechanical properties :
#
#
# Convention : Reuss Voigt Hill
#
# Bulk Modulus (GPa) = 40.35251 53.95663 47.15457
# Shear Modulus (GPa) = 14.29075 18.83675 16.56375
#
# Velocity S-wave (km/s) = 2.83373 3.25338 3.05078
# Velocity P-wave (km/s) = 5.77763 6.66567 6.23747
#
# Compressibility (1/GPa) = 0.02478161
#
# Stress axis : x y z
#
# Youngs Moduli (GPa) = 93.24506 93.24451 36.52377
#
# Poissons Ratio (x) = 0.31701 0.15748
# Poissons Ratio (y) = 0.31701 0.15748
# Poissons Ratio (z) = 0.40206 0.40205
#
# Static dielectric constant tensor:
#      x y z
#    x 1.638620 0.000000 0.000000 
#    y 0.000000 1.638620 0.000000 
#    z 0.000000 0.000000 1.662170 
# 
# From -- ./inp_files/8452.got.cif
#   From: 2010.05.17/outbox.cif.g08.bks.cpg/sg131_5_cif.got.tgz:8452.got - 2010.05.20 12:21:01.
