data_PCOD9566970
_publ_section_title
;
Structure prediction by ZEFSAII (Michael W. Deem and Ramdas Pophale) SiO2 
 PCOD9566970
Probable space group: P 42/M C M
;
_chemical_formula_sum "Si O2"
_cell_formula_units_Z 64
_cell_length_a 21.912088
_cell_length_b 21.912088
_cell_length_c 9.237198
_cell_angle_alpha 90.000000
_cell_angle_beta 90.000000
_cell_angle_gamma 90.000000
_cell_volume 4435.144558
_symmetry_space_group_name_H-M "P 42/M C M"
_symmetry_group_IT_number 132
_symmetry_cell_setting 'tetragonal'
loop_
_space_group_symop_operation_xyz
x,y,z
-y,x,1/2+z
-x,-y,z
y,-x,1/2+z
x,-y,1/2-z
-x,y,1/2-z
y,x,-z
-y,-x,-z
-x,-y,-z
y,-x,1/2-z
x,y,-z
-y,x,1/2-z
-x,y,1/2+z
x,-y,1/2+z
-y,-x,z
y,x,z
loop_
_atom_site_type_symbol
_atom_site_label
_atom_site_fract_x
_atom_site_fract_y
_atom_site_fract_z
Si Si1 0.558418 0.271575 0.834880
Si Si2 0.642698 0.357303 0.333403
Si Si3 0.066300 0.563144 0.176989
Si Si4 0.833157 0.338606 0.165282
Si Si5 0.251956 0.251956 0.834040
O O1 0.500000 0.248141 0.750000
O O2 0.585748 0.329158 0.750591
O O3 0.610776 0.220522 0.836027
O O4 0.542930 0.286273 0.000000
O O5 0.629249 0.370752 0.500000
O O6 0.695375 0.304626 0.331068
O O7 0.090252 0.500000 0.250000
O O8 0.108216 0.621800 0.211955
O O9 0.000000 0.571387 0.250000
O O10 0.063598 0.556877 0.000000
O O11 0.806544 0.282609 0.257368
O O12 0.842879 0.318190 0.000000
O O13 0.238301 0.238301 0.000000
#
# Coordination Sequence:
#
# PCOD9566970 Si02
#       5
#    16   8  16  16   8
#     4  10  18  28  42  59  76  96 121 152 190 233
#     4   9  17  29  41  56  76  95 117 149 188 232
#     4  10  19  30  43  60  83 114 147 180 213 248
#     4   9  18  30  43  59  82 108 134 165 205 246
#     4   9  17  27  43  63  80 100 129 166 206 243
#
# _framework density 14.430194999999999
#
# number of rings (size 3 to 8) (size 9 to 14) (size 15 to 20)
#    0.000    2.500    0.000    3.750    0.000    6.000 
#    0.000    0.000    0.000    0.375    0.000    2.625 
#    0.000    0.000    0.000    0.000    0.000    0.625 
#
# Total GULP energy -356359.187164 kJ/mol
# GULP energy per Si atom -5568.112299 kJ/mol
# Density = 1.439735 g / cm^3
# Si number density = 14.430195 Si / 1000 Ang^3
#
#
#
# Elastic Constant Matrix: (Units=GPa)
#
#
# Indices 1 2 3 4 5 6 
#
# 1 48.6446 34.8023 36.8311 0.0000 0.0000 0.0000
# 2 34.8023 48.6446 36.8311 0.0000 0.0000 0.0000
# 3 36.8311 36.8311 98.9769 0.0000 0.0000 0.0000
# 4 0.0000 0.0000 0.0000 15.7728 0.0000 0.0000
# 5 0.0000 0.0000 0.0000 0.0000 15.7728 0.0000
# 6 0.0000 0.0000 0.0000 0.0000 0.0000 29.5132
#
#
#
# Elastic Compliance Matrix: (Units=1/GPa)
#
#
# Indices 1 2 3 4 5 6 
#
# 1 0.045044 -0.027198 -0.006641 0.000000 0.000000 0.000000
# 2 -0.027198 0.045044 -0.006641 0.000000 0.000000 0.000000
# 3 -0.006641 -0.006641 0.015046 0.000000 0.000000 0.000000
# 4 0.000000 0.000000 0.000000 0.063400 0.000000 0.000000
# 5 0.000000 0.000000 0.000000 0.000000 0.063400 0.000000
# 6 0.000000 0.000000 0.000000 0.000000 0.000000 0.033883
#
#
# Mechanical properties :
#
#
# Convention : Reuss Voigt Hill
#
# Bulk Modulus (GPa) = 41.36640 45.91055 43.63847
# Shear Modulus (GPa) = 14.09107 18.06520 16.07813
#
# Velocity S-wave (km/s) = 3.12829 3.54206 3.34159
# Velocity P-wave (km/s) = 6.46352 6.97230 6.72272
#
# Compressibility (1/GPa) = 0.02417421
#
# Stress axis : x y z
#
# Youngs Moduli (GPa) = 22.20055 22.20056 66.46456
#
# Poissons Ratio (x) = 0.60382 0.44137
# Poissons Ratio (y) = 0.60382 0.44137
# Poissons Ratio (z) = 0.14743 0.14743
#
# Static dielectric constant tensor:
#      x y z
#    x 1.480260 0.000000 0.000000 
#    y 0.000000 1.480260 0.000000 
#    z 0.000000 0.000000 1.492850 
# 
# From -- ./inp_files/1267.got.cif
#   From: 2010.05.17/outbox.cif.g08.bks.cpg/sg132_1_cif.got.tgz:1267.got - 2010.05.20 12:30:18.
