data_PCOD9566712
_publ_section_title
;
Structure prediction by ZEFSAII (Michael W. Deem and Ramdas Pophale) SiO2 
 PCOD9566712
Probable space group: P 42/M M C
;
_chemical_formula_sum "Si O2"
_cell_formula_units_Z 58
_cell_length_a 17.832652
_cell_length_b 17.832652
_cell_length_c 9.387779
_cell_angle_alpha 90.000000
_cell_angle_beta 90.000000
_cell_angle_gamma 90.000000
_cell_volume 2985.346367
_symmetry_space_group_name_H-M "P 42/M M C"
_symmetry_group_IT_number 131
_symmetry_cell_setting 'tetragonal'
loop_
_space_group_symop_operation_xyz
x,y,z
-x,-y,z
-y,x,1/2+z
y,-x,1/2+z
-x,y,-z
x,-y,-z
y,x,1/2-z
-y,-x,1/2-z
-x,-y,-z
x,y,-z
y,-x,1/2-z
-y,x,1/2-z
x,-y,z
-x,y,z
-y,-x,1/2+z
y,x,1/2+z
loop_
_atom_site_type_symbol
_atom_site_label
_atom_site_fract_x
_atom_site_fract_y
_atom_site_fract_z
Si Si1 0.085905 0.812082 0.329506
Si Si2 0.500000 0.000000 0.500000
Si Si3 0.417829 0.000000 0.207581
Si Si4 0.658901 0.159345 0.836011
Si Si5 0.701580 0.410472 0.170578
O O1 0.114754 0.885247 0.250000
O O2 0.089706 0.820953 0.500000
O O3 0.140632 0.743517 0.290812
O O4 0.000000 0.793914 0.292386
O O5 0.564677 0.000000 0.375351
O O6 0.378385 0.922821 0.167328
O O7 0.500000 0.000000 0.142755
O O8 0.618451 0.219521 0.735869
O O9 0.657683 0.186876 0.000000
O O10 0.636655 0.363346 0.250000
O O11 0.694591 0.500000 0.194947
O O12 0.699440 0.397638 0.000000
#
# Coordination Sequence:
#
# PCOD9566712 Si02
#       5
#    16   2   8  16  16
#     4  10  22  41  60  86 122 159 206 259 309 367
#     4   8  24  36  50  92 136 168 206 268 304 372
#     4  10  21  36  58  87 130 171 207 252 312 373
#     4  11  22  39  64  94 129 167 210 261 318 385
#     4  11  26  45  68  96 131 170 213 268 325 384
#
# _framework density 19.428232000000001
#
# number of rings (size 3 to 8) (size 9 to 14) (size 15 to 20)
#    0.414    1.103    1.379    2.897    1.931    8.828 
#    0.000    2.759    0.000    0.000    0.000    0.000 
#    0.000    0.000    0.000    0.000    0.000    0.000 
#
# Total GULP energy -323165.032232 kJ/mol
# GULP energy per Si atom -5571.810901 kJ/mol
# Density = 1.938401 g / cm^3
# Si number density = 19.428232 Si / 1000 Ang^3
#
#
#
# Elastic Constant Matrix: (Units=GPa)
#
#
# Indices 1 2 3 4 5 6 
#
# 1 112.9792 95.0371 56.6735 0.0000 0.0000 0.0000
# 2 95.0371 112.9648 56.6733 0.0000 0.0000 0.0000
# 3 56.6735 56.6733 97.1829 0.0000 0.0000 0.0000
# 4 0.0000 0.0000 0.0000 1.8894 0.0000 0.0000
# 5 0.0000 0.0000 0.0000 0.0000 1.8889 0.0000
# 6 0.0000 0.0000 0.0000 0.0000 0.0000 20.4642
#
#
#
# Elastic Compliance Matrix: (Units=1/GPa)
#
#
# Indices 1 2 3 4 5 6 
#
# 1 0.031399 -0.024355 -0.004108 0.000000 0.000000 0.000000
# 2 -0.024355 0.031405 -0.004111 0.000000 0.000000 0.000000
# 3 -0.004108 -0.004111 0.015083 0.000000 0.000000 0.000000
# 4 0.000000 0.000000 0.000000 0.529268 0.000000 0.000000
# 5 0.000000 0.000000 0.000000 0.000000 0.529417 0.000000
# 6 0.000000 0.000000 0.000000 0.000000 0.000000 0.048866
#
#
# Mechanical properties :
#
#
# Convention : Reuss Voigt Hill
#
# Bulk Modulus (GPa) = 78.50113 82.21054 80.35583
# Shear Modulus (GPa) = 3.98460 12.49802 8.24131
#
# Velocity S-wave (km/s) = 1.43366 2.53907 2.06183
# Velocity P-wave (km/s) = 6.57525 7.14162 6.86428
#
# Compressibility (1/GPa) = 0.01273867
#
# Stress axis : x y z
#
# Youngs Moduli (GPa) = 31.84793 31.84228 66.30083
#
# Poissons Ratio (x) = 0.77553 0.27235
# Poissons Ratio (y) = 0.77566 0.27256
# Poissons Ratio (z) = 0.13083 0.13090
#
# Static dielectric constant tensor:
#      x y z
#    x 1.696980 0.000000 0.000000 
#    y 0.000000 1.696980 0.000000 
#    z 0.000000 0.000000 1.658930 
# 
# From -- ./inp_files/1280.got.cif
#   From: 2010.05.17/outbox.cif.g08.bks.cpg/sg131_1_cif.got.tgz:1280.got - 2010.05.20 12:21:01.
