data_PCOD9566846
_publ_section_title
;
Structure prediction by ZEFSAII (Michael W. Deem and Ramdas Pophale) SiO2 
 PCOD9566846
Probable space group: P 42/M M C
;
_chemical_formula_sum "Si O2"
_cell_formula_units_Z 64
_cell_length_a 14.004219
_cell_length_b 14.004219
_cell_length_c 19.683754
_cell_angle_alpha 90.000000
_cell_angle_beta 90.000000
_cell_angle_gamma 90.000000
_cell_volume 3860.341416
_symmetry_space_group_name_H-M "P 42/M M C"
_symmetry_group_IT_number 131
_symmetry_cell_setting 'tetragonal'
loop_
_space_group_symop_operation_xyz
x,y,z
-x,-y,z
-y,x,1/2+z
y,-x,1/2+z
-x,y,-z
x,-y,-z
y,x,1/2-z
-y,-x,1/2-z
-x,-y,-z
x,y,-z
y,-x,1/2-z
-y,x,1/2-z
x,-y,z
-x,y,z
-y,-x,1/2+z
y,x,1/2+z
loop_
_atom_site_type_symbol
_atom_site_label
_atom_site_fract_x
_atom_site_fract_y
_atom_site_fract_z
Si Si1 0.500000 0.108405 0.081216
Si Si2 0.383012 0.615637 0.000000
Si Si3 0.113956 0.000000 0.575158
Si Si4 0.254069 0.658390 0.628855
Si Si5 0.393115 0.606886 0.250000
Si Si6 0.173777 0.885935 0.825416
O O1 0.410947 0.169770 0.105153
O O2 0.500000 0.000000 0.107302
O O3 0.500000 0.104737 0.000000
O O4 0.339364 0.670829 0.934296
O O5 0.500000 0.629404 0.000000
O O6 0.366858 0.500000 0.000000
O O7 0.134533 0.907849 0.619519
O O8 0.157479 0.000000 0.500000
O O9 0.000000 0.000000 0.567735
O O10 0.315542 0.619463 0.691648
O O11 0.193897 0.748129 0.656244
O O12 0.500000 0.615387 0.279484
O O13 0.133206 0.866795 0.750000
O O14 0.201157 0.000000 0.830318
#
# Coordination Sequence:
#
# PCOD9566846 Si02
#       6
#     8   8   8  16   8  16
#     4  11  22  38  58  84 120 153 184 237 307 364
#     4  11  22  40  64  85 114 155 199 248 307 363
#     4   9  20  36  58  86 112 148 201 248 286 336
#     4  12  21  38  56  87 117 148 196 239 299 360
#     4  11  22  36  58  82 111 146 192 250 291 336
#     4  11  22  37  59  84 120 161 195 241 302 360
#
# _framework density 16.578844
#
# number of rings (size 3 to 8) (size 9 to 14) (size 15 to 20)
#    0.000    1.000    6.250    1.500    1.750    2.000 
#    0.000    0.000    0.000    0.000    0.000    3.500 
#    0.000    0.000    0.000    0.000    0.000    0.000 
#
# Total GULP energy -356505.019355 kJ/mol
# GULP energy per Si atom -5570.390927 kJ/mol
# Density = 1.654111 g / cm^3
# Si number density = 16.578844 Si / 1000 Ang^3
#
#
#
# Elastic Constant Matrix: (Units=GPa)
#
#
# Indices 1 2 3 4 5 6 
#
# 1 108.8807 51.7316 41.5388 0.0000 0.0000 0.0000
# 2 51.7316 108.8807 41.5394 0.0000 0.0000 0.0000
# 3 41.5388 41.5394 114.9906 0.0000 0.0000 0.0000
# 4 0.0000 0.0000 0.0000 18.6004 0.0000 0.0000
# 5 0.0000 0.0000 0.0000 0.0000 18.5980 0.0000
# 6 0.0000 0.0000 0.0000 0.0000 0.0000 14.0202
#
#
#
# Elastic Compliance Matrix: (Units=1/GPa)
#
#
# Indices 1 2 3 4 5 6 
#
# 1 0.012577 -0.004921 -0.002766 0.000000 0.000000 0.000000
# 2 -0.004921 0.012578 -0.002766 0.000000 0.000000 0.000000
# 3 -0.002766 -0.002766 0.010695 0.000000 0.000000 0.000000
# 4 0.000000 0.000000 0.000000 0.053762 0.000000 0.000000
# 5 0.000000 0.000000 0.000000 0.000000 0.053769 0.000000
# 6 0.000000 0.000000 0.000000 0.000000 0.000000 0.071326
#
#
# Mechanical properties :
#
#
# Convention : Reuss Voigt Hill
#
# Bulk Modulus (GPa) = 66.91367 66.93017 66.92192
# Shear Modulus (GPa) = 20.78191 23.43985 22.11088
#
# Velocity S-wave (km/s) = 3.54435 3.76419 3.65592
# Velocity P-wave (km/s) = 7.56296 7.70393 7.63377
#
# Compressibility (1/GPa) = 0.01494463
#
# Stress axis : x y z
#
# Youngs Moduli (GPa) = 79.50736 79.50695 93.50410
#
# Poissons Ratio (x) = 0.39122 0.25862
# Poissons Ratio (y) = 0.39122 0.25863
# Poissons Ratio (z) = 0.21991 0.21992
#
# Static dielectric constant tensor:
#      x y z
#    x 1.726580 0.000000 0.000000 
#    y 0.000000 1.726500 0.000000 
#    z 0.000000 0.000000 1.565340 
# 
# From -- ./inp_files/7474.got.cif
#   From: 2010.05.17/outbox.cif.g08.bks.cpg/sg131_4_cif.got.tgz:7474.got - 2010.05.20 12:21:01.
