data_PCOD9566452
_publ_section_title
;
Structure prediction by ZEFSAII (Michael W. Deem and Ramdas Pophale) SiO2 
 PCOD9566452
Probable space group: P 42/M M C
;
_chemical_formula_sum "Si O2"
_cell_formula_units_Z 88
_cell_length_a 18.885402
_cell_length_b 18.885402
_cell_length_c 14.068855
_cell_angle_alpha 90.000000
_cell_angle_beta 90.000000
_cell_angle_gamma 90.000000
_cell_volume 5017.775437
_symmetry_space_group_name_H-M "P 42/M M C"
_symmetry_group_IT_number 131
_symmetry_cell_setting 'tetragonal'
loop_
_space_group_symop_operation_xyz
x,y,z
-x,-y,z
-y,x,1/2+z
y,-x,1/2+z
-x,y,-z
x,-y,-z
y,x,1/2-z
-y,-x,1/2-z
-x,-y,-z
x,y,-z
y,-x,1/2-z
-y,x,1/2-z
x,-y,z
-x,y,z
-y,-x,1/2+z
y,x,1/2+z
loop_
_atom_site_type_symbol
_atom_site_label
_atom_site_fract_x
_atom_site_fract_y
_atom_site_fract_z
Si Si1 0.914489 0.075560 0.612470
Si Si2 0.083721 0.767419 0.614447
Si Si3 0.581254 0.500000 0.383740
Si Si4 0.668124 0.365735 0.610856
Si Si5 0.781444 0.415847 0.110746
Si Si6 0.686267 0.801422 0.774230
O O1 0.897606 0.073905 0.500000
O O2 0.892717 0.153146 0.646065
O O3 0.000000 0.074816 0.618823
O O4 0.889264 0.000000 0.654713
O O5 0.092780 0.763849 0.500000
O O6 0.130982 0.709292 0.665712
O O7 0.000000 0.759893 0.633653
O O8 0.500000 0.500000 0.354857
O O9 0.580802 0.500000 0.500000
O O10 0.624277 0.568169 0.352256
O O11 0.684676 0.376182 0.500000
O O12 0.616418 0.297934 0.616731
O O13 0.741189 0.354583 0.665606
O O14 0.783491 0.500000 0.133546
O O15 0.820563 0.363578 0.184582
O O16 0.803867 0.408093 0.000000
O O17 0.758471 0.758471 0.750000
#
# Coordination Sequence:
#
# PCOD9566452 Si02
#       6
#    16  16   8  16  16  16
#     4   7  10  19  39  69 102 133 164 193 224 278
#     4   9  17  31  53  78 105 139 173 208 259 318
#     4   9  16  26  44  72 106 140 166 191 236 300
#     4   9  17  29  47  73 104 135 164 199 248 306
#     4   9  18  33  52  70  92 128 173 216 257 305
#     4  10  20  32  49  74 103 132 171 215 256 305
#
# _framework density 17.537652000000001
#
# number of rings (size 3 to 8) (size 9 to 14) (size 15 to 20)
#    0.000    3.182    0.000    2.727    1.273    2.909 
#    0.000    0.909    0.000    1.091    0.000    2.545 
#    0.000    0.000    0.000    4.545    0.000    0.364 
#
# Total GULP energy -490076.663993 kJ/mol
# GULP energy per Si atom -5569.053000 kJ/mol
# Density = 1.749774 g / cm^3
# Si number density = 17.537652 Si / 1000 Ang^3
#
#
#
# Elastic Constant Matrix: (Units=GPa)
#
#
# Indices 1 2 3 4 5 6 
#
# 1 84.7294 66.3946 50.7696 0.0000 0.0000 0.0000
# 2 66.3946 84.7294 50.7696 0.0000 0.0000 0.0000
# 3 50.7696 50.7696 89.0205 0.0000 0.0000 0.0000
# 4 0.0000 0.0000 0.0000 -1.6154 0.0000 0.0000
# 5 0.0000 0.0000 0.0000 0.0000 -1.6154 0.0000
# 6 0.0000 0.0000 0.0000 0.0000 0.0000 21.8217
#
#
#
# Elastic Compliance Matrix: (Units=1/GPa)
#
#
# Indices 1 2 3 4 5 6 
#
# 1 0.032634 -0.021907 -0.006118 0.000000 0.000000 0.000000
# 2 -0.021907 0.032634 -0.006118 0.000000 0.000000 0.000000
# 3 -0.006118 -0.006118 0.018212 0.000000 0.000000 0.000000
# 4 0.000000 0.000000 0.000000 -0.619059 0.000000 0.000000
# 5 0.000000 0.000000 0.000000 0.000000 -0.619059 0.000000
# 6 0.000000 0.000000 0.000000 0.000000 0.000000 0.045826
#
#
# Mechanical properties :
#
#
# Convention : Reuss Voigt Hill
#
# Bulk Modulus (GPa) = 65.81214 66.03855 65.92535
# Shear Modulus (GPa) = -4.82877 9.75457 2.46290
#
# Velocity S-wave (km/s) = -1.66113 2.36096 1.18634
# Velocity P-wave (km/s) = 5.82482 6.72081 6.28879
#
# Compressibility (1/GPa) = 0.01519476
#
# Stress axis : x y z
#
# Youngs Moduli (GPa) = 30.64247 30.64247 54.90874
#
# Poissons Ratio (x) = 0.67127 0.33595
# Poissons Ratio (y) = 0.67127 0.33595
# Poissons Ratio (z) = 0.18748 0.18748
#
# Static dielectric constant tensor:
#      x y z
#    x 1.588520 0.000000 0.000000 
#    y 0.000000 1.588520 0.000000 
#    z 0.000000 0.000000 1.666660 
# 
# From -- ./inp_files/5857.got.cif
#   From: 2010.05.17/outbox.cif.g08.bks.cpg/sg131_3_cif.got.tgz:5857.got - 2010.05.20 12:21:01.
