data_PCOD9566466
_publ_section_title
;
Structure prediction by ZEFSAII (Michael W. Deem and Ramdas Pophale) SiO2 
 PCOD9566466
Probable space group: P 42/M M C
;
_chemical_formula_sum "Si O2"
_cell_formula_units_Z 104
_cell_length_a 17.974852
_cell_length_b 17.974852
_cell_length_c 19.394026
_cell_angle_alpha 90.000000
_cell_angle_beta 90.000000
_cell_angle_gamma 90.000000
_cell_volume 6266.118734
_symmetry_space_group_name_H-M "P 42/M M C"
_symmetry_group_IT_number 131
_symmetry_cell_setting 'tetragonal'
loop_
_space_group_symop_operation_xyz
x,y,z
-x,-y,z
-y,x,1/2+z
y,-x,1/2+z
-x,y,-z
x,-y,-z
y,x,1/2-z
-y,-x,1/2-z
-x,-y,-z
x,y,-z
y,-x,1/2-z
-y,x,1/2-z
x,-y,z
-x,y,z
-y,-x,1/2+z
y,x,1/2+z
loop_
_atom_site_type_symbol
_atom_site_label
_atom_site_fract_x
_atom_site_fract_y
_atom_site_fract_z
Si Si1 0.082327 0.585733 0.757405
Si Si2 0.376138 0.082756 0.000000
Si Si3 0.720194 0.660194 0.646124
Si Si4 0.869740 0.915537 0.820997
Si Si5 0.585997 0.752225 0.291288
Si Si6 0.090591 0.000000 0.578637
Si Si7 0.416279 0.253453 0.000000
Si Si8 0.294485 0.114664 0.140362
O O1 0.086658 0.500000 0.730636
O O2 0.158402 0.595751 0.800261
O O3 0.087863 0.646107 0.697028
O O4 0.000000 0.593245 0.790385
O O5 0.325999 0.089131 0.067622
O O6 0.418349 0.162425 0.000000
O O7 0.412373 0.000000 0.000000
O O8 0.646832 0.707131 0.664768
O O9 0.733598 0.603494 0.710438
O O10 0.720049 0.622798 0.570724
O O11 0.795660 0.708850 0.645680
O O12 0.871228 0.871228 0.750000
O O13 0.927670 0.886795 0.877709
O O14 0.787021 0.915792 0.848758
O O15 0.892747 0.000000 0.803237
O O16 0.500000 0.733535 0.306364
O O17 0.117540 0.000000 0.500000
O O18 0.000000 0.000000 0.575488
O O19 0.500000 0.281353 0.000000
#
# Coordination Sequence:
#
# PCOD9566466 Si02
#       8
#    16   8  16  16  16   8   8  16
#     4   9  17  30  48  74 104 129 161 209 257 307
#     4  10  20  33  46  72 105 138 171 209 242 301
#     4   9  19  34  52  75 105 134 167 206 245 310
#     4  11  21  33  49  68  96 129 172 223 267 304
#     4   9  17  31  53  76 100 134 170 206 248 297
#     4   9  20  36  52  68  90 130 179 227 270 305
#     4  10  20  35  55  78 106 142 170 202 255 301
#     4  10  21  32  48  71 102 136 171 204 258 310
#
# _framework density 16.597194999999999
#
# number of rings (size 3 to 8) (size 9 to 14) (size 15 to 20)
#    0.000    2.385    0.769    1.846    5.385    3.846 
#    0.000    0.385    0.000    8.308    0.000    0.538 
#    0.000    2.462    0.000    0.000    0.000    0.308 
#
# Total GULP energy -579098.225000 kJ/mol
# GULP energy per Si atom -5568.252163 kJ/mol
# Density = 1.655942 g / cm^3
# Si number density = 16.597195 Si / 1000 Ang^3
#
#
#
# Elastic Constant Matrix: (Units=GPa)
#
#
# Indices 1 2 3 4 5 6 
#
# 1 107.3942 43.0972 35.3761 0.0000 0.0000 0.0000
# 2 43.0972 107.3942 35.3761 0.0000 0.0000 0.0000
# 3 35.3761 35.3761 81.3043 0.0000 0.0000 0.0000
# 4 0.0000 0.0000 0.0000 0.6393 0.0000 0.0000
# 5 0.0000 0.0000 0.0000 0.0000 0.6393 0.0000
# 6 0.0000 0.0000 0.0000 0.0000 0.0000 21.6709
#
#
#
# Elastic Compliance Matrix: (Units=1/GPa)
#
#
# Indices 1 2 3 4 5 6 
#
# 1 0.011953 -0.003600 -0.003635 0.000000 0.000000 0.000000
# 2 -0.003600 0.011953 -0.003635 0.000000 0.000000 0.000000
# 3 -0.003635 -0.003635 0.015463 0.000000 0.000000 0.000000
# 4 0.000000 0.000000 0.000000 1.564325 0.000000 0.000000
# 5 0.000000 0.000000 0.000000 0.000000 1.564325 0.000000
# 6 0.000000 0.000000 0.000000 0.000000 0.000000 0.046145
#
#
# Mechanical properties :
#
#
# Convention : Reuss Voigt Hill
#
# Bulk Modulus (GPa) = 56.71862 58.19908 57.45885
# Shear Modulus (GPa) = 1.54236 16.73942 9.14089
#
# Velocity S-wave (km/s) = 0.96504 3.17924 2.34935
# Velocity P-wave (km/s) = 5.95731 6.97270 6.48491
#
# Compressibility (1/GPa) = 0.01763090
#
# Stress axis : x y z
#
# Youngs Moduli (GPa) = 83.65896 83.65896 64.67253
#
# Poissons Ratio (x) = 0.30113 0.23507
# Poissons Ratio (y) = 0.30113 0.23507
# Poissons Ratio (z) = 0.30408 0.30408
#
# Static dielectric constant tensor:
#      x y z
#    x 1.569440 0.000000 0.000000 
#    y 0.000000 1.569440 0.000000 
#    z 0.000000 0.000000 1.514160 
# 
# From -- ./inp_files/8132.got.cif
#   From: 2010.05.17/outbox.cif.g08.bks.cpg/sg131_5_cif.got.tgz:8132.got - 2010.05.20 12:21:01.
