data_PCOD9566603
_publ_section_title
;
Structure prediction by ZEFSAII (Michael W. Deem and Ramdas Pophale) SiO2 
 PCOD9566603
Probable space group: P 42/M M C
;
_chemical_formula_sum "Si O2"
_cell_formula_units_Z 72
_cell_length_a 14.871464
_cell_length_b 14.871464
_cell_length_c 16.909461
_cell_angle_alpha 90.000000
_cell_angle_beta 90.000000
_cell_angle_gamma 90.000000
_cell_volume 3739.703860
_symmetry_space_group_name_H-M "P 42/M M C"
_symmetry_group_IT_number 131
_symmetry_cell_setting 'tetragonal'
loop_
_space_group_symop_operation_xyz
x,y,z
-x,-y,z
-y,x,1/2+z
y,-x,1/2+z
-x,y,-z
x,-y,-z
y,x,1/2-z
-y,-x,1/2-z
-x,-y,-z
x,y,-z
y,-x,1/2-z
-y,x,1/2-z
x,-y,z
-x,y,z
-y,-x,1/2+z
y,x,1/2+z
loop_
_atom_site_type_symbol
_atom_site_label
_atom_site_fract_x
_atom_site_fract_y
_atom_site_fract_z
Si Si1 0.898920 0.898920 0.750000
Si Si2 0.662724 0.182475 0.589972
Si Si3 0.000000 0.392248 0.171900
Si Si4 0.268322 0.158416 0.853616
Si Si5 0.598275 0.267826 0.260179
Si Si6 0.393067 0.000000 0.135545
O O1 0.816778 0.888181 0.811113
O O2 0.000000 0.891796 0.784963
O O3 0.632518 0.176384 0.500000
O O4 0.762412 0.224943 0.594551
O O5 0.603935 0.244163 0.647777
O O6 0.654322 0.086160 0.632665
O O7 0.000000 0.384792 0.267421
O O8 0.000000 0.500000 0.154605
O O9 0.329737 0.207854 0.787266
O O10 0.336222 0.086855 0.891840
O O11 0.630541 0.369460 0.250000
O O12 0.500000 0.247993 0.228948
O O13 0.500000 0.000000 0.116967
#
# Coordination Sequence:
#
# PCOD9566603 Si02
#       6
#     8  16   8  16  16   8
#     4  11  20  32  56  84 111 148 196 242 279 334
#     4  11  23  36  53  83 125 161 189 235 302 371
#     4  11  21  34  57  91 122 149 187 236 297 366
#     4  11  20  36  57  82 115 155 204 245 293 346
#     4  10  20  35  58  84 112 148 193 245 298 353
#     4  11  20  35  64  92 114 144 204 271 304 336
#
# _framework density 19.252860999999999
#
# number of rings (size 3 to 8) (size 9 to 14) (size 15 to 20)
#    0.000    1.222    6.667    1.667    1.556    2.444 
#    0.000    0.556    0.000   17.333    0.000    9.333 
#    0.000    0.000    0.000    0.000    0.000    0.000 
#
# Total GULP energy -401537.704931 kJ/mol
# GULP energy per Si atom -5576.912568 kJ/mol
# Density = 1.920904 g / cm^3
# Si number density = 19.252861 Si / 1000 Ang^3
#
#
#
# Elastic Constant Matrix: (Units=GPa)
#
#
# Indices 1 2 3 4 5 6 
#
# 1 123.4180 41.3344 8.1152 0.0000 0.0000 0.0000
# 2 41.3344 123.4152 8.1147 0.0000 0.0000 0.0000
# 3 8.1152 8.1147 53.6381 0.0000 0.0000 0.0000
# 4 0.0000 0.0000 0.0000 1.6068 0.0000 0.0000
# 5 0.0000 0.0000 0.0000 0.0000 1.6074 0.0000
# 6 0.0000 0.0000 0.0000 0.0000 0.0000 19.7363
#
#
#
# Elastic Compliance Matrix: (Units=1/GPa)
#
#
# Indices 1 2 3 4 5 6 
#
# 1 0.009172 -0.003011 -0.000932 0.000000 0.000000 0.000000
# 2 -0.003011 0.009172 -0.000932 0.000000 0.000000 0.000000
# 3 -0.000932 -0.000932 0.018926 0.000000 0.000000 0.000000
# 4 0.000000 0.000000 0.000000 0.622366 0.000000 0.000000
# 5 0.000000 0.000000 0.000000 0.000000 0.622123 0.000000
# 6 0.000000 0.000000 0.000000 0.000000 0.000000 0.050668
#
#
# Mechanical properties :
#
#
# Convention : Reuss Voigt Hill
#
# Bulk Modulus (GPa) = 36.33729 46.17777 41.25753
# Shear Modulus (GPa) = 3.70000 20.78389 12.24194
#
# Velocity S-wave (km/s) = 1.38779 3.28917 2.52434
# Velocity P-wave (km/s) = 4.63494 6.20176 5.47469
#
# Compressibility (1/GPa) = 0.02751994
#
# Stress axis : x y z
#
# Youngs Moduli (GPa) = 109.02565 109.02327 52.83872
#
# Poissons Ratio (x) = 0.32823 0.04926
# Poissons Ratio (y) = 0.32824 0.04925
# Poissons Ratio (z) = 0.10164 0.10163
#
# Static dielectric constant tensor:
#      x y z
#    x 1.725840 0.000000 0.000000 
#    y 0.000000 1.725840 0.000000 
#    z 0.000000 0.000000 1.648950 
# 
# From -- ./inp_files/7648.got.cif
#   From: 2010.05.17/outbox.cif.g08.bks.cpg/sg131_4_cif.got.tgz:7648.got - 2010.05.20 12:21:01.
