data_PCOD9566855
_publ_section_title
;
Structure prediction by ZEFSAII (Michael W. Deem and Ramdas Pophale) SiO2 
 PCOD9566855
Probable space group: P 42/M M C
;
_chemical_formula_sum "Si O2"
_cell_formula_units_Z 96
_cell_length_a 15.602861
_cell_length_b 15.602861
_cell_length_c 20.283374
_cell_angle_alpha 90.000000
_cell_angle_beta 90.000000
_cell_angle_gamma 90.000000
_cell_volume 4937.972622
_symmetry_space_group_name_H-M "P 42/M M C"
_symmetry_group_IT_number 131
_symmetry_cell_setting 'tetragonal'
loop_
_space_group_symop_operation_xyz
x,y,z
-x,-y,z
-y,x,1/2+z
y,-x,1/2+z
-x,y,-z
x,-y,-z
y,x,1/2-z
-y,-x,1/2-z
-x,-y,-z
x,y,-z
y,-x,1/2-z
-y,x,1/2-z
x,-y,z
-x,y,z
-y,-x,1/2+z
y,x,1/2+z
loop_
_atom_site_type_symbol
_atom_site_label
_atom_site_fract_x
_atom_site_fract_y
_atom_site_fract_z
Si Si1 0.152602 0.599778 0.577259
Si Si2 0.593185 0.695551 0.298142
Si Si3 0.726523 0.156423 0.316113
Si Si4 0.359602 0.400198 0.575115
Si Si5 0.595163 0.897356 0.425657
Si Si6 0.750666 0.904996 0.173041
O O1 0.131036 0.617434 0.500000
O O2 0.130214 0.500000 0.590546
O O3 0.256227 0.607019 0.582908
O O4 0.111628 0.666617 0.628082
O O5 0.618371 0.618371 0.250000
O O6 0.500000 0.729369 0.280246
O O7 0.666348 0.765746 0.292655
O O8 0.597011 0.659883 0.371941
O O9 0.673243 0.122762 0.377946
O O10 0.821749 0.188133 0.335620
O O11 0.731460 0.097519 0.251478
O O12 0.381101 0.378162 0.500000
O O13 0.381709 0.500000 0.585836
O O14 0.608739 0.864232 0.500000
O O15 0.500000 0.867390 0.402820
O O16 0.590413 0.000000 0.429186
O O17 0.785126 0.000000 0.156687
#
# Coordination Sequence:
#
# PCOD9566855 Si02
#       6
#    16  16  16  16  16  16
#     4   9  18  35  58  83 115 153 197 252 304 350
#     4  12  23  36  54  79 114 157 200 244 297 356
#     4  11  22  41  59  86 119 155 195 255 311 362
#     4   9  18  34  54  76 109 153 199 246 290 340
#     4   9  19  37  63  95 126 157 196 241 294 358
#     4  11  23  39  61  85 112 152 201 250 307 369
#
# _framework density 19.441178000000001
#
# number of rings (size 3 to 8) (size 9 to 14) (size 15 to 20)
#    0.000    1.833    3.333    3.000    0.000    6.167 
#    0.000    1.667    0.000    8.500    0.000    1.167 
#    0.000    0.000    0.000    0.000    0.000    0.000 
#
# Total GULP energy -535638.985274 kJ/mol
# GULP energy per Si atom -5579.572763 kJ/mol
# Density = 1.939693 g / cm^3
# Si number density = 19.441178 Si / 1000 Ang^3
#
#
#
# Elastic Constant Matrix: (Units=GPa)
#
#
# Indices 1 2 3 4 5 6 
#
# 1 96.5889 34.0749 37.1790 0.0000 0.0000 0.0000
# 2 34.0749 96.5889 37.1790 0.0000 0.0000 0.0000
# 3 37.1790 37.1790 69.2255 0.0000 0.0000 0.0000
# 4 0.0000 0.0000 0.0000 -2.9028 0.0000 0.0000
# 5 0.0000 0.0000 0.0000 0.0000 -2.9028 0.0000
# 6 0.0000 0.0000 0.0000 0.0000 0.0000 45.2478
#
#
#
# Elastic Compliance Matrix: (Units=1/GPa)
#
#
# Indices 1 2 3 4 5 6 
#
# 1 0.013509 -0.002487 -0.005920 0.000000 0.000000 0.000000
# 2 -0.002487 0.013509 -0.005920 0.000000 0.000000 0.000000
# 3 -0.005920 -0.005920 0.020804 0.000000 0.000000 0.000000
# 4 0.000000 0.000000 0.000000 -0.344493 0.000000 0.000000
# 5 0.000000 0.000000 0.000000 0.000000 -0.344493 0.000000
# 6 0.000000 0.000000 0.000000 0.000000 0.000000 0.022101
#
#
# Mechanical properties :
#
#
# Convention : Reuss Voigt Hill
#
# Bulk Modulus (GPa) = 52.16589 53.25212 52.70900
# Shear Modulus (GPa) = -8.56135 18.15313 4.79589
#
# Velocity S-wave (km/s) = -2.10078 3.05904 1.57233
# Velocity P-wave (km/s) = 4.58329 6.31885 5.51971
#
# Compressibility (1/GPa) = 0.01916961
#
# Stress axis : x y z
#
# Youngs Moduli (GPa) = 74.02375 74.02375 48.06774
#
# Poissons Ratio (x) = 0.18412 0.28454
# Poissons Ratio (y) = 0.18412 0.28454
# Poissons Ratio (z) = 0.43819 0.43819
#
# Static dielectric constant tensor:
#      x y z
#    x 1.775860 0.000000 0.000000 
#    y 0.000000 1.775860 0.000000 
#    z 0.000000 0.000000 1.705270 
# 
# From -- ./inp_files/9714.got.cif
#   From: 2010.05.17/outbox.cif.g08.bks.cpg/sg131_5_cif.got.tgz:9714.got - 2010.05.20 12:21:01.
