data_PCOD9566223
_publ_section_title
;
Structure prediction by ZEFSAII (Michael W. Deem and Ramdas Pophale) SiO2 
 PCOD9566223
Probable space group: P 42/M M C
;
_chemical_formula_sum "Si O2"
_cell_formula_units_Z 96
_cell_length_a 13.909067
_cell_length_b 13.909067
_cell_length_c 32.390239
_cell_angle_alpha 90.000000
_cell_angle_beta 90.000000
_cell_angle_gamma 90.000000
_cell_volume 6266.285108
_symmetry_space_group_name_H-M "P 42/M M C"
_symmetry_group_IT_number 131
_symmetry_cell_setting 'tetragonal'
loop_
_space_group_symop_operation_xyz
x,y,z
-x,-y,z
-y,x,1/2+z
y,-x,1/2+z
-x,y,-z
x,-y,-z
y,x,1/2-z
-y,-x,1/2-z
-x,-y,-z
x,y,-z
y,-x,1/2-z
-y,x,1/2-z
x,-y,z
-x,y,z
-y,-x,1/2+z
y,x,1/2+z
loop_
_atom_site_type_symbol
_atom_site_label
_atom_site_fract_x
_atom_site_fract_y
_atom_site_fract_z
Si Si1 0.383742 0.307519 0.953484
Si Si2 0.107864 0.612848 0.829615
Si Si3 0.692284 0.389122 0.130154
Si Si4 0.201715 0.386554 0.328989
Si Si5 0.106889 0.383814 0.583628
Si Si6 0.887133 0.732985 0.254332
O O1 0.500000 0.313594 0.948931
O O2 0.336651 0.368462 0.916998
O O3 0.355483 0.195971 0.945302
O O4 0.359175 0.336576 0.000000
O O5 0.111098 0.500000 0.817926
O O6 0.194825 0.628818 0.861184
O O7 0.123008 0.675976 0.788805
O O8 0.000000 0.632578 0.845712
O O9 0.670855 0.500000 0.140623
O O10 0.636161 0.311343 0.157965
O O11 0.190437 0.500000 0.321322
O O12 0.138381 0.360706 0.369483
O O13 0.166426 0.326372 0.290099
O O14 0.103152 0.500000 0.581345
O O15 0.000000 0.347270 0.573900
O O16 0.834874 0.834874 0.250000
O O17 0.000000 0.740385 0.263725
#
# Coordination Sequence:
#
# PCOD9566223 Si02
#       6
#    16  16  16  16  16  16
#     4   9  18  30  44  67  98 130 163 195 233 291
#     4   9  18  33  53  73  92 121 162 202 243 293
#     4  10  19  32  50  70  96 128 161 200 244 286
#     4  10  19  31  48  71  99 131 166 198 233 281
#     4   8  14  25  42  65  92 123 158 195 234 272
#     4  11  21  34  51  72  98 127 160 201 246 289
#
# _framework density 15.320081999999999
#
# number of rings (size 3 to 8) (size 9 to 14) (size 15 to 20)
#    0.000    2.500    1.667    2.500    0.000    3.833 
#    0.000    2.500    0.000    0.500    0.000    2.333 
#    0.000    0.000    0.000    4.333    0.000    0.333 
#
# Total GULP energy -534787.129705 kJ/mol
# GULP energy per Si atom -5570.699268 kJ/mol
# Density = 1.528521 g / cm^3
# Si number density = 15.320082 Si / 1000 Ang^3
#
#
#
# Elastic Constant Matrix: (Units=GPa)
#
#
# Indices 1 2 3 4 5 6 
#
# 1 64.5259 24.9948 37.3352 0.0000 0.0000 0.0000
# 2 24.9948 64.5259 37.3352 0.0000 0.0000 0.0000
# 3 37.3352 37.3352 79.1582 0.0000 0.0000 0.0000
# 4 0.0000 0.0000 0.0000 11.6304 0.0000 0.0000
# 5 0.0000 0.0000 0.0000 0.0000 11.6304 0.0000
# 6 0.0000 0.0000 0.0000 0.0000 0.0000 18.0488
#
#
#
# Elastic Compliance Matrix: (Units=1/GPa)
#
#
# Indices 1 2 3 4 5 6 
#
# 1 0.021856 -0.003441 -0.008686 0.000000 0.000000 0.000000
# 2 -0.003441 0.021856 -0.008686 0.000000 0.000000 0.000000
# 3 -0.008686 -0.008686 0.020826 0.000000 0.000000 0.000000
# 4 0.000000 0.000000 0.000000 0.085982 0.000000 0.000000
# 5 0.000000 0.000000 0.000000 0.000000 0.085982 0.000000
# 6 0.000000 0.000000 0.000000 0.000000 0.000000 0.055405
#
#
# Mechanical properties :
#
#
# Convention : Reuss Voigt Hill
#
# Bulk Modulus (GPa) = 43.64086 45.28225 44.46156
# Shear Modulus (GPa) = 14.65552 15.49826 15.07689
#
# Velocity S-wave (km/s) = 3.09629 3.18406 3.14048
# Velocity P-wave (km/s) = 6.42888 6.56805 6.49884
#
# Compressibility (1/GPa) = 0.02291431
#
# Stress axis : x y z
#
# Youngs Moduli (GPa) = 45.75408 45.75408 48.01646
#
# Poissons Ratio (x) = 0.15742 0.41706
# Poissons Ratio (y) = 0.15742 0.41706
# Poissons Ratio (z) = 0.39741 0.39741
#
# Static dielectric constant tensor:
#      x y z
#    x 1.512780 0.000000 0.000000 
#    y 0.000000 1.512780 0.000000 
#    z 0.000000 0.000000 1.496410 
# 
# From -- ./inp_files/13673.got.cif
#   From: 2010.05.17/outbox.cif.g08.bks.cpg/sg131_7_cif.got.tgz:13673.got - 2010.05.20 12:21:01.
