data_PCOD9566674
_publ_section_title
;
Structure prediction by ZEFSAII (Michael W. Deem and Ramdas Pophale) SiO2 
 PCOD9566674
Probable space group: P 42/M M C
;
_chemical_formula_sum "Si O2"
_cell_formula_units_Z 104
_cell_length_a 18.278835
_cell_length_b 18.278835
_cell_length_c 17.965074
_cell_angle_alpha 90.000000
_cell_angle_beta 90.000000
_cell_angle_gamma 90.000000
_cell_volume 6002.415232
_symmetry_space_group_name_H-M "P 42/M M C"
_symmetry_group_IT_number 131
_symmetry_cell_setting 'tetragonal'
loop_
_space_group_symop_operation_xyz
x,y,z
-x,-y,z
-y,x,1/2+z
y,-x,1/2+z
-x,y,-z
x,-y,-z
y,x,1/2-z
-y,-x,1/2-z
-x,-y,-z
x,y,-z
y,-x,1/2-z
-y,x,1/2-z
x,-y,z
-x,y,z
-y,-x,1/2+z
y,x,1/2+z
loop_
_atom_site_type_symbol
_atom_site_label
_atom_site_fract_x
_atom_site_fract_y
_atom_site_fract_z
Si Si1 0.773215 0.270819 0.588215
Si Si2 0.912463 0.588285 0.000000
Si Si3 0.307199 0.580884 0.588926
Si Si4 0.645484 0.180497 0.642149
Si Si5 0.417475 0.913860 0.234172
Si Si6 0.339599 0.414849 0.180301
Si Si7 0.915867 0.659582 0.416151
O O1 0.757142 0.263973 0.500000
O O2 0.744205 0.351395 0.612496
O O3 0.727526 0.208693 0.628310
O O4 0.859638 0.275041 0.598596
O O5 0.868554 0.617419 0.072750
O O6 0.909111 0.500000 0.000000
O O7 0.000000 0.607922 0.000000
O O8 0.303812 0.578196 0.500000
O O9 0.288040 0.500000 0.618187
O O10 0.387118 0.605944 0.615710
O O11 0.636312 0.133239 0.716069
O O12 0.600936 0.256561 0.653827
O O13 0.500000 0.890735 0.251839
O O14 0.400847 0.905885 0.147034
O O15 0.410647 0.000000 0.251984
O O16 0.364595 0.364595 0.250000
O O17 0.348320 0.500000 0.197957
O O18 0.899986 0.631970 0.500000
O O19 0.000000 0.682879 0.413536
#
# Coordination Sequence:
#
# PCOD9566674 Si02
#       7
#    16   8  16  16  16  16  16
#     4   9  18  34  54  77 103 135 178 222 268 323
#     4  11  22  38  62  86 112 146 180 221 282 346
#     4   9  19  34  51  71  94 127 175 232 287 327
#     4  11  22  37  55  80 108 142 182 226 275 330
#     4  10  21  35  52  78 111 143 178 222 268 320
#     4  11  24  37  51  71 100 141 189 237 281 326
#     4   9  19  35  55  78 106 139 177 222 271 327
#
# _framework density 17.326357999999999
#
# number of rings (size 3 to 8) (size 9 to 14) (size 15 to 20)
#    0.000    2.077    0.769    2.308    5.385    3.538 
#    0.000    3.846    0.000    0.000    0.000    0.000 
#    0.000    3.077    0.000    6.769    0.000    0.000 
#
# Total GULP energy -579884.243604 kJ/mol
# GULP energy per Si atom -5575.810035 kJ/mol
# Density = 1.728692 g / cm^3
# Si number density = 17.326358 Si / 1000 Ang^3
#
#
#
# Elastic Constant Matrix: (Units=GPa)
#
#
# Indices 1 2 3 4 5 6 
#
# 1 73.6332 22.5578 33.1656 0.0000 0.0000 0.0000
# 2 22.5578 73.6332 33.1656 0.0000 0.0000 0.0000
# 3 33.1656 33.1656 61.1160 0.0000 0.0000 0.0000
# 4 0.0000 0.0000 0.0000 24.1801 0.0000 0.0000
# 5 0.0000 0.0000 0.0000 0.0000 24.1801 0.0000
# 6 0.0000 0.0000 0.0000 0.0000 0.0000 15.5388
#
#
#
# Elastic Compliance Matrix: (Units=1/GPa)
#
#
# Indices 1 2 3 4 5 6 
#
# 1 0.018096 -0.001483 -0.009015 0.000000 0.000000 0.000000
# 2 -0.001483 0.018096 -0.009015 0.000000 0.000000 0.000000
# 3 -0.009015 -0.009015 0.026147 0.000000 0.000000 0.000000
# 4 0.000000 0.000000 0.000000 0.041356 0.000000 0.000000
# 5 0.000000 0.000000 0.000000 0.000000 0.041356 0.000000
# 6 0.000000 0.000000 0.000000 0.000000 0.000000 0.064355
#
#
# Mechanical properties :
#
#
# Convention : Reuss Voigt Hill
#
# Bulk Modulus (GPa) = 42.89729 42.90673 42.90201
# Shear Modulus (GPa) = 19.51576 20.74602 20.13089
#
# Velocity S-wave (km/s) = 3.35977 3.46405 3.41231
# Velocity P-wave (km/s) = 6.31371 6.38883 6.35138
#
# Compressibility (1/GPa) = 0.02331150
#
# Stress axis : x y z
#
# Youngs Moduli (GPa) = 55.26159 55.26159 38.24568
#
# Poissons Ratio (x) = 0.08196 0.34479
# Poissons Ratio (y) = 0.08196 0.34479
# Poissons Ratio (z) = 0.49819 0.49819
#
# Static dielectric constant tensor:
#      x y z
#    x 1.595780 0.000000 0.000000 
#    y 0.000000 1.595780 0.000000 
#    z 0.000000 0.000000 1.642620 
# 
# From -- ./inp_files/8096.got.cif
#   From: 2010.05.17/outbox.cif.g08.bks.cpg/sg131_5_cif.got.tgz:8096.got - 2010.05.20 12:21:01.
