data_PCOD9566472
_publ_section_title
;
Structure prediction by ZEFSAII (Michael W. Deem and Ramdas Pophale) SiO2 
 PCOD9566472
Probable space group: P 42/M M C
;
_chemical_formula_sum "Si O2"
_cell_formula_units_Z 48
_cell_length_a 9.141070
_cell_length_b 9.141070
_cell_length_c 32.594876
_cell_angle_alpha 90.000000
_cell_angle_beta 90.000000
_cell_angle_gamma 90.000000
_cell_volume 2723.600483
_symmetry_space_group_name_H-M "P 42/M M C"
_symmetry_group_IT_number 131
_symmetry_cell_setting 'tetragonal'
loop_
_space_group_symop_operation_xyz
x,y,z
-x,-y,z
-y,x,1/2+z
y,-x,1/2+z
-x,y,-z
x,-y,-z
y,x,1/2-z
-y,-x,1/2-z
-x,-y,-z
x,y,-z
y,-x,1/2-z
-y,x,1/2-z
x,-y,z
-x,y,z
-y,-x,1/2+z
y,x,1/2+z
loop_
_atom_site_type_symbol
_atom_site_label
_atom_site_fract_x
_atom_site_fract_y
_atom_site_fract_z
Si Si1 0.668387 0.178205 0.000000
Si Si2 0.171619 0.824055 0.083430
Si Si3 0.674446 0.675902 0.839710
Si Si4 0.324654 0.324654 0.250000
O O1 0.749362 0.224790 0.041513
O O2 0.500000 0.225323 0.000000
O O3 0.670638 0.000000 0.000000
O O4 0.243593 0.751116 0.123004
O O5 0.000000 0.790516 0.081196
O O6 0.187830 0.000000 0.086369
O O7 0.692905 0.500000 0.841571
O O8 0.500000 0.704584 0.842623
O O9 0.728273 0.728066 0.794491
O O10 0.302333 0.500000 0.250281
#
# Coordination Sequence:
#
# PCOD9566472 Si02
#       4
#     8  16  16   8
#     4   9  17  31  52  73  92 121 164 208 244 283
#     4  10  20  33  49  71 100 131 160 194 241 294
#     4   9  17  31  52  75  97 124 161 203 243 284
#     4   7  12  26  48  71  94 122 158 199 240 281
#
# _framework density 17.623729999999998
#
# number of rings (size 3 to 8) (size 9 to 14) (size 15 to 20)
#    0.000    3.000    0.000    3.500    0.000    4.667 
#    0.000    2.500    0.000   13.000    0.000    0.000 
#    0.000    0.000    0.000    0.000    0.000    0.000 
#
# Total GULP energy -267377.580104 kJ/mol
# GULP energy per Si atom -5570.366252 kJ/mol
# Density = 1.758362 g / cm^3
# Si number density = 17.623730 Si / 1000 Ang^3
#
#
#
# Elastic Constant Matrix: (Units=GPa)
#
#
# Indices 1 2 3 4 5 6 
#
# 1 52.9110 37.5113 73.8081 0.0000 0.0000 0.0000
# 2 37.5113 52.9110 73.8081 0.0000 0.0000 0.0000
# 3 73.8081 73.8081 247.5760 0.0000 0.0000 0.0000
# 4 0.0000 0.0000 0.0000 84.3139 0.0000 0.0000
# 5 0.0000 0.0000 0.0000 0.0000 84.3139 0.0000
# 6 0.0000 0.0000 0.0000 0.0000 0.0000 22.2253
#
#
#
# Elastic Compliance Matrix: (Units=1/GPa)
#
#
# Indices 1 2 3 4 5 6 
#
# 1 0.043241 -0.021696 -0.006423 0.000000 0.000000 0.000000
# 2 -0.021696 0.043241 -0.006423 0.000000 0.000000 0.000000
# 3 -0.006423 -0.006423 0.007869 0.000000 0.000000 0.000000
# 4 0.000000 0.000000 0.000000 0.011860 0.000000 0.000000
# 5 0.000000 0.000000 0.000000 0.000000 0.011860 0.000000
# 6 0.000000 0.000000 0.000000 0.000000 0.000000 0.044994
#
#
# Mechanical properties :
#
#
# Convention : Reuss Voigt Hill
#
# Bulk Modulus (GPa) = 39.57786 80.40588 59.99187
# Shear Modulus (GPa) = 20.78390 49.38864 35.08627
#
# Velocity S-wave (km/s) = 3.43784 5.29951 4.46674
# Velocity P-wave (km/s) = 6.18581 9.11971 7.79209
#
# Compressibility (1/GPa) = 0.02526665
#
# Stress axis : x y z
#
# Youngs Moduli (GPa) = 23.12634 23.12634 127.08278
#
# Poissons Ratio (x) = 0.50174 0.81626
# Poissons Ratio (y) = 0.50174 0.81626
# Poissons Ratio (z) = 0.14854 0.14854
#
# Static dielectric constant tensor:
#      x y z
#    x 1.587070 0.000000 0.000000 
#    y 0.000000 1.587070 0.000000 
#    z 0.000000 0.000000 1.615740 
# 
# From -- ./inp_files/12860.got.cif
#   From: 2010.05.17/outbox.cif.g08.bks.cpg/sg131_7_cif.got.tgz:12860.got - 2010.05.20 12:21:01.
