data_PCOD9566022
_publ_section_title
;
Structure prediction by ZEFSAII (Michael W. Deem and Ramdas Pophale) SiO2 
 PCOD9566022
Probable space group: P 4/N C C
;
_chemical_formula_sum "Si O2"
_cell_formula_units_Z 116
_cell_length_a 18.000000
_cell_length_b 18.000000
_cell_length_c 18.000000
_cell_angle_alpha 90.000000
_cell_angle_beta 90.000000
_cell_angle_gamma 90.000000
_cell_volume 5832.000000
_symmetry_space_group_name_H-M "P 4/N C C"
_symmetry_group_IT_number 130
_symmetry_cell_setting 'tetragonal'
loop_
_space_group_symop_operation_xyz
x,y,z
1/2-y,x,z
1/2-x,1/2-y,z
y,1/2-x,z
1/2+x,-y,1/2-z
-x,1/2+y,1/2-z
1/2+y,1/2+x,1/2-z
-y,-x,1/2-z
-x,-y,-z
1/2+y,-x,-z
1/2+x,1/2+y,-z
-y,1/2+x,-z
1/2-x,y,1/2+z
x,1/2-y,1/2+z
1/2-y,1/2-x,1/2+z
y,x,1/2+z
loop_
_atom_site_type_symbol
_atom_site_label
_atom_site_fract_x
_atom_site_fract_y
_atom_site_fract_z
Si Si1 0.160396 0.450995 0.102366
Si Si2 0.461072 0.083616 0.761417
Si Si3 0.668232 0.126136 0.928837
Si Si4 0.750000 0.250000 0.000000
Si Si5 0.450332 0.176595 0.054239
Si Si6 0.905294 0.187081 0.649755
Si Si7 0.466725 0.831450 0.698751
Si Si8 0.190740 0.507024 0.390810
O O1 0.132584 0.451275 0.187464
O O2 0.158074 0.536333 0.069920
O O3 0.245251 0.424671 0.090429
O O4 0.103748 0.392845 0.065553
O O5 0.470390 0.136316 0.831455
O O6 0.535009 0.035009 0.750000
O O7 0.395703 0.024327 0.778314
O O8 0.739643 0.139175 0.874802
O O9 0.592186 0.163200 0.901658
O O10 0.697895 0.172645 0.999466
O O11 0.531355 0.164622 0.091160
O O12 0.465127 0.187082 0.968066
O O13 0.862210 0.111986 0.669115
O O14 0.947633 0.210604 0.724968
O O15 0.496399 0.773949 0.639514
#
# Coordination Sequence:
#
# PCOD9566022 Si02
#       8
#    16  16  16   4  16  16  16  16
#     4  11  24  45  72  95 139 182 239 284 358 411
#     4  12  23  47  70 102 136 186 235 291 337 434
#     4  11  23  41  65  99 144 183 224 277 343 435
#     4  12  24  44  60 106 152 184 216 274 360 420
#     4  11  25  44  67 105 132 185 232 301 351 417
#     4  10  21  41  68  96 139 182 228 279 346 424
#     4  11  23  43  69  98 135 184 233 288 345 422
#     4  12  27  40  70 105 140 179 234 293 353 409
#
# _framework density 19.890260999999999
#
# number of rings (size 3 to 8) (size 9 to 14) (size 15 to 20)
#    0.000    0.828    4.138    4.138    1.931    3.034 
#    0.000    1.379    0.000    0.414    0.000    0.000 
#    0.000    0.000    0.000    0.000    0.000    0.000 
#
# Total GULP energy -646834.472914 kJ/mol
# GULP energy per Si atom -5576.159249 kJ/mol
# Density = 1.984499 g / cm^3
# Si number density = 19.890261 Si / 1000 Ang^3
#
#
#
# Elastic Constant Matrix: (Units=GPa)
#
#
# Indices 1 2 3 4 5 6 
#
# 1 78.7663 21.1665 27.3336 0.0000 0.0000 0.0000
# 2 21.1665 78.7663 27.3336 0.0000 0.0000 0.0000
# 3 27.3336 27.3336 105.8285 0.0000 0.0000 0.0000
# 4 0.0000 0.0000 0.0000 30.0596 0.0000 0.0000
# 5 0.0000 0.0000 0.0000 0.0000 30.0596 0.0000
# 6 0.0000 0.0000 0.0000 0.0000 0.0000 23.1128
#
#
#
# Elastic Compliance Matrix: (Units=1/GPa)
#
#
# Indices 1 2 3 4 5 6 
#
# 1 0.014507 -0.002854 -0.003010 0.000000 0.000000 0.000000
# 2 -0.002854 0.014507 -0.003010 0.000000 0.000000 0.000000
# 3 -0.003010 -0.003010 0.011004 0.000000 0.000000 0.000000
# 4 0.000000 0.000000 0.000000 0.033267 0.000000 0.000000
# 5 0.000000 0.000000 0.000000 0.000000 0.033267 0.000000
# 6 0.000000 0.000000 0.000000 0.000000 0.000000 0.043266
#
#
# Mechanical properties :
#
#
# Convention : Reuss Voigt Hill
#
# Bulk Modulus (GPa) = 44.90106 46.11425 45.50766
# Shear Modulus (GPa) = 28.57308 29.14823 28.86066
#
# Velocity S-wave (km/s) = 3.79428 3.83228 3.81332
# Velocity P-wave (km/s) = 6.46675 6.54343 6.50520
#
# Compressibility (1/GPa) = 0.02227119
#
# Stress axis : x y z
#
# Youngs Moduli (GPa) = 68.93135 68.93135 90.87595
#
# Poissons Ratio (x) = 0.19673 0.27352
# Poissons Ratio (y) = 0.19673 0.27352
# Poissons Ratio (z) = 0.20747 0.20747
#
# Static dielectric constant tensor:
#      x y z
#    x 1.700020 0.000000 0.000000 
#    y 0.000000 1.700020 0.000000 
#    z 0.000000 0.000000 1.799290 
# 
# From -- ./inp_files/3232.got.cif
#   From: 2010.05.17/outbox.ucp.g08.bks.cvg/sg130_2_cif.got.tgz:3232.got - 2010.06.11 11:38:29.
