data_PCOD9566679
_publ_section_title
;
Structure prediction by ZEFSAII (Michael W. Deem and Ramdas Pophale) SiO2 
 PCOD9566679
Probable space group: P 42/M M C
;
_chemical_formula_sum "Si O2"
_cell_formula_units_Z 120
_cell_length_a 16.396270
_cell_length_b 16.396270
_cell_length_c 29.799884
_cell_angle_alpha 90.000000
_cell_angle_beta 90.000000
_cell_angle_gamma 90.000000
_cell_volume 8011.331378
_symmetry_space_group_name_H-M "P 42/M M C"
_symmetry_group_IT_number 131
_symmetry_cell_setting 'tetragonal'
loop_
_space_group_symop_operation_xyz
x,y,z
-x,-y,z
-y,x,1/2+z
y,-x,1/2+z
-x,y,-z
x,-y,-z
y,x,1/2-z
-y,-x,1/2-z
-x,-y,-z
x,y,-z
y,-x,1/2-z
-y,x,1/2-z
x,-y,z
-x,y,z
-y,-x,1/2+z
y,x,1/2+z
loop_
_atom_site_type_symbol
_atom_site_label
_atom_site_fract_x
_atom_site_fract_y
_atom_site_fract_z
Si Si1 0.596123 0.098591 0.209712
Si Si2 0.098738 0.334451 0.196334
Si Si3 0.163115 0.092702 0.893811
Si Si4 0.902128 0.648736 0.613305
Si Si5 0.500000 0.900241 0.051538
Si Si6 0.143809 0.097173 0.699104
Si Si7 0.097843 0.755122 0.949050
Si Si8 0.407942 0.900491 0.397630
O O1 0.500000 0.113894 0.208556
O O2 0.633998 0.129986 0.255904
O O3 0.635081 0.130026 0.163692
O O4 0.607114 0.000000 0.210314
O O5 0.116754 0.239044 0.191657
O O6 0.125132 0.386355 0.153321
O O7 0.000000 0.341002 0.197138
O O8 0.258718 0.109466 0.901048
O O9 0.143003 0.096756 0.840637
O O10 0.117788 0.165966 0.918998
O O11 0.143817 0.000000 0.909191
O O12 0.872940 0.580074 0.578816
O O13 0.000000 0.636673 0.616111
O O14 0.500000 0.000000 0.051054
O O15 0.500000 0.873601 0.000000
O O16 0.119725 0.119725 0.750000
O O17 0.131763 0.000000 0.693555
O O18 0.126503 0.668958 0.927814
O O19 0.000000 0.749565 0.950396
O O20 0.128081 0.765297 0.000000
O O21 0.500000 0.874821 0.410327
O O22 0.407995 0.000000 0.398578
#
# Coordination Sequence:
#
# PCOD9566679 Si02
#       8
#    16  16  16  16   8  16  16  16
#     4   9  14  22  39  62  87 110 136 175 227 282
#     4   9  16  26  41  62  87 113 143 185 234 282
#     4  11  22  34  48  64  89 126 166 205 240 272
#     4   9  17  29  43  63  87 112 148 190 231 278
#     4   9  16  28  46  64  84 110 141 187 240 282
#     4  11  21  32  44  61  89 125 168 211 244 272
#     4  10  21  36  50  65  88 119 158 204 245 278
#     4   9  16  29  49  70  89 108 139 186 242 298
#
# _framework density 14.978783999999999
#
# number of rings (size 3 to 8) (size 9 to 14) (size 15 to 20)
#    0.000    2.333    2.000    2.000    0.000    6.533 
#    0.000    3.333    0.000    0.000    0.000    0.000 
#    0.000    0.000    0.000    0.600    0.000    2.667 
#
# Total GULP energy -668294.113347 kJ/mol
# GULP energy per Si atom -5569.117611 kJ/mol
# Density = 1.494469 g / cm^3
# Si number density = 14.978784 Si / 1000 Ang^3
#
#
#
# Elastic Constant Matrix: (Units=GPa)
#
#
# Indices 1 2 3 4 5 6 
#
# 1 40.1430 22.4830 26.7303 0.0000 0.0000 0.0000
# 2 22.4830 40.1430 26.7303 0.0000 0.0000 0.0000
# 3 26.7303 26.7303 80.0147 0.0000 0.0000 0.0000
# 4 0.0000 0.0000 0.0000 14.2001 0.0000 0.0000
# 5 0.0000 0.0000 0.0000 0.0000 14.2001 0.0000
# 6 0.0000 0.0000 0.0000 0.0000 0.0000 -3.0013
#
#
#
# Elastic Compliance Matrix: (Units=1/GPa)
#
#
# Indices 1 2 3 4 5 6 
#
# 1 0.039482 -0.017143 -0.007462 0.000000 0.000000 0.000000
# 2 -0.017143 0.039482 -0.007462 0.000000 0.000000 0.000000
# 3 -0.007462 -0.007462 0.017484 0.000000 0.000000 0.000000
# 4 0.000000 0.000000 0.000000 0.070422 0.000000 0.000000
# 5 0.000000 0.000000 0.000000 0.000000 0.070422 0.000000
# 6 0.000000 0.000000 0.000000 0.000000 0.000000 -0.333193
#
#
# Mechanical properties :
#
#
# Convention : Reuss Voigt Hill
#
# Bulk Modulus (GPa) = 30.95006 34.68753 32.81880
# Shear Modulus (GPa) = -238.14474 10.70359 -113.72057
#
# Velocity S-wave (km/s) = -12.62272 2.67607 -8.72272
# Velocity P-wave (km/s) = 13.84691 5.72333 8.91572
#
# Compressibility (1/GPa) = 0.03231012
#
# Stress axis : x y z
#
# Youngs Moduli (GPa) = 25.32826 25.32826 57.19635
#
# Poissons Ratio (x) = 0.43421 0.42682
# Poissons Ratio (y) = 0.43421 0.42682
# Poissons Ratio (z) = 0.18901 0.18901
#
# Static dielectric constant tensor:
#      x y z
#    x 1.489280 0.000000 0.000000 
#    y 0.000000 1.489280 0.000000 
#    z 0.000000 0.000000 1.538470 
# 
# From -- ./inp_files/13955.got.cif
#   From: 2010.05.17/outbox.cif.g08.bks.cpg/sg131_7_cif.got.tgz:13955.got - 2010.05.20 12:21:01.
