data_PCOD9566202
_publ_section_title
;
Structure prediction by ZEFSAII (Michael W. Deem and Ramdas Pophale) SiO2 
 PCOD9566202
Probable space group: P 42/M M C
;
_chemical_formula_sum "Si O2"
_cell_formula_units_Z 48
_cell_length_a 7.847356
_cell_length_b 7.847356
_cell_length_c 39.165864
_cell_angle_alpha 90.000000
_cell_angle_beta 90.000000
_cell_angle_gamma 90.000000
_cell_volume 2411.872922
_symmetry_space_group_name_H-M "P 42/M M C"
_symmetry_group_IT_number 131
_symmetry_cell_setting 'tetragonal'
loop_
_space_group_symop_operation_xyz
x,y,z
-x,-y,z
-y,x,1/2+z
y,-x,1/2+z
-x,y,-z
x,-y,-z
y,x,1/2-z
-y,-x,1/2-z
-x,-y,-z
x,y,-z
y,-x,1/2-z
-y,x,1/2-z
x,-y,z
-x,y,z
-y,-x,1/2+z
y,x,1/2+z
loop_
_atom_site_type_symbol
_atom_site_label
_atom_site_fract_x
_atom_site_fract_y
_atom_site_fract_z
Si Si1 0.000000 0.205291 0.334812
Si Si2 0.793476 0.690236 0.787956
Si Si3 0.693641 0.291964 0.538980
Si Si4 0.705137 0.000000 0.913964
O O1 0.166363 0.266325 0.314312
O O2 0.000000 0.252325 0.374271
O O3 0.000000 0.000000 0.332891
O O4 0.727461 0.727461 0.750000
O O5 0.744171 0.500000 0.798527
O O6 0.000000 0.698344 0.786266
O O7 0.736736 0.242305 0.500000
O O8 0.693689 0.500000 0.539429
O O9 0.500000 0.237293 0.546370
O O10 0.832552 0.232007 0.566031
O O11 0.500000 0.000000 0.916857
#
# Coordination Sequence:
#
# PCOD9566202 Si02
#       4
#     8  16  16   8
#     4  10  22  37  53  75 112 148 176 216 274 332
#     4  10  20  36  60  82 102 135 180 226 274 329
#     4   8  14  26  46  72 100 132 174 224 274 320
#     4  10  19  30  48  74 102 134 174 220 266 320
#
# _framework density 19.901547999999998
#
# number of rings (size 3 to 8) (size 9 to 14) (size 15 to 20)
#    0.000    2.667    1.667    1.500    0.000    5.000 
#    0.000    0.000    0.000    2.000    0.000    2.333 
#    0.000    0.000    0.000    0.000    0.000    0.000 
#
# Total GULP energy -267959.146916 kJ/mol
# GULP energy per Si atom -5582.482227 kJ/mol
# Density = 1.985625 g / cm^3
# Si number density = 19.901548 Si / 1000 Ang^3
#
#
#
# Elastic Constant Matrix: (Units=GPa)
#
#
# Indices 1 2 3 4 5 6 
#
# 1 78.1340 48.8211 74.3562 0.0000 0.0000 0.0000
# 2 48.8211 78.1340 74.3562 0.0000 0.0000 0.0000
# 3 74.3562 74.3562 186.1353 0.0000 0.0000 0.0000
# 4 0.0000 0.0000 0.0000 13.5838 0.0000 0.0000
# 5 0.0000 0.0000 0.0000 0.0000 13.5838 0.0000
# 6 0.0000 0.0000 0.0000 0.0000 0.0000 4.7404
#
#
#
# Elastic Compliance Matrix: (Units=1/GPa)
#
#
# Indices 1 2 3 4 5 6 
#
# 1 0.024459 -0.009655 -0.005914 0.000000 0.000000 0.000000
# 2 -0.009655 0.024459 -0.005914 0.000000 0.000000 0.000000
# 3 -0.005914 -0.005914 0.010097 0.000000 0.000000 0.000000
# 4 0.000000 0.000000 0.000000 0.073617 0.000000 0.000000
# 5 0.000000 0.000000 0.000000 0.000000 0.073617 0.000000
# 6 0.000000 0.000000 0.000000 0.000000 0.000000 0.210954
#
#
# Mechanical properties :
#
#
# Convention : Reuss Voigt Hill
#
# Bulk Modulus (GPa) = 62.30469 81.94117 72.12293
# Shear Modulus (GPa) = 10.74067 16.03958 13.39012
#
# Velocity S-wave (km/s) = 2.32564 2.84200 2.59669
# Velocity P-wave (km/s) = 6.21176 7.21332 6.73119
#
# Compressibility (1/GPa) = 0.01605016
#
# Stress axis : x y z
#
# Youngs Moduli (GPa) = 40.88405 40.88405 99.03610
#
# Poissons Ratio (x) = 0.39474 0.58569
# Poissons Ratio (y) = 0.39474 0.58569
# Poissons Ratio (z) = 0.24178 0.24178
#
# Static dielectric constant tensor:
#      x y z
#    x 1.727720 0.000000 0.000000 
#    y 0.000000 1.727720 0.000000 
#    z 0.000000 0.000000 1.639160 
# 
# From -- ./inp_files/12871.got.cif
#   From: 2010.05.17/outbox.cif.g08.bks.cpg/sg131_7_cif.got.tgz:12871.got - 2010.05.20 12:21:01.
