data_PCOD9566009
_publ_section_title
;
Structure prediction by ZEFSAII (Michael W. Deem and Ramdas Pophale) SiO2 
 PCOD9566009
Probable space group: P 4/N C C
;
_chemical_formula_sum "Si O2"
_cell_formula_units_Z 56
_cell_length_a 16.259568
_cell_length_b 16.259568
_cell_length_c 7.319419
_cell_angle_alpha 90.000000
_cell_angle_beta 90.000000
_cell_angle_gamma 90.000000
_cell_volume 1935.060796
_symmetry_space_group_name_H-M "P 4/N C C"
_symmetry_group_IT_number 130
_symmetry_cell_setting 'tetragonal'
loop_
_space_group_symop_operation_xyz
x,y,z
1/2-y,x,z
1/2-x,1/2-y,z
y,1/2-x,z
1/2+x,-y,1/2-z
-x,1/2+y,1/2-z
1/2+y,1/2+x,1/2-z
-y,-x,1/2-z
-x,-y,-z
1/2+y,-x,-z
1/2+x,1/2+y,-z
-y,1/2+x,-z
1/2-x,y,1/2+z
x,1/2-y,1/2+z
1/2-y,1/2-x,1/2+z
y,x,1/2+z
loop_
_atom_site_type_symbol
_atom_site_label
_atom_site_fract_x
_atom_site_fract_y
_atom_site_fract_z
Si Si1 0.250000 0.750000 0.500000
Si Si2 0.005592 0.120473 0.235779
Si Si3 0.750000 0.750000 0.960507
Si Si4 0.819630 0.569135 0.396023
Si Si5 0.077532 0.687484 0.627254
O O1 0.159478 0.745009 0.599041
O O2 0.970592 0.029409 0.250000
O O3 0.009150 0.156134 0.438886
O O4 0.098757 0.111244 0.178340
O O5 0.951897 0.160325 0.073612
O O6 0.734073 0.648677 0.955687
O O7 0.790171 0.506775 0.237345
O O8 0.114632 0.614632 0.750000
#
# Coordination Sequence:
#
# PCOD9566009 Si02
#       5
#     4  16   4  16  16
#     4  12  34  60  98 150 204 270 338 452 550 618
#     4  12  25  53  95 140 188 260 348 424 522 613
#     4  12  36  62  90 152 218 286 348 434 526 624
#     4  12  28  57  93 138 204 270 348 428 510 630
#     4  12  28  61  96 139 198 260 345 436 525 628
#
# _framework density 28.939657
#
# number of rings (size 3 to 8) (size 9 to 14) (size 15 to 20)
#    0.000    0.000    5.714    2.143    0.000   10.286 
#    5.143    5.714    0.000    0.000    0.000    0.000 
#    0.000    0.000    0.000    0.000    0.000    0.000 
#
# Total GULP energy -312571.576967 kJ/mol
# GULP energy per Si atom -5581.635303 kJ/mol
# Density = 2.887379 g / cm^3
# Si number density = 28.939657 Si / 1000 Ang^3
#
#
#
# Elastic Constant Matrix: (Units=GPa)
#
#
# Indices 1 2 3 4 5 6 
#
# 1 147.0380 45.9785 53.4472 0.0000 0.0000 0.0000
# 2 45.9785 147.0485 53.4528 0.0000 0.0000 0.0000
# 3 53.4472 53.4528 153.5000 0.0000 0.0000 0.0000
# 4 0.0000 0.0000 0.0000 -17.4796 0.0000 0.0000
# 5 0.0000 0.0000 0.0000 0.0000 -17.4840 0.0000
# 6 0.0000 0.0000 0.0000 0.0000 0.0000 91.7625
#
#
#
# Elastic Compliance Matrix: (Units=1/GPa)
#
#
# Indices 1 2 3 4 5 6 
#
# 1 0.008157 -0.001738 -0.002235 0.000000 0.000000 0.000000
# 2 -0.001738 0.008156 -0.002235 0.000000 0.000000 0.000000
# 3 -0.002235 -0.002235 0.008071 0.000000 0.000000 0.000000
# 4 0.000000 0.000000 0.000000 -0.057210 0.000000 0.000000
# 5 0.000000 0.000000 0.000000 0.000000 -0.057195 0.000000
# 6 0.000000 0.000000 0.000000 0.000000 0.000000 0.010898
#
#
# Mechanical properties :
#
#
# Convention : Reuss Voigt Hill
#
# Bulk Modulus (GPa) = 83.55421 83.70483 83.62952
# Shear Modulus (GPa) = -79.72282 31.00699 -24.35791
#
# Velocity S-wave (km/s) = -5.25431 3.27683 -2.90432
# Velocity P-wave (km/s) = 2.80638 6.58054 4.20879
#
# Compressibility (1/GPa) = 0.01196828
#
# Stress axis : x y z
#
# Youngs Moduli (GPa) = 122.59690 122.60326 123.89811
#
# Poissons Ratio (x) = 0.21309 0.27690
# Poissons Ratio (y) = 0.21308 0.27693
# Poissons Ratio (z) = 0.27399 0.27403
#
# Static dielectric constant tensor:
#      x y z
#    x 2.434320 0.000000 0.000000 
#    y 0.000000 2.434280 0.000000 
#    z 0.000000 0.000000 2.282570 
# 
# From -- ./inp_files/1497.got.cif
#   From: 2010.05.17/outbox.cif.g08.bks.cpg/sg130_1_cif.got.tgz:1497.got - 2010.05.20 12:17:35.
