data_PCOD9566893
_publ_section_title
;
Structure prediction by ZEFSAII (Michael W. Deem and Ramdas Pophale) SiO2 
 PCOD9566893
Probable space group: P 42/M M C
;
_chemical_formula_sum "Si O2"
_cell_formula_units_Z 80
_cell_length_a 14.479550
_cell_length_b 14.479550
_cell_length_c 21.897496
_cell_angle_alpha 90.000000
_cell_angle_beta 90.000000
_cell_angle_gamma 90.000000
_cell_volume 4590.971382
_symmetry_space_group_name_H-M "P 42/M M C"
_symmetry_group_IT_number 131
_symmetry_cell_setting 'tetragonal'
loop_
_space_group_symop_operation_xyz
x,y,z
-x,-y,z
-y,x,1/2+z
y,-x,1/2+z
-x,y,-z
x,-y,-z
y,x,1/2-z
-y,-x,1/2-z
-x,-y,-z
x,y,-z
y,-x,1/2-z
-y,x,1/2-z
x,-y,z
-x,y,z
-y,-x,1/2+z
y,x,1/2+z
loop_
_atom_site_type_symbol
_atom_site_label
_atom_site_fract_x
_atom_site_fract_y
_atom_site_fract_z
Si Si1 0.887229 0.607618 0.686805
Si Si2 0.103856 0.892815 0.363598
Si Si3 0.287119 0.110468 0.933559
Si Si4 0.390691 0.111862 0.432514
Si Si5 0.888715 0.292342 0.191050
O O1 0.862955 0.500000 0.688553
O O2 0.854115 0.656489 0.624745
O O3 0.853852 0.659858 0.747591
O O4 0.000000 0.613111 0.686610
O O5 0.119033 0.821416 0.418370
O O6 0.183365 0.873873 0.315105
O O7 0.000000 0.876643 0.339476
O O8 0.110853 0.000000 0.382408
O O9 0.305205 0.000000 0.935810
O O10 0.310255 0.149333 0.000000
O O11 0.359424 0.144433 0.500000
O O12 0.500000 0.131193 0.426697
O O13 0.337668 0.145785 0.372431
O O14 0.381331 0.000000 0.433045
O O15 0.000000 0.306168 0.191425
#
# Coordination Sequence:
#
# PCOD9566893 Si02
#       5
#    16  16  16  16  16
#     4   9  17  29  45  63  80 100 134 186 243 286
#     4   9  18  31  45  61  85 120 158 193 224 254
#     4   9  18  31  44  59  81 111 151 196 235 268
#     4   8  13  21  34  53  76 101 132 175 226 275
#     4   9  16  26  41  60  82 109 143 183 225 269
#
# _framework density 17.425505999999999
#
# number of rings (size 3 to 8) (size 9 to 14) (size 15 to 20)
#    0.000    3.200    0.000    1.200    0.000    4.800 
#    0.000    9.000    0.000    8.400    0.000    0.000 
#    0.000    0.000    0.000    0.000    0.000   17.000 
#
# Total GULP energy -445571.958357 kJ/mol
# GULP energy per Si atom -5569.649479 kJ/mol
# Density = 1.738584 g / cm^3
# Si number density = 17.425506 Si / 1000 Ang^3
#
#
#
# Elastic Constant Matrix: (Units=GPa)
#
#
# Indices 1 2 3 4 5 6 
#
# 1 47.8284 11.3112 50.1082 0.0000 0.0000 0.0000
# 2 11.3112 47.8284 50.1082 0.0000 0.0000 0.0000
# 3 50.1082 50.1082 188.1155 0.0000 0.0000 0.0000
# 4 0.0000 0.0000 0.0000 3.7227 0.0000 0.0000
# 5 0.0000 0.0000 0.0000 0.0000 3.7227 0.0000
# 6 0.0000 0.0000 0.0000 0.0000 0.0000 1.8469
#
#
#
# Elastic Compliance Matrix: (Units=1/GPa)
#
#
# Indices 1 2 3 4 5 6 
#
# 1 0.029103 0.001719 -0.008210 0.000000 0.000000 0.000000
# 2 0.001719 0.029103 -0.008210 0.000000 0.000000 0.000000
# 3 -0.008210 -0.008210 0.009690 0.000000 0.000000 0.000000
# 4 0.000000 0.000000 0.000000 0.268624 0.000000 0.000000
# 5 0.000000 0.000000 0.000000 0.000000 0.268624 0.000000
# 6 0.000000 0.000000 0.000000 0.000000 0.000000 0.541441
#
#
# Mechanical properties :
#
#
# Convention : Reuss Voigt Hill
#
# Bulk Modulus (GPa) = 25.97882 56.31416 41.14649
# Shear Modulus (GPa) = 4.20586 13.34143 8.77364
#
# Velocity S-wave (km/s) = 1.55527 2.77000 2.24630
# Velocity P-wave (km/s) = 4.26216 6.52823 5.51288
#
# Compressibility (1/GPa) = 0.03849290
#
# Stress axis : x y z
#
# Youngs Moduli (GPa) = 34.36086 34.36086 103.20342
#
# Poissons Ratio (x) = -0.05905 0.84729
# Poissons Ratio (y) = -0.05905 0.84729
# Poissons Ratio (z) = 0.28210 0.28210
#
# Static dielectric constant tensor:
#      x y z
#    x 1.590580 0.000000 0.000000 
#    y 0.000000 1.590580 0.000000 
#    z 0.000000 0.000000 1.638240 
# 
# From -- ./inp_files/9390.got.cif
#   From: 2010.05.17/outbox.cif.g08.bks.cpg/sg131_5_cif.got.tgz:9390.got - 2010.05.20 12:21:01.
