data_PCOD9566109
_publ_section_title
;
Structure prediction by ZEFSAII (Michael W. Deem and Ramdas Pophale) SiO2 
 PCOD9566109
Probable space group: P 42/M M C
;
_chemical_formula_sum "Si O2"
_cell_formula_units_Z 112
_cell_length_a 14.323829
_cell_length_b 14.323829
_cell_length_c 32.417759
_cell_angle_alpha 90.000000
_cell_angle_beta 90.000000
_cell_angle_gamma 90.000000
_cell_volume 6651.218953
_symmetry_space_group_name_H-M "P 42/M M C"
_symmetry_group_IT_number 131
_symmetry_cell_setting 'tetragonal'
loop_
_space_group_symop_operation_xyz
x,y,z
-x,-y,z
-y,x,1/2+z
y,-x,1/2+z
-x,y,-z
x,-y,-z
y,x,1/2-z
-y,-x,1/2-z
-x,-y,-z
x,y,-z
y,-x,1/2-z
-y,x,1/2-z
x,-y,z
-x,y,z
-y,-x,1/2+z
y,x,1/2+z
loop_
_atom_site_type_symbol
_atom_site_label
_atom_site_fract_x
_atom_site_fract_y
_atom_site_fract_z
Si Si1 0.202250 0.792781 0.294612
Si Si2 0.796794 0.391487 0.583650
Si Si3 0.887767 0.220108 0.454743
Si Si4 0.704476 0.393086 0.212100
Si Si5 0.603043 0.387939 0.622358
Si Si6 0.888390 0.394002 0.326062
Si Si7 0.890123 0.889097 0.372286
O O1 0.170120 0.829881 0.250000
O O2 0.314266 0.783836 0.291813
O O3 0.163240 0.687564 0.301497
O O4 0.166767 0.850355 0.333506
O O5 0.796068 0.500000 0.570858
O O6 0.843237 0.321478 0.551865
O O7 0.691759 0.359828 0.595203
O O8 0.855208 0.385569 0.626446
O O9 0.862367 0.182161 0.500000
O O10 0.860040 0.158311 0.415260
O O11 0.000000 0.227650 0.453401
O O12 0.639060 0.360940 0.250000
O O13 0.735097 0.500000 0.217867
O O14 0.649506 0.387510 0.168786
O O15 0.606444 0.500000 0.624254
O O16 0.500000 0.359946 0.606841
O O17 0.864243 0.500000 0.312735
O O18 0.000000 0.382596 0.323688
O O19 0.000000 0.865827 0.365804
O O20 0.881782 0.000000 0.375341
#
# Coordination Sequence:
#
# PCOD9566109 Si02
#       7
#    16  16  16  16  16  16  16
#     4  11  22  34  52  75 105 139 177 221 262 308
#     4  10  18  30  50  75 106 141 173 206 252 309
#     4  10  20  34  54  80 108 135 166 209 262 319
#     4  10  19  29  44  68 100 137 176 220 266 309
#     4   9  16  26  42  65  95 133 175 212 247 292
#     4  10  19  32  52  74 100 138 178 212 255 315
#     4  10  21  38  58  78 102 132 170 217 268 322
#
# _framework density 16.839017999999999
#
# number of rings (size 3 to 8) (size 9 to 14) (size 15 to 20)
#    0.000    2.000    2.857    1.286    0.000    5.571 
#    0.000    2.857    0.000    0.857    0.000    2.000 
#    0.000    0.000    0.000    6.000    0.000    0.286 
#
# Total GULP energy -624594.174377 kJ/mol
# GULP energy per Si atom -5576.733700 kJ/mol
# Density = 1.680069 g / cm^3
# Si number density = 16.839018 Si / 1000 Ang^3
#
#
#
# Elastic Constant Matrix: (Units=GPa)
#
#
# Indices 1 2 3 4 5 6 
#
# 1 54.7633 22.0228 37.7556 0.0000 0.0000 0.0000
# 2 22.0228 54.7627 37.7553 0.0000 0.0000 0.0000
# 3 37.7556 37.7553 108.6864 0.0000 0.0000 0.0000
# 4 0.0000 0.0000 0.0000 11.5840 0.0000 0.0000
# 5 0.0000 0.0000 0.0000 0.0000 11.5836 0.0000
# 6 0.0000 0.0000 0.0000 0.0000 0.0000 16.8594
#
#
#
# Elastic Compliance Matrix: (Units=1/GPa)
#
#
# Indices 1 2 3 4 5 6 
#
# 1 0.025162 -0.005381 -0.006871 0.000000 0.000000 0.000000
# 2 -0.005381 0.025162 -0.006871 0.000000 0.000000 0.000000
# 3 -0.006871 -0.006871 0.013975 0.000000 0.000000 0.000000
# 4 0.000000 0.000000 0.000000 0.086326 0.000000 0.000000
# 5 0.000000 0.000000 0.000000 0.000000 0.086329 0.000000
# 6 0.000000 0.000000 0.000000 0.000000 0.000000 0.059314
#
#
# Mechanical properties :
#
#
# Convention : Reuss Voigt Hill
#
# Bulk Modulus (GPa) = 38.38719 45.91997 42.15358
# Shear Modulus (GPa) = 14.56877 16.05064 15.30970
#
# Velocity S-wave (km/s) = 2.94458 3.09071 3.01853
# Velocity P-wave (km/s) = 5.86573 6.32976 6.10216
#
# Compressibility (1/GPa) = 0.02605035
#
# Stress axis : x y z
#
# Youngs Moduli (GPa) = 39.74265 39.74225 71.55783
#
# Poissons Ratio (x) = 0.21387 0.49170
# Poissons Ratio (y) = 0.21387 0.49170
# Poissons Ratio (z) = 0.27309 0.27308
#
# Static dielectric constant tensor:
#      x y z
#    x 1.582510 0.000000 0.000000 
#    y 0.000000 1.582510 0.000000 
#    z 0.000000 0.000000 1.573640 
# 
# From -- ./inp_files/13815.got.cif
#   From: 2010.05.17/outbox.cif.g08.bks.cpg/sg131_7_cif.got.tgz:13815.got - 2010.05.20 12:21:01.
