data_PCOD9566921
_publ_section_title
;
Structure prediction by ZEFSAII (Michael W. Deem and Ramdas Pophale) SiO2 
 PCOD9566921
Probable space group: P 42/M M C
;
_chemical_formula_sum "Si O2"
_cell_formula_units_Z 72
_cell_length_a 15.000000
_cell_length_b 15.000000
_cell_length_c 18.000000
_cell_angle_alpha 90.000000
_cell_angle_beta 90.000000
_cell_angle_gamma 90.000000
_cell_volume 4050.000000
_symmetry_space_group_name_H-M "P 42/M M C"
_symmetry_group_IT_number 131
_symmetry_cell_setting 'tetragonal'
loop_
_space_group_symop_operation_xyz
x,y,z
-x,-y,z
-y,x,1/2+z
y,-x,1/2+z
-x,y,-z
x,-y,-z
y,x,1/2-z
-y,-x,1/2-z
-x,-y,-z
x,y,-z
y,-x,1/2-z
-y,x,1/2-z
x,-y,z
-x,y,z
-y,-x,1/2+z
y,x,1/2+z
loop_
_atom_site_type_symbol
_atom_site_label
_atom_site_fract_x
_atom_site_fract_y
_atom_site_fract_z
Si Si1 0.102084 0.000000 0.089789
Si Si2 0.399418 0.607004 0.085469
Si Si3 0.893723 0.397569 0.300274
Si Si4 0.233262 0.324468 0.819952
Si Si5 0.763544 0.158868 0.910731
O O1 0.161755 0.914324 0.109670
O O2 0.000000 0.000000 0.118190
O O3 0.096576 0.000000 0.000000
O O4 0.402902 0.500000 0.082904
O O5 0.500000 0.638125 0.107234
O O6 0.319978 0.631116 0.141466
O O7 0.382466 0.638104 0.000000
O O8 0.877212 0.500000 0.323950
O O9 0.842009 0.382453 0.221642
O O10 0.862059 0.326940 0.363726
O O11 0.000000 0.385391 0.290429
O O12 0.268941 0.268941 0.750000
O O13 0.201550 0.254490 0.882182
O O14 0.748590 0.156494 0.000000
#
# Coordination Sequence:
#
# PCOD9566921 Si02
#       5
#     8  16  16  16  16
#     4   9  18  34  57  83 109 137 173 224 292 352
#     4   9  18  33  53  77 105 139 182 231 281 334
#     4  10  21  37  57  80 114 156 195 237 286 344
#     4  10  21  34  51  77 111 144 184 227 280 343
#     4  10  20  36  58  84 113 145 188 244 295 349
#
# _framework density 17.777778000000001
#
# number of rings (size 3 to 8) (size 9 to 14) (size 15 to 20)
#    0.000    2.333    1.111    2.000    0.000    5.778 
#    0.000    2.222    0.000    2.000    0.000    7.778 
#    0.000    0.000    0.000    0.000    0.000    0.000 
#
# Total GULP energy -400932.682334 kJ/mol
# GULP energy per Si atom -5568.509477 kJ/mol
# Density = 1.773731 g / cm^3
# Si number density = 17.777778 Si / 1000 Ang^3
#
#
#
# Elastic Constant Matrix: (Units=GPa)
#
#
# Indices 1 2 3 4 5 6 
#
# 1 90.1562 27.8146 39.7571 0.0000 0.0000 0.0000
# 2 27.8146 90.1562 39.7571 0.0000 0.0000 0.0000
# 3 39.7571 39.7571 92.7974 0.0000 0.0000 0.0000
# 4 0.0000 0.0000 0.0000 21.3802 0.0000 0.0000
# 5 0.0000 0.0000 0.0000 0.0000 21.3802 0.0000
# 6 0.0000 0.0000 0.0000 0.0000 0.0000 23.3061
#
#
#
# Elastic Compliance Matrix: (Units=1/GPa)
#
#
# Indices 1 2 3 4 5 6 
#
# 1 0.013979 -0.002061 -0.005106 0.000000 0.000000 0.000000
# 2 -0.002061 0.013979 -0.005106 0.000000 0.000000 0.000000
# 3 -0.005106 -0.005106 0.015151 0.000000 0.000000 0.000000
# 4 0.000000 0.000000 0.000000 0.046772 0.000000 0.000000
# 5 0.000000 0.000000 0.000000 0.000000 0.046772 0.000000
# 6 0.000000 0.000000 0.000000 0.000000 0.000000 0.042907
#
#
# Mechanical properties :
#
#
# Convention : Reuss Voigt Hill
#
# Bulk Modulus (GPa) = 53.86935 54.19635 54.03285
# Shear Modulus (GPa) = 23.77591 24.26536 24.02063
#
# Velocity S-wave (km/s) = 3.66101 3.69850 3.67980
# Velocity P-wave (km/s) = 6.94535 6.98499 6.96520
#
# Compressibility (1/GPa) = 0.01856343
#
# Stress axis : x y z
#
# Youngs Moduli (GPa) = 71.53344 71.53344 66.00049
#
# Poissons Ratio (x) = 0.14744 0.33701
# Poissons Ratio (y) = 0.14744 0.33701
# Poissons Ratio (z) = 0.36526 0.36526
#
# Static dielectric constant tensor:
#      x y z
#    x 1.642350 0.000000 0.000000 
#    y 0.000000 1.642350 0.000000 
#    z 0.000000 0.000000 1.598800 
# 
# From -- ./inp_files/7524.got.cif
#   From: 2010.05.17/outbox.ucp.g08.bks.cvg/sg131_4_cif.got.tgz:7524.got - 2010.06.11 11:38:44.
