data_PCOD9566325
_publ_section_title
;
Structure prediction by ZEFSAII (Michael W. Deem and Ramdas Pophale) SiO2 
 PCOD9566325
Probable space group: P 42/M M C
;
_chemical_formula_sum "Si O2"
_cell_formula_units_Z 96
_cell_length_a 24.579549
_cell_length_b 24.579549
_cell_length_c 8.474033
_cell_angle_alpha 90.000000
_cell_angle_beta 90.000000
_cell_angle_gamma 90.000000
_cell_volume 5119.622874
_symmetry_space_group_name_H-M "P 42/M M C"
_symmetry_group_IT_number 131
_symmetry_cell_setting 'tetragonal'
loop_
_space_group_symop_operation_xyz
x,y,z
-x,-y,z
-y,x,1/2+z
y,-x,1/2+z
-x,y,-z
x,-y,-z
y,x,1/2-z
-y,-x,1/2-z
-x,-y,-z
x,y,-z
y,-x,1/2-z
-y,x,1/2-z
x,-y,z
-x,y,z
-y,-x,1/2+z
y,x,1/2+z
loop_
_atom_site_type_symbol
_atom_site_label
_atom_site_fract_x
_atom_site_fract_y
_atom_site_fract_z
Si Si1 0.816191 0.261578 0.823229
Si Si2 0.296823 0.922487 0.817936
Si Si3 0.059598 0.412514 0.813713
Si Si4 0.914407 0.000000 0.188657
Si Si5 0.207763 0.000000 0.311906
Si Si6 0.354700 0.273964 0.323376
Si Si7 0.817404 0.563313 0.189030
O O1 0.793877 0.206124 0.750000
O O2 0.858942 0.289029 0.708385
O O3 0.766272 0.303052 0.836037
O O4 0.838983 0.254386 0.000000
O O5 0.347770 0.940661 0.713793
O O6 0.241618 0.949640 0.757942
O O7 0.307037 0.935760 0.000000
O O8 0.119870 0.429125 0.750341
O O9 0.000000 0.432550 0.751959
O O10 0.060054 0.425917 0.000000
O O11 0.947912 0.052089 0.250000
O O12 0.853721 0.000000 0.254032
O O13 0.914274 0.000000 0.000000
O O14 0.210146 0.000000 0.500000
O O15 0.329017 0.329017 0.250000
O O16 0.374138 0.287637 0.500000
O O17 0.399793 0.232788 0.248174
O O18 0.804124 0.500000 0.206330
O O19 0.820776 0.576730 0.000000
#
# Coordination Sequence:
#
# PCOD9566325 Si02
#       7
#    16  16  16   8   8  16  16
#     4  10  19  33  51  74 102 133 169 212 262 320
#     4  12  23  35  52  77 105 138 175 217 270 329
#     4  10  19  33  53  74 102 143 185 229 277 324
#     4  11  23  44  69  92 114 141 175 213 268 339
#     4  12  25  41  60  82 106 135 172 223 276 328
#     4   9  17  30  50  75 104 140 179 223 272 324
#     4   9  17  31  52  80 111 143 187 237 277 321
#
# _framework density 18.751380999999999
#
# number of rings (size 3 to 8) (size 9 to 14) (size 15 to 20)
#    0.000    1.750    2.500    3.750    0.000    1.667 
#    0.000    5.000    0.000    2.000    0.000    1.167 
#    0.000    0.333    0.000    4.167    0.000    0.000 
#
# Total GULP energy -534667.116654 kJ/mol
# GULP energy per Si atom -5569.449132 kJ/mol
# Density = 1.870870 g / cm^3
# Si number density = 18.751381 Si / 1000 Ang^3
#
#
#
# Elastic Constant Matrix: (Units=GPa)
#
#
# Indices 1 2 3 4 5 6 
#
# 1 77.4450 32.9547 2.7919 0.0000 0.0000 0.0000
# 2 32.9547 77.4452 2.7929 0.0000 0.0000 0.0000
# 3 2.7919 2.7929 39.7754 0.0000 0.0000 0.0000
# 4 0.0000 0.0000 0.0000 7.5227 0.0000 0.0000
# 5 0.0000 0.0000 0.0000 0.0000 7.5211 0.0000
# 6 0.0000 0.0000 0.0000 0.0000 0.0000 13.5910
#
#
#
# Elastic Compliance Matrix: (Units=1/GPa)
#
#
# Indices 1 2 3 4 5 6 
#
# 1 0.015784 -0.006693 -0.000638 0.000000 0.000000 0.000000
# 2 -0.006693 0.015784 -0.000638 0.000000 0.000000 0.000000
# 3 -0.000638 -0.000638 0.025231 0.000000 0.000000 0.000000
# 4 0.000000 0.000000 0.000000 0.132930 0.000000 0.000000
# 5 0.000000 0.000000 0.000000 0.000000 0.132959 0.000000
# 6 0.000000 0.000000 0.000000 0.000000 0.000000 0.073578
#
#
# Mechanical properties :
#
#
# Convention : Reuss Voigt Hill
#
# Bulk Modulus (GPa) = 24.47465 30.19385 27.33425
# Shear Modulus (GPa) = 11.74194 16.13538 13.93866
#
# Velocity S-wave (km/s) = 2.50510 2.93659 2.72938
# Velocity P-wave (km/s) = 4.63118 5.25693 4.95394
#
# Compressibility (1/GPa) = 0.04085861
#
# Stress axis : x y z
#
# Youngs Moduli (GPa) = 63.35720 63.35719 39.63415
#
# Poissons Ratio (x) = 0.42407 0.02528
# Poissons Ratio (y) = 0.42407 0.02531
# Poissons Ratio (z) = 0.04041 0.04045
#
# Static dielectric constant tensor:
#      x y z
#    x 1.655760 0.000000 0.000000 
#    y 0.000000 1.655760 0.000000 
#    z 0.000000 0.000000 1.684190 
# 
# From -- ./inp_files/2331.got.cif
#   From: 2010.05.17/outbox.cif.g08.bks.cpg/sg131_2_cif.got.tgz:2331.got - 2010.05.20 12:21:01.
