data_PCOD9566771
_publ_section_title
;
Structure prediction by ZEFSAII (Michael W. Deem and Ramdas Pophale) SiO2 
 PCOD9566771
Probable space group: P 42/M M C
;
_chemical_formula_sum "Si O2"
_cell_formula_units_Z 56
_cell_length_a 14.364151
_cell_length_b 14.364151
_cell_length_c 14.353891
_cell_angle_alpha 90.000000
_cell_angle_beta 90.000000
_cell_angle_gamma 90.000000
_cell_volume 2961.621593
_symmetry_space_group_name_H-M "P 42/M M C"
_symmetry_group_IT_number 131
_symmetry_cell_setting 'tetragonal'
loop_
_space_group_symop_operation_xyz
x,y,z
-x,-y,z
-y,x,1/2+z
y,-x,1/2+z
-x,y,-z
x,-y,-z
y,x,1/2-z
-y,-x,1/2-z
-x,-y,-z
x,y,-z
y,-x,1/2-z
-y,x,1/2-z
x,-y,z
-x,y,z
-y,-x,1/2+z
y,x,1/2+z
loop_
_atom_site_type_symbol
_atom_site_label
_atom_site_fract_x
_atom_site_fract_y
_atom_site_fract_z
Si Si1 0.389420 0.812293 0.289198
Si Si2 0.232306 0.714125 0.605534
Si Si3 0.000000 0.387089 0.894045
Si Si4 0.894369 0.108169 0.137579
O O1 0.500000 0.800282 0.293968
O O2 0.333338 0.737932 0.351233
O O3 0.353979 0.810968 0.183004
O O4 0.361204 0.909486 0.336446
O O5 0.236848 0.678923 0.500000
O O6 0.172577 0.809962 0.605112
O O7 0.000000 0.500000 0.899262
O O8 0.000000 0.352248 0.000000
O O9 0.890400 0.109601 0.250000
O O10 0.000000 0.136639 0.110806
O O11 0.881835 0.000000 0.109376
#
# Coordination Sequence:
#
# PCOD9566771 Si02
#       4
#    16  16   8  16
#     4  10  22  40  58  82 119 153 192 246 294 341
#     4  11  23  36  59  89 114 152 197 239 295 358
#     4   9  18  34  59  85 110 149 195 237 283 336
#     4   9  18  34  55  80 116 158 196 236 279 331
#
# _framework density 18.908559
#
# number of rings (size 3 to 8) (size 9 to 14) (size 15 to 20)
#    0.000    2.143    2.857    1.714    4.000    3.429 
#    0.000    1.429    0.000    9.429    0.000    8.000 
#    0.000    0.000    0.000    0.000    0.000    0.000 
#
# Total GULP energy -312621.155242 kJ/mol
# GULP energy per Si atom -5582.520629 kJ/mol
# Density = 1.886552 g / cm^3
# Si number density = 18.908559 Si / 1000 Ang^3
#
#
#
# Elastic Constant Matrix: (Units=GPa)
#
#
# Indices 1 2 3 4 5 6 
#
# 1 78.2515 30.3146 40.8696 0.0000 0.0000 0.0000
# 2 30.3146 78.2517 40.8696 0.0000 0.0000 0.0000
# 3 40.8696 40.8696 196.7347 0.0000 0.0000 0.0000
# 4 0.0000 0.0000 0.0000 4.3307 0.0000 0.0000
# 5 0.0000 0.0000 0.0000 0.0000 4.3305 0.0000
# 6 0.0000 0.0000 0.0000 0.0000 0.0000 20.4139
#
#
#
# Elastic Compliance Matrix: (Units=1/GPa)
#
#
# Indices 1 2 3 4 5 6 
#
# 1 0.015890 -0.004971 -0.002268 0.000000 0.000000 0.000000
# 2 -0.004971 0.015890 -0.002268 0.000000 0.000000 0.000000
# 3 -0.002268 -0.002268 0.006025 0.000000 0.000000 0.000000
# 4 0.000000 0.000000 0.000000 0.230912 0.000000 0.000000
# 5 0.000000 0.000000 0.000000 0.000000 0.230921 0.000000
# 6 0.000000 0.000000 0.000000 0.000000 0.000000 0.048986
#
#
# Mechanical properties :
#
#
# Convention : Reuss Voigt Hill
#
# Bulk Modulus (GPa) = 53.22021 64.14950 58.68485
# Shear Modulus (GPa) = 8.71230 21.89395 15.30312
#
# Velocity S-wave (km/s) = 2.14886 3.40646 2.84795
# Velocity P-wave (km/s) = 5.86208 7.03362 6.47440
#
# Compressibility (1/GPa) = 0.01878986
#
# Stress axis : x y z
#
# Youngs Moduli (GPa) = 62.93361 62.93380 165.96401
#
# Poissons Ratio (x) = 0.31284 0.37645
# Poissons Ratio (y) = 0.31284 0.37645
# Poissons Ratio (z) = 0.14275 0.14275
#
# Static dielectric constant tensor:
#      x y z
#    x 1.664980 0.000000 0.000000 
#    y 0.000000 1.664980 0.000000 
#    z 0.000000 0.000000 1.666660 
# 
# From -- ./inp_files/5250.got.cif
#   From: 2010.05.17/outbox.cif.g08.bks.cpg/sg131_3_cif.got.tgz:5250.got - 2010.05.20 12:21:01.
