data_PCOD9566187
_publ_section_title
;
Structure prediction by ZEFSAII (Michael W. Deem and Ramdas Pophale) SiO2 
 PCOD9566187
Probable space group: P 42/M M C
;
_chemical_formula_sum "Si O2"
_cell_formula_units_Z 112
_cell_length_a 19.520693
_cell_length_b 19.520693
_cell_length_c 14.864955
_cell_angle_alpha 90.000000
_cell_angle_beta 90.000000
_cell_angle_gamma 90.000000
_cell_volume 5664.401924
_symmetry_space_group_name_H-M "P 42/M M C"
_symmetry_group_IT_number 131
_symmetry_cell_setting 'tetragonal'
loop_
_space_group_symop_operation_xyz
x,y,z
-x,-y,z
-y,x,1/2+z
y,-x,1/2+z
-x,y,-z
x,-y,-z
y,x,1/2-z
-y,-x,1/2-z
-x,-y,-z
x,y,-z
y,-x,1/2-z
-y,x,1/2-z
x,-y,z
-x,y,z
-y,-x,1/2+z
y,x,1/2+z
loop_
_atom_site_type_symbol
_atom_site_label
_atom_site_fract_x
_atom_site_fract_y
_atom_site_fract_z
Si Si1 0.287085 0.714529 0.359770
Si Si2 0.217596 0.575594 0.644472
Si Si3 0.801860 0.923331 0.889850
Si Si4 0.649298 0.923272 0.609061
Si Si5 0.781973 0.575583 0.855941
Si Si6 0.923653 0.643265 0.391614
Si Si7 0.143681 0.213639 0.895889
O O1 0.284310 0.715691 0.250000
O O2 0.258908 0.641381 0.391435
O O3 0.363477 0.733953 0.390941
O O4 0.241233 0.778185 0.392006
O O5 0.230501 0.500000 0.605755
O O6 0.233730 0.572136 0.750100
O O7 0.137631 0.595041 0.637993
O O8 0.722306 0.911239 0.863968
O O9 0.850501 0.862380 0.857205
O O10 0.820957 0.000000 0.861976
O O11 0.802506 0.921728 0.000000
O O12 0.651165 0.922971 0.500000
O O13 0.599879 0.860872 0.634846
O O14 0.725532 0.902680 0.643190
O O15 0.630486 0.000000 0.638045
O O16 0.772868 0.500000 0.894625
O O17 0.923718 0.642727 0.500000
O O18 0.000000 0.623190 0.361476
O O19 0.122561 0.207240 0.000000
#
# Coordination Sequence:
#
# PCOD9566187 Si02
#       7
#    16  16  16  16  16  16  16
#     4   9  17  30  46  63  85 111 140 180 217 255
#     4  10  19  30  45  65  90 119 147 177 213 252
#     4   8  13  22  39  62  85 111 144 179 209 238
#     4   9  18  31  47  68  90 112 141 180 226 271
#     4   9  19  33  48  66  86 112 143 176 220 268
#     4   9  17  28  41  61  92 125 152 176 202 237
#     4   9  15  26  46  64  83 114 148 181 215 253
#
# _framework density 19.772608000000002
#
# number of rings (size 3 to 8) (size 9 to 14) (size 15 to 20)
#    0.000    3.000    1.429    0.857    0.000    1.714 
#    0.000    2.857    0.000    0.857    0.000    6.000 
#    0.000    0.000    0.000   11.714    0.000   13.714 
#
# Total GULP energy -624301.261692 kJ/mol
# GULP energy per Si atom -5574.118408 kJ/mol
# Density = 1.972761 g / cm^3
# Si number density = 19.772608 Si / 1000 Ang^3
#
#
#
# Elastic Constant Matrix: (Units=GPa)
#
#
# Indices 1 2 3 4 5 6 
#
# 1 78.6548 23.6187 -4.3732 0.0000 0.0000 0.0000
# 2 23.6187 78.6540 -4.3733 0.0000 0.0000 0.0000
# 3 -4.3732 -4.3733 56.7963 0.0000 0.0000 0.0000
# 4 0.0000 0.0000 0.0000 15.0773 0.0000 0.0000
# 5 0.0000 0.0000 0.0000 0.0000 15.0775 0.0000
# 6 0.0000 0.0000 0.0000 0.0000 0.0000 12.8293
#
#
#
# Elastic Compliance Matrix: (Units=1/GPa)
#
#
# Indices 1 2 3 4 5 6 
#
# 1 0.014006 -0.004164 0.000758 0.000000 0.000000 0.000000
# 2 -0.004164 0.014006 0.000758 0.000000 0.000000 0.000000
# 3 0.000758 0.000758 0.017723 0.000000 0.000000 0.000000
# 4 0.000000 0.000000 0.000000 0.066325 0.000000 0.000000
# 5 0.000000 0.000000 0.000000 0.000000 0.066324 0.000000
# 6 0.000000 0.000000 0.000000 0.000000 0.000000 0.077946
#
#
# Mechanical properties :
#
#
# Convention : Reuss Voigt Hill
#
# Bulk Modulus (GPa) = 24.72795 27.09439 25.91117
# Shear Modulus (GPa) = 18.17474 21.87903 20.02688
#
# Velocity S-wave (km/s) = 3.03510 3.33007 3.18600
# Velocity P-wave (km/s) = 4.98154 5.34027 5.16402
#
# Compressibility (1/GPa) = 0.04044007
#
# Stress axis : x y z
#
# Youngs Moduli (GPa) = 71.39680 71.39611 56.42230
#
# Poissons Ratio (x) = 0.29728 -0.04276
# Poissons Ratio (y) = 0.29728 -0.04276
# Poissons Ratio (z) = -0.05411 -0.05411
#
# Static dielectric constant tensor:
#      x y z
#    x 1.700670 0.000000 0.000000 
#    y 0.000000 1.700670 0.000000 
#    z 0.000000 0.000000 1.787680 
# 
# From -- ./inp_files/10056.got.cif
#   From: 2010.05.17/outbox.cif.g08.bks.cpg/sg131_6_cif.got.tgz:10056.got - 2010.05.20 12:21:01.
