data_PCOD9566426
_publ_section_title
;
Structure prediction by ZEFSAII (Michael W. Deem and Ramdas Pophale) SiO2 
 PCOD9566426
Probable space group: P 42/M M C
;
_chemical_formula_sum "Si O2"
_cell_formula_units_Z 112
_cell_length_a 14.635159
_cell_length_b 14.635159
_cell_length_c 23.739965
_cell_angle_alpha 90.000000
_cell_angle_beta 90.000000
_cell_angle_gamma 90.000000
_cell_volume 5084.812750
_symmetry_space_group_name_H-M "P 42/M M C"
_symmetry_group_IT_number 131
_symmetry_cell_setting 'tetragonal'
loop_
_space_group_symop_operation_xyz
x,y,z
-x,-y,z
-y,x,1/2+z
y,-x,1/2+z
-x,y,-z
x,-y,-z
y,x,1/2-z
-y,-x,1/2-z
-x,-y,-z
x,y,-z
y,-x,1/2-z
-y,x,1/2-z
x,-y,z
-x,y,z
-y,-x,1/2+z
y,x,1/2+z
loop_
_atom_site_type_symbol
_atom_site_label
_atom_site_fract_x
_atom_site_fract_y
_atom_site_fract_z
Si Si1 0.720915 0.393960 0.933030
Si Si2 0.603667 0.895472 0.228084
Si Si3 0.896993 0.697195 0.435870
Si Si4 0.898339 0.102491 0.083240
Si Si5 0.393216 0.753269 0.138782
Si Si6 0.895122 0.634426 0.858761
Si Si7 0.897483 0.827233 0.803252
O O1 0.690089 0.500000 0.930638
O O2 0.661981 0.329974 0.890487
O O3 0.822791 0.391163 0.906159
O O4 0.718222 0.366390 0.000000
O O5 0.500000 0.901226 0.206417
O O6 0.641789 0.805522 0.195933
O O7 0.598107 0.878874 0.295188
O O8 0.642965 0.000000 0.221205
O O9 0.902244 0.669841 0.500000
O O10 0.856596 0.800816 0.434585
O O11 0.835951 0.625343 0.403940
O O12 0.000000 0.701631 0.412219
O O13 0.890495 0.095227 0.150643
O O14 0.000000 0.142744 0.070484
O O15 0.899194 0.000000 0.059902
O O16 0.500000 0.728507 0.144691
O O17 0.887085 0.741187 0.844121
O O18 0.000000 0.612997 0.874212
O O19 0.833215 0.833215 0.750000
O O20 0.000000 0.827864 0.779997
#
# Coordination Sequence:
#
# PCOD9566426 Si02
#       7
#    16  16  16  16  16  16  16
#     4  11  26  46  68  95 125 165 224 287 343 402
#     4   9  19  37  63  97 132 164 200 245 309 395
#     4  10  21  35  55  86 121 160 209 261 315 387
#     4   9  18  32  49  72 111 162 209 252 297 353
#     4  11  24  42  65  92 125 167 214 271 340 403
#     4  10  22  39  64  98 131 166 209 261 325 394
#     4  10  20  31  48  80 119 161 206 247 294 359
#
# _framework density 22.026375999999999
#
# number of rings (size 3 to 8) (size 9 to 14) (size 15 to 20)
#    0.000    2.000    0.000    2.571    4.000    4.429 
#    0.000    3.571    0.000    4.286    0.000    2.000 
#    0.000    0.000    0.000    0.000    0.000    0.000 
#
# Total GULP energy -623664.293241 kJ/mol
# GULP energy per Si atom -5568.431190 kJ/mol
# Density = 2.197624 g / cm^3
# Si number density = 22.026376 Si / 1000 Ang^3
#
#
#
# Elastic Constant Matrix: (Units=GPa)
#
#
# Indices 1 2 3 4 5 6 
#
# 1 88.4272 26.9678 40.7971 0.0000 0.0000 0.0000
# 2 26.9678 88.4272 40.7971 0.0000 0.0000 0.0000
# 3 40.7971 40.7971 98.2434 0.0000 0.0000 0.0000
# 4 0.0000 0.0000 0.0000 -224.4053 0.0000 0.0000
# 5 0.0000 0.0000 0.0000 0.0000 -224.4053 0.0000
# 6 0.0000 0.0000 0.0000 0.0000 0.0000 10.5155
#
#
#
# Elastic Compliance Matrix: (Units=1/GPa)
#
#
# Indices 1 2 3 4 5 6 
#
# 1 0.014270 -0.002001 -0.005095 0.000000 0.000000 0.000000
# 2 -0.002001 0.014270 -0.005095 0.000000 0.000000 0.000000
# 3 -0.005095 -0.005095 0.014410 0.000000 0.000000 0.000000
# 4 0.000000 0.000000 0.000000 -0.004456 0.000000 0.000000
# 5 0.000000 0.000000 0.000000 0.000000 -0.004456 0.000000
# 6 0.000000 0.000000 0.000000 0.000000 0.000000 0.095098
#
#
# Mechanical properties :
#
#
# Convention : Reuss Voigt Hill
#
# Bulk Modulus (GPa) = 53.85570 54.69129 54.27350
# Shear Modulus (GPa) = 31.30782 -76.55665 -22.62442
#
# Velocity S-wave (km/s) = 3.77421 -5.90189 -3.20840
# Velocity P-wave (km/s) = 6.59519 4.64319 3.31189
#
# Compressibility (1/GPa) = 0.01856814
#
# Stress axis : x y z
#
# Youngs Moduli (GPa) = 70.07931 70.07931 69.39629
#
# Poissons Ratio (x) = 0.14025 0.35354
# Poissons Ratio (y) = 0.14025 0.35354
# Poissons Ratio (z) = 0.35702 0.35702
#
# Static dielectric constant tensor:
#      x y z
#    x 2.269070 0.000000 0.000000 
#    y 0.000000 2.269070 0.000000 
#    z 0.000000 0.000000 1.817520 
# 
# From -- ./inp_files/11304.got.cif
#   From: 2010.05.17/outbox.cif.g08.bks.cpg/sg131_6_cif.got.tgz:11304.got - 2010.05.20 12:21:01.
