data_PCOD9566486
_publ_section_title
;
Structure prediction by ZEFSAII (Michael W. Deem and Ramdas Pophale) SiO2 
 PCOD9566486
Probable space group: P 42/M M C
;
_chemical_formula_sum "Si O2"
_cell_formula_units_Z 58
_cell_length_a 17.883644
_cell_length_b 17.883644
_cell_length_c 8.589882
_cell_angle_alpha 90.000000
_cell_angle_beta 90.000000
_cell_angle_gamma 90.000000
_cell_volume 2747.256629
_symmetry_space_group_name_H-M "P 42/M M C"
_symmetry_group_IT_number 131
_symmetry_cell_setting 'tetragonal'
loop_
_space_group_symop_operation_xyz
x,y,z
-x,-y,z
-y,x,1/2+z
y,-x,1/2+z
-x,y,-z
x,-y,-z
y,x,1/2-z
-y,-x,1/2-z
-x,-y,-z
x,y,-z
y,-x,1/2-z
-y,x,1/2-z
x,-y,z
-x,y,z
-y,-x,1/2+z
y,x,1/2+z
loop_
_atom_site_type_symbol
_atom_site_label
_atom_site_fract_x
_atom_site_fract_y
_atom_site_fract_z
Si Si1 0.500000 0.330589 0.323451
Si Si2 0.083557 0.198596 0.180255
Si Si3 0.500000 0.500000 0.750000
Si Si4 0.755252 0.357472 0.186053
Si Si5 0.082961 0.361891 0.316255
O O1 0.500000 0.301212 0.500000
O O2 0.500000 0.419617 0.331134
O O3 0.576111 0.298642 0.252007
O O4 0.141863 0.141863 0.250000
O O5 0.082047 0.273319 0.282002
O O6 0.000000 0.166143 0.182864
O O7 0.100976 0.218230 0.000000
O O8 0.720731 0.279269 0.250000
O O9 0.838957 0.382328 0.234659
O O10 0.752068 0.351092 0.000000
O O11 0.088372 0.377225 0.500000
O O12 0.000000 0.390021 0.262766
#
# Coordination Sequence:
#
# PCOD9566486 Si02
#       5
#     8  16   2  16  16
#     4  10  23  39  62  95 129 167 204 244 298 361
#     4  10  20  33  50  73 102 140 185 235 295 358
#     4  12  18  44  68  94 136 168 210 244 294 356
#     4  11  22  39  61  90 125 161 205 251 303 364
#     4  10  21  38  59  83 112 150 198 250 303 356
#
# _framework density 21.111972000000002
#
# number of rings (size 3 to 8) (size 9 to 14) (size 15 to 20)
#    0.000    1.655    1.379    3.517    0.000    3.586 
#    0.000    4.828    0.000    4.138    0.000    0.000 
#    0.000    0.000    0.000    0.000    0.000    0.000 
#
# Total GULP energy -323317.742772 kJ/mol
# GULP energy per Si atom -5574.443841 kJ/mol
# Density = 2.106392 g / cm^3
# Si number density = 21.111972 Si / 1000 Ang^3
#
#
#
# Elastic Constant Matrix: (Units=GPa)
#
#
# Indices 1 2 3 4 5 6 
#
# 1 94.0346 35.3757 11.5909 0.0000 0.0000 0.0000
# 2 35.3757 94.0383 11.5913 0.0000 0.0000 0.0000
# 3 11.5909 11.5913 57.1707 0.0000 0.0000 0.0000
# 4 0.0000 0.0000 0.0000 -12.5303 0.0000 0.0000
# 5 0.0000 0.0000 0.0000 0.0000 -12.5294 0.0000
# 6 0.0000 0.0000 0.0000 0.0000 0.0000 33.5966
#
#
#
# Elastic Compliance Matrix: (Units=1/GPa)
#
#
# Indices 1 2 3 4 5 6 
#
# 1 0.012533 -0.004514 -0.001626 0.000000 0.000000 0.000000
# 2 -0.004514 0.012533 -0.001626 0.000000 0.000000 0.000000
# 3 -0.001626 -0.001626 0.018151 0.000000 0.000000 0.000000
# 4 0.000000 0.000000 0.000000 -0.079806 0.000000 0.000000
# 5 0.000000 0.000000 0.000000 0.000000 -0.079812 0.000000
# 6 0.000000 0.000000 0.000000 0.000000 0.000000 0.029765
#
#
# Mechanical properties :
#
#
# Convention : Reuss Voigt Hill
#
# Bulk Modulus (GPa) = 36.12089 40.26214 38.19151
# Shear Modulus (GPa) = -80.80468 14.15309 -33.32579
#
# Velocity S-wave (km/s) = -6.19334 2.59198 -3.97738
# Velocity P-wave (km/s) = 5.83069 5.29811 1.72147
#
# Compressibility (1/GPa) = 0.02768481
#
# Stress axis : x y z
#
# Youngs Moduli (GPa) = 79.78898 79.79202 55.09431
#
# Poissons Ratio (x) = 0.36021 0.08957
# Poissons Ratio (y) = 0.36020 0.08957
# Poissons Ratio (z) = 0.12971 0.12972
#
# Static dielectric constant tensor:
#      x y z
#    x 1.805290 0.000000 0.000000 
#    y 0.000000 1.805290 0.000000 
#    z 0.000000 0.000000 1.742430 
# 
# From -- ./inp_files/1294.got.cif
#   From: 2010.05.17/outbox.cif.g08.bks.cpg/sg131_1_cif.got.tgz:1294.got - 2010.05.20 12:21:01.
