data_PCOD9566213
_publ_section_title
;
Structure prediction by ZEFSAII (Michael W. Deem and Ramdas Pophale) SiO2 
 PCOD9566213
Probable space group: P 42/M M C
;
_chemical_formula_sum "Si O2"
_cell_formula_units_Z 56
_cell_length_a 21.193244
_cell_length_b 21.193244
_cell_length_c 8.731332
_cell_angle_alpha 90.000000
_cell_angle_beta 90.000000
_cell_angle_gamma 90.000000
_cell_volume 3921.709124
_symmetry_space_group_name_H-M "P 42/M M C"
_symmetry_group_IT_number 131
_symmetry_cell_setting 'tetragonal'
loop_
_space_group_symop_operation_xyz
x,y,z
-x,-y,z
-y,x,1/2+z
y,-x,1/2+z
-x,y,-z
x,-y,-z
y,x,1/2-z
-y,-x,1/2-z
-x,-y,-z
x,y,-z
y,-x,1/2-z
-y,x,1/2-z
x,-y,z
-x,y,z
-y,-x,1/2+z
y,x,1/2+z
loop_
_atom_site_type_symbol
_atom_site_label
_atom_site_fract_x
_atom_site_fract_y
_atom_site_fract_z
Si Si1 0.500000 0.924195 0.173805
Si Si2 0.364808 0.925878 0.683466
Si Si3 0.741616 0.836132 0.819591
Si Si4 0.072974 0.843219 0.821937
O O1 0.564456 0.909473 0.262135
O O2 0.500000 0.000000 0.163002
O O3 0.500000 0.898792 0.000000
O O4 0.360203 0.925779 0.500000
O O5 0.319033 0.871479 0.748393
O O6 0.351017 0.000000 0.732238
O O7 0.771128 0.771128 0.750000
O O8 0.795242 0.887662 0.780603
O O9 0.733185 0.828053 0.000000
O O10 0.089136 0.910865 0.750000
O O11 0.000000 0.828266 0.814748
O O12 0.092616 0.838671 0.000000
#
# Coordination Sequence:
#
# PCOD9566213 Si02
#       4
#     8  16  16  16
#     4   9  17  29  45  67  91 113 141 174 209 252
#     4  10  19  31  47  66  89 115 142 175 216 258
#     4  11  21  32  46  62  81 106 137 172 209 251
#     4  10  20  32  44  57  73  94 123 161 205 252
#
# _framework density 14.279488000000001
#
# number of rings (size 3 to 8) (size 9 to 14) (size 15 to 20)
#    0.000    1.857    0.000    7.286    0.000    9.429 
#    0.000    1.429    0.000    0.000    0.000    0.000 
#    0.000    0.000    0.000    0.000    0.000    0.714 
#
# Total GULP energy -311818.750629 kJ/mol
# GULP energy per Si atom -5568.191976 kJ/mol
# Density = 1.424699 g / cm^3
# Si number density = 14.279488 Si / 1000 Ang^3
#
#
#
# Elastic Constant Matrix: (Units=GPa)
#
#
# Indices 1 2 3 4 5 6 
#
# 1 63.6587 56.4089 35.8691 0.0000 0.0000 0.0000
# 2 56.4089 63.6471 35.8632 0.0000 0.0000 0.0000
# 3 35.8691 35.8632 90.2830 0.0000 0.0000 0.0000
# 4 0.0000 0.0000 0.0000 17.7400 0.0000 0.0000
# 5 0.0000 0.0000 0.0000 0.0000 17.7393 0.0000
# 6 0.0000 0.0000 0.0000 0.0000 0.0000 16.8298
#
#
#
# Elastic Compliance Matrix: (Units=1/GPa)
#
#
# Indices 1 2 3 4 5 6 
#
# 1 0.074478 -0.063562 -0.004341 0.000000 0.000000 0.000000
# 2 -0.063562 0.074489 -0.004336 0.000000 0.000000 0.000000
# 3 -0.004341 -0.004336 0.014523 0.000000 0.000000 0.000000
# 4 0.000000 0.000000 0.000000 0.056370 0.000000 0.000000
# 5 0.000000 0.000000 0.000000 0.000000 0.056372 0.000000
# 6 0.000000 0.000000 0.000000 0.000000 0.000000 0.059418
#
#
# Mechanical properties :
#
#
# Convention : Reuss Voigt Hill
#
# Bulk Modulus (GPa) = 52.59997 52.65237 52.62617
# Shear Modulus (GPa) = 10.27820 16.42501 13.35161
#
# Velocity S-wave (km/s) = 2.68580 3.39522 3.06113
# Velocity P-wave (km/s) = 6.82158 7.23345 7.03053
#
# Compressibility (1/GPa) = 0.01901142
#
# Stress axis : x y z
#
# Youngs Moduli (GPa) = 13.42671 13.42485 68.85436
#
# Poissons Ratio (x) = 0.85332 0.29890
# Poissons Ratio (y) = 0.85343 0.29856
# Poissons Ratio (z) = 0.05829 0.05821
#
# Static dielectric constant tensor:
#      x y z
#    x 1.497770 0.000000 0.000000 
#    y 0.000000 1.497770 0.000000 
#    z 0.000000 0.000000 1.494320 
# 
# From -- ./inp_files/1459.got.cif
#   From: 2010.05.17/outbox.cif.g08.bks.cpg/sg131_1_cif.got.tgz:1459.got - 2010.05.20 12:21:01.
