data_PCOD9566862
_publ_section_title
;
Structure prediction by ZEFSAII (Michael W. Deem and Ramdas Pophale) SiO2 
 PCOD9566862
Probable space group: P 42/M M C
;
_chemical_formula_sum "Si O2"
_cell_formula_units_Z 60
_cell_length_a 14.120559
_cell_length_b 14.120559
_cell_length_c 14.582496
_cell_angle_alpha 90.000000
_cell_angle_beta 90.000000
_cell_angle_gamma 90.000000
_cell_volume 2907.606597
_symmetry_space_group_name_H-M "P 42/M M C"
_symmetry_group_IT_number 131
_symmetry_cell_setting 'tetragonal'
loop_
_space_group_symop_operation_xyz
x,y,z
-x,-y,z
-y,x,1/2+z
y,-x,1/2+z
-x,y,-z
x,-y,-z
y,x,1/2-z
-y,-x,1/2-z
-x,-y,-z
x,y,-z
y,-x,1/2-z
-y,x,1/2-z
x,-y,z
-x,y,z
-y,-x,1/2+z
y,x,1/2+z
loop_
_atom_site_type_symbol
_atom_site_label
_atom_site_fract_x
_atom_site_fract_y
_atom_site_fract_z
Si Si1 0.892255 0.892255 0.250000
Si Si2 0.388433 0.337704 0.853576
Si Si3 0.661297 0.500000 0.000000
Si Si4 0.395694 0.111263 0.388796
Si Si5 0.772777 0.790000 0.891642
O O1 0.818155 0.871733 0.168983
O O2 0.000000 0.881124 0.215985
O O3 0.369472 0.369472 0.750000
O O4 0.500000 0.333020 0.871418
O O5 0.345572 0.416679 0.921114
O O6 0.335048 0.238883 0.872251
O O7 0.399785 0.120395 0.500000
O O8 0.500000 0.141669 0.354854
O O9 0.304917 0.170017 0.360046
O O10 0.384098 0.000000 0.368383
O O11 0.787157 0.804312 0.000000
#
# Coordination Sequence:
#
# PCOD9566862 Si02
#       5
#     8  16   4  16  16
#     4  11  26  48  70  96 127 158 212 290 357 414
#     4  12  24  38  60  94 138 186 230 271 315 378
#     4  12  25  40  60  96 147 194 235 274 318 368
#     4   8  15  28  49  81 119 156 199 253 313 376
#     4  11  23  39  65  94 127 171 219 269 332 407
#
# _framework density 20.635528999999998
#
# number of rings (size 3 to 8) (size 9 to 14) (size 15 to 20)
#    0.000    1.467    4.000    2.800    1.867    2.133 
#    0.000    1.333    0.000    0.800    0.000    1.867 
#    0.000    0.000    0.000    0.000    0.000    0.000 
#
# Total GULP energy -334348.878065 kJ/mol
# GULP energy per Si atom -5572.481301 kJ/mol
# Density = 2.058856 g / cm^3
# Si number density = 20.635529 Si / 1000 Ang^3
#
#
#
# Elastic Constant Matrix: (Units=GPa)
#
#
# Indices 1 2 3 4 5 6 
#
# 1 56.1611 20.9855 8.5515 0.0000 0.0000 0.0000
# 2 20.9855 56.1611 8.5515 0.0000 0.0000 0.0000
# 3 8.5515 8.5515 119.2069 0.0000 0.0000 0.0000
# 4 0.0000 0.0000 0.0000 16.1580 0.0000 0.0000
# 5 0.0000 0.0000 0.0000 0.0000 16.1580 0.0000
# 6 0.0000 0.0000 0.0000 0.0000 0.0000 11.5652
#
#
#
# Elastic Compliance Matrix: (Units=1/GPa)
#
#
# Indices 1 2 3 4 5 6 
#
# 1 0.020800 -0.007629 -0.000945 0.000000 0.000000 0.000000
# 2 -0.007629 0.020800 -0.000945 0.000000 0.000000 0.000000
# 3 -0.000945 -0.000945 0.008524 0.000000 0.000000 0.000000
# 4 0.000000 0.000000 0.000000 0.061889 0.000000 0.000000
# 5 0.000000 0.000000 0.000000 0.000000 0.061889 0.000000
# 6 0.000000 0.000000 0.000000 0.000000 0.000000 0.086466
#
#
# Mechanical properties :
#
#
# Convention : Reuss Voigt Hill
#
# Bulk Modulus (GPa) = 32.16638 34.18958 33.17798
# Shear Modulus (GPa) = 17.25517 21.67227 19.46372
#
# Velocity S-wave (km/s) = 2.89483 3.24426 3.07451
# Velocity P-wave (km/s) = 5.17640 5.53515 5.35878
#
# Compressibility (1/GPa) = 0.03108836
#
# Stress axis : x y z
#
# Youngs Moduli (GPa) = 48.07618 48.07618 117.31106
#
# Poissons Ratio (x) = 0.36675 0.11085
# Poissons Ratio (y) = 0.36675 0.11085
# Poissons Ratio (z) = 0.04543 0.04543
#
# Static dielectric constant tensor:
#      x y z
#    x 1.782610 0.000000 0.000000 
#    y 0.000000 1.782610 0.000000 
#    z 0.000000 0.000000 1.715590 
# 
# From -- ./inp_files/5498.got.cif
#   From: 2010.05.17/outbox.cif.g08.bks.cpg/sg131_3_cif.got.tgz:5498.got - 2010.05.20 12:21:01.
