data_PCOD9566448
_publ_section_title
;
Structure prediction by ZEFSAII (Michael W. Deem and Ramdas Pophale) SiO2 
 PCOD9566448
Probable space group: P 42/M M C
;
_chemical_formula_sum "Si O2"
_cell_formula_units_Z 96
_cell_length_a 15.659025
_cell_length_b 15.659025
_cell_length_c 21.003213
_cell_angle_alpha 90.000000
_cell_angle_beta 90.000000
_cell_angle_gamma 90.000000
_cell_volume 5150.094187
_symmetry_space_group_name_H-M "P 42/M M C"
_symmetry_group_IT_number 131
_symmetry_cell_setting 'tetragonal'
loop_
_space_group_symop_operation_xyz
x,y,z
-x,-y,z
-y,x,1/2+z
y,-x,1/2+z
-x,y,-z
x,-y,-z
y,x,1/2-z
-y,-x,1/2-z
-x,-y,-z
x,y,-z
y,-x,1/2-z
-y,x,1/2-z
x,-y,z
-x,y,z
-y,-x,1/2+z
y,x,1/2+z
loop_
_atom_site_type_symbol
_atom_site_label
_atom_site_fract_x
_atom_site_fract_y
_atom_site_fract_z
Si Si1 0.909789 0.716306 0.425528
Si Si2 0.771685 0.593545 0.369945
Si Si3 0.406560 0.165432 0.275524
Si Si4 0.095264 0.850754 0.072199
Si Si5 0.646002 0.403567 0.822233
Si Si6 0.778204 0.904438 0.711391
O O1 0.911248 0.695536 0.500000
O O2 0.827474 0.669599 0.398310
O O3 0.905353 0.818850 0.421196
O O4 0.000000 0.686982 0.395831
O O5 0.789564 0.500000 0.398835
O O6 0.800132 0.590087 0.296452
O O7 0.670839 0.611077 0.367048
O O8 0.500000 0.126931 0.290163
O O9 0.395216 0.251231 0.317413
O O10 0.322272 0.109395 0.279193
O O11 0.100399 0.793071 0.135266
O O12 0.000000 0.891545 0.075063
O O13 0.100434 0.812631 0.000000
O O14 0.611789 0.388212 0.750000
O O15 0.624203 0.500000 0.841040
O O16 0.833799 0.833799 0.750000
O O17 0.803975 0.000000 0.732631
#
# Coordination Sequence:
#
# PCOD9566448 Si02
#       6
#    16  16  16  16  16  16
#     4  10  21  36  54  74  96 129 174 219 261 308
#     4  10  20  32  48  73 105 139 173 210 255 308
#     4   9  18  32  51  76 105 138 175 216 266 318
#     4   9  19  36  57  80 105 136 175 219 271 326
#     4   9  16  28  49  75 102 131 164 205 253 306
#     4  11  22  35  54  79 111 148 181 220 268 320
#
# _framework density 18.640435
#
# number of rings (size 3 to 8) (size 9 to 14) (size 15 to 20)
#    0.000    2.333    0.000    5.000    0.000    5.333 
#    0.000    5.833    0.000    1.000    0.000    8.167 
#    0.000    0.000    0.000    0.000    0.000    0.333 
#
# Total GULP energy -534450.311346 kJ/mol
# GULP energy per Si atom -5567.190743 kJ/mol
# Density = 1.859801 g / cm^3
# Si number density = 18.640435 Si / 1000 Ang^3
#
#
#
# Elastic Constant Matrix: (Units=GPa)
#
#
# Indices 1 2 3 4 5 6 
#
# 1 112.8398 59.8584 28.6066 0.0000 0.0000 0.0000
# 2 59.8584 112.8397 28.6068 0.0000 0.0000 0.0000
# 3 28.6066 28.6068 47.2096 0.0000 0.0000 0.0000
# 4 0.0000 0.0000 0.0000 12.1945 0.0000 0.0000
# 5 0.0000 0.0000 0.0000 0.0000 12.1946 0.0000
# 6 0.0000 0.0000 0.0000 0.0000 0.0000 0.8658
#
#
#
# Elastic Compliance Matrix: (Units=1/GPa)
#
#
# Indices 1 2 3 4 5 6 
#
# 1 0.013060 -0.005815 -0.004390 0.000000 0.000000 0.000000
# 2 -0.005815 0.013060 -0.004390 0.000000 0.000000 0.000000
# 3 -0.004390 -0.004390 0.026502 0.000000 0.000000 0.000000
# 4 0.000000 0.000000 0.000000 0.082004 0.000000 0.000000
# 5 0.000000 0.000000 0.000000 0.000000 0.082004 0.000000
# 6 0.000000 0.000000 0.000000 0.000000 0.000000 1.154985
#
#
# Mechanical properties :
#
#
# Convention : Reuss Voigt Hill
#
# Bulk Modulus (GPa) = 42.67667 56.33697 49.50682
# Shear Modulus (GPa) = 3.54959 15.43880 9.49419
#
# Velocity S-wave (km/s) = 1.38144 2.88104 2.25929
# Velocity P-wave (km/s) = 5.04865 6.43085 5.78121
#
# Compressibility (1/GPa) = 0.02343201
#
# Stress axis : x y z
#
# Youngs Moduli (GPa) = 76.57166 76.57138 37.73241
#
# Poissons Ratio (x) = 0.44525 0.16564
# Poissons Ratio (y) = 0.44525 0.16565
# Poissons Ratio (z) = 0.33615 0.33615
#
# Static dielectric constant tensor:
#      x y z
#    x 1.676300 0.000000 0.000000 
#    y 0.000000 1.676300 0.000000 
#    z 0.000000 0.000000 1.644720 
# 
# From -- ./inp_files/9693.got.cif
#   From: 2010.05.17/outbox.cif.g08.bks.cpg/sg131_5_cif.got.tgz:9693.got - 2010.05.20 12:21:01.
