data_PCOD9566158
_publ_section_title
;
Structure prediction by ZEFSAII (Michael W. Deem and Ramdas Pophale) SiO2 
 PCOD9566158
Probable space group: P 42/M M C
;
_chemical_formula_sum "Si O2"
_cell_formula_units_Z 40
_cell_length_a 7.643258
_cell_length_b 7.643258
_cell_length_c 34.520331
_cell_angle_alpha 90.000000
_cell_angle_beta 90.000000
_cell_angle_gamma 90.000000
_cell_volume 2016.656778
_symmetry_space_group_name_H-M "P 42/M M C"
_symmetry_group_IT_number 131
_symmetry_cell_setting 'tetragonal'
loop_
_space_group_symop_operation_xyz
x,y,z
-x,-y,z
-y,x,1/2+z
y,-x,1/2+z
-x,y,-z
x,-y,-z
y,x,1/2-z
-y,-x,1/2-z
-x,-y,-z
x,y,-z
y,-x,1/2-z
-y,x,1/2-z
x,-y,z
-x,y,z
-y,-x,1/2+z
y,x,1/2+z
loop_
_atom_site_type_symbol
_atom_site_label
_atom_site_fract_x
_atom_site_fract_y
_atom_site_fract_z
Si Si1 0.292158 0.707843 0.250000
Si Si2 0.699800 0.213643 0.956421
Si Si3 0.000000 0.709251 0.810435
Si Si4 0.208619 0.000000 0.599470
O O1 0.500000 0.734062 0.242689
O O2 0.172109 0.762871 0.213738
O O3 0.500000 0.270486 0.950608
O O4 0.829843 0.276334 0.923238
O O5 0.698485 0.000000 0.955898
O O6 0.756011 0.263917 0.000000
O O7 0.000000 0.500000 0.810264
O O8 0.000000 0.762509 0.854913
O O9 0.000000 0.000000 0.593818
#
# Coordination Sequence:
#
# PCOD9566158 Si02
#       4
#     8  16   8   8
#     4   9  20  39  58  76 102 137 176 217 266 328
#     4   8  14  26  44  68 102 139 172 209 255 306
#     4  10  22  37  55  77 102 138 174 211 270 326
#     4  10  19  28  46  78 102 126 166 220 262 304
#
# _framework density 19.834807000000001
#
# number of rings (size 3 to 8) (size 9 to 14) (size 15 to 20)
#    0.000    3.000    0.000    1.800    2.800    4.000 
#    0.000    0.000    0.000    2.400    0.000    2.800 
#    0.000    0.000    0.000    0.000    0.000    0.000 
#
# Total GULP energy -223089.190187 kJ/mol
# GULP energy per Si atom -5577.229755 kJ/mol
# Density = 1.978966 g / cm^3
# Si number density = 19.834807 Si / 1000 Ang^3
#
#
#
# Elastic Constant Matrix: (Units=GPa)
#
#
# Indices 1 2 3 4 5 6 
#
# 1 68.2094 35.3471 70.2519 0.0000 0.0000 0.0000
# 2 35.3471 68.2085 70.2520 0.0000 0.0000 0.0000
# 3 70.2519 70.2520 206.6565 0.0000 0.0000 0.0000
# 4 0.0000 0.0000 0.0000 -34.5933 0.0000 0.0000
# 5 0.0000 0.0000 0.0000 0.0000 -34.5950 0.0000
# 6 0.0000 0.0000 0.0000 0.0000 0.0000 3.0681
#
#
#
# Elastic Compliance Matrix: (Units=1/GPa)
#
#
# Indices 1 2 3 4 5 6 
#
# 1 0.024177 -0.006253 -0.006093 0.000000 0.000000 0.000000
# 2 -0.006253 0.024177 -0.006093 0.000000 0.000000 0.000000
# 3 -0.006093 -0.006093 0.008982 0.000000 0.000000 0.000000
# 4 0.000000 0.000000 0.000000 -0.028907 0.000000 0.000000
# 5 0.000000 0.000000 0.000000 0.000000 -0.028906 0.000000
# 6 0.000000 0.000000 0.000000 0.000000 0.000000 0.325939
#
#
# Mechanical properties :
#
#
# Convention : Reuss Voigt Hill
#
# Bulk Modulus (GPa) = 48.88408 77.19740 63.04074
# Shear Modulus (GPa) = 13.54429 -2.07582 5.73424
#
# Velocity S-wave (km/s) = 2.61598 -1.02412 1.70214
# Velocity P-wave (km/s) = 5.81581 6.13239 5.97620
#
# Compressibility (1/GPa) = 0.02045656
#
# Stress axis : x y z
#
# Youngs Moduli (GPa) = 41.36209 41.36114 111.33930
#
# Poissons Ratio (x) = 0.25865 0.67838
# Poissons Ratio (y) = 0.25865 0.67841
# Poissons Ratio (z) = 0.25202 0.25202
#
# Static dielectric constant tensor:
#      x y z
#    x 1.735110 0.000000 0.000000 
#    y 0.000000 1.735120 0.000000 
#    z 0.000000 0.000000 1.669540 
# 
# From -- ./inp_files/11767.got.cif
#   From: 2010.05.17/outbox.cif.g08.bks.cpg/sg131_6_cif.got.tgz:11767.got - 2010.05.20 12:21:01.
