data_PCOD9566329
_publ_section_title
;
Structure prediction by ZEFSAII (Michael W. Deem and Ramdas Pophale) SiO2 
 PCOD9566329
Probable space group: P 42/M M C
;
_chemical_formula_sum "Si O2"
_cell_formula_units_Z 104
_cell_length_a 17.927650
_cell_length_b 17.927650
_cell_length_c 17.670502
_cell_angle_alpha 90.000000
_cell_angle_beta 90.000000
_cell_angle_gamma 90.000000
_cell_volume 5679.310555
_symmetry_space_group_name_H-M "P 42/M M C"
_symmetry_group_IT_number 131
_symmetry_cell_setting 'tetragonal'
loop_
_space_group_symop_operation_xyz
x,y,z
-x,-y,z
-y,x,1/2+z
y,-x,1/2+z
-x,y,-z
x,-y,-z
y,x,1/2-z
-y,-x,1/2-z
-x,-y,-z
x,y,-z
y,-x,1/2-z
-y,x,1/2-z
x,-y,z
-x,y,z
-y,-x,1/2+z
y,x,1/2+z
loop_
_atom_site_type_symbol
_atom_site_label
_atom_site_fract_x
_atom_site_fract_y
_atom_site_fract_z
Si Si1 0.804949 0.914434 0.212393
Si Si2 0.345154 0.783548 0.414028
Si Si3 0.587826 0.587826 0.250000
Si Si4 0.630346 0.586324 0.915767
Si Si5 0.180663 0.273967 0.587537
Si Si6 0.083459 0.648479 0.200516
Si Si7 0.413774 0.913370 0.134095
O O1 0.874839 0.874839 0.250000
O O2 0.779516 0.868160 0.139734
O O3 0.733414 0.911439 0.268347
O O4 0.818603 0.000000 0.193558
O O5 0.336719 0.811406 0.500000
O O6 0.407309 0.719644 0.413674
O O7 0.267486 0.740825 0.393547
O O8 0.362264 0.850355 0.357902
O O9 0.602144 0.500000 0.242961
O O10 0.607734 0.619973 0.166361
O O11 0.605304 0.500000 0.916864
O O12 0.608274 0.618275 0.000000
O O13 0.171307 0.256021 0.500000
O O14 0.147145 0.356737 0.600731
O O15 0.091138 0.597527 0.275211
O O16 0.000000 0.637150 0.169253
O O17 0.500000 0.901565 0.113648
O O18 0.393371 0.000000 0.113391
#
# Coordination Sequence:
#
# PCOD9566329 Si02
#       7
#    16  16   8  16  16  16  16
#     4  10  19  33  53  76 102 135 175 216 261 315
#     4  10  20  34  53  76 103 136 175 219 268 322
#     4   9  18  32  52  78 102 134 182 218 255 320
#     4   9  19  35  52  74 106 138 171 218 269 317
#     4  10  20  34  53  79 108 140 177 218 263 317
#     4   9  18  33  53  74  99 134 175 219 266 314
#     4   9  19  34  52  77 108 141 176 215 262 319
#
# _framework density 18.312082
#
# number of rings (size 3 to 8) (size 9 to 14) (size 15 to 20)
#    0.000    2.538    1.538    1.385    0.000    5.385 
#    0.000    4.615    0.000    3.231    0.000    5.385 
#    0.000    0.000    0.000    0.000    0.000    0.000 
#
# Total GULP energy -579027.816186 kJ/mol
# GULP energy per Si atom -5567.575156 kJ/mol
# Density = 1.827040 g / cm^3
# Si number density = 18.312082 Si / 1000 Ang^3
#
#
#
# Elastic Constant Matrix: (Units=GPa)
#
#
# Indices 1 2 3 4 5 6 
#
# 1 39.1817 -14.3686 11.5709 0.0000 0.0000 0.0000
# 2 -14.3686 39.1817 11.5709 0.0000 0.0000 0.0000
# 3 11.5709 11.5709 97.6070 0.0000 0.0000 0.0000
# 4 0.0000 0.0000 0.0000 17.6555 0.0000 0.0000
# 5 0.0000 0.0000 0.0000 0.0000 17.6555 0.0000
# 6 0.0000 0.0000 0.0000 0.0000 0.0000 14.2531
#
#
#
# Elastic Compliance Matrix: (Units=1/GPa)
#
#
# Indices 1 2 3 4 5 6 
#
# 1 0.031992 0.013318 -0.005371 0.000000 0.000000 0.000000
# 2 0.013318 0.031992 -0.005371 0.000000 0.000000 0.000000
# 3 -0.005371 -0.005371 0.011519 0.000000 0.000000 0.000000
# 4 0.000000 0.000000 0.000000 0.056639 0.000000 0.000000
# 5 0.000000 0.000000 0.000000 0.000000 0.056639 0.000000
# 6 0.000000 0.000000 0.000000 0.000000 0.000000 0.070160
#
#
# Mechanical properties :
#
#
# Convention : Reuss Voigt Hill
#
# Bulk Modulus (GPa) = 12.39852 21.50189 16.95020
# Shear Modulus (GPa) = 17.81409 21.05931 19.43670
#
# Velocity S-wave (km/s) = 3.12237 3.39488 3.26147
# Velocity P-wave (km/s) = 4.44795 5.20906 4.84348
#
# Compressibility (1/GPa) = 0.08065481
#
# Stress axis : x y z
#
# Youngs Moduli (GPa) = 31.25734 31.25734 86.81543
#
# Poissons Ratio (x) = -0.41630 0.46632
# Poissons Ratio (y) = -0.41630 0.46632
# Poissons Ratio (z) = 0.16790 0.16790
#
# Static dielectric constant tensor:
#      x y z
#    x 1.630590 0.000000 0.000000 
#    y 0.000000 1.630590 0.000000 
#    z 0.000000 0.000000 1.663600 
# 
# From -- ./inp_files/8104.got.cif
#   From: 2010.05.17/outbox.cif.g08.bks.cpg/sg131_5_cif.got.tgz:8104.got - 2010.05.20 12:21:01.
