data_PCOD9566769
_publ_section_title
;
Structure prediction by ZEFSAII (Michael W. Deem and Ramdas Pophale) SiO2 
 PCOD9566769
Probable space group: P 42/M M C
;
_chemical_formula_sum "Si O2"
_cell_formula_units_Z 32
_cell_length_a 12.507628
_cell_length_b 12.507628
_cell_length_c 9.854542
_cell_angle_alpha 90.000000
_cell_angle_beta 90.000000
_cell_angle_gamma 90.000000
_cell_volume 1541.652022
_symmetry_space_group_name_H-M "P 42/M M C"
_symmetry_group_IT_number 131
_symmetry_cell_setting 'tetragonal'
loop_
_space_group_symop_operation_xyz
x,y,z
-x,-y,z
-y,x,1/2+z
y,-x,1/2+z
-x,y,-z
x,-y,-z
y,x,1/2-z
-y,-x,1/2-z
-x,-y,-z
x,y,-z
y,-x,1/2-z
-y,x,1/2-z
x,-y,z
-x,y,z
-y,-x,1/2+z
y,x,1/2+z
loop_
_atom_site_type_symbol
_atom_site_label
_atom_site_fract_x
_atom_site_fract_y
_atom_site_fract_z
Si Si1 0.118728 0.500000 0.247243
Si Si2 0.646501 0.500000 0.840265
Si Si3 0.262856 0.121639 0.154595
O O1 0.225747 0.500000 0.159280
O O2 0.125425 0.390993 0.332262
O O3 0.000000 0.500000 0.181043
O O4 0.598414 0.598414 0.750000
O O5 0.613724 0.500000 0.000000
O O6 0.205905 0.205905 0.250000
O O7 0.230948 0.000000 0.191128
O O8 0.232186 0.142405 0.000000
#
# Coordination Sequence:
#
# PCOD9566769 Si02
#       3
#     8   8  16
#     4  10  22  39  61  90 122 155 195 245 299 354
#     4  11  24  41  63  90 122 159 200 246 295 351
#     4  10  22  40  62  88 119 157 199 244 296 353
#
# _framework density 20.756952999999999
#
# number of rings (size 3 to 8) (size 9 to 14) (size 15 to 20)
#    0.000    1.750    0.000    3.750    0.000   15.000 
#    0.000    7.500    0.000    0.000    0.000    0.000 
#    0.000    0.000    0.000    0.000    0.000    0.000 
#
# Total GULP energy -178512.432468 kJ/mol
# GULP energy per Si atom -5578.513515 kJ/mol
# Density = 2.070971 g / cm^3
# Si number density = 20.756953 Si / 1000 Ang^3
#
#
#
# Elastic Constant Matrix: (Units=GPa)
#
#
# Indices 1 2 3 4 5 6 
#
# 1 123.3877 64.0275 58.4134 0.0000 0.0000 0.0000
# 2 64.0275 123.3877 58.4134 0.0000 0.0000 0.0000
# 3 58.4134 58.4134 103.2236 0.0000 0.0000 0.0000
# 4 0.0000 0.0000 0.0000 13.7858 0.0000 0.0000
# 5 0.0000 0.0000 0.0000 0.0000 13.7858 0.0000
# 6 0.0000 0.0000 0.0000 0.0000 0.0000 26.4925
#
#
#
# Elastic Compliance Matrix: (Units=1/GPa)
#
#
# Indices 1 2 3 4 5 6 
#
# 1 0.012545 -0.004301 -0.004665 0.000000 0.000000 0.000000
# 2 -0.004301 0.012545 -0.004665 0.000000 0.000000 0.000000
# 3 -0.004665 -0.004665 0.014968 0.000000 0.000000 0.000000
# 4 0.000000 0.000000 0.000000 0.072538 0.000000 0.000000
# 5 0.000000 0.000000 0.000000 0.000000 0.072538 0.000000
# 6 0.000000 0.000000 0.000000 0.000000 0.000000 0.037747
#
#
# Mechanical properties :
#
#
# Convention : Reuss Voigt Hill
#
# Bulk Modulus (GPa) = 78.15686 79.07860 78.61773
# Shear Modulus (GPa) = 19.65342 22.08914 20.87128
#
# Velocity S-wave (km/s) = 3.08041 3.26572 3.17441
# Velocity P-wave (km/s) = 7.09838 7.23878 7.16892
#
# Compressibility (1/GPa) = 0.01279478
#
# Stress axis : x y z
#
# Youngs Moduli (GPa) = 79.71281 79.71281 66.81115
#
# Poissons Ratio (x) = 0.34287 0.31168
# Poissons Ratio (y) = 0.34287 0.31168
# Poissons Ratio (z) = 0.37187 0.37187
#
# Static dielectric constant tensor:
#      x y z
#    x 1.761640 0.000000 0.000000 
#    y 0.000000 1.761640 0.000000 
#    z 0.000000 0.000000 1.691590 
# 
# From -- ./inp_files/3113.got.cif
#   From: 2010.05.17/outbox.cif.g08.bks.cpg/sg131_2_cif.got.tgz:3113.got - 2010.05.20 12:21:01.
