data_PCOD9566818
_publ_section_title
;
Structure prediction by ZEFSAII (Michael W. Deem and Ramdas Pophale) SiO2 
 PCOD9566818
Probable space group: P 42/M M C
;
_chemical_formula_sum "Si O2"
_cell_formula_units_Z 72
_cell_length_a 15.411805
_cell_length_b 15.411805
_cell_length_c 15.334947
_cell_angle_alpha 90.000000
_cell_angle_beta 90.000000
_cell_angle_gamma 90.000000
_cell_volume 3642.413862
_symmetry_space_group_name_H-M "P 42/M M C"
_symmetry_group_IT_number 131
_symmetry_cell_setting 'tetragonal'
loop_
_space_group_symop_operation_xyz
x,y,z
-x,-y,z
-y,x,1/2+z
y,-x,1/2+z
-x,y,-z
x,-y,-z
y,x,1/2-z
-y,-x,1/2-z
-x,-y,-z
x,y,-z
y,-x,1/2-z
-y,x,1/2-z
x,-y,z
-x,y,z
-y,-x,1/2+z
y,x,1/2+z
loop_
_atom_site_type_symbol
_atom_site_label
_atom_site_fract_x
_atom_site_fract_y
_atom_site_fract_z
Si Si1 0.902637 0.313282 0.396134
Si Si2 0.500000 0.894558 0.900470
Si Si3 0.724589 0.250098 0.351567
Si Si4 0.403593 0.099167 0.605401
Si Si5 0.599852 0.598709 0.643495
O O1 0.910824 0.326585 0.500000
O O2 0.873135 0.407492 0.358218
O O3 0.823360 0.248548 0.383956
O O4 0.000000 0.290969 0.364190
O O5 0.500000 0.000000 0.904970
O O6 0.500000 0.860039 0.000000
O O7 0.732283 0.267718 0.250000
O O8 0.671310 0.163004 0.365947
O O9 0.667347 0.329667 0.389513
O O10 0.404220 0.098307 0.500000
O O11 0.500000 0.128257 0.634392
O O12 0.391337 0.000000 0.635182
O O13 0.600251 0.600251 0.750000
O O14 0.621981 0.500000 0.617367
O O15 0.500000 0.616886 0.617006
#
# Coordination Sequence:
#
# PCOD9566818 Si02
#       5
#    16   8  16  16  16
#     4   9  18  33  51  71  99 137 176 211 251 307
#     4   7  12  26  46  66  91 127 170 206 236 281
#     4  11  21  30  50  80 111 138 169 219 276 331
#     4   9  19  38  61  80 102 140 192 242 278 313
#     4   8  15  28  43  62  96 139 174 201 239 302
#
# _framework density 19.767111
#
# number of rings (size 3 to 8) (size 9 to 14) (size 15 to 20)
#    0.000    3.000    0.000    4.000    1.556    1.778 
#    0.000    0.000    0.000    0.667    0.000    9.333 
#    0.000    0.000    0.000    0.000    0.000    0.000 
#
# Total GULP energy -401451.171797 kJ/mol
# GULP energy per Si atom -5575.710719 kJ/mol
# Density = 1.972212 g / cm^3
# Si number density = 19.767111 Si / 1000 Ang^3
#
#
#
# Elastic Constant Matrix: (Units=GPa)
#
#
# Indices 1 2 3 4 5 6 
#
# 1 120.2710 90.8791 11.6039 0.0000 0.0000 0.0000
# 2 90.8791 120.2707 11.6038 0.0000 0.0000 0.0000
# 3 11.6039 11.6038 24.3451 0.0000 0.0000 0.0000
# 4 0.0000 0.0000 0.0000 15.4819 0.0000 0.0000
# 5 0.0000 0.0000 0.0000 0.0000 15.4820 0.0000
# 6 0.0000 0.0000 0.0000 0.0000 0.0000 30.8077
#
#
#
# Elastic Compliance Matrix: (Units=1/GPa)
#
#
# Indices 1 2 3 4 5 6 
#
# 1 0.019510 -0.014513 -0.002382 0.000000 0.000000 0.000000
# 2 -0.014513 0.019511 -0.002382 0.000000 0.000000 0.000000
# 3 -0.002382 -0.002382 0.043347 0.000000 0.000000 0.000000
# 4 0.000000 0.000000 0.000000 0.064592 0.000000 0.000000
# 5 0.000000 0.000000 0.000000 0.000000 0.064591 0.000000
# 6 0.000000 0.000000 0.000000 0.000000 0.000000 0.032459
#
#
# Mechanical properties :
#
#
# Convention : Reuss Voigt Hill
#
# Bulk Modulus (GPa) = 22.82384 54.78451 38.80418
# Shear Modulus (GPa) = 16.82546 22.40765 19.61656
#
# Velocity S-wave (km/s) = 2.92067 3.37052 3.15363
# Velocity P-wave (km/s) = 4.79012 6.55152 5.73880
#
# Compressibility (1/GPa) = 0.04381383
#
# Stress axis : x y z
#
# Youngs Moduli (GPa) = 51.25453 51.25444 23.06972
#
# Poissons Ratio (x) = 0.74384 0.05496
# Poissons Ratio (y) = 0.74384 0.05495
# Poissons Ratio (z) = 0.12210 0.12209
#
# Static dielectric constant tensor:
#      x y z
#    x 1.718680 0.000000 0.000000 
#    y 0.000000 1.718680 0.000000 
#    z 0.000000 0.000000 1.736290 
# 
# From -- ./inp_files/7598.got.cif
#   From: 2010.05.17/outbox.cif.g08.bks.cpg/sg131_4_cif.got.tgz:7598.got - 2010.05.20 12:21:01.
