data_PCOD9566132
_publ_section_title
;
Structure prediction by ZEFSAII (Michael W. Deem and Ramdas Pophale) SiO2 
 PCOD9566132
Probable space group: P 42/M M C
;
_chemical_formula_sum "Si O2"
_cell_formula_units_Z 120
_cell_length_a 22.033414
_cell_length_b 22.033414
_cell_length_c 15.406993
_cell_angle_alpha 90.000000
_cell_angle_beta 90.000000
_cell_angle_gamma 90.000000
_cell_volume 7479.653421
_symmetry_space_group_name_H-M "P 42/M M C"
_symmetry_group_IT_number 131
_symmetry_cell_setting 'tetragonal'
loop_
_space_group_symop_operation_xyz
x,y,z
-x,-y,z
-y,x,1/2+z
y,-x,1/2+z
-x,y,-z
x,-y,-z
y,x,1/2-z
-y,-x,1/2-z
-x,-y,-z
x,y,-z
y,-x,1/2-z
-y,x,1/2-z
x,-y,z
-x,y,z
-y,-x,1/2+z
y,x,1/2+z
loop_
_atom_site_type_symbol
_atom_site_label
_atom_site_fract_x
_atom_site_fract_y
_atom_site_fract_z
Si Si1 0.753277 0.343221 0.600837
Si Si2 0.119169 0.725870 0.600373
Si Si3 0.118914 0.277038 0.899716
Si Si4 0.347977 0.246091 0.600163
Si Si5 0.427909 0.196231 0.752172
Si Si6 0.358226 0.931090 0.249115
Si Si7 0.928265 0.067282 0.000000
Si Si8 0.865022 0.137664 0.849158
O O1 0.747880 0.362266 0.500000
O O2 0.811684 0.298782 0.606229
O O3 0.693694 0.303949 0.624063
O O4 0.769771 0.397172 0.665949
O O5 0.099757 0.720459 0.500000
O O6 0.080033 0.685598 0.666314
O O7 0.121303 0.795569 0.628466
O O8 0.186853 0.304627 0.897126
O O9 0.078772 0.317553 0.835375
O O10 0.123905 0.208834 0.865515
O O11 0.098420 0.277817 0.000000
O O12 0.368234 0.253206 0.500000
O O13 0.400750 0.229945 0.667409
O O14 0.500000 0.198359 0.754786
O O15 0.405053 0.125731 0.751858
O O16 0.382687 0.000000 0.247291
O O17 0.906349 0.101909 0.084539
O O18 0.000000 0.064271 0.000000
O O19 0.901539 0.000000 0.000000
O O20 0.877460 0.122541 0.750000
#
# Coordination Sequence:
#
# PCOD9566132 Si02
#       8
#    16  16  16  16  16  16   8  16
#     4   9  17  30  54  80 106 133 167 212 267 310
#     4  10  18  32  53  79 104 124 154 210 275 327
#     4  10  18  32  53  79 104 124 154 210 275 327
#     4   9  17  30  54  80 106 133 167 212 267 310
#     4  10  21  34  50  74 108 150 183 211 253 309
#     4  10  22  35  49  73 103 137 182 227 256 296
#     4  11  28  48  56  64  92 136 174 202 254 338
#     4  12  21  35  59  82 100 124 158 210 274 332
#
# _framework density 16.043524000000001
#
# number of rings (size 3 to 8) (size 9 to 14) (size 15 to 20)
#    0.000    1.933    4.000    0.400    0.000    2.933 
#    0.000    0.667    0.000    0.000    0.000    7.467 
#    0.000    4.267    0.000   11.733    0.000    0.000 
#
# Total GULP energy -669364.568130 kJ/mol
# GULP energy per Si atom -5578.038068 kJ/mol
# Density = 1.600701 g / cm^3
# Si number density = 16.043524 Si / 1000 Ang^3
#
#
#
# Elastic Constant Matrix: (Units=GPa)
#
#
# Indices 1 2 3 4 5 6 
#
# 1 80.0325 51.4871 53.1502 0.0000 0.0000 0.0000
# 2 51.4871 80.0326 53.1504 0.0000 0.0000 0.0000
# 3 53.1502 53.1504 135.7704 0.0000 0.0000 0.0000
# 4 0.0000 0.0000 0.0000 7.4676 0.0000 0.0000
# 5 0.0000 0.0000 0.0000 0.0000 7.4663 0.0000
# 6 0.0000 0.0000 0.0000 0.0000 0.0000 13.7012
#
#
#
# Elastic Compliance Matrix: (Units=1/GPa)
#
#
# Indices 1 2 3 4 5 6 
#
# 1 0.023077 -0.011955 -0.004354 0.000000 0.000000 0.000000
# 2 -0.011955 0.023077 -0.004354 0.000000 0.000000 0.000000
# 3 -0.004354 -0.004354 0.010775 0.000000 0.000000 0.000000
# 4 0.000000 0.000000 0.000000 0.133912 0.000000 0.000000
# 5 0.000000 0.000000 0.000000 0.000000 0.133935 0.000000
# 6 0.000000 0.000000 0.000000 0.000000 0.000000 0.072986
#
#
# Mechanical properties :
#
#
# Convention : Reuss Voigt Hill
#
# Bulk Modulus (GPa) = 64.09018 67.93455 66.01236
# Shear Modulus (GPa) = 11.25392 14.93021 13.09206
#
# Velocity S-wave (km/s) = 2.65139 3.05389 2.85973
# Velocity P-wave (km/s) = 7.02905 7.40749 7.22075
#
# Compressibility (1/GPa) = 0.01560301
#
# Stress axis : x y z
#
# Youngs Moduli (GPa) = 43.33271 43.33270 92.81170
#
# Poissons Ratio (x) = 0.51802 0.40412
# Poissons Ratio (y) = 0.51802 0.40413
# Poissons Ratio (z) = 0.18868 0.18868
#
# Static dielectric constant tensor:
#      x y z
#    x 1.515070 0.000000 0.000000 
#    y 0.000000 1.515070 0.000000 
#    z 0.000000 0.000000 1.560710 
# 
# From -- ./inp_files/6346.got.cif
#   From: 2010.05.17/outbox.cif.g08.bks.cpg/sg131_4_cif.got.tgz:6346.got - 2010.05.20 12:21:01.
