data_PCOD9566154
_publ_section_title
;
Structure prediction by ZEFSAII (Michael W. Deem and Ramdas Pophale) SiO2 
 PCOD9566154
Probable space group: P 42/M M C
;
_chemical_formula_sum "Si O2"
_cell_formula_units_Z 112
_cell_length_a 15.575667
_cell_length_b 15.575667
_cell_length_c 22.873408
_cell_angle_alpha 90.000000
_cell_angle_beta 90.000000
_cell_angle_gamma 90.000000
_cell_volume 5549.120861
_symmetry_space_group_name_H-M "P 42/M M C"
_symmetry_group_IT_number 131
_symmetry_cell_setting 'tetragonal'
loop_
_space_group_symop_operation_xyz
x,y,z
-x,-y,z
-y,x,1/2+z
y,-x,1/2+z
-x,y,-z
x,-y,-z
y,x,1/2-z
-y,-x,1/2-z
-x,-y,-z
x,y,-z
y,-x,1/2-z
-y,x,1/2-z
x,-y,z
-x,y,z
-y,-x,1/2+z
y,x,1/2+z
loop_
_atom_site_type_symbol
_atom_site_label
_atom_site_fract_x
_atom_site_fract_y
_atom_site_fract_z
Si Si1 0.400637 0.254490 0.404968
Si Si2 0.737979 0.400879 0.568233
Si Si3 0.906906 0.682555 0.618772
Si Si4 0.718642 0.906731 0.382505
Si Si5 0.271346 0.409192 0.765975
Si Si6 0.904817 0.133229 0.568024
Si Si7 0.716886 0.863100 0.247126
O O1 0.500000 0.249490 0.427981
O O2 0.342399 0.335307 0.424869
O O3 0.340518 0.169102 0.409535
O O4 0.410428 0.265136 0.335466
O O5 0.763601 0.397638 0.500000
O O6 0.715319 0.500000 0.582202
O O7 0.820116 0.370063 0.606025
O O8 0.903389 0.763951 0.575639
O O9 0.906901 0.723311 0.684311
O O10 0.000000 0.638170 0.610990
O O11 0.818329 0.897466 0.400618
O O12 0.717657 0.904087 0.311421
O O13 0.686711 0.000000 0.401779
O O14 0.341596 0.341596 0.750000
O O15 0.294720 0.500000 0.740940
O O16 0.181080 0.376124 0.743397
O O17 0.899239 0.109905 0.500000
O O18 0.000000 0.104989 0.589762
O O19 0.790262 0.790262 0.250000
#
# Coordination Sequence:
#
# PCOD9566154 Si02
#       7
#    16  16  16  16  16  16  16
#     4  10  22  41  61  85 120 159 201 256 316 370
#     4  11  24  42  65  92 122 160 208 259 312 372
#     4  11  21  36  61  91 125 165 207 251 306 369
#     4  11  22  38  63  93 125 165 212 259 311 368
#     4   9  18  31  51  78 111 152 196 244 300 361
#     4  10  21  38  61  88 121 163 208 254 306 365
#     4  10  18  35  56  83 121 163 206 253 304 359
#
# _framework density 20.183377
#
# number of rings (size 3 to 8) (size 9 to 14) (size 15 to 20)
#    0.000    1.714    2.857    2.571    0.000    5.000 
#    0.000    3.571    0.000    2.571    0.000    2.000 
#    0.000    0.000    0.000    0.000    0.000    0.000 
#
# Total GULP energy -623832.070056 kJ/mol
# GULP energy per Si atom -5569.929197 kJ/mol
# Density = 2.013744 g / cm^3
# Si number density = 20.183377 Si / 1000 Ang^3
#
#
#
# Elastic Constant Matrix: (Units=GPa)
#
#
# Indices 1 2 3 4 5 6 
#
# 1 125.2068 82.3936 26.6765 0.0000 0.0000 0.0000
# 2 82.3936 125.2068 26.6765 0.0000 0.0000 0.0000
# 3 26.6765 26.6765 70.9635 0.0000 0.0000 0.0000
# 4 0.0000 0.0000 0.0000 9.9150 0.0000 0.0000
# 5 0.0000 0.0000 0.0000 0.0000 9.9150 0.0000
# 6 0.0000 0.0000 0.0000 0.0000 0.0000 4.0181
#
#
#
# Elastic Compliance Matrix: (Units=1/GPa)
#
#
# Indices 1 2 3 4 5 6 
#
# 1 0.014345 -0.009013 -0.002004 0.000000 0.000000 0.000000
# 2 -0.009013 0.014345 -0.002004 0.000000 0.000000 0.000000
# 3 -0.002004 -0.002004 0.015599 0.000000 0.000000 0.000000
# 4 0.000000 0.000000 0.000000 0.100857 0.000000 0.000000
# 5 0.000000 0.000000 0.000000 0.000000 0.100857 0.000000
# 6 0.000000 0.000000 0.000000 0.000000 0.000000 0.248871
#
#
# Mechanical properties :
#
#
# Convention : Reuss Voigt Hill
#
# Bulk Modulus (GPa) = 54.80893 65.87451 60.34172
# Shear Modulus (GPa) = 9.48770 17.14499 13.31634
#
# Velocity S-wave (km/s) = 2.17047 2.91771 2.57138
# Velocity P-wave (km/s) = 5.78755 6.63774 6.22717
#
# Compressibility (1/GPa) = 0.01824520
#
# Stress axis : x y z
#
# Youngs Moduli (GPa) = 69.71226 69.71226 64.10761
#
# Poissons Ratio (x) = 0.62829 0.12850
# Poissons Ratio (y) = 0.62829 0.12850
# Poissons Ratio (z) = 0.13973 0.13973
#
# Static dielectric constant tensor:
#      x y z
#    x 1.722450 0.000000 0.000000 
#    y 0.000000 1.722450 0.000000 
#    z 0.000000 0.000000 1.795140 
# 
# From -- ./inp_files/11266.got.cif
#   From: 2010.05.17/outbox.cif.g08.bks.cpg/sg131_6_cif.got.tgz:11266.got - 2010.05.20 12:21:01.
