data_PCOD9566051
_publ_section_title
;
Structure prediction by ZEFSAII (Michael W. Deem and Ramdas Pophale) SiO2 
 PCOD9566051
Probable space group: P 42/M M C
;
_chemical_formula_sum "Si O2"
_cell_formula_units_Z 80
_cell_length_a 15.418626
_cell_length_b 15.418626
_cell_length_c 18.548964
_cell_angle_alpha 90.000000
_cell_angle_beta 90.000000
_cell_angle_gamma 90.000000
_cell_volume 4409.719922
_symmetry_space_group_name_H-M "P 42/M M C"
_symmetry_group_IT_number 131
_symmetry_cell_setting 'tetragonal'
loop_
_space_group_symop_operation_xyz
x,y,z
-x,-y,z
-y,x,1/2+z
y,-x,1/2+z
-x,y,-z
x,-y,-z
y,x,1/2-z
-y,-x,1/2-z
-x,-y,-z
x,y,-z
y,-x,1/2-z
-y,x,1/2-z
x,-y,z
-x,y,z
-y,-x,1/2+z
y,x,1/2+z
loop_
_atom_site_type_symbol
_atom_site_label
_atom_site_fract_x
_atom_site_fract_y
_atom_site_fract_z
Si Si1 0.778011 0.906093 0.842052
Si Si2 0.693285 0.596362 0.345812
Si Si3 0.596527 0.131018 0.916645
Si Si4 0.100013 0.249759 0.830743
Si Si5 0.767805 0.400711 0.815023
O O1 0.681834 0.900098 0.875460
O O2 0.841531 0.827809 0.863182
O O3 0.767023 0.902719 0.755593
O O4 0.815642 0.000000 0.861388
O O5 0.653181 0.500000 0.342458
O O6 0.764852 0.598723 0.407843
O O7 0.628645 0.676452 0.349580
O O8 0.748188 0.607623 0.271105
O O9 0.500000 0.104525 0.888975
O O10 0.601646 0.106060 0.000000
O O11 0.155534 0.337317 0.838649
O O12 0.000000 0.253251 0.855692
O O13 0.787755 0.500000 0.830244
#
# Coordination Sequence:
#
# PCOD9566051 Si02
#       5
#    16  16  16  16  16
#     4  10  19  33  51  71 100 133 164 202 248 297
#     4   9  16  29  47  70 103 133 163 202 244 296
#     4  10  19  31  50  75 104 139 172 199 235 290
#     4  10  19  32  50  73 100 128 163 207 256 300
#     4  10  17  28  49  73  99 130 162 201 255 305
#
# _framework density 18.141742000000001
#
# number of rings (size 3 to 8) (size 9 to 14) (size 15 to 20)
#    0.000    2.200    4.000    1.200    0.000    2.000 
#    0.000    7.000    0.000    1.200    0.000    4.200 
#    0.000    1.600    0.000    0.000    0.000    0.000 
#
# Total GULP energy -445671.105030 kJ/mol
# GULP energy per Si atom -5570.888813 kJ/mol
# Density = 1.810045 g / cm^3
# Si number density = 18.141742 Si / 1000 Ang^3
#
#
#
# Elastic Constant Matrix: (Units=GPa)
#
#
# Indices 1 2 3 4 5 6 
#
# 1 149.9547 98.0414 10.5177 0.0000 0.0000 0.0000
# 2 98.0414 149.9547 10.5177 0.0000 0.0000 0.0000
# 3 10.5177 10.5177 20.1147 0.0000 0.0000 0.0000
# 4 0.0000 0.0000 0.0000 -2.9615 0.0000 0.0000
# 5 0.0000 0.0000 0.0000 0.0000 -2.9615 0.0000
# 6 0.0000 0.0000 0.0000 0.0000 0.0000 -0.2654
#
#
#
# Elastic Compliance Matrix: (Units=1/GPa)
#
#
# Indices 1 2 3 4 5 6 
#
# 1 0.011741 -0.007522 -0.002206 0.000000 0.000000 0.000000
# 2 -0.007522 0.011741 -0.002206 0.000000 0.000000 0.000000
# 3 -0.002206 -0.002206 0.052022 0.000000 0.000000 0.000000
# 4 0.000000 0.000000 0.000000 -0.337670 0.000000 0.000000
# 5 0.000000 0.000000 0.000000 0.000000 -0.337670 0.000000
# 6 0.000000 0.000000 0.000000 0.000000 0.000000 -3.767964
#
#
# Mechanical properties :
#
#
# Convention : Reuss Voigt Hill
#
# Bulk Modulus (GPa) = 19.36634 62.01975 40.69305
# Shear Modulus (GPa) = -1.15561 12.15882 5.50160
#
# Velocity S-wave (km/s) = -0.79898 2.59165 1.74332
# Velocity P-wave (km/s) = 3.13800 6.57389 5.15087
#
# Compressibility (1/GPa) = 0.05163599
#
# Stress axis : x y z
#
# Youngs Moduli (GPa) = 85.17037 85.17037 19.22253
#
# Poissons Ratio (x) = 0.64063 0.04241
# Poissons Ratio (y) = 0.64063 0.04241
# Poissons Ratio (z) = 0.18791 0.18791
#
# Static dielectric constant tensor:
#      x y z
#    x 1.645510 0.000000 0.000000 
#    y 0.000000 1.645510 0.000000 
#    z 0.000000 0.000000 1.628110 
# 
# From -- ./inp_files/9439.got.cif
#   From: 2010.05.17/outbox.cif.g08.bks.cpg/sg131_5_cif.got.tgz:9439.got - 2010.05.20 12:21:01.
