data_PCOD9566541
_publ_section_title
;
Structure prediction by ZEFSAII (Michael W. Deem and Ramdas Pophale) SiO2 
 PCOD9566541
Probable space group: P 42/M M C
;
_chemical_formula_sum "Si O2"
_cell_formula_units_Z 48
_cell_length_a 8.166119
_cell_length_b 8.166119
_cell_length_c 34.872733
_cell_angle_alpha 90.000000
_cell_angle_beta 90.000000
_cell_angle_gamma 90.000000
_cell_volume 2325.505620
_symmetry_space_group_name_H-M "P 42/M M C"
_symmetry_group_IT_number 131
_symmetry_cell_setting 'tetragonal'
loop_
_space_group_symop_operation_xyz
x,y,z
-x,-y,z
-y,x,1/2+z
y,-x,1/2+z
-x,y,-z
x,-y,-z
y,x,1/2-z
-y,-x,1/2-z
-x,-y,-z
x,y,-z
y,-x,1/2-z
-y,x,1/2-z
x,-y,z
-x,y,z
-y,-x,1/2+z
y,x,1/2+z
loop_
_atom_site_type_symbol
_atom_site_label
_atom_site_fract_x
_atom_site_fract_y
_atom_site_fract_z
Si Si1 0.822354 0.696035 0.411334
Si Si2 0.700618 0.500000 0.044496
Si Si3 0.804850 0.804850 0.250000
Si Si4 0.802249 0.312948 0.832723
O O1 0.823344 0.500000 0.416315
O O2 0.664245 0.759387 0.434161
O O3 0.797938 0.733209 0.366447
O O4 0.000000 0.759782 0.424056
O O5 0.500000 0.500000 0.046249
O O6 0.746491 0.500000 0.000000
O O7 0.728625 0.745023 0.289794
O O8 0.000000 0.777202 0.252532
O O9 0.758750 0.500000 0.841786
O O10 0.000000 0.297090 0.832760
#
# Coordination Sequence:
#
# PCOD9566541 Si02
#       4
#    16   8   8  16
#     4  10  20  34  55  81 108 142 182 226 279 340
#     4   9  18  34  55  81 113 143 177 229 285 341
#     4   9  18  32  48  69 100 138 180 223 264 315
#     4  10  20  34  53  77 107 144 184 226 276 333
#
# _framework density 20.640674000000001
#
# number of rings (size 3 to 8) (size 9 to 14) (size 15 to 20)
#    0.000    2.333    1.667    1.000    0.000    4.000 
#    0.000    6.667    0.000    2.000    0.000    2.333 
#    0.000    0.000    0.000    0.000    0.000    0.000 
#
# Total GULP energy -267941.382599 kJ/mol
# GULP energy per Si atom -5582.112137 kJ/mol
# Density = 2.059369 g / cm^3
# Si number density = 20.640674 Si / 1000 Ang^3
#
#
#
# Elastic Constant Matrix: (Units=GPa)
#
#
# Indices 1 2 3 4 5 6 
#
# 1 35.5644 59.8594 35.1537 0.0000 0.0000 0.0000
# 2 59.8594 35.5644 35.1537 0.0000 0.0000 0.0000
# 3 35.1537 35.1537 122.9907 0.0000 0.0000 0.0000
# 4 0.0000 0.0000 0.0000 -60.3344 0.0000 0.0000
# 5 0.0000 0.0000 0.0000 0.0000 -60.3344 0.0000
# 6 0.0000 0.0000 0.0000 0.0000 0.0000 11.9195
#
#
#
# Elastic Compliance Matrix: (Units=1/GPa)
#
#
# Indices 1 2 3 4 5 6 
#
# 1 -0.013943 0.027218 -0.003794 0.000000 0.000000 0.000000
# 2 0.027218 -0.013943 -0.003794 0.000000 0.000000 0.000000
# 3 -0.003794 -0.003794 0.010300 0.000000 0.000000 0.000000
# 4 0.000000 0.000000 0.000000 -0.016574 0.000000 0.000000
# 5 0.000000 0.000000 0.000000 0.000000 -0.016574 0.000000
# 6 0.000000 0.000000 0.000000 0.000000 0.000000 0.083896
#
#
# Mechanical properties :
#
#
# Convention : Reuss Voigt Hill
#
# Bulk Modulus (GPa) = 46.14103 50.49479 48.31791
# Shear Modulus (GPa) = 4432.10399 -17.48636 2207.30882
#
# Velocity S-wave (km/s) = 46.38889 -2.91379 32.73712
# Velocity P-wave (km/s) = 53.77398 3.63271 38.11061
#
# Compressibility (1/GPa) = 0.02167268
#
# Stress axis : x y z
#
# Youngs Moduli (GPa) = -71.72215 -71.72215 97.08982
#
# Poissons Ratio (x) = 1.95213 0.36840
# Poissons Ratio (y) = 1.95213 0.36840
# Poissons Ratio (z) = -0.27214 -0.27214
#
# Static dielectric constant tensor:
#      x y z
#    x 1.749870 0.000000 0.000000 
#    y 0.000000 1.749870 0.000000 
#    z 0.000000 0.000000 1.721040 
# 
# From -- ./inp_files/12920.got.cif
#   From: 2010.05.17/outbox.cif.g08.bks.cpg/sg131_7_cif.got.tgz:12920.got - 2010.05.20 12:21:01.
