data_PCOD9566904
_publ_section_title
;
Structure prediction by ZEFSAII (Michael W. Deem and Ramdas Pophale) SiO2 
 PCOD9566904
Probable space group: P 42/M M C
;
_chemical_formula_sum "Si O2"
_cell_formula_units_Z 128
_cell_length_a 21.000000
_cell_length_b 21.000000
_cell_length_c 18.000000
_cell_angle_alpha 90.000000
_cell_angle_beta 90.000000
_cell_angle_gamma 90.000000
_cell_volume 7938.000000
_symmetry_space_group_name_H-M "P 42/M M C"
_symmetry_group_IT_number 131
_symmetry_cell_setting 'tetragonal'
loop_
_space_group_symop_operation_xyz
x,y,z
-x,-y,z
-y,x,1/2+z
y,-x,1/2+z
-x,y,-z
x,-y,-z
y,x,1/2-z
-y,-x,1/2-z
-x,-y,-z
x,y,-z
y,-x,1/2-z
-y,x,1/2-z
x,-y,z
-x,y,z
-y,-x,1/2+z
y,x,1/2+z
loop_
_atom_site_type_symbol
_atom_site_label
_atom_site_fract_x
_atom_site_fract_y
_atom_site_fract_z
Si Si1 0.187554 0.243167 0.317211
Si Si2 0.602365 0.813014 0.189836
Si Si3 0.249510 0.069632 0.915147
Si Si4 0.750568 0.695814 0.920264
Si Si5 0.596721 0.304437 0.083207
Si Si6 0.570408 0.604777 0.667869
Si Si7 0.595928 0.072851 0.915708
Si Si8 0.569380 0.242790 0.345052
O O1 0.195649 0.195649 0.250000
O O2 0.185494 0.319956 0.302236
O O3 0.127170 0.227259 0.366019
O O4 0.253131 0.232529 0.360008
O O5 0.582749 0.753725 0.137642
O O6 0.579472 0.876246 0.147262
O O7 0.575471 0.798235 0.270611
O O8 0.326803 0.072377 0.916737
O O9 0.231467 0.000000 0.886895
O O10 0.228459 0.076160 0.000000
O O11 0.673744 0.694089 0.921676
O O12 0.773667 0.626186 0.899620
O O13 0.773726 0.717080 0.000000
O O14 0.579127 0.372213 0.118039
O O15 0.572654 0.295078 0.000000
O O16 0.577242 0.577242 0.750000
O O17 0.500000 0.591731 0.637627
O O18 0.577163 0.681900 0.675057
O O19 0.575446 0.000000 0.902101
O O20 0.576189 0.091131 0.000000
O O21 0.500000 0.235420 0.378879
#
# Coordination Sequence:
#
# PCOD9566904 Si02
#       8
#    16  16  16  16  16  16  16  16
#     4  10  16  23  41  66  91 118 148 183 220 256
#     4  10  16  26  44  61  89 116 144 178 218 260
#     4   8  14  24  37  58  93 130 155 177 212 261
#     4   9  17  27  40  62  88 113 141 180 224 264
#     4   9  17  27  44  65  83 106 139 176 218 265
#     4  10  19  31  46  60  80 107 139 179 222 267
#     4   8  14  24  40  64  90 117 148 178 213 259
#     4  10  19  29  43  61  82 113 146 181 222 263
#
# _framework density 16.124969
#
# number of rings (size 3 to 8) (size 9 to 14) (size 15 to 20)
#    0.000    2.750    2.500    1.500    0.000    3.625 
#    0.000    2.500    0.000    3.000    0.000    1.750 
#    0.000    3.750    0.000    2.500    0.000    0.250 
#
# Total GULP energy -712733.770364 kJ/mol
# GULP energy per Si atom -5568.232581 kJ/mol
# Density = 1.608827 g / cm^3
# Si number density = 16.124969 Si / 1000 Ang^3
#
#
#
# Elastic Constant Matrix: (Units=GPa)
#
#
# Indices 1 2 3 4 5 6 
#
# 1 42.6494 4.5652 -5.2648 0.0000 0.0000 0.0000
# 2 4.5652 42.6494 -5.2648 0.0000 0.0000 0.0000
# 3 -5.2648 -5.2648 -5.7904 0.0000 0.0000 0.0000
# 4 0.0000 0.0000 0.0000 87.4142 0.0000 0.0000
# 5 0.0000 0.0000 0.0000 0.0000 87.4142 0.0000
# 6 0.0000 0.0000 0.0000 0.0000 0.0000 -1.1213
#
#
#
# Elastic Compliance Matrix: (Units=1/GPa)
#
#
# Indices 1 2 3 4 5 6 
#
# 1 0.021933 -0.004324 -0.016011 0.000000 0.000000 0.000000
# 2 -0.004324 0.021933 -0.016011 0.000000 0.000000 0.000000
# 3 -0.016011 -0.016011 -0.143585 0.000000 0.000000 0.000000
# 4 0.000000 0.000000 0.000000 0.011440 0.000000 0.000000
# 5 0.000000 0.000000 0.000000 0.000000 0.011440 0.000000
# 6 0.000000 0.000000 0.000000 0.000000 0.000000 -0.891802
#
#
# Mechanical properties :
#
#
# Convention : Reuss Voigt Hill
#
# Bulk Modulus (GPa) = -5.80011 7.50885 0.85437
# Shear Modulus (GPa) = -5.24429 40.43961 17.59766
#
# Velocity S-wave (km/s) = -1.80536 5.01331 3.30711
# Velocity P-wave (km/s) = 2.81968 6.17882 3.88763
#
# Compressibility (1/GPa) = -0.17241038
#
# Stress axis : x y z
#
# Youngs Moduli (GPa) = 45.59258 45.59258 -6.96451
#
# Poissons Ratio (x) = 0.19715 -0.11151
# Poissons Ratio (y) = 0.19715 -0.11151
# Poissons Ratio (z) = 0.72998 0.72998
#
# Static dielectric constant tensor:
#      x y z
#    x 1.557830 0.000000 0.000000 
#    y 0.000000 1.557830 0.000000 
#    z 0.000000 0.000000 1.560910 
# 
# From -- ./inp_files/8477.got.cif
#   From: 2010.05.17/outbox.ucp.g08.bks.cvg/sg131_5_cif.got.tgz:8477.got - 2010.06.11 11:38:44.
