data_PCOD9566505
_publ_section_title
;
Structure prediction by ZEFSAII (Michael W. Deem and Ramdas Pophale) SiO2 
 PCOD9566505
Probable space group: P 42/M M C
;
_chemical_formula_sum "Si O2"
_cell_formula_units_Z 64
_cell_length_a 15.874463
_cell_length_b 15.874463
_cell_length_c 13.695180
_cell_angle_alpha 90.000000
_cell_angle_beta 90.000000
_cell_angle_gamma 90.000000
_cell_volume 3451.165852
_symmetry_space_group_name_H-M "P 42/M M C"
_symmetry_group_IT_number 131
_symmetry_cell_setting 'tetragonal'
loop_
_space_group_symop_operation_xyz
x,y,z
-x,-y,z
-y,x,1/2+z
y,-x,1/2+z
-x,y,-z
x,-y,-z
y,x,1/2-z
-y,-x,1/2-z
-x,-y,-z
x,y,-z
y,-x,1/2-z
-y,x,1/2-z
x,-y,z
-x,y,z
-y,-x,1/2+z
y,x,1/2+z
loop_
_atom_site_type_symbol
_atom_site_label
_atom_site_fract_x
_atom_site_fract_y
_atom_site_fract_z
Si Si1 0.905478 0.265313 0.193962
Si Si2 0.401989 0.224773 0.618488
Si Si3 0.830518 0.095743 0.886630
Si Si4 0.601964 0.589368 0.613710
O O1 0.840943 0.335570 0.159556
O O2 0.888929 0.174577 0.142389
O O3 0.897664 0.245577 0.309378
O O4 0.000000 0.292587 0.171641
O O5 0.399585 0.223033 0.500000
O O6 0.500000 0.209704 0.646219
O O7 0.374984 0.318813 0.650672
O O8 0.866127 0.000000 0.873108
O O9 0.806769 0.103410 0.000000
O O10 0.627879 0.587190 0.500000
O O11 0.629271 0.500000 0.659820
O O12 0.500000 0.588734 0.613626
#
# Coordination Sequence:
#
# PCOD9566505 Si02
#       4
#    16  16  16  16
#     4  10  20  33  52  79 109 140 172 208 256 316
#     4   9  17  28  45  75 113 146 176 215 262 312
#     4   9  19  36  56  76  99 131 173 221 268 308
#     4   7  10  19  37  62  95 135 174 211 253 297
#
# _framework density 18.544457999999999
#
# number of rings (size 3 to 8) (size 9 to 14) (size 15 to 20)
#    0.000    3.250    0.000    3.000    0.000    3.000 
#    0.000    5.000    0.000    6.750    0.000    3.500 
#    0.000    0.000    0.000    6.250    0.000    0.750 
#
# Total GULP energy -356352.623304 kJ/mol
# GULP energy per Si atom -5568.009739 kJ/mol
# Density = 1.850225 g / cm^3
# Si number density = 18.544458 Si / 1000 Ang^3
#
#
#
# Elastic Constant Matrix: (Units=GPa)
#
#
# Indices 1 2 3 4 5 6 
#
# 1 127.7884 90.8110 42.8319 0.0000 0.0000 0.0000
# 2 90.8110 127.7884 42.8319 0.0000 0.0000 0.0000
# 3 42.8319 42.8319 102.1427 0.0000 0.0000 0.0000
# 4 0.0000 0.0000 0.0000 13.1195 0.0000 0.0000
# 5 0.0000 0.0000 0.0000 0.0000 13.1195 0.0000
# 6 0.0000 0.0000 0.0000 0.0000 0.0000 234.4285
#
#
#
# Elastic Compliance Matrix: (Units=1/GPa)
#
#
# Indices 1 2 3 4 5 6 
#
# 1 0.016259 -0.010785 -0.002295 0.000000 0.000000 0.000000
# 2 -0.010785 0.016259 -0.002295 0.000000 0.000000 0.000000
# 3 -0.002295 -0.002295 0.011715 0.000000 0.000000 0.000000
# 4 0.000000 0.000000 0.000000 0.076222 0.000000 0.000000
# 5 0.000000 0.000000 0.000000 0.000000 0.076222 0.000000
# 6 0.000000 0.000000 0.000000 0.000000 0.000000 0.004266
#
#
# Mechanical properties :
#
#
# Convention : Reuss Voigt Hill
#
# Bulk Modulus (GPa) = 74.17473 78.96322 76.56898
# Shear Modulus (GPa) = 21.16949 64.21647 42.69298
#
# Velocity S-wave (km/s) = 3.38235 5.89097 4.80333
# Velocity P-wave (km/s) = 7.43901 9.43103 8.49362
#
# Compressibility (1/GPa) = 0.01348168
#
# Stress axis : x y z
#
# Youngs Moduli (GPa) = 61.50495 61.50495 85.35786
#
# Poissons Ratio (x) = 0.66331 0.19594
# Poissons Ratio (y) = 0.66331 0.19594
# Poissons Ratio (z) = 0.14118 0.14118
#
# Static dielectric constant tensor:
#      x y z
#    x 1.639250 0.000000 0.000000 
#    y 0.000000 1.639250 0.000000 
#    z 0.000000 0.000000 1.694280 
# 
# From -- ./inp_files/5456.got.cif
#   From: 2010.05.17/outbox.cif.g08.bks.cpg/sg131_3_cif.got.tgz:5456.got - 2010.05.20 12:21:01.
