data_PCOD9566844
_publ_section_title
;
Structure prediction by ZEFSAII (Michael W. Deem and Ramdas Pophale) SiO2 
 PCOD9566844
Probable space group: P 42/M M C
;
_chemical_formula_sum "Si O2"
_cell_formula_units_Z 56
_cell_length_a 14.079651
_cell_length_b 14.079651
_cell_length_c 15.892422
_cell_angle_alpha 90.000000
_cell_angle_beta 90.000000
_cell_angle_gamma 90.000000
_cell_volume 3150.459263
_symmetry_space_group_name_H-M "P 42/M M C"
_symmetry_group_IT_number 131
_symmetry_cell_setting 'tetragonal'
loop_
_space_group_symop_operation_xyz
x,y,z
-x,-y,z
-y,x,1/2+z
y,-x,1/2+z
-x,y,-z
x,-y,-z
y,x,1/2-z
-y,-x,1/2-z
-x,-y,-z
x,y,-z
y,-x,1/2-z
-y,x,1/2-z
x,-y,z
-x,y,z
-y,-x,1/2+z
y,x,1/2+z
loop_
_atom_site_type_symbol
_atom_site_label
_atom_site_fract_x
_atom_site_fract_y
_atom_site_fract_z
Si Si1 0.790445 0.214481 0.906857
Si Si2 0.887675 0.606781 0.350672
Si Si3 0.112059 0.112059 0.250000
Si Si4 0.744101 0.609133 0.197649
O O1 0.690829 0.157832 0.903990
O O2 0.852234 0.168641 0.832002
O O3 0.767418 0.322363 0.879959
O O4 0.832431 0.207860 0.000000
O O5 0.871328 0.500000 0.384265
O O6 0.834125 0.611814 0.260974
O O7 0.000000 0.620590 0.341577
O O8 0.000000 0.128238 0.262706
O O9 0.658698 0.658698 0.250000
O O10 0.724045 0.500000 0.176493
#
# Coordination Sequence:
#
# PCOD9566844 Si02
#       4
#    16  16   8  16
#     4  11  22  36  57  85 115 149 189 233 284 342
#     4   9  17  32  56  81 106 140 183 232 283 329
#     4  11  24  42  60  80 113 152 190 234 283 338
#     4   9  18  34  55  82 114 151 191 232 279 334
#
# _framework density 17.775186000000001
#
# number of rings (size 3 to 8) (size 9 to 14) (size 15 to 20)
#    0.000    2.143    4.286    0.857    0.000    4.286 
#    0.000    2.857    0.000    0.000    0.000   14.000 
#    0.000    0.000    0.000    0.000    0.000    0.000 
#
# Total GULP energy -312287.401939 kJ/mol
# GULP energy per Si atom -5576.560749 kJ/mol
# Density = 1.773473 g / cm^3
# Si number density = 17.775186 Si / 1000 Ang^3
#
#
#
# Elastic Constant Matrix: (Units=GPa)
#
#
# Indices 1 2 3 4 5 6 
#
# 1 100.3795 26.6279 40.1549 0.0000 0.0000 0.0000
# 2 26.6279 100.3795 40.1549 0.0000 0.0000 0.0000
# 3 40.1549 40.1549 113.2827 0.0000 0.0000 0.0000
# 4 0.0000 0.0000 0.0000 2.7960 0.0000 0.0000
# 5 0.0000 0.0000 0.0000 0.0000 2.7960 0.0000
# 6 0.0000 0.0000 0.0000 0.0000 0.0000 24.2517
#
#
#
# Elastic Compliance Matrix: (Units=1/GPa)
#
#
# Indices 1 2 3 4 5 6 
#
# 1 0.011854 -0.001705 -0.003597 0.000000 0.000000 0.000000
# 2 -0.001705 0.011854 -0.003597 0.000000 0.000000 0.000000
# 3 -0.003597 -0.003597 0.011378 0.000000 0.000000 0.000000
# 4 0.000000 0.000000 0.000000 0.357656 0.000000 0.000000
# 5 0.000000 0.000000 0.000000 0.000000 0.357656 0.000000
# 6 0.000000 0.000000 0.000000 0.000000 0.000000 0.041234
#
#
# Mechanical properties :
#
#
# Convention : Reuss Voigt Hill
#
# Bulk Modulus (GPa) = 57.85294 58.65746 58.25520
# Shear Modulus (GPa) = 6.13352 19.77565 12.95459
#
# Velocity S-wave (km/s) = 1.85960 3.33910 2.70256
# Velocity P-wave (km/s) = 6.10151 6.92368 6.52556
#
# Compressibility (1/GPa) = 0.01728521
#
# Stress axis : x y z
#
# Youngs Moduli (GPa) = 84.36267 84.36267 87.89175
#
# Poissons Ratio (x) = 0.14388 0.31616
# Poissons Ratio (y) = 0.14388 0.31616
# Poissons Ratio (z) = 0.30347 0.30347
#
# Static dielectric constant tensor:
#      x y z
#    x 1.610610 0.000000 0.000000 
#    y 0.000000 1.610610 0.000000 
#    z 0.000000 0.000000 1.608900 
# 
# From -- ./inp_files/5290.got.cif
#   From: 2010.05.17/outbox.cif.g08.bks.cpg/sg131_3_cif.got.tgz:5290.got - 2010.05.20 12:21:01.
