data_PCOD9566521
_publ_section_title
;
Structure prediction by ZEFSAII (Michael W. Deem and Ramdas Pophale) SiO2 
 PCOD9566521
Probable space group: P 42/M M C
;
_chemical_formula_sum "Si O2"
_cell_formula_units_Z 80
_cell_length_a 23.519163
_cell_length_b 23.519163
_cell_length_c 8.754932
_cell_angle_alpha 90.000000
_cell_angle_beta 90.000000
_cell_angle_gamma 90.000000
_cell_volume 4842.799638
_symmetry_space_group_name_H-M "P 42/M M C"
_symmetry_group_IT_number 131
_symmetry_cell_setting 'tetragonal'
loop_
_space_group_symop_operation_xyz
x,y,z
-x,-y,z
-y,x,1/2+z
y,-x,1/2+z
-x,y,-z
x,-y,-z
y,x,1/2-z
-y,-x,1/2-z
-x,-y,-z
x,y,-z
y,-x,1/2-z
-y,x,1/2-z
x,-y,z
-x,y,z
-y,-x,1/2+z
y,x,1/2+z
loop_
_atom_site_type_symbol
_atom_site_label
_atom_site_fract_x
_atom_site_fract_y
_atom_site_fract_z
Si Si1 0.500000 0.584918 0.180400
Si Si2 0.283670 0.500000 0.314988
Si Si3 0.913493 0.564338 0.321943
Si Si4 0.685655 0.938348 0.316337
Si Si5 0.273945 0.185161 0.316996
Si Si6 0.393474 0.215305 0.821617
O O1 0.554278 0.554278 0.250000
O O2 0.500000 0.650480 0.214841
O O3 0.500000 0.576275 0.000000
O O4 0.273237 0.500000 0.500000
O O5 0.257237 0.558798 0.257843
O O6 0.930906 0.567180 0.500000
O O7 0.926494 0.500000 0.266687
O O8 0.936270 0.619558 0.234766
O O9 0.845832 0.575301 0.317486
O O10 0.686849 0.936608 0.500000
O O11 0.718286 0.881053 0.263496
O O12 0.708961 0.000000 0.265772
O O13 0.221619 0.221619 0.250000
O O14 0.269369 0.185440 0.500000
O O15 0.334082 0.212872 0.266657
O O16 0.380878 0.228086 0.000000
#
# Coordination Sequence:
#
# PCOD9566521 Si02
#       6
#     8   8  16  16  16  16
#     4  10  20  35  50  62  78 101 131 171 225 284
#     4   9  17  30  51  72  89 115 148 188 235 282
#     4   9  16  27  45  67  93 126 162 195 229 270
#     4   9  19  34  49  67  94 127 161 197 237 281
#     4  10  20  34  51  72  97 127 161 197 239 284
#     4   9  16  30  49  69  94 124 156 190 232 278
#
# _framework density 16.519369999999999
#
# number of rings (size 3 to 8) (size 9 to 14) (size 15 to 20)
#    0.000    2.700    1.000    1.200    0.000    2.800 
#    0.000    6.500    0.000    0.000    0.000    0.000 
#    0.000    0.400    0.000    5.000    0.000    0.000 
#
# Total GULP energy -445538.570722 kJ/mol
# GULP energy per Si atom -5569.232134 kJ/mol
# Density = 1.648177 g / cm^3
# Si number density = 16.519370 Si / 1000 Ang^3
#
#
#
# Elastic Constant Matrix: (Units=GPa)
#
#
# Indices 1 2 3 4 5 6 
#
# 1 228.6694 -50.1482 32.4774 0.0000 0.0000 0.0000
# 2 -50.1482 228.6694 32.4774 0.0000 0.0000 0.0000
# 3 32.4774 32.4774 19.2434 0.0000 0.0000 0.0000
# 4 0.0000 0.0000 0.0000 12.2119 0.0000 0.0000
# 5 0.0000 0.0000 0.0000 0.0000 12.2119 0.0000
# 6 0.0000 0.0000 0.0000 0.0000 0.0000 0.4715
#
#
#
# Elastic Compliance Matrix: (Units=1/GPa)
#
#
# Indices 1 2 3 4 5 6 
#
# 1 0.009051 0.005464 -0.024497 0.000000 0.000000 0.000000
# 2 0.005464 0.009051 -0.024497 0.000000 0.000000 0.000000
# 3 -0.024497 -0.024497 0.134653 0.000000 0.000000 0.000000
# 4 0.000000 0.000000 0.000000 0.081887 0.000000 0.000000
# 5 0.000000 0.000000 0.000000 0.000000 0.081887 0.000000
# 6 0.000000 0.000000 0.000000 0.000000 0.000000 2.121055
#
#
# Mechanical properties :
#
#
# Convention : Reuss Voigt Hill
#
# Bulk Modulus (GPa) = 15.22176 56.24393 35.73284
# Shear Modulus (GPa) = 1.96345 35.76410 18.86377
#
# Velocity S-wave (km/s) = 1.09140 4.65798 3.38289
# Velocity P-wave (km/s) = 3.28979 7.94042 6.07754
#
# Compressibility (1/GPa) = 0.06569543
#
# Stress axis : x y z
#
# Youngs Moduli (GPa) = 110.48972 110.48972 7.42652
#
# Poissons Ratio (x) = -0.60372 0.18192
# Poissons Ratio (y) = -0.60372 0.18192
# Poissons Ratio (z) = 2.70663 2.70663
#
# Static dielectric constant tensor:
#      x y z
#    x 1.565370 0.000000 0.000000 
#    y 0.000000 1.565370 0.000000 
#    z 0.000000 0.000000 1.566490 
# 
# From -- ./inp_files/2126.got.cif
#   From: 2010.05.17/outbox.cif.g08.bks.cpg/sg131_2_cif.got.tgz:2126.got - 2010.05.20 12:21:01.
