data_PCOD9566842
_publ_section_title
;
Structure prediction by ZEFSAII (Michael W. Deem and Ramdas Pophale) SiO2 
 PCOD9566842
Probable space group: P 42/M M C
;
_chemical_formula_sum "Si O2"
_cell_formula_units_Z 34
_cell_length_a 7.942492
_cell_length_b 7.942492
_cell_length_c 26.544721
_cell_angle_alpha 90.000000
_cell_angle_beta 90.000000
_cell_angle_gamma 90.000000
_cell_volume 1674.525391
_symmetry_space_group_name_H-M "P 42/M M C"
_symmetry_group_IT_number 131
_symmetry_cell_setting 'tetragonal'
loop_
_space_group_symop_operation_xyz
x,y,z
-x,-y,z
-y,x,1/2+z
y,-x,1/2+z
-x,y,-z
x,-y,-z
y,x,1/2-z
-y,-x,1/2-z
-x,-y,-z
x,y,-z
y,-x,1/2-z
-y,x,1/2-z
x,-y,z
-x,y,z
-y,-x,1/2+z
y,x,1/2+z
loop_
_atom_site_type_symbol
_atom_site_label
_atom_site_fract_x
_atom_site_fract_y
_atom_site_fract_z
Si Si1 0.000000 0.000000 0.750000
Si Si2 0.801577 0.297741 0.000000
Si Si3 0.800794 0.310387 0.389966
Si Si4 0.000000 0.314342 0.824589
O O1 0.000000 0.165773 0.784320
O O2 0.719171 0.228606 0.949259
O O3 0.787074 0.500000 0.000000
O O4 0.000000 0.253813 0.000000
O O5 0.746834 0.500000 0.376671
O O6 0.707566 0.164198 0.359662
O O7 0.000000 0.294308 0.379601
O O8 0.000000 0.500000 0.801438
#
# Coordination Sequence:
#
# PCOD9566842 Si02
#       4
#     2   8  16   8
#     4  12  28  52  72 102 132 168 212 292 348 406
#     4  11  22  35  58  97 142 185 226 267 318 385
#     4  11  23  41  67 100 138 182 226 270 325 393
#     4  12  26  47  75 101 130 173 221 276 344 404
#
# _framework density 20.304261
#
# number of rings (size 3 to 8) (size 9 to 14) (size 15 to 20)
#    0.000    0.706    4.706    2.824    0.000    9.412 
#    0.000    0.000    0.000    0.000    0.000    0.000 
#    0.000    0.000    0.000    0.000    0.000    0.000 
#
# Total GULP energy -190322.770680 kJ/mol
# GULP energy per Si atom -5597.728549 kJ/mol
# Density = 2.025805 g / cm^3
# Si number density = 20.304261 Si / 1000 Ang^3
#
#
#
# Elastic Constant Matrix: (Units=GPa)
#
#
# Indices 1 2 3 4 5 6 
#
# 1 137.3816 49.2541 37.3411 0.0000 0.0000 0.0000
# 2 49.2541 137.3816 37.3411 0.0000 0.0000 0.0000
# 3 37.3411 37.3411 88.2445 0.0000 0.0000 0.0000
# 4 0.0000 0.0000 0.0000 -19.3908 0.0000 0.0000
# 5 0.0000 0.0000 0.0000 0.0000 -19.3908 0.0000
# 6 0.0000 0.0000 0.0000 0.0000 0.0000 1.5052
#
#
#
# Elastic Compliance Matrix: (Units=1/GPa)
#
#
# Indices 1 2 3 4 5 6 
#
# 1 0.008899 -0.002448 -0.002729 0.000000 0.000000 0.000000
# 2 -0.002448 0.008899 -0.002729 0.000000 0.000000 0.000000
# 3 -0.002729 -0.002729 0.013642 0.000000 0.000000 0.000000
# 4 0.000000 0.000000 0.000000 -0.051571 0.000000 0.000000
# 5 0.000000 0.000000 0.000000 0.000000 -0.051571 0.000000
# 6 0.000000 0.000000 0.000000 0.000000 0.000000 0.664352
#
#
# Mechanical properties :
#
#
# Convention : Reuss Voigt Hill
#
# Bulk Modulus (GPa) = 64.00092 67.87558 65.93825
# Shear Modulus (GPa) = 8.14767 8.48282 8.31525
#
# Velocity S-wave (km/s) = 2.00537 2.04620 2.02589
# Velocity P-wave (km/s) = 6.07876 6.25175 6.16586
#
# Compressibility (1/GPa) = 0.01562478
#
# Stress axis : x y z
#
# Youngs Moduli (GPa) = 112.37595 112.37595 73.30244
#
# Poissons Ratio (x) = 0.27515 0.20007
# Poissons Ratio (y) = 0.27515 0.20007
# Poissons Ratio (z) = 0.30672 0.30672
#
# Static dielectric constant tensor:
#      x y z
#    x 1.718320 0.000000 0.000000 
#    y 0.000000 1.718320 0.000000 
#    z 0.000000 0.000000 1.672200 
# 
# From -- ./inp_files/8685.got.cif
#   From: 2010.05.17/outbox.cif.g08.bks.cpg/sg131_5_cif.got.tgz:8685.got - 2010.05.20 12:21:01.
