data_PCOD9566823
_publ_section_title
;
Structure prediction by ZEFSAII (Michael W. Deem and Ramdas Pophale) SiO2 
 PCOD9566823
Probable space group: P 42/M M C
;
_chemical_formula_sum "Si O2"
_cell_formula_units_Z 64
_cell_length_a 14.950557
_cell_length_b 14.950557
_cell_length_c 18.350055
_cell_angle_alpha 90.000000
_cell_angle_beta 90.000000
_cell_angle_gamma 90.000000
_cell_volume 4101.588781
_symmetry_space_group_name_H-M "P 42/M M C"
_symmetry_group_IT_number 131
_symmetry_cell_setting 'tetragonal'
loop_
_space_group_symop_operation_xyz
x,y,z
-x,-y,z
-y,x,1/2+z
y,-x,1/2+z
-x,y,-z
x,-y,-z
y,x,1/2-z
-y,-x,1/2-z
-x,-y,-z
x,y,-z
y,-x,1/2-z
-y,x,1/2-z
x,-y,z
-x,y,z
-y,-x,1/2+z
y,x,1/2+z
loop_
_atom_site_type_symbol
_atom_site_label
_atom_site_fract_x
_atom_site_fract_y
_atom_site_fract_z
Si Si1 0.106930 0.000000 0.579440
Si Si2 0.898390 0.500000 0.587506
Si Si3 0.218981 0.673421 0.411930
Si Si4 0.891028 0.174906 0.671994
Si Si5 0.606694 0.603852 0.837168
O O1 0.126785 0.087692 0.623911
O O2 0.149120 0.000000 0.500000
O O3 0.000000 0.000000 0.571861
O O4 0.906711 0.500000 0.500000
O O5 0.839128 0.585365 0.605721
O O6 0.000000 0.500000 0.617283
O O7 0.219562 0.686948 0.500000
O O8 0.164010 0.748617 0.368939
O O9 0.319513 0.658165 0.381815
O O10 0.849327 0.150674 0.750000
O O11 0.000000 0.190090 0.676003
O O12 0.618151 0.618151 0.750000
O O13 0.631884 0.500000 0.853127
O O14 0.500000 0.611978 0.852371
#
# Coordination Sequence:
#
# PCOD9566823 Si02
#       5
#     8   8  16  16  16
#     4   9  18  32  52  76 103 135 172 219 270 320
#     4   9  18  32  47  69 107 147 176 217 275 331
#     4  11  21  33  52  81 113 145 183 227 277 333
#     4  11  21  35  55  78 107 142 181 225 274 330
#     4   9  18  34  55  79 110 147 184 226 274 324
#
# _framework density 15.60371
#
# number of rings (size 3 to 8) (size 9 to 14) (size 15 to 20)
#    0.000    2.000    2.500    3.000    0.000    3.000 
#    0.000    1.250    0.000    0.000    0.000    0.875 
#    0.000    3.000    0.000    0.000    0.000    0.000 
#
# Total GULP energy -356373.883796 kJ/mol
# GULP energy per Si atom -5568.341934 kJ/mol
# Density = 1.556820 g / cm^3
# Si number density = 15.603710 Si / 1000 Ang^3
#
#
#
# Elastic Constant Matrix: (Units=GPa)
#
#
# Indices 1 2 3 4 5 6 
#
# 1 133.2289 73.1701 70.8332 0.0000 0.0000 0.0000
# 2 73.1701 133.2286 70.8332 0.0000 0.0000 0.0000
# 3 70.8332 70.8332 120.3515 0.0000 0.0000 0.0000
# 4 0.0000 0.0000 0.0000 27.5041 0.0000 0.0000
# 5 0.0000 0.0000 0.0000 0.0000 27.5050 0.0000
# 6 0.0000 0.0000 0.0000 0.0000 0.0000 25.8700
#
#
#
# Elastic Compliance Matrix: (Units=1/GPa)
#
#
# Indices 1 2 3 4 5 6 
#
# 1 0.012390 -0.004261 -0.004784 0.000000 0.000000 0.000000
# 2 -0.004261 0.012390 -0.004784 0.000000 0.000000 0.000000
# 3 -0.004784 -0.004784 0.013940 0.000000 0.000000 0.000000
# 4 0.000000 0.000000 0.000000 0.036358 0.000000 0.000000
# 5 0.000000 0.000000 0.000000 0.000000 0.036357 0.000000
# 6 0.000000 0.000000 0.000000 0.000000 0.000000 0.038655
#
#
# Mechanical properties :
#
#
# Convention : Reuss Voigt Hill
#
# Bulk Modulus (GPa) = 90.40614 90.72023 90.56318
# Shear Modulus (GPa) = 27.55806 27.64064 27.59935
#
# Velocity S-wave (km/s) = 4.20708 4.21338 4.21024
# Velocity P-wave (km/s) = 9.03682 9.05188 9.04435
#
# Compressibility (1/GPa) = 0.01106120
#
# Stress axis : x y z
#
# Youngs Moduli (GPa) = 80.71337 80.71305 71.73361
#
# Poissons Ratio (x) = 0.34390 0.34318
# Poissons Ratio (y) = 0.34391 0.34319
# Poissons Ratio (z) = 0.38615 0.38615
#
# Static dielectric constant tensor:
#      x y z
#    x 1.227510 0.000000 0.000000 
#    y 0.000000 1.227540 0.000000 
#    z 0.000000 0.000000 1.544130 
# 
# From -- ./inp_files/7368.got.cif
#   From: 2010.05.17/outbox.cif.g08.bks.cpg/sg131_4_cif.got.tgz:7368.got - 2010.05.20 12:21:01.
