data_PCOD9566546
_publ_section_title
;
Structure prediction by ZEFSAII (Michael W. Deem and Ramdas Pophale) SiO2 
 PCOD9566546
Probable space group: P 42/M M C
;
_chemical_formula_sum "Si O2"
_cell_formula_units_Z 88
_cell_length_a 14.752243
_cell_length_b 14.752243
_cell_length_c 22.950329
_cell_angle_alpha 90.000000
_cell_angle_beta 90.000000
_cell_angle_gamma 90.000000
_cell_volume 4994.649657
_symmetry_space_group_name_H-M "P 42/M M C"
_symmetry_group_IT_number 131
_symmetry_cell_setting 'tetragonal'
loop_
_space_group_symop_operation_xyz
x,y,z
-x,-y,z
-y,x,1/2+z
y,-x,1/2+z
-x,y,-z
x,-y,-z
y,x,1/2-z
-y,-x,1/2-z
-x,-y,-z
x,y,-z
y,-x,1/2-z
-y,x,1/2-z
x,-y,z
-x,y,z
-y,-x,1/2+z
y,x,1/2+z
loop_
_atom_site_type_symbol
_atom_site_label
_atom_site_fract_x
_atom_site_fract_y
_atom_site_fract_z
Si Si1 0.106090 0.744997 0.761353
Si Si2 0.108811 0.602189 0.663642
Si Si3 0.397688 0.605855 0.570636
Si Si4 0.401419 0.108190 0.500000
Si Si5 0.263836 0.894439 0.396995
Si Si6 0.785710 0.292940 0.430428
O O1 0.167950 0.832051 0.750000
O O2 0.136162 0.666812 0.717027
O O3 0.112626 0.714548 0.828731
O O4 0.000000 0.765414 0.750460
O O5 0.142070 0.500000 0.671523
O O6 0.145517 0.643814 0.604025
O O7 0.000000 0.600758 0.662821
O O8 0.398990 0.608186 0.500000
O O9 0.380708 0.500000 0.586861
O O10 0.500000 0.630469 0.590365
O O11 0.314833 0.670956 0.588098
O O12 0.500000 0.152376 0.500000
O O13 0.345367 0.127144 0.558259
O O14 0.411173 0.000000 0.500000
O O15 0.197414 0.811445 0.411825
O O16 0.235895 0.000000 0.407989
O O17 0.792384 0.300516 0.500000
#
# Coordination Sequence:
#
# PCOD9566546 Si02
#       6
#    16  16  16   8  16  16
#     4  10  20  37  61  84 111 144 185 233 284 338
#     4  10  22  39  58  82 112 145 186 236 283 328
#     4   8  15  28  45  69 102 137 176 222 267 316
#     4   9  18  32  50  78 116 151 184 224 276 341
#     4  10  20  34  53  80 114 149 182 228 283 338
#     4  11  20  32  55  81 109 149 188 228 280 337
#
# _framework density 17.618853000000001
#
# number of rings (size 3 to 8) (size 9 to 14) (size 15 to 20)
#    0.000    2.273    2.727    1.091    0.000    3.091 
#    0.000    4.545    0.000    0.545    0.000    1.273 
#    0.000    0.000    0.000    0.000    0.000    0.000 
#
# Total GULP energy -490096.893558 kJ/mol
# GULP energy per Si atom -5569.282881 kJ/mol
# Density = 1.757875 g / cm^3
# Si number density = 17.618853 Si / 1000 Ang^3
#
#
#
# Elastic Constant Matrix: (Units=GPa)
#
#
# Indices 1 2 3 4 5 6 
#
# 1 64.1618 34.0208 31.7180 0.0000 0.0000 0.0000
# 2 34.0208 64.1555 31.7179 0.0000 0.0000 0.0000
# 3 31.7180 31.7179 87.8683 0.0000 0.0000 0.0000
# 4 0.0000 0.0000 0.0000 13.5968 0.0000 0.0000
# 5 0.0000 0.0000 0.0000 0.0000 13.5969 0.0000
# 6 0.0000 0.0000 0.0000 0.0000 0.0000 21.6082
#
#
#
# Elastic Compliance Matrix: (Units=1/GPa)
#
#
# Indices 1 2 3 4 5 6 
#
# 1 0.023231 -0.009949 -0.004795 0.000000 0.000000 0.000000
# 2 -0.009949 0.023234 -0.004795 0.000000 0.000000 0.000000
# 3 -0.004795 -0.004795 0.014842 0.000000 0.000000 0.000000
# 4 0.000000 0.000000 0.000000 0.073547 0.000000 0.000000
# 5 0.000000 0.000000 0.000000 0.000000 0.073546 0.000000
# 6 0.000000 0.000000 0.000000 0.000000 0.000000 0.046279
#
#
# Mechanical properties :
#
#
# Convention : Reuss Voigt Hill
#
# Bulk Modulus (GPa) = 44.98512 45.67766 45.33139
# Shear Modulus (GPa) = 16.60216 17.67564 17.13890
#
# Velocity S-wave (km/s) = 3.07301 3.17081 3.12229
# Velocity P-wave (km/s) = 6.17892 6.27591 6.22760
#
# Compressibility (1/GPa) = 0.02222957
#
# Stress axis : x y z
#
# Youngs Moduli (GPa) = 43.04620 43.04110 67.37464
#
# Poissons Ratio (x) = 0.42820 0.32303
# Poissons Ratio (y) = 0.42825 0.32309
# Poissons Ratio (z) = 0.20639 0.20640
#
# Static dielectric constant tensor:
#      x y z
#    x 1.633180 0.000000 0.000000 
#    y 0.000000 1.633180 0.000000 
#    z 0.000000 0.000000 1.584710 
# 
# From -- ./inp_files/9615.got.cif
#   From: 2010.05.17/outbox.cif.g08.bks.cpg/sg131_5_cif.got.tgz:9615.got - 2010.05.20 12:21:01.
