data_PCOD9566999
_publ_section_title
;
Structure prediction by ZEFSAII (Michael W. Deem and Ramdas Pophale) SiO2 
 PCOD9566999
Probable space group: P 42/M C M
;
_chemical_formula_sum "Si O2"
_cell_formula_units_Z 88
_cell_length_a 12.644970
_cell_length_b 12.644970
_cell_length_c 28.833406
_cell_angle_alpha 90.000000
_cell_angle_beta 90.000000
_cell_angle_gamma 90.000000
_cell_volume 4610.325131
_symmetry_space_group_name_H-M "P 42/M C M"
_symmetry_group_IT_number 132
_symmetry_cell_setting 'tetragonal'
loop_
_space_group_symop_operation_xyz
x,y,z
-y,x,1/2+z
-x,-y,z
y,-x,1/2+z
x,-y,1/2-z
-x,y,1/2-z
y,x,-z
-y,-x,-z
-x,-y,-z
y,-x,1/2-z
x,y,-z
-y,x,1/2-z
-x,y,1/2+z
x,-y,1/2+z
-y,-x,z
y,x,z
loop_
_atom_site_type_symbol
_atom_site_label
_atom_site_fract_x
_atom_site_fract_y
_atom_site_fract_z
Si Si1 0.328752 0.061094 0.446566
Si Si2 0.084135 0.915866 0.944005
Si Si3 0.407510 0.239430 0.845932
Si Si4 0.637860 0.815109 0.639889
Si Si5 0.016270 0.627297 0.303215
Si Si6 0.813576 0.647215 0.948539
O O1 0.338021 0.095950 0.500000
O O2 0.205396 0.061176 0.432388
O O3 0.386831 0.138255 0.411228
O O4 0.363288 0.939451 0.444230
O O5 0.078409 0.921592 0.000000
O O6 0.000000 0.000000 0.925121
O O7 0.341540 0.341540 0.829924
O O8 0.532519 0.232540 0.836462
O O9 0.355392 0.132685 0.824482
O O10 0.399239 0.234977 0.901889
O O11 0.727586 0.727586 0.637195
O O12 0.673718 0.919895 0.667354
O O13 0.000000 0.500000 0.306029
O O14 0.000000 0.658782 0.250000
O O15 0.768700 0.768700 0.948839
O O16 0.784093 0.605011 0.000000
#
# Coordination Sequence:
#
# PCOD9566999 Si02
#       6
#    16   8  16  16  16  16
#     4  10  18  29  48  76 110 148 186 232 282 331
#     4   9  16  26  42  68 105 147 185 223 278 338
#     4  10  21  37  58  83 112 149 191 232 275 327
#     4  11  22  36  55  83 116 149 189 230 275 333
#     4   9  19  38  62  84 106 136 178 229 283 336
#     4   9  17  30  50  78 110 143 184 232 278 325
#
# _framework density 19.087592000000001
#
# number of rings (size 3 to 8) (size 9 to 14) (size 15 to 20)
#    0.000    2.273    2.727    0.545    0.000    4.000 
#    0.000    1.818    0.000    0.000    0.000   10.182 
#    0.000    0.000    0.000    0.000    0.000    0.000 
#
# Total GULP energy -490331.796050 kJ/mol
# GULP energy per Si atom -5571.952228 kJ/mol
# Density = 1.904415 g / cm^3
# Si number density = 19.087592 Si / 1000 Ang^3
#
#
#
# Elastic Constant Matrix: (Units=GPa)
#
#
# Indices 1 2 3 4 5 6 
#
# 1 57.1270 32.5203 9.1459 0.0000 0.0000 0.0000
# 2 32.5203 57.1267 9.1461 0.0000 0.0000 0.0000
# 3 9.1459 9.1461 68.4853 0.0000 0.0000 0.0000
# 4 0.0000 0.0000 0.0000 11.1147 0.0000 0.0000
# 5 0.0000 0.0000 0.0000 0.0000 11.1147 0.0000
# 6 0.0000 0.0000 0.0000 0.0000 0.0000 26.6797
#
#
#
# Elastic Compliance Matrix: (Units=1/GPa)
#
#
# Indices 1 2 3 4 5 6 
#
# 1 0.026053 -0.014586 -0.001531 0.000000 0.000000 0.000000
# 2 -0.014586 0.026054 -0.001531 0.000000 0.000000 0.000000
# 3 -0.001531 -0.001531 0.015011 0.000000 0.000000 0.000000
# 4 0.000000 0.000000 0.000000 0.089971 0.000000 0.000000
# 5 0.000000 0.000000 0.000000 0.000000 0.089971 0.000000
# 6 0.000000 0.000000 0.000000 0.000000 0.000000 0.037482
#
#
# Mechanical properties :
#
#
# Convention : Reuss Voigt Hill
#
# Bulk Modulus (GPa) = 31.42712 31.59595 31.51154
# Shear Modulus (GPa) = 15.13109 18.57694 16.85402
#
# Velocity S-wave (km/s) = 2.81858 3.12308 2.97473
# Velocity P-wave (km/s) = 5.20509 5.44003 5.32385
#
# Compressibility (1/GPa) = 0.03181965
#
# Stress axis : x y z
#
# Youngs Moduli (GPa) = 38.38273 38.38254 66.61911
#
# Poissons Ratio (x) = 0.55985 0.10202
# Poissons Ratio (y) = 0.55986 0.10203
# Poissons Ratio (z) = 0.05878 0.05878
#
# Static dielectric constant tensor:
#      x y z
#    x 1.688060 0.000000 0.000000 
#    y 0.000000 1.688060 0.000000 
#    z 0.000000 0.000000 1.709590 
# 
# From -- ./inp_files/10797.got.cif
#   From: 2010.05.17/outbox.cif.g08.bks.cpg/sg132_6_cif.got.tgz:10797.got - 2010.05.20 12:30:18.
