data_PCOD9566286
_publ_section_title
;
Structure prediction by ZEFSAII (Michael W. Deem and Ramdas Pophale) SiO2 
 PCOD9566286
Probable space group: P 42/M M C
;
_chemical_formula_sum "Si O2"
_cell_formula_units_Z 104
_cell_length_a 27.024933
_cell_length_b 27.024933
_cell_length_c 8.097830
_cell_angle_alpha 90.000000
_cell_angle_beta 90.000000
_cell_angle_gamma 90.000000
_cell_volume 5914.225877
_symmetry_space_group_name_H-M "P 42/M M C"
_symmetry_group_IT_number 131
_symmetry_cell_setting 'tetragonal'
loop_
_space_group_symop_operation_xyz
x,y,z
-x,-y,z
-y,x,1/2+z
y,-x,1/2+z
-x,y,-z
x,-y,-z
y,x,1/2-z
-y,-x,1/2-z
-x,-y,-z
x,y,-z
y,-x,1/2-z
-y,x,1/2-z
x,-y,z
-x,y,z
-y,-x,1/2+z
y,x,1/2+z
loop_
_atom_site_type_symbol
_atom_site_label
_atom_site_fract_x
_atom_site_fract_y
_atom_site_fract_z
Si Si1 0.151963 0.682364 0.806430
Si Si2 0.415474 0.108693 0.191632
Si Si3 0.555067 0.218125 0.199535
Si Si4 0.261786 0.658106 0.803731
Si Si5 0.944972 0.130894 0.698816
Si Si6 0.000000 0.559105 0.308748
Si Si7 0.865508 0.788744 0.697927
O O1 0.120619 0.642394 0.706641
O O2 0.209331 0.682126 0.747489
O O3 0.130294 0.736070 0.780466
O O4 0.151443 0.668529 0.000000
O O5 0.437892 0.160754 0.259446
O O6 0.425914 0.053958 0.264011
O O7 0.431947 0.106012 0.000000
O O8 0.500000 0.234854 0.249100
O O9 0.600560 0.253300 0.252844
O O10 0.557089 0.216085 0.000000
O O11 0.309152 0.690849 0.750000
O O12 0.262695 0.659391 0.000000
O O13 0.920439 0.079562 0.750000
O O14 0.945801 0.133005 0.500000
O O15 0.908493 0.174236 0.755652
O O16 0.000000 0.136735 0.762848
O O17 0.000000 0.500000 0.311442
O O18 0.000000 0.577893 0.500000
O O19 0.814424 0.814424 0.750000
O O20 0.867158 0.784052 0.500000
#
# Coordination Sequence:
#
# PCOD9566286 Si02
#       7
#    16  16  16  16  16   8  16
#     4  10  20  33  48  68  96 127 161 199 242 289
#     4   9  17  30  48  70  95 125 163 206 249 292
#     4   9  17  30  49  72  99 131 166 204 246 292
#     4  10  20  32  48  71  99 131 164 203 245 290
#     4   9  19  35  52  71  93 115 142 178 220 272
#     4   9  16  28  49  73  93 119 163 213 252 289
#     4  10  19  32  51  71  92 119 151 186 226 277
#
# _framework density 17.584719
#
# number of rings (size 3 to 8) (size 9 to 14) (size 15 to 20)
#    0.000    2.538    0.000    2.308    0.000    6.308 
#    1.385    1.154    0.000    1.846    0.000    0.000 
#    0.000    0.308    0.000    3.231    0.000    1.385 
#
# Total GULP energy -579248.622463 kJ/mol
# GULP energy per Si atom -5569.698293 kJ/mol
# Density = 1.754470 g / cm^3
# Si number density = 17.584719 Si / 1000 Ang^3
#
#
#
# Elastic Constant Matrix: (Units=GPa)
#
#
# Indices 1 2 3 4 5 6 
#
# 1 109.7239 51.3078 8.6263 0.0000 0.0000 0.0000
# 2 51.3078 109.7312 8.6271 0.0000 0.0000 0.0000
# 3 8.6263 8.6271 21.5728 0.0000 0.0000 0.0000
# 4 0.0000 0.0000 0.0000 10.1245 0.0000 0.0000
# 5 0.0000 0.0000 0.0000 0.0000 10.1221 0.0000
# 6 0.0000 0.0000 0.0000 0.0000 0.0000 12.5553
#
#
#
# Elastic Compliance Matrix: (Units=1/GPa)
#
#
# Indices 1 2 3 4 5 6 
#
# 1 0.011803 -0.005315 -0.002594 0.000000 0.000000 0.000000
# 2 -0.005315 0.011802 -0.002595 0.000000 0.000000 0.000000
# 3 -0.002594 -0.002595 0.048429 0.000000 0.000000 0.000000
# 4 0.000000 0.000000 0.000000 0.098771 0.000000 0.000000
# 5 0.000000 0.000000 0.000000 0.000000 0.098794 0.000000
# 6 0.000000 0.000000 0.000000 0.000000 0.000000 0.079648
#
#
# Mechanical properties :
#
#
# Convention : Reuss Voigt Hill
#
# Bulk Modulus (GPa) = 19.59727 42.01671 30.80699
# Shear Modulus (GPa) = 12.91110 18.05814 15.48462
#
# Velocity S-wave (km/s) = 2.71259 3.20804 2.97066
# Velocity P-wave (km/s) = 4.58035 6.13741 5.41513
#
# Compressibility (1/GPa) = 0.05102751
#
# Stress axis : x y z
#
# Youngs Moduli (GPa) = 84.72421 84.72946 20.64857
#
# Poissons Ratio (x) = 0.45032 0.05357
# Poissons Ratio (y) = 0.45030 0.05357
# Poissons Ratio (z) = 0.21979 0.21984
#
# Static dielectric constant tensor:
#      x y z
#    x 1.613030 0.000000 0.000000 
#    y 0.000000 1.613020 0.000000 
#    z 0.000000 0.000000 1.643920 
# 
# From -- ./inp_files/2555.got.cif
#   From: 2010.05.17/outbox.cif.g08.bks.cpg/sg131_2_cif.got.tgz:2555.got - 2010.05.20 12:21:01.
