data_PCOD9566237
_publ_section_title
;
Structure prediction by ZEFSAII (Michael W. Deem and Ramdas Pophale) SiO2 
 PCOD9566237
Probable space group: P 42/M M C
;
_chemical_formula_sum "Si O2"
_cell_formula_units_Z 112
_cell_length_a 14.528084
_cell_length_b 14.528084
_cell_length_c 30.961039
_cell_angle_alpha 90.000000
_cell_angle_beta 90.000000
_cell_angle_gamma 90.000000
_cell_volume 6534.798654
_symmetry_space_group_name_H-M "P 42/M M C"
_symmetry_group_IT_number 131
_symmetry_cell_setting 'tetragonal'
loop_
_space_group_symop_operation_xyz
x,y,z
-x,-y,z
-y,x,1/2+z
y,-x,1/2+z
-x,y,-z
x,-y,-z
y,x,1/2-z
-y,-x,1/2-z
-x,-y,-z
x,y,-z
y,-x,1/2-z
-y,x,1/2-z
x,-y,z
-x,y,z
-y,-x,1/2+z
y,x,1/2+z
loop_
_atom_site_type_symbol
_atom_site_label
_atom_site_fract_x
_atom_site_fract_y
_atom_site_fract_z
Si Si1 0.232865 0.106635 0.051028
Si Si2 0.887964 0.893809 0.797225
Si Si3 0.890537 0.215047 0.117101
Si Si4 0.106295 0.393179 0.164330
Si Si5 0.286753 0.391253 0.787293
Si Si6 0.393792 0.389656 0.622505
Si Si7 0.245992 0.608812 0.549708
O O1 0.162424 0.167563 0.078355
O O2 0.331928 0.154438 0.057004
O O3 0.231211 0.000000 0.064613
O O4 0.211305 0.110096 0.000000
O O5 0.858629 0.858629 0.750000
O O6 0.860592 0.833648 0.838056
O O7 0.000000 0.893948 0.795687
O O8 0.858903 0.000000 0.803000
O O9 0.873931 0.322998 0.125403
O O10 0.000000 0.200840 0.112017
O O11 0.116061 0.500000 0.151630
O O12 0.179127 0.376466 0.202384
O O13 0.000000 0.376836 0.177540
O O14 0.329166 0.329166 0.750000
O O15 0.300702 0.500000 0.777046
O O16 0.338574 0.372912 0.832693
O O17 0.387600 0.500000 0.629140
O O18 0.500000 0.368396 0.611008
O O19 0.323700 0.364780 0.584359
O O20 0.276206 0.625500 0.500000
O O21 0.228574 0.500000 0.554066
#
# Coordination Sequence:
#
# PCOD9566237 Si02
#       7
#    16  16  16  16  16  16  16
#     4  10  21  35  51  74 102 130 164 205 247 297
#     4   8  14  25  42  67  97 124 154 195 239 282
#     4  10  19  32  52  74  98 130 163 198 246 299
#     4   9  19  35  53  73  97 129 171 211 244 287
#     4  10  19  31  50  75 104 137 169 203 245 294
#     4   9  17  29  48  77 109 135 163 206 256 302
#     4   9  18  33  52  72  96 130 171 211 251 297
#
# _framework density 17.139012999999998
#
# number of rings (size 3 to 8) (size 9 to 14) (size 15 to 20)
#    0.000    2.714    0.000    2.143    0.000    3.000 
#    0.000    3.571    0.000    4.714    0.000    6.000 
#    0.000    0.000    0.000    0.000    0.000    0.000 
#
# Total GULP energy -624296.393993 kJ/mol
# GULP energy per Si atom -5574.074946 kJ/mol
# Density = 1.710000 g / cm^3
# Si number density = 17.139013 Si / 1000 Ang^3
#
#
#
# Elastic Constant Matrix: (Units=GPa)
#
#
# Indices 1 2 3 4 5 6 
#
# 1 87.5095 59.3453 57.9672 0.0000 0.0000 0.0000
# 2 59.3453 87.5095 57.9672 0.0000 0.0000 0.0000
# 3 57.9672 57.9672 76.3275 0.0000 0.0000 0.0000
# 4 0.0000 0.0000 0.0000 24.9382 0.0000 0.0000
# 5 0.0000 0.0000 0.0000 0.0000 24.9382 0.0000
# 6 0.0000 0.0000 0.0000 0.0000 0.0000 21.0182
#
#
#
# Elastic Compliance Matrix: (Units=1/GPa)
#
#
# Indices 1 2 3 4 5 6 
#
# 1 0.026255 -0.009251 -0.012914 0.000000 0.000000 0.000000
# 2 -0.009251 0.026255 -0.012914 0.000000 0.000000 0.000000
# 3 -0.012914 -0.012914 0.032717 0.000000 0.000000 0.000000
# 4 0.000000 0.000000 0.000000 0.040099 0.000000 0.000000
# 5 0.000000 0.000000 0.000000 0.000000 0.040099 0.000000
# 6 0.000000 0.000000 0.000000 0.000000 0.000000 0.047578
#
#
# Mechanical properties :
#
#
# Convention : Reuss Voigt Hill
#
# Bulk Modulus (GPa) = 66.36014 66.87842 66.61928
# Shear Modulus (GPa) = 17.34999 19.25004 18.30001
#
# Velocity S-wave (km/s) = 3.18513 3.35501 3.27117
# Velocity P-wave (km/s) = 7.23392 7.35622 7.29533
#
# Compressibility (1/GPa) = 0.01506929
#
# Stress axis : x y z
#
# Youngs Moduli (GPa) = 38.08757 38.08757 30.56533
#
# Poissons Ratio (x) = 0.35234 0.39472
# Poissons Ratio (y) = 0.35234 0.39472
# Poissons Ratio (z) = 0.49187 0.49187
#
# Static dielectric constant tensor:
#      x y z
#    x 1.595670 0.000000 0.000000 
#    y 0.000000 1.595670 0.000000 
#    z 0.000000 0.000000 1.557430 
# 
# From -- ./inp_files/12442.got.cif
#   From: 2010.05.17/outbox.cif.g08.bks.cpg/sg131_7_cif.got.tgz:12442.got - 2010.05.20 12:21:01.
