data_PCOD9566391
_publ_section_title
;
Structure prediction by ZEFSAII (Michael W. Deem and Ramdas Pophale) SiO2 
 PCOD9566391
Probable space group: P 42/M M C
;
_chemical_formula_sum "Si O2"
_cell_formula_units_Z 64
_cell_length_a 11.214145
_cell_length_b 11.214145
_cell_length_c 27.995008
_cell_angle_alpha 90.000000
_cell_angle_beta 90.000000
_cell_angle_gamma 90.000000
_cell_volume 3520.569567
_symmetry_space_group_name_H-M "P 42/M M C"
_symmetry_group_IT_number 131
_symmetry_cell_setting 'tetragonal'
loop_
_space_group_symop_operation_xyz
x,y,z
-x,-y,z
-y,x,1/2+z
y,-x,1/2+z
-x,y,-z
x,-y,-z
y,x,1/2-z
-y,-x,1/2-z
-x,-y,-z
x,y,-z
y,-x,1/2-z
-y,x,1/2-z
x,-y,z
-x,y,z
-y,-x,1/2+z
y,x,1/2+z
loop_
_atom_site_type_symbol
_atom_site_label
_atom_site_fract_x
_atom_site_fract_y
_atom_site_fract_z
Si Si1 0.638892 0.758990 0.794169
Si Si2 0.785101 0.000000 0.946532
Si Si3 0.639812 0.367529 0.606225
Si Si4 0.263498 0.130969 0.444480
Si Si5 0.000000 0.357063 0.348588
O O1 0.717594 0.717594 0.750000
O O2 0.500000 0.770480 0.779242
O O3 0.642929 0.664225 0.837323
O O4 0.677555 0.882571 0.818917
O O5 0.861300 0.879838 0.943252
O O6 0.696664 0.000000 0.901543
O O7 0.728464 0.000000 0.000000
O O8 0.689579 0.500000 0.592029
O O9 0.500000 0.369025 0.596330
O O10 0.692926 0.250584 0.581448
O O11 0.300767 0.137391 0.500000
O O12 0.301653 0.000000 0.425609
O O13 0.000000 0.500000 0.352605
#
# Coordination Sequence:
#
# PCOD9566391 Si02
#       5
#    16   8  16  16   8
#     4  10  20  37  59  82 112 149 190 237 293 350
#     4  10  19  35  60  87 116 154 196 238 295 357
#     4  10  21  37  58  84 113 149 196 244 289 344
#     4  10  21  37  58  84 116 154 193 235 290 355
#     4  10  20  36  59  88 118 148 190 251 302 348
#
# _framework density 18.178877
#
# number of rings (size 3 to 8) (size 9 to 14) (size 15 to 20)
#    0.000    2.000    2.500    1.125    0.000    4.500 
#    2.250    5.000    0.000    0.000    0.000    0.000 
#    0.000    0.000    0.000    0.000    0.000    0.000 
#
# Total GULP energy -356673.259351 kJ/mol
# GULP energy per Si atom -5573.019677 kJ/mol
# Density = 1.813750 g / cm^3
# Si number density = 18.178877 Si / 1000 Ang^3
#
#
#
# Elastic Constant Matrix: (Units=GPa)
#
#
# Indices 1 2 3 4 5 6 
#
# 1 96.3495 46.0854 55.5453 0.0000 0.0000 0.0000
# 2 46.0854 96.3495 55.5453 0.0000 0.0000 0.0000
# 3 55.5453 55.5453 106.0108 0.0000 0.0000 0.0000
# 4 0.0000 0.0000 0.0000 41.3647 0.0000 0.0000
# 5 0.0000 0.0000 0.0000 0.0000 41.3647 0.0000
# 6 0.0000 0.0000 0.0000 0.0000 0.0000 11.3373
#
#
#
# Elastic Compliance Matrix: (Units=1/GPa)
#
#
# Indices 1 2 3 4 5 6 
#
# 1 0.015884 -0.004011 -0.006221 0.000000 0.000000 0.000000
# 2 -0.004011 0.015884 -0.006221 0.000000 0.000000 0.000000
# 3 -0.006221 -0.006221 0.015952 0.000000 0.000000 0.000000
# 4 0.000000 0.000000 0.000000 0.024175 0.000000 0.000000
# 5 0.000000 0.000000 0.000000 0.000000 0.024175 0.000000
# 6 0.000000 0.000000 0.000000 0.000000 0.000000 0.088205
#
#
# Mechanical properties :
#
#
# Convention : Reuss Voigt Hill
#
# Bulk Modulus (GPa) = 67.50372 68.11796 67.81084
# Shear Modulus (GPa) = 22.51059 28.24892 25.37976
#
# Velocity S-wave (km/s) = 3.52274 3.94628 3.74051
# Velocity P-wave (km/s) = 7.33212 7.63652 7.48587
#
# Compressibility (1/GPa) = 0.01481400
#
# Stress axis : x y z
#
# Youngs Moduli (GPa) = 62.95755 62.95755 62.68892
#
# Poissons Ratio (x) = 0.25253 0.38997
# Poissons Ratio (y) = 0.25253 0.38997
# Poissons Ratio (z) = 0.39164 0.39164
#
# Static dielectric constant tensor:
#      x y z
#    x 1.649030 0.000000 0.000000 
#    y 0.000000 1.649030 0.000000 
#    z 0.000000 0.000000 1.595870 
# 
# From -- ./inp_files/10809.got.cif
#   From: 2010.05.17/outbox.cif.g08.bks.cpg/sg131_6_cif.got.tgz:10809.got - 2010.05.20 12:21:01.
