data_PCOD9566526
_publ_section_title
;
Structure prediction by ZEFSAII (Michael W. Deem and Ramdas Pophale) SiO2 
 PCOD9566526
Probable space group: P 42/M M C
;
_chemical_formula_sum "Si O2"
_cell_formula_units_Z 96
_cell_length_a 24.465148
_cell_length_b 24.465148
_cell_length_c 8.076767
_cell_angle_alpha 90.000000
_cell_angle_beta 90.000000
_cell_angle_gamma 90.000000
_cell_volume 4834.296120
_symmetry_space_group_name_H-M "P 42/M M C"
_symmetry_group_IT_number 131
_symmetry_cell_setting 'tetragonal'
loop_
_space_group_symop_operation_xyz
x,y,z
-x,-y,z
-y,x,1/2+z
y,-x,1/2+z
-x,y,-z
x,-y,-z
y,x,1/2-z
-y,-x,1/2-z
-x,-y,-z
x,y,-z
y,-x,1/2-z
-y,x,1/2-z
x,-y,z
-x,y,z
-y,-x,1/2+z
y,x,1/2+z
loop_
_atom_site_type_symbol
_atom_site_label
_atom_site_fract_x
_atom_site_fract_y
_atom_site_fract_z
Si Si1 0.079531 0.560036 0.691829
Si Si2 0.675893 0.939212 0.316748
Si Si3 0.850142 0.936186 0.200405
Si Si4 0.439818 0.201933 0.695615
Si Si5 0.677677 0.239704 0.801817
Si Si6 0.141926 0.752370 0.685762
O O1 0.063777 0.565724 0.500000
O O2 0.062682 0.500000 0.751107
O O3 0.059114 0.611288 0.793348
O O4 0.145051 0.562033 0.706369
O O5 0.688596 0.917565 0.500000
O O6 0.702982 0.901142 0.182731
O O7 0.698307 0.000000 0.302191
O O8 0.907045 0.907045 0.250000
O O9 0.802226 0.893906 0.260978
O O10 0.845286 0.000000 0.256047
O O11 0.845871 0.937296 0.000000
O O12 0.438647 0.189022 0.500000
O O13 0.500000 0.227556 0.730060
O O14 0.383772 0.232294 0.737623
O O15 0.702794 0.297207 0.750000
O O16 0.721417 0.194010 0.735613
O O17 0.676492 0.233410 0.000000
O O18 0.157760 0.769964 0.500000
#
# Coordination Sequence:
#
# PCOD9566526 Si02
#       6
#    16  16  16  16  16  16
#     4  10  20  34  52  73  99 136 183 230 277 329
#     4  11  23  35  50  74 103 138 181 229 279 330
#     4  10  22  40  61  84 109 138 174 218 272 336
#     4  10  20  35  56  81 112 150 189 233 282 330
#     4  11  22  35  56  86 117 151 190 231 276 329
#     4  10  21  38  58  80 107 143 181 220 273 333
#
# _framework density 19.858111999999998
#
# number of rings (size 3 to 8) (size 9 to 14) (size 15 to 20)
#    0.000    1.667    1.667    3.000    0.000    6.167 
#    0.000    2.500    0.000    0.000    0.000    0.000 
#    0.000    0.333    0.000    3.500    0.000    1.500 
#
# Total GULP energy -535462.023590 kJ/mol
# GULP energy per Si atom -5577.729412 kJ/mol
# Density = 1.981291 g / cm^3
# Si number density = 19.858112 Si / 1000 Ang^3
#
#
#
# Elastic Constant Matrix: (Units=GPa)
#
#
# Indices 1 2 3 4 5 6 
#
# 1 104.3547 71.0308 12.9657 0.0000 0.0000 0.0000
# 2 71.0308 104.3502 12.9657 0.0000 0.0000 0.0000
# 3 12.9657 12.9657 48.0552 0.0000 0.0000 0.0000
# 4 0.0000 0.0000 0.0000 23.1573 0.0000 0.0000
# 5 0.0000 0.0000 0.0000 0.0000 23.1562 0.0000
# 6 0.0000 0.0000 0.0000 0.0000 0.0000 -6.3848
#
#
#
# Elastic Compliance Matrix: (Units=1/GPa)
#
#
# Indices 1 2 3 4 5 6 
#
# 1 0.017974 -0.012036 -0.001602 0.000000 0.000000 0.000000
# 2 -0.012036 0.017975 -0.001602 0.000000 0.000000 0.000000
# 3 -0.001602 -0.001602 0.021674 0.000000 0.000000 0.000000
# 4 0.000000 0.000000 0.000000 0.043183 0.000000 0.000000
# 5 0.000000 0.000000 0.000000 0.000000 0.043185 0.000000
# 6 0.000000 0.000000 0.000000 0.000000 0.000000 -0.156622
#
#
# Mechanical properties :
#
#
# Convention : Reuss Voigt Hill
#
# Bulk Modulus (GPa) = 36.84301 50.07606 43.45953
# Shear Modulus (GPa) = 185.88755 18.63894 102.26324
#
# Velocity S-wave (km/s) = 9.68561 3.06699 7.18392
# Velocity P-wave (km/s) = 11.98644 6.14927 9.52598
#
# Compressibility (1/GPa) = 0.02714219
#
# Stress axis : x y z
#
# Youngs Moduli (GPa) = 55.63524 55.63282 46.13819
#
# Poissons Ratio (x) = 0.66959 0.07392
# Poissons Ratio (y) = 0.66962 0.07393
# Poissons Ratio (z) = 0.08914 0.08915
#
# Static dielectric constant tensor:
#      x y z
#    x 1.714480 0.000000 0.000000 
#    y 0.000000 1.714480 0.000000 
#    z 0.000000 0.000000 1.734590 
# 
# From -- ./inp_files/2182.got.cif
#   From: 2010.05.17/outbox.cif.g08.bks.cpg/sg131_2_cif.got.tgz:2182.got - 2010.05.20 12:21:01.
