data_PCOD9566501
_publ_section_title
;
Structure prediction by ZEFSAII (Michael W. Deem and Ramdas Pophale) SiO2 
 PCOD9566501
Probable space group: P 42/M M C
;
_chemical_formula_sum "Si O2"
_cell_formula_units_Z 120
_cell_length_a 28.369622
_cell_length_b 28.369622
_cell_length_c 8.395044
_cell_angle_alpha 90.000000
_cell_angle_beta 90.000000
_cell_angle_gamma 90.000000
_cell_volume 6756.629036
_symmetry_space_group_name_H-M "P 42/M M C"
_symmetry_group_IT_number 131
_symmetry_cell_setting 'tetragonal'
loop_
_space_group_symop_operation_xyz
x,y,z
-x,-y,z
-y,x,1/2+z
y,-x,1/2+z
-x,y,-z
x,-y,-z
y,x,1/2-z
-y,-x,1/2-z
-x,-y,-z
x,y,-z
y,-x,1/2-z
-y,x,1/2-z
x,-y,z
-x,y,z
-y,-x,1/2+z
y,x,1/2+z
loop_
_atom_site_type_symbol
_atom_site_label
_atom_site_fract_x
_atom_site_fract_y
_atom_site_fract_z
Si Si1 0.694336 0.121864 0.323996
Si Si2 0.769225 0.943753 0.815580
Si Si3 0.225419 0.554328 0.191346
Si Si4 0.945636 0.444127 0.500000
Si Si5 0.361048 0.711215 0.191405
Si Si6 0.870900 0.945403 0.690621
Si Si7 0.116388 0.583297 0.187577
Si Si8 0.282282 0.217117 0.182310
O O1 0.704418 0.141117 0.500000
O O2 0.728107 0.078711 0.287577
O O3 0.639534 0.110411 0.316102
O O4 0.705845 0.163329 0.203709
O O5 0.821001 0.928270 0.759962
O O6 0.768086 0.000000 0.799988
O O7 0.762104 0.931326 0.000000
O O8 0.230685 0.500000 0.245587
O O9 0.266228 0.589052 0.255739
O O10 0.171347 0.570978 0.227170
O O11 0.228777 0.555261 0.000000
O O12 0.949711 0.500000 0.500000
O O13 0.916958 0.432500 0.335412
O O14 0.000000 0.424497 0.500000
O O15 0.338734 0.661267 0.250000
O O16 0.323464 0.750355 0.255641
O O17 0.361669 0.709694 0.000000
O O18 0.912957 0.912957 0.750000
O O19 0.868369 0.944169 0.500000
O O20 0.877627 0.000000 0.740519
O O21 0.107721 0.566763 0.000000
O O22 0.232277 0.232277 0.250000
O O23 0.281500 0.229950 0.000000
#
# Coordination Sequence:
#
# PCOD9566501 Si02
#       8
#    16  16  16   8  16  16  16  16
#     4  11  22  36  57  81 109 144 186 232 281 343
#     4  10  22  39  58  79 105 138 176 223 277 334
#     4  10  20  35  57  85 118 157 201 249 303 359
#     4  11  26  44  64  88 114 150 196 250 310 372
#     4  10  20  33  53  79 113 154 193 237 288 347
#     4  10  21  38  60  85 114 145 179 222 272 332
#     4  10  23  41  62  88 120 154 195 252 308 364
#     4  10  20  33  51  76 108 143 181 224 272 326
#
# _framework density 17.760335000000001
#
# number of rings (size 3 to 8) (size 9 to 14) (size 15 to 20)
#    0.000    1.800    1.333    2.400    2.800    5.200 
#    0.000    5.333    0.000    0.000    0.000    0.000 
#    0.000    0.267    0.000    2.800    0.000    1.200 
#
# Total GULP energy -668721.696496 kJ/mol
# GULP energy per Si atom -5572.680804 kJ/mol
# Density = 1.771991 g / cm^3
# Si number density = 17.760335 Si / 1000 Ang^3
#
#
#
# Elastic Constant Matrix: (Units=GPa)
#
#
# Indices 1 2 3 4 5 6 
#
# 1 83.5798 49.4966 37.0430 0.0000 0.0000 0.0000
# 2 49.4966 83.5813 37.0429 0.0000 0.0000 0.0000
# 3 37.0430 37.0429 64.0398 0.0000 0.0000 0.0000
# 4 0.0000 0.0000 0.0000 30.2145 0.0000 0.0000
# 5 0.0000 0.0000 0.0000 0.0000 30.2139 0.0000
# 6 0.0000 0.0000 0.0000 0.0000 0.0000 -12.3550
#
#
#
# Elastic Compliance Matrix: (Units=1/GPa)
#
#
# Indices 1 2 3 4 5 6 
#
# 1 0.020212 -0.009128 -0.006411 0.000000 0.000000 0.000000
# 2 -0.009128 0.020211 -0.006411 0.000000 0.000000 0.000000
# 3 -0.006411 -0.006411 0.023032 0.000000 0.000000 0.000000
# 4 0.000000 0.000000 0.000000 0.033097 0.000000 0.000000
# 5 0.000000 0.000000 0.000000 0.000000 0.033097 0.000000
# 6 0.000000 0.000000 0.000000 0.000000 0.000000 -0.080939
#
#
# Mechanical properties :
#
#
# Convention : Reuss Voigt Hill
#
# Bulk Modulus (GPa) = 51.13845 53.15178 52.14512
# Shear Modulus (GPa) = 50.43931 16.78925 33.61428
#
# Velocity S-wave (km/s) = 5.33494 3.07795 4.35519
# Velocity P-wave (km/s) = 8.17343 6.52870 7.39692
#
# Compressibility (1/GPa) = 0.01955476
#
# Stress axis : x y z
#
# Youngs Moduli (GPa) = 49.47629 49.47754 43.41743
#
# Poissons Ratio (x) = 0.45162 0.27836
# Poissons Ratio (y) = 0.45161 0.27835
# Poissons Ratio (z) = 0.31721 0.31720
#
# Static dielectric constant tensor:
#      x y z
#    x 1.608250 0.000000 0.000000 
#    y 0.000000 1.608250 0.000000 
#    z 0.000000 0.000000 1.643170 
# 
# From -- ./inp_files/2667.got.cif
#   From: 2010.05.17/outbox.cif.g08.bks.cpg/sg131_2_cif.got.tgz:2667.got - 2010.05.20 12:21:01.
