data_PCOD9566689
_publ_section_title
;
Structure prediction by ZEFSAII (Michael W. Deem and Ramdas Pophale) SiO2 
 PCOD9566689
Probable space group: P 42/M M C
;
_chemical_formula_sum "Si O2"
_cell_formula_units_Z 64
_cell_length_a 20.742777
_cell_length_b 20.742777
_cell_length_c 8.080110
_cell_angle_alpha 90.000000
_cell_angle_beta 90.000000
_cell_angle_gamma 90.000000
_cell_volume 3476.570734
_symmetry_space_group_name_H-M "P 42/M M C"
_symmetry_group_IT_number 131
_symmetry_cell_setting 'tetragonal'
loop_
_space_group_symop_operation_xyz
x,y,z
-x,-y,z
-y,x,1/2+z
y,-x,1/2+z
-x,y,-z
x,-y,-z
y,x,1/2-z
-y,-x,1/2-z
-x,-y,-z
x,y,-z
y,-x,1/2-z
-y,x,1/2-z
x,-y,z
-x,y,z
-y,-x,1/2+z
y,x,1/2+z
loop_
_atom_site_type_symbol
_atom_site_label
_atom_site_fract_x
_atom_site_fract_y
_atom_site_fract_z
Si Si1 0.322586 0.427098 0.300729
Si Si2 0.073348 0.678273 0.300832
Si Si3 0.926786 0.822407 0.197616
Si Si4 0.426254 0.176093 0.797793
O O1 0.374803 0.374803 0.250000
O O2 0.321105 0.428770 0.500000
O O3 0.338163 0.500000 0.243041
O O4 0.249510 0.411476 0.245123
O O5 0.071513 0.672948 0.500000
O O6 0.092663 0.751290 0.258385
O O7 0.124031 0.625485 0.238642
O O8 0.000000 0.668293 0.238935
O O9 0.877092 0.877092 0.250000
O O10 0.000000 0.834721 0.259481
O O11 0.928718 0.820764 0.000000
O O12 0.500000 0.161081 0.749313
O O13 0.424955 0.175626 0.000000
#
# Coordination Sequence:
#
# PCOD9566689 Si02
#       4
#    16  16  16  16
#     4   9  18  32  48  66  91 122 154 192 237 282
#     4   9  17  30  50  75 101 129 162 199 237 281
#     4  10  21  36  53  73  99 130 162 199 243 290
#     4   8  15  29  48  71  99 128 160 200 242 281
#
# _framework density 18.408946
#
# number of rings (size 3 to 8) (size 9 to 14) (size 15 to 20)
#    0.000    3.000    0.000    2.250    0.000    4.000 
#    0.000    8.750    0.000    2.250    0.000    3.500 
#    0.000    0.000    0.000    0.000    0.000    0.000 
#
# Total GULP energy -356766.650318 kJ/mol
# GULP energy per Si atom -5574.478911 kJ/mol
# Density = 1.836705 g / cm^3
# Si number density = 18.408946 Si / 1000 Ang^3
#
#
#
# Elastic Constant Matrix: (Units=GPa)
#
#
# Indices 1 2 3 4 5 6 
#
# 1 155.1918 140.4529 9.2360 0.0000 0.0000 0.0000
# 2 140.4529 155.1918 9.2360 0.0000 0.0000 0.0000
# 3 9.2360 9.2360 10.0902 0.0000 0.0000 0.0000
# 4 0.0000 0.0000 0.0000 14.1332 0.0000 0.0000
# 5 0.0000 0.0000 0.0000 0.0000 14.1332 0.0000
# 6 0.0000 0.0000 0.0000 0.0000 0.0000 44.9458
#
#
#
# Elastic Compliance Matrix: (Units=1/GPa)
#
#
# Indices 1 2 3 4 5 6 
#
# 1 0.035718 -0.032130 -0.003284 0.000000 0.000000 0.000000
# 2 -0.032130 0.035718 -0.003284 0.000000 0.000000 0.000000
# 3 -0.003284 -0.003284 0.105118 0.000000 0.000000 0.000000
# 4 0.000000 0.000000 0.000000 0.070755 0.000000 0.000000
# 5 0.000000 0.000000 0.000000 0.000000 0.070755 0.000000
# 6 0.000000 0.000000 0.000000 0.000000 0.000000 0.022249
#
#
# Mechanical properties :
#
#
# Convention : Reuss Voigt Hill
#
# Bulk Modulus (GPa) = 10.08497 70.92487 40.50492
# Shear Modulus (GPa) = 11.09235 25.41236 18.25235
#
# Velocity S-wave (km/s) = 2.45736 3.71945 3.15222
# Velocity P-wave (km/s) = 3.67990 7.55359 5.94132
#
# Compressibility (1/GPa) = 0.09915750
#
# Stress axis : x y z
#
# Youngs Moduli (GPa) = 27.99736 27.99736 9.51312
#
# Poissons Ratio (x) = 0.89956 0.03124
# Poissons Ratio (y) = 0.89956 0.03124
# Poissons Ratio (z) = 0.09194 0.09194
#
# Static dielectric constant tensor:
#      x y z
#    x 1.626990 0.000000 0.000000 
#    y 0.000000 1.626990 0.000000 
#    z 0.000000 0.000000 1.662090 
# 
# From -- ./inp_files/1597.got.cif
#   From: 2010.05.17/outbox.cif.g08.bks.cpg/sg131_1_cif.got.tgz:1597.got - 2010.05.20 12:21:01.
