data_PCOD9566265
_publ_section_title
;
Structure prediction by ZEFSAII (Michael W. Deem and Ramdas Pophale) SiO2 
 PCOD9566265
Probable space group: P 42/M M C
;
_chemical_formula_sum "Si O2"
_cell_formula_units_Z 80
_cell_length_a 17.392384
_cell_length_b 17.392384
_cell_length_c 14.927612
_cell_angle_alpha 90.000000
_cell_angle_beta 90.000000
_cell_angle_gamma 90.000000
_cell_volume 4515.528308
_symmetry_space_group_name_H-M "P 42/M M C"
_symmetry_group_IT_number 131
_symmetry_cell_setting 'tetragonal'
loop_
_space_group_symop_operation_xyz
x,y,z
-x,-y,z
-y,x,1/2+z
y,-x,1/2+z
-x,y,-z
x,-y,-z
y,x,1/2-z
-y,-x,1/2-z
-x,-y,-z
x,y,-z
y,-x,1/2-z
-y,x,1/2-z
x,-y,z
-x,y,z
-y,-x,1/2+z
y,x,1/2+z
loop_
_atom_site_type_symbol
_atom_site_label
_atom_site_fract_x
_atom_site_fract_y
_atom_site_fract_z
Si Si1 0.254950 0.408819 0.898299
Si Si2 0.203833 0.668600 0.730571
Si Si3 0.412630 0.675965 0.893400
Si Si4 0.092371 0.747499 0.599572
Si Si5 0.910162 0.916239 0.642003
O O1 0.250011 0.500000 0.895030
O O2 0.197963 0.371900 0.826371
O O3 0.343063 0.383805 0.875836
O O4 0.240013 0.382390 0.000000
O O5 0.257870 0.742131 0.750000
O O6 0.250771 0.611043 0.665557
O O7 0.130101 0.698145 0.677787
O O8 0.500000 0.650676 0.872034
O O9 0.410529 0.692583 0.000000
O O10 0.111778 0.718121 0.500000
O O11 0.121424 0.836029 0.606057
O O12 0.000000 0.748869 0.608639
O O13 0.909973 0.909973 0.750000
O O14 0.000000 0.918530 0.614407
O O15 0.876284 0.000000 0.617768
#
# Coordination Sequence:
#
# PCOD9566265 Si02
#       5
#    16  16  16  16  16
#     4   9  18  32  51  76 102 128 161 199 241 292
#     4  10  19  32  49  69  97 134 167 200 240 291
#     4   9  17  29  48  75 104 133 162 191 231 287
#     4  10  20  32  48  71  97 128 168 212 255 297
#     4   8  14  26  44  66  94 127 160 195 239 291
#
# _framework density 17.716640999999999
#
# number of rings (size 3 to 8) (size 9 to 14) (size 15 to 20)
#    0.000    2.800    0.000    2.400    0.000    1.600 
#    0.000    4.000    0.000    6.600    0.000    8.400 
#    0.000    0.000    0.000    0.000    0.000    0.400 
#
# Total GULP energy -445534.772917 kJ/mol
# GULP energy per Si atom -5569.184661 kJ/mol
# Density = 1.767632 g / cm^3
# Si number density = 17.716641 Si / 1000 Ang^3
#
#
#
# Elastic Constant Matrix: (Units=GPa)
#
#
# Indices 1 2 3 4 5 6 
#
# 1 45.2129 28.7672 46.9517 0.0000 0.0000 0.0000
# 2 28.7672 45.2127 46.9520 0.0000 0.0000 0.0000
# 3 46.9517 46.9520 98.0620 0.0000 0.0000 0.0000
# 4 0.0000 0.0000 0.0000 22.5871 0.0000 0.0000
# 5 0.0000 0.0000 0.0000 0.0000 22.5873 0.0000
# 6 0.0000 0.0000 0.0000 0.0000 0.0000 13.5372
#
#
#
# Elastic Compliance Matrix: (Units=1/GPa)
#
#
# Indices 1 2 3 4 5 6 
#
# 1 0.047633 -0.013173 -0.016499 0.000000 0.000000 0.000000
# 2 -0.013173 0.047634 -0.016500 0.000000 0.000000 0.000000
# 3 -0.016499 -0.016500 0.025997 0.000000 0.000000 0.000000
# 4 0.000000 0.000000 0.000000 0.044273 0.000000 0.000000
# 5 0.000000 0.000000 0.000000 0.000000 0.044273 0.000000
# 6 0.000000 0.000000 0.000000 0.000000 0.000000 0.073870
#
#
# Mechanical properties :
#
#
# Convention : Reuss Voigt Hill
#
# Bulk Modulus (GPa) = 34.57829 48.20327 41.39078
# Shear Modulus (GPa) = 12.96465 16.13009 14.54737
#
# Velocity S-wave (km/s) = 2.70807 3.02064 2.86862
# Velocity P-wave (km/s) = 5.41646 6.27954 5.86390
#
# Compressibility (1/GPa) = 0.02891988
#
# Stress axis : x y z
#
# Youngs Moduli (GPa) = 20.99390 20.99352 38.46546
#
# Poissons Ratio (x) = 0.27655 0.63465
# Poissons Ratio (y) = 0.27656 0.63467
# Poissons Ratio (z) = 0.34638 0.34639
#
# Static dielectric constant tensor:
#      x y z
#    x 1.603620 0.000000 0.000000 
#    y 0.000000 1.603620 0.000000 
#    z 0.000000 0.000000 1.651860 
# 
# From -- ./inp_files/5682.got.cif
#   From: 2010.05.17/outbox.cif.g08.bks.cpg/sg131_3_cif.got.tgz:5682.got - 2010.05.20 12:21:01.
