data_PCOD9566539
_publ_section_title
;
Structure prediction by ZEFSAII (Michael W. Deem and Ramdas Pophale) SiO2 
 PCOD9566539
Probable space group: P 42/M M C
;
_chemical_formula_sum "Si O2"
_cell_formula_units_Z 36
_cell_length_a 7.486697
_cell_length_b 7.486697
_cell_length_c 36.616028
_cell_angle_alpha 90.000000
_cell_angle_beta 90.000000
_cell_angle_gamma 90.000000
_cell_volume 2052.351510
_symmetry_space_group_name_H-M "P 42/M M C"
_symmetry_group_IT_number 131
_symmetry_cell_setting 'tetragonal'
loop_
_space_group_symop_operation_xyz
x,y,z
-x,-y,z
-y,x,1/2+z
y,-x,1/2+z
-x,y,-z
x,-y,-z
y,x,1/2-z
-y,-x,1/2-z
-x,-y,-z
x,y,-z
y,-x,1/2-z
-y,x,1/2-z
x,-y,z
-x,y,z
-y,-x,1/2+z
y,x,1/2+z
loop_
_atom_site_type_symbol
_atom_site_label
_atom_site_fract_x
_atom_site_fract_y
_atom_site_fract_z
Si Si1 0.500000 0.500000 0.250000
Si Si2 0.500000 0.786825 0.933888
Si Si3 0.500000 0.500000 0.000000
Si Si4 0.787226 0.500000 0.812610
Si Si5 0.790969 0.208859 0.127198
O O1 0.500000 0.671198 0.276389
O O2 0.500000 0.657142 0.968070
O O3 0.670252 0.750965 0.907799
O O4 0.500000 0.000000 0.943084
O O5 0.744155 0.669620 0.838282
O O6 0.000000 0.500000 0.805242
O O7 0.000000 0.240023 0.118957
O O8 0.765941 0.000000 0.135899
#
# Coordination Sequence:
#
# PCOD9566539 Si02
#       5
#     2   8   2   8  16
#     4  12  24  34  48  76 112 142 164 196 252 314
#     4  10  20  34  53  76 103 134 168 207 251 299
#     4  12  22  34  50  74 112 144 162 196 254 312
#     4  10  21  35  52  76 103 132 169 208 249 300
#     4   9  18  35  58  78  96 127 174 219 252 288
#
# _framework density 17.540856999999999
#
# number of rings (size 3 to 8) (size 9 to 14) (size 15 to 20)
#    0.000    2.222    0.000    3.000    0.000    1.778 
#    0.000    2.222    0.000    5.333    0.000    0.000 
#    0.000    0.000    0.000    0.000    0.000    0.000 
#
# Total GULP energy -200425.467860 kJ/mol
# GULP energy per Si atom -5567.374107 kJ/mol
# Density = 1.750093 g / cm^3
# Si number density = 17.540857 Si / 1000 Ang^3
#
#
#
# Elastic Constant Matrix: (Units=GPa)
#
#
# Indices 1 2 3 4 5 6 
#
# 1 95.7794 64.8297 100.4948 0.0000 0.0000 0.0000
# 2 64.8297 95.7794 100.4948 0.0000 0.0000 0.0000
# 3 100.4948 100.4948 189.9211 0.0000 0.0000 0.0000
# 4 0.0000 0.0000 0.0000 -0.9088 0.0000 0.0000
# 5 0.0000 0.0000 0.0000 0.0000 -0.9088 0.0000
# 6 0.0000 0.0000 0.0000 0.0000 0.0000 6.1535
#
#
#
# Elastic Compliance Matrix: (Units=1/GPa)
#
#
# Indices 1 2 3 4 5 6 
#
# 1 0.025371 -0.006940 -0.009752 0.000000 0.000000 0.000000
# 2 -0.006940 0.025371 -0.009752 0.000000 0.000000 0.000000
# 3 -0.009752 -0.009752 0.015586 0.000000 0.000000 0.000000
# 4 0.000000 0.000000 0.000000 -1.100406 0.000000 0.000000
# 5 0.000000 0.000000 0.000000 0.000000 -1.100406 0.000000
# 6 0.000000 0.000000 0.000000 0.000000 0.000000 0.162510
#
#
# Mechanical properties :
#
#
# Convention : Reuss Voigt Hill
#
# Bulk Modulus (GPa) = 74.41678 101.45764 87.93721
# Shear Modulus (GPa) = -2.61150 8.57790 2.98320
#
# Velocity S-wave (km/s) = -1.22149 2.21379 1.30553
# Velocity P-wave (km/s) = 6.36612 8.03124 7.24667
#
# Compressibility (1/GPa) = 0.01343783
#
# Stress axis : x y z
#
# Youngs Moduli (GPa) = 39.41578 39.41578 64.15977
#
# Poissons Ratio (x) = 0.27354 0.62571
# Poissons Ratio (y) = 0.27354 0.62571
# Poissons Ratio (z) = 0.38440 0.38440
#
# Static dielectric constant tensor:
#      x y z
#    x 1.615650 0.000000 0.000000 
#    y 0.000000 1.615650 0.000000 
#    z 0.000000 0.000000 1.532340 
# 
# From -- ./inp_files/10421.got.cif
#   From: 2010.05.17/outbox.cif.g08.bks.cpg/sg131_6_cif.got.tgz:10421.got - 2010.05.20 12:21:01.
