data_PCOD9566070
_publ_section_title
;
Structure prediction by ZEFSAII (Michael W. Deem and Ramdas Pophale) SiO2 
 PCOD9566070
Probable space group: P 42/M M C
;
_chemical_formula_sum "Si O2"
_cell_formula_units_Z 80
_cell_length_a 22.787441
_cell_length_b 22.787441
_cell_length_c 9.178726
_cell_angle_alpha 90.000000
_cell_angle_beta 90.000000
_cell_angle_gamma 90.000000
_cell_volume 4766.213803
_symmetry_space_group_name_H-M "P 42/M M C"
_symmetry_group_IT_number 131
_symmetry_cell_setting 'tetragonal'
loop_
_space_group_symop_operation_xyz
x,y,z
-x,-y,z
-y,x,1/2+z
y,-x,1/2+z
-x,y,-z
x,-y,-z
y,x,1/2-z
-y,-x,1/2-z
-x,-y,-z
x,y,-z
y,-x,1/2-z
-y,x,1/2-z
x,-y,z
-x,y,z
-y,-x,1/2+z
y,x,1/2+z
loop_
_atom_site_type_symbol
_atom_site_label
_atom_site_fract_x
_atom_site_fract_y
_atom_site_fract_z
Si Si1 0.160374 0.628702 0.334172
Si Si2 0.152820 0.932761 0.325615
Si Si3 0.301447 0.616777 0.332790
Si Si4 0.163870 0.749024 0.173450
Si Si5 0.500000 0.832922 0.824290
Si Si6 0.500000 0.706455 0.326399
O O1 0.142342 0.642784 0.500000
O O2 0.231034 0.620845 0.333503
O O3 0.149770 0.684061 0.231431
O O4 0.136856 0.563165 0.296698
O O5 0.097157 0.902844 0.250000
O O6 0.144910 0.931361 0.500000
O O7 0.208443 0.891172 0.292781
O O8 0.161476 0.000000 0.280365
O O9 0.328278 0.671723 0.250000
O O10 0.321029 0.614330 0.500000
O O11 0.319351 0.558543 0.245359
O O12 0.220123 0.779878 0.250000
O O13 0.173702 0.748047 0.000000
O O14 0.500000 0.774497 0.726192
O O15 0.500000 0.817849 0.000000
O O16 0.500000 0.702353 0.500000
#
# Coordination Sequence:
#
# PCOD9566070 Si02
#       6
#    16  16  16  16   8   8
#     4   9  17  29  45  65  91 120 150 186 229 276
#     4   9  19  35  52  72 100 132 165 201 240 281
#     4  10  19  30  43  60  82 109 140 175 218 268
#     4  10  19  30  46  68  95 126 158 194 237 285
#     4   8  16  30  44  60  86 120 152 185 228 275
#     4  10  18  28  42  59  79 105 137 176 220 266
#
# _framework density 16.784811000000001
#
# number of rings (size 3 to 8) (size 9 to 14) (size 15 to 20)
#    0.000    2.600    0.000    3.900    0.000    7.000 
#    0.000    1.000    0.000    0.300    0.000    2.800 
#    0.000    5.600    0.000    0.000    0.000    0.000 
#
# Total GULP energy -445550.719440 kJ/mol
# GULP energy per Si atom -5569.383993 kJ/mol
# Density = 1.674661 g / cm^3
# Si number density = 16.784811 Si / 1000 Ang^3
#
#
#
# Elastic Constant Matrix: (Units=GPa)
#
#
# Indices 1 2 3 4 5 6 
#
# 1 81.2356 23.9162 33.8432 0.0000 0.0000 0.0000
# 2 23.9162 81.2351 33.8436 0.0000 0.0000 0.0000
# 3 33.8432 33.8436 80.4188 0.0000 0.0000 0.0000
# 4 0.0000 0.0000 0.0000 20.0518 0.0000 0.0000
# 5 0.0000 0.0000 0.0000 0.0000 20.0524 0.0000
# 6 0.0000 0.0000 0.0000 0.0000 0.0000 9.6610
#
#
#
# Elastic Compliance Matrix: (Units=1/GPa)
#
#
# Indices 1 2 3 4 5 6 
#
# 1 0.015245 -0.002201 -0.005489 0.000000 0.000000 0.000000
# 2 -0.002201 0.015245 -0.005489 0.000000 0.000000 0.000000
# 3 -0.005489 -0.005489 0.017055 0.000000 0.000000 0.000000
# 4 0.000000 0.000000 0.000000 0.049871 0.000000 0.000000
# 5 0.000000 0.000000 0.000000 0.000000 0.049869 0.000000
# 6 0.000000 0.000000 0.000000 0.000000 0.000000 0.103509
#
#
# Mechanical properties :
#
#
# Convention : Reuss Voigt Hill
#
# Bulk Modulus (GPa) = 47.20274 47.34396 47.27335
# Shear Modulus (GPa) = 17.59228 20.03881 18.81554
#
# Velocity S-wave (km/s) = 3.24096 3.45898 3.35175
# Velocity P-wave (km/s) = 6.49526 6.64984 6.57301
#
# Compressibility (1/GPa) = 0.02118521
#
# Stress axis : x y z
#
# Youngs Moduli (GPa) = 65.59628 65.59549 58.63357
#
# Poissons Ratio (x) = 0.14440 0.32185
# Poissons Ratio (y) = 0.14440 0.32186
# Poissons Ratio (z) = 0.36007 0.36007
#
# Static dielectric constant tensor:
#      x y z
#    x 1.585570 0.000000 0.000000 
#    y 0.000000 1.585570 0.000000 
#    z 0.000000 0.000000 1.564690 
# 
# From -- ./inp_files/2092.got.cif
#   From: 2010.05.17/outbox.cif.g08.bks.cpg/sg131_2_cif.got.tgz:2092.got - 2010.05.20 12:21:01.
