data_PCOD9566033
_publ_section_title
;
Structure prediction by ZEFSAII (Michael W. Deem and Ramdas Pophale) SiO2 
 PCOD9566033
Probable space group: P 42/M M C
;
_chemical_formula_sum "Si O2"
_cell_formula_units_Z 128
_cell_length_a 21.063095
_cell_length_b 21.063095
_cell_length_c 18.113085
_cell_angle_alpha 90.000000
_cell_angle_beta 90.000000
_cell_angle_gamma 90.000000
_cell_volume 8035.942087
_symmetry_space_group_name_H-M "P 42/M M C"
_symmetry_group_IT_number 131
_symmetry_cell_setting 'tetragonal'
loop_
_space_group_symop_operation_xyz
x,y,z
-x,-y,z
-y,x,1/2+z
y,-x,1/2+z
-x,y,-z
x,-y,-z
y,x,1/2-z
-y,-x,1/2-z
-x,-y,-z
x,y,-z
y,-x,1/2-z
-y,x,1/2-z
x,-y,z
-x,y,z
-y,-x,1/2+z
y,x,1/2+z
loop_
_atom_site_type_symbol
_atom_site_label
_atom_site_fract_x
_atom_site_fract_y
_atom_site_fract_z
Si Si1 0.336216 0.571198 0.209198
Si Si2 0.731453 0.613588 0.414474
Si Si3 0.569955 0.407992 0.913108
Si Si4 0.306576 0.924409 0.913349
Si Si5 0.285823 0.236577 0.413323
Si Si6 0.767352 0.170419 0.812522
Si Si7 0.201746 0.640106 0.218599
Si Si8 0.426479 0.138978 0.161904
O O1 0.392038 0.607962 0.250000
O O2 0.326774 0.500000 0.235632
O O3 0.366692 0.568569 0.127427
O O4 0.271535 0.609083 0.222618
O O5 0.750518 0.611963 0.500000
O O6 0.668101 0.573576 0.404779
O O7 0.713200 0.687027 0.398410
O O8 0.790264 0.587066 0.369411
O O9 0.500000 0.429306 0.886183
O O10 0.573367 0.422258 0.000000
O O11 0.256330 0.891638 0.856950
O O12 0.375956 0.904280 0.881841
O O13 0.300118 0.000000 0.911939
O O14 0.300343 0.903231 0.000000
O O15 0.290492 0.227130 0.500000
O O16 0.219213 0.216486 0.377849
O O17 0.338466 0.199599 0.366297
O O18 0.822399 0.177602 0.750000
O O19 0.704413 0.194710 0.767567
O O20 0.148677 0.593832 0.252504
O O21 0.500000 0.121681 0.152910
#
# Coordination Sequence:
#
# PCOD9566033 Si02
#       8
#    16  16  16  16  16  16  16  16
#     4  12  23  33  42  52  66  88 123 171 229 289
#     4  10  17  27  44  62  78 100 135 182 234 289
#     4  10  21  34  44  54  70  95 130 172 224 292
#     4  10  20  33  49  72 108 148 175 197 231 279
#     4  10  16  26  47  66  86 109 135 182 246 304
#     4   9  17  30  49  72 100 126 159 193 230 273
#     4  10  19  32  45  63  82 106 143 195 252 301
#     4  11  21  31  45  64  90 126 167 207 242 284
#
# _framework density 15.928437000000001
#
# number of rings (size 3 to 8) (size 9 to 14) (size 15 to 20)
#    0.000    1.750    3.750    3.750    0.000    2.875 
#    0.000    1.250    0.000    1.125    0.000    0.000 
#    0.000   50.250    0.000   11.500    0.000    0.000 
#
# Total GULP energy -712991.140887 kJ/mol
# GULP energy per Si atom -5570.243288 kJ/mol
# Density = 1.589218 g / cm^3
# Si number density = 15.928437 Si / 1000 Ang^3
#
#
#
# Elastic Constant Matrix: (Units=GPa)
#
#
# Indices 1 2 3 4 5 6 
#
# 1 50.7048 16.0069 28.8237 0.0000 0.0000 0.0000
# 2 16.0069 50.7053 28.8238 0.0000 0.0000 0.0000
# 3 28.8237 28.8238 100.1649 0.0000 0.0000 0.0000
# 4 0.0000 0.0000 0.0000 17.9734 0.0000 0.0000
# 5 0.0000 0.0000 0.0000 0.0000 17.9734 0.0000
# 6 0.0000 0.0000 0.0000 0.0000 0.0000 49.0829
#
#
#
# Elastic Compliance Matrix: (Units=1/GPa)
#
#
# Indices 1 2 3 4 5 6 
#
# 1 0.024386 -0.004435 -0.005741 0.000000 0.000000 0.000000
# 2 -0.004435 0.024385 -0.005741 0.000000 0.000000 0.000000
# 3 -0.005741 -0.005741 0.013288 0.000000 0.000000 0.000000
# 4 0.000000 0.000000 0.000000 0.055638 0.000000 0.000000
# 5 0.000000 0.000000 0.000000 0.000000 0.055638 0.000000
# 6 0.000000 0.000000 0.000000 0.000000 0.000000 0.020374
#
#
# Mechanical properties :
#
#
# Convention : Reuss Voigt Hill
#
# Bulk Modulus (GPa) = 33.08526 38.76488 35.92507
# Shear Modulus (GPa) = 21.22093 25.53398 23.37745
#
# Velocity S-wave (km/s) = 3.65398 4.00815 3.83516
# Velocity P-wave (km/s) = 6.21437 6.76831 6.49725
#
# Compressibility (1/GPa) = 0.03022494
#
# Stress axis : x y z
#
# Youngs Moduli (GPa) = 41.00789 41.00831 75.25757
#
# Poissons Ratio (x) = 0.18185 0.43207
# Poissons Ratio (y) = 0.18185 0.43206
# Poissons Ratio (z) = 0.23543 0.23543
#
# Static dielectric constant tensor:
#      x y z
#    x 1.542390 0.000000 0.000000 
#    y 0.000000 1.542390 0.000000 
#    z 0.000000 0.000000 1.632960 
# 
# From -- ./inp_files/8427.got.cif
#   From: 2010.05.17/outbox.cif.g08.bks.cpg/sg131_5_cif.got.tgz:8427.got - 2010.05.20 12:21:01.
