data_PCOD9566635
_publ_section_title
;
Structure prediction by ZEFSAII (Michael W. Deem and Ramdas Pophale) SiO2 
 PCOD9566635
Probable space group: P 42/M M C
;
_chemical_formula_sum "Si O2"
_cell_formula_units_Z 56
_cell_length_a 18.141611
_cell_length_b 18.141611
_cell_length_c 7.538082
_cell_angle_alpha 90.000000
_cell_angle_beta 90.000000
_cell_angle_gamma 90.000000
_cell_volume 2480.918846
_symmetry_space_group_name_H-M "P 42/M M C"
_symmetry_group_IT_number 131
_symmetry_cell_setting 'tetragonal'
loop_
_space_group_symop_operation_xyz
x,y,z
-x,-y,z
-y,x,1/2+z
y,-x,1/2+z
-x,y,-z
x,-y,-z
y,x,1/2-z
-y,-x,1/2-z
-x,-y,-z
x,y,-z
y,-x,1/2-z
-y,x,1/2-z
x,-y,z
-x,y,z
-y,-x,1/2+z
y,x,1/2+z
loop_
_atom_site_type_symbol
_atom_site_label
_atom_site_fract_x
_atom_site_fract_y
_atom_site_fract_z
Si Si1 0.846156 0.349500 0.700075
Si Si2 0.217455 0.500000 0.299084
Si Si3 0.914567 0.202912 0.287041
Si Si4 0.000000 0.412369 0.210898
Si Si5 0.379995 0.500000 0.793512
O O1 0.815305 0.340239 0.500000
O O2 0.805405 0.420925 0.783786
O O3 0.860276 0.268539 0.781823
O O4 0.929188 0.378948 0.698518
O O5 0.185077 0.500000 0.500000
O O6 0.304539 0.500000 0.308663
O O7 0.874571 0.125430 0.250000
O O8 0.917314 0.212864 0.500000
O O9 0.000000 0.207234 0.223394
O O10 0.000000 0.500000 0.228024
O O11 0.000000 0.395146 0.000000
O O12 0.429664 0.429664 0.750000
O O13 0.362222 0.500000 0.000000
#
# Coordination Sequence:
#
# PCOD9566635 Si02
#       5
#    16   8  16   8   8
#     4  10  20  37  60  84 117 158 196 235 289 361
#     4  10  21  36  61  94 123 158 201 240 293 356
#     4  10  22  40  61  85 114 151 200 251 306 366
#     4  11  21  31  51  85 120 151 192 239 285 340
#     4  11  23  42  66  87 117 156 202 251 293 344
#
# _framework density 22.572284
#
# number of rings (size 3 to 8) (size 9 to 14) (size 15 to 20)
#    0.000    1.714    2.857    2.143    0.000    4.857 
#    0.000    4.286    0.000    0.000    0.000    0.000 
#    0.000    0.000    0.000    0.000    0.000    0.000 
#
# Total GULP energy -312257.037407 kJ/mol
# GULP energy per Si atom -5576.018525 kJ/mol
# Density = 2.252091 g / cm^3
# Si number density = 22.572284 Si / 1000 Ang^3
#
#
#
# Elastic Constant Matrix: (Units=GPa)
#
#
# Indices 1 2 3 4 5 6 
#
# 1 123.9929 61.7197 -5.9344 0.0000 0.0000 0.0000
# 2 61.7197 124.0016 -5.9342 0.0000 0.0000 0.0000
# 3 -5.9344 -5.9342 81.4210 0.0000 0.0000 0.0000
# 4 0.0000 0.0000 0.0000 13.5610 0.0000 0.0000
# 5 0.0000 0.0000 0.0000 0.0000 13.5608 0.0000
# 6 0.0000 0.0000 0.0000 0.0000 0.0000 38.6243
#
#
#
# Elastic Compliance Matrix: (Units=1/GPa)
#
#
# Indices 1 2 3 4 5 6 
#
# 1 0.010734 -0.005324 0.000394 0.000000 0.000000 0.000000
# 2 -0.005324 0.010733 0.000394 0.000000 0.000000 0.000000
# 3 0.000394 0.000394 0.012339 0.000000 0.000000 0.000000
# 4 0.000000 0.000000 0.000000 0.073741 0.000000 0.000000
# 5 0.000000 0.000000 0.000000 0.000000 0.073742 0.000000
# 6 0.000000 0.000000 0.000000 0.000000 0.000000 0.025890
#
#
# Mechanical properties :
#
#
# Convention : Reuss Voigt Hill
#
# Bulk Modulus (GPa) = 40.42703 47.67974 44.05339
# Shear Modulus (GPa) = 22.27222 31.78685 27.02953
#
# Velocity S-wave (km/s) = 3.14460 3.75670 3.46420
# Velocity P-wave (km/s) = 5.57975 6.32345 5.96321
#
# Compressibility (1/GPa) = 0.02473592
#
# Stress axis : x y z
#
# Youngs Moduli (GPa) = 93.16353 93.17012 81.04177
#
# Poissons Ratio (x) = 0.49601 -0.03196
# Poissons Ratio (y) = 0.49597 -0.03195
# Poissons Ratio (z) = -0.03674 -0.03673
#
# Static dielectric constant tensor:
#      x y z
#    x 1.842020 0.000000 0.000000 
#    y 0.000000 1.842010 0.000000 
#    z 0.000000 0.000000 1.903690 
# 
# From -- ./inp_files/1271.got.cif
#   From: 2010.05.17/outbox.cif.g08.bks.cpg/sg131_1_cif.got.tgz:1271.got - 2010.05.20 12:21:01.
