data_PCOD9566595
_publ_section_title
;
Structure prediction by ZEFSAII (Michael W. Deem and Ramdas Pophale) SiO2 
 PCOD9566595
Probable space group: P 42/M M C
;
_chemical_formula_sum "Si O2"
_cell_formula_units_Z 112
_cell_length_a 14.448960
_cell_length_b 14.448960
_cell_length_c 26.496860
_cell_angle_alpha 90.000000
_cell_angle_beta 90.000000
_cell_angle_gamma 90.000000
_cell_volume 5531.814249
_symmetry_space_group_name_H-M "P 42/M M C"
_symmetry_group_IT_number 131
_symmetry_cell_setting 'tetragonal'
loop_
_space_group_symop_operation_xyz
x,y,z
-x,-y,z
-y,x,1/2+z
y,-x,1/2+z
-x,y,-z
x,-y,-z
y,x,1/2-z
-y,-x,1/2-z
-x,-y,-z
x,y,-z
y,-x,1/2-z
-y,x,1/2-z
x,-y,z
-x,y,z
-y,-x,1/2+z
y,x,1/2+z
loop_
_atom_site_type_symbol
_atom_site_label
_atom_site_fract_x
_atom_site_fract_y
_atom_site_fract_z
Si Si1 0.897517 0.390414 0.760677
Si Si2 0.395284 0.640291 0.809794
Si Si3 0.782760 0.890906 0.904652
Si Si4 0.110054 0.275174 0.942921
Si Si5 0.105419 0.887856 0.803833
Si Si6 0.851354 0.394086 0.347241
Si Si7 0.605468 0.205949 0.644056
O O1 0.873355 0.500000 0.754667
O O2 0.899790 0.355583 0.703535
O O3 0.830648 0.351500 0.803055
O O4 0.000000 0.383684 0.782141
O O5 0.371607 0.628394 0.750000
O O6 0.500000 0.604825 0.816303
O O7 0.396586 0.746486 0.827573
O O8 0.315538 0.600479 0.845771
O O9 0.837953 0.823937 0.941790
O O10 0.833170 0.868260 0.851641
O O11 0.675555 0.867228 0.893341
O O12 0.792182 0.000000 0.915648
O O13 0.165891 0.336968 0.902422
O O14 0.000000 0.267358 0.930461
O O15 0.116197 0.312913 0.000000
O O16 0.144001 0.856000 0.750000
O O17 0.000000 0.854030 0.811118
O O18 0.100785 0.000000 0.799373
O O19 0.881069 0.500000 0.358179
O O20 0.500000 0.170733 0.639681
#
# Coordination Sequence:
#
# PCOD9566595 Si02
#       7
#    16  16  16  16  16  16  16
#     4   9  17  30  51  83 122 161 199 239 284 341
#     4  11  21  36  60  94 137 178 212 249 294 347
#     4  11  22  37  61  88 116 159 209 251 302 366
#     4  11  26  46  66  90 118 149 195 261 331 390
#     4   8  15  28  46  74 112 148 184 227 276 339
#     4  10  20  35  56  86 129 173 208 246 289 347
#     4  11  22  39  63  90 121 161 209 254 304 369
#
# _framework density 20.246523
#
# number of rings (size 3 to 8) (size 9 to 14) (size 15 to 20)
#    0.000    1.857    2.857    2.143    0.000    5.857 
#    0.000    4.286    0.000    1.714    0.000    2.000 
#    0.000    0.000    0.000    0.000    0.000    0.000 
#
# Total GULP energy -624809.160109 kJ/mol
# GULP energy per Si atom -5578.653215 kJ/mol
# Density = 2.020044 g / cm^3
# Si number density = 20.246523 Si / 1000 Ang^3
#
#
#
# Elastic Constant Matrix: (Units=GPa)
#
#
# Indices 1 2 3 4 5 6 
#
# 1 109.9911 20.9067 37.8960 0.0000 0.0000 0.0000
# 2 20.9067 109.9906 37.8961 0.0000 0.0000 0.0000
# 3 37.8960 37.8961 77.1738 0.0000 0.0000 0.0000
# 4 0.0000 0.0000 0.0000 18.0743 0.0000 0.0000
# 5 0.0000 0.0000 0.0000 0.0000 18.0746 0.0000
# 6 0.0000 0.0000 0.0000 0.0000 0.0000 16.9375
#
#
#
# Elastic Compliance Matrix: (Units=1/GPa)
#
#
# Indices 1 2 3 4 5 6 
#
# 1 0.010950 -0.000275 -0.005242 0.000000 0.000000 0.000000
# 2 -0.000275 0.010950 -0.005242 0.000000 0.000000 0.000000
# 3 -0.005242 -0.005242 0.018106 0.000000 0.000000 0.000000
# 4 0.000000 0.000000 0.000000 0.055327 0.000000 0.000000
# 5 0.000000 0.000000 0.000000 0.000000 0.055326 0.000000
# 6 0.000000 0.000000 0.000000 0.000000 0.000000 0.059041
#
#
# Mechanical properties :
#
#
# Convention : Reuss Voigt Hill
#
# Bulk Modulus (GPa) = 54.08938 54.50588 54.29763
# Shear Modulus (GPa) = 21.06325 23.98105 22.52215
#
# Velocity S-wave (km/s) = 3.22893 3.44532 3.33888
# Velocity P-wave (km/s) = 6.37767 6.54267 6.46070
#
# Compressibility (1/GPa) = 0.01848792
#
# Stress axis : x y z
#
# Youngs Moduli (GPa) = 91.32464 91.32397 55.23131
#
# Poissons Ratio (x) = 0.02515 0.28951
# Poissons Ratio (y) = 0.02515 0.28951
# Poissons Ratio (z) = 0.47870 0.47870
#
# Static dielectric constant tensor:
#      x y z
#    x 1.799040 0.000000 0.000000 
#    y 0.000000 1.799040 0.000000 
#    z 0.000000 0.000000 1.706370 
# 
# From -- ./inp_files/11315.got.cif
#   From: 2010.05.17/outbox.cif.g08.bks.cpg/sg131_6_cif.got.tgz:11315.got - 2010.05.20 12:21:01.
