data_PCOD9566590
_publ_section_title
;
Structure prediction by ZEFSAII (Michael W. Deem and Ramdas Pophale) SiO2 
 PCOD9566590
Probable space group: P 42/M M C
;
_chemical_formula_sum "Si O2"
_cell_formula_units_Z 112
_cell_length_a 15.045291
_cell_length_b 15.045291
_cell_length_c 25.883157
_cell_angle_alpha 90.000000
_cell_angle_beta 90.000000
_cell_angle_gamma 90.000000
_cell_volume 5858.931640
_symmetry_space_group_name_H-M "P 42/M M C"
_symmetry_group_IT_number 131
_symmetry_cell_setting 'tetragonal'
loop_
_space_group_symop_operation_xyz
x,y,z
-x,-y,z
-y,x,1/2+z
y,-x,1/2+z
-x,y,-z
x,-y,-z
y,x,1/2-z
-y,-x,1/2-z
-x,-y,-z
x,y,-z
y,-x,1/2-z
-y,x,1/2-z
x,-y,z
-x,y,z
-y,-x,1/2+z
y,x,1/2+z
loop_
_atom_site_type_symbol
_atom_site_label
_atom_site_fract_x
_atom_site_fract_y
_atom_site_fract_z
Si Si1 0.896979 0.603781 0.701490
Si Si2 0.703071 0.399338 0.937767
Si Si3 0.763046 0.101761 0.275648
Si Si4 0.096774 0.366568 0.939962
Si Si5 0.230023 0.394153 0.603785
Si Si6 0.900996 0.261074 0.557847
Si Si7 0.181557 0.901417 0.608072
O O1 0.890583 0.500000 0.714762
O O2 0.883028 0.667120 0.750412
O O3 0.822387 0.622313 0.657942
O O4 0.000000 0.618831 0.683132
O O5 0.669420 0.500000 0.931738
O O6 0.807097 0.398013 0.920945
O O7 0.648653 0.326945 0.905046
O O8 0.700018 0.378039 0.000000
O O9 0.831652 0.168349 0.250000
O O10 0.769426 0.110939 0.337126
O O11 0.788324 0.000000 0.263386
O O12 0.100423 0.260161 0.933837
O O13 0.000000 0.393521 0.916967
O O14 0.094287 0.391889 0.000000
O O15 0.232537 0.500000 0.595538
O O16 0.168328 0.339970 0.564377
O O17 0.894371 0.223865 0.500000
O O18 0.881424 0.180935 0.596918
O O19 0.000000 0.295866 0.565424
O O20 0.139859 0.000000 0.607733
#
# Coordination Sequence:
#
# PCOD9566590 Si02
#       7
#    16  16  16  16  16  16  16
#     4   9  19  38  63  87 111 143 185 236 293 346
#     4  10  21  36  55  82 116 153 192 232 280 341
#     4  10  21  35  55  82 112 147 186 229 278 333
#     4   9  17  32  56  82 110 146 184 224 274 330
#     4  11  22  37  59  83 111 150 192 237 289 341
#     4  11  23  37  56  84 118 156 195 235 282 336
#     4  10  20  35  56  82 113 150 190 230 277 334
#
# _framework density 19.116112000000001
#
# number of rings (size 3 to 8) (size 9 to 14) (size 15 to 20)
#    0.000    2.000    1.429    2.143    0.000    5.571 
#    0.000    5.714    0.000    2.571    0.000    0.000 
#    0.000    0.000    0.000    0.000    0.000    0.000 
#
# Total GULP energy -624327.022504 kJ/mol
# GULP energy per Si atom -5574.348415 kJ/mol
# Density = 1.907260 g / cm^3
# Si number density = 19.116112 Si / 1000 Ang^3
#
#
#
# Elastic Constant Matrix: (Units=GPa)
#
#
# Indices 1 2 3 4 5 6 
#
# 1 103.9075 51.4618 35.0019 0.0000 0.0000 0.0000
# 2 51.4618 103.9081 35.0000 0.0000 0.0000 0.0000
# 3 35.0019 35.0000 60.1008 0.0000 0.0000 0.0000
# 4 0.0000 0.0000 0.0000 23.7659 0.0000 0.0000
# 5 0.0000 0.0000 0.0000 0.0000 23.7658 0.0000
# 6 0.0000 0.0000 0.0000 0.0000 0.0000 0.3192
#
#
#
# Elastic Compliance Matrix: (Units=1/GPa)
#
#
# Indices 1 2 3 4 5 6 
#
# 1 0.013897 -0.005171 -0.005082 0.000000 0.000000 0.000000
# 2 -0.005171 0.013896 -0.005081 0.000000 0.000000 0.000000
# 3 -0.005082 -0.005081 0.022558 0.000000 0.000000 0.000000
# 4 0.000000 0.000000 0.000000 0.042077 0.000000 0.000000
# 5 0.000000 0.000000 0.000000 0.000000 0.042077 0.000000
# 6 0.000000 0.000000 0.000000 0.000000 0.000000 3.132756
#
#
# Mechanical properties :
#
#
# Convention : Reuss Voigt Hill
#
# Bulk Modulus (GPa) = 50.80649 56.76043 53.78346
# Shear Modulus (GPa) = 1.51309 19.33369 10.42339
#
# Velocity S-wave (km/s) = 0.89064 3.18367 2.33763
# Velocity P-wave (km/s) = 5.26243 6.57809 5.95670
#
# Compressibility (1/GPa) = 0.01968253
#
# Stress axis : x y z
#
# Youngs Moduli (GPa) = 71.95922 71.96161 44.33107
#
# Poissons Ratio (x) = 0.37209 0.22529
# Poissons Ratio (y) = 0.37208 0.22526
# Poissons Ratio (z) = 0.36570 0.36565
#
# Static dielectric constant tensor:
#      x y z
#    x 1.674330 0.000000 0.000000 
#    y 0.000000 1.674330 0.000000 
#    z 0.000000 0.000000 1.688760 
# 
# From -- ./inp_files/12475.got.cif
#   From: 2010.05.17/outbox.cif.g08.bks.cpg/sg131_7_cif.got.tgz:12475.got - 2010.05.20 12:21:01.
