data_PCOD9566494
_publ_section_title
;
Structure prediction by ZEFSAII (Michael W. Deem and Ramdas Pophale) SiO2 
 PCOD9566494
Probable space group: P 42/M M C
;
_chemical_formula_sum "Si O2"
_cell_formula_units_Z 112
_cell_length_a 15.192885
_cell_length_b 15.192885
_cell_length_c 24.316937
_cell_angle_alpha 90.000000
_cell_angle_beta 90.000000
_cell_angle_gamma 90.000000
_cell_volume 5612.926699
_symmetry_space_group_name_H-M "P 42/M M C"
_symmetry_group_IT_number 131
_symmetry_cell_setting 'tetragonal'
loop_
_space_group_symop_operation_xyz
x,y,z
-x,-y,z
-y,x,1/2+z
y,-x,1/2+z
-x,y,-z
x,-y,-z
y,x,1/2-z
-y,-x,1/2-z
-x,-y,-z
x,y,-z
y,-x,1/2-z
-y,x,1/2-z
x,-y,z
-x,y,z
-y,-x,1/2+z
y,x,1/2+z
loop_
_atom_site_type_symbol
_atom_site_label
_atom_site_fract_x
_atom_site_fract_y
_atom_site_fract_z
Si Si1 0.243883 0.712998 0.438169
Si Si2 0.713522 0.901849 0.157021
Si Si3 0.243930 0.906594 0.436902
Si Si4 0.395874 0.597448 0.098030
Si Si5 0.289379 0.596722 0.211595
Si Si6 0.850312 0.094818 0.327335
Si Si7 0.652995 0.098836 0.277660
O O1 0.204986 0.711514 0.500000
O O2 0.172345 0.701627 0.389515
O O3 0.286376 0.810807 0.429534
O O4 0.320561 0.642105 0.434804
O O5 0.813392 0.897896 0.181243
O O6 0.654917 0.889712 0.211453
O O7 0.698732 0.000000 0.134659
O O8 0.214294 0.908294 0.500000
O O9 0.165578 0.907191 0.393111
O O10 0.293289 0.000000 0.427266
O O11 0.379285 0.500000 0.073752
O O12 0.500000 0.605917 0.106121
O O13 0.345252 0.600763 0.156064
O O14 0.325095 0.674906 0.250000
O O15 0.305115 0.500000 0.237251
O O16 0.185827 0.606775 0.199932
O O17 0.752620 0.101032 0.301402
O O18 0.888380 0.000000 0.310351
O O19 0.618997 0.000000 0.289728
#
# Coordination Sequence:
#
# PCOD9566494 Si02
#       7
#    16  16  16  16  16  16  16
#     4  10  20  35  57  80 105 145 191 234 286 344
#     4  10  20  33  50  75 109 148 191 237 282 328
#     4   8  14  26  46  73 104 138 179 228 278 326
#     4  10  22  39  59  86 115 139 171 222 285 350
#     4  11  21  34  56  83 113 148 185 227 277 339
#     4   9  16  27  46  71 101 141 187 231 278 335
#     4  10  20  34  53  77 109 151 193 235 287 341
#
# _framework density 19.953939999999999
#
# number of rings (size 3 to 8) (size 9 to 14) (size 15 to 20)
#    0.000    2.286    0.000    4.286    0.000    2.143 
#    0.000    0.714    0.000    5.143    0.000   13.000 
#    0.000    0.000    0.000    0.000    0.000    0.000 
#
# Total GULP energy -623705.567112 kJ/mol
# GULP energy per Si atom -5568.799706 kJ/mol
# Density = 1.990852 g / cm^3
# Si number density = 19.953940 Si / 1000 Ang^3
#
#
#
# Elastic Constant Matrix: (Units=GPa)
#
#
# Indices 1 2 3 4 5 6 
#
# 1 83.8687 29.4296 13.1182 0.0000 0.0000 0.0000
# 2 29.4296 83.8680 13.1176 0.0000 0.0000 0.0000
# 3 13.1182 13.1176 57.4063 0.0000 0.0000 0.0000
# 4 0.0000 0.0000 0.0000 8.0188 0.0000 0.0000
# 5 0.0000 0.0000 0.0000 0.0000 8.0190 0.0000
# 6 0.0000 0.0000 0.0000 0.0000 0.0000 15.0883
#
#
#
# Elastic Compliance Matrix: (Units=1/GPa)
#
#
# Indices 1 2 3 4 5 6 
#
# 1 0.013844 -0.004525 -0.002130 0.000000 0.000000 0.000000
# 2 -0.004525 0.013844 -0.002129 0.000000 0.000000 0.000000
# 3 -0.002130 -0.002129 0.018393 0.000000 0.000000 0.000000
# 4 0.000000 0.000000 0.000000 0.124707 0.000000 0.000000
# 5 0.000000 0.000000 0.000000 0.000000 0.124704 0.000000
# 6 0.000000 0.000000 0.000000 0.000000 0.000000 0.066276
#
#
# Mechanical properties :
#
#
# Convention : Reuss Voigt Hill
#
# Bulk Modulus (GPa) = 35.07115 37.38599 36.22857
# Shear Modulus (GPa) = 12.85868 17.52372 15.19120
#
# Velocity S-wave (km/s) = 2.54129 2.96667 2.76218
# Velocity P-wave (km/s) = 5.12105 5.52374 5.32620
#
# Compressibility (1/GPa) = 0.02851346
#
# Stress axis : x y z
#
# Youngs Moduli (GPa) = 72.23183 72.23149 54.36867
#
# Poissons Ratio (x) = 0.32684 0.11579
# Poissons Ratio (y) = 0.32684 0.11578
# Poissons Ratio (z) = 0.15383 0.15382
#
# Static dielectric constant tensor:
#      x y z
#    x 1.728520 0.000000 0.000000 
#    y 0.000000 1.728520 0.000000 
#    z 0.000000 0.000000 1.734120 
# 
# From -- ./inp_files/11314.got.cif
#   From: 2010.05.17/outbox.cif.g08.bks.cpg/sg131_6_cif.got.tgz:11314.got - 2010.05.20 12:21:01.
