data_PCOD9566152
_publ_section_title
;
Structure prediction by ZEFSAII (Michael W. Deem and Ramdas Pophale) SiO2 
 PCOD9566152
Probable space group: P 42/M M C
;
_chemical_formula_sum "Si O2"
_cell_formula_units_Z 104
_cell_length_a 17.399236
_cell_length_b 17.399236
_cell_length_c 19.434402
_cell_angle_alpha 90.000000
_cell_angle_beta 90.000000
_cell_angle_gamma 90.000000
_cell_volume 5883.442855
_symmetry_space_group_name_H-M "P 42/M M C"
_symmetry_group_IT_number 131
_symmetry_cell_setting 'tetragonal'
loop_
_space_group_symop_operation_xyz
x,y,z
-x,-y,z
-y,x,1/2+z
y,-x,1/2+z
-x,y,-z
x,-y,-z
y,x,1/2-z
-y,-x,1/2-z
-x,-y,-z
x,y,-z
y,-x,1/2-z
-y,x,1/2-z
x,-y,z
-x,y,z
-y,-x,1/2+z
y,x,1/2+z
loop_
_atom_site_type_symbol
_atom_site_label
_atom_site_fract_x
_atom_site_fract_y
_atom_site_fract_z
Si Si1 0.907811 0.590463 0.922365
Si Si2 0.500000 0.406401 0.579356
Si Si3 0.210600 0.681925 0.660354
Si Si4 0.135201 0.914141 0.675616
Si Si5 0.229248 0.911211 0.919533
Si Si6 0.702050 0.158842 0.310112
Si Si7 0.643155 0.408300 0.325168
O O1 0.891011 0.500000 0.915704
O O2 0.866423 0.639454 0.864756
O O3 0.000000 0.599596 0.916154
O O4 0.886206 0.614886 0.000000
O O5 0.500000 0.500000 0.577621
O O6 0.500000 0.379637 0.500000
O O7 0.424190 0.383247 0.622258
O O8 0.146800 0.704151 0.604772
O O9 0.261749 0.759061 0.669784
O O10 0.167954 0.670105 0.733244
O O11 0.272981 0.616049 0.648059
O O12 0.096364 0.903637 0.750000
O O13 0.106698 0.846986 0.625158
O O14 0.225856 0.899177 0.688235
O O15 0.121605 0.000000 0.649183
O O16 0.250713 0.000000 0.907981
O O17 0.212766 0.900103 0.000000
O O18 0.628853 0.371148 0.250000
O O19 0.637355 0.500000 0.316895
#
# Coordination Sequence:
#
# PCOD9566152 Si02
#       7
#    16   8  16  16  16  16  16
#     4   9  19  35  54  80 115 152 186 224 277 339
#     4   9  20  36  56  86 122 154 189 226 271 337
#     4  10  21  37  55  82 112 148 191 243 279 335
#     4  11  21  34  55  84 113 147 189 235 291 352
#     4  10  22  40  60  81 110 150 193 242 301 356
#     4  10  18  34  53  75 109 149 188 230 271 329
#     4  11  20  35  62  89 119 155 192 230 283 342
#
# _framework density 17.676724
#
# number of rings (size 3 to 8) (size 9 to 14) (size 15 to 20)
#    0.000    1.923    5.385    1.385    0.000    5.692 
#    1.385    0.769    0.000    0.462    0.000    1.077 
#    0.000    0.000    0.000    0.000    0.000    0.000 
#
# Total GULP energy -580201.990381 kJ/mol
# GULP energy per Si atom -5578.865292 kJ/mol
# Density = 1.763649 g / cm^3
# Si number density = 17.676724 Si / 1000 Ang^3
#
#
#
# Elastic Constant Matrix: (Units=GPa)
#
#
# Indices 1 2 3 4 5 6 
#
# 1 54.0219 41.2095 45.8343 0.0000 0.0000 0.0000
# 2 41.2095 54.0214 45.8348 0.0000 0.0000 0.0000
# 3 45.8343 45.8348 114.5115 0.0000 0.0000 0.0000
# 4 0.0000 0.0000 0.0000 20.1583 0.0000 0.0000
# 5 0.0000 0.0000 0.0000 0.0000 20.1585 0.0000
# 6 0.0000 0.0000 0.0000 0.0000 0.0000 9.3966
#
#
#
# Elastic Compliance Matrix: (Units=1/GPa)
#
#
# Indices 1 2 3 4 5 6 
#
# 1 0.047566 -0.030484 -0.006837 0.000000 0.000000 0.000000
# 2 -0.030484 0.047567 -0.006838 0.000000 0.000000 0.000000
# 3 -0.006837 -0.006838 0.014206 0.000000 0.000000 0.000000
# 4 0.000000 0.000000 0.000000 0.049607 0.000000 0.000000
# 5 0.000000 0.000000 0.000000 0.000000 0.049607 0.000000
# 6 0.000000 0.000000 0.000000 0.000000 0.000000 0.106422
#
#
# Mechanical properties :
#
#
# Convention : Reuss Voigt Hill
#
# Bulk Modulus (GPa) = 47.57053 54.25687 50.91370
# Shear Modulus (GPa) = 12.18619 15.92108 14.05363
#
# Velocity S-wave (km/s) = 2.62848 3.00439 2.82270
# Velocity P-wave (km/s) = 6.01512 6.54185 6.28400
#
# Compressibility (1/GPa) = 0.02102142
#
# Stress axis : x y z
#
# Youngs Moduli (GPa) = 21.02346 21.02292 70.39132
#
# Poissons Ratio (x) = 0.64086 0.48127
# Poissons Ratio (y) = 0.64088 0.48133
# Poissons Ratio (z) = 0.14374 0.14375
#
# Static dielectric constant tensor:
#      x y z
#    x 1.608930 0.000000 0.000000 
#    y 0.000000 1.608930 0.000000 
#    z 0.000000 0.000000 1.594150 
# 
# From -- ./inp_files/8080.got.cif
#   From: 2010.05.17/outbox.cif.g08.bks.cpg/sg131_5_cif.got.tgz:8080.got - 2010.05.20 12:21:01.
