data_PCOD9566030
_publ_section_title
;
Structure prediction by ZEFSAII (Michael W. Deem and Ramdas Pophale) SiO2 
 PCOD9566030
Probable space group: P 42/M M C
;
_chemical_formula_sum "Si O2"
_cell_formula_units_Z 72
_cell_length_a 24.811939
_cell_length_b 24.811939
_cell_length_c 10.554253
_cell_angle_alpha 90.000000
_cell_angle_beta 90.000000
_cell_angle_gamma 90.000000
_cell_volume 6497.539228
_symmetry_space_group_name_H-M "P 42/M M C"
_symmetry_group_IT_number 131
_symmetry_cell_setting 'tetragonal'
loop_
_space_group_symop_operation_xyz
x,y,z
-x,-y,z
-y,x,1/2+z
y,-x,1/2+z
-x,y,-z
x,-y,-z
y,x,1/2-z
-y,-x,1/2-z
-x,-y,-z
x,y,-z
y,-x,1/2-z
-y,x,1/2-z
x,-y,z
-x,y,z
-y,-x,1/2+z
y,x,1/2+z
loop_
_atom_site_type_symbol
_atom_site_label
_atom_site_fract_x
_atom_site_fract_y
_atom_site_fract_z
Si Si1 0.933864 0.322246 0.500000
Si Si2 0.110297 0.202438 0.500000
Si Si3 0.065913 0.500000 0.851231
Si Si4 0.936469 0.147963 0.752729
Si Si5 0.198610 0.881049 0.500000
Si Si6 0.935603 0.311248 0.000000
Si Si7 0.935513 0.385161 0.754139
O O1 0.902398 0.265684 0.500000
O O2 0.918706 0.356106 0.625041
O O3 0.000000 0.313065 0.500000
O O4 0.082557 0.177918 0.374609
O O5 0.171610 0.178680 0.500000
O O6 0.085028 0.554741 0.783681
O O7 0.000000 0.500000 0.849089
O O8 0.080670 0.500000 0.000000
O O9 0.911864 0.088137 0.750000
O O10 0.000000 0.149061 0.762373
O O11 0.910053 0.176182 0.874366
O O12 0.261710 0.894275 0.500000
O O13 0.926446 0.347282 0.124436
O O14 0.000000 0.294577 0.000000
O O15 0.000000 0.390639 0.742801
#
# Coordination Sequence:
#
# PCOD9566030 Si02
#       7
#     8   8   8  16   8   8  16
#     4  10  18  27  38  54  71  88 116 140 162 202
#     4  10  20  32  42  52  71  94 109 137 182 213
#     4   9  14  25  39  53  77  95 107 127 155 189
#     4  10  19  30  42  54  66  83 105 133 176 220
#     4  10  20  30  42  56  69  86 113 145 174 207
#     4  10  16  25  40  56  69  86 116 144 168 202
#     4   9  17  25  38  56  72  93 111 131 160 193
#
# _framework density 11.081118
#
# number of rings (size 3 to 8) (size 9 to 14) (size 15 to 20)
#    0.000    2.333    1.111    3.333    0.000    2.444 
#    0.000    2.222    0.000    4.000    0.000    0.000 
#    0.000    0.000    0.000    0.000    0.000    0.000 
#
# Total GULP energy -400901.243483 kJ/mol
# GULP energy per Si atom -5568.072826 kJ/mol
# Density = 1.105590 g / cm^3
# Si number density = 11.081118 Si / 1000 Ang^3
#
#
#
# Elastic Constant Matrix: (Units=GPa)
#
#
# Indices 1 2 3 4 5 6 
#
# 1 55.7914 43.0351 31.3115 0.0000 0.0000 0.0000
# 2 43.0351 55.8287 31.3352 0.0000 0.0000 0.0000
# 3 31.3115 31.3352 100.4424 0.0000 0.0000 0.0000
# 4 0.0000 0.0000 0.0000 5.4836 0.0000 0.0000
# 5 0.0000 0.0000 0.0000 0.0000 5.4837 0.0000
# 6 0.0000 0.0000 0.0000 0.0000 0.0000 4.8802
#
#
#
# Elastic Compliance Matrix: (Units=1/GPa)
#
#
# Indices 1 2 3 4 5 6 
#
# 1 0.045455 -0.032835 -0.003926 0.000000 0.000000 0.000000
# 2 -0.032835 0.045433 -0.003938 0.000000 0.000000 0.000000
# 3 -0.003926 -0.003938 0.012408 0.000000 0.000000 0.000000
# 4 0.000000 0.000000 0.000000 0.182363 0.000000 0.000000
# 5 0.000000 0.000000 0.000000 0.000000 0.182360 0.000000
# 6 0.000000 0.000000 0.000000 0.000000 0.000000 0.204910
#
#
# Mechanical properties :
#
#
# Convention : Reuss Voigt Hill
#
# Bulk Modulus (GPa) = 45.66668 47.04736 46.35702
# Shear Modulus (GPa) = 6.56489 10.26152 8.41320
#
# Velocity S-wave (km/s) = 2.43665 3.04639 2.75842
# Velocity P-wave (km/s) = 7.01549 7.41103 7.21597
#
# Compressibility (1/GPa) = 0.02189780
#
# Stress axis : x y z
#
# Youngs Moduli (GPa) = 21.99981 22.01056 80.59010
#
# Poissons Ratio (x) = 0.72271 0.31643
# Poissons Ratio (y) = 0.72236 0.31736
# Poissons Ratio (z) = 0.08638 0.08668
#
# Static dielectric constant tensor:
#      x y z
#    x 1.349260 0.000000 0.000000 
#    y 0.000000 1.349260 0.000000 
#    z 0.000000 0.000000 1.371120 
# 
# From -- ./inp_files/2042.got.cif
#   From: 2010.05.17/outbox.cif.g08.bks.cpg/sg131_2_cif.got.tgz:2042.got - 2010.05.20 12:21:01.
