data_PCOD9566802
_publ_section_title
;
Structure prediction by ZEFSAII (Michael W. Deem and Ramdas Pophale) SiO2 
 PCOD9566802
Probable space group: P 42/M M C
;
_chemical_formula_sum "Si O2"
_cell_formula_units_Z 72
_cell_length_a 11.834676
_cell_length_b 11.834676
_cell_length_c 28.506234
_cell_angle_alpha 90.000000
_cell_angle_beta 90.000000
_cell_angle_gamma 90.000000
_cell_volume 3992.570478
_symmetry_space_group_name_H-M "P 42/M M C"
_symmetry_group_IT_number 131
_symmetry_cell_setting 'tetragonal'
loop_
_space_group_symop_operation_xyz
x,y,z
-x,-y,z
-y,x,1/2+z
y,-x,1/2+z
-x,y,-z
x,-y,-z
y,x,1/2-z
-y,-x,1/2-z
-x,-y,-z
x,y,-z
y,-x,1/2-z
-y,x,1/2-z
x,-y,z
-x,y,z
-y,-x,1/2+z
y,x,1/2+z
loop_
_atom_site_type_symbol
_atom_site_label
_atom_site_fract_x
_atom_site_fract_y
_atom_site_fract_z
Si Si1 0.801313 0.283036 0.878168
Si Si2 0.868472 0.500000 0.710186
Si Si3 0.000000 0.362769 0.944741
Si Si4 0.500000 0.133058 0.322188
Si Si5 0.364842 0.630600 0.053310
Si Si6 0.245617 0.135823 0.796693
O O1 0.894253 0.309067 0.917690
O O2 0.809980 0.389296 0.843066
O O3 0.686337 0.289062 0.907547
O O4 0.816099 0.176370 0.844186
O O5 0.862900 0.500000 0.766504
O O6 0.823471 0.623738 0.696619
O O7 0.000000 0.500000 0.695343
O O8 0.000000 0.500000 0.940218
O O9 0.000000 0.338265 0.000000
O O10 0.500000 0.000000 0.335166
O O11 0.327551 0.500000 0.061896
O O12 0.500000 0.631701 0.054549
O O13 0.329304 0.659027 0.000000
O O14 0.191545 0.191545 0.750000
O O15 0.244452 0.000000 0.790982
#
# Coordination Sequence:
#
# PCOD9566802 Si02
#       6
#    16   8   8   8  16  16
#     4  12  20  34  57  83 119 149 190 241 294 345
#     4   9  20  40  58  76 112 150 197 238 279 337
#     4  11  22  36  61  95 121 151 202 253 297 348
#     4  11  18  32  55  84 110 153 190 235 295 341
#     4   9  18  32  51  79 114 149 185 231 292 352
#     4  11  25  40  60  86 115 153 197 239 284 345
#
# _framework density 18.033496
#
# number of rings (size 3 to 8) (size 9 to 14) (size 15 to 20)
#    0.000    1.444    5.556    1.333    3.111    2.000 
#    0.000    0.000    0.000    5.000    0.000    1.556 
#    0.000    0.000    0.000    0.000    0.000    0.000 
#
# Total GULP energy -401371.164832 kJ/mol
# GULP energy per Si atom -5574.599512 kJ/mol
# Density = 1.799245 g / cm^3
# Si number density = 18.033496 Si / 1000 Ang^3
#
#
#
# Elastic Constant Matrix: (Units=GPa)
#
#
# Indices 1 2 3 4 5 6 
#
# 1 60.9925 19.8378 30.9335 0.0000 0.0000 0.0000
# 2 19.8378 60.9925 30.9335 0.0000 0.0000 0.0000
# 3 30.9335 30.9335 110.9881 0.0000 0.0000 0.0000
# 4 0.0000 0.0000 0.0000 16.4596 0.0000 0.0000
# 5 0.0000 0.0000 0.0000 0.0000 16.4596 0.0000
# 6 0.0000 0.0000 0.0000 0.0000 0.0000 14.5739
#
#
#
# Elastic Compliance Matrix: (Units=1/GPa)
#
#
# Indices 1 2 3 4 5 6 
#
# 1 0.020012 -0.004286 -0.004383 0.000000 0.000000 0.000000
# 2 -0.004286 0.020012 -0.004383 0.000000 0.000000 0.000000
# 3 -0.004383 -0.004383 0.011453 0.000000 0.000000 0.000000
# 4 0.000000 0.000000 0.000000 0.060755 0.000000 0.000000
# 5 0.000000 0.000000 0.000000 0.000000 0.060755 0.000000
# 6 0.000000 0.000000 0.000000 0.000000 0.000000 0.068616
#
#
# Mechanical properties :
#
#
# Convention : Reuss Voigt Hill
#
# Bulk Modulus (GPa) = 39.41109 44.04255 41.72682
# Shear Modulus (GPa) = 18.10505 19.58317 18.84411
#
# Velocity S-wave (km/s) = 3.17198 3.29892 3.23608
# Velocity P-wave (km/s) = 5.94282 6.24389 6.09522
#
# Compressibility (1/GPa) = 0.02537357
#
# Stress axis : x y z
#
# Youngs Moduli (GPa) = 49.96878 49.96878 87.31177
#
# Poissons Ratio (x) = 0.21417 0.38270
# Poissons Ratio (y) = 0.21417 0.38270
# Poissons Ratio (z) = 0.21902 0.21902
#
# Static dielectric constant tensor:
#      x y z
#    x 1.671490 0.000000 0.000000 
#    y 0.000000 1.671490 0.000000 
#    z 0.000000 0.000000 1.603080 
# 
# From -- ./inp_files/12151.got.cif
#   From: 2010.05.17/outbox.cif.g08.bks.cpg/sg131_7_cif.got.tgz:12151.got - 2010.05.20 12:21:01.
