data_PCOD9566927
_publ_section_title
;
Structure prediction by ZEFSAII (Michael W. Deem and Ramdas Pophale) SiO2 
 PCOD9566927
Probable space group: P 42/M M C
;
_chemical_formula_sum "Si O2"
_cell_formula_units_Z 112
_cell_length_a 15.000000
_cell_length_b 15.000000
_cell_length_c 24.000000
_cell_angle_alpha 90.000000
_cell_angle_beta 90.000000
_cell_angle_gamma 90.000000
_cell_volume 5400.000000
_symmetry_space_group_name_H-M "P 42/M M C"
_symmetry_group_IT_number 131
_symmetry_cell_setting 'tetragonal'
loop_
_space_group_symop_operation_xyz
x,y,z
-x,-y,z
-y,x,1/2+z
y,-x,1/2+z
-x,y,-z
x,-y,-z
y,x,1/2-z
-y,-x,1/2-z
-x,-y,-z
x,y,-z
y,-x,1/2-z
-y,x,1/2-z
x,-y,z
-x,y,z
-y,-x,1/2+z
y,x,1/2+z
loop_
_atom_site_type_symbol
_atom_site_label
_atom_site_fract_x
_atom_site_fract_y
_atom_site_fract_z
Si Si1 0.741718 0.104564 0.143840
Si Si2 0.399367 0.870149 0.436482
Si Si3 0.392518 0.850694 0.760952
Si Si4 0.599089 0.662497 0.583728
Si Si5 0.649399 0.596016 0.693742
Si Si6 0.104647 0.740606 0.159691
Si Si7 0.201879 0.399621 0.435817
O O1 0.670212 0.099462 0.194392
O O2 0.825209 0.174404 0.156534
O O3 0.680438 0.152556 0.096447
O O4 0.768068 0.000000 0.131627
O O5 0.389061 0.900954 0.500000
O O6 0.500000 0.895930 0.416672
O O7 0.399129 0.762715 0.437627
O O8 0.317056 0.896037 0.397381
O O9 0.500000 0.873343 0.756033
O O10 0.389646 0.749934 0.785526
O O11 0.333889 0.862386 0.704850
O O12 0.500000 0.624565 0.571117
O O13 0.611410 0.666167 0.650631
O O14 0.690690 0.615074 0.565538
O O15 0.595755 0.595755 0.750000
O O16 0.641799 0.500000 0.665431
O O17 0.000000 0.766279 0.171575
O O18 0.173810 0.397968 0.500000
O O19 0.182563 0.500000 0.412990
#
# Coordination Sequence:
#
# PCOD9566927 Si02
#       7
#    16  16  16  16  16  16  16
#     4  12  26  46  72  97 130 175 224 284 349 405
#     4  10  21  39  65  95 130 174 220 267 327 400
#     4  11  23  42  69 101 135 172 215 265 324 394
#     4  11  21  36  60  93 135 182 228 271 324 399
#     4  11  21  33  52  83 129 179 224 267 311 370
#     4  12  26  44  69 100 135 174 221 279 341 403
#     4  11  24  43  67  97 135 178 228 282 336 402
#
# _framework density 20.740741
#
# number of rings (size 3 to 8) (size 9 to 14) (size 15 to 20)
#    0.000    0.857    2.857    4.714    0.000    8.714 
#    0.000    2.143    0.000    1.714    0.000    2.000 
#    0.000    0.000    0.000    0.000    0.000    0.000 
#
# Total GULP energy -624935.044461 kJ/mol
# GULP energy per Si atom -5579.777183 kJ/mol
# Density = 2.069353 g / cm^3
# Si number density = 20.740741 Si / 1000 Ang^3
#
#
#
# Elastic Constant Matrix: (Units=GPa)
#
#
# Indices 1 2 3 4 5 6 
#
# 1 154.8300 55.7343 33.4057 0.0000 0.0000 0.0000
# 2 55.7343 154.8300 33.4057 0.0000 0.0000 0.0000
# 3 33.4057 33.4057 105.6835 0.0000 0.0000 0.0000
# 4 0.0000 0.0000 0.0000 -6.5942 0.0000 0.0000
# 5 0.0000 0.0000 0.0000 0.0000 -6.5942 0.0000
# 6 0.0000 0.0000 0.0000 0.0000 0.0000 10.9183
#
#
#
# Elastic Compliance Matrix: (Units=1/GPa)
#
#
# Indices 1 2 3 4 5 6 
#
# 1 0.007685 -0.002406 -0.001669 0.000000 0.000000 0.000000
# 2 -0.002406 0.007685 -0.001669 0.000000 0.000000 0.000000
# 3 -0.001669 -0.001669 0.010517 0.000000 0.000000 0.000000
# 4 0.000000 0.000000 0.000000 -0.151648 0.000000 0.000000
# 5 0.000000 0.000000 0.000000 0.000000 -0.151648 0.000000
# 6 0.000000 0.000000 0.000000 0.000000 0.000000 0.091589
#
#
# Mechanical properties :
#
#
# Convention : Reuss Voigt Hill
#
# Bulk Modulus (GPa) = 69.44397 73.38164 71.41280
# Shear Modulus (GPa) = -29.49270 19.06583 -5.21344
#
# Velocity S-wave (km/s) = -3.77499 3.03519 -1.58716
# Velocity P-wave (km/s) = 3.81495 6.90945 5.58096
#
# Compressibility (1/GPa) = 0.01440010
#
# Stress axis : x y z
#
# Youngs Moduli (GPa) = 130.12520 130.12520 95.08392
#
# Poissons Ratio (x) = 0.31313 0.15865
# Poissons Ratio (y) = 0.31313 0.15865
# Poissons Ratio (z) = 0.21712 0.21712
#
# Static dielectric constant tensor:
#      x y z
#    x 1.774220 0.000000 0.000000 
#    y 0.000000 1.774220 0.000000 
#    z 0.000000 0.000000 1.807860 
# 
# From -- ./inp_files/11257.got.cif
#   From: 2010.05.17/outbox.ucp.g08.bks.cvg/sg131_6_cif.got.tgz:11257.got - 2010.06.11 11:38:44.
