data_PCOD9566443
_publ_section_title
;
Structure prediction by ZEFSAII (Michael W. Deem and Ramdas Pophale) SiO2 
 PCOD9566443
Probable space group: P 42/M M C
;
_chemical_formula_sum "Si O2"
_cell_formula_units_Z 80
_cell_length_a 16.584146
_cell_length_b 16.584146
_cell_length_c 15.758141
_cell_angle_alpha 90.000000
_cell_angle_beta 90.000000
_cell_angle_gamma 90.000000
_cell_volume 4334.022953
_symmetry_space_group_name_H-M "P 42/M M C"
_symmetry_group_IT_number 131
_symmetry_cell_setting 'tetragonal'
loop_
_space_group_symop_operation_xyz
x,y,z
-x,-y,z
-y,x,1/2+z
y,-x,1/2+z
-x,y,-z
x,-y,-z
y,x,1/2-z
-y,-x,1/2-z
-x,-y,-z
x,y,-z
y,-x,1/2-z
-y,x,1/2-z
x,-y,z
-x,y,z
-y,-x,1/2+z
y,x,1/2+z
loop_
_atom_site_type_symbol
_atom_site_label
_atom_site_fract_x
_atom_site_fract_y
_atom_site_fract_z
Si Si1 0.902919 0.737671 0.593843
Si Si2 0.642618 0.411464 0.660284
Si Si3 0.237381 0.596191 0.093077
Si Si4 0.088681 0.904478 0.851860
Si Si5 0.202858 0.663653 0.733978
O O1 0.878697 0.708672 0.500000
O O2 0.873218 0.830263 0.605157
O O3 0.867979 0.685823 0.670667
O O4 0.000000 0.738476 0.598191
O O5 0.595793 0.404208 0.750000
O O6 0.629570 0.500000 0.622680
O O7 0.618391 0.331941 0.608176
O O8 0.735664 0.397975 0.687750
O O9 0.231710 0.500000 0.095153
O O10 0.187160 0.630934 0.171956
O O11 0.213007 0.625929 0.000000
O O12 0.100133 0.899868 0.750000
O O13 0.000000 0.870087 0.872989
O O14 0.085061 0.000000 0.872418
O O15 0.256328 0.743672 0.750000
#
# Coordination Sequence:
#
# PCOD9566443 Si02
#       5
#    16  16  16  16  16
#     4  10  20  32  48  71  97 128 168 212 255 297
#     4   9  17  29  47  72 102 136 168 194 228 281
#     4   9  18  32  51  76 102 128 161 199 241 292
#     4   8  14  26  44  66  94 127 160 195 239 291
#     4   9  18  32  50  70  97 135 168 199 239 291
#
# _framework density 18.458601000000002
#
# number of rings (size 3 to 8) (size 9 to 14) (size 15 to 20)
#    0.000    3.400    0.000    3.600    0.000    5.400 
#    0.000    3.000    0.000    4.800    0.000    7.000 
#    0.000    0.000    0.000    0.000    0.000    0.400 
#
# Total GULP energy -445389.061440 kJ/mol
# GULP energy per Si atom -5567.363268 kJ/mol
# Density = 1.841659 g / cm^3
# Si number density = 18.458601 Si / 1000 Ang^3
#
#
#
# Elastic Constant Matrix: (Units=GPa)
#
#
# Indices 1 2 3 4 5 6 
#
# 1 36.1364 23.9398 40.0834 0.0000 0.0000 0.0000
# 2 23.9398 36.1361 40.0830 0.0000 0.0000 0.0000
# 3 40.0834 40.0830 135.2392 0.0000 0.0000 0.0000
# 4 0.0000 0.0000 0.0000 8.4478 0.0000 0.0000
# 5 0.0000 0.0000 0.0000 0.0000 8.4470 0.0000
# 6 0.0000 0.0000 0.0000 0.0000 0.0000 3.7240
#
#
#
# Elastic Compliance Matrix: (Units=1/GPa)
#
#
# Indices 1 2 3 4 5 6 
#
# 1 0.054764 -0.027227 -0.008162 0.000000 0.000000 0.000000
# 2 -0.027227 0.054764 -0.008161 0.000000 0.000000 0.000000
# 3 -0.008162 -0.008161 0.012232 0.000000 0.000000 0.000000
# 4 0.000000 0.000000 0.000000 0.118374 0.000000 0.000000
# 5 0.000000 0.000000 0.000000 0.000000 0.118386 0.000000
# 6 0.000000 0.000000 0.000000 0.000000 0.000000 0.268529
#
#
# Mechanical properties :
#
#
# Convention : Reuss Voigt Hill
#
# Bulk Modulus (GPa) = 28.85247 46.19158 37.52203
# Shear Modulus (GPa) = 6.88989 11.01746 8.95367
#
# Velocity S-wave (km/s) = 1.93409 2.44575 2.20481
# Velocity P-wave (km/s) = 4.54450 5.74929 5.18203
#
# Compressibility (1/GPa) = 0.03465907
#
# Stress axis : x y z
#
# Youngs Moduli (GPa) = 18.26031 18.26028 81.75156
#
# Poissons Ratio (x) = 0.49718 0.66722
# Poissons Ratio (y) = 0.49718 0.66720
# Poissons Ratio (z) = 0.14903 0.14903
#
# Static dielectric constant tensor:
#      x y z
#    x 1.652600 0.000000 0.000000 
#    y 0.000000 1.652600 0.000000 
#    z 0.000000 0.000000 1.689090 
# 
# From -- ./inp_files/5747.got.cif
#   From: 2010.05.17/outbox.cif.g08.bks.cpg/sg131_3_cif.got.tgz:5747.got - 2010.05.20 12:21:01.
