data_PCOD9566879
_publ_section_title
;
Structure prediction by ZEFSAII (Michael W. Deem and Ramdas Pophale) SiO2 
 PCOD9566879
Probable space group: P 42/M M C
;
_chemical_formula_sum "Si O2"
_cell_formula_units_Z 72
_cell_length_a 12.522403
_cell_length_b 12.522403
_cell_length_c 26.614760
_cell_angle_alpha 90.000000
_cell_angle_beta 90.000000
_cell_angle_gamma 90.000000
_cell_volume 4173.475870
_symmetry_space_group_name_H-M "P 42/M M C"
_symmetry_group_IT_number 131
_symmetry_cell_setting 'tetragonal'
loop_
_space_group_symop_operation_xyz
x,y,z
-x,-y,z
-y,x,1/2+z
y,-x,1/2+z
-x,y,-z
x,-y,-z
y,x,1/2-z
-y,-x,1/2-z
-x,-y,-z
x,y,-z
y,-x,1/2-z
-y,x,1/2-z
x,-y,z
-x,y,z
-y,-x,1/2+z
y,x,1/2+z
loop_
_atom_site_type_symbol
_atom_site_label
_atom_site_fract_x
_atom_site_fract_y
_atom_site_fract_z
Si Si1 0.620329 0.873038 0.818800
Si Si2 0.000000 0.128590 0.060401
Si Si3 0.207302 0.767543 0.885530
Si Si4 0.622610 0.128627 0.294189
Si Si5 0.379553 0.376625 0.939645
O O1 0.500000 0.832358 0.830052
O O2 0.708644 0.847804 0.859968
O O3 0.650854 0.835158 0.762500
O O4 0.612451 0.000000 0.815422
O O5 0.106754 0.179547 0.085744
O O6 0.000000 0.000000 0.068218
O O7 0.000000 0.148037 0.000000
O O8 0.166652 0.697412 0.838694
O O9 0.282177 0.693758 0.920165
O O10 0.500000 0.161671 0.303345
O O11 0.625648 0.000000 0.294290
O O12 0.366422 0.500000 0.923540
O O13 0.500000 0.342127 0.923943
O O14 0.378574 0.374691 0.000000
#
# Coordination Sequence:
#
# PCOD9566879 Si02
#       5
#    16   8  16  16  16
#     4   9  19  34  53  77 107 139 175 219 269 327
#     4  11  26  42  53  73 109 149 192 248 295 320
#     4  12  19  34  57  80 100 142 189 222 269 333
#     4   9  18  33  51  77 110 139 167 209 268 326
#     4   9  19  35  54  79 109 136 168 219 278 333
#
# _framework density 17.251805999999998
#
# number of rings (size 3 to 8) (size 9 to 14) (size 15 to 20)
#    0.000    2.111    1.111    5.333    0.000    0.000 
#    0.000    0.000    0.000    2.667    0.000   18.667 
#    0.000    0.000    0.000    0.000    0.000    0.000 
#
# Total GULP energy -401019.864772 kJ/mol
# GULP energy per Si atom -5569.720344 kJ/mol
# Density = 1.721254 g / cm^3
# Si number density = 17.251806 Si / 1000 Ang^3
#
#
#
# Elastic Constant Matrix: (Units=GPa)
#
#
# Indices 1 2 3 4 5 6 
#
# 1 111.9137 63.0818 62.6800 0.0000 0.0000 0.0000
# 2 63.0818 111.9137 62.6800 0.0000 0.0000 0.0000
# 3 62.6800 62.6800 101.8901 0.0000 0.0000 0.0000
# 4 0.0000 0.0000 0.0000 27.8898 0.0000 0.0000
# 5 0.0000 0.0000 0.0000 0.0000 27.8898 0.0000
# 6 0.0000 0.0000 0.0000 0.0000 0.0000 27.9936
#
#
#
# Elastic Compliance Matrix: (Units=1/GPa)
#
#
# Indices 1 2 3 4 5 6 
#
# 1 0.015348 -0.005131 -0.006285 0.000000 0.000000 0.000000
# 2 -0.005131 0.015348 -0.006285 0.000000 0.000000 0.000000
# 3 -0.006285 -0.006285 0.017547 0.000000 0.000000 0.000000
# 4 0.000000 0.000000 0.000000 0.035855 0.000000 0.000000
# 5 0.000000 0.000000 0.000000 0.000000 0.035855 0.000000
# 6 0.000000 0.000000 0.000000 0.000000 0.000000 0.035722
#
#
# Mechanical properties :
#
#
# Convention : Reuss Voigt Hill
#
# Bulk Modulus (GPa) = 77.87817 78.06679 77.97248
# Shear Modulus (GPa) = 25.59405 25.90639 25.75022
#
# Velocity S-wave (km/s) = 3.85588 3.87933 3.86762
# Velocity P-wave (km/s) = 8.06621 8.08797 8.07710
#
# Compressibility (1/GPa) = 0.01284057
#
# Stress axis : x y z
#
# Youngs Moduli (GPa) = 65.15666 65.15666 56.98869
#
# Poissons Ratio (x) = 0.33431 0.35818
# Poissons Ratio (y) = 0.33431 0.35818
# Poissons Ratio (z) = 0.40952 0.40952
#
# Static dielectric constant tensor:
#      x y z
#    x 1.587130 0.000000 0.000000 
#    y 0.000000 1.587130 0.000000 
#    z 0.000000 0.000000 1.583650 
# 
# From -- ./inp_files/12119.got.cif
#   From: 2010.05.17/outbox.cif.g08.bks.cpg/sg131_7_cif.got.tgz:12119.got - 2010.05.20 12:21:01.
