data_PCOD9566838
_publ_section_title
;
Structure prediction by ZEFSAII (Michael W. Deem and Ramdas Pophale) SiO2 
 PCOD9566838
Probable space group: P 42/M M C
;
_chemical_formula_sum "Si O2"
_cell_formula_units_Z 64
_cell_length_a 12.578638
_cell_length_b 12.578638
_cell_length_c 23.579618
_cell_angle_alpha 90.000000
_cell_angle_beta 90.000000
_cell_angle_gamma 90.000000
_cell_volume 3730.817477
_symmetry_space_group_name_H-M "P 42/M M C"
_symmetry_group_IT_number 131
_symmetry_cell_setting 'tetragonal'
loop_
_space_group_symop_operation_xyz
x,y,z
-x,-y,z
-y,x,1/2+z
y,-x,1/2+z
-x,y,-z
x,-y,-z
y,x,1/2-z
-y,-x,1/2-z
-x,-y,-z
x,y,-z
y,-x,1/2-z
-y,x,1/2-z
x,-y,z
-x,y,z
-y,-x,1/2+z
y,x,1/2+z
loop_
_atom_site_type_symbol
_atom_site_label
_atom_site_fract_x
_atom_site_fract_y
_atom_site_fract_z
Si Si1 0.125896 0.623156 0.836681
Si Si2 0.269080 0.699717 0.605438
Si Si3 0.121417 0.372281 0.292502
Si Si4 0.126604 0.628660 0.500000
Si Si5 0.500000 0.625817 0.435756
O O1 0.161655 0.500000 0.844334
O O2 0.178735 0.701436 0.881414
O O3 0.150970 0.657276 0.772014
O O4 0.000000 0.623020 0.841520
O O5 0.208157 0.659173 0.661336
O O6 0.190114 0.673340 0.554143
O O7 0.386914 0.652363 0.593637
O O8 0.115491 0.500000 0.292464
O O9 0.000000 0.333739 0.305055
O O10 0.135791 0.500000 0.500000
O O11 0.000000 0.653480 0.500000
O O12 0.500000 0.500000 0.440870
O O13 0.500000 0.673032 0.500000
#
# Coordination Sequence:
#
# PCOD9566838 Si02
#       5
#    16  16  16   8   8
#     4   9  19  36  55  78 107 143 187 227 273 333
#     4  12  20  34  56  80 111 147 189 231 278 333
#     4   9  18  33  55  80 109 145 185 230 274 326
#     4  11  24  39  58  83 110 147 193 234 270 328
#     4  11  22  34  49  77 117 159 178 215 280 343
#
# _framework density 17.154418
#
# number of rings (size 3 to 8) (size 9 to 14) (size 15 to 20)
#    0.000    1.750    2.500    5.250    0.000    2.000 
#    0.000    0.625    0.000    6.000    0.000    7.000 
#    0.000    0.000    0.000    0.000    0.000    0.000 
#
# Total GULP energy -356400.087113 kJ/mol
# GULP energy per Si atom -5568.751361 kJ/mol
# Density = 1.711537 g / cm^3
# Si number density = 17.154418 Si / 1000 Ang^3
#
#
#
# Elastic Constant Matrix: (Units=GPa)
#
#
# Indices 1 2 3 4 5 6 
#
# 1 93.9038 43.9207 65.4527 0.0000 0.0000 0.0000
# 2 43.9207 93.9038 65.4527 0.0000 0.0000 0.0000
# 3 65.4527 65.4527 84.0397 0.0000 0.0000 0.0000
# 4 0.0000 0.0000 0.0000 25.4702 0.0000 0.0000
# 5 0.0000 0.0000 0.0000 0.0000 25.4702 0.0000
# 6 0.0000 0.0000 0.0000 0.0000 0.0000 24.2004
#
#
#
# Elastic Compliance Matrix: (Units=1/GPa)
#
#
# Indices 1 2 3 4 5 6 
#
# 1 0.023942 0.003935 -0.021712 0.000000 0.000000 0.000000
# 2 0.003935 0.023942 -0.021712 0.000000 0.000000 0.000000
# 3 -0.021712 -0.021712 0.045719 0.000000 0.000000 0.000000
# 4 0.000000 0.000000 0.000000 0.039262 0.000000 0.000000
# 5 0.000000 0.000000 0.000000 0.000000 0.039262 0.000000
# 6 0.000000 0.000000 0.000000 0.000000 0.000000 0.041322
#
#
# Mechanical properties :
#
#
# Convention : Reuss Voigt Hill
#
# Bulk Modulus (GPa) = 68.36937 69.05550 68.71243
# Shear Modulus (GPa) = 16.81805 21.49623 19.15714
#
# Velocity S-wave (km/s) = 3.13452 3.54376 3.34540
# Velocity P-wave (km/s) = 7.28300 7.55559 7.42054
#
# Compressibility (1/GPa) = 0.01462643
#
# Stress axis : x y z
#
# Youngs Moduli (GPa) = 41.76745 41.76745 21.87288
#
# Poissons Ratio (x) = -0.16437 0.47490
# Poissons Ratio (y) = -0.16437 0.47490
# Poissons Ratio (z) = 0.90685 0.90685
#
# Static dielectric constant tensor:
#      x y z
#    x 1.586820 0.000000 0.000000 
#    y 0.000000 1.586820 0.000000 
#    z 0.000000 0.000000 1.624610 
# 
# From -- ./inp_files/10799.got.cif
#   From: 2010.05.17/outbox.cif.g08.bks.cpg/sg131_6_cif.got.tgz:10799.got - 2010.05.20 12:21:01.
