data_PCOD9566563
_publ_section_title
;
Structure prediction by ZEFSAII (Michael W. Deem and Ramdas Pophale) SiO2 
 PCOD9566563
Probable space group: P 42/M M C
;
_chemical_formula_sum "Si O2"
_cell_formula_units_Z 74
_cell_length_a 22.229927
_cell_length_b 22.229927
_cell_length_c 7.649331
_cell_angle_alpha 90.000000
_cell_angle_beta 90.000000
_cell_angle_gamma 90.000000
_cell_volume 3780.067257
_symmetry_space_group_name_H-M "P 42/M M C"
_symmetry_group_IT_number 131
_symmetry_cell_setting 'tetragonal'
loop_
_space_group_symop_operation_xyz
x,y,z
-x,-y,z
-y,x,1/2+z
y,-x,1/2+z
-x,y,-z
x,-y,-z
y,x,1/2-z
-y,-x,1/2-z
-x,-y,-z
x,y,-z
y,-x,1/2-z
-y,x,1/2-z
x,-y,z
-x,y,z
-y,-x,1/2+z
y,x,1/2+z
loop_
_atom_site_type_symbol
_atom_site_label
_atom_site_fract_x
_atom_site_fract_y
_atom_site_fract_z
Si Si1 0.108785 0.500000 0.216220
Si Si2 0.068177 0.832901 0.710440
Si Si3 0.000000 0.500000 0.500000
Si Si4 0.737766 0.836598 0.792158
Si Si5 0.604105 0.200228 0.704742
Si Si6 0.668093 0.431460 0.210411
O O1 0.051940 0.500000 0.343005
O O2 0.149958 0.442562 0.264180
O O3 0.097212 0.500000 0.000000
O O4 0.108819 0.891182 0.750000
O O5 0.065542 0.828417 0.500000
O O6 0.105226 0.774518 0.775615
O O7 0.000000 0.836716 0.776633
O O8 0.780151 0.780151 0.750000
O O9 0.671585 0.823352 0.725419
O O10 0.733346 0.842710 0.000000
O O11 0.591418 0.206284 0.500000
O O12 0.593049 0.267263 0.778415
O O13 0.614539 0.385462 0.250000
O O14 0.658522 0.500000 0.273362
O O15 0.671129 0.434069 0.000000
#
# Coordination Sequence:
#
# PCOD9566563 Si02
#       6
#     8  16   2  16  16  16
#     4  10  23  45  67  92 130 166 203 264 313 375
#     4   9  19  36  54  77 110 147 184 231 288 347
#     4  12  26  44  68  98 124 168 216 248 314 390
#     4  10  20  34  55  83 116 150 192 246 300 361
#     4  10  20  39  63  86 117 158 200 252 314 366
#     4  10  21  38  58  84 119 161 205 254 316 378
#
# _framework density 19.576371999999999
#
# number of rings (size 3 to 8) (size 9 to 14) (size 15 to 20)
#    0.000    2.162    1.081    1.459    1.514    4.757 
#    1.946    2.162    0.000    0.000    0.000    0.000 
#    0.000    0.000    0.000    0.000    0.000    0.000 
#
# Total GULP energy -412207.660010 kJ/mol
# GULP energy per Si atom -5570.373784 kJ/mol
# Density = 1.953182 g / cm^3
# Si number density = 19.576372 Si / 1000 Ang^3
#
#
#
# Elastic Constant Matrix: (Units=GPa)
#
#
# Indices 1 2 3 4 5 6 
#
# 1 195.5671 117.0764 15.6263 0.0000 0.0000 0.0000
# 2 117.0764 195.5653 15.6272 0.0000 0.0000 0.0000
# 3 15.6263 15.6272 51.6186 0.0000 0.0000 0.0000
# 4 0.0000 0.0000 0.0000 21.4868 0.0000 0.0000
# 5 0.0000 0.0000 0.0000 0.0000 21.4881 0.0000
# 6 0.0000 0.0000 0.0000 0.0000 0.0000 17.7820
#
#
#
# Elastic Compliance Matrix: (Units=1/GPa)
#
#
# Indices 1 2 3 4 5 6 
#
# 1 0.008019 -0.004721 -0.000998 0.000000 0.000000 0.000000
# 2 -0.004721 0.008019 -0.000999 0.000000 0.000000 0.000000
# 3 -0.000998 -0.000999 0.019977 0.000000 0.000000 0.000000
# 4 0.000000 0.000000 0.000000 0.046540 0.000000 0.000000
# 5 0.000000 0.000000 0.000000 0.000000 0.046537 0.000000
# 6 0.000000 0.000000 0.000000 0.000000 0.000000 0.056237
#
#
# Mechanical properties :
#
#
# Convention : Reuss Voigt Hill
#
# Bulk Modulus (GPa) = 44.28692 82.15678 63.22185
# Shear Modulus (GPa) = 24.23731 31.77945 28.00838
#
# Velocity S-wave (km/s) = 3.52247 4.03346 3.78659
# Velocity P-wave (km/s) = 6.26222 7.98437 7.17515
#
# Compressibility (1/GPa) = 0.02258003
#
# Stress axis : x y z
#
# Youngs Moduli (GPa) = 124.69782 124.69634 50.05649
#
# Poissons Ratio (x) = 0.58870 0.04998
# Poissons Ratio (y) = 0.58871 0.04999
# Poissons Ratio (z) = 0.12450 0.12453
#
# Static dielectric constant tensor:
#      x y z
#    x 1.675320 0.000000 0.000000 
#    y 0.000000 1.675320 0.000000 
#    z 0.000000 0.000000 1.731200 
# 
# From -- ./inp_files/1901.got.cif
#   From: 2010.05.17/outbox.cif.g08.bks.cpg/sg131_1_cif.got.tgz:1901.got - 2010.05.20 12:21:01.
