data_PCOD9566205
_publ_section_title
;
Structure prediction by ZEFSAII (Michael W. Deem and Ramdas Pophale) SiO2 
 PCOD9566205
Probable space group: P 42/M M C
;
_chemical_formula_sum "Si O2"
_cell_formula_units_Z 96
_cell_length_a 24.974778
_cell_length_b 24.974778
_cell_length_c 7.686927
_cell_angle_alpha 90.000000
_cell_angle_beta 90.000000
_cell_angle_gamma 90.000000
_cell_volume 4794.640281
_symmetry_space_group_name_H-M "P 42/M M C"
_symmetry_group_IT_number 131
_symmetry_cell_setting 'tetragonal'
loop_
_space_group_symop_operation_xyz
x,y,z
-x,-y,z
-y,x,1/2+z
y,-x,1/2+z
-x,y,-z
x,-y,-z
y,x,1/2-z
-y,-x,1/2-z
-x,-y,-z
x,y,-z
y,-x,1/2-z
-y,x,1/2-z
x,-y,z
-x,y,z
-y,-x,1/2+z
y,x,1/2+z
loop_
_atom_site_type_symbol
_atom_site_label
_atom_site_fract_x
_atom_site_fract_y
_atom_site_fract_z
Si Si1 0.939736 0.855114 0.209079
Si Si2 0.231518 0.853922 0.707506
Si Si3 0.269340 0.645869 0.709546
Si Si4 0.149508 0.645715 0.294553
Si Si5 0.938642 0.438557 0.712508
Si Si6 0.439965 0.644343 0.790937
O O1 0.910985 0.910985 0.250000
O O2 0.900185 0.808480 0.274903
O O3 0.000000 0.851446 0.276134
O O4 0.941491 0.850032 0.000000
O O5 0.202347 0.797654 0.750000
O O6 0.234338 0.857440 0.500000
O O7 0.291237 0.861824 0.775659
O O8 0.297712 0.702289 0.750000
O O9 0.267192 0.642408 0.500000
O O10 0.209482 0.638888 0.778694
O O11 0.309289 0.599700 0.775274
O O12 0.152498 0.633839 0.500000
O O13 0.104047 0.605559 0.225028
O O14 0.938920 0.437496 0.500000
O O15 0.925280 0.500000 0.762632
O O16 0.000000 0.427340 0.767356
O O17 0.411664 0.588337 0.750000
O O18 0.500000 0.648348 0.723303
O O19 0.441783 0.649522 0.000000
#
# Coordination Sequence:
#
# PCOD9566205 Si02
#       6
#    16  16  16  16  16  16
#     4   9  19  35  52  71  97 129 164 201 242 288
#     4  10  20  34  51  71  99 132 163 199 243 290
#     4   9  18  31  46  66  93 122 151 187 231 275
#     4  10  19  30  49  76  99 124 162 202 240 287
#     4   8  15  29  48  71 100 130 160 199 244 286
#     4   9  18  32  48  66  90 120 153 189 229 273
#
# _framework density 20.022355999999998
#
# number of rings (size 3 to 8) (size 9 to 14) (size 15 to 20)
#    0.000    2.833    0.000    1.500    0.000    5.000 
#    0.000    5.000    0.000    0.500    0.000    3.500 
#    0.000    0.000    0.000    0.000    0.000    0.000 
#
# Total GULP energy -535445.350802 kJ/mol
# GULP energy per Si atom -5577.555738 kJ/mol
# Density = 1.997678 g / cm^3
# Si number density = 20.022356 Si / 1000 Ang^3
#
#
#
# Elastic Constant Matrix: (Units=GPa)
#
#
# Indices 1 2 3 4 5 6 
#
# 1 190.2248 84.0925 -0.2759 0.0000 0.0000 0.0000
# 2 84.0925 190.2427 -0.2706 0.0000 0.0000 0.0000
# 3 -0.2759 -0.2706 33.9839 0.0000 0.0000 0.0000
# 4 0.0000 0.0000 0.0000 8.8216 0.0000 0.0000
# 5 0.0000 0.0000 0.0000 0.0000 8.8206 0.0000
# 6 0.0000 0.0000 0.0000 0.0000 0.0000 28.8079
#
#
#
# Elastic Compliance Matrix: (Units=1/GPa)
#
#
# Indices 1 2 3 4 5 6 
#
# 1 0.006534 -0.002888 0.000030 0.000000 0.000000 0.000000
# 2 -0.002888 0.006533 0.000029 0.000000 0.000000 0.000000
# 3 0.000030 0.000029 0.029426 0.000000 0.000000 0.000000
# 4 0.000000 0.000000 0.000000 0.113359 0.000000 0.000000
# 5 0.000000 0.000000 0.000000 0.000000 0.113371 0.000000
# 6 0.000000 0.000000 0.000000 0.000000 0.000000 0.034713
#
#
# Mechanical properties :
#
#
# Convention : Reuss Voigt Hill
#
# Bulk Modulus (GPa) = 27.14876 64.61592 45.88234
# Shear Modulus (GPa) = 15.53413 31.35037 23.44225
#
# Velocity S-wave (km/s) = 2.78841 3.96127 3.42541
# Velocity P-wave (km/s) = 4.89445 7.29823 6.21369
#
# Compressibility (1/GPa) = 0.03683410
#
# Stress axis : x y z
#
# Youngs Moduli (GPa) = 153.05289 153.06735 33.98339
#
# Poissons Ratio (x) = 0.44206 -0.00102
# Poissons Ratio (y) = 0.44202 -0.00097
# Poissons Ratio (z) = -0.00460 -0.00437
#
# Static dielectric constant tensor:
#      x y z
#    x 1.703490 0.000000 0.000000 
#    y 0.000000 1.703490 0.000000 
#    z 0.000000 0.000000 1.749730 
# 
# From -- ./inp_files/2193.got.cif
#   From: 2010.05.17/outbox.cif.g08.bks.cpg/sg131_2_cif.got.tgz:2193.got - 2010.05.20 12:21:01.
