data_PCOD9566267
_publ_section_title
;
Structure prediction by ZEFSAII (Michael W. Deem and Ramdas Pophale) SiO2 
 PCOD9566267
Probable space group: P 42/M M C
;
_chemical_formula_sum "Si O2"
_cell_formula_units_Z 80
_cell_length_a 23.696628
_cell_length_b 23.696628
_cell_length_c 8.057731
_cell_angle_alpha 90.000000
_cell_angle_beta 90.000000
_cell_angle_gamma 90.000000
_cell_volume 4524.659127
_symmetry_space_group_name_H-M "P 42/M M C"
_symmetry_group_IT_number 131
_symmetry_cell_setting 'tetragonal'
loop_
_space_group_symop_operation_xyz
x,y,z
-x,-y,z
-y,x,1/2+z
y,-x,1/2+z
-x,y,-z
x,-y,-z
y,x,1/2-z
-y,-x,1/2-z
-x,-y,-z
x,y,-z
y,-x,1/2-z
-y,x,1/2-z
x,-y,z
-x,y,z
-y,-x,1/2+z
y,x,1/2+z
loop_
_atom_site_type_symbol
_atom_site_label
_atom_site_fract_x
_atom_site_fract_y
_atom_site_fract_z
Si Si1 0.500000 0.589710 0.304044
Si Si2 0.284878 0.500000 0.305004
Si Si3 0.914428 0.562182 0.197007
Si Si4 0.688115 0.938848 0.296970
Si Si5 0.275560 0.184162 0.302496
Si Si6 0.400649 0.208386 0.800110
O O1 0.500000 0.596345 0.500000
O O2 0.553797 0.553797 0.250000
O O3 0.500000 0.649501 0.220017
O O4 0.271546 0.500000 0.500000
O O5 0.257831 0.558002 0.240311
O O6 0.930991 0.500000 0.263854
O O7 0.937767 0.622294 0.259421
O O8 0.848054 0.571251 0.226875
O O9 0.926414 0.560839 0.000000
O O10 0.687206 0.936793 0.500000
O O11 0.718899 0.881196 0.240253
O O12 0.712449 0.000000 0.248884
O O13 0.222689 0.222689 0.250000
O O14 0.273715 0.181034 0.500000
O O15 0.335562 0.212009 0.253428
O O16 0.400709 0.204270 0.000000
#
# Coordination Sequence:
#
# PCOD9566267 Si02
#       6
#     8   8  16  16  16  16
#     4  11  23  40  59  72  88 111 137 179 234 296
#     4  10  21  35  52  74  96 121 156 196 242 289
#     4   9  16  26  43  67  96 129 164 199 237 281
#     4   8  15  28  46  70  98 127 163 205 244 285
#     4  10  20  34  52  74  99 131 166 204 248 295
#     4  10  19  32  49  70  97 129 162 201 242 283
#
# _framework density 17.680890000000002
#
# number of rings (size 3 to 8) (size 9 to 14) (size 15 to 20)
#    0.000    2.500    1.000    3.600    0.000    2.800 
#    0.000    2.000    0.000   15.000    0.000    5.600 
#    0.000    0.400    0.000    5.000    0.000    0.000 
#
# Total GULP energy -445609.079064 kJ/mol
# GULP energy per Si atom -5570.113488 kJ/mol
# Density = 1.764065 g / cm^3
# Si number density = 17.680890 Si / 1000 Ang^3
#
#
#
# Elastic Constant Matrix: (Units=GPa)
#
#
# Indices 1 2 3 4 5 6 
#
# 1 134.6524 69.3478 3.7064 0.0000 0.0000 0.0000
# 2 69.3478 134.6524 3.7064 0.0000 0.0000 0.0000
# 3 3.7064 3.7064 18.8068 0.0000 0.0000 0.0000
# 4 0.0000 0.0000 0.0000 24.2183 0.0000 0.0000
# 5 0.0000 0.0000 0.0000 0.0000 24.2183 0.0000
# 6 0.0000 0.0000 0.0000 0.0000 0.0000 12.5995
#
#
#
# Elastic Compliance Matrix: (Units=1/GPa)
#
#
# Indices 1 2 3 4 5 6 
#
# 1 0.010125 -0.005188 -0.000973 0.000000 0.000000 0.000000
# 2 -0.005188 0.010125 -0.000973 0.000000 0.000000 0.000000
# 3 -0.000973 -0.000973 0.053556 0.000000 0.000000 0.000000
# 4 0.000000 0.000000 0.000000 0.041291 0.000000 0.000000
# 5 0.000000 0.000000 0.000000 0.000000 0.041291 0.000000
# 6 0.000000 0.000000 0.000000 0.000000 0.000000 0.079368
#
#
# Mechanical properties :
#
#
# Convention : Reuss Voigt Hill
#
# Bulk Modulus (GPa) = 16.79594 49.07030 32.93312
# Shear Modulus (GPa) = 18.52745 26.29729 22.41237
#
# Velocity S-wave (km/s) = 3.24061 3.86077 3.56421
# Velocity P-wave (km/s) = 4.84997 6.90562 5.96699
#
# Compressibility (1/GPa) = 0.05953821
#
# Stress axis : x y z
#
# Youngs Moduli (GPa) = 98.76459 98.76459 18.67215
#
# Poissons Ratio (x) = 0.51237 0.01817
# Poissons Ratio (y) = 0.51237 0.01817
# Poissons Ratio (z) = 0.09610 0.09610
#
# Static dielectric constant tensor:
#      x y z
#    x 1.601610 0.000000 0.000000 
#    y 0.000000 1.601610 0.000000 
#    z 0.000000 0.000000 1.633020 
# 
# From -- ./inp_files/2127.got.cif
#   From: 2010.05.17/outbox.cif.g08.bks.cpg/sg131_2_cif.got.tgz:2127.got - 2010.05.20 12:21:01.
