data_PCOD9566556
_publ_section_title
;
Structure prediction by ZEFSAII (Michael W. Deem and Ramdas Pophale) SiO2 
 PCOD9566556
Probable space group: P 42/M M C
;
_chemical_formula_sum "Si O2"
_cell_formula_units_Z 112
_cell_length_a 14.378868
_cell_length_b 14.378868
_cell_length_c 28.132068
_cell_angle_alpha 90.000000
_cell_angle_beta 90.000000
_cell_angle_gamma 90.000000
_cell_volume 5816.356962
_symmetry_space_group_name_H-M "P 42/M M C"
_symmetry_group_IT_number 131
_symmetry_cell_setting 'tetragonal'
loop_
_space_group_symop_operation_xyz
x,y,z
-x,-y,z
-y,x,1/2+z
y,-x,1/2+z
-x,y,-z
x,-y,-z
y,x,1/2-z
-y,-x,1/2-z
-x,-y,-z
x,y,-z
y,-x,1/2-z
-y,x,1/2-z
x,-y,z
-x,y,z
-y,-x,1/2+z
y,x,1/2+z
loop_
_atom_site_type_symbol
_atom_site_label
_atom_site_fract_x
_atom_site_fract_y
_atom_site_fract_z
Si Si1 0.612902 0.899737 0.554425
Si Si2 0.397192 0.890277 0.795565
Si Si3 0.108488 0.711875 0.609013
Si Si4 0.106952 0.890440 0.336779
Si Si5 0.291251 0.810493 0.711281
Si Si6 0.390414 0.265796 0.945075
Si Si7 0.727457 0.388496 0.880727
O O1 0.643577 0.892194 0.500000
O O2 0.500000 0.900485 0.553952
O O3 0.640105 0.812339 0.584694
O O4 0.643555 0.000000 0.574048
O O5 0.500000 0.847666 0.799389
O O6 0.332424 0.860555 0.839815
O O7 0.356104 0.876522 0.743058
O O8 0.404476 0.000000 0.802610
O O9 0.115555 0.822391 0.617854
O O10 0.175324 0.668856 0.569812
O O11 0.000000 0.689490 0.600474
O O12 0.195142 0.861214 0.304398
O O13 0.000000 0.871901 0.317504
O O14 0.111981 0.000000 0.346508
O O15 0.266110 0.733891 0.750000
O O16 0.344122 0.760329 0.668591
O O17 0.500000 0.245526 0.941211
O O18 0.361005 0.344182 0.906945
O O19 0.371294 0.293326 0.000000
O O20 0.720753 0.500000 0.877428
#
# Coordination Sequence:
#
# PCOD9566556 Si02
#       7
#    16  16  16  16  16  16  16
#     4   8  15  30  53  81 113 148 187 234 290 352
#     4  10  20  34  54  82 118 162 208 251 300 355
#     4  10  20  40  64  89 124 164 205 255 315 376
#     4  10  21  37  60  89 124 166 207 249 303 368
#     4  12  22  37  56  84 123 162 206 260 305 362
#     4  11  24  42  65  94 123 153 200 260 322 388
#     4  11  23  40  61  86 118 161 208 256 312 373
#
# _framework density 19.256039999999999
#
# number of rings (size 3 to 8) (size 9 to 14) (size 15 to 20)
#    0.000    1.714    2.857    2.143    0.000    4.000 
#    0.000    4.286    0.000    0.429    0.000    2.000 
#    0.000    0.000    0.000    0.000    0.000    0.000 
#
# Total GULP energy -624314.804507 kJ/mol
# GULP energy per Si atom -5574.239326 kJ/mol
# Density = 1.921221 g / cm^3
# Si number density = 19.256040 Si / 1000 Ang^3
#
#
#
# Elastic Constant Matrix: (Units=GPa)
#
#
# Indices 1 2 3 4 5 6 
#
# 1 86.0021 18.1326 25.5955 0.0000 0.0000 0.0000
# 2 18.1326 86.0037 25.5956 0.0000 0.0000 0.0000
# 3 25.5955 25.5956 73.2543 0.0000 0.0000 0.0000
# 4 0.0000 0.0000 0.0000 91.9836 0.0000 0.0000
# 5 0.0000 0.0000 0.0000 0.0000 91.9104 0.0000
# 6 0.0000 0.0000 0.0000 0.0000 0.0000 22.5172
#
#
#
# Elastic Compliance Matrix: (Units=1/GPa)
#
#
# Indices 1 2 3 4 5 6 
#
# 1 0.013164 -0.001570 -0.004051 0.000000 0.000000 0.000000
# 2 -0.001570 0.013164 -0.004051 0.000000 0.000000 0.000000
# 3 -0.004051 -0.004051 0.016482 0.000000 0.000000 0.000000
# 4 0.000000 0.000000 0.000000 0.010872 0.000000 0.000000
# 5 0.000000 0.000000 0.000000 0.000000 0.010880 0.000000
# 6 0.000000 0.000000 0.000000 0.000000 0.000000 0.044411
#
#
# Mechanical properties :
#
#
# Convention : Reuss Voigt Hill
#
# Bulk Modulus (GPa) = 42.61453 42.65641 42.63547
# Shear Modulus (GPa) = 36.72719 53.01133 44.86926
#
# Velocity S-wave (km/s) = 4.37201 5.25257 4.83239
# Velocity P-wave (km/s) = 6.90395 7.68025 7.30242
#
# Compressibility (1/GPa) = 0.02346617
#
# Stress axis : x y z
#
# Youngs Moduli (GPa) = 75.96303 75.96457 60.67194
#
# Poissons Ratio (x) = 0.11925 0.24579
# Poissons Ratio (y) = 0.11925 0.24579
# Poissons Ratio (z) = 0.30774 0.30774
#
# Static dielectric constant tensor:
#      x y z
#    x 1.740480 0.000000 0.000000 
#    y 0.000000 1.740480 0.000000 
#    z 0.000000 0.000000 1.714000 
# 
# From -- ./inp_files/12435.got.cif
#   From: 2010.05.17/outbox.cif.g08.bks.cpg/sg131_7_cif.got.tgz:12435.got - 2010.05.20 12:21:01.
