data_PCOD9566673
_publ_section_title
;
Structure prediction by ZEFSAII (Michael W. Deem and Ramdas Pophale) SiO2 
 PCOD9566673
Probable space group: P 42/M M C
;
_chemical_formula_sum "Si O2"
_cell_formula_units_Z 72
_cell_length_a 21.870139
_cell_length_b 21.870139
_cell_length_c 8.603823
_cell_angle_alpha 90.000000
_cell_angle_beta 90.000000
_cell_angle_gamma 90.000000
_cell_volume 4115.234179
_symmetry_space_group_name_H-M "P 42/M M C"
_symmetry_group_IT_number 131
_symmetry_cell_setting 'tetragonal'
loop_
_space_group_symop_operation_xyz
x,y,z
-x,-y,z
-y,x,1/2+z
y,-x,1/2+z
-x,y,-z
x,-y,-z
y,x,1/2-z
-y,-x,1/2-z
-x,-y,-z
x,y,-z
y,-x,1/2-z
-y,x,1/2-z
x,-y,z
-x,y,z
-y,-x,1/2+z
y,x,1/2+z
loop_
_atom_site_type_symbol
_atom_site_label
_atom_site_fract_x
_atom_site_fract_y
_atom_site_fract_z
Si Si1 0.070322 0.500000 0.313791
Si Si2 0.500000 0.404731 0.815009
Si Si3 0.264021 0.169284 0.687659
Si Si4 0.070042 0.164950 0.812212
Si Si5 0.500000 0.268284 0.312806
Si Si6 0.404104 0.834820 0.312192
O O1 0.071278 0.500000 0.500000
O O2 0.107824 0.558502 0.253164
O O3 0.000000 0.500000 0.260815
O O4 0.441246 0.441246 0.750000
O O5 0.500000 0.334549 0.762861
O O6 0.500000 0.409314 0.000000
O O7 0.228124 0.228124 0.750000
O O8 0.263832 0.171393 0.500000
O O9 0.223844 0.110316 0.735736
O O10 0.334026 0.166441 0.739921
O O11 0.105951 0.105951 0.750000
O O12 0.000000 0.167883 0.759438
O O13 0.070326 0.162989 0.000000
O O14 0.500000 0.275431 0.500000
O O15 0.558545 0.226555 0.269352
O O16 0.405618 0.838655 0.500000
#
# Coordination Sequence:
#
# PCOD9566673 Si02
#       6
#     8   8  16  16   8  16
#     4  10  21  35  51  75 106 136 169 211 257 303
#     4  11  22  37  56  77 102 134 169 208 253 298
#     4   9  18  33  52  75 101 130 165 205 249 297
#     4   9  18  32  49  70  97 128 163 204 247 292
#     4   9  18  34  52  75 105 131 163 206 246 294
#     4   9  19  35  55  77 102 134 171 208 247 297
#
# _framework density 17.495965999999999
#
# number of rings (size 3 to 8) (size 9 to 14) (size 15 to 20)
#    0.000    2.667    0.000    2.333    0.000    6.000 
#    0.000    5.556    0.000    0.000    0.000    0.000 
#    0.000    0.000    0.000    0.000    0.000    0.000 
#
# Total GULP energy -401579.675218 kJ/mol
# GULP energy per Si atom -5577.495489 kJ/mol
# Density = 1.745614 g / cm^3
# Si number density = 17.495966 Si / 1000 Ang^3
#
#
#
# Elastic Constant Matrix: (Units=GPa)
#
#
# Indices 1 2 3 4 5 6 
#
# 1 193.6471 104.3909 37.0467 0.0000 0.0000 0.0000
# 2 104.3909 193.6471 37.0467 0.0000 0.0000 0.0000
# 3 37.0467 37.0467 25.8263 0.0000 0.0000 0.0000
# 4 0.0000 0.0000 0.0000 23.3675 0.0000 0.0000
# 5 0.0000 0.0000 0.0000 0.0000 23.3675 0.0000
# 6 0.0000 0.0000 0.0000 0.0000 0.0000 5.3309
#
#
#
# Elastic Compliance Matrix: (Units=1/GPa)
#
#
# Indices 1 2 3 4 5 6 
#
# 1 0.008209 -0.002994 -0.007481 0.000000 0.000000 0.000000
# 2 -0.002994 0.008209 -0.007481 0.000000 0.000000 0.000000
# 3 -0.007481 -0.007481 0.060182 0.000000 0.000000 0.000000
# 4 0.000000 0.000000 0.000000 0.042795 0.000000 0.000000
# 5 0.000000 0.000000 0.000000 0.000000 0.042795 0.000000
# 6 0.000000 0.000000 0.000000 0.000000 0.000000 0.187586
#
#
# Mechanical properties :
#
#
# Convention : Reuss Voigt Hill
#
# Bulk Modulus (GPa) = 24.57672 85.56547 55.07110
# Shear Modulus (GPa) = 12.52347 26.05557 19.28952
#
# Velocity S-wave (km/s) = 2.67833 3.86324 3.32401
# Velocity P-wave (km/s) = 4.86232 8.30130 6.80271
#
# Compressibility (1/GPa) = 0.04068891
#
# Stress axis : x y z
#
# Youngs Moduli (GPa) = 121.81221 121.81221 16.61634
#
# Poissons Ratio (x) = 0.36475 0.12430
# Poissons Ratio (y) = 0.36475 0.12430
# Poissons Ratio (z) = 0.91124 0.91124
#
# Static dielectric constant tensor:
#      x y z
#    x 1.578130 0.000000 0.000000 
#    y 0.000000 1.578130 0.000000 
#    z 0.000000 0.000000 1.598270 
# 
# From -- ./inp_files/1903.got.cif
#   From: 2010.05.17/outbox.cif.g08.bks.cpg/sg131_1_cif.got.tgz:1903.got - 2010.05.20 12:21:01.
