data_PCOD9566253
_publ_section_title
;
Structure prediction by ZEFSAII (Michael W. Deem and Ramdas Pophale) SiO2 
 PCOD9566253
Probable space group: P 42/M M C
;
_chemical_formula_sum "Si O2"
_cell_formula_units_Z 112
_cell_length_a 15.240034
_cell_length_b 15.240034
_cell_length_c 25.278501
_cell_angle_alpha 90.000000
_cell_angle_beta 90.000000
_cell_angle_gamma 90.000000
_cell_volume 5871.150171
_symmetry_space_group_name_H-M "P 42/M M C"
_symmetry_group_IT_number 131
_symmetry_cell_setting 'tetragonal'
loop_
_space_group_symop_operation_xyz
x,y,z
-x,-y,z
-y,x,1/2+z
y,-x,1/2+z
-x,y,-z
x,-y,-z
y,x,1/2-z
-y,-x,1/2-z
-x,-y,-z
x,y,-z
y,-x,1/2-z
-y,x,1/2-z
x,-y,z
-x,y,z
-y,-x,1/2+z
y,x,1/2+z
loop_
_atom_site_type_symbol
_atom_site_label
_atom_site_fract_x
_atom_site_fract_y
_atom_site_fract_z
Si Si1 0.100024 0.794085 0.285556
Si Si2 0.760701 0.601916 0.132099
Si Si3 0.637017 0.224605 0.752466
Si Si4 0.363163 0.098044 0.060771
Si Si5 0.594309 0.733714 0.131811
Si Si6 0.710394 0.899008 0.438232
Si Si7 0.163392 0.100306 0.091934
O O1 0.122165 0.877836 0.250000
O O2 0.156429 0.715434 0.261985
O O3 0.119693 0.815254 0.346413
O O4 0.000000 0.768770 0.282634
O O5 0.748062 0.500000 0.115335
O O6 0.788959 0.599041 0.194236
O O7 0.673641 0.663705 0.127673
O O8 0.833938 0.653959 0.098356
O O9 0.678860 0.321141 0.750000
O O10 0.590220 0.227548 0.808662
O O11 0.392305 0.181511 0.094523
O O12 0.257313 0.099213 0.063215
O O13 0.389536 0.000000 0.080433
O O14 0.391533 0.105956 0.000000
O O15 0.500000 0.692139 0.119483
O O16 0.693953 0.879192 0.500000
O O17 0.815366 0.888748 0.428459
O O18 0.686426 0.000000 0.427660
O O19 0.126634 0.000000 0.087878
#
# Coordination Sequence:
#
# PCOD9566253 Si02
#       7
#    16  16  16  16  16  16  16
#     4  10  19  31  51  80 119 163 203 243 293 353
#     4  11  24  42  63  87 117 157 202 250 307 358
#     4   9  18  36  58  83 114 151 192 241 294 354
#     4  10  20  36  59  87 122 160 195 233 284 352
#     4  11  22  38  63  93 123 156 195 241 298 363
#     4  11  24  42  64  89 117 154 204 257 306 354
#     4  10  19  35  60  90 122 158 198 241 295 360
#
# _framework density 19.076329000000001
#
# number of rings (size 3 to 8) (size 9 to 14) (size 15 to 20)
#    0.000    1.714    2.857    2.571    0.000    5.000 
#    0.000    3.571    0.000    5.143    0.000    2.000 
#    0.000    0.000    0.000    0.000    0.000    0.000 
#
# Total GULP energy -624074.687193 kJ/mol
# GULP energy per Si atom -5572.095421 kJ/mol
# Density = 1.903291 g / cm^3
# Si number density = 19.076329 Si / 1000 Ang^3
#
#
#
# Elastic Constant Matrix: (Units=GPa)
#
#
# Indices 1 2 3 4 5 6 
#
# 1 -71.5243 220.4970 61.7796 0.0000 0.0000 0.0000
# 2 220.4970 -71.7121 61.8315 0.0000 0.0000 0.0000
# 3 61.7796 61.8315 108.2160 0.0000 0.0000 0.0000
# 4 0.0000 0.0000 0.0000-1459.0827 0.0000 0.0000
# 5 0.0000 0.0000 0.0000 0.0000-1464.1547 0.0000
# 6 0.0000 0.0000 0.0000 0.0000 0.0000 1.9497
#
#
#
# Elastic Compliance Matrix: (Units=1/GPa)
#
#
# Indices 1 2 3 4 5 6 
#
# 1 0.004681 0.008099 -0.007300 0.000000 0.000000 0.000000
# 2 0.008099 0.004670 -0.007292 0.000000 0.000000 0.000000
# 3 -0.007300 -0.007292 0.017575 0.000000 0.000000 0.000000
# 4 0.000000 0.000000 0.000000 -0.000685 0.000000 0.000000
# 5 0.000000 0.000000 0.000000 0.000000 -0.000683 0.000000
# 6 0.000000 0.000000 0.000000 0.000000 0.000000 0.512894
#
#
# Mechanical properties :
#
#
# Convention : Reuss Voigt Hill
#
# Bulk Modulus (GPa) = 71.73613 72.57733 72.15673
# Shear Modulus (GPa) = 8.99144 -609.53278 -300.27067
#
# Velocity S-wave (km/s) = 2.17339 -17.89460 -12.55972
# Velocity P-wave (km/s) = 6.63209 19.71870 13.13093
#
# Compressibility (1/GPa) = 0.01393998
#
# Stress axis : x y z
#
# Youngs Moduli (GPa) = 213.62865 214.12288 56.90012
#
# Poissons Ratio (x) = -1.73416 0.41536
# Poissons Ratio (y) = -1.73016 0.41492
# Poissons Ratio (z) = 1.55946 1.56139
#
# Static dielectric constant tensor:
#      x y z
#    x 1.715410 0.000000 0.000000 
#    y 0.000000 1.715420 0.000000 
#    z 0.000000 0.000000 1.681620 
# 
# From -- ./inp_files/11238.got.cif
#   From: 2010.05.17/outbox.cif.g08.bks.cpg/sg131_6_cif.got.tgz:11238.got - 2010.05.20 12:21:01.
