data_PCOD9566961
_publ_section_title
;
Structure prediction by ZEFSAII (Michael W. Deem and Ramdas Pophale) SiO2 
 PCOD9566961
Probable space group: P 42/M C M
;
_chemical_formula_sum "Si O2"
_cell_formula_units_Z 80
_cell_length_a 12.879172
_cell_length_b 12.879172
_cell_length_c 29.116498
_cell_angle_alpha 90.000000
_cell_angle_beta 90.000000
_cell_angle_gamma 90.000000
_cell_volume 4829.642952
_symmetry_space_group_name_H-M "P 42/M C M"
_symmetry_group_IT_number 132
_symmetry_cell_setting 'tetragonal'
loop_
_space_group_symop_operation_xyz
x,y,z
-y,x,1/2+z
-x,-y,z
y,-x,1/2+z
x,-y,1/2-z
-x,y,1/2-z
y,x,-z
-y,-x,-z
-x,-y,-z
y,-x,1/2-z
x,y,-z
-y,x,1/2-z
-x,y,1/2+z
x,-y,1/2+z
-y,-x,z
y,x,z
loop_
_atom_site_type_symbol
_atom_site_label
_atom_site_fract_x
_atom_site_fract_y
_atom_site_fract_z
Si Si1 0.296104 0.877453 0.858519
Si Si2 0.201307 0.634728 0.552162
Si Si3 0.873997 0.501357 0.802725
Si Si4 0.572068 0.101770 0.052948
Si Si5 0.286839 0.117264 0.854187
O O1 0.201613 0.798388 0.853621
O O2 0.397082 0.842344 0.829335
O O3 0.337372 0.885434 0.910795
O O4 0.268995 0.995875 0.844373
O O5 0.163137 0.655854 0.500000
O O6 0.314449 0.685552 0.555998
O O7 0.194144 0.511675 0.558118
O O8 0.133760 0.689094 0.591622
O O9 0.839295 0.500000 0.750000
O O10 0.846201 0.608209 0.828366
O O11 0.000000 0.500000 0.803307
O O12 0.500000 0.000000 0.063072
O O13 0.605397 0.095055 0.000000
O O14 0.190344 0.190344 0.841897
#
# Coordination Sequence:
#
# PCOD9566961 Si02
#       5
#    16  16  16  16  16
#     4  11  21  33  49  77 113 139 167 211 264 314
#     4   9  16  27  49  76  98 126 170 219 256 292
#     4   9  18  35  56  75  95 126 173 221 259 299
#     4  10  17  30  51  72 100 139 184 224 255 296
#     4  10  19  33  54  77 103 138 178 212 248 303
#
# _framework density 16.564373
#
# number of rings (size 3 to 8) (size 9 to 14) (size 15 to 20)
#    0.000    2.200    4.000    0.600    0.000    1.600 
#    0.000    0.000    0.000    2.400    0.000   14.000 
#    0.000    0.000    0.000    0.000    0.000    0.000 
#
# Total GULP energy -445557.325466 kJ/mol
# GULP energy per Si atom -5569.466568 kJ/mol
# Density = 1.652667 g / cm^3
# Si number density = 16.564373 Si / 1000 Ang^3
#
#
#
# Elastic Constant Matrix: (Units=GPa)
#
#
# Indices 1 2 3 4 5 6 
#
# 1 91.3943 64.8956 37.0889 0.0000 0.0000 0.0000
# 2 64.8956 91.3943 37.0889 0.0000 0.0000 0.0000
# 3 37.0889 37.0889 81.8757 0.0000 0.0000 0.0000
# 4 0.0000 0.0000 0.0000 10.2760 0.0000 0.0000
# 5 0.0000 0.0000 0.0000 0.0000 10.2760 0.0000
# 6 0.0000 0.0000 0.0000 0.0000 0.0000 28.3770
#
#
#
# Elastic Compliance Matrix: (Units=1/GPa)
#
#
# Indices 1 2 3 4 5 6 
#
# 1 0.022944 -0.014793 -0.003692 0.000000 0.000000 0.000000
# 2 -0.014793 0.022944 -0.003692 0.000000 0.000000 0.000000
# 3 -0.003692 -0.003692 0.015559 0.000000 0.000000 0.000000
# 4 0.000000 0.000000 0.000000 0.097314 0.000000 0.000000
# 5 0.000000 0.000000 0.000000 0.000000 0.097314 0.000000
# 6 0.000000 0.000000 0.000000 0.000000 0.000000 0.035240
#
#
# Mechanical properties :
#
#
# Convention : Reuss Voigt Hill
#
# Bulk Modulus (GPa) = 58.50905 60.31232 59.41069
# Shear Modulus (GPa) = 14.64697 18.15854 16.40276
#
# Velocity S-wave (km/s) = 2.97685 3.31454 3.15023
# Velocity P-wave (km/s) = 6.87128 7.15110 7.01258
#
# Compressibility (1/GPa) = 0.01709137
#
# Stress axis : x y z
#
# Youngs Moduli (GPa) = 43.58406 43.58406 64.27273
#
# Poissons Ratio (x) = 0.64476 0.23731
# Poissons Ratio (y) = 0.64476 0.23731
# Poissons Ratio (z) = 0.16092 0.16092
#
# Static dielectric constant tensor:
#      x y z
#    x 1.563080 0.000000 0.000000 
#    y 0.000000 1.563080 0.000000 
#    z 0.000000 0.000000 1.592150 
# 
# From -- ./inp_files/10624.got.cif
#   From: 2010.05.17/outbox.cif.g08.bks.cpg/sg132_6_cif.got.tgz:10624.got - 2010.05.20 12:30:18.
