data_PCOD9566798
_publ_section_title
;
Structure prediction by ZEFSAII (Michael W. Deem and Ramdas Pophale) SiO2 
 PCOD9566798
Probable space group: P 42/M M C
;
_chemical_formula_sum "Si O2"
_cell_formula_units_Z 42
_cell_length_a 7.529704
_cell_length_b 7.529704
_cell_length_c 34.919164
_cell_angle_alpha 90.000000
_cell_angle_beta 90.000000
_cell_angle_gamma 90.000000
_cell_volume 1979.792368
_symmetry_space_group_name_H-M "P 42/M M C"
_symmetry_group_IT_number 131
_symmetry_cell_setting 'tetragonal'
loop_
_space_group_symop_operation_xyz
x,y,z
-x,-y,z
-y,x,1/2+z
y,-x,1/2+z
-x,y,-z
x,-y,-z
y,x,1/2-z
-y,-x,1/2-z
-x,-y,-z
x,y,-z
y,-x,1/2-z
-y,x,1/2-z
x,-y,z
-x,y,z
-y,-x,1/2+z
y,x,1/2+z
loop_
_atom_site_type_symbol
_atom_site_label
_atom_site_fract_x
_atom_site_fract_y
_atom_site_fract_z
Si Si1 0.210132 0.200671 0.374867
Si Si2 0.500000 0.500000 0.250000
Si Si3 0.286643 0.208324 0.458920
Si Si4 0.216726 0.500000 0.684147
O O1 0.234533 0.279765 0.417547
O O2 0.271711 0.330174 0.341536
O O3 0.000000 0.185832 0.369540
O O4 0.286076 0.000000 0.373831
O O5 0.500000 0.326026 0.223138
O O6 0.223826 0.282551 0.500000
O O7 0.500000 0.214357 0.459774
O O8 0.232179 0.000000 0.458364
O O9 0.000000 0.500000 0.688925
#
# Coordination Sequence:
#
# PCOD9566798 Si02
#       4
#    16   2  16   8
#     4   9  18  34  57  82 112 153 189 227 283 329
#     4  12  28  44  68  92 106 148 184 212 308 368
#     4   8  14  25  44  75 113 152 195 235 268 312
#     4  10  24  44  61  89 121 137 182 243 275 348
#
# _framework density 21.214345999999999
#
# number of rings (size 3 to 8) (size 9 to 14) (size 15 to 20)
#    0.000    3.048    0.000    1.143    2.667    2.286 
#    0.000    4.762    0.000    5.714    0.000    0.000 
#    0.000    0.000    0.000    0.000    0.000    0.000 
#
# Total GULP energy -234083.550516 kJ/mol
# GULP energy per Si atom -5573.417869 kJ/mol
# Density = 2.116606 g / cm^3
# Si number density = 21.214346 Si / 1000 Ang^3
#
#
#
# Elastic Constant Matrix: (Units=GPa)
#
#
# Indices 1 2 3 4 5 6 
#
# 1 77.9118 21.9445 56.2880 0.0000 0.0000 0.0000
# 2 21.9445 77.9118 56.2880 0.0000 0.0000 0.0000
# 3 56.2880 56.2880 208.8974 0.0000 0.0000 0.0000
# 4 0.0000 0.0000 0.0000 49.4949 0.0000 0.0000
# 5 0.0000 0.0000 0.0000 0.0000 49.4949 0.0000
# 6 0.0000 0.0000 0.0000 0.0000 0.0000 2.1512
#
#
#
# Elastic Compliance Matrix: (Units=1/GPa)
#
#
# Indices 1 2 3 4 5 6 
#
# 1 0.016126 -0.001742 -0.003876 0.000000 0.000000 0.000000
# 2 -0.001742 0.016126 -0.003876 0.000000 0.000000 0.000000
# 3 -0.003876 -0.003876 0.006876 0.000000 0.000000 0.000000
# 4 0.000000 0.000000 0.000000 0.020204 0.000000 0.000000
# 5 0.000000 0.000000 0.000000 0.000000 0.020204 0.000000
# 6 0.000000 0.000000 0.000000 0.000000 0.000000 0.464857
#
#
# Mechanical properties :
#
#
# Convention : Reuss Voigt Hill
#
# Bulk Modulus (GPa) = 49.65158 70.41801 60.03479
# Shear Modulus (GPa) = 8.77050 35.57491 22.17271
#
# Velocity S-wave (km/s) = 2.03549 4.09947 3.23642
# Velocity P-wave (km/s) = 5.38329 7.46145 6.50588
#
# Compressibility (1/GPa) = 0.02014034
#
# Stress axis : x y z
#
# Youngs Moduli (GPa) = 62.01271 62.01271 145.43936
#
# Poissons Ratio (x) = 0.10802 0.56369
# Poissons Ratio (y) = 0.10802 0.56369
# Poissons Ratio (z) = 0.24035 0.24035
#
# Static dielectric constant tensor:
#      x y z
#    x 1.802640 0.000000 0.000000 
#    y 0.000000 1.802640 0.000000 
#    z 0.000000 0.000000 1.759360 
# 
# From -- ./inp_files/11741.got.cif
#   From: 2010.05.17/outbox.cif.g08.bks.cpg/sg131_6_cif.got.tgz:11741.got - 2010.05.20 12:21:01.
