data_PCOD9566678
_publ_section_title
;
Structure prediction by ZEFSAII (Michael W. Deem and Ramdas Pophale) SiO2 
 PCOD9566678
Probable space group: P 42/M M C
;
_chemical_formula_sum "Si O2"
_cell_formula_units_Z 112
_cell_length_a 13.509906
_cell_length_b 13.509906
_cell_length_c 30.027927
_cell_angle_alpha 90.000000
_cell_angle_beta 90.000000
_cell_angle_gamma 90.000000
_cell_volume 5480.623972
_symmetry_space_group_name_H-M "P 42/M M C"
_symmetry_group_IT_number 131
_symmetry_cell_setting 'tetragonal'
loop_
_space_group_symop_operation_xyz
x,y,z
-x,-y,z
-y,x,1/2+z
y,-x,1/2+z
-x,y,-z
x,-y,-z
y,x,1/2-z
-y,-x,1/2-z
-x,-y,-z
x,y,-z
y,-x,1/2-z
-y,x,1/2-z
x,-y,z
-x,y,z
-y,-x,1/2+z
y,x,1/2+z
loop_
_atom_site_type_symbol
_atom_site_label
_atom_site_fract_x
_atom_site_fract_y
_atom_site_fract_z
Si Si1 0.310447 0.117338 0.834309
Si Si2 0.883350 0.886051 0.612858
Si Si3 0.381702 0.688837 0.701999
Si Si4 0.614345 0.619471 0.893962
Si Si5 0.117485 0.607221 0.571461
Si Si6 0.772840 0.256643 0.950484
Si Si7 0.113245 0.380397 0.238464
O O1 0.197015 0.131254 0.849120
O O2 0.376571 0.146699 0.876713
O O3 0.338661 0.153449 0.785578
O O4 0.327957 0.000000 0.830302
O O5 0.797104 0.860369 0.577167
O O6 0.000000 0.872049 0.597452
O O7 0.875360 0.000000 0.627042
O O8 0.355229 0.644772 0.750000
O O9 0.500000 0.686429 0.699874
O O10 0.348612 0.633904 0.657360
O O11 0.351797 0.804827 0.702236
O O12 0.620853 0.500000 0.896399
O O13 0.500000 0.644772 0.906544
O O14 0.703707 0.664908 0.923653
O O15 0.148020 0.500000 0.555409
O O16 0.166322 0.695791 0.546061
O O17 0.000000 0.613462 0.569134
O O18 0.801144 0.290988 0.000000
O O19 0.111587 0.500000 0.242193
O O20 0.000000 0.347943 0.229917
#
# Coordination Sequence:
#
# PCOD9566678 Si02
#       7
#    16  16  16  16  16  16  16
#     4   8  14  26  47  77 112 149 190 230 268 323
#     4   9  19  36  58  86 122 162 201 242 290 348
#     4  10  21  35  56  84 114 151 194 239 288 353
#     4  10  23  43  63  84 115 154 196 246 305 365
#     4   9  17  28  45  74 114 152 179 212 269 342
#     4  11  23  37  57  85 113 145 193 246 295 354
#     4   9  17  30  52  83 117 152 190 232 281 340
#
# _framework density 20.435631000000001
#
# number of rings (size 3 to 8) (size 9 to 14) (size 15 to 20)
#    0.000    2.571    0.000    2.571    4.000    5.286 
#    0.000    2.857    0.000    1.286    0.000    1.000 
#    0.000    2.286    0.000    0.000    0.000    0.000 
#
# Total GULP energy -624092.687641 kJ/mol
# GULP energy per Si atom -5572.256140 kJ/mol
# Density = 2.038912 g / cm^3
# Si number density = 20.435631 Si / 1000 Ang^3
#
#
#
# Elastic Constant Matrix: (Units=GPa)
#
#
# Indices 1 2 3 4 5 6 
#
# 1 67.4764 8.8031 16.8571 0.0000 0.0000 0.0000
# 2 8.8031 67.4782 16.8570 0.0000 0.0000 0.0000
# 3 16.8571 16.8570 50.9347 0.0000 0.0000 0.0000
# 4 0.0000 0.0000 0.0000 19.3222 0.0000 0.0000
# 5 0.0000 0.0000 0.0000 0.0000 19.3218 0.0000
# 6 0.0000 0.0000 0.0000 0.0000 0.0000 25.0678
#
#
#
# Elastic Compliance Matrix: (Units=1/GPa)
#
#
# Indices 1 2 3 4 5 6 
#
# 1 0.016200 -0.000844 -0.005082 0.000000 0.000000 0.000000
# 2 -0.000844 0.016199 -0.005082 0.000000 0.000000 0.000000
# 3 -0.005082 -0.005082 0.022997 0.000000 0.000000 0.000000
# 4 0.000000 0.000000 0.000000 0.051754 0.000000 0.000000
# 5 0.000000 0.000000 0.000000 0.000000 0.051755 0.000000
# 6 0.000000 0.000000 0.000000 0.000000 0.000000 0.039892
#
#
# Mechanical properties :
#
#
# Convention : Reuss Voigt Hill
#
# Bulk Modulus (GPa) = 29.95802 30.10264 30.03033
# Shear Modulus (GPa) = 21.55742 22.30052 21.92897
#
# Velocity S-wave (km/s) = 3.25144 3.30700 3.27934
# Velocity P-wave (km/s) = 5.36538 5.41702 5.39126
#
# Compressibility (1/GPa) = 0.03338004
#
# Stress axis : x y z
#
# Youngs Moduli (GPa) = 61.72954 61.73143 43.48429
#
# Poissons Ratio (x) = 0.05209 0.22099
# Poissons Ratio (y) = 0.05209 0.22098
# Poissons Ratio (z) = 0.31372 0.31371
#
# Static dielectric constant tensor:
#      x y z
#    x 1.755200 0.000000 0.000000 
#    y 0.000000 1.755200 0.000000 
#    z 0.000000 0.000000 1.773730 
# 
# From -- ./inp_files/12449.got.cif
#   From: 2010.05.17/outbox.cif.g08.bks.cpg/sg131_7_cif.got.tgz:12449.got - 2010.05.20 12:21:01.
