data_PCOD9566865
_publ_section_title
;
Structure prediction by ZEFSAII (Michael W. Deem and Ramdas Pophale) SiO2 
 PCOD9566865
Probable space group: P 42/M M C
;
_chemical_formula_sum "Si O2"
_cell_formula_units_Z 42
_cell_length_a 7.881888
_cell_length_b 7.881888
_cell_length_c 32.959360
_cell_angle_alpha 90.000000
_cell_angle_beta 90.000000
_cell_angle_gamma 90.000000
_cell_volume 2047.572503
_symmetry_space_group_name_H-M "P 42/M M C"
_symmetry_group_IT_number 131
_symmetry_cell_setting 'tetragonal'
loop_
_space_group_symop_operation_xyz
x,y,z
-x,-y,z
-y,x,1/2+z
y,-x,1/2+z
-x,y,-z
x,-y,-z
y,x,1/2-z
-y,-x,1/2-z
-x,-y,-z
x,y,-z
y,-x,1/2-z
-y,x,1/2-z
x,-y,z
-x,y,z
-y,-x,1/2+z
y,x,1/2+z
loop_
_atom_site_type_symbol
_atom_site_label
_atom_site_fract_x
_atom_site_fract_y
_atom_site_fract_z
Si Si1 0.810656 0.000000 0.565664
Si Si2 0.000000 0.500000 0.000000
Si Si3 0.794700 0.800772 0.705373
Si Si4 0.312976 0.300031 0.881960
O O1 0.652287 0.000000 0.535041
O O2 0.792991 0.164121 0.594469
O O3 0.000000 0.000000 0.547498
O O4 0.739590 0.739590 0.750000
O O5 0.724913 0.707780 0.666202
O O6 0.000000 0.790419 0.704760
O O7 0.749211 0.000000 0.701724
O O8 0.299204 0.500000 0.890834
O O9 0.500000 0.240813 0.894395
#
# Coordination Sequence:
#
# PCOD9566865 Si02
#       4
#     8   2  16  16
#     4  12  25  47  77 104 137 177 222 285 347 416
#     4  12  26  52  78 110 140 170 230 284 358 430
#     4   9  18  33  55  87 129 177 230 285 335 393
#     4  11  23  40  64  96 138 183 226 278 342 408
#
# _framework density 20.512093
#
# number of rings (size 3 to 8) (size 9 to 14) (size 15 to 20)
#    0.000    1.524    3.810    2.571    0.000    4.571 
#    0.000    7.619    0.000    2.286    0.000    0.000 
#    0.000    0.000    0.000    0.000    0.000    0.000 
#
# Total GULP energy -234141.393823 kJ/mol
# GULP energy per Si atom -5574.795091 kJ/mol
# Density = 2.046541 g / cm^3
# Si number density = 20.512093 Si / 1000 Ang^3
#
#
#
# Elastic Constant Matrix: (Units=GPa)
#
#
# Indices 1 2 3 4 5 6 
#
# 1 116.9881 39.4729 45.3982 0.0000 0.0000 0.0000
# 2 39.4729 116.9881 45.3982 0.0000 0.0000 0.0000
# 3 45.3982 45.3982 111.9017 0.0000 0.0000 0.0000
# 4 0.0000 0.0000 0.0000 -27.7868 0.0000 0.0000
# 5 0.0000 0.0000 0.0000 0.0000 -27.7868 0.0000
# 6 0.0000 0.0000 0.0000 0.0000 0.0000 3.1921
#
#
#
# Elastic Compliance Matrix: (Units=1/GPa)
#
#
# Indices 1 2 3 4 5 6 
#
# 1 0.010630 -0.002271 -0.003391 0.000000 0.000000 0.000000
# 2 -0.002271 0.010630 -0.003391 0.000000 0.000000 0.000000
# 3 -0.003391 -0.003391 0.011688 0.000000 0.000000 0.000000
# 4 0.000000 0.000000 0.000000 -0.035988 0.000000 0.000000
# 5 0.000000 0.000000 0.000000 0.000000 -0.035988 0.000000
# 6 0.000000 0.000000 0.000000 0.000000 0.000000 0.313277
#
#
# Mechanical properties :
#
#
# Convention : Reuss Voigt Hill
#
# Bulk Modulus (GPa) = 67.37882 67.37961 67.37922
# Shear Modulus (GPa) = 16.81789 3.89761 10.35775
#
# Velocity S-wave (km/s) = 2.86650 1.37996 2.24957
# Velocity P-wave (km/s) = 6.62385 5.95475 6.29819
#
# Compressibility (1/GPa) = 0.01484146
#
# Stress axis : x y z
#
# Youngs Moduli (GPa) = 94.07277 94.07277 85.55659
#
# Poissons Ratio (x) = 0.21360 0.29016
# Poissons Ratio (y) = 0.21360 0.29016
# Poissons Ratio (z) = 0.31904 0.31904
#
# Static dielectric constant tensor:
#      x y z
#    x 1.734520 0.000000 0.000000 
#    y 0.000000 1.734520 0.000000 
#    z 0.000000 0.000000 1.698880 
# 
# From -- ./inp_files/12723.got.cif
#   From: 2010.05.17/outbox.cif.g08.bks.cpg/sg131_7_cif.got.tgz:12723.got - 2010.05.20 12:21:01.
