data_PCOD9566601
_publ_section_title
;
Structure prediction by ZEFSAII (Michael W. Deem and Ramdas Pophale) SiO2 
 PCOD9566601
Probable space group: P 42/M M C
;
_chemical_formula_sum "Si O2"
_cell_formula_units_Z 84
_cell_length_a 11.933504
_cell_length_b 11.933504
_cell_length_c 33.351143
_cell_angle_alpha 90.000000
_cell_angle_beta 90.000000
_cell_angle_gamma 90.000000
_cell_volume 4749.486839
_symmetry_space_group_name_H-M "P 42/M M C"
_symmetry_group_IT_number 131
_symmetry_cell_setting 'tetragonal'
loop_
_space_group_symop_operation_xyz
x,y,z
-x,-y,z
-y,x,1/2+z
y,-x,1/2+z
-x,y,-z
x,-y,-z
y,x,1/2-z
-y,-x,1/2-z
-x,-y,-z
x,y,-z
y,-x,1/2-z
-y,x,1/2-z
x,-y,z
-x,y,z
-y,-x,1/2+z
y,x,1/2+z
loop_
_atom_site_type_symbol
_atom_site_label
_atom_site_fract_x
_atom_site_fract_y
_atom_site_fract_z
Si Si1 0.133606 0.133073 0.500000
Si Si2 0.000000 0.629067 0.710885
Si Si3 0.000000 0.708122 0.800532
Si Si4 0.367169 0.633048 0.365857
Si Si5 0.778954 0.500000 0.000000
Si Si6 0.000000 0.371758 0.888159
Si Si7 0.750216 0.768533 0.203804
Si Si8 0.216010 0.702748 0.934643
O O1 0.187920 0.193066 0.461349
O O2 0.000000 0.138627 0.500000
O O3 0.167219 0.000000 0.500000
O O4 0.112315 0.691351 0.697137
O O5 0.000000 0.500000 0.698640
O O6 0.000000 0.638381 0.759421
O O7 0.884466 0.777164 0.800792
O O8 0.000000 0.634605 0.840413
O O9 0.353245 0.500000 0.360604
O O10 0.500000 0.657127 0.370547
O O11 0.318840 0.699150 0.327651
O O12 0.304129 0.677107 0.405593
O O13 0.780218 0.598548 0.034795
O O14 0.890449 0.313728 0.905768
O O15 0.000000 0.500000 0.901933
O O16 0.731255 0.731255 0.250000
#
# Coordination Sequence:
#
# PCOD9566601 Si02
#       8
#     8   8   8  16   4   8  16  16
#     4  10  22  40  61  87 121 153 190 239 295 362
#     4  10  21  39  59  84 120 171 210 243 295 362
#     4  10  21  35  58  90 125 156 197 259 308 359
#     4  11  23  40  59  86 123 159 202 251 300 357
#     4  10  20  35  57  90 120 150 191 243 306 374
#     4  12  19  30  57  91 124 149 189 245 311 361
#     4  10  22  39  61  89 120 159 206 250 304 360
#     4  11  21  36  59  90 120 153 192 243 304 361
#
# _framework density 17.686119999999999
#
# number of rings (size 3 to 8) (size 9 to 14) (size 15 to 20)
#    0.000    1.429    4.762    0.857    0.000    4.571 
#    1.714    5.238    2.095    0.571    0.000    0.000 
#    0.000    0.000    0.000    0.000    0.000    0.000 
#
# Total GULP energy -467662.857894 kJ/mol
# GULP energy per Si atom -5567.414975 kJ/mol
# Density = 1.764587 g / cm^3
# Si number density = 17.686120 Si / 1000 Ang^3
#
#
#
# Elastic Constant Matrix: (Units=GPa)
#
#
# Indices 1 2 3 4 5 6 
#
# 1 99.4567 44.8960 32.4822 0.0000 0.0000 0.0000
# 2 44.8960 99.4567 32.4822 0.0000 0.0000 0.0000
# 3 32.4822 32.4822 97.8388 0.0000 0.0000 0.0000
# 4 0.0000 0.0000 0.0000 20.4740 0.0000 0.0000
# 5 0.0000 0.0000 0.0000 0.0000 20.4740 0.0000
# 6 0.0000 0.0000 0.0000 0.0000 0.0000 19.9117
#
#
#
# Elastic Compliance Matrix: (Units=1/GPa)
#
#
# Indices 1 2 3 4 5 6 
#
# 1 0.013236 -0.005092 -0.002704 0.000000 0.000000 0.000000
# 2 -0.005092 0.013236 -0.002704 0.000000 0.000000 0.000000
# 3 -0.002704 -0.002704 0.012016 0.000000 0.000000 0.000000
# 4 0.000000 0.000000 0.000000 0.048842 0.000000 0.000000
# 5 0.000000 0.000000 0.000000 0.000000 0.048842 0.000000
# 6 0.000000 0.000000 0.000000 0.000000 0.000000 0.050222
#
#
# Mechanical properties :
#
#
# Convention : Reuss Voigt Hill
#
# Bulk Modulus (GPa) = 57.17761 57.38585 57.28173
# Shear Modulus (GPa) = 23.44948 24.63143 24.04045
#
# Velocity S-wave (km/s) = 3.64520 3.73594 3.69085
# Velocity P-wave (km/s) = 7.07926 7.15031 7.11487
#
# Compressibility (1/GPa) = 0.01748936
#
# Stress axis : x y z
#
# Youngs Moduli (GPa) = 75.54997 75.54997 83.22060
#
# Poissons Ratio (x) = 0.38470 0.22502
# Poissons Ratio (y) = 0.38470 0.22502
# Poissons Ratio (z) = 0.20428 0.20428
#
# Static dielectric constant tensor:
#      x y z
#    x 1.598760 0.000000 0.000000 
#    y 0.000000 1.598760 0.000000 
#    z 0.000000 0.000000 1.602770 
# 
# From -- ./inp_files/13619.got.cif
#   From: 2010.05.17/outbox.cif.g08.bks.cpg/sg131_7_cif.got.tgz:13619.got - 2010.05.20 12:21:01.
