data_PCOD9566148
_publ_section_title
;
Structure prediction by ZEFSAII (Michael W. Deem and Ramdas Pophale) SiO2 
 PCOD9566148
Probable space group: P 42/M M C
;
_chemical_formula_sum "Si O2"
_cell_formula_units_Z 96
_cell_length_a 24.004425
_cell_length_b 24.004425
_cell_length_c 10.092777
_cell_angle_alpha 90.000000
_cell_angle_beta 90.000000
_cell_angle_gamma 90.000000
_cell_volume 5815.583455
_symmetry_space_group_name_H-M "P 42/M M C"
_symmetry_group_IT_number 131
_symmetry_cell_setting 'tetragonal'
loop_
_space_group_symop_operation_xyz
x,y,z
-x,-y,z
-y,x,1/2+z
y,-x,1/2+z
-x,y,-z
x,-y,-z
y,x,1/2-z
-y,-x,1/2-z
-x,-y,-z
x,y,-z
y,-x,1/2-z
-y,x,1/2-z
x,-y,z
-x,y,z
-y,-x,1/2+z
y,x,1/2+z
loop_
_atom_site_type_symbol
_atom_site_label
_atom_site_fract_x
_atom_site_fract_y
_atom_site_fract_z
Si Si1 0.932891 0.354678 0.347957
Si Si2 0.768823 0.932966 0.233176
Si Si3 0.639573 0.566268 0.345501
Si Si4 0.432903 0.133603 0.343234
Si Si5 0.567452 0.232494 0.850692
Si Si6 0.932468 0.171394 0.000000
Si Si7 0.066105 0.856118 0.500000
O O1 0.915802 0.367395 0.500000
O O2 0.912578 0.292417 0.308492
O O3 0.911894 0.399162 0.240950
O O4 0.000000 0.354084 0.346948
O O5 0.793378 0.913874 0.372479
O O6 0.763217 0.000000 0.241293
O O7 0.816149 0.922694 0.124657
O O8 0.599293 0.599293 0.250000
O O9 0.626020 0.575781 0.500000
O O10 0.636100 0.500000 0.321624
O O11 0.703823 0.584050 0.325344
O O12 0.419622 0.133904 0.500000
O O13 0.500000 0.125935 0.331490
O O14 0.417203 0.190685 0.266519
O O15 0.500000 0.232405 0.855338
O O16 0.586272 0.216276 0.000000
O O17 0.906417 0.109719 0.000000
O O18 0.000000 0.167146 0.000000
O O19 0.000000 0.871772 0.500000
#
# Coordination Sequence:
#
# PCOD9566148 Si02
#       7
#    16  16  16  16  16   8   8
#     4  10  20  35  55  76 100 137 178 209 244 296
#     4   9  18  33  51  74 101 135 178 214 248 298
#     4   9  18  31  48  72 100 132 170 210 253 300
#     4  10  21  34  51  80 110 132 159 204 260 306
#     4   8  15  31  52  71  95 131 172 205 239 294
#     4  10  20  31  50  80 107 135 171 213 265 315
#     4  10  18  33  54  74 105 139 171 215 259 307
#
# _framework density 16.507373000000001
#
# number of rings (size 3 to 8) (size 9 to 14) (size 15 to 20)
#    0.000    2.667    0.833    2.000    1.167    3.000 
#    0.000    4.167    0.000    5.000    0.000    0.000 
#    0.000    0.000    0.000    0.000    0.000    0.000 
#
# Total GULP energy -534563.361316 kJ/mol
# GULP energy per Si atom -5568.368347 kJ/mol
# Density = 1.646980 g / cm^3
# Si number density = 16.507373 Si / 1000 Ang^3
#
#
#
# Elastic Constant Matrix: (Units=GPa)
#
#
# Indices 1 2 3 4 5 6 
#
# 1 58.3328 34.8272 55.5068 0.0000 0.0000 0.0000
# 2 34.8272 58.3328 55.5068 0.0000 0.0000 0.0000
# 3 55.5068 55.5068 155.1447 0.0000 0.0000 0.0000
# 4 0.0000 0.0000 0.0000 463.2385 0.0000 0.0000
# 5 0.0000 0.0000 0.0000 0.0000 463.2385 0.0000
# 6 0.0000 0.0000 0.0000 0.0000 0.0000 -7.2986
#
#
#
# Elastic Compliance Matrix: (Units=1/GPa)
#
#
# Indices 1 2 3 4 5 6 
#
# 1 0.030627 -0.011916 -0.006695 0.000000 0.000000 0.000000
# 2 -0.011916 0.030627 -0.006695 0.000000 0.000000 0.000000
# 3 -0.006695 -0.006695 0.011236 0.000000 0.000000 0.000000
# 4 0.000000 0.000000 0.000000 0.002159 0.000000 0.000000
# 5 0.000000 0.000000 0.000000 0.000000 0.002159 0.000000
# 6 0.000000 0.000000 0.000000 0.000000 0.000000 -0.137013
#
#
# Mechanical properties :
#
#
# Convention : Reuss Voigt Hill
#
# Bulk Modulus (GPa) = 45.70155 62.61020 54.15587
# Shear Modulus (GPa) = -2172.88743 192.23363 -990.32690
#
# Velocity S-wave (km/s) = -36.32039 10.80306 -24.52004
# Velocity P-wave (km/s) = 41.60708 13.91470 27.72661
#
# Compressibility (1/GPa) = 0.02188109
#
# Stress axis : x y z
#
# Youngs Moduli (GPa) = 32.65043 32.65043 89.00041
#
# Poissons Ratio (x) = 0.38905 0.59582
# Poissons Ratio (y) = 0.38905 0.59582
# Poissons Ratio (z) = 0.21858 0.21858
#
# Static dielectric constant tensor:
#      x y z
#    x 1.549720 0.000000 0.000000 
#    y 0.000000 1.549720 0.000000 
#    z 0.000000 0.000000 1.575670 
# 
# From -- ./inp_files/2307.got.cif
#   From: 2010.05.17/outbox.cif.g08.bks.cpg/sg131_2_cif.got.tgz:2307.got - 2010.05.20 12:21:01.
