data_PCOD9566705
_publ_section_title
;
Structure prediction by ZEFSAII (Michael W. Deem and Ramdas Pophale) SiO2 
 PCOD9566705
Probable space group: P 42/M M C
;
_chemical_formula_sum "Si O2"
_cell_formula_units_Z 112
_cell_length_a 13.692459
_cell_length_b 13.692459
_cell_length_c 27.722729
_cell_angle_alpha 90.000000
_cell_angle_beta 90.000000
_cell_angle_gamma 90.000000
_cell_volume 5197.552418
_symmetry_space_group_name_H-M "P 42/M M C"
_symmetry_group_IT_number 131
_symmetry_cell_setting 'tetragonal'
loop_
_space_group_symop_operation_xyz
x,y,z
-x,-y,z
-y,x,1/2+z
y,-x,1/2+z
-x,y,-z
x,-y,-z
y,x,1/2-z
-y,-x,1/2-z
-x,-y,-z
x,y,-z
y,-x,1/2-z
-y,x,1/2-z
x,-y,z
-x,y,z
-y,-x,1/2+z
y,x,1/2+z
loop_
_atom_site_type_symbol
_atom_site_label
_atom_site_fract_x
_atom_site_fract_y
_atom_site_fract_z
Si Si1 0.382994 0.112959 0.753939
Si Si2 0.118503 0.890521 0.805333
Si Si3 0.387523 0.612375 0.407581
Si Si4 0.615596 0.809360 0.143828
Si Si5 0.805696 0.678005 0.948838
Si Si6 0.110049 0.733868 0.445812
Si Si7 0.882906 0.307241 0.847949
O O1 0.500000 0.114151 0.755233
O O2 0.347366 0.162255 0.803158
O O3 0.353302 0.154067 0.701956
O O4 0.350384 0.000000 0.755426
O O5 0.140231 0.859770 0.750000
O O6 0.145942 0.806791 0.842804
O O7 0.000000 0.895082 0.805889
O O8 0.154532 0.000000 0.815327
O O9 0.376639 0.500000 0.424376
O O10 0.500000 0.625455 0.392690
O O11 0.306058 0.628113 0.366329
O O12 0.358353 0.693768 0.446315
O O13 0.500000 0.830282 0.142719
O O14 0.663173 0.866876 0.099048
O O15 0.805506 0.796475 0.947236
O O16 0.849642 0.645992 0.897920
O O17 0.849551 0.646400 0.000000
O O18 0.112475 0.687008 0.500000
O O19 0.000000 0.774779 0.440319
O O20 0.000000 0.313363 0.847319
#
# Coordination Sequence:
#
# PCOD9566705 Si02
#       7
#    16  16  16  16  16  16  16
#     4   9  18  33  53  79 112 146 180 220 266 321
#     4   8  15  29  49  76 110 143 178 221 263 310
#     4   9  19  37  60  85 112 142 179 224 274 329
#     4   9  17  31  54  83 112 143 181 222 265 321
#     4  10  22  38  56  80 107 139 185 236 282 333
#     4   9  18  32  49  73 110 151 185 222 271 324
#     4  10  21  36  56  81 108 144 185 225 278 332
#
# _framework density 21.548603
#
# number of rings (size 3 to 8) (size 9 to 14) (size 15 to 20)
#    0.000    2.857    0.000    0.857    0.000    5.429 
#    0.000    5.714    0.000    2.571    0.000   11.000 
#    0.000    0.000    0.000    0.000    0.000    0.000 
#
# Total GULP energy -624509.452327 kJ/mol
# GULP energy per Si atom -5575.977253 kJ/mol
# Density = 2.149956 g / cm^3
# Si number density = 21.548603 Si / 1000 Ang^3
#
#
#
# Elastic Constant Matrix: (Units=GPa)
#
#
# Indices 1 2 3 4 5 6 
#
# 1 51.3049 2.7452 27.3046 0.0000 0.0000 0.0000
# 2 2.7452 51.3047 27.3046 0.0000 0.0000 0.0000
# 3 27.3046 27.3046 199.7650 0.0000 0.0000 0.0000
# 4 0.0000 0.0000 0.0000 9.9996 0.0000 0.0000
# 5 0.0000 0.0000 0.0000 0.0000 9.9996 0.0000
# 6 0.0000 0.0000 0.0000 0.0000 0.0000 13.0008
#
#
#
# Elastic Compliance Matrix: (Units=1/GPa)
#
#
# Indices 1 2 3 4 5 6 
#
# 1 0.021029 0.000436 -0.002934 0.000000 0.000000 0.000000
# 2 0.000436 0.021030 -0.002934 0.000000 0.000000 0.000000
# 3 -0.002934 -0.002934 0.005808 0.000000 0.000000 0.000000
# 4 0.000000 0.000000 0.000000 0.100004 0.000000 0.000000
# 5 0.000000 0.000000 0.000000 0.000000 0.100004 0.000000
# 6 0.000000 0.000000 0.000000 0.000000 0.000000 0.076918
#
#
# Mechanical properties :
#
#
# Convention : Reuss Voigt Hill
#
# Bulk Modulus (GPa) = 27.02456 46.34261 36.68358
# Shear Modulus (GPa) = 14.36814 22.93467 18.65141
#
# Velocity S-wave (km/s) = 2.58501 3.26594 2.94522
# Velocity P-wave (km/s) = 4.63445 5.98118 5.35036
#
# Compressibility (1/GPa) = 0.03700338
#
# Stress axis : x y z
#
# Youngs Moduli (GPa) = 47.55235 47.55216 172.17796
#
# Poissons Ratio (x) = -0.02074 0.50517
# Poissons Ratio (y) = -0.02074 0.50517
# Poissons Ratio (z) = 0.13952 0.13952
#
# Static dielectric constant tensor:
#      x y z
#    x 1.814250 0.000000 0.000000 
#    y 0.000000 1.814250 0.000000 
#    z 0.000000 0.000000 1.796680 
# 
# From -- ./inp_files/11290.got.cif
#   From: 2010.05.17/outbox.cif.g08.bks.cpg/sg131_6_cif.got.tgz:11290.got - 2010.05.20 12:21:01.
