data_PCOD9566958
_publ_section_title
;
Structure prediction by ZEFSAII (Michael W. Deem and Ramdas Pophale) SiO2 
 PCOD9566958
Probable space group: P 42/M C M
;
_chemical_formula_sum "Si O2"
_cell_formula_units_Z 112
_cell_length_a 19.644424
_cell_length_b 19.644424
_cell_length_c 19.205118
_cell_angle_alpha 90.000000
_cell_angle_beta 90.000000
_cell_angle_gamma 90.000000
_cell_volume 7411.320224
_symmetry_space_group_name_H-M "P 42/M C M"
_symmetry_group_IT_number 132
_symmetry_cell_setting 'tetragonal'
loop_
_space_group_symop_operation_xyz
x,y,z
-y,x,1/2+z
-x,-y,z
y,-x,1/2+z
x,-y,1/2-z
-x,y,1/2-z
y,x,-z
-y,-x,-z
-x,-y,-z
y,-x,1/2-z
x,y,-z
-y,x,1/2-z
-x,y,1/2+z
x,-y,1/2+z
-y,-x,z
y,x,z
loop_
_atom_site_type_symbol
_atom_site_label
_atom_site_fract_x
_atom_site_fract_y
_atom_site_fract_z
Si Si1 0.294604 0.189218 0.143006
Si Si2 0.136247 0.436632 0.156129
Si Si3 0.049640 0.240162 0.080385
Si Si4 0.156501 0.043229 0.680097
Si Si5 0.268052 0.838101 0.194054
Si Si6 0.121707 0.416784 0.680310
Si Si7 0.605350 0.002308 0.580717
O O1 0.258292 0.258292 0.120816
O O2 0.375888 0.186884 0.135511
O O3 0.258369 0.125541 0.105605
O O4 0.279796 0.176709 0.224505
O O5 0.111412 0.420690 0.235828
O O6 0.161101 0.514341 0.158970
O O7 0.073606 0.427524 0.103472
O O8 0.011170 0.182142 0.123466
O O9 0.010766 0.312801 0.087710
O O10 0.050883 0.221440 0.000000
O O11 0.091298 0.091298 0.664111
O O12 0.220529 0.095058 0.689563
O O13 0.144195 0.000000 0.750000
O O14 0.223756 0.776245 0.163639
O O15 0.343349 0.846432 0.163561
O O16 0.052449 0.418759 0.636696
O O17 0.590123 0.985959 0.500000
#
# Coordination Sequence:
#
# PCOD9566958 Si02
#       7
#    16  16  16  16  16  16  16
#     4   9  17  31  48  65  87 113 146 183 220 264
#     4   9  19  28  43  67  88 113 145 179 215 259
#     4  10  20  32  47  67  89 116 149 186 229 272
#     4  11  21  34  51  68  86 111 151 197 235 273
#     4   9  17  29  49  68  83 113 149 181 219 265
#     4  10  17  29  45  64  90 114 142 180 217 255
#     4  10  19  29  41  62  91 120 146 173 211 264
#
# _framework density 15.112018000000001
#
# number of rings (size 3 to 8) (size 9 to 14) (size 15 to 20)
#    0.000    2.286    2.857    0.857    0.000    3.000 
#    0.000    0.000    0.000    0.429    0.000    2.000 
#    0.000    0.571    0.000    8.000    0.000    0.000 
#
# Total GULP energy -623625.712744 kJ/mol
# GULP energy per Si atom -5568.086721 kJ/mol
# Density = 1.507762 g / cm^3
# Si number density = 15.112018 Si / 1000 Ang^3
#
#
#
# Elastic Constant Matrix: (Units=GPa)
#
#
# Indices 1 2 3 4 5 6 
#
# 1 71.4530 34.3121 19.5216 0.0000 0.0000 0.0000
# 2 34.3121 71.4530 19.5216 0.0000 0.0000 0.0000
# 3 19.5216 19.5216 37.0642 0.0000 0.0000 0.0000
# 4 0.0000 0.0000 0.0000 4.6479 0.0000 0.0000
# 5 0.0000 0.0000 0.0000 0.0000 4.6479 0.0000
# 6 0.0000 0.0000 0.0000 0.0000 0.0000 12.1774
#
#
#
# Elastic Compliance Matrix: (Units=1/GPa)
#
#
# Indices 1 2 3 4 5 6 
#
# 1 0.019331 -0.007594 -0.006182 0.000000 0.000000 0.000000
# 2 -0.007594 0.019331 -0.006182 0.000000 0.000000 0.000000
# 3 -0.006182 -0.006182 0.033492 0.000000 0.000000 0.000000
# 4 0.000000 0.000000 0.000000 0.215153 0.000000 0.000000
# 5 0.000000 0.000000 0.000000 0.000000 0.215153 0.000000
# 6 0.000000 0.000000 0.000000 0.000000 0.000000 0.082119
#
#
# Mechanical properties :
#
#
# Convention : Reuss Voigt Hill
#
# Bulk Modulus (GPa) = 31.01857 36.29785 33.65821
# Shear Modulus (GPa) = 7.87104 11.40228 9.63666
#
# Velocity S-wave (km/s) = 2.28468 2.74983 2.52798
# Velocity P-wave (km/s) = 5.24691 5.84409 5.55353
#
# Compressibility (1/GPa) = 0.03223875
#
# Stress axis : x y z
#
# Youngs Moduli (GPa) = 51.73116 51.73116 29.85774
#
# Poissons Ratio (x) = 0.39283 0.18458
# Poissons Ratio (y) = 0.39283 0.18458
# Poissons Ratio (z) = 0.31979 0.31979
#
# Static dielectric constant tensor:
#      x y z
#    x 1.527790 0.000000 0.000000 
#    y 0.000000 1.527790 0.000000 
#    z 0.000000 0.000000 1.495340 
# 
# From -- ./inp_files/6780.got.cif
#   From: 2010.05.17/outbox.cif.g08.bks.cpg/sg132_4_cif.got.tgz:6780.got - 2010.05.20 12:30:18.
