data_PCOD9566032
_publ_section_title
;
Structure prediction by ZEFSAII (Michael W. Deem and Ramdas Pophale) SiO2 
 PCOD9566032
Probable space group: P 42/M M C
;
_chemical_formula_sum "Si O2"
_cell_formula_units_Z 112
_cell_length_a 19.899437
_cell_length_b 19.899437
_cell_length_c 18.348681
_cell_angle_alpha 90.000000
_cell_angle_beta 90.000000
_cell_angle_gamma 90.000000
_cell_volume 7265.850022
_symmetry_space_group_name_H-M "P 42/M M C"
_symmetry_group_IT_number 131
_symmetry_cell_setting 'tetragonal'
loop_
_space_group_symop_operation_xyz
x,y,z
-x,-y,z
-y,x,1/2+z
y,-x,1/2+z
-x,y,-z
x,-y,-z
y,x,1/2-z
-y,-x,1/2-z
-x,-y,-z
x,y,-z
y,-x,1/2-z
-y,x,1/2-z
x,-y,z
-x,y,z
-y,-x,1/2+z
y,x,1/2+z
loop_
_atom_site_type_symbol
_atom_site_label
_atom_site_fract_x
_atom_site_fract_y
_atom_site_fract_z
Si Si1 0.185950 0.717815 0.796740
Si Si2 0.920590 0.250257 0.418696
Si Si3 0.189099 0.572575 0.264957
Si Si4 0.575939 0.663676 0.698751
Si Si5 0.920746 0.182510 0.265232
Si Si6 0.712878 0.685159 0.916074
Si Si7 0.179738 0.375131 0.419316
O O1 0.247025 0.752975 0.750000
O O2 0.165734 0.643816 0.768049
O O3 0.123247 0.766885 0.784530
O O4 0.218434 0.707930 0.876017
O O5 0.906478 0.221718 0.500000
O O6 0.905994 0.203625 0.349282
O O7 0.876647 0.317334 0.412014
O O8 0.000000 0.265877 0.415795
O O9 0.163867 0.500000 0.236376
O O10 0.268437 0.574433 0.247136
O O11 0.175738 0.576751 0.350698
O O12 0.606401 0.606401 0.750000
O O13 0.500000 0.648925 0.674982
O O14 0.625479 0.680955 0.631967
O O15 0.890749 0.109252 0.250000
O O16 0.000000 0.187734 0.252949
O O17 0.663329 0.748980 0.914441
O O18 0.723585 0.666020 0.000000
O O19 0.173872 0.405481 0.500000
#
# Coordination Sequence:
#
# PCOD9566032 Si02
#       7
#    16  16  16  16  16  16  16
#     4  10  16  31  49  67  92 123 161 200 242 295
#     4   9  17  29  48  73  97 125 161 192 226 283
#     4  10  17  27  44  67  93 120 152 194 238 283
#     4  10  19  32  48  67  94 126 162 204 251 300
#     4  10  19  31  51  74  98 130 163 203 245 285
#     4  10  18  29  49  72  92 120 161 207 251 294
#     4  10  16  26  44  66  92 121 152 189 234 284
#
# _framework density 15.414577
#
# number of rings (size 3 to 8) (size 9 to 14) (size 15 to 20)
#    0.000    2.143    4.286    1.714    0.000    0.857 
#    0.000    0.000    0.000    3.857    0.000    5.000 
#    0.000    0.000    0.000    7.143    0.000    0.000 
#
# Total GULP energy -623476.842731 kJ/mol
# GULP energy per Si atom -5566.757524 kJ/mol
# Density = 1.537949 g / cm^3
# Si number density = 15.414577 Si / 1000 Ang^3
#
#
#
# Elastic Constant Matrix: (Units=GPa)
#
#
# Indices 1 2 3 4 5 6 
#
# 1 66.4423 26.8949 27.0621 0.0000 0.0000 0.0000
# 2 26.8949 66.4457 27.0618 0.0000 0.0000 0.0000
# 3 27.0621 27.0618 87.2003 0.0000 0.0000 0.0000
# 4 0.0000 0.0000 0.0000 13.3518 0.0000 0.0000
# 5 0.0000 0.0000 0.0000 0.0000 13.3516 0.0000
# 6 0.0000 0.0000 0.0000 0.0000 0.0000 13.5338
#
#
#
# Elastic Compliance Matrix: (Units=1/GPa)
#
#
# Indices 1 2 3 4 5 6 
#
# 1 0.019175 -0.006110 -0.004055 0.000000 0.000000 0.000000
# 2 -0.006110 0.019174 -0.004054 0.000000 0.000000 0.000000
# 3 -0.004055 -0.004054 0.013984 0.000000 0.000000 0.000000
# 4 0.000000 0.000000 0.000000 0.074897 0.000000 0.000000
# 5 0.000000 0.000000 0.000000 0.000000 0.074898 0.000000
# 6 0.000000 0.000000 0.000000 0.000000 0.000000 0.073889
#
#
# Mechanical properties :
#
#
# Convention : Reuss Voigt Hill
#
# Bulk Modulus (GPa) = 41.84848 42.45846 42.15347
# Shear Modulus (GPa) = 16.00403 17.31872 16.66137
#
# Velocity S-wave (km/s) = 3.22567 3.35554 3.29125
# Velocity P-wave (km/s) = 6.40943 6.52817 6.46908
#
# Compressibility (1/GPa) = 0.02389573
#
# Stress axis : x y z
#
# Youngs Moduli (GPa) = 52.14997 52.15314 71.50806
#
# Poissons Ratio (x) = 0.31866 0.28995
# Poissons Ratio (y) = 0.31864 0.28992
# Poissons Ratio (z) = 0.21146 0.21145
#
# Static dielectric constant tensor:
#      x y z
#    x 1.512970 0.000000 0.000000 
#    y 0.000000 1.512970 0.000000 
#    z 0.000000 0.000000 1.533290 
# 
# From -- ./inp_files/8329.got.cif
#   From: 2010.05.17/outbox.cif.g08.bks.cpg/sg131_5_cif.got.tgz:8329.got - 2010.05.20 12:21:01.
