data_PCOD9566518
_publ_section_title
;
Structure prediction by ZEFSAII (Michael W. Deem and Ramdas Pophale) SiO2 
 PCOD9566518
Probable space group: P 42/M M C
;
_chemical_formula_sum "Si O2"
_cell_formula_units_Z 96
_cell_length_a 14.967307
_cell_length_b 14.967307
_cell_length_c 20.451658
_cell_angle_alpha 90.000000
_cell_angle_beta 90.000000
_cell_angle_gamma 90.000000
_cell_volume 4581.586128
_symmetry_space_group_name_H-M "P 42/M M C"
_symmetry_group_IT_number 131
_symmetry_cell_setting 'tetragonal'
loop_
_space_group_symop_operation_xyz
x,y,z
-x,-y,z
-y,x,1/2+z
y,-x,1/2+z
-x,y,-z
x,-y,-z
y,x,1/2-z
-y,-x,1/2-z
-x,-y,-z
x,y,-z
y,-x,1/2-z
-y,x,1/2-z
x,-y,z
-x,y,z
-y,-x,1/2+z
y,x,1/2+z
loop_
_atom_site_type_symbol
_atom_site_label
_atom_site_fract_x
_atom_site_fract_y
_atom_site_fract_z
Si Si1 0.365235 0.897828 0.760715
Si Si2 0.221029 0.600287 0.618986
Si Si3 0.392704 0.596851 0.926187
Si Si4 0.893812 0.602930 0.892907
Si Si5 0.835148 0.903026 0.811261
Si Si6 0.797873 0.781447 0.927870
O O1 0.404003 0.829875 0.813072
O O2 0.390001 0.882266 0.685774
O O3 0.259666 0.889810 0.774417
O O4 0.391208 0.000000 0.776539
O O5 0.212268 0.500000 0.587916
O O6 0.326306 0.620627 0.625926
O O7 0.194790 0.691755 0.581395
O O8 0.354496 0.500000 0.910686
O O9 0.500000 0.588361 0.930160
O O10 0.363798 0.623789 0.000000
O O11 0.877427 0.500000 0.913090
O O12 0.827316 0.677228 0.922242
O O13 0.000000 0.622557 0.906523
O O14 0.900290 0.900290 0.750000
O O15 0.845979 0.830173 0.867443
O O16 0.834446 0.000000 0.843227
O O17 0.824651 0.812001 0.000000
#
# Coordination Sequence:
#
# PCOD9566518 Si02
#       6
#    16  16  16  16  16  16
#     4   9  18  35  60  89 119 154 200 253 305 361
#     4  10  20  33  55  87 122 161 205 252 302 360
#     4   8  14  26  44  66  98 147 202 245 283 336
#     4  10  21  39  64  90 118 157 206 258 314 373
#     4  10  20  38  65  92 122 161 204 247 300 372
#     4  11  24  39  59  91 129 164 204 258 311 362
#
# _framework density 20.953441999999999
#
# number of rings (size 3 to 8) (size 9 to 14) (size 15 to 20)
#    0.000    2.333    1.667    1.500    0.000    3.833 
#    0.000    0.833    0.000    2.500    0.000   11.667 
#    0.000    0.000    0.000    0.000    0.000    0.000 
#
# Total GULP energy -534636.005958 kJ/mol
# GULP energy per Si atom -5569.125062 kJ/mol
# Density = 2.090575 g / cm^3
# Si number density = 20.953442 Si / 1000 Ang^3
#
#
#
# Elastic Constant Matrix: (Units=GPa)
#
#
# Indices 1 2 3 4 5 6 
#
# 1 78.2616 13.3952 34.9096 0.0000 0.0000 0.0000
# 2 13.3952 78.2616 34.9096 0.0000 0.0000 0.0000
# 3 34.9096 34.9096 99.6208 0.0000 0.0000 0.0000
# 4 0.0000 0.0000 0.0000 10.5966 0.0000 0.0000
# 5 0.0000 0.0000 0.0000 0.0000 10.5966 0.0000
# 6 0.0000 0.0000 0.0000 0.0000 0.0000 6.6853
#
#
#
# Elastic Compliance Matrix: (Units=1/GPa)
#
#
# Indices 1 2 3 4 5 6 
#
# 1 0.015150 -0.000267 -0.005215 0.000000 0.000000 0.000000
# 2 -0.000267 0.015150 -0.005215 0.000000 0.000000 0.000000
# 3 -0.005215 -0.005215 0.013693 0.000000 0.000000 0.000000
# 4 0.000000 0.000000 0.000000 0.094370 0.000000 0.000000
# 5 0.000000 0.000000 0.000000 0.000000 0.094370 0.000000
# 6 0.000000 0.000000 0.000000 0.000000 0.000000 0.149582
#
#
# Mechanical properties :
#
#
# Convention : Reuss Voigt Hill
#
# Bulk Modulus (GPa) = 44.25202 46.95251 45.60226
# Shear Modulus (GPa) = 12.15832 17.10436 14.63134
#
# Velocity S-wave (km/s) = 2.41146 2.86020 2.64536
# Velocity P-wave (km/s) = 5.37760 5.77619 5.58045
#
# Compressibility (1/GPa) = 0.02259784
#
# Stress axis : x y z
#
# Youngs Moduli (GPa) = 66.00801 66.00801 73.02858
#
# Poissons Ratio (x) = 0.01760 0.38087
# Poissons Ratio (y) = 0.01760 0.38087
# Poissons Ratio (z) = 0.34426 0.34426
#
# Static dielectric constant tensor:
#      x y z
#    x 1.823870 0.000000 0.000000 
#    y 0.000000 1.823870 0.000000 
#    z 0.000000 0.000000 1.708430 
# 
# From -- ./inp_files/9729.got.cif
#   From: 2010.05.17/outbox.cif.g08.bks.cpg/sg131_5_cif.got.tgz:9729.got - 2010.05.20 12:21:01.
