data_PCOD9566313
_publ_section_title
;
Structure prediction by ZEFSAII (Michael W. Deem and Ramdas Pophale) SiO2 
 PCOD9566313
Probable space group: P 42/M M C
;
_chemical_formula_sum "Si O2"
_cell_formula_units_Z 96
_cell_length_a 19.006153
_cell_length_b 19.006153
_cell_length_c 15.732098
_cell_angle_alpha 90.000000
_cell_angle_beta 90.000000
_cell_angle_gamma 90.000000
_cell_volume 5682.966358
_symmetry_space_group_name_H-M "P 42/M M C"
_symmetry_group_IT_number 131
_symmetry_cell_setting 'tetragonal'
loop_
_space_group_symop_operation_xyz
x,y,z
-x,-y,z
-y,x,1/2+z
y,-x,1/2+z
-x,y,-z
x,-y,-z
y,x,1/2-z
-y,-x,1/2-z
-x,-y,-z
x,y,-z
y,-x,1/2-z
-y,x,1/2-z
x,-y,z
-x,y,z
-y,-x,1/2+z
y,x,1/2+z
loop_
_atom_site_type_symbol
_atom_site_label
_atom_site_fract_x
_atom_site_fract_y
_atom_site_fract_z
Si Si1 0.348520 0.421041 0.670675
Si Si2 0.834856 0.228803 0.400258
Si Si3 0.323612 0.274307 0.403253
Si Si4 0.081053 0.682407 0.267567
Si Si5 0.420422 0.200894 0.733052
Si Si6 0.920518 0.227570 0.902423
O O1 0.397977 0.397977 0.750000
O O2 0.366329 0.500000 0.640884
O O3 0.348269 0.355101 0.607258
O O4 0.268293 0.422233 0.704836
O O5 0.849507 0.244031 0.500000
O O6 0.758186 0.262735 0.378683
O O7 0.890624 0.260959 0.335609
O O8 0.825175 0.144775 0.390957
O O9 0.329567 0.251865 0.500000
O O10 0.372122 0.227534 0.343734
O O11 0.133055 0.616325 0.272735
O O12 0.085924 0.715397 0.172537
O O13 0.000000 0.665021 0.283669
O O14 0.500000 0.186030 0.706199
O O15 0.000000 0.197804 0.895506
O O16 0.913675 0.255169 0.000000
#
# Coordination Sequence:
#
# PCOD9566313 Si02
#       6
#    16  16  16  16  16  16
#     4   9  18  32  51  74 102 137 174 215 265 323
#     4  10  19  33  55  79 107 141 180 228 272 319
#     4  10  19  32  54  79 102 136 177 222 272 320
#     4  11  21  33  54  79 107 145 183 225 272 322
#     4  10  20  34  51  73 104 139 177 221 267 320
#     4   9  18  31  51  81 110 139 176 215 265 325
#
# _framework density 16.892586000000001
#
# number of rings (size 3 to 8) (size 9 to 14) (size 15 to 20)
#    0.000    2.167    3.333    0.500    0.000    1.500 
#    0.000    0.000    0.000    1.000    0.000   14.000 
#    0.000    0.000    0.000    0.000    0.000    0.000 
#
# Total GULP energy -534801.763043 kJ/mol
# GULP energy per Si atom -5570.851698 kJ/mol
# Density = 1.685414 g / cm^3
# Si number density = 16.892586 Si / 1000 Ang^3
#
#
#
# Elastic Constant Matrix: (Units=GPa)
#
#
# Indices 1 2 3 4 5 6 
#
# 1 97.9034 30.5027 19.5711 0.0000 0.0000 0.0000
# 2 30.5027 97.9034 19.5711 0.0000 0.0000 0.0000
# 3 19.5711 19.5711 39.3833 0.0000 0.0000 0.0000
# 4 0.0000 0.0000 0.0000 15.0576 0.0000 0.0000
# 5 0.0000 0.0000 0.0000 0.0000 15.0576 0.0000
# 6 0.0000 0.0000 0.0000 0.0000 0.0000 7.1360
#
#
#
# Elastic Compliance Matrix: (Units=1/GPa)
#
#
# Indices 1 2 3 4 5 6 
#
# 1 0.012007 -0.002829 -0.004561 0.000000 0.000000 0.000000
# 2 -0.002829 0.012007 -0.004561 0.000000 0.000000 0.000000
# 3 -0.004561 -0.004561 0.029924 0.000000 0.000000 0.000000
# 4 0.000000 0.000000 0.000000 0.066412 0.000000 0.000000
# 5 0.000000 0.000000 0.000000 0.000000 0.066412 0.000000
# 6 0.000000 0.000000 0.000000 0.000000 0.000000 0.140134
#
#
# Mechanical properties :
#
#
# Convention : Reuss Voigt Hill
#
# Bulk Modulus (GPa) = 33.29240 41.60888 37.45064
# Shear Modulus (GPa) = 13.85765 18.48660 16.17213
#
# Velocity S-wave (km/s) = 2.86726 3.31170 3.09747
# Velocity P-wave (km/s) = 5.54190 6.26962 5.91696
#
# Compressibility (1/GPa) = 0.03003689
#
# Stress axis : x y z
#
# Youngs Moduli (GPa) = 83.28220 83.28220 33.41747
#
# Poissons Ratio (x) = 0.23563 0.15242
# Poissons Ratio (y) = 0.23563 0.15242
# Poissons Ratio (z) = 0.37985 0.37985
#
# Static dielectric constant tensor:
#      x y z
#    x 1.576850 0.000000 0.000000 
#    y 0.000000 1.576850 0.000000 
#    z 0.000000 0.000000 1.574250 
# 
# From -- ./inp_files/7946.got.cif
#   From: 2010.05.17/outbox.cif.g08.bks.cpg/sg131_4_cif.got.tgz:7946.got - 2010.05.20 12:21:01.
