data_PCOD9566133
_publ_section_title
;
Structure prediction by ZEFSAII (Michael W. Deem and Ramdas Pophale) SiO2 
 PCOD9566133
Probable space group: P 42/M M C
;
_chemical_formula_sum "Si O2"
_cell_formula_units_Z 88
_cell_length_a 18.304819
_cell_length_b 18.304819
_cell_length_c 15.334431
_cell_angle_alpha 90.000000
_cell_angle_beta 90.000000
_cell_angle_gamma 90.000000
_cell_volume 5138.052570
_symmetry_space_group_name_H-M "P 42/M M C"
_symmetry_group_IT_number 131
_symmetry_cell_setting 'tetragonal'
loop_
_space_group_symop_operation_xyz
x,y,z
-x,-y,z
-y,x,1/2+z
y,-x,1/2+z
-x,y,-z
x,-y,-z
y,x,1/2-z
-y,-x,1/2-z
-x,-y,-z
x,y,-z
y,-x,1/2-z
-y,x,1/2-z
x,-y,z
-x,y,z
-y,-x,1/2+z
y,x,1/2+z
loop_
_atom_site_type_symbol
_atom_site_label
_atom_site_fract_x
_atom_site_fract_y
_atom_site_fract_z
Si Si1 0.793940 0.085789 0.101747
Si Si2 0.411316 0.918954 0.500000
Si Si3 0.587277 0.821013 0.338321
Si Si4 0.085043 0.085043 0.250000
Si Si5 0.696245 0.795091 0.810061
Si Si6 0.586037 0.500000 0.102108
Si Si7 0.357159 0.663637 0.602691
O O1 0.861004 0.098542 0.168688
O O2 0.731637 0.144307 0.127543
O O3 0.771797 0.000000 0.112325
O O4 0.814086 0.095679 0.000000
O O5 0.500000 0.919546 0.500000
O O6 0.390470 0.878767 0.588333
O O7 0.382560 0.000000 0.500000
O O8 0.500000 0.823276 0.324107
O O9 0.634414 0.829529 0.251452
O O10 0.610311 0.743758 0.379752
O O11 0.000000 0.094589 0.223957
O O12 0.760815 0.760815 0.750000
O O13 0.661555 0.722763 0.854617
O O14 0.500000 0.500000 0.103462
O O15 0.613250 0.577390 0.139045
O O16 0.611586 0.500000 0.000000
O O17 0.348176 0.649743 0.500000
#
# Coordination Sequence:
#
# PCOD9566133 Si02
#       7
#    16   8  16   8  16   8  16
#     4  10  20  36  58  81 111 151 191 233 283 339
#     4   9  18  32  54  82 102 128 175 229 285 348
#     4  10  19  33  54  74 103 142 178 224 283 348
#     4   9  18  34  56  84 116 146 181 228 280 338
#     4  10  21  34  51  79 109 144 188 231 276 340
#     4   9  18  30  50  80 108 139 179 226 273 320
#     4  10  18  32  54  74 103 145 184 222 275 335
#
# _framework density 17.127112
#
# number of rings (size 3 to 8) (size 9 to 14) (size 15 to 20)
#    0.000    2.273    2.727    0.545    0.000    1.818 
#    0.000    1.818    0.000    1.636    0.000    1.273 
#    0.000    0.000    0.000    0.000    0.000    0.000 
#
# Total GULP energy -490186.831986 kJ/mol
# GULP energy per Si atom -5570.304909 kJ/mol
# Density = 1.708813 g / cm^3
# Si number density = 17.127112 Si / 1000 Ang^3
#
#
#
# Elastic Constant Matrix: (Units=GPa)
#
#
# Indices 1 2 3 4 5 6 
#
# 1 84.6860 56.0457 57.3658 0.0000 0.0000 0.0000
# 2 56.0457 84.6860 57.3658 0.0000 0.0000 0.0000
# 3 57.3658 57.3658 107.5527 0.0000 0.0000 0.0000
# 4 0.0000 0.0000 0.0000 13.0955 0.0000 0.0000
# 5 0.0000 0.0000 0.0000 0.0000 13.0955 0.0000
# 6 0.0000 0.0000 0.0000 0.0000 0.0000 7.4796
#
#
#
# Elastic Compliance Matrix: (Units=1/GPa)
#
#
# Indices 1 2 3 4 5 6 
#
# 1 0.023744 -0.011172 -0.006706 0.000000 0.000000 0.000000
# 2 -0.011172 0.023744 -0.006706 0.000000 0.000000 0.000000
# 3 -0.006706 -0.006706 0.016451 0.000000 0.000000 0.000000
# 4 0.000000 0.000000 0.000000 0.076362 0.000000 0.000000
# 5 0.000000 0.000000 0.000000 0.000000 0.076362 0.000000
# 6 0.000000 0.000000 0.000000 0.000000 0.000000 0.133696
#
#
# Mechanical properties :
#
#
# Convention : Reuss Voigt Hill
#
# Bulk Modulus (GPa) = 67.69124 68.71994 68.20559
# Shear Modulus (GPa) = 12.36240 13.81061 13.08651
#
# Velocity S-wave (km/s) = 2.68955 2.84273 2.76720
# Velocity P-wave (km/s) = 7.01809 7.14041 7.07951
#
# Compressibility (1/GPa) = 0.01477296
#
# Stress axis : x y z
#
# Youngs Moduli (GPa) = 42.11537 42.11537 60.78523
#
# Poissons Ratio (x) = 0.47049 0.40763
# Poissons Ratio (y) = 0.47049 0.40763
# Poissons Ratio (z) = 0.28243 0.28243
#
# Static dielectric constant tensor:
#      x y z
#    x 1.582940 0.000000 0.000000 
#    y 0.000000 1.582940 0.000000 
#    z 0.000000 0.000000 1.595520 
# 
# From -- ./inp_files/5953.got.cif
#   From: 2010.05.17/outbox.cif.g08.bks.cpg/sg131_3_cif.got.tgz:5953.got - 2010.05.20 12:21:01.
