data_PCOD9566553
_publ_section_title
;
Structure prediction by ZEFSAII (Michael W. Deem and Ramdas Pophale) SiO2 
 PCOD9566553
Probable space group: P 42/M M C
;
_chemical_formula_sum "Si O2"
_cell_formula_units_Z 120
_cell_length_a 18.699381
_cell_length_b 18.699381
_cell_length_c 18.733353
_cell_angle_alpha 90.000000
_cell_angle_beta 90.000000
_cell_angle_gamma 90.000000
_cell_volume 6550.432529
_symmetry_space_group_name_H-M "P 42/M M C"
_symmetry_group_IT_number 131
_symmetry_cell_setting 'tetragonal'
loop_
_space_group_symop_operation_xyz
x,y,z
-x,-y,z
-y,x,1/2+z
y,-x,1/2+z
-x,y,-z
x,-y,-z
y,x,1/2-z
-y,-x,1/2-z
-x,-y,-z
x,y,-z
y,-x,1/2-z
-y,x,1/2-z
x,-y,z
-x,y,z
-y,-x,1/2+z
y,x,1/2+z
loop_
_atom_site_type_symbol
_atom_site_label
_atom_site_fract_x
_atom_site_fract_y
_atom_site_fract_z
Si Si1 0.185988 0.916928 0.792419
Si Si2 0.583766 0.584356 0.834709
Si Si3 0.790704 0.806142 0.918355
Si Si4 0.292545 0.653485 0.585414
Si Si5 0.915888 0.305950 0.078812
Si Si6 0.159977 0.583067 0.642741
Si Si7 0.657362 0.081986 0.269724
Si Si8 0.917520 0.412823 0.500000
O O1 0.122667 0.877333 0.750000
O O2 0.204818 0.870533 0.862587
O O3 0.257550 0.915150 0.744147
O O4 0.170193 0.000000 0.808244
O O5 0.595671 0.595671 0.750000
O O6 0.591903 0.500000 0.848485
O O7 0.500000 0.602409 0.850347
O O8 0.639134 0.630720 0.880372
O O9 0.728712 0.748041 0.900196
O O10 0.865064 0.762742 0.916992
O O11 0.777811 0.830216 0.000000
O O12 0.294243 0.643787 0.500000
O O13 0.241942 0.595437 0.623591
O O14 0.900156 0.354604 0.147425
O O15 0.000000 0.286873 0.084431
O O16 0.904317 0.338339 0.000000
O O17 0.142840 0.500000 0.649516
O O18 0.134501 0.621616 0.713726
O O19 0.119099 0.612829 0.572627
O O20 0.633928 0.000000 0.255419
O O21 0.911367 0.500000 0.500000
O O22 0.000000 0.393712 0.500000
#
# Coordination Sequence:
#
# PCOD9566553 Si02
#       8
#    16  16  16  16  16  16  16   8
#     4  11  22  37  57  84 117 153 195 241 295 354
#     4   9  20  39  60  83 114 155 204 255 306 358
#     4  10  21  37  57  84 117 155 196 237 288 351
#     4  11  22  36  56  86 122 156 193 241 294 356
#     4   9  18  35  60  84 107 142 191 241 290 345
#     4  11  21  33  51  79 114 152 193 236 288 354
#     4  10  20  34  54  79 108 147 192 238 286 343
#     4   9  18  32  48  68 105 155 194 228 277 340
#
# _framework density 18.319400999999999
#
# number of rings (size 3 to 8) (size 9 to 14) (size 15 to 20)
#    0.000    1.933    3.333    1.200    0.000    3.867 
#    0.000    0.667    0.000    0.400    0.000    6.533 
#    0.000    0.000    0.000    0.000    0.000    0.000 
#
# Total GULP energy -669302.371005 kJ/mol
# GULP energy per Si atom -5577.519758 kJ/mol
# Density = 1.827770 g / cm^3
# Si number density = 18.319401 Si / 1000 Ang^3
#
#
#
# Elastic Constant Matrix: (Units=GPa)
#
#
# Indices 1 2 3 4 5 6 
#
# 1 72.8240 37.7565 55.2598 0.0000 0.0000 0.0000
# 2 37.7565 72.8235 55.2602 0.0000 0.0000 0.0000
# 3 55.2598 55.2602 135.7084 0.0000 0.0000 0.0000
# 4 0.0000 0.0000 0.0000 26.1285 0.0000 0.0000
# 5 0.0000 0.0000 0.0000 0.0000 26.1286 0.0000
# 6 0.0000 0.0000 0.0000 0.0000 0.0000 16.3277
#
#
#
# Elastic Compliance Matrix: (Units=1/GPa)
#
#
# Indices 1 2 3 4 5 6 
#
# 1 0.021883 -0.006634 -0.006209 0.000000 0.000000 0.000000
# 2 -0.006634 0.021883 -0.006210 0.000000 0.000000 0.000000
# 3 -0.006209 -0.006210 0.012426 0.000000 0.000000 0.000000
# 4 0.000000 0.000000 0.000000 0.038272 0.000000 0.000000
# 5 0.000000 0.000000 0.000000 0.000000 0.038272 0.000000
# 6 0.000000 0.000000 0.000000 0.000000 0.000000 0.061246
#
#
# Mechanical properties :
#
#
# Convention : Reuss Voigt Hill
#
# Bulk Modulus (GPa) = 55.29012 64.21209 59.75111
# Shear Modulus (GPa) = 20.99818 22.58892 21.79355
#
# Velocity S-wave (km/s) = 3.38927 3.51530 3.45286
# Velocity P-wave (km/s) = 6.75003 7.18359 6.97018
#
# Compressibility (1/GPa) = 0.01808641
#
# Stress axis : x y z
#
# Youngs Moduli (GPa) = 45.69806 45.69731 80.47860
#
# Poissons Ratio (x) = 0.30314 0.49972
# Poissons Ratio (y) = 0.30315 0.49974
# Poissons Ratio (z) = 0.28375 0.28376
#
# Static dielectric constant tensor:
#      x y z
#    x 1.635850 0.000000 0.000000 
#    y 0.000000 1.635850 0.000000 
#    z 0.000000 0.000000 1.653800 
# 
# From -- ./inp_files/10133.got.cif
#   From: 2010.05.17/outbox.cif.g08.bks.cpg/sg131_6_cif.got.tgz:10133.got - 2010.05.20 12:21:01.
