data_PCOD9566330
_publ_section_title
;
Structure prediction by ZEFSAII (Michael W. Deem and Ramdas Pophale) SiO2 
 PCOD9566330
Probable space group: P 42/M M C
;
_chemical_formula_sum "Si O2"
_cell_formula_units_Z 88
_cell_length_a 18.549600
_cell_length_b 18.549600
_cell_length_c 15.244222
_cell_angle_alpha 90.000000
_cell_angle_beta 90.000000
_cell_angle_gamma 90.000000
_cell_volume 5245.348679
_symmetry_space_group_name_H-M "P 42/M M C"
_symmetry_group_IT_number 131
_symmetry_cell_setting 'tetragonal'
loop_
_space_group_symop_operation_xyz
x,y,z
-x,-y,z
-y,x,1/2+z
y,-x,1/2+z
-x,y,-z
x,-y,-z
y,x,1/2-z
-y,-x,1/2-z
-x,-y,-z
x,y,-z
y,-x,1/2-z
-y,x,1/2-z
x,-y,z
-x,y,z
-y,-x,1/2+z
y,x,1/2+z
loop_
_atom_site_type_symbol
_atom_site_label
_atom_site_fract_x
_atom_site_fract_y
_atom_site_fract_z
Si Si1 0.870502 0.077297 0.160667
Si Si2 0.586828 0.420247 0.000000
Si Si3 0.804849 0.668252 0.604368
Si Si4 0.232308 0.838146 0.599020
Si Si5 0.586688 0.331465 0.827326
Si Si6 0.292062 0.081220 0.763746
O O1 0.915697 0.084304 0.250000
O O2 0.874268 0.152311 0.108252
O O3 0.788119 0.076422 0.194784
O O4 0.885651 0.000000 0.116860
O O5 0.605526 0.377364 0.913570
O O6 0.500000 0.425297 0.000000
O O7 0.617797 0.500000 0.000000
O O8 0.813381 0.654415 0.500000
O O9 0.777643 0.751872 0.612648
O O10 0.747476 0.615524 0.649233
O O11 0.877320 0.663524 0.661675
O O12 0.258713 0.849868 0.500000
O O13 0.281270 0.872111 0.675329
O O14 0.630506 0.369495 0.750000
O O15 0.500000 0.333174 0.812740
O O16 0.316784 0.000000 0.745312
#
# Coordination Sequence:
#
# PCOD9566330 Si02
#       6
#    16   8  16  16  16  16
#     4   8  14  24  37  55  82 119 161 205 255 308
#     4   9  18  32  48  72 107 143 178 208 235 282
#     4  10  19  33  53  76 103 135 175 223 272 315
#     4   9  17  28  44  67  96 127 163 214 267 317
#     4  11  21  34  54  80 111 148 181 211 249 297
#     4   9  17  30  47  67  94 127 168 218 268 321
#
# _framework density 16.776769000000002
#
# number of rings (size 3 to 8) (size 9 to 14) (size 15 to 20)
#    0.000    2.636    0.909    3.273    0.000    2.182 
#    0.000    3.636    0.000    0.545    0.000    6.364 
#    0.000    0.000    0.000    6.182    0.000    0.182 
#
# Total GULP energy -489917.769356 kJ/mol
# GULP energy per Si atom -5567.247379 kJ/mol
# Density = 1.673858 g / cm^3
# Si number density = 16.776769 Si / 1000 Ang^3
#
#
#
# Elastic Constant Matrix: (Units=GPa)
#
#
# Indices 1 2 3 4 5 6 
#
# 1 40.8615 11.1869 20.1266 0.0000 0.0000 0.0000
# 2 11.1869 40.8621 20.1267 0.0000 0.0000 0.0000
# 3 20.1266 20.1267 103.8729 0.0000 0.0000 0.0000
# 4 0.0000 0.0000 0.0000 16.0098 0.0000 0.0000
# 5 0.0000 0.0000 0.0000 0.0000 16.0089 0.0000
# 6 0.0000 0.0000 0.0000 0.0000 0.0000 6.3516
#
#
#
# Elastic Compliance Matrix: (Units=1/GPa)
#
#
# Indices 1 2 3 4 5 6 
#
# 1 0.028149 -0.005550 -0.004379 0.000000 0.000000 0.000000
# 2 -0.005550 0.028149 -0.004379 0.000000 0.000000 0.000000
# 3 -0.004379 -0.004379 0.011324 0.000000 0.000000 0.000000
# 4 0.000000 0.000000 0.000000 0.062462 0.000000 0.000000
# 5 0.000000 0.000000 0.000000 0.000000 0.062465 0.000000
# 6 0.000000 0.000000 0.000000 0.000000 0.000000 0.157441
#
#
# Mechanical properties :
#
#
# Convention : Reuss Voigt Hill
#
# Bulk Modulus (GPa) = 25.63636 32.05299 28.84467
# Shear Modulus (GPa) = 12.76788 16.61779 14.69283
#
# Velocity S-wave (km/s) = 2.76170 3.15067 2.96258
# Velocity P-wave (km/s) = 5.04810 5.69058 5.37894
#
# Compressibility (1/GPa) = 0.03900710
#
# Stress axis : x y z
#
# Youngs Moduli (GPa) = 35.52508 35.52560 88.30743
#
# Poissons Ratio (x) = 0.19715 0.38669
# Poissons Ratio (y) = 0.19715 0.38669
# Poissons Ratio (z) = 0.15556 0.15556
#
# Static dielectric constant tensor:
#      x y z
#    x 1.584990 0.000000 0.000000 
#    y 0.000000 1.584990 0.000000 
#    z 0.000000 0.000000 1.582640 
# 
# From -- ./inp_files/5835.got.cif
#   From: 2010.05.17/outbox.cif.g08.bks.cpg/sg131_3_cif.got.tgz:5835.got - 2010.05.20 12:21:01.
