data_PCOD9566540
_publ_section_title
;
Structure prediction by ZEFSAII (Michael W. Deem and Ramdas Pophale) SiO2 
 PCOD9566540
Probable space group: P 42/M M C
;
_chemical_formula_sum "Si O2"
_cell_formula_units_Z 104
_cell_length_a 18.243949
_cell_length_b 18.243949
_cell_length_c 17.000249
_cell_angle_alpha 90.000000
_cell_angle_beta 90.000000
_cell_angle_gamma 90.000000
_cell_volume 5658.391355
_symmetry_space_group_name_H-M "P 42/M M C"
_symmetry_group_IT_number 131
_symmetry_cell_setting 'tetragonal'
loop_
_space_group_symop_operation_xyz
x,y,z
-x,-y,z
-y,x,1/2+z
y,-x,1/2+z
-x,y,-z
x,-y,-z
y,x,1/2-z
-y,-x,1/2-z
-x,-y,-z
x,y,-z
y,-x,1/2-z
-y,x,1/2-z
x,-y,z
-x,y,z
-y,-x,1/2+z
y,x,1/2+z
loop_
_atom_site_type_symbol
_atom_site_label
_atom_site_fract_x
_atom_site_fract_y
_atom_site_fract_z
Si Si1 0.668193 0.912843 0.673616
Si Si2 0.177355 0.085053 0.409822
Si Si3 0.301593 0.802331 0.804275
Si Si4 0.581917 0.791236 0.593481
Si Si5 0.353805 0.326529 0.095472
Si Si6 0.500000 0.416708 0.095328
Si Si7 0.784338 0.081672 0.093798
O O1 0.752601 0.903064 0.645523
O O2 0.658640 0.862733 0.750502
O O3 0.617585 0.869569 0.612260
O O4 0.654263 0.000000 0.680785
O O5 0.199743 0.104120 0.500000
O O6 0.106123 0.132264 0.391014
O O7 0.159700 0.000000 0.407438
O O8 0.246069 0.753931 0.750000
O O9 0.351936 0.747177 0.853580
O O10 0.258869 0.852325 0.866748
O O11 0.577138 0.784158 0.500000
O O12 0.500000 0.785932 0.627045
O O13 0.631313 0.721714 0.617916
O O14 0.425356 0.374230 0.115779
O O15 0.353244 0.314164 0.000000
O O16 0.500000 0.500000 0.125462
O O17 0.500000 0.420461 0.000000
O O18 0.768185 0.000000 0.124787
O O19 0.772185 0.080862 0.000000
#
# Coordination Sequence:
#
# PCOD9566540 Si02
#       7
#    16  16  16  16  16   8  16
#     4  11  22  36  54  77 109 150 194 241 291 342
#     4   9  17  30  49  73 102 137 178 227 287 358
#     4  12  21  36  55  80 108 148 192 242 286 343
#     4  10  20  35  57  86 118 152 190 232 279 344
#     4  10  20  37  62  90 119 154 193 233 285 347
#     4   9  18  36  66 100 127 151 184 229 283 347
#     4  10  20  34  53  76 103 139 188 245 299 349
#
# _framework density 18.379783
#
# number of rings (size 3 to 8) (size 9 to 14) (size 15 to 20)
#    0.000    1.769    3.077    1.846    0.000    5.846 
#    1.385    2.308    0.000    0.000    0.000    0.000 
#    0.000    4.923    0.000    0.000    0.000    0.000 
#
# Total GULP energy -579681.448062 kJ/mol
# GULP energy per Si atom -5573.860078 kJ/mol
# Density = 1.833795 g / cm^3
# Si number density = 18.379783 Si / 1000 Ang^3
#
#
#
# Elastic Constant Matrix: (Units=GPa)
#
#
# Indices 1 2 3 4 5 6 
#
# 1 106.1223 53.3116 31.1418 0.0000 0.0000 0.0000
# 2 53.3116 106.1224 31.1416 0.0000 0.0000 0.0000
# 3 31.1418 31.1416 25.2883 0.0000 0.0000 0.0000
# 4 0.0000 0.0000 0.0000 1.6799 0.0000 0.0000
# 5 0.0000 0.0000 0.0000 0.0000 1.6869 0.0000
# 6 0.0000 0.0000 0.0000 0.0000 0.0000 24.5641
#
#
#
# Elastic Compliance Matrix: (Units=1/GPa)
#
#
# Indices 1 2 3 4 5 6 
#
# 1 0.015511 -0.003424 -0.014885 0.000000 0.000000 0.000000
# 2 -0.003424 0.015511 -0.014884 0.000000 0.000000 0.000000
# 3 -0.014885 -0.014884 0.076204 0.000000 0.000000 0.000000
# 4 0.000000 0.000000 0.000000 0.595281 0.000000 0.000000
# 5 0.000000 0.000000 0.000000 0.000000 0.592802 0.000000
# 6 0.000000 0.000000 0.000000 0.000000 0.000000 0.040710
#
#
# Mechanical properties :
#
#
# Convention : Reuss Voigt Hill
#
# Bulk Modulus (GPa) = 24.48635 52.08034 38.28334
# Shear Modulus (GPa) = 3.53103 13.71538 8.62320
#
# Velocity S-wave (km/s) = 1.38756 2.73467 2.16838
# Velocity P-wave (km/s) = 3.98979 6.19422 5.20993
#
# Compressibility (1/GPa) = 0.04083908
#
# Stress axis : x y z
#
# Youngs Moduli (GPa) = 64.46911 64.46973 13.12271
#
# Poissons Ratio (x) = 0.22076 0.19533
# Poissons Ratio (y) = 0.22076 0.19532
# Poissons Ratio (z) = 0.95961 0.95960
#
# Static dielectric constant tensor:
#      x y z
#    x 1.643690 0.000000 0.000000 
#    y 0.000000 1.643690 0.000000 
#    z 0.000000 0.000000 1.698940 
# 
# From -- ./inp_files/8119.got.cif
#   From: 2010.05.17/outbox.cif.g08.bks.cpg/sg131_5_cif.got.tgz:8119.got - 2010.05.20 12:21:01.
