data_PCOD9566413
_publ_section_title
;
Structure prediction by ZEFSAII (Michael W. Deem and Ramdas Pophale) SiO2 
 PCOD9566413
Probable space group: P 42/M M C
;
_chemical_formula_sum "Si O2"
_cell_formula_units_Z 96
_cell_length_a 24.487639
_cell_length_b 24.487639
_cell_length_c 7.501152
_cell_angle_alpha 90.000000
_cell_angle_beta 90.000000
_cell_angle_gamma 90.000000
_cell_volume 4498.024269
_symmetry_space_group_name_H-M "P 42/M M C"
_symmetry_group_IT_number 131
_symmetry_cell_setting 'tetragonal'
loop_
_space_group_symop_operation_xyz
x,y,z
-x,-y,z
-y,x,1/2+z
y,-x,1/2+z
-x,y,-z
x,-y,-z
y,x,1/2-z
-y,-x,1/2-z
-x,-y,-z
x,y,-z
y,-x,1/2-z
-y,x,1/2-z
x,-y,z
-x,y,z
-y,-x,1/2+z
y,x,1/2+z
loop_
_atom_site_type_symbol
_atom_site_label
_atom_site_fract_x
_atom_site_fract_y
_atom_site_fract_z
Si Si1 0.434737 0.940342 0.214743
Si Si2 0.059157 0.270839 0.298375
Si Si3 0.652315 0.263955 0.213332
Si Si4 0.260340 0.176388 0.214396
Si Si5 0.563260 0.180321 0.217948
Si Si6 0.940889 0.852187 0.791540
O O1 0.500000 0.939905 0.250087
O O2 0.414882 0.880145 0.274806
O O3 0.414008 0.000000 0.279652
O O4 0.428419 0.941069 0.000000
O O5 0.059133 0.293808 0.500000
O O6 0.118065 0.279917 0.213211
O O7 0.061045 0.204919 0.309073
O O8 0.000000 0.284652 0.217522
O O9 0.675099 0.324902 0.250000
O O10 0.698891 0.222644 0.282421
O O11 0.597215 0.233719 0.275685
O O12 0.651089 0.260604 0.000000
O O13 0.199393 0.199393 0.250000
O O14 0.264808 0.172707 0.000000
O O15 0.500000 0.184394 0.270990
O O16 0.564565 0.179105 0.000000
O O17 0.893193 0.893193 0.750000
O O18 0.000000 0.878041 0.754104
O O19 0.938589 0.837775 0.000000
#
# Coordination Sequence:
#
# PCOD9566413 Si02
#       6
#    16  16  16  16  16  16
#     4   7   9  14  26  47  77 110 140 171 210 254
#     4   9  17  29  43  57  75  98 124 158 199 240
#     4   9  17  29  44  63  88 116 146 179 213 250
#     4   9  17  28  42  59  78 103 134 165 199 241
#     4   8  13  22  38  60  86 117 151 184 219 262
#     4  10  20  31  42  56  72  90 115 149 191 241
#
# _framework density 21.342704999999999
#
# number of rings (size 3 to 8) (size 9 to 14) (size 15 to 20)
#    0.000    3.333    0.000    2.500    0.000    3.167 
#    0.000    1.667    0.000    5.500    0.000    0.000 
#    0.000    2.333    0.000    8.333    0.000    3.333 
#
# Total GULP energy -534493.135621 kJ/mol
# GULP energy per Si atom -5567.636829 kJ/mol
# Density = 2.129413 g / cm^3
# Si number density = 21.342705 Si / 1000 Ang^3
#
#
#
# Elastic Constant Matrix: (Units=GPa)
#
#
# Indices 1 2 3 4 5 6 
#
# 1 107.2220 52.4122 0.8480 0.0000 0.0000 0.0000
# 2 52.4122 107.2196 0.8482 0.0000 0.0000 0.0000
# 3 0.8480 0.8482 59.9727 0.0000 0.0000 0.0000
# 4 0.0000 0.0000 0.0000 0.9600 0.0000 0.0000
# 5 0.0000 0.0000 0.0000 0.0000 0.9604 0.0000
# 6 0.0000 0.0000 0.0000 0.0000 0.0000 19.0208
#
#
#
# Elastic Compliance Matrix: (Units=1/GPa)
#
#
# Indices 1 2 3 4 5 6 
#
# 1 0.012255 -0.005990 -0.000089 0.000000 0.000000 0.000000
# 2 -0.005990 0.012255 -0.000089 0.000000 0.000000 0.000000
# 3 -0.000089 -0.000089 0.016677 0.000000 0.000000 0.000000
# 4 0.000000 0.000000 0.000000 1.041654 0.000000 0.000000
# 5 0.000000 0.000000 0.000000 0.000000 1.041286 0.000000
# 6 0.000000 0.000000 0.000000 0.000000 0.000000 0.052574
#
#
# Mechanical properties :
#
#
# Convention : Reuss Voigt Hill
#
# Bulk Modulus (GPa) = 34.65846 42.51456 38.58651
# Shear Modulus (GPa) = 2.27412 18.87530 10.57471
#
# Velocity S-wave (km/s) = 1.03336 2.97710 2.22833
# Velocity P-wave (km/s) = 4.20691 5.63744 4.97387
#
# Compressibility (1/GPa) = 0.02885298
#
# Stress axis : x y z
#
# Youngs Moduli (GPa) = 81.59824 81.59637 59.96369
#
# Poissons Ratio (x) = 0.48876 0.00531
# Poissons Ratio (y) = 0.48877 0.00532
# Poissons Ratio (z) = 0.00723 0.00723
#
# Static dielectric constant tensor:
#      x y z
#    x 1.825900 0.000000 0.000000 
#    y 0.000000 1.825900 0.000000 
#    z 0.000000 0.000000 1.848640 
# 
# From -- ./inp_files/2457.got.cif
#   From: 2010.05.17/outbox.cif.g08.bks.cpg/sg131_2_cif.got.tgz:2457.got - 2010.05.20 12:21:01.
