data_PCOD9566706
_publ_section_title
;
Structure prediction by ZEFSAII (Michael W. Deem and Ramdas Pophale) SiO2 
 PCOD9566706
Probable space group: P 42/M M C
;
_chemical_formula_sum "Si O2"
_cell_formula_units_Z 84
_cell_length_a 12.838576
_cell_length_b 12.838576
_cell_length_c 27.685736
_cell_angle_alpha 90.000000
_cell_angle_beta 90.000000
_cell_angle_gamma 90.000000
_cell_volume 4563.413112
_symmetry_space_group_name_H-M "P 42/M M C"
_symmetry_group_IT_number 131
_symmetry_cell_setting 'tetragonal'
loop_
_space_group_symop_operation_xyz
x,y,z
-x,-y,z
-y,x,1/2+z
y,-x,1/2+z
-x,y,-z
x,-y,-z
y,x,1/2-z
-y,-x,1/2-z
-x,-y,-z
x,y,-z
y,-x,1/2-z
-y,x,1/2-z
x,-y,z
-x,y,z
-y,-x,1/2+z
y,x,1/2+z
loop_
_atom_site_type_symbol
_atom_site_label
_atom_site_fract_x
_atom_site_fract_y
_atom_site_fract_z
Si Si1 0.378244 0.174165 0.425844
Si Si2 0.380511 0.744379 0.055379
Si Si3 0.381444 0.783151 0.754141
Si Si4 0.308122 0.000000 0.500000
Si Si5 0.879700 0.259733 0.832029
Si Si6 0.876445 0.686158 0.646310
O O1 0.500000 0.158378 0.435758
O O2 0.343125 0.291974 0.437176
O O3 0.348969 0.149086 0.370796
O O4 0.315880 0.091862 0.458325
O O5 0.500000 0.708177 0.061976
O O6 0.355180 0.830794 0.095748
O O7 0.371166 0.782629 0.000000
O O8 0.331677 0.668324 0.750000
O O9 0.500000 0.787035 0.737569
O O10 0.306840 0.852349 0.720184
O O11 0.374009 0.824133 0.808803
O O12 0.804103 0.164339 0.845485
O O13 0.000000 0.232355 0.835199
O O14 0.000000 0.677794 0.647917
#
# Coordination Sequence:
#
# PCOD9566706 Si02
#       6
#    16  16  16   4  16  16
#     4  11  21  34  55  83 114 149 184 221 272 328
#     4  10  22  38  55  79 110 144 186 232 275 325
#     4  10  21  37  57  83 112 143 180 221 269 324
#     4  12  21  32  54  82 113 152 189 220 268 328
#     4  10  21  36  56  83 113 142 179 227 273 325
#     4  10  22  39  58  80 107 142 183 227 277 327
#
# _framework density 18.407276
#
# number of rings (size 3 to 8) (size 9 to 14) (size 15 to 20)
#    0.000    1.714    1.905    2.571    0.000    4.762 
#    0.000    1.905    0.000   10.286    0.000    5.333 
#    0.000    0.000    0.000    0.000    0.000    0.000 
#
# Total GULP energy -467687.138056 kJ/mol
# GULP energy per Si atom -5567.704024 kJ/mol
# Density = 1.836538 g / cm^3
# Si number density = 18.407276 Si / 1000 Ang^3
#
#
#
# Elastic Constant Matrix: (Units=GPa)
#
#
# Indices 1 2 3 4 5 6 
#
# 1 82.4359 -10.5539 1.5863 0.0000 0.0000 0.0000
# 2 -10.5539 82.4345 1.5857 0.0000 0.0000 0.0000
# 3 1.5863 1.5857 104.7158 0.0000 0.0000 0.0000
# 4 0.0000 0.0000 0.0000 0.8022 0.0000 0.0000
# 5 0.0000 0.0000 0.0000 0.0000 0.8020 0.0000
# 6 0.0000 0.0000 0.0000 0.0000 0.0000 0.3380
#
#
#
# Elastic Compliance Matrix: (Units=1/GPa)
#
#
# Indices 1 2 3 4 5 6 
#
# 1 0.012337 0.001584 -0.000211 0.000000 0.000000 0.000000
# 2 0.001584 0.012338 -0.000211 0.000000 0.000000 0.000000
# 3 -0.000211 -0.000211 0.009556 0.000000 0.000000 0.000000
# 4 0.000000 0.000000 0.000000 1.246575 0.000000 0.000000
# 5 0.000000 0.000000 0.000000 0.000000 1.246942 0.000000
# 6 0.000000 0.000000 0.000000 0.000000 0.000000 2.958786
#
#
# Mechanical properties :
#
#
# Convention : Reuss Voigt Hill
#
# Bulk Modulus (GPa) = 27.35610 28.31360 27.83485
# Shear Modulus (GPa) = 0.90969 18.85297 9.88133
#
# Velocity S-wave (km/s) = 0.70376 3.20380 2.31944
# Velocity P-wave (km/s) = 3.94388 5.39453 4.72521
#
# Compressibility (1/GPa) = 0.03655492
#
# Stress axis : x y z
#
# Youngs Moduli (GPa) = 81.05412 81.05276 104.64584
#
# Poissons Ratio (x) = -0.12835 0.02207
# Poissons Ratio (y) = -0.12836 0.02206
# Poissons Ratio (z) = 0.01709 0.01709
#
# Static dielectric constant tensor:
#      x y z
#    x 1.620210 0.000000 0.000000 
#    y 0.000000 1.620210 0.000000 
#    z 0.000000 0.000000 1.673550 
# 
# From -- ./inp_files/13554.got.cif
#   From: 2010.05.17/outbox.cif.g08.bks.cpg/sg131_7_cif.got.tgz:13554.got - 2010.05.20 12:21:01.
