data_PCOD9566718
_publ_section_title
;
Structure prediction by ZEFSAII (Michael W. Deem and Ramdas Pophale) SiO2 
 PCOD9566718
Probable space group: P 42/M M C
;
_chemical_formula_sum "Si O2"
_cell_formula_units_Z 96
_cell_length_a 24.500398
_cell_length_b 24.500398
_cell_length_c 8.855794
_cell_angle_alpha 90.000000
_cell_angle_beta 90.000000
_cell_angle_gamma 90.000000
_cell_volume 5315.863056
_symmetry_space_group_name_H-M "P 42/M M C"
_symmetry_group_IT_number 131
_symmetry_cell_setting 'tetragonal'
loop_
_space_group_symop_operation_xyz
x,y,z
-x,-y,z
-y,x,1/2+z
y,-x,1/2+z
-x,y,-z
x,-y,-z
y,x,1/2-z
-y,-x,1/2-z
-x,-y,-z
x,y,-z
y,-x,1/2-z
-y,x,1/2-z
x,-y,z
-x,y,z
-y,-x,1/2+z
y,x,1/2+z
loop_
_atom_site_type_symbol
_atom_site_label
_atom_site_fract_x
_atom_site_fract_y
_atom_site_fract_z
Si Si1 0.357615 0.862438 0.174763
Si Si2 0.064796 0.563930 0.166842
Si Si3 0.562956 0.647602 0.680212
Si Si4 0.232361 0.437609 0.682789
Si Si5 0.062728 0.852636 0.319832
Si Si6 0.062487 0.732497 0.180611
O O1 0.404690 0.907272 0.198555
O O2 0.388862 0.808084 0.231953
O O3 0.306983 0.889832 0.260360
O O4 0.343256 0.854784 0.000000
O O5 0.076815 0.500000 0.173448
O O6 0.000000 0.570550 0.171867
O O7 0.083090 0.584606 0.000000
O O8 0.604643 0.604643 0.750000
O O9 0.569916 0.650587 0.500000
O O10 0.500000 0.631740 0.711818
O O11 0.570984 0.707502 0.751231
O O12 0.233834 0.436503 0.500000
O O13 0.214884 0.500000 0.726239
O O14 0.104983 0.895018 0.250000
O O15 0.069717 0.849569 0.500000
O O16 0.069924 0.792552 0.249607
O O17 0.000000 0.869334 0.288247
O O18 0.000000 0.713985 0.222282
O O19 0.064359 0.734981 0.000000
#
# Coordination Sequence:
#
# PCOD9566718 Si02
#       6
#    16  16  16  16  16  16
#     4  11  21  32  50  76 104 138 183 229 274 326
#     4   9  18  31  45  64  94 132 174 223 278 330
#     4  10  21  37  59  86 113 142 175 212 259 315
#     4   9  19  36  55  76 107 145 182 224 273 321
#     4  10  21  38  61  88 117 147 179 218 266 321
#     4  10  21  37  56  78 108 147 188 230 277 326
#
# _framework density 18.059156000000002
#
# number of rings (size 3 to 8) (size 9 to 14) (size 15 to 20)
#    0.000    2.167    0.000    3.500    0.000    8.000 
#    0.000    5.000    0.000    4.000    0.000    0.000 
#    0.000    0.000    0.000    0.000    0.000    0.000 
#
# Total GULP energy -535435.952257 kJ/mol
# GULP energy per Si atom -5577.457836 kJ/mol
# Density = 1.801805 g / cm^3
# Si number density = 18.059156 Si / 1000 Ang^3
#
#
#
# Elastic Constant Matrix: (Units=GPa)
#
#
# Indices 1 2 3 4 5 6 
#
# 1 113.0593 89.9928 47.8116 0.0000 0.0000 0.0000
# 2 89.9928 113.0638 47.8145 0.0000 0.0000 0.0000
# 3 47.8116 47.8145 44.9637 0.0000 0.0000 0.0000
# 4 0.0000 0.0000 0.0000 28.1387 0.0000 0.0000
# 5 0.0000 0.0000 0.0000 0.0000 28.1388 0.0000
# 6 0.0000 0.0000 0.0000 0.0000 0.0000 39.0884
#
#
#
# Elastic Compliance Matrix: (Units=1/GPa)
#
#
# Indices 1 2 3 4 5 6 
#
# 1 0.026606 -0.016742 -0.010488 0.000000 0.000000 0.000000
# 2 -0.016742 0.026607 -0.010492 0.000000 0.000000 0.000000
# 3 -0.010488 -0.010492 0.044550 0.000000 0.000000 0.000000
# 4 0.000000 0.000000 0.000000 0.035538 0.000000 0.000000
# 5 0.000000 0.000000 0.000000 0.000000 0.035538 0.000000
# 6 0.000000 0.000000 0.000000 0.000000 0.000000 0.025583
#
#
# Mechanical properties :
#
#
# Convention : Reuss Voigt Hill
#
# Bulk Modulus (GPa) = 44.80414 71.36938 58.08676
# Shear Modulus (GPa) = 18.03058 24.77106 21.40082
#
# Velocity S-wave (km/s) = 3.16320 3.70761 3.44618
# Velocity P-wave (km/s) = 6.18099 7.61145 6.93321
#
# Compressibility (1/GPa) = 0.02231937
#
# Stress axis : x y z
#
# Youngs Moduli (GPa) = 37.58489 37.58382 22.44675
#
# Poissons Ratio (x) = 0.62922 0.23543
# Poissons Ratio (y) = 0.62924 0.23551
# Poissons Ratio (z) = 0.39420 0.39433
#
# Static dielectric constant tensor:
#      x y z
#    x 1.611580 0.000000 0.000000 
#    y 0.000000 1.611580 0.000000 
#    z 0.000000 0.000000 1.628070 
# 
# From -- ./inp_files/2218.got.cif
#   From: 2010.05.17/outbox.cif.g08.bks.cpg/sg131_2_cif.got.tgz:2218.got - 2010.05.20 12:21:01.
