data_PCOD9566969
_publ_section_title
;
Structure prediction by ZEFSAII (Michael W. Deem and Ramdas Pophale) SiO2 
 PCOD9566969
Probable space group: P 42/M C M
;
_chemical_formula_sum "Si O2"
_cell_formula_units_Z 80
_cell_length_a 14.742917
_cell_length_b 14.742917
_cell_length_c 14.148313
_cell_angle_alpha 90.000000
_cell_angle_beta 90.000000
_cell_angle_gamma 90.000000
_cell_volume 3075.186788
_symmetry_space_group_name_H-M "P 42/M C M"
_symmetry_group_IT_number 132
_symmetry_cell_setting 'tetragonal'
loop_
_space_group_symop_operation_xyz
x,y,z
-y,x,1/2+z
-x,-y,z
y,-x,1/2+z
x,-y,1/2-z
-x,y,1/2-z
y,x,-z
-y,-x,-z
-x,-y,-z
y,-x,1/2-z
x,y,-z
-y,x,1/2-z
-x,y,1/2+z
x,-y,1/2+z
-y,-x,z
y,x,z
loop_
_atom_site_type_symbol
_atom_site_label
_atom_site_fract_x
_atom_site_fract_y
_atom_site_fract_z
Si Si1 0.483802 0.851130 0.605012
Si Si2 0.177345 0.319130 0.612903
Si Si3 0.644375 0.497890 0.136178
Si Si4 0.718037 0.858641 0.115082
Si Si5 0.974389 0.165309 0.113024
O O1 0.488405 0.892578 0.500000
O O2 0.583899 0.858331 0.650532
O O3 0.481107 0.742294 0.598321
O O4 0.385320 0.877048 0.645360
O O5 0.191374 0.333277 0.500000
O O6 0.268714 0.268714 0.649596
O O7 0.099338 0.244918 0.622182
O O8 0.650666 0.500000 0.250000
O O9 0.596312 0.403689 0.108923
O O10 0.575403 0.575403 0.107692
O O11 0.760741 0.760741 0.139358
O O12 0.790128 0.933464 0.150192
O O13 0.715922 0.863375 0.000000
O O14 0.925872 0.074129 0.149773
O O15 0.988869 0.150338 0.000000
#
# Coordination Sequence:
#
# PCOD9566969 Si02
#       5
#    16  16  16  16  16
#     4  10  18  27  42  64  91 118 143 181 231 272
#     4   8  14  24  38  58  82 108 142 180 217 263
#     4   9  18  31  44  59  83 118 158 192 220 259
#     4   9  17  26  36  56  85 115 150 187 221 264
#     4   8  14  25  39  55  80 113 146 184 227 265
#
# _framework density 26.014682000000001
#
# number of rings (size 3 to 8) (size 9 to 14) (size 15 to 20)
#    0.000    3.200    0.000    3.000    0.000    3.600 
#    0.000    7.000    0.000    0.000    0.000    2.800 
#    0.000    0.000    0.000    0.000    0.000   17.000 
#
# Total GULP energy -446664.899398 kJ/mol
# GULP energy per Si atom -5583.311242 kJ/mol
# Density = 2.595547 g / cm^3
# Si number density = 26.014682 Si / 1000 Ang^3
#
#
#
# Elastic Constant Matrix: (Units=GPa)
#
#
# Indices 1 2 3 4 5 6 
#
# 1 136.1918 58.0014 15.0246 0.0000 0.0000 0.0000
# 2 58.0014 136.1918 15.0246 0.0000 0.0000 0.0000
# 3 15.0246 15.0246 117.8467 0.0000 0.0000 0.0000
# 4 0.0000 0.0000 0.0000 -0.2812 0.0000 0.0000
# 5 0.0000 0.0000 0.0000 0.0000 -0.2812 0.0000
# 6 0.0000 0.0000 0.0000 0.0000 0.0000 48.7130
#
#
#
# Elastic Compliance Matrix: (Units=1/GPa)
#
#
# Indices 1 2 3 4 5 6 
#
# 1 0.009021 -0.003768 -0.000670 0.000000 0.000000 0.000000
# 2 -0.003768 0.009021 -0.000670 0.000000 0.000000 0.000000
# 3 -0.000670 -0.000670 0.008656 0.000000 0.000000 0.000000
# 4 0.000000 0.000000 0.000000 -3.555574 0.000000 0.000000
# 5 0.000000 0.000000 0.000000 0.000000 -3.555574 0.000000
# 6 0.000000 0.000000 0.000000 0.000000 0.000000 0.020528
#
#
# Mechanical properties :
#
#
# Convention : Reuss Voigt Hill
#
# Bulk Modulus (GPa) = 60.66593 62.92572 61.79583
# Shear Modulus (GPa) = -0.70940 29.77543 14.53302
#
# Velocity S-wave (km/s) = -0.52277 3.38681 2.36614
# Velocity P-wave (km/s) = 4.79647 6.28769 5.59201
#
# Compressibility (1/GPa) = 0.01648372
#
# Stress axis : x y z
#
# Youngs Moduli (GPa) = 110.84981 110.84981 115.52182
#
# Poissons Ratio (x) = 0.41769 0.07737
# Poissons Ratio (y) = 0.41769 0.07737
# Poissons Ratio (z) = 0.07424 0.07424
#
# Static dielectric constant tensor:
#      x y z
#    x 2.016900 0.000000 0.000000 
#    y 0.000000 2.016900 0.000000 
#    z 0.000000 0.000000 2.041490 
# 
# From -- ./inp_files/7629.got.cif
#   From: 2010.05.17/outbox.cif.g08.bks.cpg/sg132_4_cif.got.tgz:7629.got - 2010.05.20 12:30:18.
