data_PCOD9566924
_publ_section_title
;
Structure prediction by ZEFSAII (Michael W. Deem and Ramdas Pophale) SiO2 
 PCOD9566924
Probable space group: P 42/M M C
;
_chemical_formula_sum "Si O2"
_cell_formula_units_Z 112
_cell_length_a 15.000000
_cell_length_b 15.000000
_cell_length_c 27.000000
_cell_angle_alpha 90.000000
_cell_angle_beta 90.000000
_cell_angle_gamma 90.000000
_cell_volume 6075.000000
_symmetry_space_group_name_H-M "P 42/M M C"
_symmetry_group_IT_number 131
_symmetry_cell_setting 'tetragonal'
loop_
_space_group_symop_operation_xyz
x,y,z
-x,-y,z
-y,x,1/2+z
y,-x,1/2+z
-x,y,-z
x,-y,-z
y,x,1/2-z
-y,-x,1/2-z
-x,-y,-z
x,y,-z
y,-x,1/2-z
-y,x,1/2-z
x,-y,z
-x,y,z
-y,-x,1/2+z
y,x,1/2+z
loop_
_atom_site_type_symbol
_atom_site_label
_atom_site_fract_x
_atom_site_fract_y
_atom_site_fract_z
Si Si1 0.190840 0.107448 0.698836
Si Si2 0.607383 0.606789 0.868245
Si Si3 0.894907 0.398800 0.214082
Si Si4 0.891072 0.249372 0.374144
Si Si5 0.278720 0.267642 0.559506
Si Si6 0.397885 0.099758 0.560038
Si Si7 0.398231 0.215033 0.813263
O O1 0.155545 0.155545 0.750000
O O2 0.298994 0.118168 0.691001
O O3 0.137593 0.159082 0.655265
O O4 0.173938 0.000000 0.701216
O O5 0.633644 0.500000 0.862468
O O6 0.500000 0.605103 0.875627
O O7 0.657680 0.659540 0.913017
O O8 0.624555 0.679967 0.823658
O O9 0.886148 0.500000 0.190331
O O10 0.821094 0.398510 0.257418
O O11 0.000000 0.396712 0.230870
O O12 0.823774 0.260332 0.421351
O O13 0.851988 0.330236 0.340532
O O14 0.000000 0.253323 0.380968
O O15 0.281436 0.279207 0.500000
O O16 0.328178 0.175190 0.573719
O O17 0.396232 0.095181 0.500000
O O18 0.500000 0.122483 0.573479
O O19 0.378137 0.000000 0.579364
O O20 0.500000 0.203675 0.832192
#
# Coordination Sequence:
#
# PCOD9566924 Si02
#       7
#    16  16  16  16  16  16  16
#     4  11  22  37  58  84 116 149 185 229 279 340
#     4   9  18  32  52  82 119 155 189 226 274 338
#     4   9  17  32  57  84 110 144 185 228 275 330
#     4  11  23  38  56  79 108 143 187 235 283 340
#     4  10  21  36  55  78 107 144 187 236 286 335
#     4   8  14  27  49  74  97 126 169 218 267 320
#     4   9  17  32  55  80 107 141 182 226 271 326
#
# _framework density 18.436214
#
# number of rings (size 3 to 8) (size 9 to 14) (size 15 to 20)
#    0.000    2.429    1.429    1.714    0.000    3.857 
#    0.000    4.286    0.000    2.571    0.000    7.000 
#    0.000    0.000    0.000    0.000    0.000    0.000 
#
# Total GULP energy -623498.146153 kJ/mol
# GULP energy per Si atom -5566.947734 kJ/mol
# Density = 1.839425 g / cm^3
# Si number density = 18.436214 Si / 1000 Ang^3
#
#
#
# Elastic Constant Matrix: (Units=GPa)
#
#
# Indices 1 2 3 4 5 6 
#
# 1 140.6627 44.0300 22.7089 0.0000 0.0000 0.0000
# 2 44.0300 140.6627 22.7089 0.0000 0.0000 0.0000
# 3 22.7089 22.7089 57.6939 0.0000 0.0000 0.0000
# 4 0.0000 0.0000 0.0000 22.6048 0.0000 0.0000
# 5 0.0000 0.0000 0.0000 0.0000 22.6048 0.0000
# 6 0.0000 0.0000 0.0000 0.0000 0.0000 36.8058
#
#
#
# Elastic Compliance Matrix: (Units=1/GPa)
#
#
# Indices 1 2 3 4 5 6 
#
# 1 0.008172 -0.002177 -0.002360 0.000000 0.000000 0.000000
# 2 -0.002177 0.008172 -0.002360 0.000000 0.000000 0.000000
# 3 -0.002360 -0.002360 0.019190 0.000000 0.000000 0.000000
# 4 0.000000 0.000000 0.000000 0.044238 0.000000 0.000000
# 5 0.000000 0.000000 0.000000 0.000000 0.044238 0.000000
# 6 0.000000 0.000000 0.000000 0.000000 0.000000 0.027170
#
#
# Mechanical properties :
#
#
# Convention : Reuss Voigt Hill
#
# Bulk Modulus (GPa) = 45.99516 57.54610 51.77063
# Shear Modulus (GPa) = 29.03281 33.04118 31.03699
#
# Velocity S-wave (km/s) = 3.97264 4.23802 4.10747
# Velocity P-wave (km/s) = 6.78564 7.43163 7.11597
#
# Compressibility (1/GPa) = 0.02174142
#
# Stress axis : x y z
#
# Youngs Moduli (GPa) = 122.37575 122.37575 52.10954
#
# Poissons Ratio (x) = 0.26640 0.12296
# Poissons Ratio (y) = 0.26640 0.12296
# Poissons Ratio (z) = 0.28875 0.28875
#
# Static dielectric constant tensor:
#      x y z
#    x 1.649330 0.000000 0.000000 
#    y 0.000000 1.649330 0.000000 
#    z 0.000000 0.000000 1.682730 
# 
# From -- ./inp_files/12447.got.cif
#   From: 2010.05.17/outbox.ucp.g08.bks.cvg/sg131_7_cif.got.tgz:12447.got - 2010.06.11 11:38:44.
