data_PCOD9566856
_publ_section_title
;
Structure prediction by ZEFSAII (Michael W. Deem and Ramdas Pophale) SiO2 
 PCOD9566856
Probable space group: P 42/M M C
;
_chemical_formula_sum "Si O2"
_cell_formula_units_Z 64
_cell_length_a 13.577867
_cell_length_b 13.577867
_cell_length_c 17.918030
_cell_angle_alpha 90.000000
_cell_angle_beta 90.000000
_cell_angle_gamma 90.000000
_cell_volume 3303.340637
_symmetry_space_group_name_H-M "P 42/M M C"
_symmetry_group_IT_number 131
_symmetry_cell_setting 'tetragonal'
loop_
_space_group_symop_operation_xyz
x,y,z
-x,-y,z
-y,x,1/2+z
y,-x,1/2+z
-x,y,-z
x,-y,-z
y,x,1/2-z
-y,-x,1/2-z
-x,-y,-z
x,y,-z
y,-x,1/2-z
-y,x,1/2-z
x,-y,z
-x,y,z
-y,-x,1/2+z
y,x,1/2+z
loop_
_atom_site_type_symbol
_atom_site_label
_atom_site_fract_x
_atom_site_fract_y
_atom_site_fract_z
Si Si1 0.000000 0.619128 0.839959
Si Si2 0.186053 0.293287 0.586722
Si Si3 0.118891 0.111816 0.667351
Si Si4 0.613741 0.787956 0.409893
Si Si5 0.000000 0.383525 0.329363
O O1 0.103795 0.642151 0.879177
O O2 0.000000 0.655607 0.755017
O O3 0.000000 0.500000 0.838081
O O4 0.182230 0.320636 0.500000
O O5 0.152797 0.181071 0.601263
O O6 0.300728 0.289998 0.612230
O O7 0.101142 0.350949 0.630748
O O8 0.149598 0.149598 0.750000
O O9 0.000000 0.111625 0.670023
O O10 0.151864 0.000000 0.656989
O O11 0.615417 0.792437 0.500000
O O12 0.500000 0.766106 0.387304
O O13 0.000000 0.500000 0.327201
#
# Coordination Sequence:
#
# PCOD9566856 Si02
#       5
#     8  16  16  16   8
#     4   9  19  35  57  85 111 147 188 221 278 341
#     4  11  23  35  54  79 104 148 190 222 278 331
#     4   9  19  33  49  74 109 146 180 217 270 321
#     4   9  19  35  55  83 117 145 179 230 284 342
#     4  11  25  41  56  79 111 148 196 242 279 330
#
# _framework density 19.374326
#
# number of rings (size 3 to 8) (size 9 to 14) (size 15 to 20)
#    0.000    2.250    1.250    1.500    5.250    3.000 
#    0.000    1.250    0.000    0.750    0.000    3.500 
#    0.000    6.000    0.000    0.250    0.000    0.000 
#
# Total GULP energy -356757.089154 kJ/mol
# GULP energy per Si atom -5574.329518 kJ/mol
# Density = 1.933023 g / cm^3
# Si number density = 19.374326 Si / 1000 Ang^3
#
#
#
# Elastic Constant Matrix: (Units=GPa)
#
#
# Indices 1 2 3 4 5 6 
#
# 1 94.2606 42.2270 19.4255 0.0000 0.0000 0.0000
# 2 42.2270 94.2606 19.4255 0.0000 0.0000 0.0000
# 3 19.4255 19.4255 30.7031 0.0000 0.0000 0.0000
# 4 0.0000 0.0000 0.0000 22.5429 0.0000 0.0000
# 5 0.0000 0.0000 0.0000 0.0000 22.5429 0.0000
# 6 0.0000 0.0000 0.0000 0.0000 0.0000 19.4531
#
#
#
# Elastic Compliance Matrix: (Units=1/GPa)
#
#
# Indices 1 2 3 4 5 6 
#
# 1 0.014077 -0.005141 -0.005654 0.000000 0.000000 0.000000
# 2 -0.005141 0.014077 -0.005654 0.000000 0.000000 0.000000
# 3 -0.005654 -0.005654 0.039724 0.000000 0.000000 0.000000
# 4 0.000000 0.000000 0.000000 0.044360 0.000000 0.000000
# 5 0.000000 0.000000 0.000000 0.000000 0.044360 0.000000
# 6 0.000000 0.000000 0.000000 0.000000 0.000000 0.051406
#
#
# Mechanical properties :
#
#
# Convention : Reuss Voigt Hill
#
# Bulk Modulus (GPa) = 28.58677 42.37560 35.48119
# Shear Modulus (GPa) = 19.79716 22.11752 20.95734
#
# Velocity S-wave (km/s) = 3.20007 3.38241 3.29250
# Velocity P-wave (km/s) = 5.33300 6.09703 5.72777
#
# Compressibility (1/GPa) = 0.03498121
#
# Stress axis : x y z
#
# Youngs Moduli (GPa) = 71.03700 71.03700 25.17367
#
# Poissons Ratio (x) = 0.36521 0.14232
# Poissons Ratio (y) = 0.36521 0.14232
# Poissons Ratio (z) = 0.40162 0.40162
#
# Static dielectric constant tensor:
#      x y z
#    x 1.721630 0.000000 0.000000 
#    y 0.000000 1.721630 0.000000 
#    z 0.000000 0.000000 1.673090 
# 
# From -- ./inp_files/7361.got.cif
#   From: 2010.05.17/outbox.cif.g08.bks.cpg/sg131_4_cif.got.tgz:7361.got - 2010.05.20 12:21:01.
