data_PCOD9566914
_publ_section_title
;
Structure prediction by ZEFSAII (Michael W. Deem and Ramdas Pophale) SiO2 
 PCOD9566914
Probable space group: P 42/M M C
;
_chemical_formula_sum "Si O2"
_cell_formula_units_Z 72
_cell_length_a 15.000000
_cell_length_b 15.000000
_cell_length_c 18.000000
_cell_angle_alpha 90.000000
_cell_angle_beta 90.000000
_cell_angle_gamma 90.000000
_cell_volume 4050.000000
_symmetry_space_group_name_H-M "P 42/M M C"
_symmetry_group_IT_number 131
_symmetry_cell_setting 'tetragonal'
loop_
_space_group_symop_operation_xyz
x,y,z
-x,-y,z
-y,x,1/2+z
y,-x,1/2+z
-x,y,-z
x,-y,-z
y,x,1/2-z
-y,-x,1/2-z
-x,-y,-z
x,y,-z
y,-x,1/2-z
-y,x,1/2-z
x,-y,z
-x,y,z
-y,-x,1/2+z
y,x,1/2+z
loop_
_atom_site_type_symbol
_atom_site_label
_atom_site_fract_x
_atom_site_fract_y
_atom_site_fract_z
Si Si1 0.500000 0.603240 0.412826
Si Si2 0.712205 0.841251 0.201971
Si Si3 0.000000 0.753315 0.088257
Si Si4 0.390566 0.000000 0.286941
Si Si5 0.394833 0.331825 0.829989
Si Si6 0.147983 0.900879 0.912319
O O1 0.500000 0.500000 0.384708
O O2 0.500000 0.601532 0.500000
O O3 0.407295 0.642892 0.384922
O O4 0.786860 0.786860 0.250000
O O5 0.652585 0.762721 0.167407
O O6 0.765578 0.892145 0.138208
O O7 0.650074 0.911464 0.246365
O O8 0.916745 0.818361 0.106069
O O9 0.000000 0.661904 0.134130
O O10 0.000000 0.736697 0.000000
O O11 0.500000 0.000000 0.289463
O O12 0.374892 0.374892 0.750000
O O13 0.500000 0.319522 0.841421
O O14 0.108043 0.000000 0.899915
O O15 0.167714 0.894667 0.000000
#
# Coordination Sequence:
#
# PCOD9566914 Si02
#       6
#     8  16   8   8  16  16
#     4   9  18  32  54  82 108 137 181 240 301 356
#     4  11  22  37  58  85 117 156 205 251 299 351
#     4  10  21  39  62  92 124 159 197 247 315 375
#     4  12  24  40  62  88 127 169 212 258 301 369
#     4  10  19  33  54  78 106 144 190 239 296 358
#     4  10  20  37  62  89 120 154 192 245 309 368
#
# _framework density 17.777778000000001
#
# number of rings (size 3 to 8) (size 9 to 14) (size 15 to 20)
#    0.000    1.667    4.444    1.000    0.000    2.444 
#    0.000    0.000    0.000    2.667    0.000    0.000 
#    0.000    0.000    0.000    0.000    0.000    0.000 
#
# Total GULP energy -401076.511597 kJ/mol
# GULP energy per Si atom -5570.507106 kJ/mol
# Density = 1.773731 g / cm^3
# Si number density = 17.777778 Si / 1000 Ang^3
#
#
#
# Elastic Constant Matrix: (Units=GPa)
#
#
# Indices 1 2 3 4 5 6 
#
# 1 127.4595 51.3463 50.5153 0.0000 0.0000 0.0000
# 2 51.3463 127.4595 50.5153 0.0000 0.0000 0.0000
# 3 50.5153 50.5153 52.4688 0.0000 0.0000 0.0000
# 4 0.0000 0.0000 0.0000 7.7792 0.0000 0.0000
# 5 0.0000 0.0000 0.0000 0.0000 7.7792 0.0000
# 6 0.0000 0.0000 0.0000 0.0000 0.0000 -232.3944
#
#
#
# Elastic Compliance Matrix: (Units=1/GPa)
#
#
# Indices 1 2 3 4 5 6 
#
# 1 0.012701 -0.000437 -0.011808 0.000000 0.000000 0.000000
# 2 -0.000437 0.012701 -0.011808 0.000000 0.000000 0.000000
# 3 -0.011808 -0.011808 0.041795 0.000000 0.000000 0.000000
# 4 0.000000 0.000000 0.000000 0.128549 0.000000 0.000000
# 5 0.000000 0.000000 0.000000 0.000000 0.128549 0.000000
# 6 0.000000 0.000000 0.000000 0.000000 0.000000 -0.004303
#
#
# Mechanical properties :
#
#
# Convention : Reuss Voigt Hill
#
# Bulk Modulus (GPa) = 52.37532 68.01573 60.19553
# Shear Modulus (GPa) = 13.35250 -33.03316 -9.84033
#
# Velocity S-wave (km/s) = 2.74355 -4.31526 -2.35525
# Velocity P-wave (km/s) = 6.28977 3.67604 5.15143
#
# Compressibility (1/GPa) = 0.01909296
#
# Stress axis : x y z
#
# Youngs Moduli (GPa) = 78.73166 78.73166 23.92611
#
# Poissons Ratio (x) = 0.03440 0.28251
# Poissons Ratio (y) = 0.03440 0.28251
# Poissons Ratio (z) = 0.92965 0.92965
#
# Static dielectric constant tensor:
#      x y z
#    x 1.618500 0.000000 0.000000 
#    y 0.000000 1.618500 0.000000 
#    z 0.000000 0.000000 1.604960 
# 
# From -- ./inp_files/7631.got.cif
#   From: 2010.05.17/outbox.ucp.g08.bks.cvg/sg131_4_cif.got.tgz:7631.got - 2010.06.11 11:38:44.
