data_PCOD9566229
_publ_section_title
;
Structure prediction by ZEFSAII (Michael W. Deem and Ramdas Pophale) SiO2 
 PCOD9566229
Probable space group: P 42/M M C
;
_chemical_formula_sum "Si O2"
_cell_formula_units_Z 96
_cell_length_a 18.384861
_cell_length_b 18.384861
_cell_length_c 17.783488
_cell_angle_alpha 90.000000
_cell_angle_beta 90.000000
_cell_angle_gamma 90.000000
_cell_volume 6010.874322
_symmetry_space_group_name_H-M "P 42/M M C"
_symmetry_group_IT_number 131
_symmetry_cell_setting 'tetragonal'
loop_
_space_group_symop_operation_xyz
x,y,z
-x,-y,z
-y,x,1/2+z
y,-x,1/2+z
-x,y,-z
x,-y,-z
y,x,1/2-z
-y,-x,1/2-z
-x,-y,-z
x,y,-z
y,-x,1/2-z
-y,x,1/2-z
x,-y,z
-x,y,z
-y,-x,1/2+z
y,x,1/2+z
loop_
_atom_site_type_symbol
_atom_site_label
_atom_site_fract_x
_atom_site_fract_y
_atom_site_fract_z
Si Si1 0.777130 0.811275 0.084983
Si Si2 0.084680 0.800284 0.279719
Si Si3 0.417277 0.586960 0.412099
Si Si4 0.298695 0.321734 0.837241
Si Si5 0.279695 0.916691 0.373958
Si Si6 0.414635 0.173683 0.588833
O O1 0.776643 0.877278 0.143350
O O2 0.722745 0.749201 0.115049
O O3 0.856794 0.772738 0.088409
O O4 0.760887 0.832208 0.000000
O O5 0.130662 0.869339 0.250000
O O6 0.091168 0.738889 0.214808
O O7 0.000000 0.817331 0.289067
O O8 0.407006 0.606771 0.500000
O O9 0.413140 0.500000 0.406504
O O10 0.500000 0.608807 0.391402
O O11 0.357768 0.626067 0.362112
O O12 0.300525 0.300525 0.750000
O O13 0.238048 0.381586 0.860201
O O14 0.361813 0.894148 0.393795
O O15 0.264590 0.000000 0.395383
O O16 0.406055 0.192490 0.500000
O O17 0.500000 0.161538 0.602610
#
# Coordination Sequence:
#
# PCOD9566229 Si02
#       6
#    16  16  16  16  16  16
#     4  10  19  31  49  71  93 121 157 194 231 270
#     4   9  18  33  51  71  95 124 155 187 229 277
#     4   9  18  32  48  66  91 124 159 195 239 288
#     4  11  20  31  47  66  92 123 157 196 234 277
#     4   9  17  31  49  68  95 126 153 182 219 269
#     4  10  20  32  47  68  94 124 154 184 224 272
#
# _framework density 15.971054000000001
#
# number of rings (size 3 to 8) (size 9 to 14) (size 15 to 20)
#    0.000    2.333    0.000    6.500    0.000    4.833 
#    0.000    1.667    0.000    0.000    0.000    4.667 
#    0.000    0.000    0.000   12.167    0.000    0.000 
#
# Total GULP energy -535251.932741 kJ/mol
# GULP energy per Si atom -5575.540966 kJ/mol
# Density = 1.593470 g / cm^3
# Si number density = 15.971054 Si / 1000 Ang^3
#
#
#
# Elastic Constant Matrix: (Units=GPa)
#
#
# Indices 1 2 3 4 5 6 
#
# 1 60.4364 20.6767 34.6215 0.0000 0.0000 0.0000
# 2 20.6767 60.4360 34.6220 0.0000 0.0000 0.0000
# 3 34.6215 34.6220 105.4848 0.0000 0.0000 0.0000
# 4 0.0000 0.0000 0.0000 30.3012 0.0000 0.0000
# 5 0.0000 0.0000 0.0000 0.0000 30.3022 0.0000
# 6 0.0000 0.0000 0.0000 0.0000 0.0000 12.7763
#
#
#
# Elastic Compliance Matrix: (Units=1/GPa)
#
#
# Indices 1 2 3 4 5 6 
#
# 1 0.021139 -0.004012 -0.005621 0.000000 0.000000 0.000000
# 2 -0.004012 0.021139 -0.005622 0.000000 0.000000 0.000000
# 3 -0.005621 -0.005622 0.013170 0.000000 0.000000 0.000000
# 4 0.000000 0.000000 0.000000 0.033002 0.000000 0.000000
# 5 0.000000 0.000000 0.000000 0.000000 0.033001 0.000000
# 6 0.000000 0.000000 0.000000 0.000000 0.000000 0.078270
#
#
# Mechanical properties :
#
#
# Convention : Reuss Voigt Hill
#
# Bulk Modulus (GPa) = 40.09781 45.13304 42.61543
# Shear Modulus (GPa) = 20.96049 23.77176 22.36613
#
# Velocity S-wave (km/s) = 3.62664 3.86220 3.74627
# Velocity P-wave (km/s) = 6.53435 6.94330 6.74193
#
# Compressibility (1/GPa) = 0.02493902
#
# Stress axis : x y z
#
# Youngs Moduli (GPa) = 47.30566 47.30492 75.92927
#
# Poissons Ratio (x) = 0.18978 0.42683
# Poissons Ratio (y) = 0.18979 0.42684
# Poissons Ratio (z) = 0.26592 0.26593
#
# Static dielectric constant tensor:
#      x y z
#    x 1.533060 0.000000 0.000000 
#    y 0.000000 1.533060 0.000000 
#    z 0.000000 0.000000 1.542280 
# 
# From -- ./inp_files/7979.got.cif
#   From: 2010.05.17/outbox.cif.g08.bks.cpg/sg131_4_cif.got.tgz:7979.got - 2010.05.20 12:21:01.
