data_PCOD9566007
_publ_section_title
;
Structure prediction by ZEFSAII (Michael W. Deem and Ramdas Pophale) SiO2 
 PCOD9566007
Probable space group: P 4/N C C
;
_chemical_formula_sum "Si O2"
_cell_formula_units_Z 96
_cell_length_a 14.604436
_cell_length_b 14.604436
_cell_length_c 18.658420
_cell_angle_alpha 90.000000
_cell_angle_beta 90.000000
_cell_angle_gamma 90.000000
_cell_volume 3979.646022
_symmetry_space_group_name_H-M "P 4/N C C"
_symmetry_group_IT_number 130
_symmetry_cell_setting 'tetragonal'
loop_
_space_group_symop_operation_xyz
x,y,z
1/2-y,x,z
1/2-x,1/2-y,z
y,1/2-x,z
1/2+x,-y,1/2-z
-x,1/2+y,1/2-z
1/2+y,1/2+x,1/2-z
-y,-x,1/2-z
-x,-y,-z
1/2+y,-x,-z
1/2+x,1/2+y,-z
-y,1/2+x,-z
1/2-x,y,1/2+z
x,1/2-y,1/2+z
1/2-y,1/2-x,1/2+z
y,x,1/2+z
loop_
_atom_site_type_symbol
_atom_site_label
_atom_site_fract_x
_atom_site_fract_y
_atom_site_fract_z
Si Si1 0.601556 0.464793 0.017312
Si Si2 0.404533 0.410425 0.848060
Si Si3 0.250000 0.750000 0.351620
Si Si4 0.250000 0.250000 0.676275
Si Si5 0.225092 0.562604 0.070342
Si Si6 0.750000 0.750000 0.641772
Si Si7 0.312668 0.563208 0.296458
Si Si8 0.552553 0.826266 0.295864
O O1 0.618692 0.510959 0.094922
O O2 0.594664 0.355188 0.017947
O O3 0.500000 0.500000 0.000000
O O4 0.688232 0.487701 0.966055
O O5 0.326326 0.333246 0.854800
O O6 0.502677 0.360500 0.858148
O O7 0.402075 0.448056 0.766639
O O8 0.155619 0.759106 0.393601
O O9 0.247793 0.650276 0.313760
O O10 0.342920 0.188169 0.682197
O O11 0.172405 0.503141 0.130438
O O12 0.391667 0.608334 0.250000
O O13 0.257505 0.492346 0.247789
#
# Coordination Sequence:
#
# PCOD9566007 Si02
#       8
#    16  16   8   4  16   4  16  16
#     4  12  31  52  75 111 160 213 268 324 410 504
#     4  12  26  47  80 115 159 209 265 331 417 487
#     4  12  25  49  76 112 154 204 258 326 398 476
#     4  12  25  48  77 114 161 192 257 334 417 452
#     4  12  29  51  78 108 156 208 263 331 404 482
#     4  12  25  48  81 118 153 196 273 338 405 488
#     4  12  25  42  74 120 159 196 260 336 395 480
#     4  12  25  46  81 114 152 205 260 336 401 474
#
# _framework density 24.122748999999999
#
# number of rings (size 3 to 8) (size 9 to 14) (size 15 to 20)
#    0.000    0.000    5.000    3.750    7.000    1.333 
#    0.000    0.833    0.000    0.000    0.000    0.000 
#    0.000    0.000    0.000    0.000    0.000    0.000 
#
# Total GULP energy -534564.237718 kJ/mol
# GULP energy per Si atom -5568.377476 kJ/mol
# Density = 2.406784 g / cm^3
# Si number density = 24.122749 Si / 1000 Ang^3
#
#
#
# Elastic Constant Matrix: (Units=GPa)
#
#
# Indices 1 2 3 4 5 6 
#
# 1 147.7511 5.7193 37.9194 0.0000 0.0000 0.0000
# 2 5.7193 147.7512 37.9190 0.0000 0.0000 0.0000
# 3 37.9194 37.9190 89.8366 0.0000 0.0000 0.0000
# 4 0.0000 0.0000 0.0000 239.7368 0.0000 0.0000
# 5 0.0000 0.0000 0.0000 0.0000 239.4784 0.0000
# 6 0.0000 0.0000 0.0000 0.0000 0.0000 55.1924
#
#
#
# Elastic Compliance Matrix: (Units=1/GPa)
#
#
# Indices 1 2 3 4 5 6 
#
# 1 0.007637 0.000596 -0.003475 0.000000 0.000000 0.000000
# 2 0.000596 0.007637 -0.003475 0.000000 0.000000 0.000000
# 3 -0.003475 -0.003475 0.014065 0.000000 0.000000 0.000000
# 4 0.000000 0.000000 0.000000 0.004171 0.000000 0.000000
# 5 0.000000 0.000000 0.000000 0.000000 0.004176 0.000000
# 6 0.000000 0.000000 0.000000 0.000000 0.000000 0.018118
#
#
# Mechanical properties :
#
#
# Convention : Reuss Voigt Hill
#
# Bulk Modulus (GPa) = 60.12960 60.93935 60.53447
# Shear Modulus (GPa) = 67.51654 127.13361 97.32508
#
# Velocity S-wave (km/s) = 5.29618 7.26754 6.35872
# Velocity P-wave (km/s) = 7.89810 9.78468 8.89157
#
# Compressibility (1/GPa) = 0.01663075
#
# Stress axis : x y z
#
# Youngs Moduli (GPa) = 130.94248 130.94290 71.09854
#
# Poissons Ratio (x) = -0.07808 0.24708
# Poissons Ratio (y) = -0.07807 0.24708
# Poissons Ratio (z) = 0.45505 0.45504
#
# Static dielectric constant tensor:
#      x y z
#    x 2.113560 0.000000 0.000000 
#    y 0.000000 2.113550 0.000000 
#    z 0.000000 0.000000 2.072870 
# 
# From -- ./inp_files/3855.got.cif
#   From: 2010.05.17/outbox.cif.g08.bks.cpg/sg130_2_cif.got.tgz:3855.got - 2010.05.20 12:17:35.
