data_PCOD9566306
_publ_section_title
;
Structure prediction by ZEFSAII (Michael W. Deem and Ramdas Pophale) SiO2 
 PCOD9566306
Probable space group: P 42/M M C
;
_chemical_formula_sum "Si O2"
_cell_formula_units_Z 120
_cell_length_a 28.337196
_cell_length_b 28.337196
_cell_length_c 8.851972
_cell_angle_alpha 90.000000
_cell_angle_beta 90.000000
_cell_angle_gamma 90.000000
_cell_volume 7108.104102
_symmetry_space_group_name_H-M "P 42/M M C"
_symmetry_group_IT_number 131
_symmetry_cell_setting 'tetragonal'
loop_
_space_group_symop_operation_xyz
x,y,z
-x,-y,z
-y,x,1/2+z
y,-x,1/2+z
-x,y,-z
x,-y,-z
y,x,1/2-z
-y,-x,1/2-z
-x,-y,-z
x,y,-z
y,-x,1/2-z
-y,x,1/2-z
x,-y,z
-x,y,z
-y,-x,1/2+z
y,x,1/2+z
loop_
_atom_site_type_symbol
_atom_site_label
_atom_site_fract_x
_atom_site_fract_y
_atom_site_fract_z
Si Si1 0.054822 0.872073 0.182650
Si Si2 0.315166 0.112497 0.820128
Si Si3 0.123901 0.415698 0.182178
Si Si4 0.555574 0.230823 0.317702
Si Si5 0.784261 0.716441 0.680462
Si Si6 0.707390 0.363416 0.318578
Si Si7 0.500000 0.054672 0.684197
Si Si8 0.056633 0.766839 0.826280
O O1 0.088400 0.911601 0.250000
O O2 0.070740 0.819185 0.228196
O O3 0.000000 0.878780 0.227742
O O4 0.056182 0.873280 0.000000
O O5 0.365570 0.107107 0.742764
O O6 0.295828 0.163527 0.769702
O O7 0.275999 0.075292 0.771692
O O8 0.321261 0.112912 0.000000
O O9 0.177992 0.427407 0.230811
O O10 0.086056 0.455062 0.230605
O O11 0.124800 0.415569 0.000000
O O12 0.560474 0.233110 0.500000
O O13 0.500000 0.235368 0.281550
O O14 0.587547 0.271994 0.245358
O O15 0.763821 0.763821 0.750000
O O16 0.783593 0.720068 0.500000
O O17 0.748652 0.674186 0.722640
O O18 0.659541 0.340460 0.250000
O O19 0.703277 0.365599 0.500000
O O20 0.500000 0.053398 0.500000
O O21 0.500000 0.000000 0.735239
O O22 0.000000 0.767068 0.827821
O O23 0.072746 0.760729 0.000000
#
# Coordination Sequence:
#
# PCOD9566306 Si02
#       8
#    16  16  16  16  16  16   8  16
#     4   9  19  36  57  81 109 138 168 206 253 308
#     4  11  22  35  51  76 105 132 168 216 265 315
#     4  10  19  33  53  76 101 135 177 223 271 324
#     4  10  19  32  52  78 108 143 186 229 272 321
#     4   9  19  32  46  68  99 132 166 203 247 301
#     4  10  19  33  51  74 106 143 180 217 265 317
#     4   9  18  34  55  77  99 127 171 225 274 323
#     4   9  20  39  57  72  94 129 171 209 250 305
#
# _framework density 16.882138999999999
#
# number of rings (size 3 to 8) (size 9 to 14) (size 15 to 20)
#    0.000    2.333    2.000    1.600    0.000    4.133 
#    0.000    6.333    0.000    0.400    0.000    0.000 
#    0.000    0.267    0.000    2.800    0.000    1.200 
#
# Total GULP energy -669070.166200 kJ/mol
# GULP energy per Si atom -5575.584718 kJ/mol
# Density = 1.684371 g / cm^3
# Si number density = 16.882139 Si / 1000 Ang^3
#
#
#
# Elastic Constant Matrix: (Units=GPa)
#
#
# Indices 1 2 3 4 5 6 
#
# 1 99.7254 65.7439 26.0125 0.0000 0.0000 0.0000
# 2 65.7439 99.7199 26.0113 0.0000 0.0000 0.0000
# 3 26.0125 26.0113 15.6518 0.0000 0.0000 0.0000
# 4 0.0000 0.0000 0.0000 9.0336 0.0000 0.0000
# 5 0.0000 0.0000 0.0000 0.0000 9.0353 0.0000
# 6 0.0000 0.0000 0.0000 0.0000 0.0000 26.8333
#
#
#
# Elastic Compliance Matrix: (Units=1/GPa)
#
#
# Indices 1 2 3 4 5 6 
#
# 1 0.021043 -0.008387 -0.021036 0.000000 0.000000 0.000000
# 2 -0.008387 0.021044 -0.021034 0.000000 0.000000 0.000000
# 3 -0.021036 -0.021034 0.133807 0.000000 0.000000 0.000000
# 4 0.000000 0.000000 0.000000 0.110697 0.000000 0.000000
# 5 0.000000 0.000000 0.000000 0.000000 0.110677 0.000000
# 6 0.000000 0.000000 0.000000 0.000000 0.000000 0.037267
#
#
# Mechanical properties :
#
#
# Convention : Reuss Voigt Hill
#
# Bulk Modulus (GPa) = 13.33660 50.07028 31.70344
# Shear Modulus (GPa) = 8.92151 15.46907 12.19529
#
# Velocity S-wave (km/s) = 2.30132 3.03033 2.69063
# Velocity P-wave (km/s) = 3.87019 6.47819 5.33598
#
# Compressibility (1/GPa) = 0.07498160
#
# Stress axis : x y z
#
# Youngs Moduli (GPa) = 47.52111 47.51969 7.47342
#
# Poissons Ratio (x) = 0.39853 0.15721
# Poissons Ratio (y) = 0.39854 0.15720
# Poissons Ratio (z) = 0.99963 0.99955
#
# Static dielectric constant tensor:
#      x y z
#    x 1.568110 0.000000 0.000000 
#    y 0.000000 1.568110 0.000000 
#    z 0.000000 0.000000 1.569830 
# 
# From -- ./inp_files/2629.got.cif
#   From: 2010.05.17/outbox.cif.g08.bks.cpg/sg131_2_cif.got.tgz:2629.got - 2010.05.20 12:21:01.
