data_PCOD9566938
_publ_section_title
;
Structure prediction by ZEFSAII (Michael W. Deem and Ramdas Pophale) SiO2 
 PCOD9566938
Probable space group: P 42/M C M
;
_chemical_formula_sum "Si O2"
_cell_formula_units_Z 104
_cell_length_a 14.794886
_cell_length_b 14.794886
_cell_length_c 23.992271
_cell_angle_alpha 90.000000
_cell_angle_beta 90.000000
_cell_angle_gamma 90.000000
_cell_volume 5251.635852
_symmetry_space_group_name_H-M "P 42/M C M"
_symmetry_group_IT_number 132
_symmetry_cell_setting 'tetragonal'
loop_
_space_group_symop_operation_xyz
x,y,z
-y,x,1/2+z
-x,-y,z
y,-x,1/2+z
x,-y,1/2-z
-x,y,1/2-z
y,x,-z
-y,-x,-z
-x,-y,-z
y,-x,1/2-z
x,y,-z
-y,x,1/2-z
-x,y,1/2+z
x,-y,1/2+z
-y,-x,z
y,x,z
loop_
_atom_site_type_symbol
_atom_site_label
_atom_site_fract_x
_atom_site_fract_y
_atom_site_fract_z
Si Si1 0.455593 0.302315 0.563137
Si Si2 0.772320 0.000000 0.250000
Si Si3 0.820329 0.667302 0.622376
Si Si4 0.815716 0.660293 0.745057
Si Si5 0.389191 0.762929 0.639978
Si Si6 0.125255 0.273912 0.062315
Si Si7 0.967574 0.180611 0.126123
O O1 0.490621 0.306881 0.500000
O O2 0.387720 0.387720 0.571185
O O3 0.398183 0.210405 0.573329
O O4 0.533228 0.292719 0.608741
O O5 0.711218 0.910454 0.244305
O O6 0.826335 0.989523 0.307897
O O7 0.740985 0.740985 0.624385
O O8 0.820586 0.620119 0.682881
O O9 0.908755 0.727863 0.617819
O O10 0.738716 0.738716 0.743340
O O11 0.794050 0.595575 0.796579
O O12 0.304188 0.695813 0.643950
O O13 0.357250 0.848379 0.602433
O O14 0.217224 0.217224 0.056548
O O15 0.055214 0.204488 0.090577
O O16 0.095626 0.300934 0.000000
O O17 0.905277 0.094724 0.110016
#
# Coordination Sequence:
#
# PCOD9566938 Si02
#       7
#    16   8  16  16  16  16  16
#     4  10  21  37  58  83 110 141 185 239 287 340
#     4  10  16  30  54  80 110 140 184 238 278 332
#     4   8  17  34  54  79 109 142 179 224 283 343
#     4   9  17  31  55  81 108 147 187 224 277 345
#     4  10  20  36  58  82 111 149 186 227 289 353
#     4  10  21  36  52  73 108 152 192 228 274 340
#     4  10  20  33  54  80 108 144 188 237 283 329
#
# _framework density 19.803353000000001
#
# number of rings (size 3 to 8) (size 9 to 14) (size 15 to 20)
#    0.000    2.462    1.538    1.846    0.000    3.692 
#    0.000    3.846    0.000    4.846    0.000    4.308 
#    0.000    0.000    0.000    0.000    0.000    0.000 
#
# Total GULP energy -579127.739214 kJ/mol
# GULP energy per Si atom -5568.535954 kJ/mol
# Density = 1.975828 g / cm^3
# Si number density = 19.803353 Si / 1000 Ang^3
#
#
#
# Elastic Constant Matrix: (Units=GPa)
#
#
# Indices 1 2 3 4 5 6 
#
# 1 133.0386 -109.5600 5.8155 0.0000 0.0000 0.0000
# 2 -109.5600 133.0386 5.8155 0.0000 0.0000 0.0000
# 3 5.8155 5.8155 69.7085 0.0000 0.0000 0.0000
# 4 0.0000 0.0000 0.0000 23.1211 0.0000 0.0000
# 5 0.0000 0.0000 0.0000 0.0000 23.1211 0.0000
# 6 0.0000 0.0000 0.0000 0.0000 0.0000 17.6875
#
#
#
# Elastic Compliance Matrix: (Units=1/GPa)
#
#
# Indices 1 2 3 4 5 6 
#
# 1 0.024275 0.020153 -0.003706 0.000000 0.000000 0.000000
# 2 0.020153 0.024275 -0.003706 0.000000 0.000000 0.000000
# 3 -0.003706 -0.003706 0.014964 0.000000 0.000000 0.000000
# 4 0.000000 0.000000 0.000000 0.043251 0.000000 0.000000
# 5 0.000000 0.000000 0.000000 0.000000 0.043251 0.000000
# 6 0.000000 0.000000 0.000000 0.000000 0.000000 0.056537
#
#
# Mechanical properties :
#
#
# Convention : Reuss Voigt Hill
#
# Bulk Modulus (GPa) = 11.23666 15.54750 13.39208
# Shear Modulus (GPa) = 23.72628 41.70025 32.71326
#
# Velocity S-wave (km/s) = 3.46510 4.59379 4.06877
# Velocity P-wave (km/s) = 4.65786 6.00043 5.37126
#
# Compressibility (1/GPa) = 0.08899442
#
# Stress axis : x y z
#
# Youngs Moduli (GPa) = 41.19446 41.19446 66.82754
#
# Poissons Ratio (x) = -0.83020 0.24769
# Poissons Ratio (y) = -0.83020 0.24769
# Poissons Ratio (z) = 0.15269 0.15269
#
# Static dielectric constant tensor:
#      x y z
#    x 1.717570 0.000000 0.000000 
#    y 0.000000 1.717570 0.000000 
#    z 0.000000 0.000000 1.738880 
# 
# From -- ./inp_files/9128.got.cif
#   From: 2010.05.17/outbox.cif.g08.bks.cpg/sg132_5_cif.got.tgz:9128.got - 2010.05.20 12:30:18.
