data_PCOD9566360
_publ_section_title
;
Structure prediction by ZEFSAII (Michael W. Deem and Ramdas Pophale) SiO2 
 PCOD9566360
Probable space group: P 42/M M C
;
_chemical_formula_sum "Si O2"
_cell_formula_units_Z 112
_cell_length_a 15.142990
_cell_length_b 15.142990
_cell_length_c 24.354439
_cell_angle_alpha 90.000000
_cell_angle_beta 90.000000
_cell_angle_gamma 90.000000
_cell_volume 5584.719966
_symmetry_space_group_name_H-M "P 42/M M C"
_symmetry_group_IT_number 131
_symmetry_cell_setting 'tetragonal'
loop_
_space_group_symop_operation_xyz
x,y,z
-x,-y,z
-y,x,1/2+z
y,-x,1/2+z
-x,y,-z
x,-y,-z
y,x,1/2-z
-y,-x,1/2-z
-x,-y,-z
x,y,-z
y,-x,1/2-z
-y,x,1/2-z
x,-y,z
-x,y,z
-y,-x,1/2+z
y,x,1/2+z
loop_
_atom_site_type_symbol
_atom_site_label
_atom_site_fract_x
_atom_site_fract_y
_atom_site_fract_z
Si Si1 0.099736 0.901384 0.118411
Si Si2 0.657625 0.708399 0.062780
Si Si3 0.901664 0.286610 0.831408
Si Si4 0.354480 0.404581 0.326609
Si Si5 0.594541 0.771364 0.730497
Si Si6 0.096663 0.715809 0.564722
Si Si7 0.393826 0.154892 0.562471
O O1 0.112715 0.816954 0.157081
O O2 0.179219 0.896894 0.075362
O O3 0.000000 0.893033 0.095375
O O4 0.105000 0.000000 0.143972
O O5 0.600143 0.662244 0.109030
O O6 0.674877 0.809644 0.082144
O O7 0.749116 0.653078 0.062371
O O8 0.624284 0.709090 0.000000
O O9 0.830640 0.326822 0.790583
O O10 0.893944 0.341488 0.888810
O O11 0.000000 0.298466 0.809545
O O12 0.393168 0.500000 0.311852
O O13 0.404406 0.318547 0.305390
O O14 0.262652 0.398053 0.292545
O O15 0.500000 0.816591 0.722211
O O16 0.093744 0.699697 0.500000
O O17 0.000000 0.687158 0.587825
O O18 0.382587 0.119040 0.500000
O O19 0.500000 0.159729 0.572772
#
# Coordination Sequence:
#
# PCOD9566360 Si02
#       7
#    16  16  16  16  16  16  16
#     4   9  17  28  44  72 110 146 185 237 287 332
#     4  10  19  34  55  81 112 145 183 231 286 346
#     4  11  21  34  56  83 114 158 203 239 285 345
#     4  10  21  37  60  85 110 148 190 233 292 347
#     4  10  21  38  58  83 117 149 187 242 290 339
#     4   9  16  27  46  71  99 137 184 229 279 337
#     4  10  20  33  50  76 113 156 196 235 284 343
#
# _framework density 20.05472
#
# number of rings (size 3 to 8) (size 9 to 14) (size 15 to 20)
#    0.000    2.143    2.857    0.429    0.000    2.286 
#    0.000    5.714    0.000    4.714    0.000    5.000 
#    0.000    4.571    0.000    0.286    0.000    0.000 
#
# Total GULP energy -623784.627500 kJ/mol
# GULP energy per Si atom -5569.505603 kJ/mol
# Density = 2.000907 g / cm^3
# Si number density = 20.054720 Si / 1000 Ang^3
#
#
#
# Elastic Constant Matrix: (Units=GPa)
#
#
# Indices 1 2 3 4 5 6 
#
# 1 76.5080 12.1758 12.3196 0.0000 0.0000 0.0000
# 2 12.1758 76.5080 12.3196 0.0000 0.0000 0.0000
# 3 12.3196 12.3196 65.8927 0.0000 0.0000 0.0000
# 4 0.0000 0.0000 0.0000 8.3893 0.0000 0.0000
# 5 0.0000 0.0000 0.0000 0.0000 8.3893 0.0000
# 6 0.0000 0.0000 0.0000 0.0000 0.0000 -3.2966
#
#
#
# Elastic Compliance Matrix: (Units=1/GPa)
#
#
# Indices 1 2 3 4 5 6 
#
# 1 0.013719 -0.001825 -0.002224 0.000000 0.000000 0.000000
# 2 -0.001825 0.013719 -0.002224 0.000000 0.000000 0.000000
# 3 -0.002224 -0.002224 0.016008 0.000000 0.000000 0.000000
# 4 0.000000 0.000000 0.000000 0.119200 0.000000 0.000000
# 5 0.000000 0.000000 0.000000 0.000000 0.119200 0.000000
# 6 0.000000 0.000000 0.000000 0.000000 0.000000 -0.303347
#
#
# Mechanical properties :
#
#
# Convention : Reuss Voigt Hill
#
# Bulk Modulus (GPa) = 32.36198 32.50432 32.43315
# Shear Modulus (GPa) = 3719.02969 14.83597 1866.93283
#
# Velocity S-wave (km/s) = 43.10994 2.72283 30.54407
# Velocity P-wave (km/s) = 49.94124 5.11156 35.49828
#
# Compressibility (1/GPa) = 0.03090045
#
# Stress axis : x y z
#
# Youngs Moduli (GPa) = 72.89118 72.89118 62.46990
#
# Poissons Ratio (x) = 0.13304 0.13892
# Poissons Ratio (y) = 0.13304 0.13892
# Poissons Ratio (z) = 0.16209 0.16209
#
# Static dielectric constant tensor:
#      x y z
#    x 1.740680 0.000000 0.000000 
#    y 0.000000 1.740680 0.000000 
#    z 0.000000 0.000000 1.703570 
# 
# From -- ./inp_files/12428.got.cif
#   From: 2010.05.17/outbox.cif.g08.bks.cpg/sg131_7_cif.got.tgz:12428.got - 2010.05.20 12:21:01.
