data_PCOD9566112
_publ_section_title
;
Structure prediction by ZEFSAII (Michael W. Deem and Ramdas Pophale) SiO2 
 PCOD9566112
Probable space group: P 42/M M C
;
_chemical_formula_sum "Si O2"
_cell_formula_units_Z 112
_cell_length_a 18.425151
_cell_length_b 18.425151
_cell_length_c 20.473009
_cell_angle_alpha 90.000000
_cell_angle_beta 90.000000
_cell_angle_gamma 90.000000
_cell_volume 6950.303810
_symmetry_space_group_name_H-M "P 42/M M C"
_symmetry_group_IT_number 131
_symmetry_cell_setting 'tetragonal'
loop_
_space_group_symop_operation_xyz
x,y,z
-x,-y,z
-y,x,1/2+z
y,-x,1/2+z
-x,y,-z
x,-y,-z
y,x,1/2-z
-y,-x,1/2-z
-x,-y,-z
x,y,-z
y,-x,1/2-z
-y,x,1/2-z
x,-y,z
-x,y,z
-y,-x,1/2+z
y,x,1/2+z
loop_
_atom_site_type_symbol
_atom_site_label
_atom_site_fract_x
_atom_site_fract_y
_atom_site_fract_z
Si Si1 0.809472 0.413990 0.849983
Si Si2 0.586929 0.341719 0.424519
Si Si3 0.794251 0.319536 0.278560
Si Si4 0.316181 0.086122 0.424956
Si Si5 0.083024 0.825912 0.840742
Si Si6 0.082491 0.781781 0.687677
Si Si7 0.336383 0.415392 0.311441
O O1 0.812199 0.500000 0.838756
O O2 0.733607 0.396594 0.886531
O O3 0.815905 0.369159 0.783075
O O4 0.872520 0.384895 0.896331
O O5 0.611945 0.341150 0.500000
O O6 0.500000 0.348633 0.425463
O O7 0.619953 0.403283 0.378220
O O8 0.748376 0.251625 0.250000
O O9 0.861469 0.285082 0.317260
O O10 0.737746 0.369653 0.317426
O O11 0.304885 0.106099 0.500000
O O12 0.244029 0.103057 0.383684
O O13 0.327060 0.000000 0.420267
O O14 0.081754 0.800473 0.765256
O O15 0.145737 0.885896 0.846199
O O16 0.000000 0.849048 0.857107
O O17 0.000000 0.765935 0.667738
O O18 0.380093 0.380093 0.250000
O O19 0.323797 0.500000 0.297794
#
# Coordination Sequence:
#
# PCOD9566112 Si02
#       7
#    16  16  16  16  16  16  16
#     4  11  20  33  50  70 100 138 175 213 255 298
#     4  10  21  35  51  75 105 135 168 210 260 309
#     4  11  18  32  53  73  99 131 171 211 253 298
#     4  10  20  33  50  72 102 141 178 210 246 295
#     4   9  17  30  48  74 102 127 162 203 245 294
#     4  10  18  30  51  74  99 130 160 202 252 295
#     4  11  22  35  54  76  99 132 173 215 259 314
#
# _framework density 16.114402999999999
#
# number of rings (size 3 to 8) (size 9 to 14) (size 15 to 20)
#    0.000    1.714    5.714    1.286    0.000    2.714 
#    0.000    2.857    0.000    1.714    0.000    2.000 
#    0.000    0.000    0.000    1.286    0.000    0.000 
#
# Total GULP energy -624454.227770 kJ/mol
# GULP energy per Si atom -5575.484177 kJ/mol
# Density = 1.607773 g / cm^3
# Si number density = 16.114403 Si / 1000 Ang^3
#
#
#
# Elastic Constant Matrix: (Units=GPa)
#
#
# Indices 1 2 3 4 5 6 
#
# 1 68.3796 64.8148 16.4673 0.0000 0.0000 0.0000
# 2 64.8148 68.3843 16.4702 0.0000 0.0000 0.0000
# 3 16.4673 16.4702 41.7690 0.0000 0.0000 0.0000
# 4 0.0000 0.0000 0.0000 14.7693 0.0000 0.0000
# 5 0.0000 0.0000 0.0000 0.0000 14.7695 0.0000
# 6 0.0000 0.0000 0.0000 0.0000 0.0000 20.5340
#
#
#
# Elastic Compliance Matrix: (Units=1/GPa)
#
#
# Indices 1 2 3 4 5 6 
#
# 1 0.144329 -0.136007 -0.003272 0.000000 0.000000 0.000000
# 2 -0.136007 0.144323 -0.003288 0.000000 0.000000 0.000000
# 3 -0.003272 -0.003288 0.026528 0.000000 0.000000 0.000000
# 4 0.000000 0.000000 0.000000 0.067708 0.000000 0.000000
# 5 0.000000 0.000000 0.000000 0.000000 0.067707 0.000000
# 6 0.000000 0.000000 0.000000 0.000000 0.000000 0.048700
#
#
# Mechanical properties :
#
#
# Convention : Reuss Voigt Hill
#
# Bulk Modulus (GPa) = 33.28293 41.55971 37.42132
# Shear Modulus (GPa) = 6.29372 15.39993 10.84682
#
# Velocity S-wave (km/s) = 1.97841 3.09473 2.59726
# Velocity P-wave (km/s) = 5.09096 6.21420 5.68041
#
# Compressibility (1/GPa) = 0.03004543
#
# Stress axis : x y z
#
# Youngs Moduli (GPa) = 6.92863 6.92891 37.69653
#
# Poissons Ratio (x) = 0.94238 0.12333
# Poissons Ratio (y) = 0.94234 0.12396
# Poissons Ratio (z) = 0.02267 0.02278
#
# Static dielectric constant tensor:
#      x y z
#    x 1.555520 0.000000 0.000000 
#    y 0.000000 1.555520 0.000000 
#    z 0.000000 0.000000 1.539670 
# 
# From -- ./inp_files/10018.got.cif
#   From: 2010.05.17/outbox.cif.g08.bks.cpg/sg131_6_cif.got.tgz:10018.got - 2010.05.20 12:21:01.
