data_PCOD9566285
_publ_section_title
;
Structure prediction by ZEFSAII (Michael W. Deem and Ramdas Pophale) SiO2 
 PCOD9566285
Probable space group: P 42/M M C
;
_chemical_formula_sum "Si O2"
_cell_formula_units_Z 112
_cell_length_a 14.778056
_cell_length_b 14.778056
_cell_length_c 26.834375
_cell_angle_alpha 90.000000
_cell_angle_beta 90.000000
_cell_angle_gamma 90.000000
_cell_volume 5860.384357
_symmetry_space_group_name_H-M "P 42/M M C"
_symmetry_group_IT_number 131
_symmetry_cell_setting 'tetragonal'
loop_
_space_group_symop_operation_xyz
x,y,z
-x,-y,z
-y,x,1/2+z
y,-x,1/2+z
-x,y,-z
x,-y,-z
y,x,1/2-z
-y,-x,1/2-z
-x,-y,-z
x,y,-z
y,-x,1/2-z
-y,x,1/2-z
x,-y,z
-x,y,z
-y,-x,1/2+z
y,x,1/2+z
loop_
_atom_site_type_symbol
_atom_site_label
_atom_site_fract_x
_atom_site_fract_y
_atom_site_fract_z
Si Si1 0.731889 0.605582 0.389007
Si Si2 0.096482 0.609978 0.128922
Si Si3 0.892770 0.293274 0.658066
Si Si4 0.144166 0.607188 0.237623
Si Si5 0.651373 0.598291 0.199804
Si Si6 0.607868 0.260290 0.442961
Si Si7 0.109062 0.898830 0.308540
O O1 0.742823 0.500000 0.398414
O O2 0.828234 0.652653 0.379297
O O3 0.674825 0.619652 0.337744
O O4 0.670288 0.654589 0.430037
O O5 0.100147 0.500000 0.131185
O O6 0.098597 0.639787 0.186431
O O7 0.182338 0.635870 0.096177
O O8 0.000000 0.636157 0.106253
O O9 0.880091 0.337565 0.713179
O O10 0.860103 0.188783 0.661213
O O11 0.000000 0.296658 0.646451
O O12 0.124382 0.500000 0.246195
O O13 0.248762 0.614798 0.221729
O O14 0.595014 0.595014 0.250000
O O15 0.650787 0.500000 0.174380
O O16 0.620897 0.230882 0.500000
O O17 0.500000 0.278240 0.437033
O O18 0.122123 0.877878 0.250000
O O19 0.000000 0.902421 0.314739
O O20 0.144101 0.000000 0.319873
#
# Coordination Sequence:
#
# PCOD9566285 Si02
#       7
#    16  16  16  16  16  16  16
#     4  12  25  39  57  81 110 145 191 244 292 347
#     4   9  17  31  54  84 117 153 190 228 276 339
#     4  11  23  36  55  82 115 157 195 232 280 333
#     4  10  19  32  50  76 114 157 196 231 268 325
#     4  11  21  34  51  73 109 152 191 235 282 332
#     4  10  22  41  63  86 112 142 184 242 304 364
#     4   8  16  31  49  72 104 143 188 232 270 315
#
# _framework density 19.111374999999999
#
# number of rings (size 3 to 8) (size 9 to 14) (size 15 to 20)
#    0.000    1.857    2.857    2.143    2.000    4.143 
#    0.000    2.857    0.000    0.429    0.000    1.000 
#    0.000    0.000    0.000    4.857    0.000    0.143 
#
# Total GULP energy -625166.409766 kJ/mol
# GULP energy per Si atom -5581.842944 kJ/mol
# Density = 1.906788 g / cm^3
# Si number density = 19.111375 Si / 1000 Ang^3
#
#
#
# Elastic Constant Matrix: (Units=GPa)
#
#
# Indices 1 2 3 4 5 6 
#
# 1 101.6990 33.8844 7.1263 0.0000 0.0000 0.0000
# 2 33.8844 101.6992 7.1263 0.0000 0.0000 0.0000
# 3 7.1263 7.1263 47.1663 0.0000 0.0000 0.0000
# 4 0.0000 0.0000 0.0000 5.1291 0.0000 0.0000
# 5 0.0000 0.0000 0.0000 0.0000 5.1292 0.0000
# 6 0.0000 0.0000 0.0000 0.0000 0.0000 24.1368
#
#
#
# Elastic Compliance Matrix: (Units=1/GPa)
#
#
# Indices 1 2 3 4 5 6 
#
# 1 0.011120 -0.003626 -0.001132 0.000000 0.000000 0.000000
# 2 -0.003626 0.011120 -0.001132 0.000000 0.000000 0.000000
# 3 -0.001132 -0.001132 0.021544 0.000000 0.000000 0.000000
# 4 0.000000 0.000000 0.000000 0.194967 0.000000 0.000000
# 5 0.000000 0.000000 0.000000 0.000000 0.194963 0.000000
# 6 0.000000 0.000000 0.000000 0.000000 0.000000 0.041431
#
#
# Mechanical properties :
#
#
# Convention : Reuss Voigt Hill
#
# Bulk Modulus (GPa) = 31.24660 38.53761 34.89210
# Shear Modulus (GPa) = 10.04837 20.37417 15.21127
#
# Velocity S-wave (km/s) = 2.29548 3.26862 2.82428
# Velocity P-wave (km/s) = 4.83848 5.86973 5.37887
#
# Compressibility (1/GPa) = 0.03200348
#
# Stress axis : x y z
#
# Youngs Moduli (GPa) = 89.92540 89.92560 46.41722
#
# Poissons Ratio (x) = 0.32605 0.05256
# Poissons Ratio (y) = 0.32605 0.05256
# Poissons Ratio (z) = 0.10183 0.10183
#
# Static dielectric constant tensor:
#      x y z
#    x 1.728180 0.000000 0.000000 
#    y 0.000000 1.728180 0.000000 
#    z 0.000000 0.000000 1.631560 
# 
# From -- ./inp_files/12425.got.cif
#   From: 2010.05.17/outbox.cif.g08.bks.cpg/sg131_7_cif.got.tgz:12425.got - 2010.05.20 12:21:01.
