data_PCOD9566806
_publ_section_title
;
Structure prediction by ZEFSAII (Michael W. Deem and Ramdas Pophale) SiO2 
 PCOD9566806
Probable space group: P 42/M M C
;
_chemical_formula_sum "Si O2"
_cell_formula_units_Z 64
_cell_length_a 13.156467
_cell_length_b 13.156467
_cell_length_c 25.628298
_cell_angle_alpha 90.000000
_cell_angle_beta 90.000000
_cell_angle_gamma 90.000000
_cell_volume 4436.069347
_symmetry_space_group_name_H-M "P 42/M M C"
_symmetry_group_IT_number 131
_symmetry_cell_setting 'tetragonal'
loop_
_space_group_symop_operation_xyz
x,y,z
-x,-y,z
-y,x,1/2+z
y,-x,1/2+z
-x,y,-z
x,-y,-z
y,x,1/2-z
-y,-x,1/2-z
-x,-y,-z
x,y,-z
y,-x,1/2-z
-y,x,1/2-z
x,-y,z
-x,y,z
-y,-x,1/2+z
y,x,1/2+z
loop_
_atom_site_type_symbol
_atom_site_label
_atom_site_fract_x
_atom_site_fract_y
_atom_site_fract_z
Si Si1 0.119721 0.500000 0.937175
Si Si2 0.307506 0.247858 0.596560
Si Si3 0.381752 0.378842 0.188523
Si Si4 0.377385 0.619857 0.500000
Si Si5 0.117770 0.119230 0.437207
O O1 0.168870 0.399706 0.912439
O O2 0.000000 0.500000 0.929023
O O3 0.137147 0.500000 0.000000
O O4 0.320005 0.305718 0.651045
O O5 0.327759 0.329290 0.550643
O O6 0.201134 0.190586 0.589117
O O7 0.362870 0.362870 0.250000
O O8 0.370742 0.500000 0.178196
O O9 0.500000 0.353275 0.177876
O O10 0.500000 0.636706 0.500000
O O11 0.361401 0.500000 0.500000
O O12 0.129131 0.129135 0.500000
O O13 0.000000 0.143094 0.424446
O O14 0.135348 0.000000 0.424800
#
# Coordination Sequence:
#
# PCOD9566806 Si02
#       5
#     8  16  16   8  16
#     4  11  20  28  42  74 110 132 150 195 258 309
#     4  12  17  30  48  72  99 128 160 199 246 295
#     4   9  18  32  50  72  97 128 167 203 236 287
#     4  11  20  28  41  70 105 131 154 188 240 302
#     4   9  18  32  50  71  96 129 167 200 234 286
#
# _framework density 14.427186000000001
#
# number of rings (size 3 to 8) (size 9 to 14) (size 15 to 20)
#    0.000    1.750    5.000    3.000    0.000    4.000 
#    0.000    0.000    0.000    6.750    0.000    1.750 
#    0.000    0.000    0.000    0.000    0.000    0.000 
#
# Total GULP energy -356954.039915 kJ/mol
# GULP energy per Si atom -5577.406874 kJ/mol
# Density = 1.439435 g / cm^3
# Si number density = 14.427186 Si / 1000 Ang^3
#
#
#
# Elastic Constant Matrix: (Units=GPa)
#
#
# Indices 1 2 3 4 5 6 
#
# 1 120.4934 77.4127 55.7798 0.0000 0.0000 0.0000
# 2 77.4127 120.4934 55.7798 0.0000 0.0000 0.0000
# 3 55.7798 55.7798 65.9190 0.0000 0.0000 0.0000
# 4 0.0000 0.0000 0.0000 21.7593 0.0000 0.0000
# 5 0.0000 0.0000 0.0000 0.0000 21.7593 0.0000
# 6 0.0000 0.0000 0.0000 0.0000 0.0000 29.1174
#
#
#
# Elastic Compliance Matrix: (Units=1/GPa)
#
#
# Indices 1 2 3 4 5 6 
#
# 1 0.016437 -0.006775 -0.008175 0.000000 0.000000 0.000000
# 2 -0.006775 0.016437 -0.008175 0.000000 0.000000 0.000000
# 3 -0.008175 -0.008175 0.029006 0.000000 0.000000 0.000000
# 4 0.000000 0.000000 0.000000 0.045957 0.000000 0.000000
# 5 0.000000 0.000000 0.000000 0.000000 0.045957 0.000000
# 6 0.000000 0.000000 0.000000 0.000000 0.000000 0.034344
#
#
# Mechanical properties :
#
#
# Convention : Reuss Voigt Hill
#
# Bulk Modulus (GPa) = 63.99067 76.09449 70.04258
# Shear Modulus (GPa) = 20.86820 22.38942 21.62881
#
# Velocity S-wave (km/s) = 3.80735 3.94368 3.87611
# Velocity P-wave (km/s) = 7.98614 8.57876 8.28775
#
# Compressibility (1/GPa) = 0.01562728
#
# Stress axis : x y z
#
# Youngs Moduli (GPa) = 60.83915 60.83915 34.47588
#
# Poissons Ratio (x) = 0.41221 0.28185
# Poissons Ratio (y) = 0.41221 0.28185
# Poissons Ratio (z) = 0.49738 0.49738
#
# Static dielectric constant tensor:
#      x y z
#    x 1.468260 0.000000 0.000000 
#    y 0.000000 1.468260 0.000000 
#    z 0.000000 0.000000 1.464170 
# 
# From -- ./inp_files/11970.got.cif
#   From: 2010.05.17/outbox.cif.g08.bks.cpg/sg131_6_cif.got.tgz:11970.got - 2010.05.20 12:21:01.
