data_PCOD9566431
_publ_section_title
;
Structure prediction by ZEFSAII (Michael W. Deem and Ramdas Pophale) SiO2 
 PCOD9566431
Probable space group: P 42/M M C
;
_chemical_formula_sum "Si O2"
_cell_formula_units_Z 80
_cell_length_a 13.689693
_cell_length_b 13.689693
_cell_length_c 22.566702
_cell_angle_alpha 90.000000
_cell_angle_beta 90.000000
_cell_angle_gamma 90.000000
_cell_volume 4229.173593
_symmetry_space_group_name_H-M "P 42/M M C"
_symmetry_group_IT_number 131
_symmetry_cell_setting 'tetragonal'
loop_
_space_group_symop_operation_xyz
x,y,z
-x,-y,z
-y,x,1/2+z
y,-x,1/2+z
-x,y,-z
x,-y,-z
y,x,1/2-z
-y,-x,1/2-z
-x,-y,-z
x,y,-z
y,-x,1/2-z
-y,x,1/2-z
x,-y,z
-x,y,z
-y,-x,1/2+z
y,x,1/2+z
loop_
_atom_site_type_symbol
_atom_site_label
_atom_site_fract_x
_atom_site_fract_y
_atom_site_fract_z
Si Si1 0.787621 0.117764 0.435510
Si Si2 0.108792 0.381778 0.254563
Si Si3 0.689655 0.385379 0.687569
Si Si4 0.116540 0.116511 0.185395
Si Si5 0.198903 0.384679 0.127046
O O1 0.825394 0.149758 0.500000
O O2 0.842472 0.155133 0.376645
O O3 0.677500 0.153744 0.425619
O O4 0.791610 0.000000 0.434800
O O5 0.105384 0.500000 0.255031
O O6 0.197396 0.358055 0.298580
O O7 0.139632 0.356355 0.187347
O O8 0.000000 0.345258 0.268719
O O9 0.634123 0.365878 0.750000
O O10 0.683069 0.500000 0.672749
O O11 0.644532 0.310654 0.640752
O O12 0.152993 0.152993 0.250000
O O13 0.000000 0.136417 0.185781
O O14 0.127186 0.000000 0.184387
O O15 0.190437 0.500000 0.119092
#
# Coordination Sequence:
#
# PCOD9566431 Si02
#       5
#    16  16  16  16  16
#     4  10  21  35  51  73 101 135 175 215 258 313
#     4   8  14  26  45  69  98 131 165 205 257 313
#     4   9  17  29  47  72 100 131 170 216 265 318
#     4   8  15  30  52  77 105 136 169 207 254 309
#     4  10  20  32  46  66  95 131 172 217 262 311
#
# _framework density 18.916225000000001
#
# number of rings (size 3 to 8) (size 9 to 14) (size 15 to 20)
#    0.000    3.000    0.000    3.000    0.000    5.800 
#    0.000    6.000    0.000    0.600    0.000    1.400 
#    0.000   19.600    0.000    6.800    0.000    0.200 
#
# Total GULP energy -446217.556387 kJ/mol
# GULP energy per Si atom -5577.719455 kJ/mol
# Density = 1.887317 g / cm^3
# Si number density = 18.916225 Si / 1000 Ang^3
#
#
#
# Elastic Constant Matrix: (Units=GPa)
#
#
# Indices 1 2 3 4 5 6 
#
# 1 48.0586 -24.2959 25.1730 0.0000 0.0000 0.0000
# 2 -24.2959 48.0579 25.1732 0.0000 0.0000 0.0000
# 3 25.1730 25.1732 126.0248 0.0000 0.0000 0.0000
# 4 0.0000 0.0000 0.0000 18.1393 0.0000 0.0000
# 5 0.0000 0.0000 0.0000 0.0000 18.1394 0.0000
# 6 0.0000 0.0000 0.0000 0.0000 0.0000 21.6109
#
#
#
# Elastic Compliance Matrix: (Units=1/GPa)
#
#
# Indices 1 2 3 4 5 6 
#
# 1 0.043391 0.029570 -0.014574 0.000000 0.000000 0.000000
# 2 0.029570 0.043392 -0.014574 0.000000 0.000000 0.000000
# 3 -0.014574 -0.014574 0.013757 0.000000 0.000000 0.000000
# 4 0.000000 0.000000 0.000000 0.055129 0.000000 0.000000
# 5 0.000000 0.000000 0.000000 0.000000 0.055128 0.000000
# 6 0.000000 0.000000 0.000000 0.000000 0.000000 0.046273
#
#
# Mechanical properties :
#
#
# Convention : Reuss Voigt Hill
#
# Bulk Modulus (GPa) = 9.86342 30.47135 20.16738
# Shear Modulus (GPa) = 17.24021 24.65067 20.94544
#
# Velocity S-wave (km/s) = 3.02221 3.61383 3.33118
# Velocity P-wave (km/s) = 4.17180 5.79281 5.04780
#
# Compressibility (1/GPa) = 0.10138472
#
# Stress axis : x y z
#
# Youngs Moduli (GPa) = 23.04634 23.04592 72.68956
#
# Poissons Ratio (x) = -0.68148 1.05936
# Poissons Ratio (y) = -0.68149 1.05938
# Poissons Ratio (z) = 0.33587 0.33587
#
# Static dielectric constant tensor:
#      x y z
#    x 1.700140 0.000000 0.000000 
#    y 0.000000 1.700140 0.000000 
#    z 0.000000 0.000000 1.658710 
# 
# From -- ./inp_files/9377.got.cif
#   From: 2010.05.17/outbox.cif.g08.bks.cpg/sg131_5_cif.got.tgz:9377.got - 2010.05.20 12:21:01.
