data_PCOD9566019
_publ_section_title
;
Structure prediction by ZEFSAII (Michael W. Deem and Ramdas Pophale) SiO2 
 PCOD9566019
Probable space group: P 4/N C C
;
_chemical_formula_sum "Si O2"
_cell_formula_units_Z 96
_cell_length_a 24.000000
_cell_length_b 24.000000
_cell_length_c 9.000000
_cell_angle_alpha 90.000000
_cell_angle_beta 90.000000
_cell_angle_gamma 90.000000
_cell_volume 5184.000000
_symmetry_space_group_name_H-M "P 4/N C C"
_symmetry_group_IT_number 130
_symmetry_cell_setting 'tetragonal'
loop_
_space_group_symop_operation_xyz
x,y,z
1/2-y,x,z
1/2-x,1/2-y,z
y,1/2-x,z
1/2+x,-y,1/2-z
-x,1/2+y,1/2-z
1/2+y,1/2+x,1/2-z
-y,-x,1/2-z
-x,-y,-z
1/2+y,-x,-z
1/2+x,1/2+y,-z
-y,1/2+x,-z
1/2-x,y,1/2+z
x,1/2-y,1/2+z
1/2-y,1/2-x,1/2+z
y,x,1/2+z
loop_
_atom_site_type_symbol
_atom_site_label
_atom_site_fract_x
_atom_site_fract_y
_atom_site_fract_z
Si Si1 0.871339 0.710266 0.884148
Si Si2 0.176340 0.602867 0.055523
Si Si3 0.781122 0.133085 0.119514
Si Si4 0.750000 0.250000 0.750000
Si Si5 0.822485 0.602817 0.054837
Si Si6 0.750000 0.750000 0.305388
Si Si7 0.503570 0.496431 0.750000
Si Si8 0.594831 0.999042 0.990281
O O1 0.899868 0.685593 0.734690
O O2 0.816863 0.739353 0.814722
O O3 0.850564 0.661422 0.997530
O O4 0.900386 0.761060 0.975751
O O5 0.145694 0.662497 0.027951
O O6 0.197634 0.606822 0.226071
O O7 0.133682 0.553212 0.028974
O O8 0.232571 0.598979 0.959077
O O9 0.754068 0.193466 0.156108
O O10 0.864121 0.553925 0.004281
O O11 0.505289 0.552329 0.850870
O O12 0.555668 0.496054 0.636363
#
# Coordination Sequence:
#
# PCOD9566019 Si02
#       8
#    16  16  16   4  16   4   8  16
#     4  10  20  35  57  90 124 159 195 241 293 357
#     4  10  21  36  57  86 121 156 196 238 291 347
#     4  10  19  33  55  86 122 156 191 237 286 351
#     4   8  16  30  52  78 116 158 184 206 276 358
#     4  11  22  37  60  89 124 159 200 244 299 354
#     4   8  16  30  52  78 116 158 184 206 276 362
#     4  10  24  46  68  80 110 160 204 240 296 366
#     4  11  24  44  65  87 112 154 204 252 297 354
#
# _framework density 18.518519000000001
#
# number of rings (size 3 to 8) (size 9 to 14) (size 15 to 20)
#    0.000    2.000    0.000    6.000    0.000    6.667 
#    0.000    3.333    0.000    0.000    0.000    0.000 
#    0.000    0.000    0.000    0.000    0.000    0.000 
#
# Total GULP energy -534560.968411 kJ/mol
# GULP energy per Si atom -5568.343421 kJ/mol
# Density = 1.847637 g / cm^3
# Si number density = 18.518519 Si / 1000 Ang^3
#
#
#
# Elastic Constant Matrix: (Units=GPa)
#
#
# Indices 1 2 3 4 5 6 
#
# 1 111.5984 83.3289 48.3626 0.0000 0.0000 0.0000
# 2 83.3289 111.5986 48.3625 0.0000 0.0000 0.0000
# 3 48.3626 48.3625 101.0181 0.0000 0.0000 0.0000
# 4 0.0000 0.0000 0.0000 19.8846 0.0000 0.0000
# 5 0.0000 0.0000 0.0000 0.0000 19.8844 0.0000
# 6 0.0000 0.0000 0.0000 0.0000 0.0000 49.4174
#
#
#
# Elastic Compliance Matrix: (Units=1/GPa)
#
#
# Indices 1 2 3 4 5 6 
#
# 1 0.021051 -0.014323 -0.003221 0.000000 0.000000 0.000000
# 2 -0.014323 0.021051 -0.003221 0.000000 0.000000 0.000000
# 3 -0.003221 -0.003221 0.012984 0.000000 0.000000 0.000000
# 4 0.000000 0.000000 0.000000 0.050290 0.000000 0.000000
# 5 0.000000 0.000000 0.000000 0.000000 0.050291 0.000000
# 6 0.000000 0.000000 0.000000 0.000000 0.000000 0.020236
#
#
# Mechanical properties :
#
#
# Convention : Reuss Voigt Hill
#
# Bulk Modulus (GPa) = 73.77069 76.03591 74.90330
# Shear Modulus (GPa) = 22.52746 27.44802 24.98774
#
# Velocity S-wave (km/s) = 3.49159 3.85410 3.67732
# Velocity P-wave (km/s) = 7.49517 7.80730 7.65283
#
# Compressibility (1/GPa) = 0.01355552
#
# Stress axis : x y z
#
# Youngs Moduli (GPa) = 47.50327 47.50341 77.02002
#
# Poissons Ratio (x) = 0.68037 0.24811
# Poissons Ratio (y) = 0.68037 0.24810
# Poissons Ratio (z) = 0.15302 0.15302
#
# Static dielectric constant tensor:
#      x y z
#    x 1.631390 0.000000 0.000000 
#    y 0.000000 1.631390 0.000000 
#    z 0.000000 0.000000 1.683770 
# 
# From -- ./inp_files/977.got.cif
#   From: 2010.05.17/outbox.ucp.g08.bks.cvg/sg130_1_cif.got.tgz:977.got - 2010.06.11 11:38:29.
