data_PCOD9566429
_publ_section_title
;
Structure prediction by ZEFSAII (Michael W. Deem and Ramdas Pophale) SiO2 
 PCOD9566429
Probable space group: P 42/M M C
;
_chemical_formula_sum "Si O2"
_cell_formula_units_Z 112
_cell_length_a 16.263039
_cell_length_b 16.263039
_cell_length_c 26.111418
_cell_angle_alpha 90.000000
_cell_angle_beta 90.000000
_cell_angle_gamma 90.000000
_cell_volume 6906.115925
_symmetry_space_group_name_H-M "P 42/M M C"
_symmetry_group_IT_number 131
_symmetry_cell_setting 'tetragonal'
loop_
_space_group_symop_operation_xyz
x,y,z
-x,-y,z
-y,x,1/2+z
y,-x,1/2+z
-x,y,-z
x,-y,-z
y,x,1/2-z
-y,-x,1/2-z
-x,-y,-z
x,y,-z
y,-x,1/2-z
-y,x,1/2-z
x,-y,z
-x,y,z
-y,-x,1/2+z
y,x,1/2+z
loop_
_atom_site_type_symbol
_atom_site_label
_atom_site_fract_x
_atom_site_fract_y
_atom_site_fract_z
Si Si1 0.349250 0.904171 0.057013
Si Si2 0.098271 0.733235 0.943211
Si Si3 0.090859 0.159689 0.591388
Si Si4 0.408504 0.899889 0.366450
Si Si5 0.140038 0.094065 0.695869
Si Si6 0.319911 0.099738 0.265859
Si Si7 0.406199 0.099755 0.165311
O O1 0.252450 0.904930 0.070660
O O2 0.391023 0.867993 0.107855
O O3 0.375558 0.000000 0.054142
O O4 0.362942 0.868734 0.000000
O O5 0.116315 0.827500 0.929164
O O6 0.129149 0.665978 0.902598
O O7 0.000000 0.724484 0.944114
O O8 0.130829 0.716219 0.000000
O O9 0.099192 0.150785 0.652928
O O10 0.000000 0.126756 0.576989
O O11 0.500000 0.873012 0.381703
O O12 0.387609 0.877439 0.308047
O O13 0.407935 0.000000 0.368250
O O14 0.094448 0.094448 0.750000
O O15 0.231735 0.122686 0.710783
O O16 0.143327 0.000000 0.675799
O O17 0.344218 0.129633 0.209437
O O18 0.317330 0.000000 0.263082
O O19 0.500000 0.115564 0.181059
O O20 0.396258 0.000000 0.162709
#
# Coordination Sequence:
#
# PCOD9566429 Si02
#       7
#    16  16  16  16  16  16  16
#     4   9  18  31  44  59  81 111 147 184 225 272
#     4  10  20  32  44  61  83 108 147 195 235 275
#     4  11  21  33  46  59  81 117 158 198 235 271
#     4   9  16  28  46  64  82 105 132 172 232 289
#     4  11  21  31  43  60  84 114 150 194 239 280
#     4   9  16  28  43  61  85 106 132 175 226 281
#     4   9  16  26  43  66  86 105 133 173 223 278
#
# _framework density 16.217509
#
# number of rings (size 3 to 8) (size 9 to 14) (size 15 to 20)
#    0.000    2.286    1.429    2.571    0.000    7.286 
#    0.000    3.571    0.000    0.000    0.000    0.000 
#    0.000    0.000    0.000    0.000    0.000    0.714 
#
# Total GULP energy -623721.527139 kJ/mol
# GULP energy per Si atom -5568.942207 kJ/mol
# Density = 1.618060 g / cm^3
# Si number density = 16.217509 Si / 1000 Ang^3
#
#
#
# Elastic Constant Matrix: (Units=GPa)
#
#
# Indices 1 2 3 4 5 6 
#
# 1 51.0634 2.2045 21.1559 0.0000 0.0000 0.0000
# 2 2.2045 51.0634 21.1559 0.0000 0.0000 0.0000
# 3 21.1559 21.1559 100.4764 0.0000 0.0000 0.0000
# 4 0.0000 0.0000 0.0000 10.4696 0.0000 0.0000
# 5 0.0000 0.0000 0.0000 0.0000 10.4696 0.0000
# 6 0.0000 0.0000 0.0000 0.0000 0.0000 -1.7745
#
#
#
# Elastic Compliance Matrix: (Units=1/GPa)
#
#
# Indices 1 2 3 4 5 6 
#
# 1 0.021505 0.001038 -0.004747 0.000000 0.000000 0.000000
# 2 0.001038 0.021505 -0.004747 0.000000 0.000000 0.000000
# 3 -0.004747 -0.004747 0.011951 0.000000 0.000000 0.000000
# 4 0.000000 0.000000 0.000000 0.095514 0.000000 0.000000
# 5 0.000000 0.000000 0.000000 0.000000 0.095514 0.000000
# 6 0.000000 0.000000 0.000000 0.000000 0.000000 -0.563550
#
#
# Mechanical properties :
#
#
# Convention : Reuss Voigt Hill
#
# Bulk Modulus (GPa) = 26.28004 32.40397 29.34201
# Shear Modulus (GPa) = -17.36320 14.37209 -1.49556
#
# Velocity S-wave (km/s) = -3.27562 2.98015 -0.96135
# Velocity P-wave (km/s) = 1.39056 5.64500 4.11094
#
# Compressibility (1/GPa) = 0.03805169
#
# Stress axis : x y z
#
# Youngs Moduli (GPa) = 46.50025 46.50025 83.67178
#
# Poissons Ratio (x) = -0.04827 0.39716
# Poissons Ratio (y) = -0.04827 0.39716
# Poissons Ratio (z) = 0.22072 0.22072
#
# Static dielectric constant tensor:
#      x y z
#    x 1.549090 0.000000 0.000000 
#    y 0.000000 1.549090 0.000000 
#    z 0.000000 0.000000 1.614280 
# 
# From -- ./inp_files/12433.got.cif
#   From: 2010.05.17/outbox.cif.g08.bks.cpg/sg131_7_cif.got.tgz:12433.got - 2010.05.20 12:21:01.
