data_PCOD9566974
_publ_section_title
;
Structure prediction by ZEFSAII (Michael W. Deem and Ramdas Pophale) SiO2 
 PCOD9566974
Probable space group: P 42/M C M
;
_chemical_formula_sum "Si O2"
_cell_formula_units_Z 96
_cell_length_a 19.499786
_cell_length_b 19.499786
_cell_length_c 18.021623
_cell_angle_alpha 90.000000
_cell_angle_beta 90.000000
_cell_angle_gamma 90.000000
_cell_volume 6852.571738
_symmetry_space_group_name_H-M "P 42/M C M"
_symmetry_group_IT_number 132
_symmetry_cell_setting 'tetragonal'
loop_
_space_group_symop_operation_xyz
x,y,z
-y,x,1/2+z
-x,-y,z
y,-x,1/2+z
x,-y,1/2-z
-x,y,1/2-z
y,x,-z
-y,-x,-z
-x,-y,-z
y,-x,1/2-z
x,y,-z
-y,x,1/2-z
-x,y,1/2+z
x,-y,1/2+z
-y,-x,z
y,x,z
loop_
_atom_site_type_symbol
_atom_site_label
_atom_site_fract_x
_atom_site_fract_y
_atom_site_fract_z
Si Si1 0.902508 0.367058 0.412457
Si Si2 0.916762 0.506684 0.335075
Si Si3 0.218487 0.891388 0.862185
Si Si4 0.871849 0.980422 0.163065
Si Si5 0.638953 0.066013 0.917209
Si Si6 0.131249 0.242194 0.189987
O O1 0.886302 0.358106 0.500000
O O2 0.888566 0.444446 0.384735
O O3 0.869672 0.311317 0.357286
O O4 0.984524 0.355917 0.403128
O O5 0.895712 0.500000 0.250000
O O6 0.901462 0.582750 0.363555
O O7 0.000000 0.500000 0.338493
O O8 0.179331 0.820670 0.875811
O O9 0.285435 0.904146 0.909890
O O10 0.245476 0.891013 0.776522
O O11 0.161352 0.951358 0.871454
O O12 0.941279 0.941279 0.137476
O O13 0.811451 0.924259 0.157297
O O14 0.882547 0.000000 0.250000
O O15 0.611416 0.074041 0.000000
O O16 0.204049 0.204049 0.187513
#
# Coordination Sequence:
#
# PCOD9566974 Si02
#       6
#    16  16  16  16  16  16
#     4  10  18  28  43  61  81 104 129 161 202 253
#     4   9  17  28  45  64  79  98 124 160 201 242
#     4  10  19  29  43  59  77 104 139 177 213 251
#     4   9  16  26  40  57  75  96 130 179 225 256
#     4  10  19  30  42  58  81 105 129 164 205 249
#     4   9  17  28  42  60  80 104 134 169 210 252
#
# _framework density 14.009339000000001
#
# number of rings (size 3 to 8) (size 9 to 14) (size 15 to 20)
#    0.000    2.500    1.667    3.000    0.000    5.167 
#    0.000    0.000    0.000    0.500    0.000    1.167 
#    0.000    0.000    0.000    0.000    0.000    0.833 
#
# Total GULP energy -534537.534123 kJ/mol
# GULP energy per Si atom -5568.099314 kJ/mol
# Density = 1.397745 g / cm^3
# Si number density = 14.009339 Si / 1000 Ang^3
#
#
#
# Elastic Constant Matrix: (Units=GPa)
#
#
# Indices 1 2 3 4 5 6 
#
# 1 48.5903 20.5777 16.5179 0.0000 0.0000 0.0000
# 2 20.5777 48.5903 16.5179 0.0000 0.0000 0.0000
# 3 16.5179 16.5179 34.4612 0.0000 0.0000 0.0000
# 4 0.0000 0.0000 0.0000 12.9571 0.0000 0.0000
# 5 0.0000 0.0000 0.0000 0.0000 12.9571 0.0000
# 6 0.0000 0.0000 0.0000 0.0000 0.0000 3.8835
#
#
#
# Elastic Compliance Matrix: (Units=1/GPa)
#
#
# Indices 1 2 3 4 5 6 
#
# 1 0.027224 -0.008474 -0.008987 0.000000 0.000000 0.000000
# 2 -0.008474 0.027224 -0.008987 0.000000 0.000000 0.000000
# 3 -0.008987 -0.008987 0.037634 0.000000 0.000000 0.000000
# 4 0.000000 0.000000 0.000000 0.077178 0.000000 0.000000
# 5 0.000000 0.000000 0.000000 0.000000 0.077178 0.000000
# 6 0.000000 0.000000 0.000000 0.000000 0.000000 0.257501
#
#
# Mechanical properties :
#
#
# Convention : Reuss Voigt Hill
#
# Bulk Modulus (GPa) = 25.52016 26.54099 26.03057
# Shear Modulus (GPa) = 8.77351 11.16142 9.96746
#
# Velocity S-wave (km/s) = 2.50524 2.82567 2.67027
# Velocity P-wave (km/s) = 5.15988 5.44355 5.30361
#
# Compressibility (1/GPa) = 0.03918471
#
# Stress axis : x y z
#
# Youngs Moduli (GPa) = 36.73213 36.73213 26.57190
#
# Poissons Ratio (x) = 0.31127 0.23881
# Poissons Ratio (y) = 0.31127 0.23881
# Poissons Ratio (z) = 0.33012 0.33012
#
# Static dielectric constant tensor:
#      x y z
#    x 1.457820 0.000000 0.000000 
#    y 0.000000 1.457820 0.000000 
#    z 0.000000 0.000000 1.480050 
# 
# From -- ./inp_files/5022.got.cif
#   From: 2010.05.17/outbox.cif.g08.bks.cpg/sg132_3_cif.got.tgz:5022.got - 2010.05.20 12:30:18.
