data_PCOD9566979
_publ_section_title
;
Structure prediction by ZEFSAII (Michael W. Deem and Ramdas Pophale) SiO2 
 PCOD9566979
Probable space group: P 42/M C M
;
_chemical_formula_sum "Si O2"
_cell_formula_units_Z 64
_cell_length_a 11.381020
_cell_length_b 11.381020
_cell_length_c 29.738247
_cell_angle_alpha 90.000000
_cell_angle_beta 90.000000
_cell_angle_gamma 90.000000
_cell_volume 3851.924245
_symmetry_space_group_name_H-M "P 42/M C M"
_symmetry_group_IT_number 132
_symmetry_cell_setting 'tetragonal'
loop_
_space_group_symop_operation_xyz
x,y,z
-y,x,1/2+z
-x,-y,z
y,-x,1/2+z
x,-y,1/2-z
-x,y,1/2-z
y,x,-z
-y,-x,-z
-x,-y,-z
y,-x,1/2-z
x,y,-z
-y,x,1/2-z
-x,y,1/2+z
x,-y,1/2+z
-y,-x,z
y,x,z
loop_
_atom_site_type_symbol
_atom_site_label
_atom_site_fract_x
_atom_site_fract_y
_atom_site_fract_z
Si Si1 0.423669 0.777075 0.052060
Si Si2 0.858315 0.858315 0.051811
Si Si3 0.264180 0.065883 0.393047
Si Si4 0.004661 0.801925 0.299737
Si Si5 0.659473 0.340528 0.448008
O O1 0.321321 0.678680 0.051191
O O2 0.377891 0.885984 0.081248
O O3 0.540558 0.715218 0.070979
O O4 0.444642 0.813741 0.000000
O O5 0.758516 0.758516 0.051950
O O6 0.969602 0.804698 0.077505
O O7 0.887114 0.887114 0.000000
O O8 0.176332 0.176332 0.389064
O O9 0.279456 0.017040 0.342689
O O10 0.902678 0.902678 0.299453
O O11 0.000000 0.747150 0.250000
O O12 0.125614 0.874387 0.305766
O O13 0.628725 0.371276 0.500000
#
# Coordination Sequence:
#
# PCOD9566979 Si02
#       5
#    16   8  16  16   8
#     4   9  17  30  48  66  87 118 158 202 238 269
#     4  11  21  29  41  63  97 133 155 181 229 287
#     4  10  18  28  43  67  97 121 155 188 231 284
#     4   8  13  23  40  62  91 119 147 180 222 276
#     4   9  19  33  45  61  85 121 167 199 225 269
#
# _framework density 16.615072999999999
#
# number of rings (size 3 to 8) (size 9 to 14) (size 15 to 20)
#    0.000    2.750    1.250    2.250    0.000    4.500 
#    0.000    3.750    0.000    0.000    0.000    3.500 
#    0.000    0.000    4.250    0.000    0.250    0.000 
#
# Total GULP energy -356467.661678 kJ/mol
# GULP energy per Si atom -5569.807214 kJ/mol
# Density = 1.657726 g / cm^3
# Si number density = 16.615073 Si / 1000 Ang^3
#
#
#
# Elastic Constant Matrix: (Units=GPa)
#
#
# Indices 1 2 3 4 5 6 
#
# 1 25.5344 45.5635 37.5042 0.0000 0.0000 0.0000
# 2 45.5635 25.5343 37.5039 0.0000 0.0000 0.0000
# 3 37.5042 37.5039 128.9866 0.0000 0.0000 0.0000
# 4 0.0000 0.0000 0.0000 5.3406 0.0000 0.0000
# 5 0.0000 0.0000 0.0000 0.0000 5.3407 0.0000
# 6 0.0000 0.0000 0.0000 0.0000 0.0000 27.0102
#
#
#
# Elastic Compliance Matrix: (Units=1/GPa)
#
#
# Indices 1 2 3 4 5 6 
#
# 1 -0.014819 0.035108 -0.005899 0.000000 0.000000 0.000000
# 2 0.035108 -0.014819 -0.005899 0.000000 0.000000 0.000000
# 3 -0.005899 -0.005899 0.011183 0.000000 0.000000 0.000000
# 4 0.000000 0.000000 0.000000 0.187244 0.000000 0.000000
# 5 0.000000 0.000000 0.000000 0.000000 0.187242 0.000000
# 6 0.000000 0.000000 0.000000 0.000000 0.000000 0.037023
#
#
# Mechanical properties :
#
#
# Convention : Reuss Voigt Hill
#
# Bulk Modulus (GPa) = 35.50619 46.79981 41.15300
# Shear Modulus (GPa) = 14.05195 11.50389 12.77792
#
# Velocity S-wave (km/s) = 2.91131 2.63416 2.77619
# Velocity P-wave (km/s) = 5.71990 6.12209 5.92441
#
# Compressibility (1/GPa) = 0.02816410
#
# Stress axis : x y z
#
# Youngs Moduli (GPa) = -67.47934 -67.47988 89.41989
#
# Poissons Ratio (x) = 2.36908 0.52749
# Poissons Ratio (y) = 2.36906 0.52751
# Poissons Ratio (z) = -0.39806 -0.39808
#
# Static dielectric constant tensor:
#      x y z
#    x 1.561010 0.000000 0.000000 
#    y 0.000000 1.561010 0.000000 
#    z 0.000000 0.000000 1.584890 
# 
# From -- ./inp_files/9669.got.cif
#   From: 2010.05.17/outbox.cif.g08.bks.cpg/sg132_5_cif.got.tgz:9669.got - 2010.05.20 12:30:18.
