data_PCOD9566614
_publ_section_title
;
Structure prediction by ZEFSAII (Michael W. Deem and Ramdas Pophale) SiO2 
 PCOD9566614
Probable space group: P 42/M M C
;
_chemical_formula_sum "Si O2"
_cell_formula_units_Z 72
_cell_length_a 21.119279
_cell_length_b 21.119279
_cell_length_c 8.527820
_cell_angle_alpha 90.000000
_cell_angle_beta 90.000000
_cell_angle_gamma 90.000000
_cell_volume 3803.611923
_symmetry_space_group_name_H-M "P 42/M M C"
_symmetry_group_IT_number 131
_symmetry_cell_setting 'tetragonal'
loop_
_space_group_symop_operation_xyz
x,y,z
-x,-y,z
-y,x,1/2+z
y,-x,1/2+z
-x,y,-z
x,-y,-z
y,x,1/2-z
-y,-x,1/2-z
-x,-y,-z
x,y,-z
y,-x,1/2-z
-y,x,1/2-z
x,-y,z
-x,y,z
-y,-x,1/2+z
y,x,1/2+z
loop_
_atom_site_type_symbol
_atom_site_label
_atom_site_fract_x
_atom_site_fract_y
_atom_site_fract_z
Si Si1 0.673789 0.770694 0.811559
Si Si2 0.175229 0.927731 0.811734
Si Si3 0.570527 0.666239 0.188232
Si Si4 0.092162 0.318857 0.816136
Si Si5 0.425473 0.000000 0.187921
O O1 0.736318 0.736318 0.750000
O O2 0.615952 0.724374 0.770410
O O3 0.668546 0.835300 0.721008
O O4 0.676009 0.779611 0.000000
O O5 0.127036 0.872965 0.750000
O O6 0.248537 0.921798 0.753965
O O7 0.154323 0.000000 0.769331
O O8 0.176191 0.922701 0.000000
O O9 0.603045 0.603045 0.250000
O O10 0.500000 0.674583 0.248621
O O11 0.569211 0.663514 0.000000
O O12 0.056999 0.379895 0.743597
O O13 0.078126 0.316126 0.000000
O O14 0.500000 0.000000 0.242375
O O15 0.428016 0.000000 0.000000
#
# Coordination Sequence:
#
# PCOD9566614 Si02
#       5
#    16  16  16  16   8
#     4  10  20  36  58  84 116 153 198 249 301 356
#     4  11  24  42  66  94 129 171 217 265 318 377
#     4   9  19  35  54  78 109 147 191 239 294 356
#     4  12  24  40  64  92 125 161 203 254 308 369
#     4  11  25  45  67  91 122 161 204 249 303 367
#
# _framework density 18.929376999999999
#
# number of rings (size 3 to 8) (size 9 to 14) (size 15 to 20)
#    0.000    1.444    1.111    4.333    0.000    4.889 
#    0.000    4.444    0.000    0.000    0.000    0.000 
#    0.000    0.000    0.000    0.000    0.000    0.000 
#
# Total GULP energy -401704.960088 kJ/mol
# GULP energy per Si atom -5579.235557 kJ/mol
# Density = 1.888629 g / cm^3
# Si number density = 18.929377 Si / 1000 Ang^3
#
#
#
# Elastic Constant Matrix: (Units=GPa)
#
#
# Indices 1 2 3 4 5 6 
#
# 1 84.6892 126.3163 35.5367 0.0000 0.0000 0.0000
# 2 126.3163 84.6920 35.5393 0.0000 0.0000 0.0000
# 3 35.5367 35.5393 65.1682 0.0000 0.0000 0.0000
# 4 0.0000 0.0000 0.0000 30.0934 0.0000 0.0000
# 5 0.0000 0.0000 0.0000 0.0000 30.0935 0.0000
# 6 0.0000 0.0000 0.0000 0.0000 0.0000 -6.6269
#
#
#
# Elastic Compliance Matrix: (Units=1/GPa)
#
#
# Indices 1 2 3 4 5 6 
#
# 1 -0.009109 0.014915 -0.003166 0.000000 0.000000 0.000000
# 2 0.014915 -0.009109 -0.003165 0.000000 0.000000 0.000000
# 3 -0.003166 -0.003165 0.018798 0.000000 0.000000 0.000000
# 4 0.000000 0.000000 0.000000 0.033230 0.000000 0.000000
# 5 0.000000 0.000000 0.000000 0.000000 0.033230 0.000000
# 6 0.000000 0.000000 0.000000 0.000000 0.000000 -0.150901
#
#
# Mechanical properties :
#
#
# Convention : Reuss Voigt Hill
#
# Bulk Modulus (GPa) = 56.35308 69.92601 63.13955
# Shear Modulus (GPa) = -52.56962 13.18915 -19.69024
#
# Velocity S-wave (km/s) = -5.27558 2.64248 -3.22870
# Velocity P-wave (km/s) = 2.69707 6.80668 4.41909
#
# Compressibility (1/GPa) = 0.01774526
#
# Stress axis : x y z
#
# Youngs Moduli (GPa) = -109.78154 -109.78154 53.19753
#
# Poissons Ratio (x) = 1.63735 0.16845
# Poissons Ratio (y) = 1.63735 0.16840
# Poissons Ratio (z) = -0.34762 -0.34751
#
# Static dielectric constant tensor:
#      x y z
#    x 1.649840 0.000000 0.000000 
#    y 0.000000 1.649840 0.000000 
#    z 0.000000 0.000000 1.650060 
# 
# From -- ./inp_files/1824.got.cif
#   From: 2010.05.17/outbox.cif.g08.bks.cpg/sg131_1_cif.got.tgz:1824.got - 2010.05.20 12:21:01.
