data_PCOD9566845
_publ_section_title
;
Structure prediction by ZEFSAII (Michael W. Deem and Ramdas Pophale) SiO2 
 PCOD9566845
Probable space group: P 42/M M C
;
_chemical_formula_sum "Si O2"
_cell_formula_units_Z 56
_cell_length_a 12.662940
_cell_length_b 12.662940
_cell_length_c 19.828543
_cell_angle_alpha 90.000000
_cell_angle_beta 90.000000
_cell_angle_gamma 90.000000
_cell_volume 3179.507850
_symmetry_space_group_name_H-M "P 42/M M C"
_symmetry_group_IT_number 131
_symmetry_cell_setting 'tetragonal'
loop_
_space_group_symop_operation_xyz
x,y,z
-x,-y,z
-y,x,1/2+z
y,-x,1/2+z
-x,y,-z
x,-y,-z
y,x,1/2-z
-y,-x,1/2-z
-x,-y,-z
x,y,-z
y,-x,1/2-z
-y,x,1/2-z
x,-y,z
-x,y,z
-y,-x,1/2+z
y,x,1/2+z
loop_
_atom_site_type_symbol
_atom_site_label
_atom_site_fract_x
_atom_site_fract_y
_atom_site_fract_z
Si Si1 0.185172 0.266732 0.373398
Si Si2 0.379097 0.380111 0.668684
Si Si3 0.121018 0.121018 0.250000
Si Si4 0.872965 0.877342 0.500000
Si Si5 0.875273 0.500000 0.576265
O O1 0.308363 0.288481 0.361160
O O2 0.137825 0.208244 0.308000
O O3 0.162855 0.189714 0.435385
O O4 0.146686 0.386994 0.387761
O O5 0.374000 0.374000 0.750000
O O6 0.344773 0.500000 0.649864
O O7 0.500000 0.369794 0.648400
O O8 0.000000 0.130969 0.223732
O O9 0.000000 0.878524 0.500000
O O10 0.837396 0.000000 0.500000
O O11 0.826775 0.500000 0.500000
O O12 0.000000 0.500000 0.568413
#
# Coordination Sequence:
#
# PCOD9566845 Si02
#       5
#    16  16   8   8   8
#     4  12  21  37  62  87 120 154 198 252 302 353
#     4   9  18  35  58  86 119 153 189 232 289 354
#     4  11  24  40  58  85 122 162 204 247 296 362
#     4  11  24  41  60  81 112 161 207 242 294 364
#     4  11  22  36  57  89 123 152 190 251 311 354
#
# _framework density 17.61279
#
# number of rings (size 3 to 8) (size 9 to 14) (size 15 to 20)
#    0.000    1.286    4.286    4.286    0.000    2.286 
#    0.000    0.714    0.000    6.000    0.000    0.000 
#    0.000    0.000    0.000    0.000    0.000    0.000 
#
# Total GULP energy -312046.371121 kJ/mol
# GULP energy per Si atom -5572.256627 kJ/mol
# Density = 1.757270 g / cm^3
# Si number density = 17.612790 Si / 1000 Ang^3
#
#
#
# Elastic Constant Matrix: (Units=GPa)
#
#
# Indices 1 2 3 4 5 6 
#
# 1 124.1695 60.9488 47.1040 0.0000 0.0000 0.0000
# 2 60.9488 124.1695 47.1040 0.0000 0.0000 0.0000
# 3 47.1040 47.1040 87.4430 0.0000 0.0000 0.0000
# 4 0.0000 0.0000 0.0000 9.2090 0.0000 0.0000
# 5 0.0000 0.0000 0.0000 0.0000 9.2090 0.0000
# 6 0.0000 0.0000 0.0000 0.0000 0.0000 36.7994
#
#
#
# Elastic Compliance Matrix: (Units=1/GPa)
#
#
# Indices 1 2 3 4 5 6 
#
# 1 0.011630 -0.004188 -0.004009 0.000000 0.000000 0.000000
# 2 -0.004188 0.011630 -0.004009 0.000000 0.000000 0.000000
# 3 -0.004009 -0.004009 0.015755 0.000000 0.000000 0.000000
# 4 0.000000 0.000000 0.000000 0.108589 0.000000 0.000000
# 5 0.000000 0.000000 0.000000 0.000000 0.108589 0.000000
# 6 0.000000 0.000000 0.000000 0.000000 0.000000 0.027174
#
#
# Mechanical properties :
#
#
# Convention : Reuss Voigt Hill
#
# Bulk Modulus (GPa) = 68.47629 71.78841 70.13235
# Shear Modulus (GPa) = 15.99246 23.08517 19.53881
#
# Velocity S-wave (km/s) = 3.01658 3.62429 3.33431
# Velocity P-wave (km/s) = 7.14815 7.63949 7.39790
#
# Compressibility (1/GPa) = 0.01460360
#
# Stress axis : x y z
#
# Youngs Moduli (GPa) = 85.98550 85.98550 63.47146
#
# Poissons Ratio (x) = 0.36008 0.25445
# Poissons Ratio (y) = 0.36008 0.25445
# Poissons Ratio (z) = 0.34471 0.34471
#
# Static dielectric constant tensor:
#      x y z
#    x 1.605360 0.000000 0.000000 
#    y 0.000000 1.605360 0.000000 
#    z 0.000000 0.000000 1.625480 
# 
# From -- ./inp_files/9085.got.cif
#   From: 2010.05.17/outbox.cif.g08.bks.cpg/sg131_5_cif.got.tgz:9085.got - 2010.05.20 12:21:01.
