data_PCOD9566507
_publ_section_title
;
Structure prediction by ZEFSAII (Michael W. Deem and Ramdas Pophale) SiO2 
 PCOD9566507
Probable space group: P 42/M M C
;
_chemical_formula_sum "Si O2"
_cell_formula_units_Z 96
_cell_length_a 24.517834
_cell_length_b 24.517834
_cell_length_c 8.235230
_cell_angle_alpha 90.000000
_cell_angle_beta 90.000000
_cell_angle_gamma 90.000000
_cell_volume 4950.395914
_symmetry_space_group_name_H-M "P 42/M M C"
_symmetry_group_IT_number 131
_symmetry_cell_setting 'tetragonal'
loop_
_space_group_symop_operation_xyz
x,y,z
-x,-y,z
-y,x,1/2+z
y,-x,1/2+z
-x,y,-z
x,-y,-z
y,x,1/2-z
-y,-x,1/2-z
-x,-y,-z
x,y,-z
y,-x,1/2-z
-y,x,1/2-z
x,-y,z
-x,y,z
-y,-x,1/2+z
y,x,1/2+z
loop_
_atom_site_type_symbol
_atom_site_label
_atom_site_fract_x
_atom_site_fract_y
_atom_site_fract_z
Si Si1 0.819810 0.262187 0.696997
Si Si2 0.060126 0.580150 0.309850
Si Si3 0.439028 0.174759 0.320234
Si Si4 0.288614 0.940417 0.191886
Si Si5 0.563002 0.351572 0.693439
Si Si6 0.253027 0.638800 0.681914
O O1 0.795040 0.204961 0.750000
O O2 0.820850 0.267732 0.500000
O O3 0.881789 0.269720 0.757973
O O4 0.776355 0.308092 0.757756
O O5 0.067180 0.565605 0.500000
O O6 0.110456 0.559681 0.207035
O O7 0.061053 0.645769 0.299946
O O8 0.000000 0.562246 0.257954
O O9 0.416861 0.187351 0.500000
O O10 0.500000 0.196935 0.312190
O O11 0.402772 0.202404 0.185000
O O12 0.271223 0.000000 0.260024
O O13 0.274173 0.941027 0.000000
O O14 0.592991 0.407010 0.750000
O O15 0.560096 0.351971 0.500000
O O16 0.500000 0.345507 0.755021
O O17 0.604303 0.302159 0.740370
O O18 0.271065 0.652806 0.500000
#
# Coordination Sequence:
#
# PCOD9566507 Si02
#       6
#    16  16  16  16  16  16
#     4  10  20  33  52  81 111 140 176 217 264 314
#     4   9  17  32  53  72  93 128 178 229 269 313
#     4  11  23  35  48  70 103 140 177 223 277 327
#     4   8  14  29  52  74 100 136 178 221 261 307
#     4  11  25  44  65  89 115 142 175 217 270 331
#     4  11  22  38  59  82 108 142 183 222 266 323
#
# _framework density 19.392389999999999
#
# number of rings (size 3 to 8) (size 9 to 14) (size 15 to 20)
#    0.000    2.000    1.667    3.500    0.000    8.167 
#    0.000    2.500    0.000    0.500    0.000    0.000 
#    0.000    0.333    0.000    4.167    0.000    0.000 
#
# Total GULP energy -535193.742515 kJ/mol
# GULP energy per Si atom -5574.934818 kJ/mol
# Density = 1.934825 g / cm^3
# Si number density = 19.392390 Si / 1000 Ang^3
#
#
#
# Elastic Constant Matrix: (Units=GPa)
#
#
# Indices 1 2 3 4 5 6 
#
# 1 104.6095 70.7647 11.2273 0.0000 0.0000 0.0000
# 2 70.7647 104.6103 11.2273 0.0000 0.0000 0.0000
# 3 11.2273 11.2273 22.8417 0.0000 0.0000 0.0000
# 4 0.0000 0.0000 0.0000 23.1891 0.0000 0.0000
# 5 0.0000 0.0000 0.0000 0.0000 23.1892 0.0000
# 6 0.0000 0.0000 0.0000 0.0000 0.0000 30.3220
#
#
#
# Elastic Compliance Matrix: (Units=1/GPa)
#
#
# Indices 1 2 3 4 5 6 
#
# 1 0.017816 -0.011731 -0.002991 0.000000 0.000000 0.000000
# 2 -0.011731 0.017816 -0.002991 0.000000 0.000000 0.000000
# 3 -0.002991 -0.002991 0.046720 0.000000 0.000000 0.000000
# 4 0.000000 0.000000 0.000000 0.043124 0.000000 0.000000
# 5 0.000000 0.000000 0.000000 0.000000 0.043123 0.000000
# 6 0.000000 0.000000 0.000000 0.000000 0.000000 0.032979
#
#
# Mechanical properties :
#
#
# Convention : Reuss Voigt Hill
#
# Bulk Modulus (GPa) = 21.31012 46.50001 33.90506
# Shear Modulus (GPa) = 19.79064 24.59622 22.19343
#
# Velocity S-wave (km/s) = 3.19805 3.56525 3.38663
# Velocity P-wave (km/s) = 4.96482 6.40145 5.72835
#
# Compressibility (1/GPa) = 0.04692606
#
# Stress axis : x y z
#
# Youngs Moduli (GPa) = 56.13012 56.13061 21.40422
#
# Poissons Ratio (x) = 0.65845 0.06402
# Poissons Ratio (y) = 0.65844 0.06402
# Poissons Ratio (z) = 0.16788 0.16788
#
# Static dielectric constant tensor:
#      x y z
#    x 1.700950 0.000000 0.000000 
#    y 0.000000 1.700950 0.000000 
#    z 0.000000 0.000000 1.710420 
# 
# From -- ./inp_files/2189.got.cif
#   From: 2010.05.17/outbox.cif.g08.bks.cpg/sg131_2_cif.got.tgz:2189.got - 2010.05.20 12:21:01.
