data_PCOD9566626
_publ_section_title
;
Structure prediction by ZEFSAII (Michael W. Deem and Ramdas Pophale) SiO2 
 PCOD9566626
Probable space group: P 42/M M C
;
_chemical_formula_sum "Si O2"
_cell_formula_units_Z 48
_cell_length_a 7.992021
_cell_length_b 7.992021
_cell_length_c 38.356217
_cell_angle_alpha 90.000000
_cell_angle_beta 90.000000
_cell_angle_gamma 90.000000
_cell_volume 2449.903622
_symmetry_space_group_name_H-M "P 42/M M C"
_symmetry_group_IT_number 131
_symmetry_cell_setting 'tetragonal'
loop_
_space_group_symop_operation_xyz
x,y,z
-x,-y,z
-y,x,1/2+z
y,-x,1/2+z
-x,y,-z
x,-y,-z
y,x,1/2-z
-y,-x,1/2-z
-x,-y,-z
x,y,-z
y,-x,1/2-z
-y,x,1/2-z
x,-y,z
-x,y,z
-y,-x,1/2+z
y,x,1/2+z
loop_
_atom_site_type_symbol
_atom_site_label
_atom_site_fract_x
_atom_site_fract_y
_atom_site_fract_z
Si Si1 0.195480 0.500000 0.912451
Si Si2 0.702186 0.810838 0.959959
Si Si3 0.703468 0.188111 0.211613
Si Si4 0.500000 0.698008 0.333441
O O1 0.241054 0.335379 0.934586
O O2 0.278777 0.500000 0.874647
O O3 0.000000 0.500000 0.906214
O O4 0.500000 0.810440 0.959971
O O5 0.756259 0.000000 0.950297
O O6 0.756447 0.779234 0.000000
O O7 0.771239 0.228762 0.250000
O O8 0.500000 0.193146 0.213374
O O9 0.763461 0.332173 0.185223
O O10 0.751667 0.000000 0.201111
O O11 0.500000 0.500000 0.326628
#
# Coordination Sequence:
#
# PCOD9566626 Si02
#       4
#     8  16  16   8
#     4  12  25  37  54  85 126 164 194 242 304 362
#     4   9  19  38  64  89 113 150 204 257 300 355
#     4  10  20  36  62  89 113 145 188 241 298 355
#     4  10  22  39  59  82 118 159 200 244 290 346
#
# _framework density 19.592607000000001
#
# number of rings (size 3 to 8) (size 9 to 14) (size 15 to 20)
#    0.000    2.000    1.667    3.000    0.000    6.333 
#    0.000    5.000    0.000    0.000    0.000    0.000 
#    0.000    0.000    0.000    0.000    0.000    0.000 
#
# Total GULP energy -268015.302921 kJ/mol
# GULP energy per Si atom -5583.652144 kJ/mol
# Density = 1.954801 g / cm^3
# Si number density = 19.592607 Si / 1000 Ang^3
#
#
#
# Elastic Constant Matrix: (Units=GPa)
#
#
# Indices 1 2 3 4 5 6 
#
# 1 60.8073 45.6579 37.0389 0.0000 0.0000 0.0000
# 2 45.6579 60.8050 37.0389 0.0000 0.0000 0.0000
# 3 37.0389 37.0389 99.0379 0.0000 0.0000 0.0000
# 4 0.0000 0.0000 0.0000 -15.1080 0.0000 0.0000
# 5 0.0000 0.0000 0.0000 0.0000 -15.1088 0.0000
# 6 0.0000 0.0000 0.0000 0.0000 0.0000 -43.9105
#
#
#
# Elastic Compliance Matrix: (Units=1/GPa)
#
#
# Indices 1 2 3 4 5 6 
#
# 1 0.039355 -0.026659 -0.004748 0.000000 0.000000 0.000000
# 2 -0.026659 0.039357 -0.004749 0.000000 0.000000 0.000000
# 3 -0.004748 -0.004749 0.013649 0.000000 0.000000 0.000000
# 4 0.000000 0.000000 0.000000 -0.066190 0.000000 0.000000
# 5 0.000000 0.000000 0.000000 0.000000 -0.066187 0.000000
# 6 0.000000 0.000000 0.000000 0.000000 0.000000 -0.022774
#
#
# Mechanical properties :
#
#
# Convention : Reuss Voigt Hill
#
# Bulk Modulus (GPa) = 49.87851 51.12461 50.50156
# Shear Modulus (GPa) = 308.56404 -8.09784 150.23310
#
# Velocity S-wave (km/s) = 12.56312 -2.03521 8.76612
# Velocity P-wave (km/s) = 15.36085 4.54177 11.32659
#
# Compressibility (1/GPa) = 0.02004871
#
# Stress axis : x y z
#
# Youngs Moduli (GPa) = 25.40999 25.40876 73.26620
#
# Poissons Ratio (x) = 0.67737 0.34788
# Poissons Ratio (y) = 0.67740 0.34793
# Poissons Ratio (z) = 0.12065 0.12066
#
# Static dielectric constant tensor:
#      x y z
#    x 1.700920 0.000000 0.000000 
#    y 0.000000 1.700920 0.000000 
#    z 0.000000 0.000000 1.655840 
# 
# From -- ./inp_files/12928.got.cif
#   From: 2010.05.17/outbox.cif.g08.bks.cpg/sg131_7_cif.got.tgz:12928.got - 2010.05.20 12:21:01.
