data_PCOD9566212
_publ_section_title
;
Structure prediction by ZEFSAII (Michael W. Deem and Ramdas Pophale) SiO2 
 PCOD9566212
Probable space group: P 42/M M C
;
_chemical_formula_sum "Si O2"
_cell_formula_units_Z 96
_cell_length_a 26.000234
_cell_length_b 26.000234
_cell_length_c 8.733578
_cell_angle_alpha 90.000000
_cell_angle_beta 90.000000
_cell_angle_gamma 90.000000
_cell_volume 5904.004999
_symmetry_space_group_name_H-M "P 42/M M C"
_symmetry_group_IT_number 131
_symmetry_cell_setting 'tetragonal'
loop_
_space_group_symop_operation_xyz
x,y,z
-x,-y,z
-y,x,1/2+z
y,-x,1/2+z
-x,y,-z
x,-y,-z
y,x,1/2-z
-y,-x,1/2-z
-x,-y,-z
x,y,-z
y,-x,1/2-z
-y,x,1/2-z
x,-y,z
-x,y,z
-y,-x,1/2+z
y,x,1/2+z
loop_
_atom_site_type_symbol
_atom_site_label
_atom_site_fract_x
_atom_site_fract_y
_atom_site_fract_z
Si Si1 0.667801 0.748216 0.185149
Si Si2 0.663977 0.863017 0.681463
Si Si3 0.747630 0.060038 0.183194
Si Si4 0.140061 0.940125 0.683042
Si Si5 0.133394 0.443395 0.679711
Si Si6 0.741987 0.444779 0.319594
O O1 0.712876 0.712876 0.250000
O O2 0.672281 0.807035 0.241641
O O3 0.611584 0.727241 0.240096
O O4 0.668253 0.748177 0.000000
O O5 0.667349 0.857297 0.500000
O O6 0.706016 0.902730 0.742381
O O7 0.606929 0.882322 0.728265
O O8 0.804471 0.072421 0.245195
O O9 0.737453 0.000000 0.220880
O O10 0.746628 0.065517 0.000000
O O11 0.096853 0.903147 0.750000
O O12 0.142759 0.934807 0.500000
O O13 0.129000 0.000000 0.719198
O O14 0.120440 0.437231 0.500000
O O15 0.115025 0.500000 0.730903
O O16 0.195744 0.444718 0.688555
O O17 0.728624 0.445467 0.500000
O O18 0.724470 0.500000 0.252627
#
# Coordination Sequence:
#
# PCOD9566212 Si02
#       6
#    16  16  16  16  16  16
#     4  10  19  31  46  67  98 130 162 199 241 290
#     4  11  21  32  49  73 100 129 162 199 243 292
#     4  10  21  38  58  76  96 126 165 204 241 286
#     4  10  21  37  57  81 107 132 160 196 238 284
#     4   8  14  27  47  69  94 125 161 199 239 285
#     4   7  11  22  41  62  84 116 156 193 230 277
#
# _framework density 16.260148000000001
#
# number of rings (size 3 to 8) (size 9 to 14) (size 15 to 20)
#    0.000    2.667    0.000    5.000    0.000    3.167 
#    0.000    4.167    0.000    2.000    0.000    3.500 
#    0.000    0.333    0.000    4.167    0.000    0.167 
#
# Total GULP energy -534710.524104 kJ/mol
# GULP energy per Si atom -5569.901293 kJ/mol
# Density = 1.622314 g / cm^3
# Si number density = 16.260148 Si / 1000 Ang^3
#
#
#
# Elastic Constant Matrix: (Units=GPa)
#
#
# Indices 1 2 3 4 5 6 
#
# 1 97.9464 81.3016 47.5327 0.0000 0.0000 0.0000
# 2 81.3016 97.9373 47.5319 0.0000 0.0000 0.0000
# 3 47.5327 47.5319 67.3643 0.0000 0.0000 0.0000
# 4 0.0000 0.0000 0.0000 16.9342 0.0000 0.0000
# 5 0.0000 0.0000 0.0000 0.0000 16.9343 0.0000
# 6 0.0000 0.0000 0.0000 0.0000 0.0000 -6.0815
#
#
#
# Elastic Compliance Matrix: (Units=1/GPa)
#
#
# Indices 1 2 3 4 5 6 
#
# 1 0.034503 -0.025590 -0.006289 0.000000 0.000000 0.000000
# 2 -0.025590 0.034507 -0.006292 0.000000 0.000000 0.000000
# 3 -0.006289 -0.006292 0.023722 0.000000 0.000000 0.000000
# 4 0.000000 0.000000 0.000000 0.059052 0.000000 0.000000
# 5 0.000000 0.000000 0.000000 0.000000 0.059052 0.000000
# 6 0.000000 0.000000 0.000000 0.000000 0.000000 -0.164433
#
#
# Mechanical properties :
#
#
# Convention : Reuss Voigt Hill
#
# Bulk Modulus (GPa) = 61.01259 68.44229 64.72744
# Shear Modulus (GPa) = 38.99868 11.34953 25.17410
#
# Velocity S-wave (km/s) = 4.90268 2.64483 3.93900
# Velocity P-wave (km/s) = 8.34581 7.17706 7.78341
#
# Compressibility (1/GPa) = 0.01639006
#
# Stress axis : x y z
#
# Youngs Moduli (GPa) = 28.98287 28.97925 42.15482
#
# Poissons Ratio (x) = 0.74158 0.26513
# Poissons Ratio (y) = 0.74167 0.26523
# Poissons Ratio (z) = 0.18229 0.18233
#
# Static dielectric constant tensor:
#      x y z
#    x 1.548580 0.000000 0.000000 
#    y 0.000000 1.548580 0.000000 
#    z 0.000000 0.000000 1.541440 
# 
# From -- ./inp_files/2261.got.cif
#   From: 2010.05.17/outbox.cif.g08.bks.cpg/sg131_2_cif.got.tgz:2261.got - 2010.05.20 12:21:01.
