data_PCOD9566711
_publ_section_title
;
Structure prediction by ZEFSAII (Michael W. Deem and Ramdas Pophale) SiO2 
 PCOD9566711
Probable space group: P 42/M M C
;
_chemical_formula_sum "Si O2"
_cell_formula_units_Z 64
_cell_length_a 14.037488
_cell_length_b 14.037488
_cell_length_c 16.040108
_cell_angle_alpha 90.000000
_cell_angle_beta 90.000000
_cell_angle_gamma 90.000000
_cell_volume 3160.720434
_symmetry_space_group_name_H-M "P 42/M M C"
_symmetry_group_IT_number 131
_symmetry_cell_setting 'tetragonal'
loop_
_space_group_symop_operation_xyz
x,y,z
-x,-y,z
-y,x,1/2+z
y,-x,1/2+z
-x,y,-z
x,-y,-z
y,x,1/2-z
-y,-x,1/2-z
-x,-y,-z
x,y,-z
y,-x,1/2-z
-y,x,1/2-z
x,-y,z
-x,y,z
-y,-x,1/2+z
y,x,1/2+z
loop_
_atom_site_type_symbol
_atom_site_label
_atom_site_fract_x
_atom_site_fract_y
_atom_site_fract_z
Si Si1 0.114693 0.309815 0.406337
Si Si2 0.105973 0.886034 0.848128
Si Si3 0.387128 0.231090 0.248433
Si Si4 0.111341 0.384569 0.908319
O O1 0.133820 0.344343 0.500000
O O2 0.143332 0.198231 0.399256
O O3 0.170822 0.364441 0.334489
O O4 0.000000 0.315940 0.391926
O O5 0.127753 0.872248 0.750000
O O6 0.000000 0.847996 0.867620
O O7 0.099559 0.000000 0.859401
O O8 0.328209 0.328209 0.250000
O O9 0.500000 0.246513 0.254605
O O10 0.352608 0.170186 0.328533
O O11 0.117308 0.500000 0.908694
O O12 0.000000 0.362025 0.899065
O O13 0.144057 0.351829 0.000000
#
# Coordination Sequence:
#
# PCOD9566711 Si02
#       4
#    16  16  16  16
#     4  10  21  36  57  89 126 162 199 235 279 349
#     4   8  14  27  49  77 113 159 204 241 278 325
#     4  11  24  41  61  84 113 151 196 248 301 351
#     4   8  15  32  61  92 114 133 167 224 294 357
#
# _framework density 20.248548
#
# number of rings (size 3 to 8) (size 9 to 14) (size 15 to 20)
#    0.000    2.750    0.000    3.000    0.000    3.750 
#    0.000    5.000    0.000    0.000    0.000    5.250 
#    0.000    0.000    0.000    0.000    0.000    0.500 
#
# Total GULP energy -357427.086131 kJ/mol
# GULP energy per Si atom -5584.798221 kJ/mol
# Density = 2.020246 g / cm^3
# Si number density = 20.248548 Si / 1000 Ang^3
#
#
#
# Elastic Constant Matrix: (Units=GPa)
#
#
# Indices 1 2 3 4 5 6 
#
# 1 93.0877 26.1332 68.6019 0.0000 0.0000 0.0000
# 2 26.1332 93.0876 68.6018 0.0000 0.0000 0.0000
# 3 68.6019 68.6018 137.8611 0.0000 0.0000 0.0000
# 4 0.0000 0.0000 0.0000 20.6515 0.0000 0.0000
# 5 0.0000 0.0000 0.0000 0.0000 20.6510 0.0000
# 6 0.0000 0.0000 0.0000 0.0000 0.0000 22.7363
#
#
#
# Elastic Compliance Matrix: (Units=1/GPa)
#
#
# Indices 1 2 3 4 5 6 
#
# 1 0.017282 0.002347 -0.009768 0.000000 0.000000 0.000000
# 2 0.002347 0.017282 -0.009767 0.000000 0.000000 0.000000
# 3 -0.009768 -0.009767 0.016975 0.000000 0.000000 0.000000
# 4 0.000000 0.000000 0.000000 0.048423 0.000000 0.000000
# 5 0.000000 0.000000 0.000000 0.000000 0.048424 0.000000
# 6 0.000000 0.000000 0.000000 0.000000 0.000000 0.043983
#
#
# Mechanical properties :
#
#
# Convention : Reuss Voigt Hill
#
# Bulk Modulus (GPa) = 58.26899 72.30116 65.28507
# Shear Modulus (GPa) = 21.50860 23.52106 22.51483
#
# Velocity S-wave (km/s) = 3.26272 3.41195 3.33817
# Velocity P-wave (km/s) = 6.55997 7.16284 6.86802
#
# Compressibility (1/GPa) = 0.01716179
#
# Stress axis : x y z
#
# Youngs Moduli (GPa) = 57.86350 57.86348 58.91153
#
# Poissons Ratio (x) = -0.13578 0.57542
# Poissons Ratio (y) = -0.13578 0.57542
# Poissons Ratio (z) = 0.56518 0.56518
#
# Static dielectric constant tensor:
#      x y z
#    x 1.734160 0.000000 0.000000 
#    y 0.000000 1.734160 0.000000 
#    z 0.000000 0.000000 1.722470 
# 
# From -- ./inp_files/5434.got.cif
#   From: 2010.05.17/outbox.cif.g08.bks.cpg/sg131_3_cif.got.tgz:5434.got - 2010.05.20 12:21:01.
