data_PCOD9566323
_publ_section_title
;
Structure prediction by ZEFSAII (Michael W. Deem and Ramdas Pophale) SiO2 
 PCOD9566323
Probable space group: P 42/M M C
;
_chemical_formula_sum "Si O2"
_cell_formula_units_Z 72
_cell_length_a 21.953322
_cell_length_b 21.953322
_cell_length_c 8.403937
_cell_angle_alpha 90.000000
_cell_angle_beta 90.000000
_cell_angle_gamma 90.000000
_cell_volume 4050.263544
_symmetry_space_group_name_H-M "P 42/M M C"
_symmetry_group_IT_number 131
_symmetry_cell_setting 'tetragonal'
loop_
_space_group_symop_operation_xyz
x,y,z
-x,-y,z
-y,x,1/2+z
y,-x,1/2+z
-x,y,-z
x,-y,-z
y,x,1/2-z
-y,-x,1/2-z
-x,-y,-z
x,y,-z
y,-x,1/2-z
-y,x,1/2-z
x,-y,z
-x,y,z
-y,-x,1/2+z
y,x,1/2+z
loop_
_atom_site_type_symbol
_atom_site_label
_atom_site_fract_x
_atom_site_fract_y
_atom_site_fract_z
Si Si1 0.000000 0.569277 0.805869
Si Si2 0.668343 0.763645 0.190086
Si Si3 0.000000 0.903851 0.191104
Si Si4 0.901097 0.333109 0.192035
Si Si5 0.569723 0.334612 0.192397
Si Si6 0.000000 0.235415 0.806010
O O1 0.059278 0.608090 0.757521
O O2 0.000000 0.500000 0.749346
O O3 0.000000 0.568371 0.000000
O O4 0.727865 0.727865 0.250000
O O5 0.666288 0.832727 0.247152
O O6 0.610269 0.723349 0.245478
O O7 0.668572 0.762754 0.000000
O O8 0.058586 0.941415 0.250000
O O9 0.000000 0.834167 0.248017
O O10 0.000000 0.904452 0.000000
O O11 0.940617 0.274171 0.242988
O O12 0.899762 0.332824 0.000000
O O13 0.605774 0.394227 0.250000
O O14 0.500000 0.332210 0.247787
O O15 0.569433 0.334818 0.000000
O O16 0.000000 0.234890 0.000000
#
# Coordination Sequence:
#
# PCOD9566323 Si02
#       6
#     8  16   8  16  16   8
#     4   8  15  29  50  75 102 133 167 200 237 289
#     4  10  20  34  51  72  99 130 164 202 245 293
#     4  10  19  33  50  69  93 120 153 190 233 281
#     4   9  17  32  52  73  99 130 164 202 242 283
#     4   9  19  35  52  71  98 130 162 199 244 292
#     4   8  17  33  51  70  97 131 161 194 239 287
#
# _framework density 17.776620999999999
#
# number of rings (size 3 to 8) (size 9 to 14) (size 15 to 20)
#    0.000    2.889    0.000    2.667    0.000    3.333 
#    0.000    7.778    0.000    0.667    0.000    0.000 
#    0.000    0.000    0.000    0.000    0.000    0.000 
#
# Total GULP energy -401420.597501 kJ/mol
# GULP energy per Si atom -5575.286076 kJ/mol
# Density = 1.773616 g / cm^3
# Si number density = 17.776621 Si / 1000 Ang^3
#
#
#
# Elastic Constant Matrix: (Units=GPa)
#
#
# Indices 1 2 3 4 5 6 
#
# 1 198.5603 109.9522 24.0673 0.0000 0.0000 0.0000
# 2 109.9522 198.5584 24.0670 0.0000 0.0000 0.0000
# 3 24.0673 24.0670 16.9060 0.0000 0.0000 0.0000
# 4 0.0000 0.0000 0.0000 17.3155 0.0000 0.0000
# 5 0.0000 0.0000 0.0000 0.0000 17.3166 0.0000
# 6 0.0000 0.0000 0.0000 0.0000 0.0000 6.3135
#
#
#
# Elastic Compliance Matrix: (Units=1/GPa)
#
#
# Indices 1 2 3 4 5 6 
#
# 1 0.007726 -0.003559 -0.005932 0.000000 0.000000 0.000000
# 2 -0.003559 0.007726 -0.005932 0.000000 0.000000 0.000000
# 3 -0.005932 -0.005932 0.076040 0.000000 0.000000 0.000000
# 4 0.000000 0.000000 0.000000 0.057752 0.000000 0.000000
# 5 0.000000 0.000000 0.000000 0.000000 0.057748 0.000000
# 6 0.000000 0.000000 0.000000 0.000000 0.000000 0.158391
#
#
# Mechanical properties :
#
#
# Convention : Reuss Voigt Hill
#
# Bulk Modulus (GPa) = 16.48913 81.13309 48.81111
# Shear Modulus (GPa) = 12.00638 25.25167 18.62903
#
# Velocity S-wave (km/s) = 2.60167 3.77304 3.24072
# Velocity P-wave (km/s) = 4.28028 8.04491 6.44365
#
# Compressibility (1/GPa) = 0.06064601
#
# Stress axis : x y z
#
# Youngs Moduli (GPa) = 129.42809 129.42724 13.15098
#
# Poissons Ratio (x) = 0.46069 0.07801
# Poissons Ratio (y) = 0.46069 0.07801
# Poissons Ratio (z) = 0.76777 0.76775
#
# Static dielectric constant tensor:
#      x y z
#    x 1.592860 0.000000 0.000000 
#    y 0.000000 1.592860 0.000000 
#    z 0.000000 0.000000 1.612240 
# 
# From -- ./inp_files/1900.got.cif
#   From: 2010.05.17/outbox.cif.g08.bks.cpg/sg131_1_cif.got.tgz:1900.got - 2010.05.20 12:21:01.
