data_PCOD9566643
_publ_section_title
;
Structure prediction by ZEFSAII (Michael W. Deem and Ramdas Pophale) SiO2 
 PCOD9566643
Probable space group: P 42/M M C
;
_chemical_formula_sum "Si O2"
_cell_formula_units_Z 88
_cell_length_a 18.482762
_cell_length_b 18.482762
_cell_length_c 14.380961
_cell_angle_alpha 90.000000
_cell_angle_beta 90.000000
_cell_angle_gamma 90.000000
_cell_volume 4912.715912
_symmetry_space_group_name_H-M "P 42/M M C"
_symmetry_group_IT_number 131
_symmetry_cell_setting 'tetragonal'
loop_
_space_group_symop_operation_xyz
x,y,z
-x,-y,z
-y,x,1/2+z
y,-x,1/2+z
-x,y,-z
x,-y,-z
y,x,1/2-z
-y,-x,1/2-z
-x,-y,-z
x,y,-z
y,-x,1/2-z
-y,x,1/2-z
x,-y,z
-x,y,z
-y,-x,1/2+z
y,x,1/2+z
loop_
_atom_site_type_symbol
_atom_site_label
_atom_site_fract_x
_atom_site_fract_y
_atom_site_fract_z
Si Si1 0.190031 0.585809 0.895649
Si Si2 0.699181 0.586757 0.733874
Si Si3 0.915975 0.332386 0.225212
Si Si4 0.192169 0.849050 0.351494
Si Si5 0.084344 0.913140 0.500000
Si Si6 0.801711 0.682737 0.391423
O O1 0.194322 0.500000 0.903895
O O2 0.255303 0.606710 0.826954
O O3 0.118162 0.605639 0.838972
O O4 0.192897 0.617107 0.000000
O O5 0.620051 0.620051 0.750000
O O6 0.700543 0.500000 0.720476
O O7 0.740185 0.630366 0.651530
O O8 0.899904 0.261076 0.163258
O O9 0.869994 0.327189 0.321085
O O10 0.000000 0.340681 0.244117
O O11 0.160280 0.839721 0.250000
O O12 0.129752 0.881422 0.414644
O O13 0.216438 0.768525 0.383376
O O14 0.000000 0.890990 0.500000
O O15 0.086785 0.000000 0.500000
O O16 0.815841 0.666752 0.500000
#
# Coordination Sequence:
#
# PCOD9566643 Si02
#       6
#    16  16  16  16   8  16
#     4   9  19  36  56  79 110 149 186 222 274 340
#     4  10  21  37  59  88 119 151 189 233 284 345
#     4  10  21  34  53  82 112 143 184 240 295 342
#     4  10  21  38  56  79 107 147 195 244 291 346
#     4  11  24  38  54  80 112 150 194 243 308 372
#     4  10  20  38  60  82 111 152 199 243 289 349
#
# _framework density 17.912699
#
# number of rings (size 3 to 8) (size 9 to 14) (size 15 to 20)
#    0.000    2.091    0.909    3.273    1.273    7.455 
#    0.000    1.818    0.000    0.000    0.000    8.909 
#    0.000    0.000    0.000    0.000    0.000    0.000 
#
# Total GULP energy -490535.822159 kJ/mol
# GULP energy per Si atom -5574.270706 kJ/mol
# Density = 1.787193 g / cm^3
# Si number density = 17.912699 Si / 1000 Ang^3
#
#
#
# Elastic Constant Matrix: (Units=GPa)
#
#
# Indices 1 2 3 4 5 6 
#
# 1 84.8937 40.3764 39.0684 0.0000 0.0000 0.0000
# 2 40.3764 84.8934 39.0685 0.0000 0.0000 0.0000
# 3 39.0684 39.0685 140.0495 0.0000 0.0000 0.0000
# 4 0.0000 0.0000 0.0000 13.0041 0.0000 0.0000
# 5 0.0000 0.0000 0.0000 0.0000 13.0036 0.0000
# 6 0.0000 0.0000 0.0000 0.0000 0.0000 21.2879
#
#
#
# Elastic Compliance Matrix: (Units=1/GPa)
#
#
# Indices 1 2 3 4 5 6 
#
# 1 0.016064 -0.006399 -0.002696 0.000000 0.000000 0.000000
# 2 -0.006399 0.016064 -0.002696 0.000000 0.000000 0.000000
# 3 -0.002696 -0.002696 0.008644 0.000000 0.000000 0.000000
# 4 0.000000 0.000000 0.000000 0.076899 0.000000 0.000000
# 5 0.000000 0.000000 0.000000 0.000000 0.076902 0.000000
# 6 0.000000 0.000000 0.000000 0.000000 0.000000 0.046975
#
#
# Mechanical properties :
#
#
# Convention : Reuss Voigt Hill
#
# Bulk Modulus (GPa) = 58.17577 60.76256 59.46917
# Shear Modulus (GPa) = 18.45970 22.21401 20.33686
#
# Velocity S-wave (km/s) = 3.21368 3.52536 3.37312
# Velocity P-wave (km/s) = 6.80575 7.11098 6.96004
#
# Compressibility (1/GPa) = 0.01718929
#
# Stress axis : x y z
#
# Youngs Moduli (GPa) = 62.25184 62.25161 115.68065
#
# Poissons Ratio (x) = 0.39837 0.31187
# Poissons Ratio (y) = 0.39838 0.31188
# Poissons Ratio (z) = 0.16783 0.16783
#
# Static dielectric constant tensor:
#      x y z
#    x 1.623930 0.000000 0.000000 
#    y 0.000000 1.623930 0.000000 
#    z 0.000000 0.000000 1.653000 
# 
# From -- ./inp_files/5893.got.cif
#   From: 2010.05.17/outbox.cif.g08.bks.cpg/sg131_3_cif.got.tgz:5893.got - 2010.05.20 12:21:01.
