data_PCOD9566389
_publ_section_title
;
Structure prediction by ZEFSAII (Michael W. Deem and Ramdas Pophale) SiO2 
 PCOD9566389
Probable space group: P 42/M M C
;
_chemical_formula_sum "Si O2"
_cell_formula_units_Z 104
_cell_length_a 18.032564
_cell_length_b 18.032564
_cell_length_c 15.076913
_cell_angle_alpha 90.000000
_cell_angle_beta 90.000000
_cell_angle_gamma 90.000000
_cell_volume 4902.610525
_symmetry_space_group_name_H-M "P 42/M M C"
_symmetry_group_IT_number 131
_symmetry_cell_setting 'tetragonal'
loop_
_space_group_symop_operation_xyz
x,y,z
-x,-y,z
-y,x,1/2+z
y,-x,1/2+z
-x,y,-z
x,-y,-z
y,x,1/2-z
-y,-x,1/2-z
-x,-y,-z
x,y,-z
y,-x,1/2-z
-y,x,1/2-z
x,-y,z
-x,y,z
-y,-x,1/2+z
y,x,1/2+z
loop_
_atom_site_type_symbol
_atom_site_label
_atom_site_fract_x
_atom_site_fract_y
_atom_site_fract_z
Si Si1 0.688776 0.416369 0.392379
Si Si2 0.000000 0.195515 0.601423
Si Si3 0.657230 0.843058 0.151070
Si Si4 0.360757 0.000000 0.159770
Si Si5 0.711495 0.583055 0.104276
Si Si6 0.826627 0.161496 0.856523
Si Si7 0.324026 0.141755 0.363097
Si Si8 0.000000 0.586585 0.137615
O O1 0.688732 0.414258 0.500000
O O2 0.673371 0.500000 0.364216
O O3 0.770459 0.390719 0.363274
O O4 0.627864 0.358318 0.358121
O O5 0.077569 0.152632 0.616164
O O6 0.000000 0.222542 0.500000
O O7 0.000000 0.269359 0.663795
O O8 0.623269 0.920362 0.116163
O O9 0.740259 0.831137 0.115015
O O10 0.670162 0.856156 0.255874
O O11 0.400630 0.000000 0.255209
O O12 0.723925 0.500000 0.141332
O O13 0.782323 0.636258 0.110608
O O14 0.696769 0.574421 0.000000
O O15 0.834530 0.165470 0.750000
O O16 0.863963 0.237602 0.889166
O O17 0.372106 0.073041 0.395385
O O18 0.000000 0.500000 0.117599
#
# Coordination Sequence:
#
# PCOD9566389 Si02
#       8
#    16   8  16   8  16  16  16   8
#     4  10  21  35  51  74 106 143 183 231 288 346
#     4  10  20  34  58  95 126 155 200 247 290 347
#     4   9  17  32  53  79 108 146 188 229 270 330
#     4   8  18  32  50  78 118 152 181 223 281 341
#     4  10  21  36  54  75 100 136 184 235 289 346
#     4   9  18  33  56  84 118 154 196 234 280 341
#     4  10  19  35  58  82 111 146 189 234 282 339
#     4  10  20  34  57  87 117 150 195 246 293 346
#
# _framework density 21.213187000000001
#
# number of rings (size 3 to 8) (size 9 to 14) (size 15 to 20)
#    0.000    2.462    1.538    1.385    0.000    6.462 
#    0.000    1.923    0.000    4.154    0.000    5.923 
#    0.000    0.000    0.000    0.000    0.000    0.000 
#
# Total GULP energy -579953.151421 kJ/mol
# GULP energy per Si atom -5576.472610 kJ/mol
# Density = 2.116490 g / cm^3
# Si number density = 21.213187 Si / 1000 Ang^3
#
#
#
# Elastic Constant Matrix: (Units=GPa)
#
#
# Indices 1 2 3 4 5 6 
#
# 1 167.5012 74.5705 9.2804 0.0000 0.0000 0.0000
# 2 74.5705 167.5015 9.2801 0.0000 0.0000 0.0000
# 3 9.2804 9.2801 54.3327 0.0000 0.0000 0.0000
# 4 0.0000 0.0000 0.0000 14.5114 0.0000 0.0000
# 5 0.0000 0.0000 0.0000 0.0000 14.5114 0.0000
# 6 0.0000 0.0000 0.0000 0.0000 0.0000 0.3258
#
#
#
# Elastic Compliance Matrix: (Units=1/GPa)
#
#
# Indices 1 2 3 4 5 6 
#
# 1 0.007473 -0.003287 -0.000715 0.000000 0.000000 0.000000
# 2 -0.003287 0.007473 -0.000715 0.000000 0.000000 0.000000
# 3 -0.000715 -0.000715 0.018649 0.000000 0.000000 0.000000
# 4 0.000000 0.000000 0.000000 0.068911 0.000000 0.000000
# 5 0.000000 0.000000 0.000000 0.000000 0.068911 0.000000
# 6 0.000000 0.000000 0.000000 0.000000 0.000000 3.068984
#
#
# Mechanical properties :
#
#
# Convention : Reuss Voigt Hill
#
# Bulk Modulus (GPa) = 41.38870 63.95528 52.67199
# Shear Modulus (GPa) = 1.53474 25.61668 13.57571
#
# Velocity S-wave (km/s) = 0.85150 3.47880 2.53250
# Velocity P-wave (km/s) = 4.52989 6.80811 5.78231
#
# Compressibility (1/GPa) = 0.02416118
#
# Stress axis : x y z
#
# Youngs Moduli (GPa) = 133.81030 133.81059 53.62112
#
# Poissons Ratio (x) = 0.43989 0.03834
# Poissons Ratio (y) = 0.43989 0.03834
# Poissons Ratio (z) = 0.09567 0.09567
#
# Static dielectric constant tensor:
#      x y z
#    x 1.769520 0.000000 0.000000 
#    y 0.000000 1.769520 0.000000 
#    z 0.000000 0.000000 1.818600 
# 
# From -- ./inp_files/8130.got.cif
#   From: 2010.05.17/outbox.cif.g08.bks.cpg/sg131_5_cif.got.tgz:8130.got - 2010.05.20 12:21:01.
