data_PCOD9566562
_publ_section_title
;
Structure prediction by ZEFSAII (Michael W. Deem and Ramdas Pophale) SiO2 
 PCOD9566562
Probable space group: P 42/M M C
;
_chemical_formula_sum "Si O2"
_cell_formula_units_Z 112
_cell_length_a 14.879039
_cell_length_b 14.879039
_cell_length_c 26.562617
_cell_angle_alpha 90.000000
_cell_angle_beta 90.000000
_cell_angle_gamma 90.000000
_cell_volume 5880.586256
_symmetry_space_group_name_H-M "P 42/M M C"
_symmetry_group_IT_number 131
_symmetry_cell_setting 'tetragonal'
loop_
_space_group_symop_operation_xyz
x,y,z
-x,-y,z
-y,x,1/2+z
y,-x,1/2+z
-x,y,-z
x,-y,-z
y,x,1/2-z
-y,-x,1/2-z
-x,-y,-z
x,y,-z
y,-x,1/2-z
-y,x,1/2-z
x,-y,z
-x,y,z
-y,-x,1/2+z
y,x,1/2+z
loop_
_atom_site_type_symbol
_atom_site_label
_atom_site_fract_x
_atom_site_fract_y
_atom_site_fract_z
Si Si1 0.734286 0.394896 0.941275
Si Si2 0.706822 0.103726 0.393848
Si Si3 0.599535 0.106924 0.294205
Si Si4 0.287679 0.818172 0.207440
Si Si5 0.276332 0.602256 0.623893
Si Si6 0.640124 0.101706 0.940714
Si Si7 0.178017 0.899791 0.116692
O O1 0.747300 0.500000 0.928694
O O2 0.825611 0.339225 0.931117
O O3 0.656312 0.349149 0.908537
O O4 0.710909 0.388216 0.000000
O O5 0.666986 0.131795 0.339233
O O6 0.814226 0.115016 0.391919
O O7 0.683358 0.000000 0.404162
O O8 0.500000 0.145835 0.302227
O O9 0.637650 0.130391 0.239752
O O10 0.593428 0.000000 0.297315
O O11 0.224787 0.775214 0.250000
O O12 0.339227 0.745520 0.173250
O O13 0.231563 0.879898 0.168859
O O14 0.302411 0.500000 0.634844
O O15 0.182835 0.601153 0.592023
O O16 0.745879 0.102908 0.926672
O O17 0.608687 0.000000 0.927907
O O18 0.625406 0.115907 0.000000
O O19 0.138240 0.000000 0.117948
#
# Coordination Sequence:
#
# PCOD9566562 Si02
#       7
#    16  16  16  16  16  16  16
#     4  11  24  43  65  88 118 156 200 252 311 373
#     4  11  22  39  62  88 120 156 201 253 308 366
#     4  10  20  34  55  83 115 152 196 245 297 352
#     4  11  19  36  59  84 117 161 201 247 294 352
#     4  11  23  38  60  91 123 156 198 248 301 362
#     4   9  18  34  58  86 118 157 195 233 287 356
#     4  10  20  35  57  86 122 160 200 246 296 356
#
# _framework density 19.045718999999998
#
# number of rings (size 3 to 8) (size 9 to 14) (size 15 to 20)
#    0.000    1.571    4.286    1.714    0.000    3.714 
#    0.000    2.857    0.000    0.000    0.000    3.000 
#    0.000    0.000    0.000    0.000    0.000    0.000 
#
# Total GULP energy -624948.961305 kJ/mol
# GULP energy per Si atom -5579.901440 kJ/mol
# Density = 1.900237 g / cm^3
# Si number density = 19.045719 Si / 1000 Ang^3
#
#
#
# Elastic Constant Matrix: (Units=GPa)
#
#
# Indices 1 2 3 4 5 6 
#
# 1 78.5057 14.2369 0.6247 0.0000 0.0000 0.0000
# 2 14.2369 78.5032 0.6229 0.0000 0.0000 0.0000
# 3 0.6247 0.6229 43.7055 0.0000 0.0000 0.0000
# 4 0.0000 0.0000 0.0000 0.5533 0.0000 0.0000
# 5 0.0000 0.0000 0.0000 0.0000 0.5527 0.0000
# 6 0.0000 0.0000 0.0000 0.0000 0.0000 6.5229
#
#
#
# Elastic Compliance Matrix: (Units=1/GPa)
#
#
# Indices 1 2 3 4 5 6 
#
# 1 0.013172 -0.002388 -0.000154 0.000000 0.000000 0.000000
# 2 -0.002388 0.013173 -0.000154 0.000000 0.000000 0.000000
# 3 -0.000154 -0.000154 0.022885 0.000000 0.000000 0.000000
# 4 0.000000 0.000000 0.000000 1.807360 0.000000 0.000000
# 5 0.000000 0.000000 0.000000 0.000000 1.809211 0.000000
# 6 0.000000 0.000000 0.000000 0.000000 0.000000 0.153307
#
#
# Mechanical properties :
#
#
# Convention : Reuss Voigt Hill
#
# Bulk Modulus (GPa) = 22.81095 25.74260 24.27678
# Shear Modulus (GPa) = 1.30238 13.87444 7.58841
#
# Velocity S-wave (km/s) = 0.82783 2.70197 1.99824
# Velocity P-wave (km/s) = 3.59398 4.82491 4.25420
#
# Compressibility (1/GPa) = 0.04383859
#
# Stress axis : x y z
#
# Youngs Moduli (GPa) = 75.91782 75.91537 43.69712
#
# Poissons Ratio (x) = 0.18126 0.00674
# Poissons Ratio (y) = 0.18126 0.00671
# Poissons Ratio (z) = 0.01171 0.01166
#
# Static dielectric constant tensor:
#      x y z
#    x 1.675740 0.000000 0.000000 
#    y 0.000000 1.675740 0.000000 
#    z 0.000000 0.000000 1.646860 
# 
# From -- ./inp_files/12464.got.cif
#   From: 2010.05.17/outbox.cif.g08.bks.cpg/sg131_7_cif.got.tgz:12464.got - 2010.05.20 12:21:01.
