data_PCOD9566449
_publ_section_title
;
Structure prediction by ZEFSAII (Michael W. Deem and Ramdas Pophale) SiO2 
 PCOD9566449
Probable space group: P 42/M M C
;
_chemical_formula_sum "Si O2"
_cell_formula_units_Z 58
_cell_length_a 15.711190
_cell_length_b 15.711190
_cell_length_c 14.554928
_cell_angle_alpha 90.000000
_cell_angle_beta 90.000000
_cell_angle_gamma 90.000000
_cell_volume 3592.760132
_symmetry_space_group_name_H-M "P 42/M M C"
_symmetry_group_IT_number 131
_symmetry_cell_setting 'tetragonal'
loop_
_space_group_symop_operation_xyz
x,y,z
-x,-y,z
-y,x,1/2+z
y,-x,1/2+z
-x,y,-z
x,-y,-z
y,x,1/2-z
-y,-x,1/2-z
-x,-y,-z
x,y,-z
y,-x,1/2-z
-y,x,1/2-z
x,-y,z
-x,y,z
-y,-x,1/2+z
y,x,1/2+z
loop_
_atom_site_type_symbol
_atom_site_label
_atom_site_fract_x
_atom_site_fract_y
_atom_site_fract_z
Si Si1 0.673741 0.249499 0.394202
Si Si2 0.500000 0.500000 0.750000
Si Si3 0.098092 0.400695 0.215142
Si Si4 0.500000 0.646779 0.398031
Si Si5 0.200861 0.404122 0.391412
O O1 0.693751 0.227131 0.500000
O O2 0.661389 0.164625 0.335046
O O3 0.582512 0.294977 0.391698
O O4 0.738148 0.325191 0.366197
O O5 0.419606 0.500000 0.816563
O O6 0.110806 0.500000 0.185268
O O7 0.121327 0.399223 0.323201
O O8 0.000000 0.378866 0.198855
O O9 0.500000 0.606003 0.500000
O O10 0.181665 0.398111 0.500000
O O11 0.239454 0.500000 0.377082
#
# Coordination Sequence:
#
# PCOD9566449 Si02
#       5
#    16   2  16   8  16
#     4  10  20  34  49  67  98 132 166 208 245 291
#     4  12  26  28  52  70  92 144 174 220 244 278
#     4  10  20  32  49  70  95 130 172 210 247 296
#     4  10  23  35  44  68  98 130 171 207 248 291
#     4   9  19  33  51  72  97 129 163 206 255 297
#
# _framework density 16.143575999999999
#
# number of rings (size 3 to 8) (size 9 to 14) (size 15 to 20)
#    0.000    2.207    1.379    1.034    5.793    1.103 
#    0.000    4.138    0.000    0.000    0.000    0.000 
#    0.000    8.828    0.000   24.276    0.000    0.552 
#
# Total GULP energy -323193.799696 kJ/mol
# GULP energy per Si atom -5572.306891 kJ/mol
# Density = 1.610683 g / cm^3
# Si number density = 16.143576 Si / 1000 Ang^3
#
#
#
# Elastic Constant Matrix: (Units=GPa)
#
#
# Indices 1 2 3 4 5 6 
#
# 1 81.7975 27.9235 42.5626 0.0000 0.0000 0.0000
# 2 27.9235 81.7975 42.5626 0.0000 0.0000 0.0000
# 3 42.5626 42.5626 68.1152 0.0000 0.0000 0.0000
# 4 0.0000 0.0000 0.0000 16.6989 0.0000 0.0000
# 5 0.0000 0.0000 0.0000 0.0000 16.6989 0.0000
# 6 0.0000 0.0000 0.0000 0.0000 0.0000 6.5389
#
#
#
# Elastic Compliance Matrix: (Units=1/GPa)
#
#
# Indices 1 2 3 4 5 6 
#
# 1 0.018126 -0.000436 -0.011054 0.000000 0.000000 0.000000
# 2 -0.000436 0.018126 -0.011054 0.000000 0.000000 0.000000
# 3 -0.011054 -0.011054 0.028495 0.000000 0.000000 0.000000
# 4 0.000000 0.000000 0.000000 0.059884 0.000000 0.000000
# 5 0.000000 0.000000 0.000000 0.000000 0.059884 0.000000
# 6 0.000000 0.000000 0.000000 0.000000 0.000000 0.152931
#
#
# Mechanical properties :
#
#
# Convention : Reuss Voigt Hill
#
# Bulk Modulus (GPa) = 50.86479 50.86748 50.86614
# Shear Modulus (GPa) = 12.85063 15.89812 14.37437
#
# Velocity S-wave (km/s) = 2.82445 3.14155 2.98721
# Velocity P-wave (km/s) = 6.49714 6.68857 6.59355
#
# Compressibility (1/GPa) = 0.01965996
#
# Stress axis : x y z
#
# Youngs Moduli (GPa) = 55.16979 55.16979 35.09373
#
# Poissons Ratio (x) = 0.02405 0.38792
# Poissons Ratio (y) = 0.02405 0.38792
# Poissons Ratio (z) = 0.60983 0.60983
#
# Static dielectric constant tensor:
#      x y z
#    x 1.528730 0.000000 0.000000 
#    y 0.000000 1.528730 0.000000 
#    z 0.000000 0.000000 1.592320 
# 
# From -- ./inp_files/5483.got.cif
#   From: 2010.05.17/outbox.cif.g08.bks.cpg/sg131_3_cif.got.tgz:5483.got - 2010.05.20 12:21:01.
