data_PCOD9566725
_publ_section_title
;
Structure prediction by ZEFSAII (Michael W. Deem and Ramdas Pophale) SiO2 
 PCOD9566725
Probable space group: P 42/M M C
;
_chemical_formula_sum "Si O2"
_cell_formula_units_Z 96
_cell_length_a 14.763330
_cell_length_b 14.763330
_cell_length_c 21.100114
_cell_angle_alpha 90.000000
_cell_angle_beta 90.000000
_cell_angle_gamma 90.000000
_cell_volume 4598.894605
_symmetry_space_group_name_H-M "P 42/M M C"
_symmetry_group_IT_number 131
_symmetry_cell_setting 'tetragonal'
loop_
_space_group_symop_operation_xyz
x,y,z
-x,-y,z
-y,x,1/2+z
y,-x,1/2+z
-x,y,-z
x,-y,-z
y,x,1/2-z
-y,-x,1/2-z
-x,-y,-z
x,y,-z
y,-x,1/2-z
-y,x,1/2-z
x,-y,z
-x,y,z
-y,-x,1/2+z
y,x,1/2+z
loop_
_atom_site_type_symbol
_atom_site_label
_atom_site_fract_x
_atom_site_fract_y
_atom_site_fract_z
Si Si1 0.893398 0.741285 0.068644
Si Si2 0.609644 0.892382 0.069067
Si Si3 0.108013 0.772386 0.206838
Si Si4 0.603959 0.889418 0.210321
Si Si5 0.389320 0.396394 0.680081
Si Si6 0.392734 0.733492 0.430284
O O1 0.869760 0.791047 0.133480
O O2 0.830929 0.653205 0.070893
O O3 0.000000 0.718922 0.071773
O O4 0.877294 0.786518 0.000000
O O5 0.500000 0.885151 0.069163
O O6 0.636134 0.859088 0.139643
O O7 0.630948 0.000000 0.068178
O O8 0.641498 0.854883 0.000000
O O9 0.154194 0.845806 0.250000
O O10 0.136796 0.673772 0.234410
O O11 0.000000 0.775644 0.212979
O O12 0.500000 0.859150 0.221473
O O13 0.601515 0.000000 0.208556
O O14 0.363560 0.363560 0.750000
O O15 0.359324 0.500000 0.670424
O O16 0.500000 0.398131 0.680032
O O17 0.358078 0.331593 0.624534
O O18 0.375687 0.692918 0.500000
O O19 0.500000 0.743275 0.422741
#
# Coordination Sequence:
#
# PCOD9566725 Si02
#       6
#    16  16  16  16  16  16
#     4   9  19  36  55  73  98 136 176 216 269 326
#     4   7   9  15  31  58  94 133 165 194 237 296
#     4  10  21  37  58  83 110 141 178 221 269 320
#     4   8  14  26  46  74 106 136 169 212 260 311
#     4   8  14  25  41  64  99 142 183 222 266 318
#     4   9  17  28  45  73 104 133 173 224 273 323
#
# _framework density 20.874582
#
# number of rings (size 3 to 8) (size 9 to 14) (size 15 to 20)
#    0.000    3.500    0.000    2.000    0.000    2.167 
#    0.000    5.833    0.000    2.500    0.000    2.333 
#    0.000    0.333    0.000    0.000    0.000    0.000 
#
# Total GULP energy -534997.261927 kJ/mol
# GULP energy per Si atom -5572.888145 kJ/mol
# Density = 2.082707 g / cm^3
# Si number density = 20.874582 Si / 1000 Ang^3
#
#
#
# Elastic Constant Matrix: (Units=GPa)
#
#
# Indices 1 2 3 4 5 6 
#
# 1 29.5456 8.5042 28.2068 0.0000 0.0000 0.0000
# 2 8.5042 29.5395 28.2053 0.0000 0.0000 0.0000
# 3 28.2068 28.2053 181.3391 0.0000 0.0000 0.0000
# 4 0.0000 0.0000 0.0000 8.0125 0.0000 0.0000
# 5 0.0000 0.0000 0.0000 0.0000 8.0136 0.0000
# 6 0.0000 0.0000 0.0000 0.0000 0.0000 0.9993
#
#
#
# Elastic Compliance Matrix: (Units=1/GPa)
#
#
# Indices 1 2 3 4 5 6 
#
# 1 0.040843 -0.006685 -0.005313 0.000000 0.000000 0.000000
# 2 -0.006685 0.040852 -0.005314 0.000000 0.000000 0.000000
# 3 -0.005313 -0.005314 0.007168 0.000000 0.000000 0.000000
# 4 0.000000 0.000000 0.000000 0.124804 0.000000 0.000000
# 5 0.000000 0.000000 0.000000 0.000000 0.124787 0.000000
# 6 0.000000 0.000000 0.000000 0.000000 0.000000 1.000701
#
#
# Mechanical properties :
#
#
# Convention : Reuss Voigt Hill
#
# Bulk Modulus (GPa) = 18.43761 41.13965 29.78863
# Shear Modulus (GPa) = 3.59232 15.10561 9.34896
#
# Velocity S-wave (km/s) = 1.31326 2.69297 2.11857
# Velocity P-wave (km/s) = 3.33935 5.42404 4.50397
#
# Compressibility (1/GPa) = 0.05423697
#
# Stress axis : x y z
#
# Youngs Moduli (GPa) = 24.48420 24.47870 139.51779
#
# Poissons Ratio (x) = 0.16364 0.74128
# Poissons Ratio (y) = 0.16368 0.74143
# Poissons Ratio (z) = 0.13009 0.13008
#
# Static dielectric constant tensor:
#      x y z
#    x 1.747530 0.000000 0.000000 
#    y 0.000000 1.747530 0.000000 
#    z 0.000000 0.000000 1.821770 
# 
# From -- ./inp_files/9781.got.cif
#   From: 2010.05.17/outbox.cif.g08.bks.cpg/sg131_5_cif.got.tgz:9781.got - 2010.05.20 12:21:01.
