data_PCOD9566613
_publ_section_title
;
Structure prediction by ZEFSAII (Michael W. Deem and Ramdas Pophale) SiO2 
 PCOD9566613
Probable space group: P 42/M M C
;
_chemical_formula_sum "Si O2"
_cell_formula_units_Z 104
_cell_length_a 17.703232
_cell_length_b 17.703232
_cell_length_c 19.215243
_cell_angle_alpha 90.000000
_cell_angle_beta 90.000000
_cell_angle_gamma 90.000000
_cell_volume 6022.142150
_symmetry_space_group_name_H-M "P 42/M M C"
_symmetry_group_IT_number 131
_symmetry_cell_setting 'tetragonal'
loop_
_space_group_symop_operation_xyz
x,y,z
-x,-y,z
-y,x,1/2+z
y,-x,1/2+z
-x,y,-z
x,-y,-z
y,x,1/2-z
-y,-x,1/2-z
-x,-y,-z
x,y,-z
y,-x,1/2-z
-y,x,1/2-z
x,-y,z
-x,y,z
-y,-x,1/2+z
y,x,1/2+z
loop_
_atom_site_type_symbol
_atom_site_label
_atom_site_fract_x
_atom_site_fract_y
_atom_site_fract_z
Si Si1 0.175921 0.261653 0.922619
Si Si2 0.318581 0.341368 0.868877
Si Si3 0.913223 0.810147 0.797609
Si Si4 0.912959 0.584697 0.103073
Si Si5 0.757161 0.411451 0.735129
Si Si6 0.359442 0.918229 0.240322
Si Si7 0.410093 0.590572 0.000000
O O1 0.261450 0.279564 0.900566
O O2 0.133806 0.209175 0.867025
O O3 0.134943 0.344192 0.922520
O O4 0.171861 0.230250 0.000000
O O5 0.378851 0.304201 0.817445
O O6 0.265250 0.387767 0.814339
O O7 0.363123 0.382139 0.931606
O O8 0.870673 0.870673 0.750000
O O9 0.915450 0.729342 0.758175
O O10 0.000000 0.831051 0.812895
O O11 0.885190 0.500000 0.086147
O O12 0.916394 0.595423 0.186405
O O13 0.000000 0.591011 0.079161
O O14 0.759538 0.500000 0.732914
O O15 0.837843 0.380059 0.709233
O O16 0.375900 0.000000 0.206734
O O17 0.500000 0.614710 0.000000
O O18 0.410462 0.500000 0.000000
#
# Coordination Sequence:
#
# PCOD9566613 Si02
#       7
#    16  16  16  16  16  16   8
#     4  11  21  34  53  80 111 152 188 228 283 345
#     4  11  22  37  54  80 107 142 194 243 295 350
#     4  10  20  36  58  84 116 152 189 232 275 330
#     4   9  17  28  43  69 108 147 180 216 263 330
#     4  11  21  34  56  80 108 142 187 245 295 344
#     4   9  17  29  49  78 110 143 176 218 277 335
#     4  11  24  42  58  74 106 150 198 253 308 360
#
# _framework density 17.269601999999999
#
# number of rings (size 3 to 8) (size 9 to 14) (size 15 to 20)
#    0.000    1.769    3.846    3.692    0.000    3.231 
#    0.000    0.769    0.000    4.154    0.000    1.615 
#    0.000    1.846    0.000    0.000    0.000    0.000 
#
# Total GULP energy -579530.573279 kJ/mol
# GULP energy per Si atom -5572.409358 kJ/mol
# Density = 1.723030 g / cm^3
# Si number density = 17.269602 Si / 1000 Ang^3
#
#
#
# Elastic Constant Matrix: (Units=GPa)
#
#
# Indices 1 2 3 4 5 6 
#
# 1 71.1969 21.2838 35.2970 0.0000 0.0000 0.0000
# 2 21.2838 71.1969 35.2970 0.0000 0.0000 0.0000
# 3 35.2970 35.2970 83.5212 0.0000 0.0000 0.0000
# 4 0.0000 0.0000 0.0000 -1.3736 0.0000 0.0000
# 5 0.0000 0.0000 0.0000 0.0000 -1.3736 0.0000
# 6 0.0000 0.0000 0.0000 0.0000 0.0000 21.1466
#
#
#
# Elastic Compliance Matrix: (Units=1/GPa)
#
#
# Indices 1 2 3 4 5 6 
#
# 1 0.017999 -0.002036 -0.006746 0.000000 0.000000 0.000000
# 2 -0.002036 0.017999 -0.006746 0.000000 0.000000 0.000000
# 3 -0.006746 -0.006746 0.017675 0.000000 0.000000 0.000000
# 4 0.000000 0.000000 0.000000 -0.728012 0.000000 0.000000
# 5 0.000000 0.000000 0.000000 0.000000 -0.728012 0.000000
# 6 0.000000 0.000000 0.000000 0.000000 0.000000 0.047289
#
#
# Mechanical properties :
#
#
# Convention : Reuss Voigt Hill
#
# Bulk Modulus (GPa) = 44.21634 45.51898 44.86766
# Shear Modulus (GPa) = -3.79804 12.61570 4.40883
#
# Velocity S-wave (km/s) = -1.48460 2.70574 1.59953
# Velocity P-wave (km/s) = 4.76660 6.01468 5.42664
#
# Compressibility (1/GPa) = 0.02261607
#
# Stress axis : x y z
#
# Youngs Moduli (GPa) = 55.55974 55.55974 56.57763
#
# Poissons Ratio (x) = 0.11313 0.38167
# Poissons Ratio (y) = 0.11313 0.38167
# Poissons Ratio (z) = 0.37480 0.37480
#
# Static dielectric constant tensor:
#      x y z
#    x 1.603180 0.000000 0.000000 
#    y 0.000000 1.603180 0.000000 
#    z 0.000000 0.000000 1.623640 
# 
# From -- ./inp_files/8124.got.cif
#   From: 2010.05.17/outbox.cif.g08.bks.cpg/sg131_5_cif.got.tgz:8124.got - 2010.05.20 12:21:01.
