data_PCOD9566880
_publ_section_title
;
Structure prediction by ZEFSAII (Michael W. Deem and Ramdas Pophale) SiO2 
 PCOD9566880
Probable space group: P 42/M M C
;
_chemical_formula_sum "Si O2"
_cell_formula_units_Z 48
_cell_length_a 9.926914
_cell_length_b 9.926914
_cell_length_c 24.680609
_cell_angle_alpha 90.000000
_cell_angle_beta 90.000000
_cell_angle_gamma 90.000000
_cell_volume 2432.116593
_symmetry_space_group_name_H-M "P 42/M M C"
_symmetry_group_IT_number 131
_symmetry_cell_setting 'tetragonal'
loop_
_space_group_symop_operation_xyz
x,y,z
-x,-y,z
-y,x,1/2+z
y,-x,1/2+z
-x,y,-z
x,-y,-z
y,x,1/2-z
-y,-x,1/2-z
-x,-y,-z
x,y,-z
y,-x,1/2-z
-y,x,1/2-z
x,-y,z
-x,y,z
-y,-x,1/2+z
y,x,1/2+z
loop_
_atom_site_type_symbol
_atom_site_label
_atom_site_fract_x
_atom_site_fract_y
_atom_site_fract_z
Si Si1 0.500000 0.719015 0.664580
Si Si2 0.000000 0.000000 0.750000
Si Si3 0.724301 0.000000 0.183544
Si Si4 0.500000 0.500000 0.750000
Si Si5 0.334587 0.836693 0.500000
Si Si6 0.000000 0.500000 0.777584
Si Si7 0.656575 0.236032 0.901031
O O1 0.500000 0.638515 0.719294
O O2 0.500000 0.873489 0.681931
O O3 0.373502 0.668973 0.631428
O O4 0.000000 0.129134 0.710571
O O5 0.624765 0.000000 0.235492
O O6 0.697393 0.875720 0.143068
O O7 0.500000 0.811439 0.500000
O O8 0.261168 0.762972 0.550545
O O9 0.318627 0.000000 0.500000
O O10 0.500000 0.213705 0.918751
#
# Coordination Sequence:
#
# PCOD9566880 Si02
#       7
#     8   2   8   2   8   4  16
#     4  12  24  37  72  96 139 186 231 291 346 410
#     4  12  28  48  72  98 148 192 236 284 344 426
#     4  12  26  47  68 102 141 188 229 285 354 420
#     4  12  20  40  56 106 124 176 248 272 344 434
#     4  11  27  46  75 108 138 179 236 298 366 419
#     4  12  24  44  64 102 146 182 238 286 340 418
#     4  12  24  46  70 104 143 182 235 294 353 419
#
# _framework density 19.735897000000001
#
# number of rings (size 3 to 8) (size 9 to 14) (size 15 to 20)
#    0.000    0.167    5.000    4.500    4.667    1.333 
#    0.000    2.500    0.000    0.000    0.000    0.000 
#    0.000    0.000    0.000    0.000    0.000    0.000 
#
# Total GULP energy -267901.798205 kJ/mol
# GULP energy per Si atom -5581.287463 kJ/mol
# Density = 1.969098 g / cm^3
# Si number density = 19.735897 Si / 1000 Ang^3
#
#
#
# Elastic Constant Matrix: (Units=GPa)
#
#
# Indices 1 2 3 4 5 6 
#
# 1 156.5022 8.3374 24.7873 0.0000 0.0000 0.0000
# 2 8.3374 156.5022 24.7873 0.0000 0.0000 0.0000
# 3 24.7873 24.7873 49.1662 0.0000 0.0000 0.0000
# 4 0.0000 0.0000 0.0000 23.1902 0.0000 0.0000
# 5 0.0000 0.0000 0.0000 0.0000 23.1902 0.0000
# 6 0.0000 0.0000 0.0000 0.0000 0.0000 23.7861
#
#
#
# Elastic Compliance Matrix: (Units=1/GPa)
#
#
# Indices 1 2 3 4 5 6 
#
# 1 0.006950 0.000201 -0.003605 0.000000 0.000000 0.000000
# 2 0.000201 0.006950 -0.003605 0.000000 0.000000 0.000000
# 3 -0.003605 -0.003605 0.023974 0.000000 0.000000 0.000000
# 4 0.000000 0.000000 0.000000 0.043122 0.000000 0.000000
# 5 0.000000 0.000000 0.000000 0.000000 0.043122 0.000000
# 6 0.000000 0.000000 0.000000 0.000000 0.000000 0.042041
#
#
# Mechanical properties :
#
#
# Convention : Reuss Voigt Hill
#
# Bulk Modulus (GPa) = 41.91926 53.11050 47.51488
# Shear Modulus (GPa) = 26.57746 34.31721 30.44733
#
# Velocity S-wave (km/s) = 3.67366 4.17444 3.93203
# Velocity P-wave (km/s) = 6.26742 7.08545 6.68896
#
# Compressibility (1/GPa) = 0.02385538
#
# Stress axis : x y z
#
# Youngs Moduli (GPa) = 143.88550 143.88550 41.71156
#
# Poissons Ratio (x) = -0.02888 0.15037
# Poissons Ratio (y) = -0.02888 0.15037
# Poissons Ratio (z) = 0.51871 0.51871
#
# Static dielectric constant tensor:
#      x y z
#    x 1.714310 0.000000 0.000000 
#    y 0.000000 1.714310 0.000000 
#    z 0.000000 0.000000 1.726900 
# 
# From -- ./inp_files/13077.got.cif
#   From: 2010.05.17/outbox.cif.g08.bks.cpg/sg131_7_cif.got.tgz:13077.got - 2010.05.20 12:21:01.
