data_PCOD9566582
_publ_section_title
;
Structure prediction by ZEFSAII (Michael W. Deem and Ramdas Pophale) SiO2 
 PCOD9566582
Probable space group: P 42/M M C
;
_chemical_formula_sum "Si O2"
_cell_formula_units_Z 48
_cell_length_a 17.333364
_cell_length_b 17.333364
_cell_length_c 8.949760
_cell_angle_alpha 90.000000
_cell_angle_beta 90.000000
_cell_angle_gamma 90.000000
_cell_volume 2688.915186
_symmetry_space_group_name_H-M "P 42/M M C"
_symmetry_group_IT_number 131
_symmetry_cell_setting 'tetragonal'
loop_
_space_group_symop_operation_xyz
x,y,z
-x,-y,z
-y,x,1/2+z
y,-x,1/2+z
-x,y,-z
x,-y,-z
y,x,1/2-z
-y,-x,1/2-z
-x,-y,-z
x,y,-z
y,-x,1/2-z
-y,x,1/2-z
x,-y,z
-x,y,z
-y,-x,1/2+z
y,x,1/2+z
loop_
_atom_site_type_symbol
_atom_site_label
_atom_site_fract_x
_atom_site_fract_y
_atom_site_fract_z
Si Si1 0.269356 0.000000 0.825593
Si Si2 0.704530 0.409654 0.179019
Si Si3 0.000000 0.887829 0.172962
Si Si4 0.823254 0.291561 0.322484
O O1 0.200729 0.000000 0.708463
O O2 0.305990 0.915119 0.804043
O O3 0.241875 0.000000 0.000000
O O4 0.628202 0.371799 0.250000
O O5 0.711004 0.500000 0.213172
O O6 0.774610 0.360284 0.248113
O O7 0.703479 0.399871 0.000000
O O8 0.926893 0.926893 0.250000
O O9 0.000000 0.905471 0.000000
O O10 0.787012 0.212989 0.250000
O O11 0.808089 0.287849 0.500000
#
# Coordination Sequence:
#
# PCOD9566582 Si02
#       4
#     8  16   8  16
#     4  10  21  35  51  75 103 136 182 225 264 316
#     4  10  21  37  58  84 112 141 174 213 260 316
#     4  11  21  32  47  67  95 131 170 220 277 325
#     4  10  20  35  55  78 107 142 180 223 269 317
#
# _framework density 17.851064999999998
#
# number of rings (size 3 to 8) (size 9 to 14) (size 15 to 20)
#    0.000    1.833    0.000    7.000    0.000    8.333 
#    0.000    2.500    0.000    5.000    0.000    0.000 
#    0.000    0.000    0.000    0.000    0.000    0.000 
#
# Total GULP energy -267624.412485 kJ/mol
# GULP energy per Si atom -5575.508593 kJ/mol
# Density = 1.781044 g / cm^3
# Si number density = 17.851065 Si / 1000 Ang^3
#
#
#
# Elastic Constant Matrix: (Units=GPa)
#
#
# Indices 1 2 3 4 5 6 
#
# 1 122.7705 47.2394 53.0872 0.0000 0.0000 0.0000
# 2 47.2394 122.7703 53.0882 0.0000 0.0000 0.0000
# 3 53.0872 53.0882 114.3127 0.0000 0.0000 0.0000
# 4 0.0000 0.0000 0.0000 27.8459 0.0000 0.0000
# 5 0.0000 0.0000 0.0000 0.0000 27.8461 0.0000
# 6 0.0000 0.0000 0.0000 0.0000 0.0000 15.0270
#
#
#
# Elastic Compliance Matrix: (Units=1/GPa)
#
#
# Indices 1 2 3 4 5 6 
#
# 1 0.010762 -0.002477 -0.003847 0.000000 0.000000 0.000000
# 2 -0.002477 0.010762 -0.003848 0.000000 0.000000 0.000000
# 3 -0.003847 -0.003848 0.012322 0.000000 0.000000 0.000000
# 4 0.000000 0.000000 0.000000 0.035912 0.000000 0.000000
# 5 0.000000 0.000000 0.000000 0.000000 0.035912 0.000000
# 6 0.000000 0.000000 0.000000 0.000000 0.000000 0.066547
#
#
# Mechanical properties :
#
#
# Convention : Reuss Voigt Hill
#
# Bulk Modulus (GPa) = 74.06777 74.07589 74.07183
# Shear Modulus (GPa) = 25.37273 27.90638 26.63955
#
# Velocity S-wave (km/s) = 3.77418 3.95813 3.86725
# Velocity P-wave (km/s) = 7.78298 7.90416 7.84380
#
# Compressibility (1/GPa) = 0.01350115
#
# Stress axis : x y z
#
# Youngs Moduli (GPa) = 92.91784 92.91667 81.15808
#
# Poissons Ratio (x) = 0.23019 0.31226
# Poissons Ratio (y) = 0.23019 0.31227
# Poissons Ratio (z) = 0.35750 0.35751
#
# Static dielectric constant tensor:
#      x y z
#    x 1.631740 0.000000 0.000000 
#    y 0.000000 1.631740 0.000000 
#    z 0.000000 0.000000 1.601690 
# 
# From -- ./inp_files/1009.got.cif
#   From: 2010.05.17/outbox.cif.g08.bks.cpg/sg131_1_cif.got.tgz:1009.got - 2010.05.20 12:21:01.
