data_PCOD9566848
_publ_section_title
;
Structure prediction by ZEFSAII (Michael W. Deem and Ramdas Pophale) SiO2 
 PCOD9566848
Probable space group: P 42/M M C
;
_chemical_formula_sum "Si O2"
_cell_formula_units_Z 58
_cell_length_a 17.843748
_cell_length_b 17.843748
_cell_length_c 8.880285
_cell_angle_alpha 90.000000
_cell_angle_beta 90.000000
_cell_angle_gamma 90.000000
_cell_volume 2827.476907
_symmetry_space_group_name_H-M "P 42/M M C"
_symmetry_group_IT_number 131
_symmetry_cell_setting 'tetragonal'
loop_
_space_group_symop_operation_xyz
x,y,z
-x,-y,z
-y,x,1/2+z
y,-x,1/2+z
-x,y,-z
x,-y,-z
y,x,1/2-z
-y,-x,1/2-z
-x,-y,-z
x,y,-z
y,-x,1/2-z
-y,x,1/2-z
x,-y,z
-x,y,z
-y,-x,1/2+z
y,x,1/2+z
loop_
_atom_site_type_symbol
_atom_site_label
_atom_site_fract_x
_atom_site_fract_y
_atom_site_fract_z
Si Si1 0.500000 0.332192 0.170631
Si Si2 0.189535 0.080104 0.323389
Si Si3 0.500000 0.500000 0.750000
Si Si4 0.638040 0.249990 0.317816
Si Si5 0.081857 0.369163 0.177837
O O1 0.500000 0.421721 0.163237
O O2 0.572247 0.303631 0.260634
O O3 0.500000 0.302422 0.000000
O O4 0.149319 0.149319 0.250000
O O5 0.172848 0.081488 0.500000
O O6 0.278928 0.081588 0.309953
O O7 0.162953 0.000000 0.259602
O O8 0.714941 0.285060 0.250000
O O9 0.644230 0.249365 0.500000
O O10 0.613712 0.165772 0.266032
O O11 0.000000 0.395471 0.239327
O O12 0.081300 0.389248 0.000000
#
# Coordination Sequence:
#
# PCOD9566848 Si02
#       5
#     8  16   2  16  16
#     4  12  26  43  65  92 125 160 200 242 287 352
#     4   9  17  29  45  66  95 133 178 228 283 341
#     4  12  26  44  72  90 122 168 194 228 278 348
#     4  11  22  37  61  91 123 157 199 248 300 359
#     4   8  16  33  56  81 110 148 194 242 289 342
#
# _framework density 20.512988
#
# number of rings (size 3 to 8) (size 9 to 14) (size 15 to 20)
#    0.000    2.207    1.379    3.931    0.000    1.931 
#    0.000    3.448    0.000   10.759    0.000    0.000 
#    0.000    0.000    0.000    0.000    0.000    0.000 
#
# Total GULP energy -323033.356591 kJ/mol
# GULP energy per Si atom -5569.540631 kJ/mol
# Density = 2.046630 g / cm^3
# Si number density = 20.512988 Si / 1000 Ang^3
#
#
#
# Elastic Constant Matrix: (Units=GPa)
#
#
# Indices 1 2 3 4 5 6 
#
# 1 104.6346 24.7551 17.4002 0.0000 0.0000 0.0000
# 2 24.7551 104.6369 17.3998 0.0000 0.0000 0.0000
# 3 17.4002 17.3998 46.9172 0.0000 0.0000 0.0000
# 4 0.0000 0.0000 0.0000 8.1864 0.0000 0.0000
# 5 0.0000 0.0000 0.0000 0.0000 8.1863 0.0000
# 6 0.0000 0.0000 0.0000 0.0000 0.0000 27.3628
#
#
#
# Elastic Compliance Matrix: (Units=1/GPa)
#
#
# Indices 1 2 3 4 5 6 
#
# 1 0.010552 -0.001967 -0.003184 0.000000 0.000000 0.000000
# 2 -0.001967 0.010552 -0.003184 0.000000 0.000000 0.000000
# 3 -0.003184 -0.003184 0.023676 0.000000 0.000000 0.000000
# 4 0.000000 0.000000 0.000000 0.122154 0.000000 0.000000
# 5 0.000000 0.000000 0.000000 0.000000 0.122155 0.000000
# 6 0.000000 0.000000 0.000000 0.000000 0.000000 0.036546
#
#
# Mechanical properties :
#
#
# Convention : Reuss Voigt Hill
#
# Bulk Modulus (GPa) = 35.57445 41.69987 38.63716
# Shear Modulus (GPa) = 14.21773 21.85600 18.03686
#
# Velocity S-wave (km/s) = 2.63555 3.26770 2.96850
# Velocity P-wave (km/s) = 5.16155 5.88301 5.53405
#
# Compressibility (1/GPa) = 0.02811006
#
# Stress axis : x y z
#
# Youngs Moduli (GPa) = 94.76983 94.77227 42.23739
#
# Poissons Ratio (x) = 0.18641 0.13448
# Poissons Ratio (y) = 0.18641 0.13447
# Poissons Ratio (z) = 0.30174 0.30173
#
# Static dielectric constant tensor:
#      x y z
#    x 1.787980 0.000000 0.000000 
#    y 0.000000 1.787980 0.000000 
#    z 0.000000 0.000000 1.700470 
# 
# From -- ./inp_files/1298.got.cif
#   From: 2010.05.17/outbox.cif.g08.bks.cpg/sg131_1_cif.got.tgz:1298.got - 2010.05.20 12:21:01.
