data_PCOD9566343
_publ_section_title
;
Structure prediction by ZEFSAII (Michael W. Deem and Ramdas Pophale) SiO2 
 PCOD9566343
Probable space group: P 42/M M C
;
_chemical_formula_sum "Si O2"
_cell_formula_units_Z 120
_cell_length_a 18.106833
_cell_length_b 18.106833
_cell_length_c 19.947791
_cell_angle_alpha 90.000000
_cell_angle_beta 90.000000
_cell_angle_gamma 90.000000
_cell_volume 6540.030919
_symmetry_space_group_name_H-M "P 42/M M C"
_symmetry_group_IT_number 131
_symmetry_cell_setting 'tetragonal'
loop_
_space_group_symop_operation_xyz
x,y,z
-x,-y,z
-y,x,1/2+z
y,-x,1/2+z
-x,y,-z
x,-y,-z
y,x,1/2-z
-y,-x,1/2-z
-x,-y,-z
x,y,-z
y,-x,1/2-z
-y,x,1/2-z
x,-y,z
-x,y,z
-y,-x,1/2+z
y,x,1/2+z
loop_
_atom_site_type_symbol
_atom_site_label
_atom_site_fract_x
_atom_site_fract_y
_atom_site_fract_z
Si Si1 0.579186 0.088000 0.266181
Si Si2 0.802924 0.803382 0.170342
Si Si3 0.336352 0.695418 0.825991
Si Si4 0.411668 0.414634 0.578168
Si Si5 0.163163 0.417919 0.625005
Si Si6 0.276950 0.087206 0.075184
Si Si7 0.911123 0.691114 0.875452
Si Si8 0.586030 0.089732 0.500000
O O1 0.500000 0.115958 0.292883
O O2 0.583715 0.109422 0.189350
O O3 0.648538 0.114204 0.308066
O O4 0.578593 0.000000 0.273208
O O5 0.815431 0.815431 0.250000
O O6 0.739630 0.740229 0.163509
O O7 0.772506 0.875617 0.132788
O O8 0.872262 0.769773 0.130330
O O9 0.333831 0.666170 0.750000
O O10 0.355495 0.629618 0.876266
O O11 0.397406 0.757552 0.843673
O O12 0.391137 0.405482 0.500000
O O13 0.393456 0.500000 0.597172
O O14 0.500000 0.407316 0.583349
O O15 0.163911 0.500000 0.595813
O O16 0.131906 0.354098 0.578111
O O17 0.288743 0.000000 0.086999
O O18 0.245604 0.096018 0.000000
O O19 0.889605 0.635685 0.935635
O O20 0.000000 0.698414 0.877333
O O21 0.500000 0.115540 0.500000
O O22 0.581739 0.000000 0.500000
#
# Coordination Sequence:
#
# PCOD9566343 Si02
#       8
#    16  16  16  16  16  16  16   8
#     4   9  16  27  47  75 108 145 179 215 264 321
#     4  10  22  38  57  83 112 144 185 232 275 331
#     4  10  20  34  51  74 106 140 176 225 277 325
#     4   9  19  36  54  70  93 130 178 229 277 327
#     4  10  20  33  52  80 110 141 184 232 277 327
#     4  10  22  39  59  83 114 151 183 222 281 344
#     4  10  19  33  55  79 107 146 188 229 273 328
#     4   9  18  32  50  78 115 149 184 227 275 333
#
# _framework density 18.348537
#
# number of rings (size 3 to 8) (size 9 to 14) (size 15 to 20)
#    0.000    2.333    0.000    4.000    0.933    7.467 
#    0.000    2.667    0.000    0.400    0.000    1.867 
#    0.000    0.000    0.000    0.000    0.000    0.000 
#
# Total GULP energy -668791.544339 kJ/mol
# GULP energy per Si atom -5573.262869 kJ/mol
# Density = 1.830677 g / cm^3
# Si number density = 18.348537 Si / 1000 Ang^3
#
#
#
# Elastic Constant Matrix: (Units=GPa)
#
#
# Indices 1 2 3 4 5 6 
#
# 1 44.7029 35.4443 34.0854 0.0000 0.0000 0.0000
# 2 35.4443 44.7035 34.0856 0.0000 0.0000 0.0000
# 3 34.0854 34.0856 87.1919 0.0000 0.0000 0.0000
# 4 0.0000 0.0000 0.0000 21.0642 0.0000 0.0000
# 5 0.0000 0.0000 0.0000 0.0000 21.0640 0.0000
# 6 0.0000 0.0000 0.0000 0.0000 0.0000 23.7410
#
#
#
# Elastic Compliance Matrix: (Units=1/GPa)
#
#
# Indices 1 2 3 4 5 6 
#
# 1 0.063349 -0.044656 -0.007307 0.000000 0.000000 0.000000
# 2 -0.044656 0.063348 -0.007307 0.000000 0.000000 0.000000
# 3 -0.007307 -0.007307 0.017182 0.000000 0.000000 0.000000
# 4 0.000000 0.000000 0.000000 0.047474 0.000000 0.000000
# 5 0.000000 0.000000 0.000000 0.000000 0.047474 0.000000
# 6 0.000000 0.000000 0.000000 0.000000 0.000000 0.042121
#
#
# Mechanical properties :
#
#
# Convention : Reuss Voigt Hill
#
# Bulk Modulus (GPa) = 39.46694 42.64766 41.05730
# Shear Modulus (GPa) = 12.25687 18.03938 15.14813
#
# Velocity S-wave (km/s) = 2.58738 3.13893 2.87640
# Velocity P-wave (km/s) = 5.52108 6.03578 5.78416
#
# Compressibility (1/GPa) = 0.02533766
#
# Stress axis : x y z
#
# Youngs Moduli (GPa) = 15.78568 15.78591 58.19982
#
# Poissons Ratio (x) = 0.70493 0.42529
# Poissons Ratio (y) = 0.70492 0.42528
# Poissons Ratio (z) = 0.11535 0.11535
#
# Static dielectric constant tensor:
#      x y z
#    x 1.658690 0.000000 0.000000 
#    y 0.000000 1.658690 0.000000 
#    z 0.000000 0.000000 1.637550 
# 
# From -- ./inp_files/10152.got.cif
#   From: 2010.05.17/outbox.cif.g08.bks.cpg/sg131_6_cif.got.tgz:10152.got - 2010.05.20 12:21:01.
