data_PCOD9566693
_publ_section_title
;
Structure prediction by ZEFSAII (Michael W. Deem and Ramdas Pophale) SiO2 
 PCOD9566693
Probable space group: P 42/M M C
;
_chemical_formula_sum "Si O2"
_cell_formula_units_Z 56
_cell_length_a 12.303854
_cell_length_b 12.303854
_cell_length_c 21.320447
_cell_angle_alpha 90.000000
_cell_angle_beta 90.000000
_cell_angle_gamma 90.000000
_cell_volume 3227.592101
_symmetry_space_group_name_H-M "P 42/M M C"
_symmetry_group_IT_number 131
_symmetry_cell_setting 'tetragonal'
loop_
_space_group_symop_operation_xyz
x,y,z
-x,-y,z
-y,x,1/2+z
y,-x,1/2+z
-x,y,-z
x,-y,-z
y,x,1/2-z
-y,-x,1/2-z
-x,-y,-z
x,y,-z
y,-x,1/2-z
-y,x,1/2-z
x,-y,z
-x,y,z
-y,-x,1/2+z
y,x,1/2+z
loop_
_atom_site_type_symbol
_atom_site_label
_atom_site_fract_x
_atom_site_fract_y
_atom_site_fract_z
Si Si1 0.296550 0.257333 0.354255
Si Si2 0.876726 0.628666 0.735951
Si Si3 0.124414 0.879996 0.924917
Si Si4 0.500000 0.631008 0.575188
O O1 0.212584 0.329730 0.313606
O O2 0.343709 0.170671 0.304519
O O3 0.219303 0.195618 0.402576
O O4 0.393567 0.320548 0.389507
O O5 0.882599 0.500000 0.729667
O O6 0.000000 0.672968 0.728103
O O7 0.000000 0.868002 0.902698
O O8 0.163685 0.000000 0.904052
O O9 0.122507 0.881267 0.000000
O O10 0.500000 0.500000 0.580916
O O11 0.500000 0.656993 0.500000
#
# Coordination Sequence:
#
# PCOD9566693 Si02
#       4
#    16  16  16   8
#     4  11  20  36  57  80 107 152 188 234 286 353
#     4  10  21  36  54  80 111 142 182 237 287 341
#     4   9  18  33  54  81 111 141 178 227 284 351
#     4  11  24  40  57  81 115 153 202 252 287 334
#
# _framework density 17.350396
#
# number of rings (size 3 to 8) (size 9 to 14) (size 15 to 20)
#    0.000    1.857    1.429    4.286    0.000    0.000 
#    0.000    0.000    0.000   10.286    0.000   12.000 
#    0.000    0.000    0.000    0.000    0.000    0.000 
#
# Total GULP energy -312102.372299 kJ/mol
# GULP energy per Si atom -5573.256648 kJ/mol
# Density = 1.731091 g / cm^3
# Si number density = 17.350396 Si / 1000 Ang^3
#
#
#
# Elastic Constant Matrix: (Units=GPa)
#
#
# Indices 1 2 3 4 5 6 
#
# 1 126.4097 66.3860 55.8102 0.0000 0.0000 0.0000
# 2 66.3860 126.4097 55.8102 0.0000 0.0000 0.0000
# 3 55.8102 55.8102 90.5433 0.0000 0.0000 0.0000
# 4 0.0000 0.0000 0.0000 25.1556 0.0000 0.0000
# 5 0.0000 0.0000 0.0000 0.0000 25.1556 0.0000
# 6 0.0000 0.0000 0.0000 0.0000 0.0000 31.3827
#
#
#
# Elastic Compliance Matrix: (Units=1/GPa)
#
#
# Indices 1 2 3 4 5 6 
#
# 1 0.012363 -0.004298 -0.004971 0.000000 0.000000 0.000000
# 2 -0.004298 0.012363 -0.004971 0.000000 0.000000 0.000000
# 3 -0.004971 -0.004971 0.017173 0.000000 0.000000 0.000000
# 4 0.000000 0.000000 0.000000 0.039753 0.000000 0.000000
# 5 0.000000 0.000000 0.000000 0.000000 0.039753 0.000000
# 6 0.000000 0.000000 0.000000 0.000000 0.000000 0.031865
#
#
# Mechanical properties :
#
#
# Convention : Reuss Voigt Hill
#
# Bulk Modulus (GPa) = 74.52661 77.70836 76.11749
# Shear Modulus (GPa) = 26.84995 27.36254 27.10625
#
# Velocity S-wave (km/s) = 3.93811 3.97552 3.95686
# Velocity P-wave (km/s) = 7.98282 8.12145 8.05243
#
# Compressibility (1/GPa) = 0.01341803
#
# Stress axis : x y z
#
# Youngs Moduli (GPa) = 80.88976 80.88976 58.23166
#
# Poissons Ratio (x) = 0.34763 0.28948
# Poissons Ratio (y) = 0.34763 0.28948
# Poissons Ratio (z) = 0.40212 0.40212
#
# Static dielectric constant tensor:
#      x y z
#    x 1.585020 0.000000 0.000000 
#    y 0.000000 1.585020 0.000000 
#    z 0.000000 0.000000 1.586860 
# 
# From -- ./inp_files/8965.got.cif
#   From: 2010.05.17/outbox.cif.g08.bks.cpg/sg131_5_cif.got.tgz:8965.got - 2010.05.20 12:21:01.
