data_PCOD9566390
_publ_section_title
;
Structure prediction by ZEFSAII (Michael W. Deem and Ramdas Pophale) SiO2 
 PCOD9566390
Probable space group: P 42/M M C
;
_chemical_formula_sum "Si O2"
_cell_formula_units_Z 72
_cell_length_a 20.848128
_cell_length_b 20.848128
_cell_length_c 8.111841
_cell_angle_alpha 90.000000
_cell_angle_beta 90.000000
_cell_angle_gamma 90.000000
_cell_volume 3525.766598
_symmetry_space_group_name_H-M "P 42/M M C"
_symmetry_group_IT_number 131
_symmetry_cell_setting 'tetragonal'
loop_
_space_group_symop_operation_xyz
x,y,z
-x,-y,z
-y,x,1/2+z
y,-x,1/2+z
-x,y,-z
x,-y,-z
y,x,1/2-z
-y,-x,1/2-z
-x,-y,-z
x,y,-z
y,-x,1/2-z
-y,x,1/2-z
x,-y,z
-x,y,z
-y,-x,1/2+z
y,x,1/2+z
loop_
_atom_site_type_symbol
_atom_site_label
_atom_site_fract_x
_atom_site_fract_y
_atom_site_fract_z
Si Si1 0.574528 0.319503 0.199445
Si Si2 0.073626 0.500000 0.702008
Si Si3 0.394487 0.174980 0.194492
Si Si4 0.310604 0.070404 0.690140
Si Si5 0.069395 0.829866 0.691838
O O1 0.625289 0.374711 0.250000
O O2 0.500000 0.330913 0.251659
O O3 0.595398 0.247426 0.258798
O O4 0.574592 0.318714 0.000000
O O5 0.070678 0.500000 0.500000
O O6 0.118547 0.558574 0.757169
O O7 0.000000 0.500000 0.760143
O O8 0.328947 0.137384 0.223724
O O9 0.407229 0.180587 0.000000
O O10 0.330596 0.073143 0.500000
O O11 0.234517 0.068180 0.703691
O O12 0.333777 0.000000 0.759797
O O13 0.124705 0.875295 0.750000
O O14 0.076773 0.811694 0.500000
O O15 0.000000 0.862219 0.709546
#
# Coordination Sequence:
#
# PCOD9566390 Si02
#       5
#    16   8  16  16  16
#     4  10  22  41  63  88 118 151 192 243 297 354
#     4   9  16  28  53  85 112 145 188 232 281 337
#     4  10  19  35  58  84 115 150 193 242 287 342
#     4  10  21  36  54  80 117 157 196 239 286 340
#     4  10  21  37  57  80 107 143 188 237 289 345
#
# _framework density 20.421088999999998
#
# number of rings (size 3 to 8) (size 9 to 14) (size 15 to 20)
#    0.000    2.111    1.111    2.000    0.000    6.222 
#    0.000    5.000    0.000    2.000    0.000    0.000 
#    0.000    0.000    0.000    0.000    0.000    0.000 
#
# Total GULP energy -400877.993526 kJ/mol
# GULP energy per Si atom -5567.749910 kJ/mol
# Density = 2.037461 g / cm^3
# Si number density = 20.421089 Si / 1000 Ang^3
#
#
#
# Elastic Constant Matrix: (Units=GPa)
#
#
# Indices 1 2 3 4 5 6 
#
# 1 138.5128 93.3990 12.6004 0.0000 0.0000 0.0000
# 2 93.3990 138.5120 12.6007 0.0000 0.0000 0.0000
# 3 12.6004 12.6007 27.0603 0.0000 0.0000 0.0000
# 4 0.0000 0.0000 0.0000 23.3730 0.0000 0.0000
# 5 0.0000 0.0000 0.0000 0.0000 23.3728 0.0000
# 6 0.0000 0.0000 0.0000 0.0000 0.0000 33.2493
#
#
#
# Elastic Compliance Matrix: (Units=1/GPa)
#
#
# Indices 1 2 3 4 5 6 
#
# 1 0.013354 -0.008812 -0.002115 0.000000 0.000000 0.000000
# 2 -0.008812 0.013354 -0.002115 0.000000 0.000000 0.000000
# 3 -0.002115 -0.002115 0.038924 0.000000 0.000000 0.000000
# 4 0.000000 0.000000 0.000000 0.042784 0.000000 0.000000
# 5 0.000000 0.000000 0.000000 0.000000 0.042785 0.000000
# 6 0.000000 0.000000 0.000000 0.000000 0.000000 0.030076
#
#
# Mechanical properties :
#
#
# Convention : Reuss Voigt Hill
#
# Bulk Modulus (GPa) = 25.28559 60.14279 42.71419
# Shear Modulus (GPa) = 22.67120 28.36468 25.51794
#
# Velocity S-wave (km/s) = 3.33556 3.73096 3.53879
# Velocity P-wave (km/s) = 5.21954 6.93364 6.13673
#
# Compressibility (1/GPa) = 0.03954822
#
# Stress axis : x y z
#
# Youngs Moduli (GPa) = 74.88368 74.88308 25.69102
#
# Poissons Ratio (x) = 0.65989 0.05433
# Poissons Ratio (y) = 0.65990 0.05434
# Poissons Ratio (z) = 0.15836 0.15838
#
# Static dielectric constant tensor:
#      x y z
#    x 1.652260 0.000000 0.000000 
#    y 0.000000 1.652260 0.000000 
#    z 0.000000 0.000000 1.766920 
# 
# From -- ./inp_files/1766.got.cif
#   From: 2010.05.17/outbox.cif.g08.bks.cpg/sg131_1_cif.got.tgz:1766.got - 2010.05.20 12:21:01.
