data_PCOD9566573
_publ_section_title
;
Structure prediction by ZEFSAII (Michael W. Deem and Ramdas Pophale) SiO2 
 PCOD9566573
Probable space group: P 42/M M C
;
_chemical_formula_sum "Si O2"
_cell_formula_units_Z 64
_cell_length_a 20.593733
_cell_length_b 20.593733
_cell_length_c 7.506797
_cell_angle_alpha 90.000000
_cell_angle_beta 90.000000
_cell_angle_gamma 90.000000
_cell_volume 3183.646412
_symmetry_space_group_name_H-M "P 42/M M C"
_symmetry_group_IT_number 131
_symmetry_cell_setting 'tetragonal'
loop_
_space_group_symop_operation_xyz
x,y,z
-x,-y,z
-y,x,1/2+z
y,-x,1/2+z
-x,y,-z
x,-y,-z
y,x,1/2-z
-y,-x,1/2-z
-x,-y,-z
x,y,-z
y,-x,1/2-z
-y,x,1/2-z
x,-y,z
-x,y,z
-y,-x,1/2+z
y,x,1/2+z
loop_
_atom_site_type_symbol
_atom_site_label
_atom_site_fract_x
_atom_site_fract_y
_atom_site_fract_z
Si Si1 0.000000 0.893020 0.209354
Si Si2 0.253866 0.360485 0.213583
Si Si3 0.500000 0.899536 0.293695
Si Si4 0.894121 0.357529 0.781567
Si Si5 0.000000 0.254126 0.218019
Si Si6 0.741290 0.500000 0.793542
O O1 0.063023 0.936978 0.250000
O O2 0.000000 0.820001 0.284813
O O3 0.000000 0.884687 0.000000
O O4 0.302711 0.302711 0.250000
O O5 0.180359 0.348446 0.276045
O O6 0.277687 0.430483 0.284921
O O7 0.248957 0.367470 0.000000
O O8 0.500000 0.920638 0.500000
O O9 0.570818 0.917826 0.220081
O O10 0.500000 0.820416 0.292288
O O11 0.938343 0.297435 0.727212
O O12 0.895380 0.359900 0.000000
O O13 0.000000 0.252738 0.000000
O O14 0.719858 0.500000 0.000000
#
# Coordination Sequence:
#
# PCOD9566573 Si02
#       6
#     8  16   8  16   8   8
#     4  10  20  35  53  68  84 111 146 181 218 261
#     4   9  16  27  44  64  86 113 144 177 213 254
#     4   7  10  19  36  56  82 117 147 167 196 247
#     4   8  14  24  38  60  89 117 144 173 208 251
#     4   9  17  27  41  65  93 115 138 176 220 253
#     4   7  12  24  40  58  83 114 142 169 208 256
#
# _framework density 20.102734000000002
#
# number of rings (size 3 to 8) (size 9 to 14) (size 15 to 20)
#    0.000    3.625    0.000    3.750    0.000    1.500 
#    0.000    3.125    0.000    1.875    0.000    2.625 
#    0.000    0.000    0.000   13.500    0.000   13.000 
#
# Total GULP energy -356443.318819 kJ/mol
# GULP energy per Si atom -5569.426857 kJ/mol
# Density = 2.005698 g / cm^3
# Si number density = 20.102734 Si / 1000 Ang^3
#
#
#
# Elastic Constant Matrix: (Units=GPa)
#
#
# Indices 1 2 3 4 5 6 
#
# 1 178.9406 110.6915 5.5693 0.0000 0.0000 0.0000
# 2 110.6915 178.9414 5.5687 0.0000 0.0000 0.0000
# 3 5.5693 5.5687 51.9147 0.0000 0.0000 0.0000
# 4 0.0000 0.0000 0.0000 3.5378 0.0000 0.0000
# 5 0.0000 0.0000 0.0000 0.0000 3.5383 0.0000
# 6 0.0000 0.0000 0.0000 0.0000 0.0000 49.4244
#
#
#
# Elastic Compliance Matrix: (Units=1/GPa)
#
#
# Indices 1 2 3 4 5 6 
#
# 1 0.009060 -0.005593 -0.000372 0.000000 0.000000 0.000000
# 2 -0.005593 0.009060 -0.000372 0.000000 0.000000 0.000000
# 3 -0.000372 -0.000372 0.019342 0.000000 0.000000 0.000000
# 4 0.000000 0.000000 0.000000 0.282658 0.000000 0.000000
# 5 0.000000 0.000000 0.000000 0.000000 0.282623 0.000000
# 6 0.000000 0.000000 0.000000 0.000000 0.000000 0.020233
#
#
# Mechanical properties :
#
#
# Convention : Reuss Voigt Hill
#
# Bulk Modulus (GPa) = 40.34137 72.60617 56.47377
# Shear Modulus (GPa) = 7.76504 30.49792 19.13148
#
# Velocity S-wave (km/s) = 1.96750 3.89923 3.08829
# Velocity P-wave (km/s) = 5.02719 7.51451 6.39298
#
# Compressibility (1/GPa) = 0.02478845
#
# Stress axis : x y z
#
# Youngs Moduli (GPa) = 110.38064 110.38124 51.70052
#
# Poissons Ratio (x) = 0.61732 0.01923
# Poissons Ratio (y) = 0.61731 0.01922
# Poissons Ratio (z) = 0.04106 0.04104
#
# Static dielectric constant tensor:
#      x y z
#    x 1.739880 0.000000 0.000000 
#    y 0.000000 1.739890 0.000000 
#    z 0.000000 0.000000 1.798560 
# 
# From -- ./inp_files/4110.got.cif
#   From: 2010.05.17/outbox.cif.g08.bks.cpg/sg131_3_cif.got.tgz:4110.got - 2010.05.20 12:21:01.
