data_PCOD9566004
_publ_section_title
;
Structure prediction by ZEFSAII (Michael W. Deem and Ramdas Pophale) SiO2 
 PCOD9566004
Probable space group: P 4/N C C
;
_chemical_formula_sum "Si O2"
_cell_formula_units_Z 72
_cell_length_a 17.165490
_cell_length_b 17.165490
_cell_length_c 9.488964
_cell_angle_alpha 90.000000
_cell_angle_beta 90.000000
_cell_angle_gamma 90.000000
_cell_volume 2795.961644
_symmetry_space_group_name_H-M "P 4/N C C"
_symmetry_group_IT_number 130
_symmetry_cell_setting 'tetragonal'
loop_
_space_group_symop_operation_xyz
x,y,z
1/2-y,x,z
1/2-x,1/2-y,z
y,1/2-x,z
1/2+x,-y,1/2-z
-x,1/2+y,1/2-z
1/2+y,1/2+x,1/2-z
-y,-x,1/2-z
-x,-y,-z
1/2+y,-x,-z
1/2+x,1/2+y,-z
-y,1/2+x,-z
1/2-x,y,1/2+z
x,1/2-y,1/2+z
1/2-y,1/2-x,1/2+z
y,x,1/2+z
loop_
_atom_site_type_symbol
_atom_site_label
_atom_site_fract_x
_atom_site_fract_y
_atom_site_fract_z
Si Si1 0.250000 0.250000 0.633114
Si Si2 0.838157 0.390962 0.938134
Si Si3 0.484953 0.366487 0.364815
Si Si4 0.750000 0.250000 0.500000
Si Si5 0.395421 0.374186 0.625601
Si Si6 0.033217 0.713774 0.718493
O O1 0.185652 0.323229 0.632851
O O2 0.816264 0.299471 0.924160
O O3 0.772395 0.426772 0.832947
O O4 0.832253 0.415451 0.103358
O O5 0.418734 0.397110 0.468337
O O6 0.485585 0.273172 0.381702
O O7 0.452237 0.379249 0.210243
O O8 0.570957 0.396525 0.397683
O O9 0.162246 0.472996 0.694699
#
# Coordination Sequence:
#
# PCOD9566004 Si02
#       6
#     4  16  16   4  16  16
#     4  12  28  50  88 114 160 230 288 358 408 526
#     4  12  28  52  83 117 171 214 278 350 426 517
#     4  12  29  54  80 124 167 221 282 359 432 510
#     4  12  24  46  84 114 148 222 268 326 408 502
#     4  12  29  52  85 118 168 222 290 354 432 515
#     4  12  26  55  77 120 163 217 280 347 425 518
#
# _framework density 25.751425999999999
#
# number of rings (size 3 to 8) (size 9 to 14) (size 15 to 20)
#    0.000    0.000    6.667    0.667    6.222    6.222 
#    4.000    0.000    0.000    0.000    0.000    0.000 
#    0.000    0.000    0.000    0.000    0.000    0.000 
#
# Total GULP energy -401777.696049 kJ/mol
# GULP energy per Si atom -5580.245778 kJ/mol
# Density = 2.569281 g / cm^3
# Si number density = 25.751426 Si / 1000 Ang^3
#
#
#
# Elastic Constant Matrix: (Units=GPa)
#
#
# Indices 1 2 3 4 5 6 
#
# 1 134.0771 24.5822 7.6523 0.0000 0.0000 0.0000
# 2 24.5822 134.0771 7.6523 0.0000 0.0000 0.0000
# 3 7.6523 7.6523 87.6889 0.0000 0.0000 0.0000
# 4 0.0000 0.0000 0.0000 31.3942 0.0000 0.0000
# 5 0.0000 0.0000 0.0000 0.0000 31.3942 0.0000
# 6 0.0000 0.0000 0.0000 0.0000 0.0000 42.3470
#
#
#
# Elastic Compliance Matrix: (Units=1/GPa)
#
#
# Indices 1 2 3 4 5 6 
#
# 1 0.007745 -0.001388 -0.000555 0.000000 0.000000 0.000000
# 2 -0.001388 0.007745 -0.000555 0.000000 0.000000 0.000000
# 3 -0.000555 -0.000555 0.011501 0.000000 0.000000 0.000000
# 4 0.000000 0.000000 0.000000 0.031853 0.000000 0.000000
# 5 0.000000 0.000000 0.000000 0.000000 0.031853 0.000000
# 6 0.000000 0.000000 0.000000 0.000000 0.000000 0.023614
#
#
# Mechanical properties :
#
#
# Convention : Reuss Voigt Hill
#
# Bulk Modulus (GPa) = 45.46564 48.40184 46.93374
# Shear Modulus (GPa) = 39.48286 42.09084 40.78685
#
# Velocity S-wave (km/s) = 3.91990 4.04729 3.98410
# Velocity P-wave (km/s) = 6.17911 6.37788 6.27928
#
# Compressibility (1/GPa) = 0.02199463
#
# Stress axis : x y z
#
# Youngs Moduli (GPa) = 129.12254 129.12254 86.95079
#
# Poissons Ratio (x) = 0.17926 0.04823
# Poissons Ratio (y) = 0.17926 0.04823
# Poissons Ratio (z) = 0.07162 0.07162
#
# Static dielectric constant tensor:
#      x y z
#    x 2.056610 0.000000 0.000000 
#    y 0.000000 2.056610 0.000000 
#    z 0.000000 0.000000 2.170080 
# 
# From -- ./inp_files/813.got.cif
#   From: 2010.05.17/outbox.cif.g08.bks.cpg/sg130_1_cif.got.tgz:813.got - 2010.05.20 12:17:35.
