data_PCOD9566254
_publ_section_title
;
Structure prediction by ZEFSAII (Michael W. Deem and Ramdas Pophale) SiO2 
 PCOD9566254
Probable space group: P 42/M M C
;
_chemical_formula_sum "Si O2"
_cell_formula_units_Z 96
_cell_length_a 25.024441
_cell_length_b 25.024441
_cell_length_c 7.586573
_cell_angle_alpha 90.000000
_cell_angle_beta 90.000000
_cell_angle_gamma 90.000000
_cell_volume 4750.883828
_symmetry_space_group_name_H-M "P 42/M M C"
_symmetry_group_IT_number 131
_symmetry_cell_setting 'tetragonal'
loop_
_space_group_symop_operation_xyz
x,y,z
-x,-y,z
-y,x,1/2+z
y,-x,1/2+z
-x,y,-z
x,-y,-z
y,x,1/2-z
-y,-x,1/2-z
-x,-y,-z
x,y,-z
y,-x,1/2-z
-y,x,1/2-z
x,-y,z
-x,y,z
-y,-x,1/2+z
y,x,1/2+z
loop_
_atom_site_type_symbol
_atom_site_label
_atom_site_fract_x
_atom_site_fract_y
_atom_site_fract_z
Si Si1 0.059198 0.438020 0.787227
Si Si2 0.646626 0.733404 0.211901
Si Si3 0.939839 0.267394 0.715794
Si Si4 0.647268 0.439281 0.711763
Si Si5 0.854402 0.351368 0.292572
Si Si6 0.941387 0.145986 0.289283
O O1 0.063772 0.500000 0.735197
O O2 0.109419 0.404147 0.724059
O O3 0.000000 0.418651 0.727488
O O4 0.059190 0.435925 0.000000
O O5 0.701293 0.701293 0.250000
O O6 0.598143 0.695858 0.278683
O O7 0.645333 0.794248 0.279832
O O8 0.641058 0.735440 0.000000
O O9 0.939524 0.269074 0.500000
O O10 0.892879 0.305265 0.781907
O O11 0.931207 0.206318 0.772776
O O12 0.000000 0.283614 0.769820
O O13 0.592897 0.407104 0.750000
O O14 0.652296 0.441716 0.500000
O O15 0.647855 0.500000 0.778731
O O16 0.847924 0.339828 0.500000
O O17 0.895400 0.104601 0.250000
O O18 0.944548 0.149644 0.500000
O O19 0.000000 0.128763 0.223396
#
# Coordination Sequence:
#
# PCOD9566254 Si02
#       6
#    16  16  16  16  16  16
#     4   9  19  35  51  70 102 138 166 199 248 301
#     4   9  19  34  50  71 100 131 162 198 241 288
#     4   8  15  29  47  67  93 122 151 189 238 283
#     4   9  18  33  51  70  96 128 157 190 234 279
#     4  10  19  31  52  78  98 124 167 210 244 285
#     4   9  18  32  48  66  91 122 153 189 236 287
#
# _framework density 20.206765999999998
#
# number of rings (size 3 to 8) (size 9 to 14) (size 15 to 20)
#    0.000    3.000    0.000    2.000    0.000    4.333 
#    0.000    5.000    0.000    1.000    0.000    0.000 
#    0.000    0.000    0.000    0.000    0.000    0.000 
#
# Total GULP energy -535335.492111 kJ/mol
# GULP energy per Si atom -5576.411376 kJ/mol
# Density = 2.016077 g / cm^3
# Si number density = 20.206766 Si / 1000 Ang^3
#
#
#
# Elastic Constant Matrix: (Units=GPa)
#
#
# Indices 1 2 3 4 5 6 
#
# 1 179.1731 113.2188 1.5407 0.0000 0.0000 0.0000
# 2 113.2188 179.1667 1.5420 0.0000 0.0000 0.0000
# 3 1.5407 1.5420 42.0217 0.0000 0.0000 0.0000
# 4 0.0000 0.0000 0.0000 18.3231 0.0000 0.0000
# 5 0.0000 0.0000 0.0000 0.0000 18.3226 0.0000
# 6 0.0000 0.0000 0.0000 0.0000 0.0000 32.4603
#
#
#
# Elastic Compliance Matrix: (Units=1/GPa)
#
#
# Indices 1 2 3 4 5 6 
#
# 1 0.009292 -0.005871 -0.000125 0.000000 0.000000 0.000000
# 2 -0.005871 0.009292 -0.000126 0.000000 0.000000 0.000000
# 3 -0.000125 -0.000126 0.023806 0.000000 0.000000 0.000000
# 4 0.000000 0.000000 0.000000 0.054576 0.000000 0.000000
# 5 0.000000 0.000000 0.000000 0.000000 0.054577 0.000000
# 6 0.000000 0.000000 0.000000 0.000000 0.000000 0.030807
#
#
# Mechanical properties :
#
#
# Convention : Reuss Voigt Hill
#
# Bulk Modulus (GPa) = 33.17046 70.32938 51.74992
# Shear Modulus (GPa) = 24.43275 32.75853 28.59564
#
# Velocity S-wave (km/s) = 3.48104 4.03074 3.76593
# Velocity P-wave (km/s) = 5.71034 7.51950 6.67648
#
# Compressibility (1/GPa) = 0.03014731
#
# Stress axis : x y z
#
# Youngs Moduli (GPa) = 107.62032 107.61641 42.00545
#
# Poissons Ratio (x) = 0.63178 0.00526
# Poissons Ratio (y) = 0.63180 0.00528
# Poissons Ratio (z) = 0.01348 0.01353
#
# Static dielectric constant tensor:
#      x y z
#    x 1.713340 0.000000 0.000000 
#    y 0.000000 1.713340 0.000000 
#    z 0.000000 0.000000 1.783430 
# 
# From -- ./inp_files/2169.got.cif
#   From: 2010.05.17/outbox.cif.g08.bks.cpg/sg131_2_cif.got.tgz:2169.got - 2010.05.20 12:21:01.
