data_PCOD9566499
_publ_section_title
;
Structure prediction by ZEFSAII (Michael W. Deem and Ramdas Pophale) SiO2 
 PCOD9566499
Probable space group: P 42/M M C
;
_chemical_formula_sum "Si O2"
_cell_formula_units_Z 88
_cell_length_a 12.969368
_cell_length_b 12.969368
_cell_length_c 31.286256
_cell_angle_alpha 90.000000
_cell_angle_beta 90.000000
_cell_angle_gamma 90.000000
_cell_volume 5262.489245
_symmetry_space_group_name_H-M "P 42/M M C"
_symmetry_group_IT_number 131
_symmetry_cell_setting 'tetragonal'
loop_
_space_group_symop_operation_xyz
x,y,z
-x,-y,z
-y,x,1/2+z
y,-x,1/2+z
-x,y,-z
x,-y,-z
y,x,1/2-z
-y,-x,1/2-z
-x,-y,-z
x,y,-z
y,-x,1/2-z
-y,x,1/2-z
x,-y,z
-x,y,z
-y,-x,1/2+z
y,x,1/2+z
loop_
_atom_site_type_symbol
_atom_site_label
_atom_site_fract_x
_atom_site_fract_y
_atom_site_fract_z
Si Si1 0.878318 0.117043 0.889656
Si Si2 0.120767 0.307104 0.949468
Si Si3 0.377015 0.876132 0.747665
Si Si4 0.625441 0.500000 0.451788
Si Si5 0.248217 0.760754 0.180362
Si Si6 0.618473 0.307355 0.604561
O O1 0.864208 0.192315 0.930204
O O2 0.817756 0.162109 0.849183
O O3 0.000000 0.118926 0.879750
O O4 0.847371 0.000000 0.898774
O O5 0.199803 0.373104 0.921304
O O6 0.000000 0.334929 0.942992
O O7 0.142295 0.313658 0.000000
O O8 0.500000 0.854889 0.744210
O O9 0.326453 0.822754 0.789321
O O10 0.311701 0.826565 0.708806
O O11 0.363909 0.000000 0.748744
O O12 0.500000 0.500000 0.453486
O O13 0.664196 0.500000 0.500000
O O14 0.656079 0.602303 0.426644
O O15 0.304343 0.686684 0.146720
O O16 0.500000 0.326734 0.615681
#
# Coordination Sequence:
#
# PCOD9566499 Si02
#       6
#    16  16  16   8  16  16
#     4   9  17  30  49  73 100 130 165 206 252 303
#     4   9  18  31  47  72 104 136 171 210 255 309
#     4  10  21  36  54  75 101 133 168 209 258 315
#     4   9  18  32  50  72  97 131 173 213 252 300
#     4  10  20  34  53  74 102 129 169 209 257 307
#     4  10  20  33  51  74 101 135 172 215 259 306
#
# _framework density 16.722124000000001
#
# number of rings (size 3 to 8) (size 9 to 14) (size 15 to 20)
#    0.000    2.455    0.000    2.182    1.273    2.545 
#    0.000    2.727    0.000    5.455    0.000    0.000 
#    0.000    7.636    0.000    0.000    0.000    0.000 
#
# Total GULP energy -490530.173360 kJ/mol
# GULP energy per Si atom -5574.206515 kJ/mol
# Density = 1.668406 g / cm^3
# Si number density = 16.722124 Si / 1000 Ang^3
#
#
#
# Elastic Constant Matrix: (Units=GPa)
#
#
# Indices 1 2 3 4 5 6 
#
# 1 62.4412 24.2949 21.1188 0.0000 0.0000 0.0000
# 2 24.2949 62.4412 21.1188 0.0000 0.0000 0.0000
# 3 21.1188 21.1188 83.6615 0.0000 0.0000 0.0000
# 4 0.0000 0.0000 0.0000 16.2825 0.0000 0.0000
# 5 0.0000 0.0000 0.0000 0.0000 16.2825 0.0000
# 6 0.0000 0.0000 0.0000 0.0000 0.0000 17.8697
#
#
#
# Elastic Compliance Matrix: (Units=1/GPa)
#
#
# Indices 1 2 3 4 5 6 
#
# 1 0.019680 -0.006535 -0.003318 0.000000 0.000000 0.000000
# 2 -0.006535 0.019680 -0.003318 0.000000 0.000000 0.000000
# 3 -0.003318 -0.003318 0.013628 0.000000 0.000000 0.000000
# 4 0.000000 0.000000 0.000000 0.061416 0.000000 0.000000
# 5 0.000000 0.000000 0.000000 0.000000 0.061416 0.000000
# 6 0.000000 0.000000 0.000000 0.000000 0.000000 0.055961
#
#
# Mechanical properties :
#
#
# Convention : Reuss Voigt Hill
#
# Bulk Modulus (GPa) = 37.52984 37.95650 37.74317
# Shear Modulus (GPa) = 18.72627 19.55437 19.14032
#
# Velocity S-wave (km/s) = 3.35005 3.42332 3.38688
# Velocity P-wave (km/s) = 6.12011 6.19460 6.15747
#
# Compressibility (1/GPa) = 0.02664546
#
# Stress axis : x y z
#
# Youngs Moduli (GPa) = 50.81305 50.81305 73.37734
#
# Poissons Ratio (x) = 0.33206 0.24348
# Poissons Ratio (y) = 0.33206 0.24348
# Poissons Ratio (z) = 0.16861 0.16861
#
# Static dielectric constant tensor:
#      x y z
#    x 1.557520 0.000000 0.000000 
#    y 0.000000 1.557520 0.000000 
#    z 0.000000 0.000000 1.540390 
# 
# From -- ./inp_files/13551.got.cif
#   From: 2010.05.17/outbox.cif.g08.bks.cpg/sg131_7_cif.got.tgz:13551.got - 2010.05.20 12:21:01.
