data_PCOD9566018
_publ_section_title
;
Structure prediction by ZEFSAII (Michael W. Deem and Ramdas Pophale) SiO2 
 PCOD9566018
Probable space group: P 4/N C C
;
_chemical_formula_sum "Si O2"
_cell_formula_units_Z 36
_cell_length_a 12.977999
_cell_length_b 12.977999
_cell_length_c 8.021747
_cell_angle_alpha 90.000000
_cell_angle_beta 90.000000
_cell_angle_gamma 90.000000
_cell_volume 1351.090478
_symmetry_space_group_name_H-M "P 4/N C C"
_symmetry_group_IT_number 130
_symmetry_cell_setting 'tetragonal'
loop_
_space_group_symop_operation_xyz
x,y,z
1/2-y,x,z
1/2-x,1/2-y,z
y,1/2-x,z
1/2+x,-y,1/2-z
-x,1/2+y,1/2-z
1/2+y,1/2+x,1/2-z
-y,-x,1/2-z
-x,-y,-z
1/2+y,-x,-z
1/2+x,1/2+y,-z
-y,1/2+x,-z
1/2-x,y,1/2+z
x,1/2-y,1/2+z
1/2-y,1/2-x,1/2+z
y,x,1/2+z
loop_
_atom_site_type_symbol
_atom_site_label
_atom_site_fract_x
_atom_site_fract_y
_atom_site_fract_z
Si Si1 0.050711 0.100582 0.830907
Si Si2 0.485415 0.787503 0.332990
Si Si3 0.250000 0.750000 0.750000
O O1 0.065120 0.195414 0.704354
O O2 0.138582 0.013941 0.824630
O O3 0.954081 0.045920 0.750000
O O4 0.017831 0.148555 0.005540
O O5 0.364561 0.755080 0.336736
#
# Coordination Sequence:
#
# PCOD9566018 Si02
#       3
#    16  16   4
#     4  12  27  49  80 115 171 216 284 358 433 508
#     4  12  28  49  80 121 164 227 281 355 433 520
#     4  12  28  46  82 116 170 216 294 332 438 504
#
# _framework density 26.645143999999998
#
# number of rings (size 3 to 8) (size 9 to 14) (size 15 to 20)
#    0.000    0.000    4.444    4.000    6.222    2.667 
#    0.000    4.444    0.000    0.000    0.000    0.000 
#    0.000    0.000    0.000    0.000    0.000    0.000 
#
# Total GULP energy -201100.040731 kJ/mol
# GULP energy per Si atom -5586.112243 kJ/mol
# Density = 2.658450 g / cm^3
# Si number density = 26.645144 Si / 1000 Ang^3
#
#
#
# Elastic Constant Matrix: (Units=GPa)
#
#
# Indices 1 2 3 4 5 6 
#
# 1 151.3761 59.3389 44.7826 0.0000 0.0000 0.0000
# 2 59.3389 151.3751 44.7828 0.0000 0.0000 0.0000
# 3 44.7826 44.7828 127.3627 0.0000 0.0000 0.0000
# 4 0.0000 0.0000 0.0000 49.7145 0.0000 0.0000
# 5 0.0000 0.0000 0.0000 0.0000 49.7141 0.0000
# 6 0.0000 0.0000 0.0000 0.0000 0.0000 65.0148
#
#
#
# Elastic Compliance Matrix: (Units=1/GPa)
#
#
# Indices 1 2 3 4 5 6 
#
# 1 0.008222 -0.002643 -0.001962 0.000000 0.000000 0.000000
# 2 -0.002643 0.008222 -0.001962 0.000000 0.000000 0.000000
# 3 -0.001962 -0.001962 0.009231 0.000000 0.000000 0.000000
# 4 0.000000 0.000000 0.000000 0.020115 0.000000 0.000000
# 5 0.000000 0.000000 0.000000 0.000000 0.020115 0.000000
# 6 0.000000 0.000000 0.000000 0.000000 0.000000 0.015381
#
#
# Mechanical properties :
#
#
# Convention : Reuss Voigt Hill
#
# Bulk Modulus (GPa) = 79.72567 80.88027 80.30297
# Shear Modulus (GPa) = 50.70926 51.63599 51.17262
#
# Velocity S-wave (km/s) = 4.36722 4.40695 4.38713
# Velocity P-wave (km/s) = 7.44422 7.50436 7.47435
#
# Compressibility (1/GPa) = 0.01254301
#
# Stress axis : x y z
#
# Youngs Moduli (GPa) = 121.61875 121.61768 108.32758
#
# Poissons Ratio (x) = 0.32141 0.21253
# Poissons Ratio (y) = 0.32141 0.21253
# Poissons Ratio (z) = 0.23860 0.23860
#
# Static dielectric constant tensor:
#      x y z
#    x 2.129610 0.000000 0.000000 
#    y 0.000000 2.129620 0.000000 
#    z 0.000000 0.000000 2.251860 
# 
# From -- ./inp_files/370.got.cif
#   From: 2010.05.17/outbox.cif.g08.bks.cpg/sg130_1_cif.got.tgz:370.got - 2010.05.20 12:17:35.
