data_PCOD9566427
_publ_section_title
;
Structure prediction by ZEFSAII (Michael W. Deem and Ramdas Pophale) SiO2 
 PCOD9566427
Probable space group: P 42/M M C
;
_chemical_formula_sum "Si O2"
_cell_formula_units_Z 112
_cell_length_a 22.410996
_cell_length_b 22.410996
_cell_length_c 19.035112
_cell_angle_alpha 90.000000
_cell_angle_beta 90.000000
_cell_angle_gamma 90.000000
_cell_volume 9560.437191
_symmetry_space_group_name_H-M "P 42/M M C"
_symmetry_group_IT_number 131
_symmetry_cell_setting 'tetragonal'
loop_
_space_group_symop_operation_xyz
x,y,z
-x,-y,z
-y,x,1/2+z
y,-x,1/2+z
-x,y,-z
x,-y,-z
y,x,1/2-z
-y,-x,1/2-z
-x,-y,-z
x,y,-z
y,-x,1/2-z
-y,x,1/2-z
x,-y,z
-x,y,z
-y,-x,1/2+z
y,x,1/2+z
loop_
_atom_site_type_symbol
_atom_site_label
_atom_site_fract_x
_atom_site_fract_y
_atom_site_fract_z
Si Si1 0.500000 0.927358 0.652643
Si Si2 0.723273 0.927397 0.149278
Si Si3 0.602667 0.927376 0.078576
Si Si4 0.072243 0.724333 0.808455
Si Si5 0.072799 0.624581 0.919006
Si Si6 0.071247 0.151375 0.417498
Si Si7 0.928782 0.863647 0.185133
Si Si8 0.927301 0.500000 0.685060
O O1 0.439536 0.909151 0.612824
O O2 0.500000 0.907729 0.734092
O O3 0.500000 0.000000 0.653182
O O4 0.669755 0.909191 0.098246
O O5 0.709838 0.908235 0.228938
O O6 0.788437 0.908774 0.122755
O O7 0.724319 0.000000 0.149179
O O8 0.557421 0.908657 0.139661
O O9 0.601292 0.000000 0.078154
O O10 0.585663 0.908014 0.000000
O O11 0.093108 0.677915 0.867496
O O12 0.086628 0.793675 0.820583
O O13 0.000000 0.720310 0.808542
O O14 0.000000 0.625342 0.919015
O O15 0.091699 0.631557 0.000000
O O16 0.082598 0.157637 0.500000
O O17 0.103365 0.094845 0.383873
O O18 0.000000 0.145677 0.407303
O O19 0.894899 0.894899 0.250000
O O20 0.000000 0.868809 0.195081
O O21 0.000000 0.500000 0.686906
#
# Coordination Sequence:
#
# PCOD9566427 Si02
#       8
#     8  16  16  16  16  16  16   8
#     4   9  15  23  35  51  71  97 119 135 153 177
#     4   9  15  26  40  52  65  83 107 131 158 199
#     4   9  15  21  31  47  67  89 108 130 158 184
#     4   9  17  28  42  55  68  86 108 132 162 202
#     4   9  16  25  37  54  74  93 113 135 158 187
#     4  10  20  32  44  57  70  83 104 136 174 220
#     4  11  21  33  46  58  70  87 109 137 177 226
#     4   9  15  21  29  45  69  91 115 135 149 177
#
# _framework density 11.714945999999999
#
# number of rings (size 3 to 8) (size 9 to 14) (size 15 to 20)
#    0.000    2.571    1.429    2.143    0.000    8.714 
#    0.000    2.143    0.000    0.000    0.000    0.000 
#    0.000    0.000    0.000    0.000    0.000    0.000 
#
# Total GULP energy -623559.402373 kJ/mol
# GULP energy per Si atom -5567.494664 kJ/mol
# Density = 1.168828 g / cm^3
# Si number density = 11.714946 Si / 1000 Ang^3
#
#
#
# Elastic Constant Matrix: (Units=GPa)
#
#
# Indices 1 2 3 4 5 6 
#
# 1 39.9996 18.4848 28.6459 0.0000 0.0000 0.0000
# 2 18.4848 39.9996 28.6459 0.0000 0.0000 0.0000
# 3 28.6459 28.6459 93.1504 0.0000 0.0000 0.0000
# 4 0.0000 0.0000 0.0000 14.2726 0.0000 0.0000
# 5 0.0000 0.0000 0.0000 0.0000 14.2726 0.0000
# 6 0.0000 0.0000 0.0000 0.0000 0.0000 -0.3329
#
#
#
# Elastic Compliance Matrix: (Units=1/GPa)
#
#
# Indices 1 2 3 4 5 6 
#
# 1 0.035475 -0.011005 -0.007525 0.000000 0.000000 0.000000
# 2 -0.011005 0.035475 -0.007525 0.000000 0.000000 0.000000
# 3 -0.007525 -0.007525 0.015364 0.000000 0.000000 0.000000
# 4 0.000000 0.000000 0.000000 0.070064 0.000000 0.000000
# 5 0.000000 0.000000 0.000000 0.000000 0.070064 0.000000
# 6 0.000000 0.000000 0.000000 0.000000 0.000000 -3.003766
#
#
# Mechanical properties :
#
#
# Convention : Reuss Voigt Hill
#
# Bulk Modulus (GPa) = 29.23674 36.07811 32.65743
# Shear Modulus (GPa) = -1.84243 12.13400 5.14579
#
# Velocity S-wave (km/s) = -1.25544 3.22183 2.09810
# Velocity P-wave (km/s) = 4.78638 6.68609 5.81435
#
# Compressibility (1/GPa) = 0.03420354
#
# Stress axis : x y z
#
# Youngs Moduli (GPa) = 28.18891 28.18891 65.08863
#
# Poissons Ratio (x) = 0.31021 0.48980
# Poissons Ratio (y) = 0.31021 0.48980
# Poissons Ratio (z) = 0.21213 0.21213
#
# Static dielectric constant tensor:
#      x y z
#    x 1.365880 0.000000 0.000000 
#    y 0.000000 1.365880 0.000000 
#    z 0.000000 0.000000 1.408800 
# 
# From -- ./inp_files/8384.got.cif
#   From: 2010.05.17/outbox.cif.g08.bks.cpg/sg131_5_cif.got.tgz:8384.got - 2010.05.20 12:21:01.
