data_PCOD9566826
_publ_section_title
;
Structure prediction by ZEFSAII (Michael W. Deem and Ramdas Pophale) SiO2 
 PCOD9566826
Probable space group: P 42/M M C
;
_chemical_formula_sum "Si O2"
_cell_formula_units_Z 92
_cell_length_a 16.123570
_cell_length_b 16.123570
_cell_length_c 19.384386
_cell_angle_alpha 90.000000
_cell_angle_beta 90.000000
_cell_angle_gamma 90.000000
_cell_volume 5039.349321
_symmetry_space_group_name_H-M "P 42/M M C"
_symmetry_group_IT_number 131
_symmetry_cell_setting 'tetragonal'
loop_
_space_group_symop_operation_xyz
x,y,z
-x,-y,z
-y,x,1/2+z
y,-x,1/2+z
-x,y,-z
x,-y,-z
y,x,1/2-z
-y,-x,1/2-z
-x,-y,-z
x,y,-z
y,-x,1/2-z
-y,x,1/2-z
x,-y,z
-x,y,z
-y,-x,1/2+z
y,x,1/2+z
loop_
_atom_site_type_symbol
_atom_site_label
_atom_site_fract_x
_atom_site_fract_y
_atom_site_fract_z
Si Si1 0.902628 0.407500 0.000000
Si Si2 0.193388 0.000000 0.863767
Si Si3 0.407208 0.268188 0.685456
Si Si4 0.837686 0.714433 0.420394
Si Si5 0.000000 0.000000 0.359577
Si Si6 0.710035 0.593886 0.349915
Si Si7 0.713528 0.854533 0.376587
Si Si8 0.000000 0.184835 0.197768
O O1 0.884253 0.352425 0.067061
O O2 0.863576 0.500000 0.000000
O O3 0.000000 0.418585 0.000000
O O4 0.246341 0.920599 0.888150
O O5 0.190457 0.000000 0.780385
O O6 0.096132 0.000000 0.891013
O O7 0.500000 0.247919 0.661652
O O8 0.368650 0.344678 0.641845
O O9 0.411405 0.285136 0.766909
O O10 0.341461 0.194935 0.678154
O O11 0.851677 0.691578 0.500000
O O12 0.791499 0.639333 0.380400
O O13 0.772997 0.789979 0.414675
O O14 0.912361 0.000000 0.320373
O O15 0.700582 0.500000 0.376654
O O16 0.769338 0.922130 0.337881
#
# Coordination Sequence:
#
# PCOD9566826 Si02
#       8
#     8   8  16  16   4  16  16   8
#     4  11  22  36  54  80 115 151 190 229 280 358
#     4  12  24  40  60  87 117 155 201 253 301 344
#     4   9  18  34  57  88 119 147 188 242 298 352
#     4  11  23  39  59  82 116 157 199 245 290 355
#     4  12  25  38  59  90 119 154 190 241 304 353
#     4   9  19  36  59  85 113 150 195 243 297 351
#     4  11  21  36  57  83 115 156 192 233 290 354
#     4  12  23  38  60  86 121 153 200 249 297 353
#
# _framework density 18.256326000000001
#
# number of rings (size 3 to 8) (size 9 to 14) (size 15 to 20)
#    0.000    1.478    3.478    2.609    0.000    2.087 
#    0.000    3.913    0.000    4.174    0.000    2.435 
#    0.000    0.000    0.000    0.000    0.000    0.000 
#
# Total GULP energy -512468.948998 kJ/mol
# GULP energy per Si atom -5570.314663 kJ/mol
# Density = 1.821477 g / cm^3
# Si number density = 18.256326 Si / 1000 Ang^3
#
#
#
# Elastic Constant Matrix: (Units=GPa)
#
#
# Indices 1 2 3 4 5 6 
#
# 1 124.6988 54.0764 23.0779 0.0000 0.0000 0.0000
# 2 54.0764 124.6988 23.0779 0.0000 0.0000 0.0000
# 3 23.0779 23.0779 48.6796 0.0000 0.0000 0.0000
# 4 0.0000 0.0000 0.0000 12.5656 0.0000 0.0000
# 5 0.0000 0.0000 0.0000 0.0000 12.5656 0.0000
# 6 0.0000 0.0000 0.0000 0.0000 0.0000 2.8477
#
#
#
# Elastic Compliance Matrix: (Units=1/GPa)
#
#
# Indices 1 2 3 4 5 6 
#
# 1 0.010267 -0.003893 -0.003022 0.000000 0.000000 0.000000
# 2 -0.003893 0.010267 -0.003022 0.000000 0.000000 0.000000
# 3 -0.003022 -0.003022 0.023407 0.000000 0.000000 0.000000
# 4 0.000000 0.000000 0.000000 0.079582 0.000000 0.000000
# 5 0.000000 0.000000 0.000000 0.000000 0.079582 0.000000
# 6 0.000000 0.000000 0.000000 0.000000 0.000000 0.351164
#
#
# Mechanical properties :
#
#
# Convention : Reuss Voigt Hill
#
# Bulk Modulus (GPa) = 41.54831 55.39350 48.47090
# Shear Modulus (GPa) = 8.58864 18.78545 13.68704
#
# Velocity S-wave (km/s) = 2.17133 3.21126 2.74106
# Velocity P-wave (km/s) = 5.39388 6.64511 6.05192
#
# Compressibility (1/GPa) = 0.02406837
#
# Stress axis : x y z
#
# Youngs Moduli (GPa) = 97.40152 97.40152 42.72139
#
# Poissons Ratio (x) = 0.37919 0.12909
# Poissons Ratio (y) = 0.37919 0.12909
# Poissons Ratio (z) = 0.29431 0.29431
#
# Static dielectric constant tensor:
#      x y z
#    x 1.645700 0.000000 0.000000 
#    y 0.000000 1.645700 0.000000 
#    z 0.000000 0.000000 1.642840 
# 
# From -- ./inp_files/9826.got.cif
#   From: 2010.05.17/outbox.cif.g08.bks.cpg/sg131_5_cif.got.tgz:9826.got - 2010.05.20 12:21:01.
