data_PCOD9566814
_publ_section_title
;
Structure prediction by ZEFSAII (Michael W. Deem and Ramdas Pophale) SiO2 
 PCOD9566814
Probable space group: P 42/M M C
;
_chemical_formula_sum "Si O2"
_cell_formula_units_Z 48
_cell_length_a 10.397834
_cell_length_b 10.397834
_cell_length_c 25.551333
_cell_angle_alpha 90.000000
_cell_angle_beta 90.000000
_cell_angle_gamma 90.000000
_cell_volume 2762.481138
_symmetry_space_group_name_H-M "P 42/M M C"
_symmetry_group_IT_number 131
_symmetry_cell_setting 'tetragonal'
loop_
_space_group_symop_operation_xyz
x,y,z
-x,-y,z
-y,x,1/2+z
y,-x,1/2+z
-x,y,-z
x,-y,-z
y,x,1/2-z
-y,-x,1/2-z
-x,-y,-z
x,y,-z
y,-x,1/2-z
-y,x,1/2-z
x,-y,z
-x,y,z
-y,-x,1/2+z
y,x,1/2+z
loop_
_atom_site_type_symbol
_atom_site_label
_atom_site_fract_x
_atom_site_fract_y
_atom_site_fract_z
Si Si1 0.500000 0.733901 0.669069
Si Si2 0.000000 0.000000 0.750000
Si Si3 0.733376 0.000000 0.187051
Si Si4 0.500000 0.500000 0.750000
Si Si5 0.147702 0.655893 0.500000
Si Si6 0.000000 0.500000 0.769267
Si Si7 0.656201 0.238797 0.885404
O O1 0.500000 0.626180 0.714349
O O2 0.500000 0.872938 0.695459
O O3 0.373207 0.709183 0.635137
O O4 0.000000 0.127420 0.713985
O O5 0.625000 0.000000 0.232103
O O6 0.709461 0.875524 0.150862
O O7 0.144770 0.500000 0.500000
O O8 0.214111 0.693132 0.554266
O O9 0.000000 0.700572 0.500000
O O10 0.500000 0.237827 0.881488
#
# Coordination Sequence:
#
# PCOD9566814 Si02
#       7
#     8   2   8   2   8   4  16
#     4  12  24  37  59  88 123 154 194 243 298 347
#     4  12  28  40  56  90 124 164 200 244 288 342
#     4  12  22  41  61  82 119 158 204 239 284 349
#     4  12  20  40  56  86 124 156 196 244 288 354
#     4   9  18  33  61  90 113 145 195 246 293 345
#     4  12  24  40  60  88 118 166 202 236 292 356
#     4  11  20  38  62  90 118 150 194 248 297 351
#
# _framework density 17.375685000000001
#
# number of rings (size 3 to 8) (size 9 to 14) (size 15 to 20)
#    0.000    0.833    5.000    4.000    0.000    0.667 
#    0.000    2.500    0.000    6.000    0.000    0.000 
#    0.000    0.000    0.000    0.000    0.000    0.000 
#
# Total GULP energy -268302.663714 kJ/mol
# GULP energy per Si atom -5589.638827 kJ/mol
# Density = 1.733614 g / cm^3
# Si number density = 17.375685 Si / 1000 Ang^3
#
#
#
# Elastic Constant Matrix: (Units=GPa)
#
#
# Indices 1 2 3 4 5 6 
#
# 1 163.6975 56.9594 105.2403 0.0000 0.0000 0.0000
# 2 56.9594 163.6975 105.2403 0.0000 0.0000 0.0000
# 3 105.2403 105.2403 192.4754 0.0000 0.0000 0.0000
# 4 0.0000 0.0000 0.0000 -61.5370 0.0000 0.0000
# 5 0.0000 0.0000 0.0000 0.0000 -61.5370 0.0000
# 6 0.0000 0.0000 0.0000 0.0000 0.0000 -3.0250
#
#
#
# Elastic Compliance Matrix: (Units=1/GPa)
#
#
# Indices 1 2 3 4 5 6 
#
# 1 0.009420 0.000052 -0.005179 0.000000 0.000000 0.000000
# 2 0.000052 0.009420 -0.005179 0.000000 0.000000 0.000000
# 3 -0.005179 -0.005179 0.010859 0.000000 0.000000 0.000000
# 4 0.000000 0.000000 0.000000 -0.016250 0.000000 0.000000
# 5 0.000000 0.000000 0.000000 0.000000 -0.016250 0.000000
# 6 0.000000 0.000000 0.000000 0.000000 0.000000 -0.330574
#
#
# Mechanical properties :
#
#
# Convention : Reuss Voigt Hill
#
# Bulk Modulus (GPa) = 110.04805 117.19452 113.62128
# Shear Modulus (GPa) = -16.14294 -8.39114 -12.26704
#
# Velocity S-wave (km/s) = -3.05134 -2.19994 -2.65993
# Velocity P-wave (km/s) = 7.14547 7.81926 7.48995
#
# Compressibility (1/GPa) = 0.00908694
#
# Stress axis : x y z
#
# Youngs Moduli (GPa) = 106.15174 106.15174 92.08851
#
# Poissons Ratio (x) = -0.00549 0.47694
# Poissons Ratio (y) = -0.00549 0.47694
# Poissons Ratio (z) = 0.54978 0.54978
#
# Static dielectric constant tensor:
#      x y z
#    x 1.569180 0.000000 0.000000 
#    y 0.000000 1.569180 0.000000 
#    z 0.000000 0.000000 1.577210 
# 
# From -- ./inp_files/13075.got.cif
#   From: 2010.05.17/outbox.cif.g08.bks.cpg/sg131_7_cif.got.tgz:13075.got - 2010.05.20 12:21:01.
