data_PCOD9566432
_publ_section_title
;
Structure prediction by ZEFSAII (Michael W. Deem and Ramdas Pophale) SiO2 
 PCOD9566432
Probable space group: P 42/M M C
;
_chemical_formula_sum "Si O2"
_cell_formula_units_Z 96
_cell_length_a 25.944613
_cell_length_b 25.944613
_cell_length_c 8.969915
_cell_angle_alpha 90.000000
_cell_angle_beta 90.000000
_cell_angle_gamma 90.000000
_cell_volume 6037.855590
_symmetry_space_group_name_H-M "P 42/M M C"
_symmetry_group_IT_number 131
_symmetry_cell_setting 'tetragonal'
loop_
_space_group_symop_operation_xyz
x,y,z
-x,-y,z
-y,x,1/2+z
y,-x,1/2+z
-x,y,-z
x,-y,-z
y,x,1/2-z
-y,-x,1/2-z
-x,-y,-z
x,y,-z
y,-x,1/2-z
-y,x,1/2-z
x,-y,z
-x,y,z
-y,-x,1/2+z
y,x,1/2+z
loop_
_atom_site_type_symbol
_atom_site_label
_atom_site_fract_x
_atom_site_fract_y
_atom_site_fract_z
Si Si1 0.365639 0.831608 0.177278
Si Si2 0.055466 0.356479 0.323307
Si Si3 0.250408 0.440478 0.822326
Si Si4 0.638741 0.560016 0.322600
Si Si5 0.756930 0.164067 0.178407
Si Si6 0.244472 0.943034 0.677922
O O1 0.383482 0.890487 0.209201
O O2 0.400148 0.791468 0.265093
O O3 0.304307 0.829141 0.213156
O O4 0.370744 0.822252 0.000000
O O5 0.058184 0.342098 0.500000
O O6 0.054983 0.304288 0.228064
O O7 0.000000 0.383073 0.300262
O O8 0.236420 0.500000 0.784785
O O9 0.305114 0.429337 0.745664
O O10 0.255968 0.437029 0.000000
O O11 0.596869 0.596869 0.250000
O O12 0.640211 0.567276 0.500000
O O13 0.626788 0.500000 0.291626
O O14 0.790849 0.209152 0.250000
O O15 0.775191 0.108532 0.241823
O O16 0.761806 0.164321 0.000000
O O17 0.240559 0.937289 0.500000
O O18 0.222765 0.000000 0.718657
#
# Coordination Sequence:
#
# PCOD9566432 Si02
#       6
#    16  16  16  16  16  16
#     4   9  18  31  48  70  94 124 160 196 238 286
#     4   8  14  26  44  66  92 120 152 192 236 281
#     4  10  21  36  53  72  95 125 161 199 236 277
#     4  10  21  37  57  79 102 127 154 187 228 274
#     4  10  20  32  46  67  97 129 159 194 237 283
#     4   9  16  26  42  64  90 122 159 195 232 277
#
# _framework density 15.899685
#
# number of rings (size 3 to 8) (size 9 to 14) (size 15 to 20)
#    0.000    2.667    0.000    3.000    0.000    7.167 
#    0.000    2.500    0.000    0.500    0.000    3.500 
#    0.000    0.333    0.000    3.500    0.000    1.667 
#
# Total GULP energy -534556.795911 kJ/mol
# GULP energy per Si atom -5568.299957 kJ/mol
# Density = 1.586350 g / cm^3
# Si number density = 15.899685 Si / 1000 Ang^3
#
#
#
# Elastic Constant Matrix: (Units=GPa)
#
#
# Indices 1 2 3 4 5 6 
#
# 1 96.9930 82.7314 55.4642 0.0000 0.0000 0.0000
# 2 82.7314 96.9890 55.4642 0.0000 0.0000 0.0000
# 3 55.4642 55.4642 56.3686 0.0000 0.0000 0.0000
# 4 0.0000 0.0000 0.0000 26.4399 0.0000 0.0000
# 5 0.0000 0.0000 0.0000 0.0000 26.4400 0.0000
# 6 0.0000 0.0000 0.0000 0.0000 0.0000 -5.4565
#
#
#
# Elastic Compliance Matrix: (Units=1/GPa)
#
#
# Indices 1 2 3 4 5 6 
#
# 1 0.042147 -0.027979 -0.013940 0.000000 0.000000 0.000000
# 2 -0.027979 0.042151 -0.013944 0.000000 0.000000 0.000000
# 3 -0.013940 -0.013944 0.045177 0.000000 0.000000 0.000000
# 4 0.000000 0.000000 0.000000 0.037822 0.000000 0.000000
# 5 0.000000 0.000000 0.000000 0.000000 0.037822 0.000000
# 6 0.000000 0.000000 0.000000 0.000000 0.000000 -0.183268
#
#
# Mechanical properties :
#
#
# Convention : Reuss Voigt Hill
#
# Bulk Modulus (GPa) = 56.34540 70.85224 63.59882
# Shear Modulus (GPa) = 35.84397 13.26407 24.55402
#
# Velocity S-wave (km/s) = 4.75318 2.89145 3.93403
# Velocity P-wave (km/s) = 8.10177 7.47034 7.79246
#
# Compressibility (1/GPa) = 0.01774768
#
# Stress axis : x y z
#
# Youngs Moduli (GPa) = 23.72652 23.72428 22.13492
#
# Poissons Ratio (x) = 0.66379 0.30857
# Poissons Ratio (y) = 0.66385 0.30865
# Poissons Ratio (z) = 0.33076 0.33082
#
# Static dielectric constant tensor:
#      x y z
#    x 1.534690 0.000000 0.000000 
#    y 0.000000 1.534690 0.000000 
#    z 0.000000 0.000000 1.529030 
# 
# From -- ./inp_files/2197.got.cif
#   From: 2010.05.17/outbox.cif.g08.bks.cpg/sg131_2_cif.got.tgz:2197.got - 2010.05.20 12:21:01.
