data_PCOD9566392
_publ_section_title
;
Structure prediction by ZEFSAII (Michael W. Deem and Ramdas Pophale) SiO2 
 PCOD9566392
Probable space group: P 42/M M C
;
_chemical_formula_sum "Si O2"
_cell_formula_units_Z 56
_cell_length_a 18.323178
_cell_length_b 18.323178
_cell_length_c 7.798803
_cell_angle_alpha 90.000000
_cell_angle_beta 90.000000
_cell_angle_gamma 90.000000
_cell_volume 2618.361166
_symmetry_space_group_name_H-M "P 42/M M C"
_symmetry_group_IT_number 131
_symmetry_cell_setting 'tetragonal'
loop_
_space_group_symop_operation_xyz
x,y,z
-x,-y,z
-y,x,1/2+z
y,-x,1/2+z
-x,y,-z
x,-y,-z
y,x,1/2-z
-y,-x,1/2-z
-x,-y,-z
x,y,-z
y,-x,1/2-z
-y,x,1/2-z
x,-y,z
-x,y,z
-y,-x,1/2+z
y,x,1/2+z
loop_
_atom_site_type_symbol
_atom_site_label
_atom_site_fract_x
_atom_site_fract_y
_atom_site_fract_z
Si Si1 0.202435 0.083695 0.706791
Si Si2 0.084890 0.500000 0.209111
Si Si3 0.157183 0.648581 0.797063
Si Si4 0.417483 0.694462 0.795796
O O1 0.132375 0.132375 0.750000
O O2 0.206688 0.081120 0.500000
O O3 0.275964 0.124295 0.772041
O O4 0.198818 0.000000 0.768562
O O5 0.120939 0.425439 0.274305
O O6 0.000000 0.500000 0.249159
O O7 0.092408 0.500000 0.000000
O O8 0.242875 0.635789 0.773894
O O9 0.141511 0.649527 0.000000
O O10 0.383280 0.616721 0.750000
O O11 0.500000 0.704318 0.728920
O O12 0.419305 0.701713 0.000000
#
# Coordination Sequence:
#
# PCOD9566392 Si02
#       4
#    16   8  16  16
#     4  10  22  39  59  86 118 153 197 246 294 347
#     4   9  16  28  53  87 118 151 190 229 273 334
#     4  10  19  35  60  88 118 152 191 237 288 345
#     4  11  24  40  59  84 116 152 192 239 288 342
#
# _framework density 21.387425
#
# number of rings (size 3 to 8) (size 9 to 14) (size 15 to 20)
#    0.000    1.857    1.429    2.571    0.000    9.714 
#    0.000    2.857    0.000    3.429    0.000    0.000 
#    0.000    0.000    0.000    0.000    0.000    0.000 
#
# Total GULP energy -312828.335327 kJ/mol
# GULP energy per Si atom -5586.220274 kJ/mol
# Density = 2.133875 g / cm^3
# Si number density = 21.387425 Si / 1000 Ang^3
#
#
#
# Elastic Constant Matrix: (Units=GPa)
#
#
# Indices 1 2 3 4 5 6 
#
# 1 142.5639 105.2976 2.2691 0.0000 0.0000 0.0000
# 2 105.2976 142.5825 2.2682 0.0000 0.0000 0.0000
# 3 2.2691 2.2682 28.6284 0.0000 0.0000 0.0000
# 4 0.0000 0.0000 0.0000 34.1887 0.0000 0.0000
# 5 0.0000 0.0000 0.0000 0.0000 34.1977 0.0000
# 6 0.0000 0.0000 0.0000 0.0000 0.0000 31.5273
#
#
#
# Elastic Compliance Matrix: (Units=1/GPa)
#
#
# Indices 1 2 3 4 5 6 
#
# 1 0.015435 -0.011393 -0.000321 0.000000 0.000000 0.000000
# 2 -0.011393 0.015433 -0.000320 0.000000 0.000000 0.000000
# 3 -0.000321 -0.000320 0.034981 0.000000 0.000000 0.000000
# 4 0.000000 0.000000 0.000000 0.029249 0.000000 0.000000
# 5 0.000000 0.000000 0.000000 0.000000 0.029242 0.000000
# 6 0.000000 0.000000 0.000000 0.000000 0.000000 0.031719
#
#
# Mechanical properties :
#
#
# Convention : Reuss Voigt Hill
#
# Bulk Modulus (GPa) = 23.93441 59.27162 41.60302
# Shear Modulus (GPa) = 25.76620 33.57874 29.67247
#
# Velocity S-wave (km/s) = 3.47470 3.96665 3.72879
# Velocity P-wave (km/s) = 5.22620 6.98230 6.16708
#
# Compressibility (1/GPa) = 0.04178085
#
# Stress axis : x y z
#
# Youngs Moduli (GPa) = 64.78906 64.79756 28.58688
#
# Poissons Ratio (x) = 0.73827 0.00917
# Poissons Ratio (y) = 0.73817 0.00914
# Poissons Ratio (z) = 0.02077 0.02072
#
# Static dielectric constant tensor:
#      x y z
#    x 1.769040 0.000000 0.000000 
#    y 0.000000 1.769030 0.000000 
#    z 0.000000 0.000000 1.794750 
# 
# From -- ./inp_files/1196.got.cif
#   From: 2010.05.17/outbox.cif.g08.bks.cpg/sg131_1_cif.got.tgz:1196.got - 2010.05.20 12:21:01.
