data_PCOD9566438
_publ_section_title
;
Structure prediction by ZEFSAII (Michael W. Deem and Ramdas Pophale) SiO2 
 PCOD9566438
Probable space group: P 42/M M C
;
_chemical_formula_sum "Si O2"
_cell_formula_units_Z 96
_cell_length_a 25.501493
_cell_length_b 25.501493
_cell_length_c 9.195290
_cell_angle_alpha 90.000000
_cell_angle_beta 90.000000
_cell_angle_gamma 90.000000
_cell_volume 5979.937500
_symmetry_space_group_name_H-M "P 42/M M C"
_symmetry_group_IT_number 131
_symmetry_cell_setting 'tetragonal'
loop_
_space_group_symop_operation_xyz
x,y,z
-x,-y,z
-y,x,1/2+z
y,-x,1/2+z
-x,y,-z
x,-y,-z
y,x,1/2-z
-y,-x,1/2-z
-x,-y,-z
x,y,-z
y,-x,1/2-z
-y,x,1/2-z
x,-y,z
-x,y,z
-y,-x,1/2+z
y,x,1/2+z
loop_
_atom_site_type_symbol
_atom_site_label
_atom_site_fract_x
_atom_site_fract_y
_atom_site_fract_z
Si Si1 0.864070 0.438206 0.675120
Si Si2 0.359593 0.437868 0.827315
Si Si3 0.436397 0.745789 0.166566
Si Si4 0.644984 0.062556 0.327273
Si Si5 0.247742 0.063658 0.832619
Si Si6 0.062710 0.859560 0.827549
O O1 0.869373 0.433097 0.500000
O O2 0.870054 0.500000 0.709822
O O3 0.804463 0.421030 0.712783
O O4 0.905750 0.402681 0.757076
O O5 0.404181 0.404181 0.750000
O O6 0.365859 0.500000 0.795314
O O7 0.302625 0.420965 0.766939
O O8 0.362013 0.430984 0.000000
O O9 0.500000 0.746936 0.164576
O O10 0.419130 0.736773 0.000000
O O11 0.648291 0.071298 0.500000
O O12 0.699099 0.079199 0.249361
O O13 0.638307 0.000000 0.303694
O O14 0.195508 0.078985 0.745843
O O15 0.247799 0.000000 0.834522
O O16 0.246831 0.081652 0.000000
O O17 0.094147 0.905854 0.750000
O O18 0.000000 0.865700 0.807091
O O19 0.072959 0.858765 0.000000
#
# Coordination Sequence:
#
# PCOD9566438 Si02
#       6
#    16  16  16  16  16  16
#     4   9  18  32  50  72  97 127 162 198 239 287
#     4  10  20  32  48  71  97 126 159 194 234 280
#     4   8  15  30  50  69  91 121 158 198 236 277
#     4  10  20  32  47  70 100 131 162 198 241 287
#     4   9  17  31  51  71  92 123 164 204 240 283
#     4  10  20  33  50  73 101 131 163 200 241 286
#
# _framework density 16.05368
#
# number of rings (size 3 to 8) (size 9 to 14) (size 15 to 20)
#    0.000    2.667    0.000    3.000    0.000    6.667 
#    0.000    5.000    0.000    1.000    0.000    2.333 
#    0.000    0.000    0.000    0.000    0.000    0.000 
#
# Total GULP energy -535052.098301 kJ/mol
# GULP energy per Si atom -5573.459357 kJ/mol
# Density = 1.601714 g / cm^3
# Si number density = 16.053680 Si / 1000 Ang^3
#
#
#
# Elastic Constant Matrix: (Units=GPa)
#
#
# Indices 1 2 3 4 5 6 
#
# 1 84.0888 60.6632 73.3442 0.0000 0.0000 0.0000
# 2 60.6632 84.0785 73.3445 0.0000 0.0000 0.0000
# 3 73.3442 73.3445 108.6212 0.0000 0.0000 0.0000
# 4 0.0000 0.0000 0.0000 27.6969 0.0000 0.0000
# 5 0.0000 0.0000 0.0000 0.0000 27.6972 0.0000
# 6 0.0000 0.0000 0.0000 0.0000 0.0000 -5.5578
#
#
#
# Elastic Compliance Matrix: (Units=1/GPa)
#
#
# Indices 1 2 3 4 5 6 
#
# 1 0.032285 -0.010407 -0.014772 0.000000 0.000000 0.000000
# 2 -0.010407 0.032295 -0.014779 0.000000 0.000000 0.000000
# 3 -0.014772 -0.014779 0.029161 0.000000 0.000000 0.000000
# 4 0.000000 0.000000 0.000000 0.036105 0.000000 0.000000
# 5 0.000000 0.000000 0.000000 0.000000 0.036105 0.000000
# 6 0.000000 0.000000 0.000000 0.000000 0.000000 -0.179928
#
#
# Mechanical properties :
#
#
# Convention : Reuss Voigt Hill
#
# Bulk Modulus (GPa) = 72.34593 76.83247 74.58920
# Shear Modulus (GPa) = 70.87368 14.59640 42.73504
#
# Velocity S-wave (km/s) = 6.65160 3.01861 5.16506
# Velocity P-wave (km/s) = 10.20561 7.75325 9.06277
#
# Compressibility (1/GPa) = 0.01382248
#
# Stress axis : x y z
#
# Youngs Moduli (GPa) = 30.97404 30.96432 34.29294
#
# Poissons Ratio (x) = 0.32226 0.50659
# Poissons Ratio (y) = 0.32236 0.50683
# Poissons Ratio (z) = 0.45756 0.45763
#
# Static dielectric constant tensor:
#      x y z
#    x 1.523910 0.000000 0.000000 
#    y 0.000000 1.523910 0.000000 
#    z 0.000000 0.000000 1.534200 
# 
# From -- ./inp_files/2203.got.cif
#   From: 2010.05.17/outbox.cif.g08.bks.cpg/sg131_2_cif.got.tgz:2203.got - 2010.05.20 12:21:01.
