data_PCOD9566953
_publ_section_title
;
Structure prediction by ZEFSAII (Michael W. Deem and Ramdas Pophale) SiO2 
 PCOD9566953
Probable space group: P 42/M C M
;
_chemical_formula_sum "Si O2"
_cell_formula_units_Z 112
_cell_length_a 19.820327
_cell_length_b 19.820327
_cell_length_c 18.721365
_cell_angle_alpha 90.000000
_cell_angle_beta 90.000000
_cell_angle_gamma 90.000000
_cell_volume 7354.601418
_symmetry_space_group_name_H-M "P 42/M C M"
_symmetry_group_IT_number 132
_symmetry_cell_setting 'tetragonal'
loop_
_space_group_symop_operation_xyz
x,y,z
-y,x,1/2+z
-x,-y,z
y,-x,1/2+z
x,-y,1/2-z
-x,y,1/2-z
y,x,-z
-y,-x,-z
-x,-y,-z
y,-x,1/2-z
x,y,-z
-y,x,1/2-z
-x,y,1/2+z
x,-y,1/2+z
-y,-x,z
y,x,z
loop_
_atom_site_type_symbol
_atom_site_label
_atom_site_fract_x
_atom_site_fract_y
_atom_site_fract_z
Si Si1 0.031489 0.572795 0.418424
Si Si2 0.158642 0.576923 0.223121
Si Si3 0.421637 0.314665 0.765577
Si Si4 0.721538 0.165432 0.416874
Si Si5 0.157251 0.514314 0.078500
Si Si6 0.266738 0.406544 0.080557
Si Si7 0.943397 0.676502 0.804488
O O1 0.016070 0.592539 0.500000
O O2 0.109675 0.551586 0.413923
O O3 0.016845 0.627322 0.359182
O O4 0.000000 0.500000 0.403580
O O5 0.145451 0.500000 0.250000
O O6 0.237233 0.591566 0.240043
O O7 0.147606 0.569232 0.138767
O O8 0.108381 0.629374 0.259613
O O9 0.500000 0.329836 0.750000
O O10 0.369013 0.369013 0.734687
O O11 0.410495 0.312767 0.850659
O O12 0.719056 0.140854 0.500000
O O13 0.787244 0.212757 0.408426
O O14 0.656719 0.215331 0.408837
O O15 0.718683 0.105382 0.358396
O O16 0.229187 0.478911 0.082872
O O17 0.143790 0.542021 0.000000
O O18 0.293562 0.399055 0.000000
O O19 0.000000 0.706074 0.750000
#
# Coordination Sequence:
#
# PCOD9566953 Si02
#       7
#    16  16  16  16  16  16  16
#     4  10  18  27  39  59  91 132 166 194 235 289
#     4  11  18  31  44  64  90 125 167 199 243 305
#     4  11  21  34  50  69  92 118 160 216 270 322
#     4  10  19  33  52  73  99 133 174 214 249 287
#     4  10  17  28  44  61  87 120 161 204 238 291
#     4  10  17  29  51  73  91 115 153 207 256 301
#     4  12  22  28  44  70 105 134 163 203 245 301
#
# _framework density 15.228562
#
# number of rings (size 3 to 8) (size 9 to 14) (size 15 to 20)
#    0.000    1.429    7.143    1.714    0.000    1.000 
#    0.000    0.714    0.000    1.714    0.000    1.000 
#    0.000    4.857    0.000    1.571    0.000    0.000 
#
# Total GULP energy -623577.807599 kJ/mol
# GULP energy per Si atom -5567.658996 kJ/mol
# Density = 1.519390 g / cm^3
# Si number density = 15.228562 Si / 1000 Ang^3
#
#
#
# Elastic Constant Matrix: (Units=GPa)
#
#
# Indices 1 2 3 4 5 6 
#
# 1 46.2405 36.5135 29.0838 0.0000 0.0000 0.0000
# 2 36.5135 46.2405 29.0838 0.0000 0.0000 0.0000
# 3 29.0838 29.0838 113.1930 0.0000 0.0000 0.0000
# 4 0.0000 0.0000 0.0000 11.7956 0.0000 0.0000
# 5 0.0000 0.0000 0.0000 0.0000 11.7956 0.0000
# 6 0.0000 0.0000 0.0000 0.0000 0.0000 13.7176
#
#
#
# Elastic Compliance Matrix: (Units=1/GPa)
#
#
# Indices 1 2 3 4 5 6 
#
# 1 0.058777 -0.044030 -0.003789 0.000000 0.000000 0.000000
# 2 -0.044030 0.058777 -0.003789 0.000000 0.000000 0.000000
# 3 -0.003789 -0.003789 0.010782 0.000000 0.000000 0.000000
# 4 0.000000 0.000000 0.000000 0.084777 0.000000 0.000000
# 5 0.000000 0.000000 0.000000 0.000000 0.084777 0.000000
# 6 0.000000 0.000000 0.000000 0.000000 0.000000 0.072899
#
#
# Mechanical properties :
#
#
# Convention : Reuss Voigt Hill
#
# Bulk Modulus (GPa) = 39.80937 43.89290 41.85114
# Shear Modulus (GPa) = 10.36529 14.86129 12.61329
#
# Velocity S-wave (km/s) = 2.61175 3.12730 2.88108
# Velocity P-wave (km/s) = 5.94079 6.47498 6.21363
#
# Compressibility (1/GPa) = 0.02511971
#
# Stress axis : x y z
#
# Youngs Moduli (GPa) = 17.01340 17.01340 92.75008
#
# Poissons Ratio (x) = 0.74910 0.35145
# Poissons Ratio (y) = 0.74910 0.35145
# Poissons Ratio (z) = 0.06447 0.06447
#
# Static dielectric constant tensor:
#      x y z
#    x 1.558990 0.000000 0.000000 
#    y 0.000000 1.558990 0.000000 
#    z 0.000000 0.000000 1.566550 
# 
# From -- ./inp_files/6758.got.cif
#   From: 2010.05.17/outbox.cif.g08.bks.cpg/sg132_4_cif.got.tgz:6758.got - 2010.05.20 12:30:18.
