data_PCOD9566560
_publ_section_title
;
Structure prediction by ZEFSAII (Michael W. Deem and Ramdas Pophale) SiO2 
 PCOD9566560
Probable space group: P 42/M M C
;
_chemical_formula_sum "Si O2"
_cell_formula_units_Z 80
_cell_length_a 15.544153
_cell_length_b 15.544153
_cell_length_c 14.916611
_cell_angle_alpha 90.000000
_cell_angle_beta 90.000000
_cell_angle_gamma 90.000000
_cell_volume 3604.161879
_symmetry_space_group_name_H-M "P 42/M M C"
_symmetry_group_IT_number 131
_symmetry_cell_setting 'tetragonal'
loop_
_space_group_symop_operation_xyz
x,y,z
-x,-y,z
-y,x,1/2+z
y,-x,1/2+z
-x,y,-z
x,-y,-z
y,x,1/2-z
-y,-x,1/2-z
-x,-y,-z
x,y,-z
y,-x,1/2-z
-y,x,1/2-z
x,-y,z
-x,y,z
-y,-x,1/2+z
y,x,1/2+z
loop_
_atom_site_type_symbol
_atom_site_label
_atom_site_fract_x
_atom_site_fract_y
_atom_site_fract_z
Si Si1 0.718333 0.407608 0.142498
Si Si2 0.908062 0.651224 0.107182
Si Si3 0.598040 0.257069 0.146248
Si Si4 0.715952 0.095198 0.891217
Si Si5 0.905402 0.851098 0.109557
O O1 0.689045 0.500000 0.108142
O O2 0.819517 0.395292 0.125930
O O3 0.660365 0.330227 0.105797
O O4 0.715858 0.409094 0.250181
O O5 0.901072 0.750758 0.136412
O O6 0.000000 0.615860 0.140747
O O7 0.913468 0.653636 0.000000
O O8 0.500000 0.250813 0.110979
O O9 0.651153 0.168501 0.141006
O O10 0.815303 0.107907 0.860815
O O11 0.687331 0.000000 0.864596
O O12 0.716840 0.100142 0.000000
O O13 0.000000 0.884919 0.137917
O O14 0.905317 0.855653 0.000000
#
# Coordination Sequence:
#
# PCOD9566560 Si02
#       5
#    16  16  16  16  16
#     4  10  21  37  58  81 104 135 176 220 271 328
#     4   9  17  31  54  83 112 139 167 206 260 319
#     4  10  22  39  56  76 105 139 178 226 274 316
#     4  10  20  34  55  82 110 144 185 223 261 309
#     4   8  14  27  49  77 108 139 171 211 258 305
#
# _framework density 22.196562
#
# number of rings (size 3 to 8) (size 9 to 14) (size 15 to 20)
#    0.000    2.600    2.000    1.200    0.000    3.200 
#    0.000    8.000    0.000    0.000    0.000    2.800 
#    0.000    0.000    0.000    0.000    0.000    0.000 
#
# Total GULP energy -446271.892904 kJ/mol
# GULP energy per Si atom -5578.398661 kJ/mol
# Density = 2.214604 g / cm^3
# Si number density = 22.196562 Si / 1000 Ang^3
#
#
#
# Elastic Constant Matrix: (Units=GPa)
#
#
# Indices 1 2 3 4 5 6 
#
# 1 176.2493 104.3425 4.6265 0.0000 0.0000 0.0000
# 2 104.3425 176.2493 4.6265 0.0000 0.0000 0.0000
# 3 4.6265 4.6265 40.7290 0.0000 0.0000 0.0000
# 4 0.0000 0.0000 0.0000 11.3488 0.0000 0.0000
# 5 0.0000 0.0000 0.0000 0.0000 11.3488 0.0000
# 6 0.0000 0.0000 0.0000 0.0000 0.0000 6.4540
#
#
#
# Elastic Compliance Matrix: (Units=1/GPa)
#
#
# Indices 1 2 3 4 5 6 
#
# 1 0.008742 -0.005165 -0.000406 0.000000 0.000000 0.000000
# 2 -0.005165 0.008742 -0.000406 0.000000 0.000000 0.000000
# 3 -0.000406 -0.000406 0.024645 0.000000 0.000000 0.000000
# 4 0.000000 0.000000 0.000000 0.088115 0.000000 0.000000
# 5 0.000000 0.000000 0.000000 0.000000 0.088115 0.000000
# 6 0.000000 0.000000 0.000000 0.000000 0.000000 0.154943
#
#
# Mechanical properties :
#
#
# Convention : Reuss Voigt Hill
#
# Bulk Modulus (GPa) = 33.14107 68.93540 51.03823
# Shear Modulus (GPa) = 12.64814 24.47246 18.56030
#
# Velocity S-wave (km/s) = 2.38969 3.32404 2.89481
# Velocity P-wave (km/s) = 4.75156 6.77175 5.84952
#
# Compressibility (1/GPa) = 0.03017405
#
# Stress axis : x y z
#
# Youngs Moduli (GPa) = 114.38910 114.38910 40.57641
#
# Poissons Ratio (x) = 0.59080 0.01649
# Poissons Ratio (y) = 0.59080 0.01649
# Poissons Ratio (z) = 0.04648 0.04648
#
# Static dielectric constant tensor:
#      x y z
#    x 1.774580 0.000000 0.000000 
#    y 0.000000 1.774580 0.000000 
#    z 0.000000 0.000000 1.873760 
# 
# From -- ./inp_files/9412.got.cif
#   From: 2010.05.17/outbox.cif.g08.bks.cpg/sg131_5_cif.got.tgz:9412.got - 2010.05.20 12:21:01.
