data_PCOD9566967
_publ_section_title
;
Structure prediction by ZEFSAII (Michael W. Deem and Ramdas Pophale) SiO2 
 PCOD9566967
Probable space group: P 42/M C M
;
_chemical_formula_sum "Si O2"
_cell_formula_units_Z 96
_cell_length_a 25.003431
_cell_length_b 25.003431
_cell_length_c 9.499721
_cell_angle_alpha 90.000000
_cell_angle_beta 90.000000
_cell_angle_gamma 90.000000
_cell_volume 5938.955414
_symmetry_space_group_name_H-M "P 42/M C M"
_symmetry_group_IT_number 132
_symmetry_cell_setting 'tetragonal'
loop_
_space_group_symop_operation_xyz
x,y,z
-y,x,1/2+z
-x,-y,z
y,-x,1/2+z
x,-y,1/2-z
-x,y,1/2-z
y,x,-z
-y,-x,-z
-x,-y,-z
y,-x,1/2-z
x,y,-z
-y,x,1/2-z
-x,y,1/2+z
x,-y,1/2+z
-y,-x,z
y,x,z
loop_
_atom_site_type_symbol
_atom_site_label
_atom_site_fract_x
_atom_site_fract_y
_atom_site_fract_z
Si Si1 0.736284 0.550456 0.159137
Si Si2 0.340362 0.861071 0.163787
Si Si3 0.352123 0.266804 0.657119
Si Si4 0.553571 0.866654 0.164599
Si Si5 0.856239 0.231216 0.667196
Si Si6 0.139994 0.945630 0.666609
O O1 0.719665 0.500000 0.250000
O O2 0.716711 0.604880 0.228554
O O3 0.801521 0.552267 0.161962
O O4 0.719124 0.544861 0.000000
O O5 0.346126 0.796731 0.161182
O O6 0.392038 0.881785 0.251431
O O7 0.284107 0.868820 0.243582
O O8 0.340197 0.879323 0.000000
O O9 0.371692 0.280606 0.500000
O O10 0.296343 0.296343 0.679530
O O11 0.500000 0.883448 0.250000
O O12 0.553493 0.883846 0.000000
O O13 0.852080 0.244172 0.500000
O O14 0.801892 0.198109 0.705732
O O15 0.904493 0.189103 0.685586
O O16 0.136092 0.956368 0.500000
O O17 0.086871 0.913130 0.710469
O O18 0.147051 0.000000 0.750000
#
# Coordination Sequence:
#
# PCOD9566967 Si02
#       6
#    16  16  16  16  16  16
#     4   9  16  25  37  51  68  94 128 164 203 248
#     4  10  18  27  41  62  87 117 153 188 223 267
#     4   9  17  27  37  52  77 105 132 166 205 244
#     4   9  16  26  39  56  80 112 149 188 228 267
#     4   9  18  32  47  64  91 125 157 191 233 280
#     4   9  19  35  53  74 100 129 161 198 240 284
#
# _framework density 16.164459000000001
#
# number of rings (size 3 to 8) (size 9 to 14) (size 15 to 20)
#    0.000    2.833    0.000    3.000    0.000    7.167 
#    0.000    2.500    0.000    0.000    0.000    0.000 
#    0.000    1.000    0.000   10.500    0.000    6.000 
#
# Total GULP energy -534476.893043 kJ/mol
# GULP energy per Si atom -5567.467636 kJ/mol
# Density = 1.612767 g / cm^3
# Si number density = 16.164459 Si / 1000 Ang^3
#
#
#
# Elastic Constant Matrix: (Units=GPa)
#
#
# Indices 1 2 3 4 5 6 
#
# 1 63.9800 7.7992 43.3580 0.0000 0.0000 0.0000
# 2 7.7992 63.9800 43.3580 0.0000 0.0000 0.0000
# 3 43.3580 43.3580 111.8108 0.0000 0.0000 0.0000
# 4 0.0000 0.0000 0.0000 24.8458 0.0000 0.0000
# 5 0.0000 0.0000 0.0000 0.0000 24.8458 0.0000
# 6 0.0000 0.0000 0.0000 0.0000 0.0000 6.2992
#
#
#
# Elastic Compliance Matrix: (Units=1/GPa)
#
#
# Indices 1 2 3 4 5 6 
#
# 1 0.022005 0.004205 -0.010164 0.000000 0.000000 0.000000
# 2 0.004205 0.022005 -0.010164 0.000000 0.000000 0.000000
# 3 -0.010164 -0.010164 0.016826 0.000000 0.000000 0.000000
# 4 0.000000 0.000000 0.000000 0.040248 0.000000 0.000000
# 5 0.000000 0.000000 0.000000 0.000000 0.040248 0.000000
# 6 0.000000 0.000000 0.000000 0.000000 0.000000 0.158750
#
#
# Mechanical properties :
#
#
# Convention : Reuss Voigt Hill
#
# Bulk Modulus (GPa) = 34.97499 47.64457 41.30978
# Shear Modulus (GPa) = 14.62594 20.88187 17.75391
#
# Velocity S-wave (km/s) = 3.01129 3.59812 3.31770
# Velocity P-wave (km/s) = 5.81158 6.84111 6.34725
#
# Compressibility (1/GPa) = 0.02859186
#
# Stress axis : x y z
#
# Youngs Moduli (GPa) = 45.44392 45.44392 59.43031
#
# Poissons Ratio (x) = -0.19111 0.60405
# Poissons Ratio (y) = -0.19111 0.60405
# Poissons Ratio (z) = 0.46189 0.46189
#
# Static dielectric constant tensor:
#      x y z
#    x 1.529470 0.000000 0.000000 
#    y 0.000000 1.529470 0.000000 
#    z 0.000000 0.000000 1.571850 
# 
# From -- ./inp_files/1727.got.cif
#   From: 2010.05.17/outbox.cif.g08.bks.cpg/sg132_1_cif.got.tgz:1727.got - 2010.05.20 12:30:18.
