data_PCOD9566860
_publ_section_title
;
Structure prediction by ZEFSAII (Michael W. Deem and Ramdas Pophale) SiO2 
 PCOD9566860
Probable space group: P 42/M M C
;
_chemical_formula_sum "Si O2"
_cell_formula_units_Z 56
_cell_length_a 18.006645
_cell_length_b 18.006645
_cell_length_c 8.754173
_cell_angle_alpha 90.000000
_cell_angle_beta 90.000000
_cell_angle_gamma 90.000000
_cell_volume 2838.446612
_symmetry_space_group_name_H-M "P 42/M M C"
_symmetry_group_IT_number 131
_symmetry_cell_setting 'tetragonal'
loop_
_space_group_symop_operation_xyz
x,y,z
-x,-y,z
-y,x,1/2+z
y,-x,1/2+z
-x,y,-z
x,-y,-z
y,x,1/2-z
-y,-x,1/2-z
-x,-y,-z
x,y,-z
y,-x,1/2-z
-y,x,1/2-z
x,-y,z
-x,y,z
-y,-x,1/2+z
y,x,1/2+z
loop_
_atom_site_type_symbol
_atom_site_label
_atom_site_fract_x
_atom_site_fract_y
_atom_site_fract_z
Si Si1 0.586723 0.306264 0.317673
Si Si2 0.088493 0.500000 0.825118
Si Si3 0.157578 0.352772 0.317732
Si Si4 0.087156 0.202690 0.183400
O O1 0.617123 0.382878 0.250000
O O2 0.595618 0.304654 0.500000
O O3 0.500000 0.294385 0.281765
O O4 0.634570 0.240877 0.241994
O O5 0.114884 0.574003 0.740641
O O6 0.000000 0.500000 0.831570
O O7 0.118141 0.500000 0.000000
O O8 0.156373 0.348428 0.500000
O O9 0.121068 0.279174 0.247947
O O10 0.134902 0.134902 0.250000
O O11 0.000000 0.197394 0.223541
O O12 0.093514 0.203343 0.000000
#
# Coordination Sequence:
#
# PCOD9566860 Si02
#       4
#    16   8  16  16
#     4  11  24  42  65  91 126 169 214 266 322 381
#     4  11  23  39  61  91 130 171 210 257 317 383
#     4  12  24  40  65  96 131 169 215 267 320 385
#     4  11  25  45  69  97 132 174 219 271 330 391
#
# _framework density 19.729101
#
# number of rings (size 3 to 8) (size 9 to 14) (size 15 to 20)
#    0.000    0.714    1.429    6.429    0.000    9.143 
#    0.000    2.857    0.000    0.000    0.000    0.000 
#    0.000    0.000    0.000    0.000    0.000    0.000 
#
# Total GULP energy -313484.871811 kJ/mol
# GULP energy per Si atom -5597.944139 kJ/mol
# Density = 1.968420 g / cm^3
# Si number density = 19.729101 Si / 1000 Ang^3
#
#
#
# Elastic Constant Matrix: (Units=GPa)
#
#
# Indices 1 2 3 4 5 6 
#
# 1 125.2941 110.6970 74.4529 0.0000 0.0000 0.0000
# 2 110.6970 125.2718 74.4518 0.0000 0.0000 0.0000
# 3 74.4529 74.4518 125.1416 0.0000 0.0000 0.0000
# 4 0.0000 0.0000 0.0000 40.4184 0.0000 0.0000
# 5 0.0000 0.0000 0.0000 0.0000 40.4192 0.0000
# 6 0.0000 0.0000 0.0000 0.0000 0.0000 16.7096
#
#
#
# Elastic Compliance Matrix: (Units=1/GPa)
#
#
# Indices 1 2 3 4 5 6 
#
# 1 0.037667 -0.030887 -0.004034 0.000000 0.000000 0.000000
# 2 -0.030887 0.037677 -0.004039 0.000000 0.000000 0.000000
# 3 -0.004034 -0.004039 0.012794 0.000000 0.000000 0.000000
# 4 0.000000 0.000000 0.000000 0.024741 0.000000 0.000000
# 5 0.000000 0.000000 0.000000 0.000000 0.024741 0.000000
# 6 0.000000 0.000000 0.000000 0.000000 0.000000 0.059846
#
#
# Mechanical properties :
#
#
# Convention : Reuss Voigt Hill
#
# Bulk Modulus (GPa) = 97.87337 99.43455 98.65396
# Shear Modulus (GPa) = 17.93450 27.24983 22.59217
#
# Velocity S-wave (km/s) = 3.01830 3.72048 3.38763
# Velocity P-wave (km/s) = 7.86531 8.30454 8.08791
#
# Compressibility (1/GPa) = 0.01021728
#
# Stress axis : x y z
#
# Youngs Moduli (GPa) = 26.54833 26.54147 78.16173
#
# Poissons Ratio (x) = 0.81979 0.31530
# Poissons Ratio (y) = 0.82001 0.31571
# Poissons Ratio (z) = 0.10709 0.10720
#
# Static dielectric constant tensor:
#      x y z
#    x 1.684050 0.000000 0.000000 
#    y 0.000000 1.684050 0.000000 
#    z 0.000000 0.000000 1.660980 
# 
# From -- ./inp_files/1201.got.cif
#   From: 2010.05.17/outbox.cif.g08.bks.cpg/sg131_1_cif.got.tgz:1201.got - 2010.05.20 12:21:01.
