data_PCOD9566118
_publ_section_title
;
Structure prediction by ZEFSAII (Michael W. Deem and Ramdas Pophale) SiO2 
 PCOD9566118
Probable space group: P 42/M M C
;
_chemical_formula_sum "Si O2"
_cell_formula_units_Z 64
_cell_length_a 19.620734
_cell_length_b 19.620734
_cell_length_c 9.558857
_cell_angle_alpha 90.000000
_cell_angle_beta 90.000000
_cell_angle_gamma 90.000000
_cell_volume 3679.903793
_symmetry_space_group_name_H-M "P 42/M M C"
_symmetry_group_IT_number 131
_symmetry_cell_setting 'tetragonal'
loop_
_space_group_symop_operation_xyz
x,y,z
-x,-y,z
-y,x,1/2+z
y,-x,1/2+z
-x,y,-z
x,-y,-z
y,x,1/2-z
-y,-x,1/2-z
-x,-y,-z
x,y,-z
y,-x,1/2-z
-y,x,1/2-z
x,-y,z
-x,y,z
-y,-x,1/2+z
y,x,1/2+z
loop_
_atom_site_type_symbol
_atom_site_label
_atom_site_fract_x
_atom_site_fract_y
_atom_site_fract_z
Si Si1 0.787429 0.921746 0.000000
Si Si2 0.074149 0.161807 0.000000
Si Si3 0.419062 0.322901 0.831783
Si Si4 0.076466 0.284580 0.787184
Si Si5 0.319753 0.225130 0.664857
O O1 0.738787 0.911093 0.130582
O O2 0.856737 0.879798 0.000000
O O3 0.809583 0.000000 0.000000
O O4 0.075718 0.213530 0.870742
O O5 0.000000 0.125500 0.000000
O O6 0.388256 0.388256 0.750000
O O7 0.500000 0.318464 0.815502
O O8 0.380397 0.261370 0.751154
O O9 0.404649 0.324110 0.000000
O O10 0.143372 0.324982 0.832603
O O11 0.000000 0.314733 0.804651
O O12 0.252996 0.252996 0.750000
O O13 0.316739 0.245244 0.500000
#
# Coordination Sequence:
#
# PCOD9566118 Si02
#       5
#     8   8  16  16  16
#     4  10  20  31  44  66  93 129 176 222 280 344
#     4  10  18  31  46  64  95 129 170 224 280 336
#     4  10  22  39  60  89 122 153 185 218 256 310
#     4  10  21  33  48  72 101 136 179 231 283 333
#     4  11  21  33  56  82 109 144 184 233 280 327
#
# _framework density 17.391759
#
# number of rings (size 3 to 8) (size 9 to 14) (size 15 to 20)
#    0.000    1.750    1.250    5.250    3.500    2.500 
#    0.000    1.250    0.000    5.250    0.000    3.500 
#    0.000    0.000    0.000    0.000    0.000    0.000 
#
# Total GULP energy -356384.307976 kJ/mol
# GULP energy per Si atom -5568.504812 kJ/mol
# Density = 1.735217 g / cm^3
# Si number density = 17.391759 Si / 1000 Ang^3
#
#
#
# Elastic Constant Matrix: (Units=GPa)
#
#
# Indices 1 2 3 4 5 6 
#
# 1 103.1764 29.8043 32.0718 0.0000 0.0000 0.0000
# 2 29.8043 103.1764 32.0718 0.0000 0.0000 0.0000
# 3 32.0718 32.0718 153.2938 0.0000 0.0000 0.0000
# 4 0.0000 0.0000 0.0000 26.2824 0.0000 0.0000
# 5 0.0000 0.0000 0.0000 0.0000 26.2824 0.0000
# 6 0.0000 0.0000 0.0000 0.0000 0.0000 11.5642
#
#
#
# Elastic Compliance Matrix: (Units=1/GPa)
#
#
# Indices 1 2 3 4 5 6 
#
# 1 0.010997 -0.002633 -0.001750 0.000000 0.000000 0.000000
# 2 -0.002633 0.010997 -0.001750 0.000000 0.000000 0.000000
# 3 -0.001750 -0.001750 0.007256 0.000000 0.000000 0.000000
# 4 0.000000 0.000000 0.000000 0.038048 0.000000 0.000000
# 5 0.000000 0.000000 0.000000 0.000000 0.038048 0.000000
# 6 0.000000 0.000000 0.000000 0.000000 0.000000 0.086474
#
#
# Mechanical properties :
#
#
# Convention : Reuss Voigt Hill
#
# Bulk Modulus (GPa) = 58.87896 60.83803 59.85849
# Shear Modulus (GPa) = 23.83844 30.53904 27.18874
#
# Velocity S-wave (km/s) = 3.70628 4.19495 3.95816
# Velocity P-wave (km/s) = 7.22796 7.64986 7.44190
#
# Compressibility (1/GPa) = 0.01698399
#
# Stress axis : x y z
#
# Youngs Moduli (GPa) = 90.93757 90.93757 137.82392
#
# Poissons Ratio (x) = 0.23940 0.24118
# Poissons Ratio (y) = 0.23940 0.24118
# Poissons Ratio (z) = 0.15913 0.15913
#
# Static dielectric constant tensor:
#      x y z
#    x 1.605270 0.000000 0.000000 
#    y 0.000000 1.605270 0.000000 
#    z 0.000000 0.000000 1.573990 
# 
# From -- ./inp_files/1657.got.cif
#   From: 2010.05.17/outbox.cif.g08.bks.cpg/sg131_1_cif.got.tgz:1657.got - 2010.05.20 12:21:01.
