data_PCOD9566418
_publ_section_title
;
Structure prediction by ZEFSAII (Michael W. Deem and Ramdas Pophale) SiO2 
 PCOD9566418
Probable space group: P 42/M M C
;
_chemical_formula_sum "Si O2"
_cell_formula_units_Z 96
_cell_length_a 25.525139
_cell_length_b 25.525139
_cell_length_c 9.199004
_cell_angle_alpha 90.000000
_cell_angle_beta 90.000000
_cell_angle_gamma 90.000000
_cell_volume 5993.452106
_symmetry_space_group_name_H-M "P 42/M M C"
_symmetry_group_IT_number 131
_symmetry_cell_setting 'tetragonal'
loop_
_space_group_symop_operation_xyz
x,y,z
-x,-y,z
-y,x,1/2+z
y,-x,1/2+z
-x,y,-z
x,-y,-z
y,x,1/2-z
-y,-x,1/2-z
-x,-y,-z
x,y,-z
y,-x,1/2-z
-y,x,1/2-z
x,-y,z
-x,y,z
-y,-x,1/2+z
y,x,1/2+z
loop_
_atom_site_type_symbol
_atom_site_label
_atom_site_fract_x
_atom_site_fract_y
_atom_site_fract_z
Si Si1 0.360361 0.438007 0.170995
Si Si2 0.632046 0.836492 0.672407
Si Si3 0.941626 0.758743 0.668685
Si Si4 0.756902 0.835318 0.327165
Si Si5 0.941540 0.368353 0.668097
Si Si6 0.438333 0.750174 0.827375
O O1 0.404441 0.404441 0.250000
O O2 0.371151 0.500000 0.184724
O O3 0.304898 0.427783 0.248340
O O4 0.357434 0.425224 0.000000
O O5 0.624097 0.831837 0.500000
O O6 0.694435 0.829698 0.701731
O O7 0.615946 0.894073 0.729049
O O8 0.598502 0.793927 0.758132
O O9 0.934068 0.774221 0.500000
O O10 0.891978 0.774207 0.764702
O O11 0.942676 0.695184 0.670896
O O12 0.000000 0.776209 0.715833
O O13 0.790127 0.790127 0.250000
O O14 0.764462 0.833432 0.500000
O O15 0.931744 0.383626 0.500000
O O16 0.000000 0.386381 0.709798
O O17 0.500000 0.762681 0.804658
O O18 0.429537 0.745537 0.000000
#
# Coordination Sequence:
#
# PCOD9566418 Si02
#       6
#    16  16  16  16  16  16
#     4  10  21  37  57  80 105 131 159 194 236 282
#     4  10  20  32  48  71  97 127 162 199 243 292
#     4   8  14  26  44  64  88 121 158 194 234 280
#     4  10  20  31  44  66  97 130 161 195 236 281
#     4   8  14  26  45  68  93 122 157 196 238 286
#     4  10  21  37  56  75  96 126 164 203 241 284
#
# _framework density 16.017479000000002
#
# number of rings (size 3 to 8) (size 9 to 14) (size 15 to 20)
#    0.000    2.667    0.000    3.000    0.000    5.500 
#    0.000    5.833    0.000    0.500    0.000    3.500 
#    0.000    0.333    0.000    3.500    0.000    1.833 
#
# Total GULP energy -535023.025743 kJ/mol
# GULP energy per Si atom -5573.156518 kJ/mol
# Density = 1.598102 g / cm^3
# Si number density = 16.017479 Si / 1000 Ang^3
#
#
#
# Elastic Constant Matrix: (Units=GPa)
#
#
# Indices 1 2 3 4 5 6 
#
# 1 74.7778 66.0146 73.8171 0.0000 0.0000 0.0000
# 2 66.0146 74.7778 73.8171 0.0000 0.0000 0.0000
# 3 73.8171 73.8171 113.7789 0.0000 0.0000 0.0000
# 4 0.0000 0.0000 0.0000 25.2685 0.0000 0.0000
# 5 0.0000 0.0000 0.0000 0.0000 25.2685 0.0000
# 6 0.0000 0.0000 0.0000 0.0000 0.0000 -8.9131
#
#
#
# Elastic Compliance Matrix: (Units=1/GPa)
#
#
# Indices 1 2 3 4 5 6 
#
# 1 0.068165 -0.045948 -0.014414 0.000000 0.000000 0.000000
# 2 -0.045948 0.068165 -0.014414 0.000000 0.000000 0.000000
# 3 -0.014414 -0.014414 0.027492 0.000000 0.000000 0.000000
# 4 0.000000 0.000000 0.000000 0.039575 0.000000 0.000000
# 5 0.000000 0.000000 0.000000 0.000000 0.039575 0.000000
# 6 0.000000 0.000000 0.000000 0.000000 0.000000 -0.112194
#
#
# Mechanical properties :
#
#
# Convention : Reuss Voigt Hill
#
# Bulk Modulus (GPa) = 70.07595 76.73688 73.40641
# Shear Modulus (GPa) = 17.53856 11.63716 14.58786
#
# Velocity S-wave (km/s) = 3.31261 2.69834 3.02113
# Velocity P-wave (km/s) = 7.64695 7.59739 7.62221
#
# Compressibility (1/GPa) = 0.01427023
#
# Stress axis : x y z
#
# Youngs Moduli (GPa) = 14.67025 14.67025 36.37475
#
# Poissons Ratio (x) = 0.67407 0.52430
# Poissons Ratio (y) = 0.67407 0.52430
# Poissons Ratio (z) = 0.21145 0.21145
#
# Static dielectric constant tensor:
#      x y z
#    x 1.526760 0.000000 0.000000 
#    y 0.000000 1.526760 0.000000 
#    z 0.000000 0.000000 1.530250 
# 
# From -- ./inp_files/2179.got.cif
#   From: 2010.05.17/outbox.cif.g08.bks.cpg/sg131_2_cif.got.tgz:2179.got - 2010.05.20 12:21:01.
