data_PCOD9566369
_publ_section_title
;
Structure prediction by ZEFSAII (Michael W. Deem and Ramdas Pophale) SiO2 
 PCOD9566369
Probable space group: P 42/M M C
;
_chemical_formula_sum "Si O2"
_cell_formula_units_Z 80
_cell_length_a 11.726425
_cell_length_b 11.726425
_cell_length_c 35.104054
_cell_angle_alpha 90.000000
_cell_angle_beta 90.000000
_cell_angle_gamma 90.000000
_cell_volume 4827.124881
_symmetry_space_group_name_H-M "P 42/M M C"
_symmetry_group_IT_number 131
_symmetry_cell_setting 'tetragonal'
loop_
_space_group_symop_operation_xyz
x,y,z
-x,-y,z
-y,x,1/2+z
y,-x,1/2+z
-x,y,-z
x,-y,-z
y,x,1/2-z
-y,-x,1/2-z
-x,-y,-z
x,y,-z
y,-x,1/2-z
-y,x,1/2-z
x,-y,z
-x,y,z
-y,-x,1/2+z
y,x,1/2+z
loop_
_atom_site_type_symbol
_atom_site_label
_atom_site_fract_x
_atom_site_fract_y
_atom_site_fract_z
Si Si1 0.000000 0.138999 0.543801
Si Si2 0.639261 0.500000 0.414392
Si Si3 0.864572 0.135429 0.250000
Si Si4 0.133349 0.500000 0.640328
Si Si5 0.262430 0.634399 0.042510
Si Si6 0.788754 0.865426 0.596050
Si Si7 0.867066 0.250436 0.328892
O O1 0.108475 0.175110 0.568542
O O2 0.000000 0.178323 0.500000
O O3 0.000000 0.000000 0.542604
O O4 0.500000 0.500000 0.401883
O O5 0.750008 0.500000 0.385616
O O6 0.654845 0.387204 0.439836
O O7 0.831722 0.205535 0.287567
O O8 0.000000 0.152386 0.242930
O O9 0.138925 0.385660 0.665377
O O10 0.000000 0.500000 0.623320
O O11 0.249763 0.500000 0.039342
O O12 0.170396 0.679636 0.072177
O O13 0.250253 0.684721 0.000000
O O14 0.797822 0.805619 0.636668
O O15 0.798508 0.000000 0.601236
O O16 0.000000 0.214889 0.333880
#
# Coordination Sequence:
#
# PCOD9566369 Si02
#       7
#     8   8   8   8  16  16  16
#     4   9  18  30  44  69 105 145 179 208 255 321
#     4  10  19  36  60  80 102 144 194 236 270 325
#     4   9  18  32  56  86 111 138 176 218 261 324
#     4  10  20  35  59  85 112 144 180 224 283 333
#     4  10  21  36  54  75 101 140 189 235 272 314
#     4  11  20  31  51  76 107 144 178 220 270 324
#     4  10  19  34  56  82 111 142 178 219 270 330
#
# _framework density 16.573011999999999
#
# number of rings (size 3 to 8) (size 9 to 14) (size 15 to 20)
#    0.000    2.000    3.000    1.500    0.000    3.600 
#    0.000    1.000    4.400    0.600    0.000    0.000 
#    0.000    0.000    0.000    0.000    0.000    0.000 
#
# Total GULP energy -445432.806457 kJ/mol
# GULP energy per Si atom -5567.910081 kJ/mol
# Density = 1.653529 g / cm^3
# Si number density = 16.573012 Si / 1000 Ang^3
#
#
#
# Elastic Constant Matrix: (Units=GPa)
#
#
# Indices 1 2 3 4 5 6 
#
# 1 59.6898 18.3610 48.6307 0.0000 0.0000 0.0000
# 2 18.3610 59.6894 48.6308 0.0000 0.0000 0.0000
# 3 48.6307 48.6308 145.9727 0.0000 0.0000 0.0000
# 4 0.0000 0.0000 0.0000 17.9045 0.0000 0.0000
# 5 0.0000 0.0000 0.0000 0.0000 17.9046 0.0000
# 6 0.0000 0.0000 0.0000 0.0000 0.0000 23.5053
#
#
#
# Elastic Compliance Matrix: (Units=1/GPa)
#
#
# Indices 1 2 3 4 5 6 
#
# 1 0.023051 -0.001145 -0.007298 0.000000 0.000000 0.000000
# 2 -0.001145 0.023052 -0.007298 0.000000 0.000000 0.000000
# 3 -0.007298 -0.007298 0.011713 0.000000 0.000000 0.000000
# 4 0.000000 0.000000 0.000000 0.055852 0.000000 0.000000
# 5 0.000000 0.000000 0.000000 0.000000 0.055852 0.000000
# 6 0.000000 0.000000 0.000000 0.000000 0.000000 0.042544
#
#
# Mechanical properties :
#
#
# Convention : Reuss Voigt Hill
#
# Bulk Modulus (GPa) = 37.97370 55.17743 46.57556
# Shear Modulus (GPa) = 19.81580 21.84485 20.83032
#
# Velocity S-wave (km/s) = 3.46159 3.63450 3.54910
# Velocity P-wave (km/s) = 6.24016 7.13993 6.70515
#
# Compressibility (1/GPa) = 0.02633402
#
# Stress axis : x y z
#
# Youngs Moduli (GPa) = 43.38127 43.38080 85.37231
#
# Poissons Ratio (x) = 0.04966 0.62306
# Poissons Ratio (y) = 0.04966 0.62307
# Poissons Ratio (z) = 0.31660 0.31661
#
# Static dielectric constant tensor:
#      x y z
#    x 1.576410 0.000000 0.000000 
#    y 0.000000 1.576410 0.000000 
#    z 0.000000 0.000000 1.541840 
# 
# From -- ./inp_files/13482.got.cif
#   From: 2010.05.17/outbox.cif.g08.bks.cpg/sg131_7_cif.got.tgz:13482.got - 2010.05.20 12:21:01.
