data_PCOD9566178
_publ_section_title
;
Structure prediction by ZEFSAII (Michael W. Deem and Ramdas Pophale) SiO2 
 PCOD9566178
Probable space group: P 42/M M C
;
_chemical_formula_sum "Si O2"
_cell_formula_units_Z 88
_cell_length_a 12.830678
_cell_length_b 12.830678
_cell_length_c 28.947137
_cell_angle_alpha 90.000000
_cell_angle_beta 90.000000
_cell_angle_gamma 90.000000
_cell_volume 4765.460000
_symmetry_space_group_name_H-M "P 42/M M C"
_symmetry_group_IT_number 131
_symmetry_cell_setting 'tetragonal'
loop_
_space_group_symop_operation_xyz
x,y,z
-x,-y,z
-y,x,1/2+z
y,-x,1/2+z
-x,y,-z
x,-y,-z
y,x,1/2-z
-y,-x,1/2-z
-x,-y,-z
x,y,-z
y,-x,1/2-z
-y,x,1/2-z
x,-y,z
-x,y,z
-y,-x,1/2+z
y,x,1/2+z
loop_
_atom_site_type_symbol
_atom_site_label
_atom_site_fract_x
_atom_site_fract_y
_atom_site_fract_z
Si Si1 0.880810 0.623313 0.417193
Si Si2 0.735991 0.802409 0.447693
Si Si3 0.119559 0.759817 0.325571
Si Si4 0.316626 0.123255 0.355720
Si Si5 0.612676 0.126533 0.743760
Si Si6 0.115001 0.000000 0.554793
O O1 0.859609 0.500000 0.417933
O O2 0.798539 0.694149 0.444407
O O3 0.877919 0.671183 0.365483
O O4 0.000000 0.639308 0.434288
O O5 0.695539 0.816897 0.500000
O O6 0.660577 0.816463 0.403560
O O7 0.818748 0.895731 0.437337
O O8 0.197863 0.849802 0.340825
O O9 0.155453 0.704240 0.278580
O O10 0.000000 0.795340 0.321148
O O11 0.376750 0.157909 0.309634
O O12 0.332298 0.000000 0.362558
O O13 0.500000 0.160569 0.761878
O O14 0.614597 0.000000 0.743629
O O15 0.101072 0.000000 0.500000
O O16 0.000000 0.000000 0.576809
#
# Coordination Sequence:
#
# PCOD9566178 Si02
#       6
#    16  16  16  16  16   8
#     4   9  17  28  42  62  90 123 162 204 240 273
#     4  10  19  30  42  59  86 122 159 198 241 279
#     4   9  17  29  45  67  95 126 153 182 225 280
#     4  10  19  30  44  67  93 121 157 192 222 268
#     4   9  17  30  48  65  85 115 150 187 228 276
#     4   9  16  26  40  56  77 113 159 193 218 266
#
# _framework density 18.466213
#
# number of rings (size 3 to 8) (size 9 to 14) (size 15 to 20)
#    0.000    2.636    0.909    1.636    0.000    4.727 
#    0.000    0.909    0.000    3.818    0.000    2.545 
#    0.000   40.727    0.000    6.545    0.000    0.000 
#
# Total GULP energy -489949.808733 kJ/mol
# GULP energy per Si atom -5567.611463 kJ/mol
# Density = 1.842418 g / cm^3
# Si number density = 18.466213 Si / 1000 Ang^3
#
#
#
# Elastic Constant Matrix: (Units=GPa)
#
#
# Indices 1 2 3 4 5 6 
#
# 1 23.7350 -0.2834 -1.9330 0.0000 0.0000 0.0000
# 2 -0.2834 23.7350 -1.9330 0.0000 0.0000 0.0000
# 3 -1.9330 -1.9330 109.4854 0.0000 0.0000 0.0000
# 4 0.0000 0.0000 0.0000 12.6540 0.0000 0.0000
# 5 0.0000 0.0000 0.0000 0.0000 12.6540 0.0000
# 6 0.0000 0.0000 0.0000 0.0000 0.0000 7.8600
#
#
#
# Elastic Compliance Matrix: (Units=1/GPa)
#
#
# Indices 1 2 3 4 5 6 
#
# 1 0.042200 0.000565 0.000755 0.000000 0.000000 0.000000
# 2 0.000565 0.042200 0.000755 0.000000 0.000000 0.000000
# 3 0.000755 0.000755 0.009160 0.000000 0.000000 0.000000
# 4 0.000000 0.000000 0.000000 0.079026 0.000000 0.000000
# 5 0.000000 0.000000 0.000000 0.000000 0.079026 0.000000
# 6 0.000000 0.000000 0.000000 0.000000 0.000000 0.127226
#
#
# Mechanical properties :
#
#
# Convention : Reuss Voigt Hill
#
# Bulk Modulus (GPa) = 10.23422 16.51741 13.37582
# Shear Modulus (GPa) = 12.27719 17.37392 14.82555
#
# Velocity S-wave (km/s) = 2.58126 3.07065 2.83653
# Velocity P-wave (km/s) = 3.79974 4.64069 4.24111
#
# Compressibility (1/GPa) = 0.09771137
#
# Stress axis : x y z
#
# Youngs Moduli (GPa) = 23.69658 23.69658 109.16675
#
# Poissons Ratio (x) = -0.01340 -0.08242
# Poissons Ratio (y) = -0.01340 -0.08242
# Poissons Ratio (z) = -0.01789 -0.01789
#
# Static dielectric constant tensor:
#      x y z
#    x 1.649090 0.000000 0.000000 
#    y 0.000000 1.649090 0.000000 
#    z 0.000000 0.000000 1.702420 
# 
# From -- ./inp_files/13574.got.cif
#   From: 2010.05.17/outbox.cif.g08.bks.cpg/sg131_7_cif.got.tgz:13574.got - 2010.05.20 12:21:01.
