data_PCOD9566383
_publ_section_title
;
Structure prediction by ZEFSAII (Michael W. Deem and Ramdas Pophale) SiO2 
 PCOD9566383
Probable space group: P 42/M M C
;
_chemical_formula_sum "Si O2"
_cell_formula_units_Z 120
_cell_length_a 14.352277
_cell_length_b 14.352277
_cell_length_c 34.358501
_cell_angle_alpha 90.000000
_cell_angle_beta 90.000000
_cell_angle_gamma 90.000000
_cell_volume 7077.433925
_symmetry_space_group_name_H-M "P 42/M M C"
_symmetry_group_IT_number 131
_symmetry_cell_setting 'tetragonal'
loop_
_space_group_symop_operation_xyz
x,y,z
-x,-y,z
-y,x,1/2+z
y,-x,1/2+z
-x,y,-z
x,-y,-z
y,x,1/2-z
-y,-x,1/2-z
-x,-y,-z
x,y,-z
y,-x,1/2-z
-y,x,1/2-z
x,-y,z
-x,y,z
-y,-x,1/2+z
y,x,1/2+z
loop_
_atom_site_type_symbol
_atom_site_label
_atom_site_fract_x
_atom_site_fract_y
_atom_site_fract_z
Si Si1 0.887227 0.606474 0.241034
Si Si2 0.727242 0.887288 0.183267
Si Si3 0.608001 0.397806 0.952830
Si Si4 0.111071 0.394146 0.391741
Si Si5 0.887207 0.500000 0.044379
Si Si6 0.889619 0.743919 0.828066
Si Si7 0.109656 0.698733 0.081323
Si Si8 0.214494 0.719551 0.546241
O O1 0.852310 0.500000 0.242793
O O2 0.861223 0.669486 0.278066
O O3 0.863065 0.661400 0.201692
O O4 0.000000 0.601024 0.241986
O O5 0.664329 0.859366 0.146116
O O6 0.824147 0.832160 0.180564
O O7 0.740441 0.000000 0.182950
O O8 0.640508 0.500000 0.939648
O O9 0.500000 0.386048 0.941259
O O10 0.669656 0.311047 0.941083
O O11 0.609141 0.398660 0.000000
O O12 0.148481 0.500000 0.392568
O O13 0.137749 0.336303 0.429891
O O14 0.000000 0.400658 0.389193
O O15 0.863321 0.404495 0.066233
O O16 0.000000 0.500000 0.041974
O O17 0.849717 0.500000 0.000000
O O18 0.877154 0.710955 0.872549
O O19 0.000000 0.764633 0.822493
O O20 0.174077 0.772973 0.059283
O O21 0.000000 0.711518 0.072805
O O22 0.203144 0.711971 0.500000
#
# Coordination Sequence:
#
# PCOD9566383 Si02
#       8
#    16  16  16  16   8  16  16  16
#     4   9  18  32  54  82 111 142 173 208 254 311
#     4  10  19  35  56  80 110 144 181 216 261 323
#     4   8  15  28  45  67  95 124 157 203 262 325
#     4  10  21  37  56  77 103 136 178 232 286 330
#     4   9  18  32  50  72 101 145 193 229 270 322
#     4  10  20  34  53  81 114 144 178 221 267 315
#     4  10  21  35  51  75 110 146 181 226 273 321
#     4  11  21  33  52  75 101 135 179 229 278 331
#
# _framework density 16.955297999999999
#
# number of rings (size 3 to 8) (size 9 to 14) (size 15 to 20)
#    0.000    2.333    1.333    2.000    1.867    3.733 
#    0.000    0.667    0.000    2.800    0.000    0.933 
#    0.000    8.533    0.000    0.000    0.000    0.000 
#
# Total GULP energy -668930.596336 kJ/mol
# GULP energy per Si atom -5574.421636 kJ/mol
# Density = 1.691671 g / cm^3
# Si number density = 16.955298 Si / 1000 Ang^3
#
#
#
# Elastic Constant Matrix: (Units=GPa)
#
#
# Indices 1 2 3 4 5 6 
#
# 1 61.6419 33.4871 31.9462 0.0000 0.0000 0.0000
# 2 33.4871 61.6419 31.9462 0.0000 0.0000 0.0000
# 3 31.9462 31.9462 89.9161 0.0000 0.0000 0.0000
# 4 0.0000 0.0000 0.0000 22.1362 0.0000 0.0000
# 5 0.0000 0.0000 0.0000 0.0000 22.1362 0.0000
# 6 0.0000 0.0000 0.0000 0.0000 0.0000 24.0840
#
#
#
# Elastic Compliance Matrix: (Units=1/GPa)
#
#
# Indices 1 2 3 4 5 6 
#
# 1 0.024662 -0.010856 -0.004905 0.000000 0.000000 0.000000
# 2 -0.010856 0.024662 -0.004905 0.000000 0.000000 0.000000
# 3 -0.004905 -0.004905 0.014607 0.000000 0.000000 0.000000
# 4 0.000000 0.000000 0.000000 0.045175 0.000000 0.000000
# 5 0.000000 0.000000 0.000000 0.000000 0.045175 0.000000
# 6 0.000000 0.000000 0.000000 0.000000 0.000000 0.041521
#
#
# Mechanical properties :
#
#
# Convention : Reuss Voigt Hill
#
# Bulk Modulus (GPa) = 44.24968 45.32875 44.78922
# Shear Modulus (GPa) = 20.43580 21.39262 20.91421
#
# Velocity S-wave (km/s) = 3.47547 3.55591 3.51592
# Velocity P-wave (km/s) = 6.50075 6.60694 6.55406
#
# Compressibility (1/GPa) = 0.02259903
#
# Stress axis : x y z
#
# Youngs Moduli (GPa) = 40.54774 40.54774 68.45982
#
# Poissons Ratio (x) = 0.44017 0.33582
# Poissons Ratio (y) = 0.44017 0.33582
# Poissons Ratio (z) = 0.19890 0.19890
#
# Static dielectric constant tensor:
#      x y z
#    x 1.585350 0.000000 0.000000 
#    y 0.000000 1.585350 0.000000 
#    z 0.000000 0.000000 1.559750 
# 
# From -- ./inp_files/13939.got.cif
#   From: 2010.05.17/outbox.cif.g08.bks.cpg/sg131_7_cif.got.tgz:13939.got - 2010.05.20 12:21:01.
