data_PCOD9566046
_publ_section_title
;
Structure prediction by ZEFSAII (Michael W. Deem and Ramdas Pophale) SiO2 
 PCOD9566046
Probable space group: P 42/M M C
;
_chemical_formula_sum "Si O2"
_cell_formula_units_Z 112
_cell_length_a 15.466328
_cell_length_b 15.466328
_cell_length_c 28.014790
_cell_angle_alpha 90.000000
_cell_angle_beta 90.000000
_cell_angle_gamma 90.000000
_cell_volume 6701.342326
_symmetry_space_group_name_H-M "P 42/M M C"
_symmetry_group_IT_number 131
_symmetry_cell_setting 'tetragonal'
loop_
_space_group_symop_operation_xyz
x,y,z
-x,-y,z
-y,x,1/2+z
y,-x,1/2+z
-x,y,-z
x,-y,-z
y,x,1/2-z
-y,-x,1/2-z
-x,-y,-z
x,y,-z
y,-x,1/2-z
-y,x,1/2-z
x,-y,z
-x,y,z
-y,-x,1/2+z
y,x,1/2+z
loop_
_atom_site_type_symbol
_atom_site_label
_atom_site_fract_x
_atom_site_fract_y
_atom_site_fract_z
Si Si1 0.363950 0.594745 0.303808
Si Si2 0.899764 0.101112 0.557260
Si Si3 0.241490 0.597586 0.133563
Si Si4 0.304827 0.196260 0.211541
Si Si5 0.399077 0.095544 0.713930
Si Si6 0.100323 0.600860 0.557513
Si Si7 0.750922 0.789802 0.105591
O O1 0.398916 0.601085 0.250000
O O2 0.379826 0.500000 0.323296
O O3 0.402001 0.669683 0.336440
O O4 0.262252 0.616373 0.299221
O O5 0.891955 0.111075 0.500000
O O6 0.834544 0.165496 0.582868
O O7 0.000000 0.121415 0.569536
O O8 0.884503 0.000000 0.568470
O O9 0.229062 0.500000 0.113241
O O10 0.166500 0.613841 0.172809
O O11 0.245396 0.684909 0.101958
O O12 0.245211 0.245211 0.250000
O O13 0.342705 0.115309 0.239513
O O14 0.256466 0.186228 0.161699
O O15 0.500000 0.100555 0.727194
O O16 0.380691 0.000000 0.695166
O O17 0.105820 0.608144 0.500000
O O18 0.116231 0.500000 0.569970
O O19 0.167343 0.666730 0.581094
O O20 0.000000 0.621288 0.570616
#
# Coordination Sequence:
#
# PCOD9566046 Si02
#       7
#    16  16  16  16  16  16  16
#     4  10  17  27  47  67  92 128 170 223 274 301
#     4   9  19  37  61  88 111 128 159 216 278 332
#     4  10  21  35  46  69 107 140 184 228 255 299
#     4  10  19  34  45  71 107 140 174 223 260 303
#     4  10  19  33  51  66  92 140 187 226 267 306
#     4   9  19  36  57  84 116 141 167 214 276 341
#     4  11  20  31  57  81 105 144 182 215 268 321
#
# _framework density 16.713069000000001
#
# number of rings (size 3 to 8) (size 9 to 14) (size 15 to 20)
#    0.000    2.143    4.286    2.571    0.000    6.714 
#    0.000    1.429    0.000    1.714    0.000    3.000 
#    0.000    0.000    0.000    0.000    0.000    0.000 
#
# Total GULP energy -624098.981289 kJ/mol
# GULP energy per Si atom -5572.312333 kJ/mol
# Density = 1.667503 g / cm^3
# Si number density = 16.713069 Si / 1000 Ang^3
#
#
#
# Elastic Constant Matrix: (Units=GPa)
#
#
# Indices 1 2 3 4 5 6 
#
# 1 117.5280 62.7498 39.2620 0.0000 0.0000 0.0000
# 2 62.7498 117.5280 39.2620 0.0000 0.0000 0.0000
# 3 39.2620 39.2620 41.6831 0.0000 0.0000 0.0000
# 4 0.0000 0.0000 0.0000 -3.1717 0.0000 0.0000
# 5 0.0000 0.0000 0.0000 0.0000 -3.1712 0.0000
# 6 0.0000 0.0000 0.0000 0.0000 0.0000 12.3681
#
#
#
# Elastic Compliance Matrix: (Units=1/GPa)
#
#
# Indices 1 2 3 4 5 6 
#
# 1 0.013831 -0.004425 -0.008860 0.000000 0.000000 0.000000
# 2 -0.004425 0.013831 -0.008860 0.000000 0.000000 0.000000
# 3 -0.008860 -0.008860 0.040681 0.000000 0.000000 0.000000
# 4 0.000000 0.000000 0.000000 -0.315287 0.000000 0.000000
# 5 0.000000 0.000000 0.000000 0.000000 -0.315334 0.000000
# 6 0.000000 0.000000 0.000000 0.000000 0.000000 0.080853
#
#
# Mechanical properties :
#
#
# Convention : Reuss Voigt Hill
#
# Bulk Modulus (GPa) = 41.57316 62.14296 51.85806
# Shear Modulus (GPa) = -11.65175 10.23606 -0.70784
#
# Velocity S-wave (km/s) = -2.64325 2.47747 -0.65150
# Velocity P-wave (km/s) = 3.95132 6.74143 5.52538
#
# Compressibility (1/GPa) = 0.02405398
#
# Stress axis : x y z
#
# Youngs Moduli (GPa) = 72.30286 72.30271 24.58172
#
# Poissons Ratio (x) = 0.31992 0.21779
# Poissons Ratio (y) = 0.31992 0.21779
# Poissons Ratio (z) = 0.64058 0.64058
#
# Static dielectric constant tensor:
#      x y z
#    x 1.588480 0.000000 0.000000 
#    y 0.000000 1.588480 0.000000 
#    z 0.000000 0.000000 1.540750 
# 
# From -- ./inp_files/11264.got.cif
#   From: 2010.05.17/outbox.cif.g08.bks.cpg/sg131_6_cif.got.tgz:11264.got - 2010.05.20 12:21:01.
