data_PCOD9566709
_publ_section_title
;
Structure prediction by ZEFSAII (Michael W. Deem and Ramdas Pophale) SiO2 
 PCOD9566709
Probable space group: P 42/M M C
;
_chemical_formula_sum "Si O2"
_cell_formula_units_Z 112
_cell_length_a 14.284533
_cell_length_b 14.284533
_cell_length_c 28.172936
_cell_angle_alpha 90.000000
_cell_angle_beta 90.000000
_cell_angle_gamma 90.000000
_cell_volume 5748.627949
_symmetry_space_group_name_H-M "P 42/M M C"
_symmetry_group_IT_number 131
_symmetry_cell_setting 'tetragonal'
loop_
_space_group_symop_operation_xyz
x,y,z
-x,-y,z
-y,x,1/2+z
y,-x,1/2+z
-x,y,-z
x,-y,-z
y,x,1/2-z
-y,-x,1/2-z
-x,-y,-z
x,y,-z
y,-x,1/2-z
-y,x,1/2-z
x,-y,z
-x,y,z
-y,-x,1/2+z
y,x,1/2+z
loop_
_atom_site_type_symbol
_atom_site_label
_atom_site_fract_x
_atom_site_fract_y
_atom_site_fract_z
Si Si1 0.813426 0.107584 0.947904
Si Si2 0.605298 0.695902 0.887003
Si Si3 0.228970 0.611595 0.054844
Si Si4 0.730305 0.388169 0.717488
Si Si5 0.889078 0.737508 0.121782
Si Si6 0.887542 0.742201 0.235180
Si Si7 0.601921 0.899310 0.076334
O O1 0.844106 0.172471 0.904540
O O2 0.700118 0.107332 0.950380
O O3 0.842727 0.000000 0.940467
O O4 0.848914 0.138377 0.000000
O O5 0.500000 0.657725 0.891160
O O6 0.673109 0.652597 0.925915
O O7 0.641955 0.690981 0.833909
O O8 0.600691 0.807559 0.892729
O O9 0.230852 0.500000 0.056575
O O10 0.153095 0.652310 0.091314
O O11 0.213179 0.640398 0.000000
O O12 0.645667 0.354334 0.750000
O O13 0.745706 0.500000 0.717069
O O14 0.823433 0.333311 0.735929
O O15 0.871176 0.731112 0.178262
O O16 0.000000 0.742423 0.115744
O O17 0.842085 0.842085 0.250000
O O18 0.000000 0.735753 0.243885
O O19 0.500000 0.898024 0.051235
O O20 0.605690 0.000000 0.101807
#
# Coordination Sequence:
#
# PCOD9566709 Si02
#       7
#    16  16  16  16  16  16  16
#     4  10  21  36  57  86 118 155 195 235 288 354
#     4  10  21  38  60  88 123 158 190 234 294 358
#     4  11  24  41  62  88 118 157 206 254 298 344
#     4  10  22  39  60  89 121 155 199 246 296 358
#     4  11  24  42  61  85 118 156 200 250 303 350
#     4  10  23  41  63  91 121 156 198 248 304 362
#     4   9  18  32  54  87 121 151 183 222 280 355
#
# _framework density 19.482911000000001
#
# number of rings (size 3 to 8) (size 9 to 14) (size 15 to 20)
#    0.000    1.857    1.429    2.143    0.000    6.571 
#    0.000   10.714    0.000    0.000    0.000    0.000 
#    0.000    0.000    0.000    0.000    0.000    0.000 
#
# Total GULP energy -623803.444972 kJ/mol
# GULP energy per Si atom -5569.673616 kJ/mol
# Density = 1.943857 g / cm^3
# Si number density = 19.482911 Si / 1000 Ang^3
#
#
#
# Elastic Constant Matrix: (Units=GPa)
#
#
# Indices 1 2 3 4 5 6 
#
# 1 77.8884 16.6978 14.0036 0.0000 0.0000 0.0000
# 2 16.6978 77.8851 14.0040 0.0000 0.0000 0.0000
# 3 14.0036 14.0040 75.3550 0.0000 0.0000 0.0000
# 4 0.0000 0.0000 0.0000 28.5407 0.0000 0.0000
# 5 0.0000 0.0000 0.0000 0.0000 28.5330 0.0000
# 6 0.0000 0.0000 0.0000 0.0000 0.0000 9.1080
#
#
#
# Elastic Compliance Matrix: (Units=1/GPa)
#
#
# Indices 1 2 3 4 5 6 
#
# 1 0.013765 -0.002577 -0.002079 0.000000 0.000000 0.000000
# 2 -0.002577 0.013766 -0.002079 0.000000 0.000000 0.000000
# 3 -0.002079 -0.002079 0.014043 0.000000 0.000000 0.000000
# 4 0.000000 0.000000 0.000000 0.035038 0.000000 0.000000
# 5 0.000000 0.000000 0.000000 0.000000 0.035047 0.000000
# 6 0.000000 0.000000 0.000000 0.000000 0.000000 0.109793
#
#
# Mechanical properties :
#
#
# Convention : Reuss Voigt Hill
#
# Bulk Modulus (GPa) = 35.58343 35.61549 35.59946
# Shear Modulus (GPa) = 20.46736 25.66456 23.06596
#
# Velocity S-wave (km/s) = 3.24470 3.63338 3.44453
# Velocity P-wave (km/s) = 5.68692 5.99350 5.84222
#
# Compressibility (1/GPa) = 0.02810297
#
# Stress axis : x y z
#
# Youngs Moduli (GPa) = 72.64695 72.64363 71.20832
#
# Poissons Ratio (x) = 0.18722 0.14805
# Poissons Ratio (y) = 0.18723 0.14806
# Poissons Ratio (z) = 0.15104 0.15105
#
# Static dielectric constant tensor:
#      x y z
#    x 1.697120 0.000000 0.000000 
#    y 0.000000 1.697120 0.000000 
#    z 0.000000 0.000000 1.784930 
# 
# From -- ./inp_files/12422.got.cif
#   From: 2010.05.17/outbox.cif.g08.bks.cpg/sg131_7_cif.got.tgz:12422.got - 2010.05.20 12:21:01.
