data_PCOD9566335
_publ_section_title
;
Structure prediction by ZEFSAII (Michael W. Deem and Ramdas Pophale) SiO2 
 PCOD9566335
Probable space group: P 42/M M C
;
_chemical_formula_sum "Si O2"
_cell_formula_units_Z 80
_cell_length_a 23.234427
_cell_length_b 23.234427
_cell_length_c 9.044065
_cell_angle_alpha 90.000000
_cell_angle_beta 90.000000
_cell_angle_gamma 90.000000
_cell_volume 4882.335370
_symmetry_space_group_name_H-M "P 42/M M C"
_symmetry_group_IT_number 131
_symmetry_cell_setting 'tetragonal'
loop_
_space_group_symop_operation_xyz
x,y,z
-x,-y,z
-y,x,1/2+z
y,-x,1/2+z
-x,y,-z
x,-y,-z
y,x,1/2-z
-y,-x,1/2-z
-x,-y,-z
x,y,-z
y,-x,1/2-z
-y,x,1/2-z
x,-y,z
-x,y,z
-y,-x,1/2+z
y,x,1/2+z
loop_
_atom_site_type_symbol
_atom_site_label
_atom_site_fract_x
_atom_site_fract_y
_atom_site_fract_z
Si Si1 0.684993 0.062430 0.322221
Si Si2 0.583844 0.500000 0.172672
Si Si3 0.215839 0.393408 0.330169
Si Si4 0.500000 0.299641 0.172575
Si Si5 0.086362 0.435328 0.326428
Si Si6 0.811349 0.276452 0.177032
O O1 0.682447 0.064899 0.500000
O O2 0.619800 0.063586 0.260770
O O3 0.717381 0.121153 0.274535
O O4 0.710558 0.000000 0.279493
O O5 0.554426 0.554426 0.250000
O O6 0.649838 0.500000 0.211332
O O7 0.571861 0.500000 0.000000
O O8 0.220359 0.372516 0.500000
O O9 0.263090 0.442067 0.305532
O O10 0.155103 0.426521 0.316955
O O11 0.215949 0.337790 0.226094
O O12 0.500000 0.319471 0.000000
O O13 0.070540 0.431085 0.500000
O O14 0.071048 0.500000 0.275494
O O15 0.775211 0.224790 0.250000
O O16 0.809492 0.270767 0.000000
#
# Coordination Sequence:
#
# PCOD9566335 Si02
#       6
#    16   8  16   8  16  16
#     4   9  19  34  49  68  96 129 164 201 241 286
#     4  11  23  40  57  70  86 109 139 181 236 298
#     4   9  17  31  50  71  97 128 160 197 239 281
#     4  10  19  33  54  76  96 121 154 196 242 287
#     4   9  16  28  46  68  95 128 164 199 237 276
#     4  10  20  34  52  73  98 130 165 203 245 290
#
# _framework density 16.385601000000001
#
# number of rings (size 3 to 8) (size 9 to 14) (size 15 to 20)
#    0.000    2.500    1.000    1.800    0.000    3.600 
#    0.000    2.000    0.000    0.000    0.000    0.000 
#    0.000    0.400    0.000    5.000    0.000    0.000 
#
# Total GULP energy -445777.174928 kJ/mol
# GULP energy per Si atom -5572.214687 kJ/mol
# Density = 1.634831 g / cm^3
# Si number density = 16.385601 Si / 1000 Ang^3
#
#
#
# Elastic Constant Matrix: (Units=GPa)
#
#
# Indices 1 2 3 4 5 6 
#
# 1 86.9737 41.0339 38.6857 0.0000 0.0000 0.0000
# 2 41.0339 86.9739 38.6849 0.0000 0.0000 0.0000
# 3 38.6857 38.6849 53.0344 0.0000 0.0000 0.0000
# 4 0.0000 0.0000 0.0000 10.6865 0.0000 0.0000
# 5 0.0000 0.0000 0.0000 0.0000 10.6872 0.0000
# 6 0.0000 0.0000 0.0000 0.0000 0.0000 0.4187
#
#
#
# Elastic Compliance Matrix: (Units=1/GPa)
#
#
# Indices 1 2 3 4 5 6 
#
# 1 0.017870 -0.003898 -0.010192 0.000000 0.000000 0.000000
# 2 -0.003898 0.017870 -0.010192 0.000000 0.000000 0.000000
# 3 -0.010192 -0.010192 0.033724 0.000000 0.000000 0.000000
# 4 0.000000 0.000000 0.000000 0.093576 0.000000 0.000000
# 5 0.000000 0.000000 0.000000 0.000000 0.093570 0.000000
# 6 0.000000 0.000000 0.000000 0.000000 0.000000 2.388624
#
#
# Mechanical properties :
#
#
# Convention : Reuss Voigt Hill
#
# Bulk Modulus (GPa) = 47.84386 51.53233 49.68809
# Shear Modulus (GPa) = 1.85133 11.59698 6.72415
#
# Velocity S-wave (km/s) = 1.06410 2.66325 2.02796
# Velocity P-wave (km/s) = 5.54724 6.40119 5.98945
#
# Compressibility (1/GPa) = 0.02090132
#
# Stress axis : x y z
#
# Youngs Moduli (GPa) = 55.95942 55.96070 29.65220
#
# Poissons Ratio (x) = 0.21812 0.30222
# Poissons Ratio (y) = 0.21811 0.30220
# Poissons Ratio (z) = 0.57035 0.57033
#
# Static dielectric constant tensor:
#      x y z
#    x 1.569710 0.000000 0.000000 
#    y 0.000000 1.569710 0.000000 
#    z 0.000000 0.000000 1.553920 
# 
# From -- ./inp_files/2075.got.cif
#   From: 2010.05.17/outbox.cif.g08.bks.cpg/sg131_2_cif.got.tgz:2075.got - 2010.05.20 12:21:01.
