data_PCOD9566169
_publ_section_title
;
Structure prediction by ZEFSAII (Michael W. Deem and Ramdas Pophale) SiO2 
 PCOD9566169
Probable space group: P 42/M M C
;
_chemical_formula_sum "Si O2"
_cell_formula_units_Z 80
_cell_length_a 23.328588
_cell_length_b 23.328588
_cell_length_c 8.955622
_cell_angle_alpha 90.000000
_cell_angle_beta 90.000000
_cell_angle_gamma 90.000000
_cell_volume 4873.855634
_symmetry_space_group_name_H-M "P 42/M M C"
_symmetry_group_IT_number 131
_symmetry_cell_setting 'tetragonal'
loop_
_space_group_symop_operation_xyz
x,y,z
-x,-y,z
-y,x,1/2+z
y,-x,1/2+z
-x,y,-z
x,-y,-z
y,x,1/2-z
-y,-x,1/2-z
-x,-y,-z
x,y,-z
y,-x,1/2-z
-y,x,1/2-z
x,-y,z
-x,y,z
-y,-x,1/2+z
y,x,1/2+z
loop_
_atom_site_type_symbol
_atom_site_label
_atom_site_fract_x
_atom_site_fract_y
_atom_site_fract_z
Si Si1 0.684498 0.062267 0.320084
Si Si2 0.584021 0.500000 0.326344
Si Si3 0.206029 0.404582 0.174215
Si Si4 0.500000 0.300916 0.330611
Si Si5 0.090305 0.436083 0.322484
Si Si6 0.813608 0.274187 0.178445
O O1 0.681436 0.065160 0.500000
O O2 0.619718 0.064718 0.257401
O O3 0.718238 0.119763 0.271243
O O4 0.709474 0.000000 0.278323
O O5 0.571564 0.500000 0.500000
O O6 0.554521 0.554521 0.250000
O O7 0.650313 0.500000 0.290732
O O8 0.261538 0.443874 0.184631
O O9 0.157219 0.430438 0.279533
O O10 0.213467 0.337318 0.208643
O O11 0.185982 0.407823 0.000000
O O12 0.500000 0.325172 0.500000
O O13 0.081671 0.431454 0.500000
O O14 0.070683 0.500000 0.275822
O O15 0.776126 0.223875 0.250000
O O16 0.813638 0.265847 0.000000
#
# Coordination Sequence:
#
# PCOD9566169 Si02
#       6
#    16   8  16   8  16  16
#     4   9  19  35  52  69  92 127 171 209 240 285
#     4  11  23  40  57  70  88 113 145 189 246 311
#     4   9  18  32  50  70  96 130 166 200 235 283
#     4  10  19  33  54  76  96 121 158 203 248 290
#     4  10  19  29  44  68  99 130 162 200 245 287
#     4   9  18  32  50  73  98 127 161 198 243 290
#
# _framework density 16.414107999999999
#
# number of rings (size 3 to 8) (size 9 to 14) (size 15 to 20)
#    0.000    2.500    1.000    3.000    0.000    6.800 
#    0.000    4.000    0.000    0.000    0.000    0.000 
#    0.000    0.400    0.000    5.000    0.000    0.000 
#
# Total GULP energy -445769.289741 kJ/mol
# GULP energy per Si atom -5572.116122 kJ/mol
# Density = 1.637675 g / cm^3
# Si number density = 16.414108 Si / 1000 Ang^3
#
#
#
# Elastic Constant Matrix: (Units=GPa)
#
#
# Indices 1 2 3 4 5 6 
#
# 1 97.9116 57.9296 26.7150 0.0000 0.0000 0.0000
# 2 57.9296 97.9124 26.7153 0.0000 0.0000 0.0000
# 3 26.7150 26.7153 36.1656 0.0000 0.0000 0.0000
# 4 0.0000 0.0000 0.0000 7.4559 0.0000 0.0000
# 5 0.0000 0.0000 0.0000 0.0000 7.4553 0.0000
# 6 0.0000 0.0000 0.0000 0.0000 0.0000 2.1731
#
#
#
# Elastic Compliance Matrix: (Units=1/GPa)
#
#
# Indices 1 2 3 4 5 6 
#
# 1 0.016802 -0.008209 -0.006348 0.000000 0.000000 0.000000
# 2 -0.008209 0.016802 -0.006348 0.000000 0.000000 0.000000
# 3 -0.006348 -0.006348 0.037028 0.000000 0.000000 0.000000
# 4 0.000000 0.000000 0.000000 0.134121 0.000000 0.000000
# 5 0.000000 0.000000 0.000000 0.000000 0.134133 0.000000
# 6 0.000000 0.000000 0.000000 0.000000 0.000000 0.460168
#
#
# Mechanical properties :
#
#
# Convention : Reuss Voigt Hill
#
# Bulk Modulus (GPa) = 34.69322 50.52327 42.60825
# Shear Modulus (GPa) = 5.87910 11.45885 8.66897
#
# Velocity S-wave (km/s) = 1.89460 2.64504 2.30063
# Velocity P-wave (km/s) = 5.09589 6.33842 5.75081
#
# Compressibility (1/GPa) = 0.02882408
#
# Stress axis : x y z
#
# Youngs Moduli (GPa) = 59.51650 59.51680 27.00635
#
# Poissons Ratio (x) = 0.48857 0.17142
# Poissons Ratio (y) = 0.48857 0.17143
# Poissons Ratio (z) = 0.37778 0.37779
#
# Static dielectric constant tensor:
#      x y z
#    x 1.564790 0.000000 0.000000 
#    y 0.000000 1.564780 0.000000 
#    z 0.000000 0.000000 1.557760 
# 
# From -- ./inp_files/2076.got.cif
#   From: 2010.05.17/outbox.cif.g08.bks.cpg/sg131_2_cif.got.tgz:2076.got - 2010.05.20 12:21:01.
