data_PCOD9566062
_publ_section_title
;
Structure prediction by ZEFSAII (Michael W. Deem and Ramdas Pophale) SiO2 
 PCOD9566062
Probable space group: P 42/M M C
;
_chemical_formula_sum "Si O2"
_cell_formula_units_Z 80
_cell_length_a 13.955513
_cell_length_b 13.955513
_cell_length_c 27.486625
_cell_angle_alpha 90.000000
_cell_angle_beta 90.000000
_cell_angle_gamma 90.000000
_cell_volume 5353.194569
_symmetry_space_group_name_H-M "P 42/M M C"
_symmetry_group_IT_number 131
_symmetry_cell_setting 'tetragonal'
loop_
_space_group_symop_operation_xyz
x,y,z
-x,-y,z
-y,x,1/2+z
y,-x,1/2+z
-x,y,-z
x,-y,-z
y,x,1/2-z
-y,-x,1/2-z
-x,-y,-z
x,y,-z
y,-x,1/2-z
-y,x,1/2-z
x,-y,z
-x,y,z
-y,-x,1/2+z
y,x,1/2+z
loop_
_atom_site_type_symbol
_atom_site_label
_atom_site_fract_x
_atom_site_fract_y
_atom_site_fract_z
Si Si1 0.776173 0.114249 0.707007
Si Si2 0.109343 0.113550 0.893345
Si Si3 0.385636 0.768803 0.749620
Si Si4 0.614301 0.109490 0.845913
Si Si5 0.703312 0.884586 0.946900
O O1 0.841226 0.158775 0.750000
O O2 0.827578 0.131956 0.655439
O O3 0.673575 0.166615 0.711267
O O4 0.766873 0.000000 0.713350
O O5 0.185392 0.133996 0.935413
O O6 0.000000 0.133195 0.907572
O O7 0.116848 0.000000 0.881985
O O8 0.334753 0.665248 0.750000
O O9 0.500000 0.766446 0.742596
O O10 0.363090 0.821690 0.801003
O O11 0.500000 0.102961 0.847688
O O12 0.649379 0.146919 0.898095
O O13 0.651744 0.000000 0.838152
O O14 0.689505 0.000000 0.948230
O O15 0.674437 0.847142 0.000000
#
# Coordination Sequence:
#
# PCOD9566062 Si02
#       5
#    16  16  16  16  16
#     4  10  18  27  42  63  87 114 144 176 208 248
#     4   9  17  27  38  56  84 115 144 172 202 237
#     4  10  20  32  46  63  84 112 143 175 214 259
#     4   9  17  29  44  62  85 110 135 166 206 251
#     4   9  16  25  38  56  80 113 148 175 199 232
#
# _framework density 14.944347
#
# number of rings (size 3 to 8) (size 9 to 14) (size 15 to 20)
#    0.000    2.600    0.000    3.600    0.000    4.800 
#    0.000    4.000    0.000    0.000    0.000    0.000 
#    0.000   12.800    0.000   35.200    0.000    1.600 
#
# Total GULP energy -445539.743551 kJ/mol
# GULP energy per Si atom -5569.246794 kJ/mol
# Density = 1.491033 g / cm^3
# Si number density = 14.944347 Si / 1000 Ang^3
#
#
#
# Elastic Constant Matrix: (Units=GPa)
#
#
# Indices 1 2 3 4 5 6 
#
# 1 56.5527 16.7145 15.1082 0.0000 0.0000 0.0000
# 2 16.7145 56.5556 15.1081 0.0000 0.0000 0.0000
# 3 15.1082 15.1081 59.1226 0.0000 0.0000 0.0000
# 4 0.0000 0.0000 0.0000 12.0211 0.0000 0.0000
# 5 0.0000 0.0000 0.0000 0.0000 12.0209 0.0000
# 6 0.0000 0.0000 0.0000 0.0000 0.0000 18.9259
#
#
#
# Elastic Compliance Matrix: (Units=1/GPa)
#
#
# Indices 1 2 3 4 5 6 
#
# 1 0.020179 -0.004922 -0.003899 0.000000 0.000000 0.000000
# 2 -0.004922 0.020178 -0.003898 0.000000 0.000000 0.000000
# 3 -0.003899 -0.003898 0.018906 0.000000 0.000000 0.000000
# 4 0.000000 0.000000 0.000000 0.083187 0.000000 0.000000
# 5 0.000000 0.000000 0.000000 0.000000 0.083189 0.000000
# 6 0.000000 0.000000 0.000000 0.000000 0.000000 0.052838
#
#
# Mechanical properties :
#
#
# Convention : Reuss Voigt Hill
#
# Bulk Modulus (GPa) = 29.56427 29.56584 29.56505
# Shear Modulus (GPa) = 15.86345 16.94692 16.40518
#
# Velocity S-wave (km/s) = 3.26160 3.37115 3.31683
# Velocity P-wave (km/s) = 5.83180 5.91437 5.87323
#
# Compressibility (1/GPa) = 0.03382462
#
# Stress axis : x y z
#
# Youngs Moduli (GPa) = 49.55658 49.55935 52.89200
#
# Poissons Ratio (x) = 0.24394 0.20621
# Poissons Ratio (y) = 0.24393 0.20619
# Poissons Ratio (z) = 0.19321 0.19320
#
# Static dielectric constant tensor:
#      x y z
#    x 1.511340 0.000000 0.000000 
#    y 0.000000 1.511340 0.000000 
#    z 0.000000 0.000000 1.502510 
# 
# From -- ./inp_files/10930.got.cif
#   From: 2010.05.17/outbox.cif.g08.bks.cpg/sg131_6_cif.got.tgz:10930.got - 2010.05.20 12:21:01.
