data_PCOD9566851
_publ_section_title
;
Structure prediction by ZEFSAII (Michael W. Deem and Ramdas Pophale) SiO2 
 PCOD9566851
Probable space group: P 42/M M C
;
_chemical_formula_sum "Si O2"
_cell_formula_units_Z 40
_cell_length_a 11.788306
_cell_length_b 11.788306
_cell_length_c 15.536502
_cell_angle_alpha 90.000000
_cell_angle_beta 90.000000
_cell_angle_gamma 90.000000
_cell_volume 2159.016924
_symmetry_space_group_name_H-M "P 42/M M C"
_symmetry_group_IT_number 131
_symmetry_cell_setting 'tetragonal'
loop_
_space_group_symop_operation_xyz
x,y,z
-x,-y,z
-y,x,1/2+z
y,-x,1/2+z
-x,y,-z
x,-y,-z
y,x,1/2-z
-y,-x,1/2-z
-x,-y,-z
x,y,-z
y,-x,1/2-z
-y,x,1/2-z
x,-y,z
-x,y,z
-y,-x,1/2+z
y,x,1/2+z
loop_
_atom_site_type_symbol
_atom_site_label
_atom_site_fract_x
_atom_site_fract_y
_atom_site_fract_z
Si Si1 0.772910 0.259111 0.651064
Si Si2 0.865230 0.000000 0.898153
Si Si3 0.500000 0.128789 0.898045
Si Si4 0.636362 0.865216 0.500000
O O1 0.737210 0.262791 0.750000
O O2 0.888652 0.187591 0.643002
O O3 0.804235 0.386776 0.625315
O O4 0.687404 0.198297 0.584012
O O5 0.000000 0.000000 0.890259
O O6 0.835490 0.000000 0.000000
O O7 0.500000 0.000000 0.860508
O O8 0.500000 0.116782 0.000000
O O9 0.500000 0.859412 0.500000
O O10 0.669294 0.000000 0.500000
#
# Coordination Sequence:
#
# PCOD9566851 Si02
#       4
#    16   8   8   8
#     4  12  26  42  67 101 133 173 225 274 331 400
#     4  11  22  39  63  96 137 169 211 276 342 397
#     4  11  22  44  70  97 134 177 219 276 334 395
#     4  11  26  48  69  94 136 182 222 273 336 399
#
# _framework density 18.526949999999999
#
# number of rings (size 3 to 8) (size 9 to 14) (size 15 to 20)
#    0.000    0.600    6.000    1.200    8.400    0.000 
#    0.000    2.000    0.000    0.000    0.000    0.000 
#    0.000    0.000    0.000    0.000    0.000    0.000 
#
# Total GULP energy -223570.984092 kJ/mol
# GULP energy per Si atom -5589.274602 kJ/mol
# Density = 1.848478 g / cm^3
# Si number density = 18.526950 Si / 1000 Ang^3
#
#
#
# Elastic Constant Matrix: (Units=GPa)
#
#
# Indices 1 2 3 4 5 6 
#
# 1 128.0304 62.9638 66.7783 0.0000 0.0000 0.0000
# 2 62.9638 128.0301 66.7777 0.0000 0.0000 0.0000
# 3 66.7783 66.7777 148.6882 0.0000 0.0000 0.0000
# 4 0.0000 0.0000 0.0000 26.3237 0.0000 0.0000
# 5 0.0000 0.0000 0.0000 0.0000 26.3232 0.0000
# 6 0.0000 0.0000 0.0000 0.0000 0.0000 17.1938
#
#
#
# Elastic Compliance Matrix: (Units=1/GPa)
#
#
# Indices 1 2 3 4 5 6 
#
# 1 0.011501 -0.003868 -0.003428 0.000000 0.000000 0.000000
# 2 -0.003868 0.011501 -0.003428 0.000000 0.000000 0.000000
# 3 -0.003428 -0.003428 0.009805 0.000000 0.000000 0.000000
# 4 0.000000 0.000000 0.000000 0.037989 0.000000 0.000000
# 5 0.000000 0.000000 0.000000 0.000000 0.037989 0.000000
# 6 0.000000 0.000000 0.000000 0.000000 0.000000 0.058161
#
#
# Mechanical properties :
#
#
# Convention : Reuss Voigt Hill
#
# Bulk Modulus (GPa) = 88.04167 88.64316 88.34242
# Shear Modulus (GPa) = 26.01739 27.85007 26.93373
#
# Velocity S-wave (km/s) = 3.75146 3.88134 3.81696
# Velocity P-wave (km/s) = 8.14792 8.24838 8.19831
#
# Compressibility (1/GPa) = 0.01135826
#
# Stress axis : x y z
#
# Youngs Moduli (GPa) = 86.94970 86.94984 101.99253
#
# Poissons Ratio (x) = 0.33632 0.34964
# Poissons Ratio (y) = 0.33632 0.34963
# Poissons Ratio (z) = 0.29807 0.29806
#
# Static dielectric constant tensor:
#      x y z
#    x 1.332990 0.000000 0.000000 
#    y 0.000000 1.332660 0.000000 
#    z 0.000000 0.000000 1.680610 
# 
# From -- ./inp_files/5051.got.cif
#   From: 2010.05.17/outbox.cif.g08.bks.cpg/sg131_3_cif.got.tgz:5051.got - 2010.05.20 12:21:01.
