data_PCOD9566045
_publ_section_title
;
Structure prediction by ZEFSAII (Michael W. Deem and Ramdas Pophale) SiO2 
 PCOD9566045
Probable space group: P 42/M M C
;
_chemical_formula_sum "Si O2"
_cell_formula_units_Z 76
_cell_length_a 19.380249
_cell_length_b 19.380249
_cell_length_c 14.546631
_cell_angle_alpha 90.000000
_cell_angle_beta 90.000000
_cell_angle_gamma 90.000000
_cell_volume 5463.628070
_symmetry_space_group_name_H-M "P 42/M M C"
_symmetry_group_IT_number 131
_symmetry_cell_setting 'tetragonal'
loop_
_space_group_symop_operation_xyz
x,y,z
-x,-y,z
-y,x,1/2+z
y,-x,1/2+z
-x,y,-z
x,-y,-z
y,x,1/2-z
-y,-x,1/2-z
-x,-y,-z
x,y,-z
y,-x,1/2-z
-y,x,1/2-z
x,-y,z
-x,y,z
-y,-x,1/2+z
y,x,1/2+z
loop_
_atom_site_type_symbol
_atom_site_label
_atom_site_fract_x
_atom_site_fract_y
_atom_site_fract_z
Si Si1 0.220524 0.868792 0.188822
Si Si2 0.376919 0.000000 0.399164
Si Si3 0.917715 0.500000 0.294407
Si Si4 0.354890 0.081457 0.891917
Si Si5 0.150343 0.917702 0.000000
Si Si6 0.500000 0.110110 0.397997
Si Si7 0.000000 0.858202 0.000000
Si Si8 0.770312 0.000000 0.313618
O O1 0.195198 0.804803 0.250000
O O2 0.300793 0.872053 0.162499
O O3 0.181509 0.882636 0.092171
O O4 0.208165 0.933778 0.255298
O O5 0.429766 0.064162 0.395954
O O6 0.344291 0.000000 0.500000
O O7 0.313067 0.000000 0.329944
O O8 0.909540 0.431431 0.353593
O O9 0.865499 0.500000 0.207636
O O10 0.000000 0.500000 0.264925
O O11 0.335796 0.000000 0.881190
O O12 0.351844 0.096273 0.000000
O O13 0.068791 0.904177 0.000000
O O14 0.166414 0.000000 0.000000
O O15 0.500000 0.144574 0.500000
O O16 0.000000 0.809952 0.909978
#
# Coordination Sequence:
#
# PCOD9566045 Si02
#       8
#    16   8   8  16   8   8   4   8
#     4  12  23  34  52  66  89 116 153 191 247 301
#     4   9  16  26  42  60  85 113 138 171 214 265
#     4  10  17  27  46  73  97 116 151 178 226 290
#     4  10  19  32  50  71  92 120 147 193 242 288
#     4  12  23  40  50  65  79 108 149 199 258 304
#     4   9  16  25  37  62  92 117 137 161 205 262
#     4  12  25  36  50  65  78 100 152 210 242 295
#     4  12  21  34  48  65  80 108 145 192 238 286
#
# _framework density 13.910170000000001
#
# number of rings (size 3 to 8) (size 9 to 14) (size 15 to 20)
#    0.000    1.263    6.842    2.368    0.000    1.263 
#    0.000    0.000    0.000    0.000    0.000    0.000 
#    0.000    0.000    0.000    0.000    0.000    0.526 
#
# Total GULP energy -423303.151158 kJ/mol
# GULP energy per Si atom -5569.778305 kJ/mol
# Density = 1.387851 g / cm^3
# Si number density = 13.910170 Si / 1000 Ang^3
#
#
#
# Elastic Constant Matrix: (Units=GPa)
#
#
# Indices 1 2 3 4 5 6 
#
# 1 63.2891 18.5601 30.4603 0.0000 0.0000 0.0000
# 2 18.5601 63.2908 30.4607 0.0000 0.0000 0.0000
# 3 30.4603 30.4607 117.5493 0.0000 0.0000 0.0000
# 4 0.0000 0.0000 0.0000 17.7454 0.0000 0.0000
# 5 0.0000 0.0000 0.0000 0.0000 17.7448 0.0000
# 6 0.0000 0.0000 0.0000 0.0000 0.0000 5.2254
#
#
#
# Elastic Compliance Matrix: (Units=1/GPa)
#
#
# Indices 1 2 3 4 5 6 
#
# 1 0.018747 -0.003610 -0.003922 0.000000 0.000000 0.000000
# 2 -0.003610 0.018746 -0.003922 0.000000 0.000000 0.000000
# 3 -0.003922 -0.003922 0.010540 0.000000 0.000000 0.000000
# 4 0.000000 0.000000 0.000000 0.056353 0.000000 0.000000
# 5 0.000000 0.000000 0.000000 0.000000 0.056355 0.000000
# 6 0.000000 0.000000 0.000000 0.000000 0.000000 0.191374
#
#
# Mechanical properties :
#
#
# Convention : Reuss Voigt Hill
#
# Bulk Modulus (GPa) = 39.80250 44.78793 42.29521
# Shear Modulus (GPa) = 13.04127 19.11966 16.08047
#
# Velocity S-wave (km/s) = 3.06524 3.71146 3.40372
# Velocity P-wave (km/s) = 6.41901 7.11579 6.77636
#
# Compressibility (1/GPa) = 0.02512405
#
# Stress axis : x y z
#
# Youngs Moduli (GPa) = 53.34208 53.34357 94.87756
#
# Poissons Ratio (x) = 0.19256 0.37215
# Poissons Ratio (y) = 0.19255 0.37215
# Poissons Ratio (z) = 0.20923 0.20923
#
# Static dielectric constant tensor:
#      x y z
#    x 1.451150 0.000000 0.000000 
#    y 0.000000 1.451150 0.000000 
#    z 0.000000 0.000000 1.521250 
# 
# From -- ./inp_files/5819.got.cif
#   From: 2010.05.17/outbox.cif.g08.bks.cpg/sg131_3_cif.got.tgz:5819.got - 2010.05.20 12:21:01.
