data_PCOD9566660
_publ_section_title
;
Structure prediction by ZEFSAII (Michael W. Deem and Ramdas Pophale) SiO2 
 PCOD9566660
Probable space group: P 42/M M C
;
_chemical_formula_sum "Si O2"
_cell_formula_units_Z 34
_cell_length_a 14.884044
_cell_length_b 14.884044
_cell_length_c 8.523685
_cell_angle_alpha 90.000000
_cell_angle_beta 90.000000
_cell_angle_gamma 90.000000
_cell_volume 1888.292560
_symmetry_space_group_name_H-M "P 42/M M C"
_symmetry_group_IT_number 131
_symmetry_cell_setting 'tetragonal'
loop_
_space_group_symop_operation_xyz
x,y,z
-x,-y,z
-y,x,1/2+z
y,-x,1/2+z
-x,y,-z
x,-y,-z
y,x,1/2-z
-y,-x,1/2-z
-x,-y,-z
x,y,-z
y,-x,1/2-z
-y,x,1/2-z
x,-y,z
-x,y,z
-y,-x,1/2+z
y,x,1/2+z
loop_
_atom_site_type_symbol
_atom_site_label
_atom_site_fract_x
_atom_site_fract_y
_atom_site_fract_z
Si Si1 0.500000 0.307610 0.311643
Si Si2 0.186263 0.324772 0.185989
Si Si3 0.500000 0.500000 0.250000
Si Si4 0.000000 0.396224 0.312788
O O1 0.500000 0.334549 0.500000
O O2 0.411801 0.248869 0.282164
O O3 0.500000 0.394911 0.200457
O O4 0.237943 0.237943 0.250000
O O5 0.089434 0.345864 0.257453
O O6 0.177048 0.317009 0.000000
O O7 0.000000 0.500000 0.252429
O O8 0.000000 0.400133 0.500000
#
# Coordination Sequence:
#
# PCOD9566660 Si02
#       4
#     8  16   2   8
#     4  10  21  32  50  78 115 159 200 237 287 346
#     4  11  22  39  59  86 119 158 202 252 306 361
#     4  12  18  36  48  78 120 168 202 232 282 348
#     4  11  23  39  61  90 119 158 207 259 307 362
#
# _framework density 18.005685
#
# number of rings (size 3 to 8) (size 9 to 14) (size 15 to 20)
#    0.000    1.176    4.706    2.471    0.000    0.941 
#    0.000    0.000    0.000    0.706    0.000    4.941 
#    0.000    0.000    0.000    0.000    0.000    0.000 
#
# Total GULP energy -189670.242869 kJ/mol
# GULP energy per Si atom -5578.536555 kJ/mol
# Density = 1.796470 g / cm^3
# Si number density = 18.005685 Si / 1000 Ang^3
#
#
#
# Elastic Constant Matrix: (Units=GPa)
#
#
# Indices 1 2 3 4 5 6 
#
# 1 165.6561 78.9130 52.7339 0.0000 0.0000 0.0000
# 2 78.9130 165.6561 52.7339 0.0000 0.0000 0.0000
# 3 52.7339 52.7339 55.6084 0.0000 0.0000 0.0000
# 4 0.0000 0.0000 0.0000 19.0030 0.0000 0.0000
# 5 0.0000 0.0000 0.0000 0.0000 19.0030 0.0000
# 6 0.0000 0.0000 0.0000 0.0000 0.0000 22.8101
#
#
#
# Elastic Compliance Matrix: (Units=1/GPa)
#
#
# Indices 1 2 3 4 5 6 
#
# 1 0.009223 -0.002305 -0.006560 0.000000 0.000000 0.000000
# 2 -0.002305 0.009223 -0.006560 0.000000 0.000000 0.000000
# 3 -0.006560 -0.006560 0.030425 0.000000 0.000000 0.000000
# 4 0.000000 0.000000 0.000000 0.052623 0.000000 0.000000
# 5 0.000000 0.000000 0.000000 0.000000 0.052623 0.000000
# 6 0.000000 0.000000 0.000000 0.000000 0.000000 0.043840
#
#
# Mechanical properties :
#
#
# Convention : Reuss Voigt Hill
#
# Bulk Modulus (GPa) = 55.49433 83.96467 69.72950
# Shear Modulus (GPa) = 21.29327 25.66590 23.47958
#
# Velocity S-wave (km/s) = 3.44261 3.77959 3.61502
# Velocity P-wave (km/s) = 6.83296 8.11052 7.49900
#
# Compressibility (1/GPa) = 0.01801986
#
# Stress axis : x y z
#
# Youngs Moduli (GPa) = 108.42360 108.42360 32.86749
#
# Poissons Ratio (x) = 0.24994 0.21562
# Poissons Ratio (y) = 0.24994 0.21562
# Poissons Ratio (z) = 0.71129 0.71129
#
# Static dielectric constant tensor:
#      x y z
#    x 1.607290 0.000000 0.000000 
#    y 0.000000 1.607290 0.000000 
#    z 0.000000 0.000000 1.656860 
# 
# From -- ./inp_files/528.got.cif
#   From: 2010.05.17/outbox.cif.g08.bks.cpg/sg131_1_cif.got.tgz:528.got - 2010.05.20 12:21:01.
