data_PCOD9566185
_publ_section_title
;
Structure prediction by ZEFSAII (Michael W. Deem and Ramdas Pophale) SiO2 
 PCOD9566185
Probable space group: P 42/M M C
;
_chemical_formula_sum "Si O2"
_cell_formula_units_Z 80
_cell_length_a 16.660182
_cell_length_b 16.660182
_cell_length_c 14.461495
_cell_angle_alpha 90.000000
_cell_angle_beta 90.000000
_cell_angle_gamma 90.000000
_cell_volume 4013.956620
_symmetry_space_group_name_H-M "P 42/M M C"
_symmetry_group_IT_number 131
_symmetry_cell_setting 'tetragonal'
loop_
_space_group_symop_operation_xyz
x,y,z
-x,-y,z
-y,x,1/2+z
y,-x,1/2+z
-x,y,-z
x,-y,-z
y,x,1/2-z
-y,-x,1/2-z
-x,-y,-z
x,y,-z
y,-x,1/2-z
-y,x,1/2-z
x,-y,z
-x,y,z
-y,-x,1/2+z
y,x,1/2+z
loop_
_atom_site_type_symbol
_atom_site_label
_atom_site_fract_x
_atom_site_fract_y
_atom_site_fract_z
Si Si1 0.596192 0.244104 0.396133
Si Si2 0.086263 0.905369 0.887544
Si Si3 0.841617 0.408097 0.284822
Si Si4 0.904364 0.259516 0.604947
Si Si5 0.671629 0.586790 0.610954
O O1 0.626593 0.228125 0.500000
O O2 0.500000 0.245774 0.398930
O O3 0.617103 0.178320 0.320043
O O4 0.624195 0.332593 0.365885
O O5 0.173286 0.872161 0.858587
O O6 0.000000 0.869852 0.856922
O O7 0.083615 0.000000 0.862813
O O8 0.087643 0.902040 0.000000
O O9 0.874425 0.500000 0.287658
O O10 0.888955 0.337751 0.334835
O O11 0.756260 0.411204 0.337526
O O12 0.873169 0.272458 0.500000
O O13 0.000000 0.249031 0.598400
O O14 0.683818 0.588624 0.500000
O O15 0.632712 0.500000 0.632797
#
# Coordination Sequence:
#
# PCOD9566185 Si02
#       5
#    16  16  16  16  16
#     4   9  18  32  49  69  94 129 174 216 251 290
#     4   7  10  19  37  62  94 129 160 194 242 301
#     4  10  19  30  44  65  99 138 172 210 256 309
#     4   9  17  28  44  70 103 137 172 210 258 319
#     4   9  17  29  47  73 102 129 158 195 244 302
#
# _framework density 19.930458999999999
#
# number of rings (size 3 to 8) (size 9 to 14) (size 15 to 20)
#    0.000    3.200    0.000    3.000    0.000    2.000 
#    0.000    3.000    0.000    4.200    0.000    8.400 
#    0.000    4.000    0.000    5.000    0.000    4.000 
#
# Total GULP energy -445466.383330 kJ/mol
# GULP energy per Si atom -5568.329792 kJ/mol
# Density = 1.988510 g / cm^3
# Si number density = 19.930459 Si / 1000 Ang^3
#
#
#
# Elastic Constant Matrix: (Units=GPa)
#
#
# Indices 1 2 3 4 5 6 
#
# 1 66.8825 29.2588 34.9749 0.0000 0.0000 0.0000
# 2 29.2588 66.8825 34.9749 0.0000 0.0000 0.0000
# 3 34.9749 34.9749 56.4652 0.0000 0.0000 0.0000
# 4 0.0000 0.0000 0.0000 -2.1915 0.0000 0.0000
# 5 0.0000 0.0000 0.0000 0.0000 -2.1915 0.0000
# 6 0.0000 0.0000 0.0000 0.0000 0.0000 40.2225
#
#
#
# Elastic Compliance Matrix: (Units=1/GPa)
#
#
# Indices 1 2 3 4 5 6 
#
# 1 0.022757 -0.003822 -0.011728 0.000000 0.000000 0.000000
# 2 -0.003822 0.022757 -0.011728 0.000000 0.000000 0.000000
# 3 -0.011728 -0.011728 0.032239 0.000000 0.000000 0.000000
# 4 0.000000 0.000000 0.000000 -0.456316 0.000000 0.000000
# 5 0.000000 0.000000 0.000000 0.000000 -0.456316 0.000000
# 6 0.000000 0.000000 0.000000 0.000000 0.000000 0.024862
#
#
# Mechanical properties :
#
#
# Convention : Reuss Voigt Hill
#
# Bulk Modulus (GPa) = 43.11202 43.18303 43.14752
# Shear Modulus (GPa) = -6.68692 13.23602 3.27455
#
# Velocity S-wave (km/s) = -1.83369 2.57983 1.28318
# Velocity P-wave (km/s) = 4.14668 5.53063 4.88789
#
# Compressibility (1/GPa) = 0.02319539
#
# Stress axis : x y z
#
# Youngs Moduli (GPa) = 43.94313 43.94313 31.01843
#
# Poissons Ratio (x) = 0.16796 0.36379
# Poissons Ratio (y) = 0.16796 0.36379
# Poissons Ratio (z) = 0.51537 0.51537
#
# Static dielectric constant tensor:
#      x y z
#    x 1.718770 0.000000 0.000000 
#    y 0.000000 1.718770 0.000000 
#    z 0.000000 0.000000 1.779990 
# 
# From -- ./inp_files/5709.got.cif
#   From: 2010.05.17/outbox.cif.g08.bks.cpg/sg131_3_cif.got.tgz:5709.got - 2010.05.20 12:21:01.
