data_PCOD9566276
_publ_section_title
;
Structure prediction by ZEFSAII (Michael W. Deem and Ramdas Pophale) SiO2 
 PCOD9566276
Probable space group: P 42/M M C
;
_chemical_formula_sum "Si O2"
_cell_formula_units_Z 72
_cell_length_a 21.920647
_cell_length_b 21.920647
_cell_length_c 8.467845
_cell_angle_alpha 90.000000
_cell_angle_beta 90.000000
_cell_angle_gamma 90.000000
_cell_volume 4068.924549
_symmetry_space_group_name_H-M "P 42/M M C"
_symmetry_group_IT_number 131
_symmetry_cell_setting 'tetragonal'
loop_
_space_group_symop_operation_xyz
x,y,z
-x,-y,z
-y,x,1/2+z
y,-x,1/2+z
-x,y,-z
x,-y,-z
y,x,1/2-z
-y,-x,1/2-z
-x,-y,-z
x,y,-z
y,-x,1/2-z
-y,x,1/2-z
x,-y,z
-x,y,z
-y,-x,1/2+z
y,x,1/2+z
loop_
_atom_site_type_symbol
_atom_site_label
_atom_site_fract_x
_atom_site_fract_y
_atom_site_fract_z
Si Si1 0.069510 0.500000 0.192824
Si Si2 0.404379 0.500000 0.687457
Si Si3 0.262185 0.165959 0.689810
Si Si4 0.929682 0.166455 0.689589
Si Si5 0.500000 0.267190 0.309065
Si Si6 0.401747 0.832071 0.307678
O O1 0.108716 0.559164 0.241204
O O2 0.000000 0.500000 0.248196
O O3 0.068498 0.500000 0.000000
O O4 0.407631 0.500000 0.500000
O O5 0.441277 0.441277 0.750000
O O6 0.334801 0.500000 0.742549
O O7 0.223927 0.223927 0.750000
O O8 0.261329 0.166163 0.500000
O O9 0.225422 0.106730 0.748435
O O10 0.332055 0.167358 0.745800
O O11 0.891915 0.108086 0.750000
O O12 0.927515 0.166732 0.500000
O O13 0.000000 0.165631 0.740872
O O14 0.500000 0.270355 0.500000
O O15 0.559079 0.227292 0.260562
O O16 0.401052 0.832231 0.500000
#
# Coordination Sequence:
#
# PCOD9566276 Si02
#       6
#     8   8  16  16   8  16
#     4   8  13  24  43  68  98 128 160 199 242 289
#     4  11  22  37  55  77 102 131 168 207 253 303
#     4  10  19  32  50  73 100 131 167 204 244 290
#     4  10  21  36  53  74 100 130 164 203 249 298
#     4   9  17  34  54  74 105 138 169 208 251 295
#     4   8  16  29  47  72 101 133 166 203 247 291
#
# _framework density 17.695091999999999
#
# number of rings (size 3 to 8) (size 9 to 14) (size 15 to 20)
#    0.000    2.667    0.000    5.333    0.000    3.778 
#    0.000    7.778    0.000    0.000    0.000    0.000 
#    0.000    8.889    0.000    0.000    0.000    0.000 
#
# Total GULP energy -401558.591862 kJ/mol
# GULP energy per Si atom -5577.202665 kJ/mol
# Density = 1.765482 g / cm^3
# Si number density = 17.695092 Si / 1000 Ang^3
#
#
#
# Elastic Constant Matrix: (Units=GPa)
#
#
# Indices 1 2 3 4 5 6 
#
# 1 203.5384 112.3454 34.6514 0.0000 0.0000 0.0000
# 2 112.3454 203.5383 34.6505 0.0000 0.0000 0.0000
# 3 34.6514 34.6505 43.0680 0.0000 0.0000 0.0000
# 4 0.0000 0.0000 0.0000 5.8143 0.0000 0.0000
# 5 0.0000 0.0000 0.0000 0.0000 5.8158 0.0000
# 6 0.0000 0.0000 0.0000 0.0000 0.0000 4.6737
#
#
#
# Elastic Compliance Matrix: (Units=1/GPa)
#
#
# Indices 1 2 3 4 5 6 
#
# 1 0.007405 -0.003561 -0.003093 0.000000 0.000000 0.000000
# 2 -0.003561 0.007405 -0.003093 0.000000 0.000000 0.000000
# 3 -0.003093 -0.003093 0.028196 0.000000 0.000000 0.000000
# 4 0.000000 0.000000 0.000000 0.171990 0.000000 0.000000
# 5 0.000000 0.000000 0.000000 0.000000 0.171944 0.000000
# 6 0.000000 0.000000 0.000000 0.000000 0.000000 0.213963
#
#
# Mechanical properties :
#
#
# Convention : Reuss Voigt Hill
#
# Bulk Modulus (GPa) = 42.53006 90.38215 66.45610
# Shear Modulus (GPa) = 7.95881 21.16058 14.55970
#
# Velocity S-wave (km/s) = 2.12309 3.46185 2.87158
# Velocity P-wave (km/s) = 5.48609 8.19559 6.97369
#
# Compressibility (1/GPa) = 0.02351278
#
# Stress axis : x y z
#
# Youngs Moduli (GPa) = 135.04287 135.04388 35.46586
#
# Poissons Ratio (x) = 0.48086 0.10970
# Poissons Ratio (y) = 0.48085 0.10969
# Poissons Ratio (z) = 0.41770 0.41767
#
# Static dielectric constant tensor:
#      x y z
#    x 1.589600 0.000000 0.000000 
#    y 0.000000 1.589590 0.000000 
#    z 0.000000 0.000000 1.604900 
# 
# From -- ./inp_files/1902.got.cif
#   From: 2010.05.17/outbox.cif.g08.bks.cpg/sg131_1_cif.got.tgz:1902.got - 2010.05.20 12:21:01.
