data_PCOD9566934
_publ_section_title
;
Structure prediction by ZEFSAII (Michael W. Deem and Ramdas Pophale) SiO2 
 PCOD9566934
Probable space group: P 42/M C M
;
_chemical_formula_sum "Si O2"
_cell_formula_units_Z 112
_cell_length_a 14.294761
_cell_length_b 14.294761
_cell_length_c 29.658169
_cell_angle_alpha 90.000000
_cell_angle_beta 90.000000
_cell_angle_gamma 90.000000
_cell_volume 6060.355949
_symmetry_space_group_name_H-M "P 42/M C M"
_symmetry_group_IT_number 132
_symmetry_cell_setting 'tetragonal'
loop_
_space_group_symop_operation_xyz
x,y,z
-y,x,1/2+z
-x,-y,z
y,-x,1/2+z
x,-y,1/2-z
-x,y,1/2-z
y,x,-z
-y,-x,-z
-x,-y,-z
y,-x,1/2-z
x,y,-z
-y,x,1/2-z
-x,y,1/2+z
x,-y,1/2+z
-y,-x,z
y,x,z
loop_
_atom_site_type_symbol
_atom_site_label
_atom_site_fract_x
_atom_site_fract_y
_atom_site_fract_z
Si Si1 0.610283 0.094873 0.145781
Si Si2 0.241840 0.907466 0.720006
Si Si3 0.953374 0.192838 0.146662
Si Si4 0.537366 0.892780 0.451517
Si Si5 0.961550 0.805662 0.050664
Si Si6 0.411122 0.873759 0.332556
Si Si7 0.803420 0.347301 0.426441
O O1 0.716857 0.109129 0.159998
O O2 0.596965 0.120430 0.093407
O O3 0.522460 0.140381 0.171657
O O4 0.598231 0.982226 0.151030
O O5 0.169800 0.830201 0.736526
O O6 0.345079 0.867464 0.710701
O O7 0.245823 0.000000 0.750000
O O8 0.204851 0.948250 0.672005
O O9 0.901818 0.098183 0.159432
O O10 0.969887 0.196080 0.093037
O O11 0.584566 0.880784 0.500000
O O12 0.447282 0.825222 0.448396
O O13 0.500000 0.000000 0.449413
O O14 0.900637 0.900637 0.053127
O O15 0.887353 0.721543 0.058293
O O16 0.000813 0.798291 0.000000
O O17 0.367800 0.812920 0.372975
O O18 0.707966 0.292035 0.436802
#
# Coordination Sequence:
#
# PCOD9566934 Si02
#       7
#    16  16  16  16  16  16  16
#     4   9  16  31  46  66  88 123 167 204 249 300
#     4  11  22  36  54  76 101 131 165 197 234 286
#     4  11  22  35  49  66  96 134 172 214 249 282
#     4  10  16  24  40  62  89 123 161 204 250 297
#     4  10  19  29  42  63  94 133 175 212 249 296
#     4   9  16  31  49  68  91 121 157 205 251 293
#     4  10  16  26  43  66  95 124 157 201 252 301
#
# _framework density 18.480763
#
# number of rings (size 3 to 8) (size 9 to 14) (size 15 to 20)
#    0.000    2.000    5.714    1.714    0.000    4.714 
#    0.000    6.429    0.000    0.000    0.000    0.000 
#    0.000   14.286    0.000    5.143    0.000   61.714 
#
# Total GULP energy -624312.793781 kJ/mol
# GULP energy per Si atom -5574.221373 kJ/mol
# Density = 1.843870 g / cm^3
# Si number density = 18.480763 Si / 1000 Ang^3
#
#
#
# Elastic Constant Matrix: (Units=GPa)
#
#
# Indices 1 2 3 4 5 6 
#
# 1 38.3112 23.6457 10.5999 0.0000 0.0000 0.0000
# 2 23.6457 38.3112 10.5999 0.0000 0.0000 0.0000
# 3 10.5999 10.5999 55.7979 0.0000 0.0000 0.0000
# 4 0.0000 0.0000 0.0000 3.3140 0.0000 0.0000
# 5 0.0000 0.0000 0.0000 0.0000 3.3140 0.0000
# 6 0.0000 0.0000 0.0000 0.0000 0.0000 19.9178
#
#
#
# Elastic Compliance Matrix: (Units=1/GPa)
#
#
# Indices 1 2 3 4 5 6 
#
# 1 0.042725 -0.025463 -0.003279 0.000000 0.000000 0.000000
# 2 -0.025463 0.042725 -0.003279 0.000000 0.000000 0.000000
# 3 -0.003279 -0.003279 0.019168 0.000000 0.000000 0.000000
# 4 0.000000 0.000000 0.000000 0.301748 0.000000 0.000000
# 5 0.000000 0.000000 0.000000 0.000000 0.301748 0.000000
# 6 0.000000 0.000000 0.000000 0.000000 0.000000 0.050206
#
#
# Mechanical properties :
#
#
# Convention : Reuss Voigt Hill
#
# Bulk Modulus (GPa) = 24.64564 24.67905 24.66234
# Shear Modulus (GPa) = 5.98167 11.14748 8.56457
#
# Velocity S-wave (km/s) = 1.80103 2.45866 2.15508
# Velocity P-wave (km/s) = 4.20592 4.63065 4.42339
#
# Compressibility (1/GPa) = 0.04057513
#
# Stress axis : x y z
#
# Youngs Moduli (GPa) = 23.40556 23.40556 52.17091
#
# Poissons Ratio (x) = 0.59597 0.17109
# Poissons Ratio (y) = 0.59597 0.17109
# Poissons Ratio (z) = 0.07675 0.07675
#
# Static dielectric constant tensor:
#      x y z
#    x 1.646610 0.000000 0.000000 
#    y 0.000000 1.646610 0.000000 
#    z 0.000000 0.000000 1.713000 
# 
# From -- ./inp_files/11050.got.cif
#   From: 2010.05.17/outbox.cif.g08.bks.cpg/sg132_6_cif.got.tgz:11050.got - 2010.05.20 12:30:18.
