data_PCOD9566034
_publ_section_title
;
Structure prediction by ZEFSAII (Michael W. Deem and Ramdas Pophale) SiO2 
 PCOD9566034
Probable space group: P 42/M M C
;
_chemical_formula_sum "Si O2"
_cell_formula_units_Z 72
_cell_length_a 12.152941
_cell_length_b 12.152941
_cell_length_c 30.741074
_cell_angle_alpha 90.000000
_cell_angle_beta 90.000000
_cell_angle_gamma 90.000000
_cell_volume 4540.271413
_symmetry_space_group_name_H-M "P 42/M M C"
_symmetry_group_IT_number 131
_symmetry_cell_setting 'tetragonal'
loop_
_space_group_symop_operation_xyz
x,y,z
-x,-y,z
-y,x,1/2+z
y,-x,1/2+z
-x,y,-z
x,-y,-z
y,x,1/2-z
-y,-x,1/2-z
-x,-y,-z
x,y,-z
y,-x,1/2-z
-y,x,1/2-z
x,-y,z
-x,y,z
-y,-x,1/2+z
y,x,1/2+z
loop_
_atom_site_type_symbol
_atom_site_label
_atom_site_fract_x
_atom_site_fract_y
_atom_site_fract_z
Si Si1 0.000000 0.730205 0.310493
Si Si2 0.246649 0.779261 0.700376
Si Si3 0.367528 0.000000 0.906741
Si Si4 0.367746 0.628740 0.131089
Si Si5 0.228881 0.366344 0.450663
Si Si6 0.000000 0.371089 0.783902
O O1 0.884355 0.794331 0.306763
O O2 0.000000 0.650068 0.268429
O O3 0.000000 0.670625 0.356922
O O4 0.261195 0.738806 0.750000
O O5 0.296850 0.692260 0.666868
O O6 0.312145 0.892674 0.697160
O O7 0.330848 0.110785 0.931348
O O8 0.500000 0.000000 0.907107
O O9 0.339811 0.500000 0.135619
O O10 0.500000 0.639627 0.135644
O O11 0.336605 0.676700 0.083737
O O12 0.245321 0.327445 0.500000
O O13 0.226659 0.500000 0.452053
O O14 0.000000 0.500000 0.792552
#
# Coordination Sequence:
#
# PCOD9566034 Si02
#       6
#     8  16   8  16  16   8
#     4  10  19  32  52  75  99 129 166 212 258 296
#     4  10  21  35  52  74  99 131 170 212 256 302
#     4  10  16  26  47  72 101 132 166 205 250 305
#     4  10  20  32  47  70 102 138 172 207 251 306
#     4   9  17  28  44  69 100 134 170 208 252 302
#     4  10  21  35  52  74 102 136 171 206 246 299
#
# _framework density 15.858083000000001
#
# number of rings (size 3 to 8) (size 9 to 14) (size 15 to 20)
#    0.000    2.222    2.222    1.333    0.000    6.667 
#    0.000    5.556    0.000    0.000    0.000    0.778 
#    0.000    4.444    0.000    0.000    0.000    0.000 
#
# Total GULP energy -401235.121075 kJ/mol
# GULP energy per Si atom -5572.710015 kJ/mol
# Density = 1.582199 g / cm^3
# Si number density = 15.858083 Si / 1000 Ang^3
#
#
#
# Elastic Constant Matrix: (Units=GPa)
#
#
# Indices 1 2 3 4 5 6 
#
# 1 85.3554 45.0562 34.4365 0.0000 0.0000 0.0000
# 2 45.0562 85.3559 34.4366 0.0000 0.0000 0.0000
# 3 34.4365 34.4366 107.8910 0.0000 0.0000 0.0000
# 4 0.0000 0.0000 0.0000 17.1320 0.0000 0.0000
# 5 0.0000 0.0000 0.0000 0.0000 17.1321 0.0000
# 6 0.0000 0.0000 0.0000 0.0000 0.0000 17.4267
#
#
#
# Elastic Compliance Matrix: (Units=1/GPa)
#
#
# Indices 1 2 3 4 5 6 
#
# 1 0.017018 -0.007796 -0.002944 0.000000 0.000000 0.000000
# 2 -0.007796 0.017018 -0.002944 0.000000 0.000000 0.000000
# 3 -0.002944 -0.002944 0.011148 0.000000 0.000000 0.000000
# 4 0.000000 0.000000 0.000000 0.058370 0.000000 0.000000
# 5 0.000000 0.000000 0.000000 0.000000 0.058370 0.000000
# 6 0.000000 0.000000 0.000000 0.000000 0.000000 0.057383
#
#
# Mechanical properties :
#
#
# Convention : Reuss Voigt Hill
#
# Bulk Modulus (GPa) = 56.12206 56.27343 56.19774
# Shear Modulus (GPa) = 19.79310 21.31639 20.55474
#
# Velocity S-wave (km/s) = 3.53673 3.67031 3.60414
# Velocity P-wave (km/s) = 7.22115 7.31602 7.26874
#
# Compressibility (1/GPa) = 0.01781831
#
# Stress axis : x y z
#
# Youngs Moduli (GPa) = 58.75964 58.75999 89.70437
#
# Poissons Ratio (x) = 0.45808 0.26406
# Poissons Ratio (y) = 0.45808 0.26406
# Poissons Ratio (z) = 0.17297 0.17297
#
# Static dielectric constant tensor:
#      x y z
#    x 1.524680 0.000000 0.000000 
#    y 0.000000 1.524680 0.000000 
#    z 0.000000 0.000000 1.527790 
# 
# From -- ./inp_files/12149.got.cif
#   From: 2010.05.17/outbox.cif.g08.bks.cpg/sg131_7_cif.got.tgz:12149.got - 2010.05.20 12:21:01.
