data_PCOD9566000
_publ_section_title
;
Structure prediction by ZEFSAII (Michael W. Deem and Ramdas Pophale) SiO2 
 PCOD9566000
Probable space group: P 4/N C C
;
_chemical_formula_sum "Si O2"
_cell_formula_units_Z 80
_cell_length_a 10.341831
_cell_length_b 10.341831
_cell_length_c 37.287160
_cell_angle_alpha 90.000000
_cell_angle_beta 90.000000
_cell_angle_gamma 90.000000
_cell_volume 3987.991090
_symmetry_space_group_name_H-M "P 4/N C C"
_symmetry_group_IT_number 130
_symmetry_cell_setting 'tetragonal'
loop_
_space_group_symop_operation_xyz
x,y,z
1/2-y,x,z
1/2-x,1/2-y,z
y,1/2-x,z
1/2+x,-y,1/2-z
-x,1/2+y,1/2-z
1/2+y,1/2+x,1/2-z
-y,-x,1/2-z
-x,-y,-z
1/2+y,-x,-z
1/2+x,1/2+y,-z
-y,1/2+x,-z
1/2-x,y,1/2+z
x,1/2-y,1/2+z
1/2-y,1/2-x,1/2+z
y,x,1/2+z
loop_
_atom_site_type_symbol
_atom_site_label
_atom_site_fract_x
_atom_site_fract_y
_atom_site_fract_z
Si Si1 0.574884 0.628380 0.896247
Si Si2 0.653789 0.348948 0.150594
Si Si3 0.894967 0.907716 0.481743
Si Si4 0.531568 0.744339 0.788360
Si Si5 0.466389 0.250460 0.291554
O O1 0.717785 0.577659 0.887027
O O2 0.450106 0.580932 0.874836
O O3 0.568491 0.604317 0.938759
O O4 0.750000 0.250000 0.130787
O O5 0.572840 0.272631 0.181048
O O6 0.739378 0.445373 0.174059
O O7 0.742626 0.926756 0.490704
O O8 0.000000 0.000000 0.500000
O O9 0.629416 0.622100 0.791765
O O10 0.473791 0.746870 0.748267
O O11 0.373895 0.375434 0.292680
#
# Coordination Sequence:
#
# PCOD9566000 Si02
#       5
#    16  16  16  16  16
#     4   9  20  41  64  84 118 158 193 237 292 355
#     4  12  24  33  53  87 112 145 196 249 297 359
#     4   9  19  40  67  99 130 166 207 253 305 366
#     4   9  19  37  58  75  98 144 203 255 309 360
#     4   9  21  39  53  70 106 153 195 248 314 364
#
# _framework density 20.060227000000001
#
# number of rings (size 3 to 8) (size 9 to 14) (size 15 to 20)
#    0.000    2.400    0.000    4.200    5.600    3.600 
#    7.200    0.000    0.000    2.400    0.000    0.000 
#    0.000    0.000    0.000    0.000    0.000    0.000 
#
# Total GULP energy -446442.249399 kJ/mol
# GULP energy per Si atom -5580.528117 kJ/mol
# Density = 2.001457 g / cm^3
# Si number density = 20.060227 Si / 1000 Ang^3
#
#
#
# Elastic Constant Matrix: (Units=GPa)
#
#
# Indices 1 2 3 4 5 6 
#
# 1 69.3753 32.9863 29.9343 0.0000 0.0000 0.0000
# 2 32.9863 69.3753 29.9343 0.0000 0.0000 0.0000
# 3 29.9343 29.9343 53.6338 0.0000 0.0000 0.0000
# 4 0.0000 0.0000 0.0000 22.8071 0.0000 0.0000
# 5 0.0000 0.0000 0.0000 0.0000 22.8071 0.0000
# 6 0.0000 0.0000 0.0000 0.0000 0.0000 32.0904
#
#
#
# Elastic Compliance Matrix: (Units=1/GPa)
#
#
# Indices 1 2 3 4 5 6 
#
# 1 0.020992 -0.006489 -0.008095 0.000000 0.000000 0.000000
# 2 -0.006489 0.020992 -0.008095 0.000000 0.000000 0.000000
# 3 -0.008095 -0.008095 0.027681 0.000000 0.000000 0.000000
# 4 0.000000 0.000000 0.000000 0.043846 0.000000 0.000000
# 5 0.000000 0.000000 0.000000 0.000000 0.043846 0.000000
# 6 0.000000 0.000000 0.000000 0.000000 0.000000 0.031162
#
#
# Mechanical properties :
#
#
# Convention : Reuss Voigt Hill
#
# Bulk Modulus (GPa) = 41.13733 42.01047 41.57390
# Shear Modulus (GPa) = 20.66294 22.17621 21.41957
#
# Velocity S-wave (km/s) = 3.21291 3.32849 3.27121
# Velocity P-wave (km/s) = 5.85792 5.97992 5.91923
#
# Compressibility (1/GPa) = 0.02430882
#
# Stress axis : x y z
#
# Youngs Moduli (GPa) = 47.63643 47.63643 36.12603
#
# Poissons Ratio (x) = 0.30909 0.29244
# Poissons Ratio (y) = 0.30909 0.29244
# Poissons Ratio (z) = 0.38561 0.38561
#
# Static dielectric constant tensor:
#      x y z
#    x 1.735690 0.000000 0.000000 
#    y 0.000000 1.735690 0.000000 
#    z 0.000000 0.000000 1.697850 
# 
# From -- ./inp_files/4791.got.cif
#   From: 2010.05.17/outbox.cif.g08.bks.cpg/sg130_3_cif.got.tgz:4791.got - 2010.05.20 12:17:35.
