data_PCOD9566149
_publ_section_title
;
Structure prediction by ZEFSAII (Michael W. Deem and Ramdas Pophale) SiO2 
 PCOD9566149
Probable space group: P 42/M M C
;
_chemical_formula_sum "Si O2"
_cell_formula_units_Z 96
_cell_length_a 23.866366
_cell_length_b 23.866366
_cell_length_c 9.737503
_cell_angle_alpha 90.000000
_cell_angle_beta 90.000000
_cell_angle_gamma 90.000000
_cell_volume 5546.515070
_symmetry_space_group_name_H-M "P 42/M M C"
_symmetry_group_IT_number 131
_symmetry_cell_setting 'tetragonal'
loop_
_space_group_symop_operation_xyz
x,y,z
-x,-y,z
-y,x,1/2+z
y,-x,1/2+z
-x,y,-z
x,-y,-z
y,x,1/2-z
-y,-x,1/2-z
-x,-y,-z
x,y,-z
y,-x,1/2-z
-y,x,1/2-z
x,-y,z
-x,y,z
-y,-x,1/2+z
y,x,1/2+z
loop_
_atom_site_type_symbol
_atom_site_label
_atom_site_fract_x
_atom_site_fract_y
_atom_site_fract_z
Si Si1 0.932411 0.357833 0.345209
Si Si2 0.767367 0.067302 0.226123
Si Si3 0.641067 0.567396 0.159919
Si Si4 0.432928 0.142512 0.662071
Si Si5 0.567971 0.252190 0.840717
Si Si6 0.932117 0.175161 0.000000
Si Si7 0.065934 0.861098 0.500000
O O1 0.915784 0.375474 0.500000
O O2 0.912680 0.293549 0.321555
O O3 0.907579 0.397960 0.229456
O O4 0.000000 0.358688 0.339954
O O5 0.789177 0.088140 0.370799
O O6 0.761032 0.000000 0.234288
O O7 0.819327 0.076408 0.125924
O O8 0.589494 0.589494 0.250000
O O9 0.641460 0.500000 0.156652
O O10 0.695357 0.586388 0.247400
O O11 0.640658 0.586395 0.000000
O O12 0.420761 0.150653 0.500000
O O13 0.500000 0.133296 0.673780
O O14 0.418190 0.196375 0.755347
O O15 0.500000 0.254650 0.846542
O O16 0.587586 0.252867 0.000000
O O17 0.909603 0.111806 0.000000
O O18 0.000000 0.173072 0.000000
O O19 0.000000 0.878614 0.500000
#
# Coordination Sequence:
#
# PCOD9566149 Si02
#       7
#    16  16  16  16  16   8   8
#     4  10  20  35  55  77 103 140 181 217 257 309
#     4   9  18  33  51  74 102 137 180 217 254 307
#     4  10  20  33  51  76 106 140 178 221 267 315
#     4  10  21  35  53  81 112 138 167 211 266 316
#     4   9  17  32  54  77 102 136 177 213 252 310
#     4  10  20  31  50  80 107 135 173 219 269 319
#     4  10  18  33  54  74 105 141 173 215 265 317
#
# _framework density 17.308164999999999
#
# number of rings (size 3 to 8) (size 9 to 14) (size 15 to 20)
#    0.000    2.333    0.833    2.000    1.167    5.000 
#    0.000    2.500    0.000    5.000    0.000    0.000 
#    0.000    0.000    0.000    0.000    0.000    0.000 
#
# Total GULP energy -534605.616582 kJ/mol
# GULP energy per Si atom -5568.808506 kJ/mol
# Density = 1.726877 g / cm^3
# Si number density = 17.308165 Si / 1000 Ang^3
#
#
#
# Elastic Constant Matrix: (Units=GPa)
#
#
# Indices 1 2 3 4 5 6 
#
# 1 37.9069 16.2217 33.2680 0.0000 0.0000 0.0000
# 2 16.2217 37.9069 33.2680 0.0000 0.0000 0.0000
# 3 33.2680 33.2680 167.2338 0.0000 0.0000 0.0000
# 4 0.0000 0.0000 0.0000 -4.5908 0.0000 0.0000
# 5 0.0000 0.0000 0.0000 0.0000 -4.5908 0.0000
# 6 0.0000 0.0000 0.0000 0.0000 0.0000 -8.2175
#
#
#
# Elastic Compliance Matrix: (Units=1/GPa)
#
#
# Indices 1 2 3 4 5 6 
#
# 1 0.035284 -0.010830 -0.004865 0.000000 0.000000 0.000000
# 2 -0.010830 0.035284 -0.004865 0.000000 0.000000 0.000000
# 3 -0.004865 -0.004865 0.007915 0.000000 0.000000 0.000000
# 4 0.000000 0.000000 0.000000 -0.217825 0.000000 0.000000
# 5 0.000000 0.000000 0.000000 0.000000 -0.217825 0.000000
# 6 0.000000 0.000000 0.000000 0.000000 0.000000 -0.121691
#
#
# Mechanical properties :
#
#
# Convention : Reuss Voigt Hill
#
# Bulk Modulus (GPa) = 26.76309 45.39590 36.07950
# Shear Modulus (GPa) = -11.75685 7.20615 -2.27535
#
# Velocity S-wave (km/s) = -2.60910 2.04266 -1.14781
# Velocity P-wave (km/s) = 2.53372 5.64343 4.37424
#
# Compressibility (1/GPa) = 0.03736489
#
# Stress axis : x y z
#
# Youngs Moduli (GPa) = 28.34114 28.34114 126.34005
#
# Poissons Ratio (x) = 0.30694 0.61461
# Poissons Ratio (y) = 0.30694 0.61461
# Poissons Ratio (z) = 0.13787 0.13787
#
# Static dielectric constant tensor:
#      x y z
#    x 1.586240 0.000000 0.000000 
#    y 0.000000 1.586240 0.000000 
#    z 0.000000 0.000000 2.371970 
# 
# From -- ./inp_files/2308.got.cif
#   From: 2010.05.17/outbox.cif.g08.bks.cpg/sg131_2_cif.got.tgz:2308.got - 2010.05.20 12:21:01.
