data_PCOD9566084
_publ_section_title
;
Structure prediction by ZEFSAII (Michael W. Deem and Ramdas Pophale) SiO2 
 PCOD9566084
Probable space group: P 42/M M C
;
_chemical_formula_sum "Si O2"
_cell_formula_units_Z 96
_cell_length_a 23.286532
_cell_length_b 23.286532
_cell_length_c 10.814797
_cell_angle_alpha 90.000000
_cell_angle_beta 90.000000
_cell_angle_gamma 90.000000
_cell_volume 5864.459643
_symmetry_space_group_name_H-M "P 42/M M C"
_symmetry_group_IT_number 131
_symmetry_cell_setting 'tetragonal'
loop_
_space_group_symop_operation_xyz
x,y,z
-x,-y,z
-y,x,1/2+z
y,-x,1/2+z
-x,y,-z
x,-y,-z
y,x,1/2-z
-y,-x,1/2-z
-x,-y,-z
x,y,-z
y,-x,1/2-z
-y,x,1/2-z
x,-y,z
-x,y,z
-y,-x,1/2+z
y,x,1/2+z
loop_
_atom_site_type_symbol
_atom_site_label
_atom_site_fract_x
_atom_site_fract_y
_atom_site_fract_z
Si Si1 0.284131 0.935440 0.267799
Si Si2 0.674569 0.737892 0.358769
Si Si3 0.433724 0.153645 0.000000
Si Si4 0.930691 0.327273 0.500000
Si Si5 0.830329 0.778046 0.134401
Si Si6 0.585076 0.063036 0.354361
Si Si7 0.192393 0.435715 0.769320
O O1 0.294326 0.914975 0.126229
O O2 0.245891 0.893620 0.347044
O O3 0.347074 0.936371 0.328532
O O4 0.261713 0.000000 0.263446
O O5 0.693419 0.693419 0.250000
O O6 0.673970 0.714317 0.500000
O O7 0.723590 0.787295 0.356818
O O8 0.614618 0.770883 0.331946
O O9 0.387962 0.102122 0.000000
O O10 0.425364 0.191343 0.877680
O O11 0.500000 0.132855 0.000000
O O12 0.000000 0.335594 0.500000
O O13 0.817550 0.817550 0.250000
O O14 0.821762 0.804876 0.000000
O O15 0.573112 0.063450 0.500000
O O16 0.564812 0.124170 0.302616
O O17 0.565073 0.000000 0.305236
O O18 0.213817 0.500000 0.797762
#
# Coordination Sequence:
#
# PCOD9566084 Si02
#       7
#    16  16   8   8  16  16  16
#     4  10  19  31  49  69  94 128 167 208 252 298
#     4  10  21  36  54  75  99 131 168 209 257 305
#     4  10  20  31  46  68  96 132 167 207 251 293
#     4  10  18  29  46  66  90 128 171 211 249 290
#     4  10  20  33  50  72  97 126 163 206 252 303
#     4  10  19  31  47  66  94 132 173 215 252 291
#     4  11  22  35  52  73 101 133 172 216 259 303
#
# _framework density 16.369795
#
# number of rings (size 3 to 8) (size 9 to 14) (size 15 to 20)
#    0.000    1.833    3.333    1.000    2.333    2.833 
#    0.000    2.500    0.000    0.000    0.000    0.000 
#    0.000    0.667    0.000    3.000    0.000    0.000 
#
# Total GULP energy -535152.580320 kJ/mol
# GULP energy per Si atom -5574.506045 kJ/mol
# Density = 1.633254 g / cm^3
# Si number density = 16.369795 Si / 1000 Ang^3
#
#
#
# Elastic Constant Matrix: (Units=GPa)
#
#
# Indices 1 2 3 4 5 6 
#
# 1 47.3818 22.7078 31.1483 0.0000 0.0000 0.0000
# 2 22.7078 47.3818 31.1483 0.0000 0.0000 0.0000
# 3 31.1483 31.1483 112.8902 0.0000 0.0000 0.0000
# 4 0.0000 0.0000 0.0000 29.3772 0.0000 0.0000
# 5 0.0000 0.0000 0.0000 0.0000 29.3772 0.0000
# 6 0.0000 0.0000 0.0000 0.0000 0.0000 7.0733
#
#
#
# Elastic Compliance Matrix: (Units=1/GPa)
#
#
# Indices 1 2 3 4 5 6 
#
# 1 0.029716 -0.010813 -0.005216 0.000000 0.000000 0.000000
# 2 -0.010813 0.029716 -0.005216 0.000000 0.000000 0.000000
# 3 -0.005216 -0.005216 0.011736 0.000000 0.000000 0.000000
# 4 0.000000 0.000000 0.000000 0.034040 0.000000 0.000000
# 5 0.000000 0.000000 0.000000 0.000000 0.034040 0.000000
# 6 0.000000 0.000000 0.000000 0.000000 0.000000 0.141377
#
#
# Mechanical properties :
#
#
# Convention : Reuss Voigt Hill
#
# Bulk Modulus (GPa) = 34.86748 41.96247 38.41498
# Shear Modulus (GPa) = 15.02977 21.34216 18.18596
#
# Velocity S-wave (km/s) = 3.03337 3.61467 3.33670
# Velocity P-wave (km/s) = 5.79781 6.56588 6.19376
#
# Compressibility (1/GPa) = 0.02868002
#
# Stress axis : x y z
#
# Youngs Moduli (GPa) = 33.65201 33.65201 85.20518
#
# Poissons Ratio (x) = 0.36387 0.44441
# Poissons Ratio (y) = 0.36387 0.44441
# Poissons Ratio (z) = 0.17552 0.17552
#
# Static dielectric constant tensor:
#      x y z
#    x 1.542030 0.000000 0.000000 
#    y 0.000000 1.542030 0.000000 
#    z 0.000000 0.000000 1.617320 
# 
# From -- ./inp_files/4329.got.cif
#   From: 2010.05.17/outbox.cif.g08.bks.cpg/sg131_3_cif.got.tgz:4329.got - 2010.05.20 12:21:01.
