data_PCOD9566525
_publ_section_title
;
Structure prediction by ZEFSAII (Michael W. Deem and Ramdas Pophale) SiO2 
 PCOD9566525
Probable space group: P 42/M M C
;
_chemical_formula_sum "Si O2"
_cell_formula_units_Z 112
_cell_length_a 14.393549
_cell_length_b 14.393549
_cell_length_c 31.374270
_cell_angle_alpha 90.000000
_cell_angle_beta 90.000000
_cell_angle_gamma 90.000000
_cell_volume 6499.940945
_symmetry_space_group_name_H-M "P 42/M M C"
_symmetry_group_IT_number 131
_symmetry_cell_setting 'tetragonal'
loop_
_space_group_symop_operation_xyz
x,y,z
-x,-y,z
-y,x,1/2+z
y,-x,1/2+z
-x,y,-z
x,-y,-z
y,x,1/2-z
-y,-x,1/2-z
-x,-y,-z
x,y,-z
y,-x,1/2-z
-y,x,1/2-z
x,-y,z
-x,y,z
-y,-x,1/2+z
y,x,1/2+z
loop_
_atom_site_type_symbol
_atom_site_label
_atom_site_fract_x
_atom_site_fract_y
_atom_site_fract_z
Si Si1 0.609129 0.606081 0.666561
Si Si2 0.733987 0.107876 0.949841
Si Si3 0.110294 0.252411 0.951334
Si Si4 0.210899 0.612122 0.211452
Si Si5 0.211994 0.389848 0.382647
Si Si6 0.608160 0.888181 0.375895
Si Si7 0.107740 0.613217 0.704130
O O1 0.626833 0.500000 0.681043
O O2 0.500000 0.614291 0.655543
O O3 0.630936 0.681081 0.702718
O O4 0.678961 0.624538 0.627542
O O5 0.833536 0.157503 0.944807
O O6 0.664097 0.168741 0.921908
O O7 0.733776 0.000000 0.936731
O O8 0.710060 0.111636 0.000000
O O9 0.137990 0.327725 0.915828
O O10 0.000000 0.237795 0.947779
O O11 0.129450 0.284526 0.000000
O O12 0.201775 0.500000 0.213147
O O13 0.157689 0.641069 0.168237
O O14 0.163048 0.647683 0.254289
O O15 0.197570 0.500000 0.388197
O O16 0.158195 0.359756 0.339570
O O17 0.500000 0.861769 0.382798
O O18 0.610933 0.000000 0.371438
O O19 0.109188 0.500000 0.704891
O O20 0.000000 0.641611 0.705122
#
# Coordination Sequence:
#
# PCOD9566525 Si02
#       7
#    16  16  16  16  16  16  16
#     4   9  18  32  49  70  99 134 169 202 237 285
#     4  10  21  36  54  75  96 119 153 200 251 302
#     4   9  18  32  49  70  97 128 161 197 239 290
#     4   9  16  27  44  66  94 129 166 201 237 276
#     4  10  20  34  52  73  98 128 160 198 247 298
#     4   9  16  26  44  71 101 132 164 199 239 283
#     4   9  17  29  45  66  93 125 161 200 242 286
#
# _framework density 17.230927000000001
#
# number of rings (size 3 to 8) (size 9 to 14) (size 15 to 20)
#    0.000    2.714    0.000    1.714    0.000    4.000 
#    0.000    5.714    0.000    7.286    0.000    2.000 
#    0.000    0.000    0.000    4.714    0.000    0.286 
#
# Total GULP energy -624390.716168 kJ/mol
# GULP energy per Si atom -5574.917109 kJ/mol
# Density = 1.719171 g / cm^3
# Si number density = 17.230927 Si / 1000 Ang^3
#
#
#
# Elastic Constant Matrix: (Units=GPa)
#
#
# Indices 1 2 3 4 5 6 
#
# 1 68.4080 31.1119 38.9226 0.0000 0.0000 0.0000
# 2 31.1119 68.4080 38.9226 0.0000 0.0000 0.0000
# 3 38.9226 38.9226 76.5482 0.0000 0.0000 0.0000
# 4 0.0000 0.0000 0.0000 20.6522 0.0000 0.0000
# 5 0.0000 0.0000 0.0000 0.0000 20.6522 0.0000
# 6 0.0000 0.0000 0.0000 0.0000 0.0000 18.0790
#
#
#
# Elastic Compliance Matrix: (Units=1/GPa)
#
#
# Indices 1 2 3 4 5 6 
#
# 1 0.021748 -0.005064 -0.008483 0.000000 0.000000 0.000000
# 2 -0.005064 0.021748 -0.008483 0.000000 0.000000 0.000000
# 3 -0.008483 -0.008483 0.021691 0.000000 0.000000 0.000000
# 4 0.000000 0.000000 0.000000 0.048421 0.000000 0.000000
# 5 0.000000 0.000000 0.000000 0.000000 0.048421 0.000000
# 6 0.000000 0.000000 0.000000 0.000000 0.000000 0.055313
#
#
# Mechanical properties :
#
#
# Convention : Reuss Voigt Hill
#
# Bulk Modulus (GPa) = 47.33650 47.91984 47.62817
# Shear Modulus (GPa) = 18.62574 18.83714 18.73144
#
# Velocity S-wave (km/s) = 3.29134 3.30997 3.30067
# Velocity P-wave (km/s) = 6.47884 6.51756 6.49823
#
# Compressibility (1/GPa) = 0.02112535
#
# Stress axis : x y z
#
# Youngs Moduli (GPa) = 45.98072 45.98072 46.10254
#
# Poissons Ratio (x) = 0.23286 0.39110
# Poissons Ratio (y) = 0.23286 0.39110
# Poissons Ratio (z) = 0.39007 0.39007
#
# Static dielectric constant tensor:
#      x y z
#    x 1.594680 0.000000 0.000000 
#    y 0.000000 1.594680 0.000000 
#    z 0.000000 0.000000 1.577050 
# 
# From -- ./inp_files/12427.got.cif
#   From: 2010.05.17/outbox.cif.g08.bks.cpg/sg131_7_cif.got.tgz:12427.got - 2010.05.20 12:21:01.
