data_PCOD9566468
_publ_section_title
;
Structure prediction by ZEFSAII (Michael W. Deem and Ramdas Pophale) SiO2 
 PCOD9566468
Probable space group: P 42/M M C
;
_chemical_formula_sum "Si O2"
_cell_formula_units_Z 56
_cell_length_a 20.188526
_cell_length_b 20.188526
_cell_length_c 8.107192
_cell_angle_alpha 90.000000
_cell_angle_beta 90.000000
_cell_angle_gamma 90.000000
_cell_volume 3304.301605
_symmetry_space_group_name_H-M "P 42/M M C"
_symmetry_group_IT_number 131
_symmetry_cell_setting 'tetragonal'
loop_
_space_group_symop_operation_xyz
x,y,z
-x,-y,z
-y,x,1/2+z
y,-x,1/2+z
-x,y,-z
x,-y,-z
y,x,1/2-z
-y,-x,1/2-z
-x,-y,-z
x,y,-z
y,-x,1/2-z
-y,x,1/2-z
x,-y,z
-x,y,z
-y,-x,1/2+z
y,x,1/2+z
loop_
_atom_site_type_symbol
_atom_site_label
_atom_site_fract_x
_atom_site_fract_y
_atom_site_fract_z
Si Si1 0.000000 0.580107 0.313403
Si Si2 0.711102 0.816749 0.303631
Si Si3 0.425359 0.143004 0.801318
Si Si4 0.183505 0.076200 0.300503
O O1 0.070159 0.594883 0.232491
O O2 0.000000 0.500000 0.327406
O O3 0.000000 0.607959 0.500000
O O4 0.754626 0.754626 0.250000
O O5 0.709591 0.820551 0.500000
O O6 0.636280 0.811803 0.241212
O O7 0.752383 0.881500 0.242133
O O8 0.500000 0.160075 0.744731
O O9 0.429016 0.136782 0.000000
O O10 0.119083 0.119083 0.250000
O O11 0.185230 0.074940 0.500000
O O12 0.182832 0.000000 0.242193
#
# Coordination Sequence:
#
# PCOD9566468 Si02
#       4
#     8  16  16  16
#     4   7  12  24  41  63  91 121 150 181 220 269
#     4  10  20  33  49  67  93 125 158 195 236 283
#     4   9  17  30  48  70  96 124 155 190 229 276
#     4   9  19  34  48  64  87 115 151 196 244 289
#
# _framework density 16.947606
#
# number of rings (size 3 to 8) (size 9 to 14) (size 15 to 20)
#    0.000    3.000    0.000    2.571    2.000    2.571 
#    0.000    1.429    0.000    2.571    0.000    0.000 
#    0.000    0.571    0.000    6.000    0.000    2.571 
#
# Total GULP energy -311780.617043 kJ/mol
# GULP energy per Si atom -5567.511019 kJ/mol
# Density = 1.690903 g / cm^3
# Si number density = 16.947606 Si / 1000 Ang^3
#
#
#
# Elastic Constant Matrix: (Units=GPa)
#
#
# Indices 1 2 3 4 5 6 
#
# 1 73.0824 107.9503 11.9087 0.0000 0.0000 0.0000
# 2 107.9503 73.0824 11.9087 0.0000 0.0000 0.0000
# 3 11.9087 11.9087 16.6755 0.0000 0.0000 0.0000
# 4 0.0000 0.0000 0.0000 13.9137 0.0000 0.0000
# 5 0.0000 0.0000 0.0000 0.0000 13.9137 0.0000
# 6 0.0000 0.0000 0.0000 0.0000 0.0000 12.7920
#
#
#
# Elastic Compliance Matrix: (Units=1/GPa)
#
#
# Indices 1 2 3 4 5 6 
#
# 1 -0.011292 0.017388 -0.004354 0.000000 0.000000 0.000000
# 2 0.017388 -0.011292 -0.004354 0.000000 0.000000 0.000000
# 3 -0.004354 -0.004354 0.066187 0.000000 0.000000 0.000000
# 4 0.000000 0.000000 0.000000 0.071871 0.000000 0.000000
# 5 0.000000 0.000000 0.000000 0.000000 0.071871 0.000000
# 6 0.000000 0.000000 0.000000 0.000000 0.000000 0.078174
#
#
# Mechanical properties :
#
#
# Convention : Reuss Voigt Hill
#
# Bulk Modulus (GPa) = 16.40295 47.37507 31.88901
# Shear Modulus (GPa) = 18.62328 10.19541 14.40934
#
# Velocity S-wave (km/s) = 3.31852 2.45538 2.91903
# Velocity P-wave (km/s) = 4.93792 6.00442 5.49710
#
# Compressibility (1/GPa) = 0.06096464
#
# Stress axis : x y z
#
# Youngs Moduli (GPa) = -88.56216 -88.56216 15.10873
#
# Poissons Ratio (x) = 1.53994 0.06578
# Poissons Ratio (y) = 1.53994 0.06578
# Poissons Ratio (z) = -0.38559 -0.38559
#
# Static dielectric constant tensor:
#      x y z
#    x 1.584810 0.000000 0.000000 
#    y 0.000000 1.584810 0.000000 
#    z 0.000000 0.000000 1.609540 
# 
# From -- ./inp_files/1192.got.cif
#   From: 2010.05.17/outbox.cif.g08.bks.cpg/sg131_1_cif.got.tgz:1192.got - 2010.05.20 12:21:01.
