data_PCOD9566647
_publ_section_title
;
Structure prediction by ZEFSAII (Michael W. Deem and Ramdas Pophale) SiO2 
 PCOD9566647
Probable space group: P 42/M M C
;
_chemical_formula_sum "Si O2"
_cell_formula_units_Z 72
_cell_length_a 14.491825
_cell_length_b 14.491825
_cell_length_c 19.169720
_cell_angle_alpha 90.000000
_cell_angle_beta 90.000000
_cell_angle_gamma 90.000000
_cell_volume 4025.890250
_symmetry_space_group_name_H-M "P 42/M M C"
_symmetry_group_IT_number 131
_symmetry_cell_setting 'tetragonal'
loop_
_space_group_symop_operation_xyz
x,y,z
-x,-y,z
-y,x,1/2+z
y,-x,1/2+z
-x,y,-z
x,-y,-z
y,x,1/2-z
-y,-x,1/2-z
-x,-y,-z
x,y,-z
y,-x,1/2-z
-y,x,1/2-z
x,-y,z
-x,y,z
-y,-x,1/2+z
y,x,1/2+z
loop_
_atom_site_type_symbol
_atom_site_label
_atom_site_fract_x
_atom_site_fract_y
_atom_site_fract_z
Si Si1 0.841888 0.894211 0.825637
Si Si2 0.889535 0.500000 0.416738
Si Si3 0.604693 0.750553 0.663665
Si Si4 0.893922 0.276634 0.919880
Si Si5 0.791684 0.352413 0.678953
O O1 0.889246 0.889246 0.750000
O O2 0.885028 0.820032 0.878496
O O3 0.739499 0.853218 0.814349
O O4 0.841607 0.000000 0.850335
O O5 0.875696 0.500000 0.500000
O O6 0.840558 0.585839 0.378884
O O7 0.000000 0.500000 0.403770
O O8 0.500000 0.723345 0.645271
O O9 0.645754 0.831604 0.616021
O O10 0.605121 0.785271 0.743895
O O11 0.685921 0.673837 0.659693
O O12 0.000000 0.305457 0.917742
O O13 0.865277 0.262921 0.000000
#
# Coordination Sequence:
#
# PCOD9566647 Si02
#       5
#    16   8  16  16  16
#     4  11  21  35  57  85 117 157 205 252 305 371
#     4  11  24  40  63  95 128 164 204 251 311 377
#     4  10  20  38  63  86 113 154 199 243 304 362
#     4  10  22  38  54  80 118 155 197 251 303 359
#     4  10  20  39  60  88 122 152 196 251 305 363
#
# _framework density 17.884243999999999
#
# number of rings (size 3 to 8) (size 9 to 14) (size 15 to 20)
#    0.000    1.667    5.556    1.333    0.000    7.333 
#    0.000    2.778    0.000    0.667    0.000    0.000 
#    0.000    0.000    0.000    0.000    0.000    0.000 
#
# Total GULP energy -401486.040268 kJ/mol
# GULP energy per Si atom -5576.195004 kJ/mol
# Density = 1.784354 g / cm^3
# Si number density = 17.884244 Si / 1000 Ang^3
#
#
#
# Elastic Constant Matrix: (Units=GPa)
#
#
# Indices 1 2 3 4 5 6 
#
# 1 115.7811 30.5753 54.3642 0.0000 0.0000 0.0000
# 2 30.5753 115.7811 54.3642 0.0000 0.0000 0.0000
# 3 54.3642 54.3642 121.5657 0.0000 0.0000 0.0000
# 4 0.0000 0.0000 0.0000 21.1228 0.0000 0.0000
# 5 0.0000 0.0000 0.0000 0.0000 21.1228 0.0000
# 6 0.0000 0.0000 0.0000 0.0000 0.0000 5.5614
#
#
#
# Elastic Compliance Matrix: (Units=1/GPa)
#
#
# Indices 1 2 3 4 5 6 
#
# 1 0.010984 -0.000752 -0.004576 0.000000 0.000000 0.000000
# 2 -0.000752 0.010984 -0.004576 0.000000 0.000000 0.000000
# 3 -0.004576 -0.004576 0.012319 0.000000 0.000000 0.000000
# 4 0.000000 0.000000 0.000000 0.047342 0.000000 0.000000
# 5 0.000000 0.000000 0.000000 0.000000 0.047342 0.000000
# 6 0.000000 0.000000 0.000000 0.000000 0.000000 0.179811
#
#
# Mechanical properties :
#
#
# Convention : Reuss Voigt Hill
#
# Bulk Modulus (GPa) = 69.06304 70.19281 69.62793
# Shear Modulus (GPa) = 14.99630 23.81634 19.40632
#
# Velocity S-wave (km/s) = 2.89886 3.65320 3.29767
# Velocity P-wave (km/s) = 7.06435 7.55831 7.31550
#
# Compressibility (1/GPa) = 0.01447952
#
# Stress axis : x y z
#
# Youngs Moduli (GPa) = 91.04047 91.04047 81.17841
#
# Poissons Ratio (x) = 0.06848 0.37145
# Poissons Ratio (y) = 0.06848 0.37145
# Poissons Ratio (z) = 0.41658 0.41658
#
# Static dielectric constant tensor:
#      x y z
#    x 1.622430 0.000000 0.000000 
#    y 0.000000 1.622430 0.000000 
#    z 0.000000 0.000000 1.601370 
# 
# From -- ./inp_files/7508.got.cif
#   From: 2010.05.17/outbox.cif.g08.bks.cpg/sg131_4_cif.got.tgz:7508.got - 2010.05.20 12:21:01.
