data_PCOD9566122
_publ_section_title
;
Structure prediction by ZEFSAII (Michael W. Deem and Ramdas Pophale) SiO2 
 PCOD9566122
Probable space group: P 42/M M C
;
_chemical_formula_sum "Si O2"
_cell_formula_units_Z 88
_cell_length_a 25.693094
_cell_length_b 25.693094
_cell_length_c 8.319254
_cell_angle_alpha 90.000000
_cell_angle_beta 90.000000
_cell_angle_gamma 90.000000
_cell_volume 5491.831399
_symmetry_space_group_name_H-M "P 42/M M C"
_symmetry_group_IT_number 131
_symmetry_cell_setting 'tetragonal'
loop_
_space_group_symop_operation_xyz
x,y,z
-x,-y,z
-y,x,1/2+z
y,-x,1/2+z
-x,y,-z
x,-y,-z
y,x,1/2-z
-y,-x,1/2-z
-x,-y,-z
x,y,-z
y,-x,1/2-z
-y,x,1/2-z
x,-y,z
-x,y,z
-y,-x,1/2+z
y,x,1/2+z
loop_
_atom_site_type_symbol
_atom_site_label
_atom_site_fract_x
_atom_site_fract_y
_atom_site_fract_z
Si Si1 0.830857 0.252049 0.807783
Si Si2 0.559834 0.219740 0.694339
Si Si3 0.252052 0.665058 0.308998
Si Si4 0.500000 0.939316 0.820237
Si Si5 0.709650 0.940530 0.303457
Si Si6 0.601463 0.891138 0.310051
O O1 0.797108 0.202893 0.750000
O O2 0.799491 0.303999 0.753645
O O3 0.891398 0.254104 0.755464
O O4 0.830003 0.252315 0.000000
O O5 0.557968 0.218161 0.500000
O O6 0.500000 0.227597 0.748989
O O7 0.606160 0.257650 0.746490
O O8 0.583353 0.164793 0.755791
O O9 0.299567 0.700434 0.250000
O O10 0.249671 0.665259 0.500000
O O11 0.449090 0.924785 0.722286
O O12 0.500000 0.000000 0.840303
O O13 0.500000 0.914986 0.000000
O O14 0.709988 0.942258 0.500000
O O15 0.652465 0.920813 0.248694
O O16 0.720456 0.000000 0.249535
O O17 0.610541 0.883796 0.500000
#
# Coordination Sequence:
#
# PCOD9566122 Si02
#       6
#    16  16  16   8  16  16
#     4  10  18  31  49  69  94 120 157 198 240 291
#     4  10  19  33  51  71  96 125 158 199 242 281
#     4  11  21  33  51  72  96 125 161 200 242 289
#     4  11  23  33  39  55  85 117 155 205 250 277
#     4   9  17  29  47  68  89 116 154 199 236 276
#     4  10  18  32  49  63  82 116 163 199 231 279
#
# _framework density 16.023797999999999
#
# number of rings (size 3 to 8) (size 9 to 14) (size 15 to 20)
#    0.000    1.909    2.727    4.091    0.000    2.545 
#    0.000    0.000    0.000    3.273    0.000    0.000 
#    0.000    0.727    0.000    8.364    0.000    1.636 
#
# Total GULP energy -490124.472000 kJ/mol
# GULP energy per Si atom -5569.596273 kJ/mol
# Density = 1.598733 g / cm^3
# Si number density = 16.023798 Si / 1000 Ang^3
#
#
#
# Elastic Constant Matrix: (Units=GPa)
#
#
# Indices 1 2 3 4 5 6 
#
# 1 108.2336 61.6049 13.8599 0.0000 0.0000 0.0000
# 2 61.6049 108.2242 13.8622 0.0000 0.0000 0.0000
# 3 13.8599 13.8622 23.2734 0.0000 0.0000 0.0000
# 4 0.0000 0.0000 0.0000 19.7511 0.0000 0.0000
# 5 0.0000 0.0000 0.0000 0.0000 19.7530 0.0000
# 6 0.0000 0.0000 0.0000 0.0000 0.0000 8.4119
#
#
#
# Elastic Compliance Matrix: (Units=1/GPa)
#
#
# Indices 1 2 3 4 5 6 
#
# 1 0.013984 -0.007463 -0.003883 0.000000 0.000000 0.000000
# 2 -0.007463 0.013986 -0.003886 0.000000 0.000000 0.000000
# 3 -0.003883 -0.003886 0.047595 0.000000 0.000000 0.000000
# 4 0.000000 0.000000 0.000000 0.050630 0.000000 0.000000
# 5 0.000000 0.000000 0.000000 0.000000 0.050625 0.000000
# 6 0.000000 0.000000 0.000000 0.000000 0.000000 0.118880
#
#
# Mechanical properties :
#
#
# Convention : Reuss Voigt Hill
#
# Bulk Modulus (GPa) = 22.17240 46.48723 34.32982
# Shear Modulus (GPa) = 14.65427 19.61013 17.13220
#
# Velocity S-wave (km/s) = 3.02740 3.50210 3.27337
# Velocity P-wave (km/s) = 5.10759 6.73998 5.97975
#
# Compressibility (1/GPa) = 0.04510112
#
# Stress axis : x y z
#
# Youngs Moduli (GPa) = 71.50868 71.49994 21.01081
#
# Poissons Ratio (x) = 0.53360 0.08158
# Poissons Ratio (y) = 0.53367 0.08165
# Poissons Ratio (z) = 0.27766 0.27785
#
# Static dielectric constant tensor:
#      x y z
#    x 1.556790 0.000000 0.000000 
#    y 0.000000 1.556780 0.000000 
#    z 0.000000 0.000000 1.579760 
# 
# From -- ./inp_files/2454.got.cif
#   From: 2010.05.17/outbox.cif.g08.bks.cpg/sg131_2_cif.got.tgz:2454.got - 2010.05.20 12:21:01.
