data_PCOD9566782
_publ_section_title
;
Structure prediction by ZEFSAII (Michael W. Deem and Ramdas Pophale) SiO2 
 PCOD9566782
Probable space group: P 42/M M C
;
_chemical_formula_sum "Si O2"
_cell_formula_units_Z 56
_cell_length_a 17.555549
_cell_length_b 17.555549
_cell_length_c 9.814581
_cell_angle_alpha 90.000000
_cell_angle_beta 90.000000
_cell_angle_gamma 90.000000
_cell_volume 3024.827372
_symmetry_space_group_name_H-M "P 42/M M C"
_symmetry_group_IT_number 131
_symmetry_cell_setting 'tetragonal'
loop_
_space_group_symop_operation_xyz
x,y,z
-x,-y,z
-y,x,1/2+z
y,-x,1/2+z
-x,y,-z
x,-y,-z
y,x,1/2-z
-y,-x,1/2-z
-x,-y,-z
x,y,-z
y,-x,1/2-z
-y,x,1/2-z
x,-y,z
-x,y,z
-y,-x,1/2+z
y,x,1/2+z
loop_
_atom_site_type_symbol
_atom_site_label
_atom_site_fract_x
_atom_site_fract_y
_atom_site_fract_z
Si Si1 0.137926 0.341639 0.338087
Si Si2 0.831936 0.168065 0.750000
Si Si3 0.000000 0.591680 0.160787
Si Si4 0.090441 0.912090 0.000000
Si Si5 0.588554 0.695357 0.839804
O O1 0.117438 0.341690 0.500000
O O2 0.154170 0.255710 0.288771
O O3 0.072843 0.376822 0.242939
O O4 0.216377 0.388272 0.322687
O O5 0.881100 0.136451 0.873668
O O6 0.000000 0.500000 0.166043
O O7 0.000000 0.614091 0.000000
O O8 0.000000 0.916974 0.000000
O O9 0.120164 0.000000 0.000000
O O10 0.642647 0.642647 0.750000
O O11 0.500000 0.684714 0.804683
O O12 0.598792 0.677347 0.000000
#
# Coordination Sequence:
#
# PCOD9566782 Si02
#       5
#    16   8   8   8  16
#     4  11  24  42  67  98 133 174 218 270 332 395
#     4  12  24  39  68  98 125 172 230 268 322 386
#     4  11  27  45  67  99 134 173 220 275 332 393
#     4  11  26  44  62  90 134 176 217 272 328 382
#     4  10  22  41  65  93 128 169 214 263 323 393
#
# _framework density 18.513452000000001
#
# number of rings (size 3 to 8) (size 9 to 14) (size 15 to 20)
#    0.000    1.143    2.857    2.143    6.000    5.429 
#    0.000    1.429    0.000    0.000    0.000    0.000 
#    0.000    0.000    0.000    0.000    0.000    0.000 
#
# Total GULP energy -312911.501859 kJ/mol
# GULP energy per Si atom -5587.705390 kJ/mol
# Density = 1.847131 g / cm^3
# Si number density = 18.513452 Si / 1000 Ang^3
#
#
#
# Elastic Constant Matrix: (Units=GPa)
#
#
# Indices 1 2 3 4 5 6 
#
# 1 122.5695 59.4931 84.6934 0.0000 0.0000 0.0000
# 2 59.4931 122.5701 84.6936 0.0000 0.0000 0.0000
# 3 84.6934 84.6936 173.8369 0.0000 0.0000 0.0000
# 4 0.0000 0.0000 0.0000 39.0248 0.0000 0.0000
# 5 0.0000 0.0000 0.0000 0.0000 39.0268 0.0000
# 6 0.0000 0.0000 0.0000 0.0000 0.0000 -32.7430
#
#
#
# Elastic Compliance Matrix: (Units=1/GPa)
#
#
# Indices 1 2 3 4 5 6 
#
# 1 0.012950 -0.002904 -0.004895 0.000000 0.000000 0.000000
# 2 -0.002904 0.012950 -0.004895 0.000000 0.000000 0.000000
# 3 -0.004895 -0.004895 0.010522 0.000000 0.000000 0.000000
# 4 0.000000 0.000000 0.000000 0.025625 0.000000 0.000000
# 5 0.000000 0.000000 0.000000 0.000000 0.025623 0.000000
# 6 0.000000 0.000000 0.000000 0.000000 0.000000 -0.030541
#
#
# Mechanical properties :
#
#
# Convention : Reuss Voigt Hill
#
# Bulk Modulus (GPa) = 90.61073 97.41519 94.01296
# Shear Modulus (GPa) = 58.00874 21.73482 39.87178
#
# Velocity S-wave (km/s) = 5.60369 3.43009 4.64579
# Velocity P-wave (km/s) = 9.53509 8.27165 8.92575
#
# Compressibility (1/GPa) = 0.01103622
#
# Stress axis : x y z
#
# Youngs Moduli (GPa) = 77.21933 77.21965 95.03996
#
# Poissons Ratio (x) = 0.22422 0.46519
# Poissons Ratio (y) = 0.22421 0.46519
# Poissons Ratio (z) = 0.37796 0.37796
#
# Static dielectric constant tensor:
#      x y z
#    x 1.624270 0.000000 0.000000 
#    y 0.000000 1.624270 0.000000 
#    z 0.000000 0.000000 1.721830 
# 
# From -- ./inp_files/1281.got.cif
#   From: 2010.05.17/outbox.cif.g08.bks.cpg/sg131_1_cif.got.tgz:1281.got - 2010.05.20 12:21:01.
