data_PCOD9566917
_publ_section_title
;
Structure prediction by ZEFSAII (Michael W. Deem and Ramdas Pophale) SiO2 
 PCOD9566917
Probable space group: P 42/M M C
;
_chemical_formula_sum "Si O2"
_cell_formula_units_Z 96
_cell_length_a 24.000000
_cell_length_b 24.000000
_cell_length_c 9.000000
_cell_angle_alpha 90.000000
_cell_angle_beta 90.000000
_cell_angle_gamma 90.000000
_cell_volume 5184.000000
_symmetry_space_group_name_H-M "P 42/M M C"
_symmetry_group_IT_number 131
_symmetry_cell_setting 'tetragonal'
loop_
_space_group_symop_operation_xyz
x,y,z
-x,-y,z
-y,x,1/2+z
y,-x,1/2+z
-x,y,-z
x,-y,-z
y,x,1/2-z
-y,-x,1/2-z
-x,-y,-z
x,y,-z
y,-x,1/2-z
-y,x,1/2-z
x,-y,z
-x,y,z
-y,-x,1/2+z
y,x,1/2+z
loop_
_atom_site_type_symbol
_atom_site_label
_atom_site_fract_x
_atom_site_fract_y
_atom_site_fract_z
Si Si1 0.437124 0.210271 0.175473
Si Si2 0.241615 0.678888 0.177113
Si Si3 0.065305 0.852774 0.320226
Si Si4 0.904241 0.440441 0.832803
Si Si5 0.251909 0.142901 0.828407
Si Si6 0.061413 0.319351 0.165208
O O1 0.500000 0.230564 0.215979
O O2 0.383723 0.232147 0.264544
O O3 0.437349 0.144721 0.213991
O O4 0.429170 0.219275 0.000000
O O5 0.297450 0.702551 0.250000
O O6 0.193346 0.721559 0.235046
O O7 0.242639 0.680250 0.000000
O O8 0.091392 0.908609 0.250000
O O9 0.067000 0.855279 0.500000
O O10 0.108713 0.803041 0.276403
O O11 0.000000 0.843882 0.278356
O O12 0.933141 0.500000 0.818583
O O13 0.940318 0.385686 0.826009
O O14 0.878306 0.439201 0.000000
O O15 0.298494 0.096238 0.803110
O O16 0.244902 0.159520 0.000000
O O17 0.000000 0.295278 0.169922
O O18 0.085738 0.305502 0.000000
#
# Coordination Sequence:
#
# PCOD9566917 Si02
#       6
#    16  16  16  16  16  16
#     4  10  20  35  56  82 113 150 191 234 281 333
#     4  12  24  38  58  86 119 152 191 235 281 333
#     4  10  23  42  62  85 110 137 172 216 272 338
#     4   9  17  30  48  70 100 140 184 230 279 329
#     4  11  22  38  58  80 109 146 184 225 279 336
#     4  10  20  32  48  73 104 141 186 233 281 334
#
# _framework density 18.518519000000001
#
# number of rings (size 3 to 8) (size 9 to 14) (size 15 to 20)
#    0.000    1.667    1.667    3.500    0.000    5.500 
#    0.000    2.500    0.000    0.000    0.000    3.500 
#    0.000    0.333    0.000    3.500    0.000    1.500 
#
# Total GULP energy -534760.160551 kJ/mol
# GULP energy per Si atom -5570.418339 kJ/mol
# Density = 1.847637 g / cm^3
# Si number density = 18.518519 Si / 1000 Ang^3
#
#
#
# Elastic Constant Matrix: (Units=GPa)
#
#
# Indices 1 2 3 4 5 6 
#
# 1 82.3342 62.3105 40.7506 0.0000 0.0000 0.0000
# 2 62.3105 82.3349 40.7509 0.0000 0.0000 0.0000
# 3 40.7506 40.7509 75.0978 0.0000 0.0000 0.0000
# 4 0.0000 0.0000 0.0000 8.2737 0.0000 0.0000
# 5 0.0000 0.0000 0.0000 0.0000 8.2744 0.0000
# 6 0.0000 0.0000 0.0000 0.0000 0.0000 -1.2699
#
#
#
# Elastic Compliance Matrix: (Units=1/GPa)
#
#
# Indices 1 2 3 4 5 6 
#
# 1 0.029949 -0.019991 -0.005404 0.000000 0.000000 0.000000
# 2 -0.019991 0.029949 -0.005404 0.000000 0.000000 0.000000
# 3 -0.005404 -0.005404 0.019180 0.000000 0.000000 0.000000
# 4 0.000000 0.000000 0.000000 0.120865 0.000000 0.000000
# 5 0.000000 0.000000 0.000000 0.000000 0.120855 0.000000
# 6 0.000000 0.000000 0.000000 0.000000 0.000000 -0.787481
#
#
# Mechanical properties :
#
#
# Convention : Reuss Voigt Hill
#
# Bulk Modulus (GPa) = 57.20127 58.59901 57.90014
# Shear Modulus (GPa) = -12.52321 9.45264 -1.53529
#
# Velocity S-wave (km/s) = -2.60331 2.26175 -0.91151
# Velocity P-wave (km/s) = 4.68182 6.20748 5.49783
#
# Compressibility (1/GPa) = 0.01748213
#
# Stress axis : x y z
#
# Youngs Moduli (GPa) = 33.38997 33.39015 52.13648
#
# Poissons Ratio (x) = 0.66750 0.28173
# Poissons Ratio (y) = 0.66749 0.28173
# Poissons Ratio (z) = 0.18043 0.18043
#
# Static dielectric constant tensor:
#      x y z
#    x 1.671430 0.000000 0.000000 
#    y 0.000000 1.671430 0.000000 
#    z 0.000000 0.000000 1.659570 
# 
# From -- ./inp_files/2257.got.cif
#   From: 2010.05.17/outbox.ucp.g08.bks.cvg/sg131_2_cif.got.tgz:2257.got - 2010.06.11 11:38:44.
