data_PCOD9566581
_publ_section_title
;
Structure prediction by ZEFSAII (Michael W. Deem and Ramdas Pophale) SiO2 
 PCOD9566581
Probable space group: P 42/M M C
;
_chemical_formula_sum "Si O2"
_cell_formula_units_Z 48
_cell_length_a 7.914178
_cell_length_b 7.914178
_cell_length_c 38.724549
_cell_angle_alpha 90.000000
_cell_angle_beta 90.000000
_cell_angle_gamma 90.000000
_cell_volume 2425.481666
_symmetry_space_group_name_H-M "P 42/M M C"
_symmetry_group_IT_number 131
_symmetry_cell_setting 'tetragonal'
loop_
_space_group_symop_operation_xyz
x,y,z
-x,-y,z
-y,x,1/2+z
y,-x,1/2+z
-x,y,-z
x,-y,-z
y,x,1/2-z
-y,-x,1/2-z
-x,-y,-z
x,y,-z
y,-x,1/2-z
-y,x,1/2-z
x,-y,z
-x,y,z
-y,-x,1/2+z
y,x,1/2+z
loop_
_atom_site_type_symbol
_atom_site_label
_atom_site_fract_x
_atom_site_fract_y
_atom_site_fract_z
Si Si1 0.500000 0.304291 0.088192
Si Si2 0.801423 0.500000 0.665857
Si Si3 0.191753 0.793886 0.210725
Si Si4 0.204285 0.191806 0.539547
O O1 0.500000 0.500000 0.096477
O O2 0.500000 0.212547 0.124826
O O3 0.664933 0.263120 0.065519
O O4 0.731699 0.669994 0.683519
O O5 0.000000 0.500000 0.674598
O O6 0.245506 0.754495 0.250000
O O7 0.000000 0.733091 0.204651
O O8 0.183951 0.000000 0.209331
O O9 0.258727 0.227198 0.500000
O O10 0.000000 0.193365 0.539614
O O11 0.258127 0.000000 0.548369
#
# Coordination Sequence:
#
# PCOD9566581 Si02
#       4
#     8   8  16  16
#     4  12  25  37  50  79 126 160 186 224 286 352
#     4  10  20  35  55  78 104 145 194 230 276 338
#     4   8  15  31  55  80 103 129 173 233 286 334
#     4   9  19  38  64  88 107 140 196 249 288 333
#
# _framework density 19.789885000000002
#
# number of rings (size 3 to 8) (size 9 to 14) (size 15 to 20)
#    0.000    2.667    0.000    4.000    0.000    4.667 
#    3.000    5.000    0.000    0.000    0.000    0.000 
#    0.000    0.000    0.000    0.000    0.000    0.000 
#
# Total GULP energy -267805.776927 kJ/mol
# GULP energy per Si atom -5579.287019 kJ/mol
# Density = 1.974484 g / cm^3
# Si number density = 19.789885 Si / 1000 Ang^3
#
#
#
# Elastic Constant Matrix: (Units=GPa)
#
#
# Indices 1 2 3 4 5 6 
#
# 1 58.5238 25.5913 41.2601 0.0000 0.0000 0.0000
# 2 25.5913 58.5241 41.2602 0.0000 0.0000 0.0000
# 3 41.2601 41.2602 104.3728 0.0000 0.0000 0.0000
# 4 0.0000 0.0000 0.0000 3.8876 0.0000 0.0000
# 5 0.0000 0.0000 0.0000 0.0000 3.8876 0.0000
# 6 0.0000 0.0000 0.0000 0.0000 0.0000 -70.0407
#
#
#
# Elastic Compliance Matrix: (Units=1/GPa)
#
#
# Indices 1 2 3 4 5 6 
#
# 1 0.024892 -0.005473 -0.007677 0.000000 0.000000 0.000000
# 2 -0.005473 0.024892 -0.007677 0.000000 0.000000 0.000000
# 3 -0.007677 -0.007677 0.015651 0.000000 0.000000 0.000000
# 4 0.000000 0.000000 0.000000 0.257226 0.000000 0.000000
# 5 0.000000 0.000000 0.000000 0.000000 0.257230 0.000000
# 6 0.000000 0.000000 0.000000 0.000000 0.000000 -0.014277
#
#
# Mechanical properties :
#
#
# Convention : Reuss Voigt Hill
#
# Bulk Modulus (GPa) = 42.04765 48.62709 45.33737
# Shear Modulus (GPa) = 8.12751 -4.89915 1.61418
#
# Velocity S-wave (km/s) = 2.02875 -1.57511 0.90412
# Velocity P-wave (km/s) = 5.17503 4.61704 4.90398
#
# Compressibility (1/GPa) = 0.02378254
#
# Stress axis : x y z
#
# Youngs Moduli (GPa) = 40.17278 40.17295 63.89504
#
# Poissons Ratio (x) = 0.21985 0.49052
# Poissons Ratio (y) = 0.21985 0.49052
# Poissons Ratio (z) = 0.30840 0.30841
#
# Static dielectric constant tensor:
#      x y z
#    x 1.710870 0.000000 0.000000 
#    y 0.000000 1.710870 0.000000 
#    z 0.000000 0.000000 1.666750 
# 
# From -- ./inp_files/12938.got.cif
#   From: 2010.05.17/outbox.cif.g08.bks.cpg/sg131_7_cif.got.tgz:12938.got - 2010.05.20 12:21:01.
