data_PCOD9566625
_publ_section_title
;
Structure prediction by ZEFSAII (Michael W. Deem and Ramdas Pophale) SiO2 
 PCOD9566625
Probable space group: P 42/M M C
;
_chemical_formula_sum "Si O2"
_cell_formula_units_Z 88
_cell_length_a 17.589253
_cell_length_b 17.589253
_cell_length_c 14.320510
_cell_angle_alpha 90.000000
_cell_angle_beta 90.000000
_cell_angle_gamma 90.000000
_cell_volume 4430.505463
_symmetry_space_group_name_H-M "P 42/M M C"
_symmetry_group_IT_number 131
_symmetry_cell_setting 'tetragonal'
loop_
_space_group_symop_operation_xyz
x,y,z
-x,-y,z
-y,x,1/2+z
y,-x,1/2+z
-x,y,-z
x,-y,-z
y,x,1/2-z
-y,-x,1/2-z
-x,-y,-z
x,y,-z
y,-x,1/2-z
-y,x,1/2-z
x,-y,z
-x,y,z
-y,-x,1/2+z
y,x,1/2+z
loop_
_atom_site_type_symbol
_atom_site_label
_atom_site_fract_x
_atom_site_fract_y
_atom_site_fract_z
Si Si1 0.324489 0.500000 0.605438
Si Si2 0.500000 0.169584 0.387005
Si Si3 0.089115 0.712304 0.392123
Si Si4 0.353101 0.089401 0.300404
Si Si5 0.500000 0.339165 0.312859
Si Si6 0.659984 0.334558 0.893170
Si Si7 0.802847 0.762132 0.111651
O O1 0.361148 0.500000 0.500000
O O2 0.364582 0.500000 0.705926
O O3 0.285483 0.582513 0.610115
O O4 0.500000 0.180203 0.500000
O O5 0.423968 0.126974 0.353451
O O6 0.500000 0.248781 0.331439
O O7 0.102384 0.687509 0.500000
O O8 0.101816 0.649604 0.311666
O O9 0.150581 0.778798 0.373015
O O10 0.000000 0.735315 0.385080
O O11 0.274912 0.125202 0.339141
O O12 0.355608 0.000000 0.317440
O O13 0.418180 0.359778 0.355509
O O14 0.731338 0.289650 0.854102
O O15 0.680037 0.348090 0.000000
O O16 0.811263 0.753028 0.000000
#
# Coordination Sequence:
#
# PCOD9566625 Si02
#       7
#     8   8  16  16   8  16  16
#     4  10  24  39  53  82 116 145 191 248 292 335
#     4  12  25  40  57  84 120 157 194 241 295 343
#     4   9  20  39  61  87 118 152 194 242 291 346
#     4  11  23  38  60  89 121 158 197 239 288 344
#     4  12  22  36  61  81 110 154 195 236 289 352
#     4  10  21  38  58  83 112 148 194 243 292 342
#     4  10  20  36  62  88 116 153 194 240 291 347
#
# _framework density 19.862292
#
# number of rings (size 3 to 8) (size 9 to 14) (size 15 to 20)
#    0.000    1.636    1.818    2.727    2.545    3.636 
#    0.000    2.727    0.000    2.727    0.000    5.091 
#    0.000    0.000    0.000    0.000    0.000    0.000 
#
# Total GULP energy -489991.190114 kJ/mol
# GULP energy per Si atom -5568.081706 kJ/mol
# Density = 1.981708 g / cm^3
# Si number density = 19.862292 Si / 1000 Ang^3
#
#
#
# Elastic Constant Matrix: (Units=GPa)
#
#
# Indices 1 2 3 4 5 6 
#
# 1 88.1116 30.6910 27.5564 0.0000 0.0000 0.0000
# 2 30.6910 88.1116 27.5564 0.0000 0.0000 0.0000
# 3 27.5564 27.5564 107.8908 0.0000 0.0000 0.0000
# 4 0.0000 0.0000 0.0000 -9.4671 0.0000 0.0000
# 5 0.0000 0.0000 0.0000 0.0000 -9.4671 0.0000
# 6 0.0000 0.0000 0.0000 0.0000 0.0000 15.2893
#
#
#
# Elastic Compliance Matrix: (Units=1/GPa)
#
#
# Indices 1 2 3 4 5 6 
#
# 1 0.013482 -0.003933 -0.002439 0.000000 0.000000 0.000000
# 2 -0.003933 0.013482 -0.002439 0.000000 0.000000 0.000000
# 3 -0.002439 -0.002439 0.010514 0.000000 0.000000 0.000000
# 4 0.000000 0.000000 0.000000 -0.105629 0.000000 0.000000
# 5 0.000000 0.000000 0.000000 0.000000 -0.105629 0.000000
# 6 0.000000 0.000000 0.000000 0.000000 0.000000 0.065405
#
#
# Mechanical properties :
#
#
# Convention : Reuss Voigt Hill
#
# Bulk Modulus (GPa) = 50.36132 50.63572 50.49852
# Shear Modulus (GPa) = -59.43001 12.49168 -23.46917
#
# Velocity S-wave (km/s) = -5.47595 2.51054 -3.44116
# Velocity P-wave (km/s) = 3.81720 5.82687 3.11299
#
# Compressibility (1/GPa) = 0.01985651
#
# Stress axis : x y z
#
# Youngs Moduli (GPa) = 74.17282 74.17282 95.10728
#
# Poissons Ratio (x) = 0.29175 0.23195
# Poissons Ratio (y) = 0.29175 0.23195
# Poissons Ratio (z) = 0.18090 0.18090
#
# Static dielectric constant tensor:
#      x y z
#    x 1.850950 0.000000 0.000000 
#    y 0.000000 1.850950 0.000000 
#    z 0.000000 0.000000 1.777200 
# 
# From -- ./inp_files/5932.got.cif
#   From: 2010.05.17/outbox.cif.g08.bks.cpg/sg131_3_cif.got.tgz:5932.got - 2010.05.20 12:21:01.
