data_PCOD9566298
_publ_section_title
;
Structure prediction by ZEFSAII (Michael W. Deem and Ramdas Pophale) SiO2 
 PCOD9566298
Probable space group: P 42/M M C
;
_chemical_formula_sum "Si O2"
_cell_formula_units_Z 96
_cell_length_a 15.100176
_cell_length_b 15.100176
_cell_length_c 25.651695
_cell_angle_alpha 90.000000
_cell_angle_beta 90.000000
_cell_angle_gamma 90.000000
_cell_volume 5848.979322
_symmetry_space_group_name_H-M "P 42/M M C"
_symmetry_group_IT_number 131
_symmetry_cell_setting 'tetragonal'
loop_
_space_group_symop_operation_xyz
x,y,z
-x,-y,z
-y,x,1/2+z
y,-x,1/2+z
-x,y,-z
x,-y,-z
y,x,1/2-z
-y,-x,1/2-z
-x,-y,-z
x,y,-z
y,-x,1/2-z
-y,x,1/2-z
x,-y,z
-x,y,z
-y,-x,1/2+z
y,x,1/2+z
loop_
_atom_site_type_symbol
_atom_site_label
_atom_site_fract_x
_atom_site_fract_y
_atom_site_fract_z
Si Si1 0.210951 0.835321 0.398192
Si Si2 0.601588 0.104834 0.563072
Si Si3 0.218918 0.899066 0.712259
Si Si4 0.597146 0.894423 0.749261
Si Si5 0.106194 0.897562 0.000000
Si Si6 0.500000 0.106635 0.941928
Si Si7 0.894701 0.662462 0.367880
O O1 0.315157 0.843236 0.412662
O O2 0.193007 0.896386 0.347972
O O3 0.155075 0.862396 0.448951
O O4 0.171651 0.742265 0.378696
O O5 0.606411 0.112286 0.500000
O O6 0.500000 0.129146 0.578507
O O7 0.613206 0.000000 0.575804
O O8 0.157024 0.842977 0.750000
O O9 0.318999 0.861960 0.716726
O O10 0.218684 0.000000 0.731494
O O11 0.500000 0.856384 0.738466
O O12 0.622800 0.884255 0.809967
O O13 0.591478 0.000000 0.739330
O O14 0.000000 0.897989 0.000000
O O15 0.137604 0.000000 0.000000
O O16 0.586783 0.128048 0.909302
O O17 0.500000 0.000000 0.945458
O O18 0.500000 0.143928 0.000000
O O19 0.000000 0.686864 0.373348
#
# Coordination Sequence:
#
# PCOD9566298 Si02
#       7
#    16  16  16  16   8   8  16
#     4  12  22  35  55  78 107 140 181 226 269 316
#     4   9  18  34  55  76 100 134 176 224 277 320
#     4  11  23  36  51  75 106 142 183 223 263 314
#     4   9  17  34  56  75  99 135 178 224 274 320
#     4  11  24  38  51  72 106 150 192 222 257 311
#     4   9  18  30  48  76 107 139 177 218 265 315
#     4  10  19  32  51  76 108 144 176 214 263 319
#
# _framework density 16.413119999999999
#
# number of rings (size 3 to 8) (size 9 to 14) (size 15 to 20)
#    0.000    1.833    3.333    2.500    1.167    1.500 
#    0.000    1.667    0.000    0.000    0.000    0.583 
#    0.000    3.667    0.000    0.000    0.000    0.000 
#
# Total GULP energy -535080.493663 kJ/mol
# GULP energy per Si atom -5573.755142 kJ/mol
# Density = 1.637576 g / cm^3
# Si number density = 16.413120 Si / 1000 Ang^3
#
#
#
# Elastic Constant Matrix: (Units=GPa)
#
#
# Indices 1 2 3 4 5 6 
#
# 1 86.6714 40.3674 14.2914 0.0000 0.0000 0.0000
# 2 40.3674 86.6717 14.2909 0.0000 0.0000 0.0000
# 3 14.2914 14.2909 70.0404 0.0000 0.0000 0.0000
# 4 0.0000 0.0000 0.000010272.0985 0.0000 0.0000
# 5 0.0000 0.0000 0.0000 0.000010924.3360 0.0000
# 6 0.0000 0.0000 0.0000 0.0000 0.0000 2.2004
#
#
#
# Elastic Compliance Matrix: (Units=1/GPa)
#
#
# Indices 1 2 3 4 5 6 
#
# 1 0.014923 -0.006673 -0.001684 0.000000 0.000000 0.000000
# 2 -0.006673 0.014923 -0.001683 0.000000 0.000000 0.000000
# 3 -0.001684 -0.001683 0.014964 0.000000 0.000000 0.000000
# 4 0.000000 0.000000 0.000000 0.000097 0.000000 0.000000
# 5 0.000000 0.000000 0.000000 0.000000 0.000092 0.000000
# 6 0.000000 0.000000 0.000000 0.000000 0.000000 0.454456
#
#
# Mechanical properties :
#
#
# Convention : Reuss Voigt Hill
#
# Bulk Modulus (GPa) = 40.43427 42.36475 41.39951
# Shear Modulus (GPa) = 9.47366 4251.35593 2130.41479
#
# Velocity S-wave (km/s) = 2.40511 50.94940 36.06678
# Velocity P-wave (km/s) = 5.69223 59.05073 41.94872
#
# Compressibility (1/GPa) = 0.02473150
#
# Stress axis : x y z
#
# Youngs Moduli (GPa) = 67.00897 67.00939 66.82507
#
# Poissons Ratio (x) = 0.44715 0.11250
# Poissons Ratio (y) = 0.44715 0.11249
# Poissons Ratio (z) = 0.11281 0.11280
#
# Static dielectric constant tensor:
#      x y z
#    x 1.549860 0.000000 0.000000 
#    y 0.000000 1.549860 0.000000 
#    z 0.000000 0.000000 1.576070 
# 
# From -- ./inp_files/11150.got.cif
#   From: 2010.05.17/outbox.cif.g08.bks.cpg/sg131_6_cif.got.tgz:11150.got - 2010.05.20 12:21:01.
