data_PCOD9566728
_publ_section_title
;
Structure prediction by ZEFSAII (Michael W. Deem and Ramdas Pophale) SiO2 
 PCOD9566728
Probable space group: P 42/M M C
;
_chemical_formula_sum "Si O2"
_cell_formula_units_Z 56
_cell_length_a 17.081140
_cell_length_b 17.081140
_cell_length_c 9.990169
_cell_angle_alpha 90.000000
_cell_angle_beta 90.000000
_cell_angle_gamma 90.000000
_cell_volume 2914.785092
_symmetry_space_group_name_H-M "P 42/M M C"
_symmetry_group_IT_number 131
_symmetry_cell_setting 'tetragonal'
loop_
_space_group_symop_operation_xyz
x,y,z
-x,-y,z
-y,x,1/2+z
y,-x,1/2+z
-x,y,-z
x,-y,-z
y,x,1/2-z
-y,-x,1/2-z
-x,-y,-z
x,y,-z
y,-x,1/2-z
-y,x,1/2-z
x,-y,z
-x,y,z
-y,-x,1/2+z
y,x,1/2+z
loop_
_atom_site_type_symbol
_atom_site_label
_atom_site_fract_x
_atom_site_fract_y
_atom_site_fract_z
Si Si1 0.186443 0.411270 0.715810
Si Si2 0.090963 0.090963 0.750000
Si Si3 0.677057 0.586578 0.500000
Si Si4 0.830018 0.839822 0.500000
Si Si5 0.233481 0.655319 0.000000
Si Si6 0.910264 0.319845 0.500000
O O1 0.156337 0.500000 0.714858
O O2 0.267165 0.411822 0.630872
O O3 0.130489 0.355915 0.630667
O O4 0.200161 0.381780 0.864774
O O5 0.151930 0.109337 0.631279
O O6 0.000000 0.099652 0.706453
O O7 0.636799 0.500000 0.500000
O O8 0.639242 0.672591 0.500000
O O9 0.746848 0.793684 0.500000
O O10 0.894737 0.771823 0.500000
O O11 0.000000 0.339936 0.500000
#
# Coordination Sequence:
#
# PCOD9566728 Si02
#       6
#    16   8   8   8   8   8
#     4  10  21  37  58  88 119 158 201 236 296 360
#     4  11  24  42  60  82 118 160 196 239 300 360
#     4   9  19  35  59  87 117 155 198 235 284 357
#     4  12  23  36  62  90 115 148 201 249 291 346
#     4  12  21  36  62  90 125 153 192 258 298 340
#     4  11  22  39  62  86 118 157 203 250 292 353
#
# _framework density 19.212395000000001
#
# number of rings (size 3 to 8) (size 9 to 14) (size 15 to 20)
#    0.000    1.286    2.857    6.000    0.000    2.286 
#    0.000    2.143    0.000    3.429    0.000    8.000 
#    0.000    2.857    0.000    0.000    0.000    0.000 
#
# Total GULP energy -312507.100447 kJ/mol
# GULP energy per Si atom -5580.483937 kJ/mol
# Density = 1.916867 g / cm^3
# Si number density = 19.212395 Si / 1000 Ang^3
#
#
#
# Elastic Constant Matrix: (Units=GPa)
#
#
# Indices 1 2 3 4 5 6 
#
# 1 57.6383 -3.5666 4.9039 0.0000 0.0000 0.0000
# 2 -3.5666 57.6383 4.9039 0.0000 0.0000 0.0000
# 3 4.9039 4.9039 122.2217 0.0000 0.0000 0.0000
# 4 0.0000 0.0000 0.0000 9.5448 0.0000 0.0000
# 5 0.0000 0.0000 0.0000 0.0000 9.5448 0.0000
# 6 0.0000 0.0000 0.0000 0.0000 0.0000 5.2117
#
#
#
# Elastic Compliance Matrix: (Units=1/GPa)
#
#
# Indices 1 2 3 4 5 6 
#
# 1 0.017484 0.001145 -0.000747 0.000000 0.000000 0.000000
# 2 0.001145 0.017484 -0.000747 0.000000 0.000000 0.000000
# 3 -0.000747 -0.000747 0.008242 0.000000 0.000000 0.000000
# 4 0.000000 0.000000 0.000000 0.104769 0.000000 0.000000
# 5 0.000000 0.000000 0.000000 0.000000 0.104769 0.000000
# 6 0.000000 0.000000 0.000000 0.000000 0.000000 0.191878
#
#
# Mechanical properties :
#
#
# Convention : Reuss Voigt Hill
#
# Bulk Modulus (GPa) = 23.52333 27.77565 25.64949
# Shear Modulus (GPa) = 10.88152 20.27739 15.57945
#
# Velocity S-wave (km/s) = 2.38246 3.25227 2.85073
# Velocity P-wave (km/s) = 4.45405 5.34710 4.92088
#
# Compressibility (1/GPa) = 0.04251100
#
# Stress axis : x y z
#
# Youngs Moduli (GPa) = 57.19498 57.19498 121.33218
#
# Poissons Ratio (x) = -0.06552 0.09069
# Poissons Ratio (y) = -0.06552 0.09069
# Poissons Ratio (z) = 0.04275 0.04275
#
# Static dielectric constant tensor:
#      x y z
#    x 1.670970 0.000000 0.000000 
#    y 0.000000 1.670970 0.000000 
#    z 0.000000 0.000000 1.643180 
# 
# From -- ./inp_files/1325.got.cif
#   From: 2010.05.17/outbox.cif.g08.bks.cpg/sg131_1_cif.got.tgz:1325.got - 2010.05.20 12:21:01.
