data_PCOD9566611
_publ_section_title
;
Structure prediction by ZEFSAII (Michael W. Deem and Ramdas Pophale) SiO2 
 PCOD9566611
Probable space group: P 42/M M C
;
_chemical_formula_sum "Si O2"
_cell_formula_units_Z 56
_cell_length_a 14.386277
_cell_length_b 14.386277
_cell_length_c 14.296505
_cell_angle_alpha 90.000000
_cell_angle_beta 90.000000
_cell_angle_gamma 90.000000
_cell_volume 2958.875670
_symmetry_space_group_name_H-M "P 42/M M C"
_symmetry_group_IT_number 131
_symmetry_cell_setting 'tetragonal'
loop_
_space_group_symop_operation_xyz
x,y,z
-x,-y,z
-y,x,1/2+z
y,-x,1/2+z
-x,y,-z
x,-y,-z
y,x,1/2-z
-y,-x,1/2-z
-x,-y,-z
x,y,-z
y,-x,1/2-z
-y,x,1/2-z
x,-y,z
-x,y,z
-y,-x,1/2+z
y,x,1/2+z
loop_
_atom_site_type_symbol
_atom_site_label
_atom_site_fract_x
_atom_site_fract_y
_atom_site_fract_z
Si Si1 0.901570 0.901570 0.750000
Si Si2 0.651019 0.110969 0.894093
Si Si3 0.242757 0.394046 0.776761
Si Si4 0.162011 0.232744 0.896374
O O1 0.899828 0.814140 0.817579
O O2 0.000000 0.899225 0.696702
O O3 0.605303 0.170681 0.810949
O O4 0.752255 0.159393 0.898350
O O5 0.653460 0.000000 0.874946
O O6 0.611743 0.122255 0.000000
O O7 0.335009 0.335009 0.750000
O O8 0.262818 0.500000 0.803072
O O9 0.196995 0.331684 0.858419
O O10 0.122639 0.239471 0.000000
#
# Coordination Sequence:
#
# PCOD9566611 Si02
#       4
#     8  16  16  16
#     4  11  22  36  58  88 119 152 190 228 277 342
#     4   9  17  32  57  85 111 141 181 231 284 334
#     4  10  21  37  56  83 116 152 192 237 288 341
#     4  10  20  36  57  81 114 154 191 231 279 334
#
# _framework density 18.926106000000001
#
# number of rings (size 3 to 8) (size 9 to 14) (size 15 to 20)
#    0.000    2.143    4.286    0.857    0.000    4.286 
#    0.000    2.857    0.000    0.000    0.000   12.000 
#    0.000    0.000    0.000    0.000    0.000    0.000 
#
# Total GULP energy -311785.570513 kJ/mol
# GULP energy per Si atom -5567.599473 kJ/mol
# Density = 1.888303 g / cm^3
# Si number density = 18.926106 Si / 1000 Ang^3
#
#
#
# Elastic Constant Matrix: (Units=GPa)
#
#
# Indices 1 2 3 4 5 6 
#
# 1 119.7830 31.7419 39.2489 0.0000 0.0000 0.0000
# 2 31.7419 119.7830 39.2489 0.0000 0.0000 0.0000
# 3 39.2489 39.2489 104.0423 0.0000 0.0000 0.0000
# 4 0.0000 0.0000 0.0000 2.9494 0.0000 0.0000
# 5 0.0000 0.0000 0.0000 0.0000 2.9494 0.0000
# 6 0.0000 0.0000 0.0000 0.0000 0.0000 6.5741
#
#
#
# Elastic Compliance Matrix: (Units=1/GPa)
#
#
# Indices 1 2 3 4 5 6 
#
# 1 0.009780 -0.001578 -0.003094 0.000000 0.000000 0.000000
# 2 -0.001578 0.009780 -0.003094 0.000000 0.000000 0.000000
# 3 -0.003094 -0.003094 0.011946 0.000000 0.000000 0.000000
# 4 0.000000 0.000000 0.000000 0.339051 0.000000 0.000000
# 5 0.000000 0.000000 0.000000 0.000000 0.339051 0.000000
# 6 0.000000 0.000000 0.000000 0.000000 0.000000 0.152113
#
#
# Mechanical properties :
#
#
# Convention : Reuss Voigt Hill
#
# Bulk Modulus (GPa) = 62.60203 62.67639 62.63921
# Shear Modulus (GPa) = 5.66522 18.05248 11.85885
#
# Velocity S-wave (km/s) = 1.73200 3.09178 2.50589
# Velocity P-wave (km/s) = 6.09497 6.77744 6.44525
#
# Compressibility (1/GPa) = 0.01597392
#
# Stress axis : x y z
#
# Youngs Moduli (GPa) = 102.24454 102.24454 83.70933
#
# Poissons Ratio (x) = 0.16133 0.25903
# Poissons Ratio (y) = 0.16133 0.25903
# Poissons Ratio (z) = 0.31638 0.31638
#
# Static dielectric constant tensor:
#      x y z
#    x 1.672210 0.000000 0.000000 
#    y 0.000000 1.672210 0.000000 
#    z 0.000000 0.000000 1.698330 
# 
# From -- ./inp_files/5309.got.cif
#   From: 2010.05.17/outbox.cif.g08.bks.cpg/sg131_3_cif.got.tgz:5309.got - 2010.05.20 12:21:01.
