data_PCOD9566959
_publ_section_title
;
Structure prediction by ZEFSAII (Michael W. Deem and Ramdas Pophale) SiO2 
 PCOD9566959
Probable space group: P 42/M C M
;
_chemical_formula_sum "Si O2"
_cell_formula_units_Z 128
_cell_length_a 18.976263
_cell_length_b 18.976263
_cell_length_c 24.332772
_cell_angle_alpha 90.000000
_cell_angle_beta 90.000000
_cell_angle_gamma 90.000000
_cell_volume 8762.196096
_symmetry_space_group_name_H-M "P 42/M C M"
_symmetry_group_IT_number 132
_symmetry_cell_setting 'tetragonal'
loop_
_space_group_symop_operation_xyz
x,y,z
-y,x,1/2+z
-x,-y,z
y,-x,1/2+z
x,-y,1/2-z
-x,y,1/2-z
y,x,-z
-y,-x,-z
-x,-y,-z
y,-x,1/2-z
x,y,-z
-y,x,1/2-z
-x,y,1/2+z
x,-y,1/2+z
-y,-x,z
y,x,z
loop_
_atom_site_type_symbol
_atom_site_label
_atom_site_fract_x
_atom_site_fract_y
_atom_site_fract_z
Si Si1 0.114515 0.226511 0.850091
Si Si2 0.616093 0.504869 0.563839
Si Si3 0.956603 0.572046 0.142902
Si Si4 0.427462 0.820097 0.279656
Si Si5 0.598657 0.718519 0.881795
Si Si6 0.650176 0.856160 0.936263
Si Si7 0.718935 0.168215 0.769423
Si Si8 0.712891 0.977366 0.313881
O O1 0.151444 0.151444 0.858470
O O2 0.136313 0.280251 0.898268
O O3 0.145050 0.257308 0.792477
O O4 0.030553 0.231903 0.842262
O O5 0.637788 0.512916 0.500000
O O6 0.555423 0.444578 0.564362
O O7 0.576688 0.576688 0.581715
O O8 0.678463 0.472443 0.599927
O O9 0.896123 0.568050 0.189996
O O10 0.912834 0.595107 0.088840
O O11 0.000000 0.500000 0.138630
O O12 0.007132 0.637375 0.158695
O O13 0.500000 0.805116 0.250000
O O14 0.410517 0.761779 0.325657
O O15 0.364067 0.821394 0.236359
O O16 0.660954 0.660954 0.877241
O O17 0.620334 0.777803 0.926029
O O18 0.664329 0.868255 0.000000
O O19 0.762834 0.237167 0.783685
O O20 0.733474 0.103953 0.810682
O O21 0.706379 0.000000 0.250000
#
# Coordination Sequence:
#
# PCOD9566959 Si02
#       8
#    16  16  16  16  16  16  16  16
#     4   9  16  27  43  65  93 120 148 182 221 268
#     4   8  14  25  42  61  76  96 132 175 216 257
#     4  10  19  29  45  63  88 118 151 192 222 263
#     4  11  20  29  43  64  87 115 150 186 225 266
#     4  10  18  30  44  61  84 111 144 184 227 272
#     4  10  19  29  42  66  94 121 152 181 225 284
#     4  10  17  29  46  64  90 119 150 189 229 268
#     4   9  15  27  42  66  87 114 154 183 220 269
#
# _framework density 14.608209
#
# number of rings (size 3 to 8) (size 9 to 14) (size 15 to 20)
#    0.000    2.375    5.000    2.250    0.000    1.750 
#    0.000    1.250    0.000    0.375    0.000    2.625 
#    0.000    8.000    0.000    6.750    0.000    3.500 
#
# Total GULP energy -712737.143565 kJ/mol
# GULP energy per Si atom -5568.258934 kJ/mol
# Density = 1.457496 g / cm^3
# Si number density = 14.608209 Si / 1000 Ang^3
#
#
#
# Elastic Constant Matrix: (Units=GPa)
#
#
# Indices 1 2 3 4 5 6 
#
# 1 90.4431 53.7873 30.1423 0.0000 0.0000 0.0000
# 2 53.7873 90.4431 30.1423 0.0000 0.0000 0.0000
# 3 30.1423 30.1423 40.3532 0.0000 0.0000 0.0000
# 4 0.0000 0.0000 0.0000 8.5976 0.0000 0.0000
# 5 0.0000 0.0000 0.0000 0.0000 8.5976 0.0000
# 6 0.0000 0.0000 0.0000 0.0000 0.0000 29.1681
#
#
#
# Elastic Compliance Matrix: (Units=1/GPa)
#
#
# Indices 1 2 3 4 5 6 
#
# 1 0.018681 -0.008600 -0.007530 0.000000 0.000000 0.000000
# 2 -0.008600 0.018681 -0.007530 0.000000 0.000000 0.000000
# 3 -0.007530 -0.007530 0.036030 0.000000 0.000000 0.000000
# 4 0.000000 0.000000 0.000000 0.116311 0.000000 0.000000
# 5 0.000000 0.000000 0.000000 0.000000 0.116311 0.000000
# 6 0.000000 0.000000 0.000000 0.000000 0.000000 0.034284
#
#
# Mechanical properties :
#
#
# Convention : Reuss Voigt Hill
#
# Bulk Modulus (GPa) = 38.35524 49.93148 44.14336
# Shear Modulus (GPa) = 12.61645 16.41718 14.51682
#
# Velocity S-wave (km/s) = 2.94199 3.35600 3.15579
# Velocity P-wave (km/s) = 6.15251 7.01937 6.60019
#
# Compressibility (1/GPa) = 0.02607205
#
# Stress axis : x y z
#
# Youngs Moduli (GPa) = 53.53111 53.53111 27.75454
#
# Poissons Ratio (x) = 0.46037 0.20899
# Poissons Ratio (y) = 0.46037 0.20899
# Poissons Ratio (z) = 0.40308 0.40308
#
# Static dielectric constant tensor:
#      x y z
#    x 1.493910 0.000000 0.000000 
#    y 0.000000 1.493910 0.000000 
#    z 0.000000 0.000000 1.471040 
# 
# From -- ./inp_files/9373.got.cif
#   From: 2010.05.17/outbox.cif.g08.bks.cpg/sg132_5_cif.got.tgz:9373.got - 2010.05.20 12:30:18.
