data_PCOD9566692
_publ_section_title
;
Structure prediction by ZEFSAII (Michael W. Deem and Ramdas Pophale) SiO2 
 PCOD9566692
Probable space group: P 42/M M C
;
_chemical_formula_sum "Si O2"
_cell_formula_units_Z 72
_cell_length_a 13.373869
_cell_length_b 13.373869
_cell_length_c 22.395689
_cell_angle_alpha 90.000000
_cell_angle_beta 90.000000
_cell_angle_gamma 90.000000
_cell_volume 4005.701266
_symmetry_space_group_name_H-M "P 42/M M C"
_symmetry_group_IT_number 131
_symmetry_cell_setting 'tetragonal'
loop_
_space_group_symop_operation_xyz
x,y,z
-x,-y,z
-y,x,1/2+z
y,-x,1/2+z
-x,y,-z
x,-y,-z
y,x,1/2-z
-y,-x,1/2-z
-x,-y,-z
x,y,-z
y,-x,1/2-z
-y,x,1/2-z
x,-y,z
-x,y,z
-y,-x,1/2+z
y,x,1/2+z
loop_
_atom_site_type_symbol
_atom_site_label
_atom_site_fract_x
_atom_site_fract_y
_atom_site_fract_z
Si Si1 0.611896 0.884297 0.877623
Si Si2 0.500000 0.121683 0.568422
Si Si3 0.822591 0.884099 0.931219
Si Si4 0.882931 0.693864 0.144299
Si Si5 0.767870 0.616127 0.745263
O O1 0.500000 0.866082 0.901734
O O2 0.702587 0.873929 0.923429
O O3 0.628364 0.813270 0.820782
O O4 0.614336 0.000000 0.856429
O O5 0.500000 0.156296 0.500000
O O6 0.601511 0.152332 0.602344
O O7 0.500000 0.000000 0.567449
O O8 0.867287 0.799489 0.888519
O O9 0.848173 0.000000 0.915947
O O10 0.851718 0.867030 0.000000
O O11 0.827236 0.682743 0.206952
O O12 0.000000 0.679050 0.154981
O O13 0.654988 0.654988 0.750000
O O14 0.779359 0.500000 0.761030
#
# Coordination Sequence:
#
# PCOD9566692 Si02
#       5
#    16   8  16  16  16
#     4   9  18  33  55  80 104 134 176 228 277 320
#     4   9  18  32  52  80 109 139 180 228 272 313
#     4  10  21  36  54  79 112 150 189 226 272 334
#     4  11  21  35  56  82 111 146 188 232 275 324
#     4  11  21  36  58  83 109 138 176 224 278 334
#
# _framework density 17.97438
#
# number of rings (size 3 to 8) (size 9 to 14) (size 15 to 20)
#    0.000    1.889    3.333    1.333    0.000    3.333 
#    0.000    3.333    0.000    0.000    0.000    0.000 
#    0.000    7.111    0.000    0.000    0.000    0.000 
#
# Total GULP energy -401447.048674 kJ/mol
# GULP energy per Si atom -5575.653454 kJ/mol
# Density = 1.793347 g / cm^3
# Si number density = 17.974380 Si / 1000 Ang^3
#
#
#
# Elastic Constant Matrix: (Units=GPa)
#
#
# Indices 1 2 3 4 5 6 
#
# 1 51.3105 4.8779 7.3785 0.0000 0.0000 0.0000
# 2 4.8779 51.3105 7.3785 0.0000 0.0000 0.0000
# 3 7.3785 7.3785 43.6819 0.0000 0.0000 0.0000
# 4 0.0000 0.0000 0.0000 21.8912 0.0000 0.0000
# 5 0.0000 0.0000 0.0000 0.0000 21.8912 0.0000
# 6 0.0000 0.0000 0.0000 0.0000 0.0000 26.4277
#
#
#
# Elastic Compliance Matrix: (Units=1/GPa)
#
#
# Indices 1 2 3 4 5 6 
#
# 1 0.020080 -0.001457 -0.003146 0.000000 0.000000 0.000000
# 2 -0.001457 0.020080 -0.003146 0.000000 0.000000 0.000000
# 3 -0.003146 -0.003146 0.023956 0.000000 0.000000 0.000000
# 4 0.000000 0.000000 0.000000 0.045680 0.000000 0.000000
# 5 0.000000 0.000000 0.000000 0.000000 0.045680 0.000000
# 6 0.000000 0.000000 0.000000 0.000000 0.000000 0.037839
#
#
# Mechanical properties :
#
#
# Convention : Reuss Voigt Hill
#
# Bulk Modulus (GPa) = 20.56796 20.61920 20.59358
# Shear Modulus (GPa) = 22.22041 22.48654 22.35347
#
# Velocity S-wave (km/s) = 3.51982 3.54083 3.53034
# Velocity P-wave (km/s) = 5.29023 5.31159 5.30092
#
# Compressibility (1/GPa) = 0.04861932
#
# Stress axis : x y z
#
# Youngs Moduli (GPa) = 49.80069 49.80069 41.74401
#
# Poissons Ratio (x) = 0.07254 0.13132
# Poissons Ratio (y) = 0.07254 0.13132
# Poissons Ratio (z) = 0.15666 0.15666
#
# Static dielectric constant tensor:
#      x y z
#    x 1.620990 0.000000 0.000000 
#    y 0.000000 1.620990 0.000000 
#    z 0.000000 0.000000 1.595480 
# 
# From -- ./inp_files/12124.got.cif
#   From: 2010.05.17/outbox.cif.g08.bks.cpg/sg131_7_cif.got.tgz:12124.got - 2010.05.20 12:21:01.
