data_PCOD9566889
_publ_section_title
;
Structure prediction by ZEFSAII (Michael W. Deem and Ramdas Pophale) SiO2 
 PCOD9566889
Probable space group: P 42/M M C
;
_chemical_formula_sum "Si O2"
_cell_formula_units_Z 64
_cell_length_a 13.679373
_cell_length_b 13.679373
_cell_length_c 17.149654
_cell_angle_alpha 90.000000
_cell_angle_beta 90.000000
_cell_angle_gamma 90.000000
_cell_volume 3209.133218
_symmetry_space_group_name_H-M "P 42/M M C"
_symmetry_group_IT_number 131
_symmetry_cell_setting 'tetragonal'
loop_
_space_group_symop_operation_xyz
x,y,z
-x,-y,z
-y,x,1/2+z
y,-x,1/2+z
-x,y,-z
x,-y,-z
y,x,1/2-z
-y,-x,1/2-z
-x,-y,-z
x,y,-z
y,-x,1/2-z
-y,x,1/2-z
x,-y,z
-x,y,z
-y,-x,1/2+z
y,x,1/2+z
loop_
_atom_site_type_symbol
_atom_site_label
_atom_site_fract_x
_atom_site_fract_y
_atom_site_fract_z
Si Si1 0.802293 0.380989 0.915593
Si Si2 0.618346 0.390796 0.337648
Si Si3 0.883250 0.381683 0.583995
Si Si4 0.117501 0.385449 0.752403
O O1 0.813811 0.500000 0.916154
O O2 0.687870 0.359309 0.902947
O O3 0.851317 0.343739 0.835952
O O4 0.837617 0.345924 0.000000
O O5 0.643893 0.356108 0.250000
O O6 0.655231 0.500000 0.352750
O O7 0.500000 0.396324 0.334315
O O8 0.844495 0.346612 0.500000
O O9 0.874522 0.500000 0.584913
O O10 0.846043 0.345603 0.668533
O O11 0.000000 0.361857 0.583425
O O12 0.147695 0.500000 0.753993
O O13 0.000000 0.383466 0.749833
#
# Coordination Sequence:
#
# PCOD9566889 Si02
#       4
#    16  16  16  16
#     4   9  16  23  32  48  66  84 108 133 160 207
#     4   8  14  25  39  50  58  72  99 141 193 235
#     4   7   9  14  25  39  53  72  99 125 147 174
#     4   8  13  20  29  43  66  92 110 125 150 188
#
# _framework density 19.943080999999999
#
# number of rings (size 3 to 8) (size 9 to 14) (size 15 to 20)
#    0.000    4.000    0.000    3.000    0.000    1.000 
#    0.000    5.000    0.000    1.500    0.000    7.000 
#    0.000    0.000    0.000    0.000    0.000    0.500 
#
# Total GULP energy -356271.403035 kJ/mol
# GULP energy per Si atom -5566.740672 kJ/mol
# Density = 1.989769 g / cm^3
# Si number density = 19.943081 Si / 1000 Ang^3
#
#
#
# Elastic Constant Matrix: (Units=GPa)
#
#
# Indices 1 2 3 4 5 6 
#
# 1 30.0104 -3.3205 23.7955 0.0000 0.0000 0.0000
# 2 -3.3205 30.0100 23.7953 0.0000 0.0000 0.0000
# 3 23.7955 23.7953 248.3018 0.0000 0.0000 0.0000
# 4 0.0000 0.0000 0.0000 16.7512 0.0000 0.0000
# 5 0.0000 0.0000 0.0000 0.0000 16.7511 0.0000
# 6 0.0000 0.0000 0.0000 0.0000 0.0000 1.5424
#
#
#
# Elastic Compliance Matrix: (Units=1/GPa)
#
#
# Indices 1 2 3 4 5 6 
#
# 1 0.037596 0.007594 -0.004331 0.000000 0.000000 0.000000
# 2 0.007594 0.037596 -0.004331 0.000000 0.000000 0.000000
# 3 -0.004331 -0.004331 0.004857 0.000000 0.000000 0.000000
# 4 0.000000 0.000000 0.000000 0.059697 0.000000 0.000000
# 5 0.000000 0.000000 0.000000 0.000000 0.059697 0.000000
# 6 0.000000 0.000000 0.000000 0.000000 0.000000 0.648331
#
#
# Mechanical properties :
#
#
# Convention : Reuss Voigt Hill
#
# Bulk Modulus (GPa) = 12.83459 44.09584 28.46522
# Shear Modulus (GPa) = 5.70853 24.61240 15.16047
#
# Velocity S-wave (km/s) = 1.69370 3.51683 2.76014
# Velocity P-wave (km/s) = 3.20537 6.21689 4.94591
#
# Compressibility (1/GPa) = 0.07791442
#
# Stress axis : x y z
#
# Youngs Moduli (GPa) = 26.59868 26.59833 205.87176
#
# Poissons Ratio (x) = -0.20198 0.89156
# Poissons Ratio (y) = -0.20198 0.89156
# Poissons Ratio (z) = 0.11519 0.11519
#
# Static dielectric constant tensor:
#      x y z
#    x 1.728930 0.000000 0.000000 
#    y 0.000000 1.728930 0.000000 
#    z 0.000000 0.000000 1.799490 
# 
# From -- ./inp_files/7345.got.cif
#   From: 2010.05.17/outbox.cif.g08.bks.cpg/sg131_4_cif.got.tgz:7345.got - 2010.05.20 12:21:01.
