data_PCOD9566537
_publ_section_title
;
Structure prediction by ZEFSAII (Michael W. Deem and Ramdas Pophale) SiO2 
 PCOD9566537
Probable space group: P 42/M M C
;
_chemical_formula_sum "Si O2"
_cell_formula_units_Z 88
_cell_length_a 14.149965
_cell_length_b 14.149965
_cell_length_c 26.244435
_cell_angle_alpha 90.000000
_cell_angle_beta 90.000000
_cell_angle_gamma 90.000000
_cell_volume 5254.700392
_symmetry_space_group_name_H-M "P 42/M M C"
_symmetry_group_IT_number 131
_symmetry_cell_setting 'tetragonal'
loop_
_space_group_symop_operation_xyz
x,y,z
-x,-y,z
-y,x,1/2+z
y,-x,1/2+z
-x,y,-z
x,-y,-z
y,x,1/2-z
-y,-x,1/2-z
-x,-y,-z
x,y,-z
y,-x,1/2-z
-y,x,1/2-z
x,-y,z
-x,y,z
-y,-x,1/2+z
y,x,1/2+z
loop_
_atom_site_type_symbol
_atom_site_label
_atom_site_fract_x
_atom_site_fract_y
_atom_site_fract_z
Si Si1 0.115270 0.108164 0.000000
Si Si2 0.216764 0.112850 0.397907
Si Si3 0.608808 0.890251 0.147446
Si Si4 0.785589 0.389784 0.059927
Si Si5 0.258348 0.390182 0.442188
Si Si6 0.112567 0.799574 0.699371
O O1 0.145299 0.161953 0.050945
O O2 0.000000 0.107949 0.000000
O O3 0.147157 0.000000 0.000000
O O4 0.323181 0.149425 0.405424
O O5 0.162823 0.152735 0.349128
O O6 0.215184 0.000000 0.395982
O O7 0.500000 0.875378 0.163767
O O8 0.628325 0.821109 0.100108
O O9 0.687119 0.874667 0.190765
O O10 0.617774 0.000000 0.131297
O O11 0.788467 0.500000 0.072913
O O12 0.680957 0.345373 0.064499
O O13 0.813766 0.380462 0.000000
O O14 0.221709 0.376598 0.500000
O O15 0.286754 0.500000 0.437489
O O16 0.160231 0.839770 0.750000
O O17 0.000000 0.819528 0.699608
#
# Coordination Sequence:
#
# PCOD9566537 Si02
#       6
#     8  16  16  16  16  16
#     4   9  18  32  51  75 104 139 177 223 277 331
#     4  11  21  35  53  78 110 143 188 235 278 332
#     4   9  18  34  57  84 113 145 179 221 277 334
#     4  10  20  34  52  77 111 149 189 231 280 334
#     4   9  17  31  53  82 115 147 181 223 273 331
#     4  11  23  39  59  83 112 149 188 229 278 331
#
# _framework density 16.746911000000001
#
# number of rings (size 3 to 8) (size 9 to 14) (size 15 to 20)
#    0.000    2.091    2.727    1.091    0.000    3.091 
#    0.000    5.455    0.000    2.182    0.000    0.000 
#    0.000    0.000    0.000    0.000    0.000    0.000 
#
# Total GULP energy -490847.694618 kJ/mol
# GULP energy per Si atom -5577.814712 kJ/mol
# Density = 1.670879 g / cm^3
# Si number density = 16.746911 Si / 1000 Ang^3
#
#
#
# Elastic Constant Matrix: (Units=GPa)
#
#
# Indices 1 2 3 4 5 6 
#
# 1 108.1377 56.5808 63.2509 0.0000 0.0000 0.0000
# 2 56.5808 108.1382 63.2509 0.0000 0.0000 0.0000
# 3 63.2509 63.2509 117.5341 0.0000 0.0000 0.0000
# 4 0.0000 0.0000 0.0000 26.3613 0.0000 0.0000
# 5 0.0000 0.0000 0.0000 0.0000 26.3609 0.0000
# 6 0.0000 0.0000 0.0000 0.0000 0.0000 22.4807
#
#
#
# Elastic Compliance Matrix: (Units=1/GPa)
#
#
# Indices 1 2 3 4 5 6 
#
# 1 0.014872 -0.004524 -0.005569 0.000000 0.000000 0.000000
# 2 -0.004524 0.014872 -0.005568 0.000000 0.000000 0.000000
# 3 -0.005569 -0.005568 0.014502 0.000000 0.000000 0.000000
# 4 0.000000 0.000000 0.000000 0.037934 0.000000 0.000000
# 5 0.000000 0.000000 0.000000 0.000000 0.037935 0.000000
# 6 0.000000 0.000000 0.000000 0.000000 0.000000 0.044483
#
#
# Mechanical properties :
#
#
# Convention : Reuss Voigt Hill
#
# Bulk Modulus (GPa) = 77.38423 77.77501 77.57962
# Shear Modulus (GPa) = 24.97168 25.08908 25.03038
#
# Velocity S-wave (km/s) = 3.86569 3.87477 3.87023
# Velocity P-wave (km/s) = 8.13838 8.15847 8.14843
#
# Compressibility (1/GPa) = 0.01292253
#
# Stress axis : x y z
#
# Youngs Moduli (GPa) = 67.24149 67.24198 68.95832
#
# Poissons Ratio (x) = 0.30422 0.38400
# Poissons Ratio (y) = 0.30422 0.38399
# Poissons Ratio (z) = 0.37443 0.37443
#
# Static dielectric constant tensor:
#      x y z
#    x 1.571860 0.000000 0.000000 
#    y 0.000000 1.571860 0.000000 
#    z 0.000000 0.000000 1.538960 
# 
# From -- ./inp_files/11073.got.cif
#   From: 2010.05.17/outbox.cif.g08.bks.cpg/sg131_6_cif.got.tgz:11073.got - 2010.05.20 12:21:01.
