data_PCOD9566936
_publ_section_title
;
Structure prediction by ZEFSAII (Michael W. Deem and Ramdas Pophale) SiO2 
 PCOD9566936
Probable space group: P 42/M C M
;
_chemical_formula_sum "Si O2"
_cell_formula_units_Z 128
_cell_length_a 19.854274
_cell_length_b 19.854274
_cell_length_c 24.140474
_cell_angle_alpha 90.000000
_cell_angle_beta 90.000000
_cell_angle_gamma 90.000000
_cell_volume 9515.986460
_symmetry_space_group_name_H-M "P 42/M C M"
_symmetry_group_IT_number 132
_symmetry_cell_setting 'tetragonal'
loop_
_space_group_symop_operation_xyz
x,y,z
-y,x,1/2+z
-x,-y,z
y,-x,1/2+z
x,-y,1/2-z
-x,y,1/2-z
y,x,-z
-y,-x,-z
-x,-y,-z
y,-x,1/2-z
x,y,-z
-y,x,1/2-z
-x,y,1/2+z
x,-y,1/2+z
-y,-x,z
y,x,z
loop_
_atom_site_type_symbol
_atom_site_label
_atom_site_fract_x
_atom_site_fract_y
_atom_site_fract_z
Si Si1 0.421466 0.313935 0.756719
Si Si2 0.598769 0.297172 0.388160
Si Si3 0.418838 0.009860 0.936786
Si Si4 0.160970 0.419568 0.748925
Si Si5 0.534050 0.638494 0.433611
Si Si6 0.146334 0.430762 0.124684
Si Si7 0.644063 0.246480 0.066080
Si Si8 0.592965 0.879113 0.632470
O O1 0.500000 0.331282 0.750000
O O2 0.371167 0.371167 0.735188
O O3 0.408331 0.303678 0.821909
O O4 0.408563 0.239457 0.732748
O O5 0.669385 0.330616 0.405122
O O6 0.538581 0.342582 0.411685
O O7 0.587226 0.218812 0.401433
O O8 0.393999 0.949182 0.898292
O O9 0.500000 0.000000 0.938228
O O10 0.405777 0.082663 0.910150
O O11 0.394517 0.005118 0.000000
O O12 0.151481 0.500000 0.750000
O O13 0.146061 0.400813 0.812553
O O14 0.118312 0.391403 0.697964
O O15 0.530626 0.633931 0.500000
O O16 0.570286 0.570286 0.412984
O O17 0.584645 0.700096 0.420429
O O18 0.139156 0.512597 0.127661
O O19 0.713453 0.286548 0.075941
O O20 0.632653 0.180193 0.101646
O O21 0.639159 0.232203 0.000000
#
# Coordination Sequence:
#
# PCOD9566936 Si02
#       8
#    16  16  16  16  16  16  16  16
#     4   9  18  29  39  53  73  98 133 173 210 248
#     4  10  19  31  43  55  73 101 134 170 209 244
#     4   9  18  28  42  62  78  97 122 153 199 244
#     4   8  16  27  39  55  73  98 125 155 200 242
#     4   9  18  30  41  54  72  96 129 169 211 248
#     4   9  17  30  41  56  80 101 126 165 201 240
#     4   9  17  27  40  59  80 103 129 159 199 243
#     4  10  16  27  44  60  78  99 127 160 196 243
#
# _framework density 13.451048
#
# number of rings (size 3 to 8) (size 9 to 14) (size 15 to 20)
#    0.000    2.875    1.250    1.875    0.000    3.125 
#    0.000    4.375    0.000    0.000    0.000    0.000 
#    0.000    0.000    0.000    0.000    0.000    0.625 
#
# Total GULP energy -712673.082436 kJ/mol
# GULP energy per Si atom -5567.758457 kJ/mol
# Density = 1.342043 g / cm^3
# Si number density = 13.451048 Si / 1000 Ang^3
#
#
#
# Elastic Constant Matrix: (Units=GPa)
#
#
# Indices 1 2 3 4 5 6 
#
# 1 55.4780 29.8433 31.2243 0.0000 0.0000 0.0000
# 2 29.8433 55.4780 31.2243 0.0000 0.0000 0.0000
# 3 31.2243 31.2243 52.3389 0.0000 0.0000 0.0000
# 4 0.0000 0.0000 0.0000 5.2602 0.0000 0.0000
# 5 0.0000 0.0000 0.0000 0.0000 5.2602 0.0000
# 6 0.0000 0.0000 0.0000 0.0000 0.0000 7.1748
#
#
#
# Elastic Compliance Matrix: (Units=1/GPa)
#
#
# Indices 1 2 3 4 5 6 
#
# 1 0.029907 -0.009102 -0.012412 0.000000 0.000000 0.000000
# 2 -0.009102 0.029907 -0.012412 0.000000 0.000000 0.000000
# 3 -0.012412 -0.012412 0.033915 0.000000 0.000000 0.000000
# 4 0.000000 0.000000 0.000000 0.190106 0.000000 0.000000
# 5 0.000000 0.000000 0.000000 0.000000 0.190106 0.000000
# 6 0.000000 0.000000 0.000000 0.000000 0.000000 0.139378
#
#
# Mechanical properties :
#
#
# Convention : Reuss Voigt Hill
#
# Bulk Modulus (GPa) = 38.64261 38.65316 38.64789
# Shear Modulus (GPa) = 7.24852 8.27258 7.76055
#
# Velocity S-wave (km/s) = 2.32390 2.48264 2.40458
# Velocity P-wave (km/s) = 5.99928 6.08412 6.04185
#
# Compressibility (1/GPa) = 0.02587817
#
# Stress axis : x y z
#
# Youngs Moduli (GPa) = 33.43679 33.43679 29.48514
#
# Poissons Ratio (x) = 0.30435 0.36596
# Poissons Ratio (y) = 0.30435 0.36596
# Poissons Ratio (z) = 0.41501 0.41501
#
# Static dielectric constant tensor:
#      x y z
#    x 1.423080 0.000000 0.000000 
#    y 0.000000 1.423080 0.000000 
#    z 0.000000 0.000000 1.482310 
# 
# From -- ./inp_files/9396.got.cif
#   From: 2010.05.17/outbox.cif.g08.bks.cpg/sg132_5_cif.got.tgz:9396.got - 2010.05.20 12:30:18.
