data_PCOD9566207
_publ_section_title
;
Structure prediction by ZEFSAII (Michael W. Deem and Ramdas Pophale) SiO2 
 PCOD9566207
Probable space group: P 42/M M C
;
_chemical_formula_sum "Si O2"
_cell_formula_units_Z 80
_cell_length_a 23.222541
_cell_length_b 23.222541
_cell_length_c 7.491619
_cell_angle_alpha 90.000000
_cell_angle_beta 90.000000
_cell_angle_gamma 90.000000
_cell_volume 4040.128319
_symmetry_space_group_name_H-M "P 42/M M C"
_symmetry_group_IT_number 131
_symmetry_cell_setting 'tetragonal'
loop_
_space_group_symop_operation_xyz
x,y,z
-x,-y,z
-y,x,1/2+z
y,-x,1/2+z
-x,y,-z
x,-y,-z
y,x,1/2-z
-y,-x,1/2-z
-x,-y,-z
x,y,-z
y,-x,1/2-z
-y,x,1/2-z
x,-y,z
-x,y,z
-y,-x,1/2+z
y,x,1/2+z
loop_
_atom_site_type_symbol
_atom_site_label
_atom_site_fract_x
_atom_site_fract_y
_atom_site_fract_z
Si Si1 0.939402 0.430109 0.291645
Si Si2 0.000000 0.221928 0.300572
Si Si3 0.813041 0.565177 0.718851
Si Si4 0.223908 0.684306 0.287100
Si Si5 0.870593 0.775955 0.285170
Si Si6 0.094154 0.000000 0.292141
O O1 0.939352 0.412750 0.500000
O O2 0.940475 0.500000 0.288518
O O3 0.877114 0.416161 0.218894
O O4 0.000000 0.409551 0.212453
O O5 0.936325 0.232721 0.218372
O O6 0.000000 0.152763 0.313223
O O7 0.000000 0.248478 0.500000
O O8 0.814424 0.562456 0.500000
O O9 0.800275 0.500000 0.778271
O O10 0.774618 0.618628 0.775979
O O11 0.281945 0.718056 0.250000
O O12 0.215300 0.682043 0.500000
O O13 0.171916 0.725202 0.219177
O O14 0.836424 0.836424 0.250000
O O15 0.874658 0.772919 0.500000
O O16 0.054968 0.945033 0.250000
O O17 0.108670 0.000000 0.500000
#
# Coordination Sequence:
#
# PCOD9566207 Si02
#       6
#    16   8  16  16  16   8
#     4   7   9  14  25  45  76 109 134 160 201 247
#     4  10  19  31  44  60  82 106 138 181 222 257
#     4   8  13  22  38  61  87 113 143 178 214 254
#     4   9  17  30  46  64  87 118 150 177 212 255
#     4   9  18  31  45  60  81 110 142 177 216 260
#     4  11  21  32  45  62  82 103 129 166 220 281
#
# _framework density 19.801352999999999
#
# number of rings (size 3 to 8) (size 9 to 14) (size 15 to 20)
#    0.000    3.300    0.000    3.600    0.000    2.400 
#    1.800    0.000    0.000    0.600    0.000    0.000 
#    0.000    0.400    0.000   10.000    0.000    4.000 
#
# Total GULP energy -445418.204876 kJ/mol
# GULP energy per Si atom -5567.727561 kJ/mol
# Density = 1.975628 g / cm^3
# Si number density = 19.801353 Si / 1000 Ang^3
#
#
#
# Elastic Constant Matrix: (Units=GPa)
#
#
# Indices 1 2 3 4 5 6 
#
# 1 111.5314 80.4176 -0.2984 0.0000 0.0000 0.0000
# 2 80.4176 111.5327 -0.3055 0.0000 0.0000 0.0000
# 3 -0.2984 -0.3055 63.0668 0.0000 0.0000 0.0000
# 4 0.0000 0.0000 0.0000 2.0784 0.0000 0.0000
# 5 0.0000 0.0000 0.0000 0.0000 2.0793 0.0000
# 6 0.0000 0.0000 0.0000 0.0000 0.0000 14.7085
#
#
#
# Elastic Compliance Matrix: (Units=1/GPa)
#
#
# Indices 1 2 3 4 5 6 
#
# 1 0.018675 -0.013465 0.000023 0.000000 0.000000 0.000000
# 2 -0.013465 0.018674 0.000027 0.000000 0.000000 0.000000
# 3 0.000023 0.000027 0.015856 0.000000 0.000000 0.000000
# 4 0.000000 0.000000 0.000000 0.481137 0.000000 0.000000
# 5 0.000000 0.000000 0.000000 0.000000 0.480925 0.000000
# 6 0.000000 0.000000 0.000000 0.000000 0.000000 0.067988
#
#
# Mechanical properties :
#
#
# Convention : Reuss Voigt Hill
#
# Bulk Modulus (GPa) = 37.91357 49.52870 43.72114
# Shear Modulus (GPa) = 4.46876 17.52772 10.99824
#
# Velocity S-wave (km/s) = 1.50389 2.97842 2.35931
# Velocity P-wave (km/s) = 4.71212 6.07413 5.43595
#
# Compressibility (1/GPa) = 0.02637578
#
# Stress axis : x y z
#
# Youngs Moduli (GPa) = 53.54837 53.54896 63.06581
#
# Poissons Ratio (x) = 0.72103 -0.00146
# Poissons Ratio (y) = 0.72102 -0.00169
# Poissons Ratio (z) = -0.00124 -0.00143
#
# Static dielectric constant tensor:
#      x y z
#    x 1.729610 0.000000 0.000000 
#    y 0.000000 1.729610 0.000000 
#    z 0.000000 0.000000 1.892510 
# 
# From -- ./inp_files/2084.got.cif
#   From: 2010.05.17/outbox.cif.g08.bks.cpg/sg131_2_cif.got.tgz:2084.got - 2010.05.20 12:21:01.
