data_PCOD9566411
_publ_section_title
;
Structure prediction by ZEFSAII (Michael W. Deem and Ramdas Pophale) SiO2 
 PCOD9566411
Probable space group: P 42/M M C
;
_chemical_formula_sum "Si O2"
_cell_formula_units_Z 72
_cell_length_a 15.109171
_cell_length_b 15.109171
_cell_length_c 20.427130
_cell_angle_alpha 90.000000
_cell_angle_beta 90.000000
_cell_angle_gamma 90.000000
_cell_volume 4663.249213
_symmetry_space_group_name_H-M "P 42/M M C"
_symmetry_group_IT_number 131
_symmetry_cell_setting 'tetragonal'
loop_
_space_group_symop_operation_xyz
x,y,z
-x,-y,z
-y,x,1/2+z
y,-x,1/2+z
-x,y,-z
x,-y,-z
y,x,1/2-z
-y,-x,1/2-z
-x,-y,-z
x,y,-z
y,-x,1/2-z
-y,x,1/2-z
x,-y,z
-x,y,z
-y,-x,1/2+z
y,x,1/2+z
loop_
_atom_site_type_symbol
_atom_site_label
_atom_site_fract_x
_atom_site_fract_y
_atom_site_fract_z
Si Si1 0.105231 0.105154 0.076514
Si Si2 0.392907 0.000000 0.427541
Si Si3 0.599773 0.896798 0.188434
Si Si4 0.601033 0.834880 0.338488
Si Si5 0.213432 0.769318 0.672940
O O1 0.160212 0.165211 0.126313
O O2 0.000000 0.119603 0.084979
O O3 0.122085 0.000000 0.087986
O O4 0.126617 0.123368 0.000000
O O5 0.371302 0.088191 0.388451
O O6 0.500000 0.000000 0.431195
O O7 0.354708 0.000000 0.500000
O O8 0.500000 0.878457 0.164650
O O9 0.599210 0.879114 0.266612
O O10 0.675744 0.833905 0.161460
O O11 0.619729 0.000000 0.176831
O O12 0.500000 0.804880 0.352523
O O13 0.681010 0.765669 0.339169
O O14 0.204276 0.795725 0.750000
#
# Coordination Sequence:
#
# PCOD9566411 Si02
#       5
#    16   8  16  16  16
#     4   9  19  34  47  62  92 130 156 179 227 288
#     4   9  16  26  42  64  91 125 158 179 209 275
#     4   9  16  29  48  66  89 119 151 196 248 284
#     4   9  17  29  42  62  95 125 148 186 239 281
#     4  10  20  29  47  72  91 116 160 204 229 274
#
# _framework density 15.439878
#
# number of rings (size 3 to 8) (size 9 to 14) (size 15 to 20)
#    0.000    2.778    1.111    1.333    1.556    2.667 
#    0.000    1.111    0.000    1.333    0.000    7.778 
#    0.000    0.000    0.000    7.556    0.000    8.222 
#
# Total GULP energy -400937.824367 kJ/mol
# GULP energy per Si atom -5568.580894 kJ/mol
# Density = 1.540474 g / cm^3
# Si number density = 15.439878 Si / 1000 Ang^3
#
#
#
# Elastic Constant Matrix: (Units=GPa)
#
#
# Indices 1 2 3 4 5 6 
#
# 1 98.8992 78.9601 31.8320 0.0000 0.0000 0.0000
# 2 78.9601 98.8989 31.8321 0.0000 0.0000 0.0000
# 3 31.8320 31.8321 49.0484 0.0000 0.0000 0.0000
# 4 0.0000 0.0000 0.0000 13.2573 0.0000 0.0000
# 5 0.0000 0.0000 0.0000 0.0000 13.2573 0.0000
# 6 0.0000 0.0000 0.0000 0.0000 0.0000 23.6680
#
#
#
# Elastic Compliance Matrix: (Units=1/GPa)
#
#
# Indices 1 2 3 4 5 6 
#
# 1 0.028738 -0.021415 -0.004753 0.000000 0.000000 0.000000
# 2 -0.021415 0.028738 -0.004753 0.000000 0.000000 0.000000
# 3 -0.004753 -0.004753 0.026557 0.000000 0.000000 0.000000
# 4 0.000000 0.000000 0.000000 0.075430 0.000000 0.000000
# 5 0.000000 0.000000 0.000000 0.000000 0.075430 0.000000
# 6 0.000000 0.000000 0.000000 0.000000 0.000000 0.042251
#
#
# Mechanical properties :
#
#
# Convention : Reuss Voigt Hill
#
# Bulk Modulus (GPa) = 45.05985 59.12164 52.09075
# Shear Modulus (GPa) = 14.43483 16.98469 15.70976
#
# Velocity S-wave (km/s) = 3.06094 3.32030 3.19326
# Velocity P-wave (km/s) = 6.46064 7.28518 6.88527
#
# Compressibility (1/GPa) = 0.02219270
#
# Stress axis : x y z
#
# Youngs Moduli (GPa) = 34.79675 34.79659 37.65419
#
# Poissons Ratio (x) = 0.74516 0.17897
# Poissons Ratio (y) = 0.74516 0.17898
# Poissons Ratio (z) = 0.16539 0.16539
#
# Static dielectric constant tensor:
#      x y z
#    x 1.519330 0.000000 0.000000 
#    y 0.000000 1.519330 0.000000 
#    z 0.000000 0.000000 1.515250 
# 
# From -- ./inp_files/7522.got.cif
#   From: 2010.05.17/outbox.cif.g08.bks.cpg/sg131_4_cif.got.tgz:7522.got - 2010.05.20 12:21:01.
