data_PCOD9566180
_publ_section_title
;
Structure prediction by ZEFSAII (Michael W. Deem and Ramdas Pophale) SiO2 
 PCOD9566180
Probable space group: P 42/M M C
;
_chemical_formula_sum "Si O2"
_cell_formula_units_Z 112
_cell_length_a 30.132393
_cell_length_b 30.132393
_cell_length_c 8.094910
_cell_angle_alpha 90.000000
_cell_angle_beta 90.000000
_cell_angle_gamma 90.000000
_cell_volume 7349.863452
_symmetry_space_group_name_H-M "P 42/M M C"
_symmetry_group_IT_number 131
_symmetry_cell_setting 'tetragonal'
loop_
_space_group_symop_operation_xyz
x,y,z
-x,-y,z
-y,x,1/2+z
y,-x,1/2+z
-x,y,-z
x,-y,-z
y,x,1/2-z
-y,-x,1/2-z
-x,-y,-z
x,y,-z
y,-x,1/2-z
-y,x,1/2-z
x,-y,z
-x,y,z
-y,-x,1/2+z
y,x,1/2+z
loop_
_atom_site_type_symbol
_atom_site_label
_atom_site_fract_x
_atom_site_fract_y
_atom_site_fract_z
Si Si1 0.450080 0.621644 0.698847
Si Si2 0.277345 0.448852 0.199783
Si Si3 0.203026 0.380712 0.694813
Si Si4 0.275614 0.891407 0.315427
Si Si5 0.275386 0.051421 0.000000
Si Si6 0.106954 0.616551 0.182331
Si Si7 0.721550 0.793292 0.802129
Si Si8 0.948737 0.383749 0.500000
O O1 0.413910 0.586091 0.750000
O O2 0.451424 0.622710 0.500000
O O3 0.500000 0.610475 0.757441
O O4 0.439548 0.671945 0.753198
O O5 0.267200 0.500000 0.245068
O O6 0.242889 0.414087 0.271797
O O7 0.275714 0.446102 0.000000
O O8 0.192441 0.379455 0.500000
O O9 0.158287 0.395328 0.787165
O O10 0.214639 0.330063 0.744953
O O11 0.260669 0.904013 0.500000
O O12 0.260639 0.922705 0.165225
O O13 0.329512 0.893744 0.314757
O O14 0.264480 0.840147 0.277747
O O15 0.329559 0.052366 0.000000
O O16 0.262010 0.000000 0.000000
O O17 0.076797 0.601446 0.334747
O O18 0.092288 0.602083 0.000000
O O19 0.753538 0.753538 0.750000
O O20 0.723160 0.798401 0.000000
O O21 0.000000 0.397172 0.500000
#
# Coordination Sequence:
#
# PCOD9566180 Si02
#       8
#    16  16  16  16   8  16  16   8
#     4   9  19  35  52  70  93 119 146 179 220 265
#     4   9  19  35  51  67  90 118 146 180 224 270
#     4  10  19  31  47  66  90 117 149 189 226 270
#     4   9  16  27  41  57  82 114 147 188 234 275
#     4   9  16  26  40  58  82 113 150 191 234 279
#     4   9  16  27  43  61  86 120 150 182 229 273
#     4  10  19  30  43  62  88 118 153 190 228 273
#     4   9  16  26  40  62  91 118 151 190 223 271
#
# _framework density 15.238379
#
# number of rings (size 3 to 8) (size 9 to 14) (size 15 to 20)
#    0.000    2.714    1.429    1.714    0.000    4.143 
#    0.000    7.857    0.000    0.000    0.000    0.000 
#    0.000    1.143    0.000    3.000    0.000    2.857 
#
# Total GULP energy -624065.429188 kJ/mol
# GULP energy per Si atom -5572.012761 kJ/mol
# Density = 1.520370 g / cm^3
# Si number density = 15.238379 Si / 1000 Ang^3
#
#
#
# Elastic Constant Matrix: (Units=GPa)
#
#
# Indices 1 2 3 4 5 6 
#
# 1 67.6559 49.2935 38.6247 0.0000 0.0000 0.0000
# 2 49.2935 67.6555 38.6251 0.0000 0.0000 0.0000
# 3 38.6247 38.6251 91.1118 0.0000 0.0000 0.0000
# 4 0.0000 0.0000 0.0000 7.9863 0.0000 0.0000
# 5 0.0000 0.0000 0.0000 0.0000 7.9858 0.0000
# 6 0.0000 0.0000 0.0000 0.0000 0.0000 -2.0960
#
#
#
# Elastic Compliance Matrix: (Units=1/GPa)
#
#
# Indices 1 2 3 4 5 6 
#
# 1 0.033168 -0.021292 -0.005035 0.000000 0.000000 0.000000
# 2 -0.021292 0.033168 -0.005035 0.000000 0.000000 0.000000
# 3 -0.005035 -0.005035 0.015244 0.000000 0.000000 0.000000
# 4 0.000000 0.000000 0.000000 0.125215 0.000000 0.000000
# 5 0.000000 0.000000 0.000000 0.000000 0.125223 0.000000
# 6 0.000000 0.000000 0.000000 0.000000 0.000000 -0.477106
#
#
# Mechanical properties :
#
#
# Convention : Reuss Voigt Hill
#
# Bulk Modulus (GPa) = 53.02770 53.27887 53.15328
# Shear Modulus (GPa) = -65.72050 9.43387 -28.14331
#
# Velocity S-wave (km/s) = -6.57434 2.49084 -4.30219
# Velocity P-wave (km/s) = 4.77021 6.58118 3.20601
#
# Compressibility (1/GPa) = 0.01885807
#
# Stress axis : x y z
#
# Youngs Moduli (GPa) = 30.14969 30.14930 65.59846
#
# Poissons Ratio (x) = 0.64193 0.33026
# Poissons Ratio (y) = 0.64194 0.33028
# Poissons Ratio (z) = 0.15179 0.15180
#
# Static dielectric constant tensor:
#      x y z
#    x 1.484340 0.000000 0.000000 
#    y 0.000000 1.484340 0.000000 
#    z 0.000000 0.000000 1.548130 
# 
# From -- ./inp_files/2763.got.cif
#   From: 2010.05.17/outbox.cif.g08.bks.cpg/sg131_2_cif.got.tgz:2763.got - 2010.05.20 12:21:01.
