data_PCOD9566140
_publ_section_title
;
Structure prediction by ZEFSAII (Michael W. Deem and Ramdas Pophale) SiO2 
 PCOD9566140
Probable space group: P 42/M M C
;
_chemical_formula_sum "Si O2"
_cell_formula_units_Z 56
_cell_length_a 12.493858
_cell_length_b 12.493858
_cell_length_c 18.759743
_cell_angle_alpha 90.000000
_cell_angle_beta 90.000000
_cell_angle_gamma 90.000000
_cell_volume 2928.329993
_symmetry_space_group_name_H-M "P 42/M M C"
_symmetry_group_IT_number 131
_symmetry_cell_setting 'tetragonal'
loop_
_space_group_symop_operation_xyz
x,y,z
-x,-y,z
-y,x,1/2+z
y,-x,1/2+z
-x,y,-z
x,-y,-z
y,x,1/2-z
-y,-x,1/2-z
-x,-y,-z
x,y,-z
y,-x,1/2-z
-y,x,1/2-z
x,-y,z
-x,y,z
-y,-x,1/2+z
y,x,1/2+z
loop_
_atom_site_type_symbol
_atom_site_label
_atom_site_fract_x
_atom_site_fract_y
_atom_site_fract_z
Si Si1 0.835314 0.500000 0.259017
Si Si2 0.305919 0.710241 0.580677
Si Si3 0.628382 0.500000 0.176706
Si Si4 0.123960 0.265501 0.804304
Si Si5 0.159634 0.500000 0.421402
O O1 0.704235 0.500000 0.247792
O O2 0.870880 0.389558 0.221964
O O3 0.879296 0.500000 0.339507
O O4 0.341193 0.733795 0.500000
O O5 0.399796 0.667065 0.630701
O O6 0.259965 0.814104 0.620406
O O7 0.225502 0.610645 0.577850
O O8 0.500000 0.500000 0.180646
O O9 0.192528 0.192528 0.750000
O O10 0.000000 0.233436 0.807714
O O11 0.106241 0.500000 0.500000
#
# Coordination Sequence:
#
# PCOD9566140 Si02
#       5
#     8  16   8  16   8
#     4  10  21  39  57  86 122 156 198 252 304 362
#     4  10  20  34  54  85 121 157 195 240 295 354
#     4  10  19  29  50  84 126 163 199 238 290 356
#     4  11  23  40  62  87 117 157 202 250 300 358
#     4  10  18  32  56  83 116 154 194 244 301 354
#
# _framework density 19.123526999999999
#
# number of rings (size 3 to 8) (size 9 to 14) (size 15 to 20)
#    0.000    1.714    4.286    0.857    0.000    1.429 
#    2.571    0.000    0.000    9.429    0.000    2.000 
#    0.000    0.000    0.000    0.000    0.000    0.000 
#
# Total GULP energy -312028.458479 kJ/mol
# GULP energy per Si atom -5571.936759 kJ/mol
# Density = 1.908000 g / cm^3
# Si number density = 19.123527 Si / 1000 Ang^3
#
#
#
# Elastic Constant Matrix: (Units=GPa)
#
#
# Indices 1 2 3 4 5 6 
#
# 1 123.0396 33.4417 37.7556 0.0000 0.0000 0.0000
# 2 33.4417 123.0396 37.7556 0.0000 0.0000 0.0000
# 3 37.7556 37.7556 147.7764 0.0000 0.0000 0.0000
# 4 0.0000 0.0000 0.0000 -15.0521 0.0000 0.0000
# 5 0.0000 0.0000 0.0000 0.0000 -15.0521 0.0000
# 6 0.0000 0.0000 0.0000 0.0000 0.0000 34.0326
#
#
#
# Elastic Compliance Matrix: (Units=1/GPa)
#
#
# Indices 1 2 3 4 5 6 
#
# 1 0.009225 -0.001936 -0.001862 0.000000 0.000000 0.000000
# 2 -0.001936 0.009225 -0.001862 0.000000 0.000000 0.000000
# 3 -0.001862 -0.001862 0.007719 0.000000 0.000000 0.000000
# 4 0.000000 0.000000 0.000000 -0.066436 0.000000 0.000000
# 5 0.000000 0.000000 0.000000 0.000000 -0.066436 0.000000
# 6 0.000000 0.000000 0.000000 0.000000 0.000000 0.029384
#
#
# Mechanical properties :
#
#
# Convention : Reuss Voigt Hill
#
# Bulk Modulus (GPa) = 67.35042 67.97347 67.66195
# Shear Modulus (GPa) = -81.90094 19.77921 -31.06086
#
# Velocity S-wave (km/s) = -6.55136 3.21952 -4.03454
# Velocity P-wave (km/s) = 4.68316 7.03150 3.70878
#
# Compressibility (1/GPa) = 0.01484772
#
# Stress axis : x y z
#
# Youngs Moduli (GPa) = 108.39991 108.39991 129.55719
#
# Poissons Ratio (x) = 0.20985 0.24128
# Poissons Ratio (y) = 0.20985 0.24128
# Poissons Ratio (z) = 0.20188 0.20188
#
# Static dielectric constant tensor:
#      x y z
#    x 1.676940 0.000000 0.000000 
#    y 0.000000 1.676940 0.000000 
#    z 0.000000 0.000000 1.694590 
# 
# From -- ./inp_files/9033.got.cif
#   From: 2010.05.17/outbox.cif.g08.bks.cpg/sg131_5_cif.got.tgz:9033.got - 2010.05.20 12:21:01.
