data_PCOD9566837
_publ_section_title
;
Structure prediction by ZEFSAII (Michael W. Deem and Ramdas Pophale) SiO2 
 PCOD9566837
Probable space group: P 42/M M C
;
_chemical_formula_sum "Si O2"
_cell_formula_units_Z 72
_cell_length_a 14.581462
_cell_length_b 14.581462
_cell_length_c 18.338849
_cell_angle_alpha 90.000000
_cell_angle_beta 90.000000
_cell_angle_gamma 90.000000
_cell_volume 3899.188360
_symmetry_space_group_name_H-M "P 42/M M C"
_symmetry_group_IT_number 131
_symmetry_cell_setting 'tetragonal'
loop_
_space_group_symop_operation_xyz
x,y,z
-x,-y,z
-y,x,1/2+z
y,-x,1/2+z
-x,y,-z
x,-y,-z
y,x,1/2-z
-y,-x,1/2-z
-x,-y,-z
x,y,-z
y,-x,1/2-z
-y,x,1/2-z
x,-y,z
-x,y,z
-y,-x,1/2+z
y,x,1/2+z
loop_
_atom_site_type_symbol
_atom_site_label
_atom_site_fract_x
_atom_site_fract_y
_atom_site_fract_z
Si Si1 0.109745 0.894973 0.833257
Si Si2 0.318890 0.389610 0.173193
Si Si3 0.766433 0.758832 0.913153
Si Si4 0.500000 0.609885 0.920153
Si Si5 0.894811 0.603268 0.588418
O O1 0.133190 0.866811 0.750000
O O2 0.149683 0.823029 0.889941
O O3 0.000000 0.896891 0.836444
O O4 0.142066 0.000000 0.846430
O O5 0.344282 0.344282 0.250000
O O6 0.306733 0.500000 0.179621
O O7 0.238437 0.335265 0.132144
O O8 0.408019 0.370711 0.123042
O O9 0.678896 0.821424 0.889844
O O10 0.763138 0.742774 0.000000
O O11 0.500000 0.500000 0.927918
O O12 0.500000 0.654189 0.000000
O O13 0.896011 0.603448 0.500000
O O14 0.870570 0.500000 0.612315
O O15 0.000000 0.622688 0.611718
#
# Coordination Sequence:
#
# PCOD9566837 Si02
#       5
#    16  16  16   8  16
#     4   9  19  38  62  86 115 151 190 234 287 349
#     4  11  22  37  55  76 109 153 197 241 288 338
#     4  11  22  33  53  84 115 147 188 239 291 347
#     4   9  18  32  52  74  99 137 187 238 280 322
#     4   8  15  28  44  66 101 140 174 216 276 341
#
# _framework density 18.465382000000002
#
# number of rings (size 3 to 8) (size 9 to 14) (size 15 to 20)
#    0.000    2.333    1.111    3.333    1.556    3.111 
#    0.000    1.111    0.000    0.667    0.000    1.556 
#    0.000    0.000    0.000    0.000    0.000    0.000 
#
# Total GULP energy -401577.632652 kJ/mol
# GULP energy per Si atom -5577.467120 kJ/mol
# Density = 1.842335 g / cm^3
# Si number density = 18.465382 Si / 1000 Ang^3
#
#
#
# Elastic Constant Matrix: (Units=GPa)
#
#
# Indices 1 2 3 4 5 6 
#
# 1 44.6608 18.3780 25.3525 0.0000 0.0000 0.0000
# 2 18.3780 44.6606 25.3524 0.0000 0.0000 0.0000
# 3 25.3525 25.3524 97.2606 0.0000 0.0000 0.0000
# 4 0.0000 0.0000 0.0000 17.9063 0.0000 0.0000
# 5 0.0000 0.0000 0.0000 0.0000 17.9061 0.0000
# 6 0.0000 0.0000 0.0000 0.0000 0.0000 30.3438
#
#
#
# Elastic Compliance Matrix: (Units=1/GPa)
#
#
# Indices 1 2 3 4 5 6 
#
# 1 0.029060 -0.008988 -0.005232 0.000000 0.000000 0.000000
# 2 -0.008988 0.029060 -0.005232 0.000000 0.000000 0.000000
# 3 -0.005232 -0.005232 0.013009 0.000000 0.000000 0.000000
# 4 0.000000 0.000000 0.000000 0.055846 0.000000 0.000000
# 5 0.000000 0.000000 0.000000 0.000000 0.055847 0.000000
# 6 0.000000 0.000000 0.000000 0.000000 0.000000 0.032956
#
#
# Mechanical properties :
#
#
# Convention : Reuss Voigt Hill
#
# Bulk Modulus (GPa) = 31.03224 36.08310 33.55767
# Shear Modulus (GPa) = 18.83784 21.06450 19.95117
#
# Velocity S-wave (km/s) = 3.19748 3.38117 3.29061
# Velocity P-wave (km/s) = 5.52032 5.90140 5.71403
#
# Compressibility (1/GPa) = 0.03222455
#
# Stress axis : x y z
#
# Youngs Moduli (GPa) = 34.41199 34.41188 76.86840
#
# Poissons Ratio (x) = 0.30930 0.40217
# Poissons Ratio (y) = 0.30930 0.40217
# Poissons Ratio (z) = 0.18004 0.18004
#
# Static dielectric constant tensor:
#      x y z
#    x 1.663370 0.000000 0.000000 
#    y 0.000000 1.663370 0.000000 
#    z 0.000000 0.000000 1.636450 
# 
# From -- ./inp_files/7566.got.cif
#   From: 2010.05.17/outbox.cif.g08.bks.cpg/sg131_4_cif.got.tgz:7566.got - 2010.05.20 12:21:01.
