data_PCOD9566667
_publ_section_title
;
Structure prediction by ZEFSAII (Michael W. Deem and Ramdas Pophale) SiO2 
 PCOD9566667
Probable space group: P 42/M M C
;
_chemical_formula_sum "Si O2"
_cell_formula_units_Z 64
_cell_length_a 15.447202
_cell_length_b 15.447202
_cell_length_c 14.230884
_cell_angle_alpha 90.000000
_cell_angle_beta 90.000000
_cell_angle_gamma 90.000000
_cell_volume 3395.717323
_symmetry_space_group_name_H-M "P 42/M M C"
_symmetry_group_IT_number 131
_symmetry_cell_setting 'tetragonal'
loop_
_space_group_symop_operation_xyz
x,y,z
-x,-y,z
-y,x,1/2+z
y,-x,1/2+z
-x,y,-z
x,-y,-z
y,x,1/2-z
-y,-x,1/2-z
-x,-y,-z
x,y,-z
y,-x,1/2-z
-y,x,1/2-z
x,-y,z
-x,y,z
-y,-x,1/2+z
y,x,1/2+z
loop_
_atom_site_type_symbol
_atom_site_label
_atom_site_fract_x
_atom_site_fract_y
_atom_site_fract_z
Si Si1 0.600480 0.592867 0.637188
Si Si2 0.841242 0.099542 0.888707
Si Si3 0.095303 0.269380 0.211864
Si Si4 0.216711 0.602937 0.894533
O O1 0.598583 0.598583 0.750000
O O2 0.640386 0.500000 0.611298
O O3 0.500000 0.590434 0.606640
O O4 0.635258 0.683962 0.603314
O O5 0.757372 0.104645 0.820970
O O6 0.896572 0.179141 0.847013
O O7 0.875345 0.000000 0.875885
O O8 0.826851 0.111237 0.000000
O O9 0.164970 0.337551 0.176728
O O10 0.000000 0.305619 0.196089
O O11 0.216807 0.500000 0.870326
O O12 0.180454 0.611442 0.000000
#
# Coordination Sequence:
#
# PCOD9566667 Si02
#       4
#    16  16  16  16
#     4   8  15  29  49  72  99 135 178 224 273 317
#     4   9  19  36  58  82 105 134 177 227 277 326
#     4  10  21  36  55  80 112 147 179 218 268 320
#     4  10  21  34  50  77 111 147 187 226 265 318
#
# _framework density 18.847269000000001
#
# number of rings (size 3 to 8) (size 9 to 14) (size 15 to 20)
#    0.000    2.750    0.000    1.500    3.500    3.500 
#    0.000    7.500    0.000    0.750    0.000    3.500 
#    0.000    0.000    0.000    0.000    0.000    0.750 
#
# Total GULP energy -356297.322482 kJ/mol
# GULP energy per Si atom -5567.145664 kJ/mol
# Density = 1.880437 g / cm^3
# Si number density = 18.847269 Si / 1000 Ang^3
#
#
#
# Elastic Constant Matrix: (Units=GPa)
#
#
# Indices 1 2 3 4 5 6 
#
# 1 68.1445 29.6630 22.2626 0.0000 0.0000 0.0000
# 2 29.6630 68.1445 22.2626 0.0000 0.0000 0.0000
# 3 22.2626 22.2626 118.3611 0.0000 0.0000 0.0000
# 4 0.0000 0.0000 0.0000 -6.0741 0.0000 0.0000
# 5 0.0000 0.0000 0.0000 0.0000 -6.0741 0.0000
# 6 0.0000 0.0000 0.0000 0.0000 0.0000 10.4638
#
#
#
# Elastic Compliance Matrix: (Units=1/GPa)
#
#
# Indices 1 2 3 4 5 6 
#
# 1 0.018584 -0.007402 -0.002103 0.000000 0.000000 0.000000
# 2 -0.007402 0.018584 -0.002103 0.000000 0.000000 0.000000
# 3 -0.002103 -0.002103 0.009240 0.000000 0.000000 0.000000
# 4 0.000000 0.000000 0.000000 -0.164632 0.000000 0.000000
# 5 0.000000 0.000000 0.000000 0.000000 -0.164632 0.000000
# 6 0.000000 0.000000 0.000000 0.000000 0.000000 0.095568
#
#
# Mechanical properties :
#
#
# Convention : Reuss Voigt Hill
#
# Bulk Modulus (GPa) = 43.12119 44.78074 43.95097
# Shear Modulus (GPa) = -31.98135 11.69390 -10.14372
#
# Velocity S-wave (km/s) = -4.12378 2.49360 -2.32244
# Velocity P-wave (km/s) = 0.50488 5.66587 4.02225
#
# Compressibility (1/GPa) = 0.02319045
#
# Stress axis : x y z
#
# Youngs Moduli (GPa) = 53.80965 53.80965 108.22645
#
# Poissons Ratio (x) = 0.39832 0.22762
# Poissons Ratio (y) = 0.39832 0.22762
# Poissons Ratio (z) = 0.11317 0.11317
#
# Static dielectric constant tensor:
#      x y z
#    x 1.668310 0.000000 0.000000 
#    y 0.000000 1.668310 0.000000 
#    z 0.000000 0.000000 1.678050 
# 
# From -- ./inp_files/5473.got.cif
#   From: 2010.05.17/outbox.cif.g08.bks.cpg/sg131_3_cif.got.tgz:5473.got - 2010.05.20 12:21:01.
