data_PCOD9566208
_publ_section_title
;
Structure prediction by ZEFSAII (Michael W. Deem and Ramdas Pophale) SiO2 
 PCOD9566208
Probable space group: P 42/M M C
;
_chemical_formula_sum "Si O2"
_cell_formula_units_Z 72
_cell_length_a 18.366689
_cell_length_b 18.366689
_cell_length_c 15.440084
_cell_angle_alpha 90.000000
_cell_angle_beta 90.000000
_cell_angle_gamma 90.000000
_cell_volume 5208.484825
_symmetry_space_group_name_H-M "P 42/M M C"
_symmetry_group_IT_number 131
_symmetry_cell_setting 'tetragonal'
loop_
_space_group_symop_operation_xyz
x,y,z
-x,-y,z
-y,x,1/2+z
y,-x,1/2+z
-x,y,-z
x,-y,-z
y,x,1/2-z
-y,-x,1/2-z
-x,-y,-z
x,y,-z
y,-x,1/2-z
-y,x,1/2-z
x,-y,z
-x,y,z
-y,-x,1/2+z
y,x,1/2+z
loop_
_atom_site_type_symbol
_atom_site_label
_atom_site_fract_x
_atom_site_fract_y
_atom_site_fract_z
Si Si1 0.918441 0.411929 0.769284
Si Si2 0.672731 0.640739 0.400461
Si Si3 0.580780 0.580780 0.750000
Si Si4 0.585414 0.789699 0.398320
Si Si5 0.166461 0.586682 0.598253
O O1 0.921663 0.500000 0.773669
O O2 0.856964 0.391040 0.838646
O O3 0.889984 0.393807 0.673226
O O4 0.000000 0.384223 0.785795
O O5 0.654777 0.619618 0.500000
O O6 0.637113 0.591565 0.327069
O O7 0.637375 0.720198 0.385540
O O8 0.759410 0.632482 0.391972
O O9 0.588591 0.500000 0.787288
O O10 0.587965 0.809147 0.500000
O O11 0.500000 0.771614 0.378139
O O12 0.138992 0.596341 0.500000
O O13 0.184357 0.500000 0.607890
#
# Coordination Sequence:
#
# PCOD9566208 Si02
#       5
#    16  16   8  16  16
#     4   9  17  28  41  57  77  99 124 159 200 237
#     4  10  19  31  45  58  76 102 132 168 205 239
#     4  11  22  30  38  54  74 100 134 170 208 245
#     4   9  17  28  42  59  77 100 131 164 198 235
#     4   9  17  28  42  59  77 100 131 164 198 235
#
# _framework density 13.823596999999999
#
# number of rings (size 3 to 8) (size 9 to 14) (size 15 to 20)
#    0.000    2.556    0.000    2.667    0.000    5.333 
#    0.000    5.556    0.000    0.000    0.000    0.000 
#    0.000    0.000    0.000    0.000    0.000    8.889 
#
# Total GULP energy -401045.834007 kJ/mol
# GULP energy per Si atom -5570.081028 kJ/mol
# Density = 1.379213 g / cm^3
# Si number density = 13.823597 Si / 1000 Ang^3
#
#
#
# Elastic Constant Matrix: (Units=GPa)
#
#
# Indices 1 2 3 4 5 6 
#
# 1 36.4588 5.9897 14.9935 0.0000 0.0000 0.0000
# 2 5.9897 36.4588 14.9935 0.0000 0.0000 0.0000
# 3 14.9935 14.9935 33.5090 0.0000 0.0000 0.0000
# 4 0.0000 0.0000 0.0000 13.3425 0.0000 0.0000
# 5 0.0000 0.0000 0.0000 0.0000 13.3425 0.0000
# 6 0.0000 0.0000 0.0000 0.0000 0.0000 6.5198
#
#
#
# Elastic Compliance Matrix: (Units=1/GPa)
#
#
# Indices 1 2 3 4 5 6 
#
# 1 0.033633 0.000813 -0.015413 0.000000 0.000000 0.000000
# 2 0.000813 0.033633 -0.015413 0.000000 0.000000 0.000000
# 3 -0.015413 -0.015413 0.043636 0.000000 0.000000 0.000000
# 4 0.000000 0.000000 0.000000 0.074948 0.000000 0.000000
# 5 0.000000 0.000000 0.000000 0.000000 0.074948 0.000000
# 6 0.000000 0.000000 0.000000 0.000000 0.000000 0.153380
#
#
# Mechanical properties :
#
#
# Convention : Reuss Voigt Hill
#
# Bulk Modulus (GPa) = 19.65543 19.82000 19.73771
# Shear Modulus (GPa) = 10.17994 11.33763 10.75878
#
# Velocity S-wave (km/s) = 2.71665 2.86696 2.79281
# Velocity P-wave (km/s) = 4.90814 5.03271 4.97082
#
# Compressibility (1/GPa) = 0.05087652
#
# Stress axis : x y z
#
# Youngs Moduli (GPa) = 29.73262 29.73262 22.91708
#
# Poissons Ratio (x) = -0.02417 0.35322
# Poissons Ratio (y) = -0.02417 0.35322
# Poissons Ratio (z) = 0.45826 0.45826
#
# Static dielectric constant tensor:
#      x y z
#    x 1.442100 0.000000 0.000000 
#    y 0.000000 1.442100 0.000000 
#    z 0.000000 0.000000 1.476270 
# 
# From -- ./inp_files/7527.got.cif
#   From: 2010.05.17/outbox.cif.g08.bks.cpg/sg131_4_cif.got.tgz:7527.got - 2010.05.20 12:21:01.
