data_PCOD9566151
_publ_section_title
;
Structure prediction by ZEFSAII (Michael W. Deem and Ramdas Pophale) SiO2 
 PCOD9566151
Probable space group: P 42/M M C
;
_chemical_formula_sum "Si O2"
_cell_formula_units_Z 48
_cell_length_a 10.181615
_cell_length_b 10.181615
_cell_length_c 28.248322
_cell_angle_alpha 90.000000
_cell_angle_beta 90.000000
_cell_angle_gamma 90.000000
_cell_volume 2928.370323
_symmetry_space_group_name_H-M "P 42/M M C"
_symmetry_group_IT_number 131
_symmetry_cell_setting 'tetragonal'
loop_
_space_group_symop_operation_xyz
x,y,z
-x,-y,z
-y,x,1/2+z
y,-x,1/2+z
-x,y,-z
x,-y,-z
y,x,1/2-z
-y,-x,1/2-z
-x,-y,-z
x,y,-z
y,-x,1/2-z
-y,x,1/2-z
x,-y,z
-x,y,z
-y,-x,1/2+z
y,x,1/2+z
loop_
_atom_site_type_symbol
_atom_site_label
_atom_site_fract_x
_atom_site_fract_y
_atom_site_fract_z
Si Si1 0.500000 0.778955 0.703263
Si Si2 0.000000 0.000000 0.750000
Si Si3 0.776069 0.000000 0.167745
Si Si4 0.500000 0.500000 0.750000
Si Si5 0.500000 0.160396 0.554473
Si Si6 0.000000 0.500000 0.718275
Si Si7 0.843400 0.279882 0.872481
O O1 0.500000 0.629148 0.718278
O O2 0.371408 0.810583 0.672435
O O3 0.500000 0.872617 0.748388
O O4 0.000000 0.123504 0.713251
O O5 0.630331 0.000000 0.187700
O O6 0.795826 0.132559 0.137229
O O7 0.500000 0.201892 0.500000
O O8 0.631300 0.203191 0.582968
O O9 0.500000 0.000000 0.555549
O O10 0.000000 0.271171 0.876345
#
# Coordination Sequence:
#
# PCOD9566151 Si02
#       7
#     8   2   8   2   8   4  16
#     4  11  20  36  47  69  96 146 166 225 249 292
#     4  12  20  32  52  72 106 144 192 196 256 316
#     4  12  22  32  49  79 100 144 170 221 249 304
#     4  12  24  32  48  72 106 128 196 216 252 292
#     4   8  16  31  56  81 101 131 165 212 270 326
#     4  12  22  34  50  72 108 138 194 204 256 306
#     4  10  18  34  53  72 106 133 172 210 267 313
#
# _framework density 16.391369000000001
#
# number of rings (size 3 to 8) (size 9 to 14) (size 15 to 20)
#    0.000    1.500    3.333    5.000    0.000    0.000 
#    0.000    0.833    0.000    4.000    0.000   22.167 
#    0.000    0.000    0.000    0.000    0.000    0.000 
#
# Total GULP energy -267702.792516 kJ/mol
# GULP energy per Si atom -5577.141511 kJ/mol
# Density = 1.635406 g / cm^3
# Si number density = 16.391369 Si / 1000 Ang^3
#
#
#
# Elastic Constant Matrix: (Units=GPa)
#
#
# Indices 1 2 3 4 5 6 
#
# 1 149.7437 26.0180 63.6699 0.0000 0.0000 0.0000
# 2 26.0180 149.7437 63.6699 0.0000 0.0000 0.0000
# 3 63.6699 63.6699 116.6194 0.0000 0.0000 0.0000
# 4 0.0000 0.0000 0.0000 0.3082 0.0000 0.0000
# 5 0.0000 0.0000 0.0000 0.0000 0.3082 0.0000
# 6 0.0000 0.0000 0.0000 0.0000 0.0000 -15.4260
#
#
#
# Elastic Compliance Matrix: (Units=1/GPa)
#
#
# Indices 1 2 3 4 5 6 
#
# 1 0.008748 0.000665 -0.005139 0.000000 0.000000 0.000000
# 2 0.000665 0.008748 -0.005139 0.000000 0.000000 0.000000
# 3 -0.005139 -0.005139 0.014186 0.000000 0.000000 0.000000
# 4 0.000000 0.000000 0.000000 3.245077 0.000000 0.000000
# 5 0.000000 0.000000 0.000000 0.000000 3.245077 0.000000
# 6 0.000000 0.000000 0.000000 0.000000 0.000000 -0.064826
#
#
# Mechanical properties :
#
#
# Convention : Reuss Voigt Hill
#
# Bulk Modulus (GPa) = 80.28406 80.31358 80.29882
# Shear Modulus (GPa) = 0.77156 14.55468 7.66312
#
# Velocity S-wave (km/s) = 0.68683 2.98308 2.16454
# Velocity P-wave (km/s) = 7.05087 7.80826 7.43921
#
# Compressibility (1/GPa) = 0.01245577
#
# Stress axis : x y z
#
# Youngs Moduli (GPa) = 114.31746 114.31746 70.49043
#
# Poissons Ratio (x) = -0.07604 0.36225
# Poissons Ratio (y) = -0.07604 0.36225
# Poissons Ratio (z) = 0.58748 0.58748
#
# Static dielectric constant tensor:
#      x y z
#    x 1.488610 0.000000 0.000000 
#    y 0.000000 1.488610 0.000000 
#    z 0.000000 0.000000 1.538930 
# 
# From -- ./inp_files/13080.got.cif
#   From: 2010.05.17/outbox.cif.g08.bks.cpg/sg131_7_cif.got.tgz:13080.got - 2010.05.20 12:21:01.
