data_PCOD9566607
_publ_section_title
;
Structure prediction by ZEFSAII (Michael W. Deem and Ramdas Pophale) SiO2 
 PCOD9566607
Probable space group: P 42/M M C
;
_chemical_formula_sum "Si O2"
_cell_formula_units_Z 48
_cell_length_a 10.466321
_cell_length_b 10.466321
_cell_length_c 24.724075
_cell_angle_alpha 90.000000
_cell_angle_beta 90.000000
_cell_angle_gamma 90.000000
_cell_volume 2708.370988
_symmetry_space_group_name_H-M "P 42/M M C"
_symmetry_group_IT_number 131
_symmetry_cell_setting 'tetragonal'
loop_
_space_group_symop_operation_xyz
x,y,z
-x,-y,z
-y,x,1/2+z
y,-x,1/2+z
-x,y,-z
x,-y,-z
y,x,1/2-z
-y,-x,1/2-z
-x,-y,-z
x,y,-z
y,-x,1/2-z
-y,x,1/2-z
x,-y,z
-x,y,z
-y,-x,1/2+z
y,x,1/2+z
loop_
_atom_site_type_symbol
_atom_site_label
_atom_site_fract_x
_atom_site_fract_y
_atom_site_fract_z
Si Si1 0.000000 0.652828 0.829899
Si Si2 0.653347 0.000000 0.794916
Si Si3 0.860358 0.000000 0.937062
Si Si4 0.741036 0.777077 0.125309
Si Si5 0.500000 0.653024 0.935612
O O1 0.867695 0.699935 0.857041
O O2 0.000000 0.500000 0.830942
O O3 0.000000 0.696547 0.767241
O O4 0.698805 0.128180 0.825861
O O5 0.500000 0.000000 0.796360
O O6 0.785998 0.875342 0.920113
O O7 0.000000 0.000000 0.909554
O O8 0.875235 0.000000 0.000000
O O9 0.623780 0.699894 0.098755
O O10 0.500000 0.500000 0.936667
O O11 0.500000 0.695105 0.000000
#
# Coordination Sequence:
#
# PCOD9566607 Si02
#       5
#     8   8   8  16   8
#     4  11  23  38  60  87 121 161 201 251 304 366
#     4  10  21  38  62  87 118 155 201 256 309 365
#     4  10  20  35  59  87 117 149 194 251 305 363
#     4  11  21  40  60  89 119 159 201 252 312 363
#     4  11  24  41  63  89 125 168 209 253 303 368
#
# _framework density 17.722829999999998
#
# number of rings (size 3 to 8) (size 9 to 14) (size 15 to 20)
#    0.000    1.333    3.333    3.000    0.000    0.000 
#    0.000    4.167    0.000    4.000    0.000    0.000 
#    0.000    0.000    0.000    0.000    0.000    0.000 
#
# Total GULP energy -267526.393916 kJ/mol
# GULP energy per Si atom -5573.466540 kJ/mol
# Density = 1.768249 g / cm^3
# Si number density = 17.722830 Si / 1000 Ang^3
#
#
#
# Elastic Constant Matrix: (Units=GPa)
#
#
# Indices 1 2 3 4 5 6 
#
# 1 128.3207 67.9581 62.5459 0.0000 0.0000 0.0000
# 2 67.9581 128.3207 62.5459 0.0000 0.0000 0.0000
# 3 62.5459 62.5459 126.5406 0.0000 0.0000 0.0000
# 4 0.0000 0.0000 0.0000 48.8679 0.0000 0.0000
# 5 0.0000 0.0000 0.0000 0.0000 48.8679 0.0000
# 6 0.0000 0.0000 0.0000 0.0000 0.0000 22.3624
#
#
#
# Elastic Compliance Matrix: (Units=1/GPa)
#
#
# Indices 1 2 3 4 5 6 
#
# 1 0.012002 -0.004564 -0.003676 0.000000 0.000000 0.000000
# 2 -0.004564 0.012002 -0.003676 0.000000 0.000000 0.000000
# 3 -0.003676 -0.003676 0.011537 0.000000 0.000000 0.000000
# 4 0.000000 0.000000 0.000000 0.020463 0.000000 0.000000
# 5 0.000000 0.000000 0.000000 0.000000 0.020463 0.000000
# 6 0.000000 0.000000 0.000000 0.000000 0.000000 0.044718
#
#
# Mechanical properties :
#
#
# Convention : Reuss Voigt Hill
#
# Bulk Modulus (GPa) = 85.41806 85.47577 85.44691
# Shear Modulus (GPa) = 33.57460 36.69512 35.13486
#
# Velocity S-wave (km/s) = 4.35722 4.55521 4.45732
# Velocity P-wave (km/s) = 8.57992 8.71783 8.64915
#
# Compressibility (1/GPa) = 0.01170713
#
# Stress axis : x y z
#
# Youngs Moduli (GPa) = 83.31834 83.31834 86.67897
#
# Poissons Ratio (x) = 0.38030 0.31866
# Poissons Ratio (y) = 0.38030 0.31866
# Poissons Ratio (z) = 0.30630 0.30630
#
# Static dielectric constant tensor:
#      x y z
#    x 1.608560 0.000000 0.000000 
#    y 0.000000 1.608560 0.000000 
#    z 0.000000 0.000000 1.607780 
# 
# From -- ./inp_files/12978.got.cif
#   From: 2010.05.17/outbox.cif.g08.bks.cpg/sg131_7_cif.got.tgz:12978.got - 2010.05.20 12:21:01.
