data_PCOD9566068
_publ_section_title
;
Structure prediction by ZEFSAII (Michael W. Deem and Ramdas Pophale) SiO2 
 PCOD9566068
Probable space group: P 42/M M C
;
_chemical_formula_sum "Si O2"
_cell_formula_units_Z 96
_cell_length_a 15.683303
_cell_length_b 15.683303
_cell_length_c 20.259832
_cell_angle_alpha 90.000000
_cell_angle_beta 90.000000
_cell_angle_gamma 90.000000
_cell_volume 4983.229696
_symmetry_space_group_name_H-M "P 42/M M C"
_symmetry_group_IT_number 131
_symmetry_cell_setting 'tetragonal'
loop_
_space_group_symop_operation_xyz
x,y,z
-x,-y,z
-y,x,1/2+z
y,-x,1/2+z
-x,y,-z
x,-y,-z
y,x,1/2-z
-y,-x,1/2-z
-x,-y,-z
x,y,-z
y,-x,1/2-z
-y,x,1/2-z
x,-y,z
-x,y,z
-y,-x,1/2+z
y,x,1/2+z
loop_
_atom_site_type_symbol
_atom_site_label
_atom_site_fract_x
_atom_site_fract_y
_atom_site_fract_z
Si Si1 0.594646 0.180071 0.636409
Si Si2 0.592269 0.624387 0.325891
Si Si3 0.095905 0.370235 0.727710
Si Si4 0.772545 0.408112 0.613307
Si Si5 0.826468 0.095390 0.188111
Si Si6 0.211350 0.225580 0.074029
O O1 0.500000 0.168909 0.606226
O O2 0.596318 0.273333 0.670359
O O3 0.606091 0.115270 0.696975
O O4 0.676911 0.183319 0.589369
O O5 0.598105 0.598105 0.250000
O O6 0.500000 0.598564 0.353125
O O7 0.674266 0.591919 0.364083
O O8 0.166650 0.405319 0.677691
O O9 0.101502 0.268388 0.719052
O O10 0.000000 0.396560 0.709254
O O11 0.789742 0.500000 0.579654
O O12 0.783486 0.315296 0.579389
O O13 0.887120 0.112881 0.250000
O O14 0.828621 0.165246 0.130274
O O15 0.838449 0.000000 0.161693
O O16 0.186149 0.202020 0.000000
#
# Coordination Sequence:
#
# PCOD9566068 Si02
#       6
#    16  16  16  16  16  16
#     4  10  19  32  53  77 109 151 195 240 285 337
#     4  10  18  27  43  70 105 143 185 238 296 343
#     4  10  19  32  54  84 114 145 184 236 294 343
#     4  10  20  32  49  76 112 150 196 245 287 342
#     4  10  20  37  64  92 118 148 188 237 290 350
#     4  10  22  38  57  81 118 162 197 240 293 345
#
# _framework density 19.264614000000002
#
# number of rings (size 3 to 8) (size 9 to 14) (size 15 to 20)
#    0.000    2.000    3.333    1.000    0.000    3.667 
#    0.000    0.000    0.000    2.000    0.000   11.667 
#    0.000    0.000    0.000    0.000    0.000    0.000 
#
# Total GULP energy -535177.860414 kJ/mol
# GULP energy per Si atom -5574.769379 kJ/mol
# Density = 1.922077 g / cm^3
# Si number density = 19.264614 Si / 1000 Ang^3
#
#
#
# Elastic Constant Matrix: (Units=GPa)
#
#
# Indices 1 2 3 4 5 6 
#
# 1 77.5847 19.0833 20.0985 0.0000 0.0000 0.0000
# 2 19.0833 77.5873 20.1005 0.0000 0.0000 0.0000
# 3 20.0985 20.1005 75.4491 0.0000 0.0000 0.0000
# 4 0.0000 0.0000 0.0000 20.1645 0.0000 0.0000
# 5 0.0000 0.0000 0.0000 0.0000 20.1644 0.0000
# 6 0.0000 0.0000 0.0000 0.0000 0.0000 -1.4977
#
#
#
# Elastic Compliance Matrix: (Units=1/GPa)
#
#
# Indices 1 2 3 4 5 6 
#
# 1 0.014363 -0.002730 -0.003099 0.000000 0.000000 0.000000
# 2 -0.002730 0.014363 -0.003099 0.000000 0.000000 0.000000
# 3 -0.003099 -0.003099 0.014905 0.000000 0.000000 0.000000
# 4 0.000000 0.000000 0.000000 0.049592 0.000000 0.000000
# 5 0.000000 0.000000 0.000000 0.000000 0.049592 0.000000
# 6 0.000000 0.000000 0.000000 0.000000 0.000000 -0.667708
#
#
# Mechanical properties :
#
#
# Convention : Reuss Voigt Hill
#
# Bulk Modulus (GPa) = 38.79674 38.79841 38.79758
# Shear Modulus (GPa) = -10.03121 19.18883 4.57881
#
# Velocity S-wave (km/s) = -2.28438 3.15948 1.54336
# Velocity P-wave (km/s) = 3.63659 5.78733 4.83311
#
# Compressibility (1/GPa) = 0.02577536
#
# Stress axis : x y z
#
# Youngs Moduli (GPa) = 69.62136 69.62282 67.09085
#
# Poissons Ratio (x) = 0.19007 0.20791
# Poissons Ratio (y) = 0.19006 0.20793
# Poissons Ratio (z) = 0.21575 0.21578
#
# Static dielectric constant tensor:
#      x y z
#    x 1.678370 0.000000 0.000000 
#    y 0.000000 1.678370 0.000000 
#    z 0.000000 0.000000 1.619920 
# 
# From -- ./inp_files/9728.got.cif
#   From: 2010.05.17/outbox.cif.g08.bks.cpg/sg131_5_cif.got.tgz:9728.got - 2010.05.20 12:21:01.
