data_PCOD9566349
_publ_section_title
;
Structure prediction by ZEFSAII (Michael W. Deem and Ramdas Pophale) SiO2 
 PCOD9566349
Probable space group: P 42/M M C
;
_chemical_formula_sum "Si O2"
_cell_formula_units_Z 80
_cell_length_a 14.713331
_cell_length_b 14.713331
_cell_length_c 20.074362
_cell_angle_alpha 90.000000
_cell_angle_beta 90.000000
_cell_angle_gamma 90.000000
_cell_volume 4345.740225
_symmetry_space_group_name_H-M "P 42/M M C"
_symmetry_group_IT_number 131
_symmetry_cell_setting 'tetragonal'
loop_
_space_group_symop_operation_xyz
x,y,z
-x,-y,z
-y,x,1/2+z
y,-x,1/2+z
-x,y,-z
x,-y,-z
y,x,1/2-z
-y,-x,1/2-z
-x,-y,-z
x,y,-z
y,-x,1/2-z
-y,x,1/2-z
x,-y,z
-x,y,z
-y,-x,1/2+z
y,x,1/2+z
loop_
_atom_site_type_symbol
_atom_site_label
_atom_site_fract_x
_atom_site_fract_y
_atom_site_fract_z
Si Si1 0.099396 0.139268 0.173274
Si Si2 0.721373 0.393416 0.577906
Si Si3 0.651866 0.100496 0.287599
Si Si4 0.100384 0.299149 0.630927
Si Si5 0.397192 0.301102 0.311122
O O1 0.105964 0.105964 0.250000
O O2 0.103127 0.248241 0.179584
O O3 0.189528 0.108437 0.135134
O O4 0.000000 0.112776 0.146618
O O5 0.699442 0.387862 0.500000
O O6 0.726705 0.500000 0.597036
O O7 0.817804 0.345154 0.591821
O O8 0.647642 0.342560 0.623072
O O9 0.667379 0.107197 0.207858
O O10 0.603490 0.191617 0.311104
O O11 0.612346 0.000000 0.301089
O O12 0.000000 0.323540 0.605838
O O13 0.335014 0.335014 0.250000
O O14 0.500000 0.333445 0.301750
#
# Coordination Sequence:
#
# PCOD9566349 Si02
#       5
#    16  16  16  16  16
#     4   9  15  26  48  81 121 156 187 229 285 346
#     4  11  25  44  62  82 115 158 201 247 300 355
#     4   9  17  32  58  90 121 152 188 235 291 346
#     4  10  19  33  56  86 120 156 196 238 286 347
#     4  12  23  39  64  91 120 152 194 248 302 352
#
# _framework density 18.408832
#
# number of rings (size 3 to 8) (size 9 to 14) (size 15 to 20)
#    0.000    1.800    4.000    3.000    0.000    4.400 
#    0.000    4.000    0.000    2.400    0.000    2.800 
#    0.000    0.000    0.000    0.000    0.000    0.000 
#
# Total GULP energy -446414.771415 kJ/mol
# GULP energy per Si atom -5580.184643 kJ/mol
# Density = 1.836693 g / cm^3
# Si number density = 18.408832 Si / 1000 Ang^3
#
#
#
# Elastic Constant Matrix: (Units=GPa)
#
#
# Indices 1 2 3 4 5 6 
#
# 1 118.6372 35.6853 27.6072 0.0000 0.0000 0.0000
# 2 35.6853 118.6372 27.6072 0.0000 0.0000 0.0000
# 3 27.6072 27.6072 42.8783 0.0000 0.0000 0.0000
# 4 0.0000 0.0000 0.0000 32.4071 0.0000 0.0000
# 5 0.0000 0.0000 0.0000 0.0000 32.4071 0.0000
# 6 0.0000 0.0000 0.0000 0.0000 0.0000 -11.4556
#
#
#
# Elastic Compliance Matrix: (Units=1/GPa)
#
#
# Indices 1 2 3 4 5 6 
#
# 1 0.010237 -0.001818 -0.005421 0.000000 0.000000 0.000000
# 2 -0.001818 0.010237 -0.005421 0.000000 0.000000 0.000000
# 3 -0.005421 -0.005421 0.030302 0.000000 0.000000 0.000000
# 4 0.000000 0.000000 0.000000 0.030857 0.000000 0.000000
# 5 0.000000 0.000000 0.000000 0.000000 0.030857 0.000000
# 6 0.000000 0.000000 0.000000 0.000000 0.000000 -0.087294
#
#
# Mechanical properties :
#
#
# Convention : Reuss Voigt Hill
#
# Bulk Modulus (GPa) = 39.28082 51.32800 45.30441
# Shear Modulus (GPa) = 84.74154 23.28860 54.01507
#
# Velocity S-wave (km/s) = 6.79213 3.56065 5.42270
# Velocity P-wave (km/s) = 9.10467 6.69680 7.99194
#
# Compressibility (1/GPa) = 0.02545772
#
# Stress axis : x y z
#
# Youngs Moduli (GPa) = 97.68191 97.68191 33.00084
#
# Poissons Ratio (x) = 0.17757 0.17889
# Poissons Ratio (y) = 0.17757 0.17889
# Poissons Ratio (z) = 0.52952 0.52952
#
# Static dielectric constant tensor:
#      x y z
#    x 1.653980 0.000000 0.000000 
#    y 0.000000 1.653980 0.000000 
#    z 0.000000 0.000000 1.594260 
# 
# From -- ./inp_files/9415.got.cif
#   From: 2010.05.17/outbox.cif.g08.bks.cpg/sg131_5_cif.got.tgz:9415.got - 2010.05.20 12:21:01.
