data_PCOD9566351
_publ_section_title
;
Structure prediction by ZEFSAII (Michael W. Deem and Ramdas Pophale) SiO2 
 PCOD9566351
Probable space group: P 42/M M C
;
_chemical_formula_sum "Si O2"
_cell_formula_units_Z 104
_cell_length_a 19.202198
_cell_length_b 19.202198
_cell_length_c 16.927581
_cell_angle_alpha 90.000000
_cell_angle_beta 90.000000
_cell_angle_gamma 90.000000
_cell_volume 6241.612284
_symmetry_space_group_name_H-M "P 42/M M C"
_symmetry_group_IT_number 131
_symmetry_cell_setting 'tetragonal'
loop_
_space_group_symop_operation_xyz
x,y,z
-x,-y,z
-y,x,1/2+z
y,-x,1/2+z
-x,y,-z
x,-y,-z
y,x,1/2-z
-y,-x,1/2-z
-x,-y,-z
x,y,-z
y,-x,1/2-z
-y,x,1/2-z
x,-y,z
-x,y,z
-y,-x,1/2+z
y,x,1/2+z
loop_
_atom_site_type_symbol
_atom_site_label
_atom_site_fract_x
_atom_site_fract_y
_atom_site_fract_z
Si Si1 0.000000 0.917382 0.404728
Si Si2 0.420814 0.656261 0.680301
Si Si3 0.796009 0.581632 0.717545
Si Si4 0.330097 0.288503 0.909207
Si Si5 0.116900 0.179321 0.669476
Si Si6 0.918242 0.683785 0.763861
Si Si7 0.259798 0.829269 0.408879
O O1 0.063646 0.876082 0.365789
O O2 0.000000 0.910358 0.500000
O O3 0.000000 0.000000 0.386599
O O4 0.394020 0.605981 0.750000
O O5 0.500000 0.642686 0.659090
O O6 0.415874 0.735018 0.715822
O O7 0.366617 0.646238 0.609986
O O8 0.806063 0.500000 0.698102
O O9 0.763254 0.626992 0.646495
O O10 0.867398 0.619649 0.742371
O O11 0.247686 0.288659 0.890345
O O12 0.338585 0.269537 0.000000
O O13 0.148694 0.148694 0.750000
O O14 0.089243 0.254960 0.697347
O O15 0.178143 0.182712 0.605881
O O16 0.886135 0.713485 0.846186
O O17 0.000000 0.666830 0.771462
O O18 0.274649 0.847219 0.500000
#
# Coordination Sequence:
#
# PCOD9566351 Si02
#       7
#     8  16  16  16  16  16  16
#     4  11  24  38  52  76 111 145 181 228 286 348
#     4   9  18  32  54  82 114 150 184 223 268 324
#     4  10  20  36  57  82 113 146 188 235 275 327
#     4  10  19  33  58  85 111 147 185 229 281 330
#     4  10  21  34  55  79 104 143 185 227 277 333
#     4  11  21  36  58  83 109 145 191 232 279 335
#     4  10  20  35  57  82 110 141 180 232 280 329
#
# _framework density 16.662361000000001
#
# number of rings (size 3 to 8) (size 9 to 14) (size 15 to 20)
#    0.000    1.923    3.846    0.462    1.077    2.000 
#    0.000    0.000    0.000    0.462    0.000    6.462 
#    0.000    0.000    0.000    0.000    0.000    0.000 
#
# Total GULP energy -579372.871880 kJ/mol
# GULP energy per Si atom -5570.892999 kJ/mol
# Density = 1.662444 g / cm^3
# Si number density = 16.662361 Si / 1000 Ang^3
#
#
#
# Elastic Constant Matrix: (Units=GPa)
#
#
# Indices 1 2 3 4 5 6 
#
# 1 92.4889 39.1994 35.8673 0.0000 0.0000 0.0000
# 2 39.1994 92.4907 35.8668 0.0000 0.0000 0.0000
# 3 35.8673 35.8668 31.8253 0.0000 0.0000 0.0000
# 4 0.0000 0.0000 0.0000 10.7500 0.0000 0.0000
# 5 0.0000 0.0000 0.0000 0.0000 10.7501 0.0000
# 6 0.0000 0.0000 0.0000 0.0000 0.0000 15.3334
#
#
#
# Elastic Compliance Matrix: (Units=1/GPa)
#
#
# Indices 1 2 3 4 5 6 
#
# 1 0.019217 0.000451 -0.022166 0.000000 0.000000 0.000000
# 2 0.000451 0.019216 -0.022165 0.000000 0.000000 0.000000
# 3 -0.022166 -0.022165 0.081382 0.000000 0.000000 0.000000
# 4 0.000000 0.000000 0.000000 0.093023 0.000000 0.000000
# 5 0.000000 0.000000 0.000000 0.000000 0.093023 0.000000
# 6 0.000000 0.000000 0.000000 0.000000 0.000000 0.065217
#
#
# Mechanical properties :
#
#
# Convention : Reuss Voigt Hill
#
# Bulk Modulus (GPa) = 31.19546 48.74132 39.96839
# Shear Modulus (GPa) = 10.64913 14.42478 12.53695
#
# Velocity S-wave (km/s) = 2.53081 2.94549 2.74599
# Velocity P-wave (km/s) = 5.22520 6.39404 5.83894
#
# Compressibility (1/GPa) = 0.03205595
#
# Stress axis : x y z
#
# Youngs Moduli (GPa) = 52.03756 52.04054 12.28773
#
# Poissons Ratio (x) = -0.02348 0.27237
# Poissons Ratio (y) = -0.02348 0.27235
# Poissons Ratio (z) = 1.15347 1.15345
#
# Static dielectric constant tensor:
#      x y z
#    x 1.585390 0.000000 0.000000 
#    y 0.000000 1.585390 0.000000 
#    z 0.000000 0.000000 1.550110 
# 
# From -- ./inp_files/8068.got.cif
#   From: 2010.05.17/outbox.cif.g08.bks.cpg/sg131_5_cif.got.tgz:8068.got - 2010.05.20 12:21:01.
