data_PCOD9566241
_publ_section_title
;
Structure prediction by ZEFSAII (Michael W. Deem and Ramdas Pophale) SiO2 
 PCOD9566241
Probable space group: P 42/M M C
;
_chemical_formula_sum "Si O2"
_cell_formula_units_Z 128
_cell_length_a 18.101372
_cell_length_b 18.101372
_cell_length_c 21.722011
_cell_angle_alpha 90.000000
_cell_angle_beta 90.000000
_cell_angle_gamma 90.000000
_cell_volume 7117.426919
_symmetry_space_group_name_H-M "P 42/M M C"
_symmetry_group_IT_number 131
_symmetry_cell_setting 'tetragonal'
loop_
_space_group_symop_operation_xyz
x,y,z
-x,-y,z
-y,x,1/2+z
y,-x,1/2+z
-x,y,-z
x,-y,-z
y,x,1/2-z
-y,-x,1/2-z
-x,-y,-z
x,y,-z
y,-x,1/2-z
-y,x,1/2-z
x,-y,z
-x,y,z
-y,-x,1/2+z
y,x,1/2+z
loop_
_atom_site_type_symbol
_atom_site_label
_atom_site_fract_x
_atom_site_fract_y
_atom_site_fract_z
Si Si1 0.414818 0.157763 0.370654
Si Si2 0.083404 0.733526 0.902395
Si Si3 0.311708 0.083579 0.157473
Si Si4 0.647720 0.587581 0.687002
Si Si5 0.691909 0.364300 0.927452
Si Si6 0.240207 0.798474 0.067748
Si Si7 0.412075 0.811248 0.227874
Si Si8 0.921355 0.197509 0.767198
O O1 0.500000 0.131840 0.371376
O O2 0.353511 0.103086 0.398646
O O3 0.408609 0.234484 0.408068
O O4 0.391783 0.174137 0.299404
O O5 0.153828 0.775279 0.931153
O O6 0.084239 0.766494 0.833724
O O7 0.000000 0.744336 0.926919
O O8 0.265594 0.137877 0.113597
O O9 0.383681 0.126446 0.181382
O O10 0.262815 0.077781 0.218536
O O11 0.324218 0.000000 0.133998
O O12 0.602685 0.602685 0.750000
O O13 0.648378 0.500000 0.674701
O O14 0.621525 0.631108 0.625816
O O15 0.730941 0.613836 0.704688
O O16 0.715790 0.278063 0.921496
O O17 0.672673 0.377455 0.000000
O O18 0.259147 0.825312 0.000000
O O19 0.500000 0.809083 0.227493
O O20 0.855285 0.144715 0.750000
O O21 0.000000 0.156828 0.763244
#
# Coordination Sequence:
#
# PCOD9566241 Si02
#       8
#    16  16  16  16  16  16  16  16
#     4  10  20  34  55  84 118 152 189 233 284 344
#     4  10  20  34  54  81 112 145 183 230 281 332
#     4  11  21  34  56  85 113 143 184 234 288 343
#     4  11  22  37  60  88 118 153 198 247 294 347
#     4  10  21  37  59  85 113 152 200 243 289 349
#     4  10  21  37  57  79 105 146 196 236 275 335
#     4  10  20  34  55  83 114 154 191 228 284 342
#     4  10  19  31  50  78 106 139 177 221 276 332
#
# _framework density 17.984027000000001
#
# number of rings (size 3 to 8) (size 9 to 14) (size 15 to 20)
#    0.000    1.750    5.000    0.000    0.000    2.250 
#    0.000    1.250    0.000    0.750    0.000    7.000 
#    0.000    0.000    0.000    0.000    0.000    0.000 
#
# Total GULP energy -713207.068033 kJ/mol
# GULP energy per Si atom -5571.930219 kJ/mol
# Density = 1.794309 g / cm^3
# Si number density = 17.984027 Si / 1000 Ang^3
#
#
#
# Elastic Constant Matrix: (Units=GPa)
#
#
# Indices 1 2 3 4 5 6 
#
# 1 48.8145 -4.4283 19.9740 0.0000 0.0000 0.0000
# 2 -4.4283 48.8133 19.9737 0.0000 0.0000 0.0000
# 3 19.9740 19.9737 99.0316 0.0000 0.0000 0.0000
# 4 0.0000 0.0000 0.0000 20.7413 0.0000 0.0000
# 5 0.0000 0.0000 0.0000 0.0000 20.7401 0.0000
# 6 0.0000 0.0000 0.0000 0.0000 0.0000 -376.1777
#
#
#
# Elastic Compliance Matrix: (Units=1/GPa)
#
#
# Indices 1 2 3 4 5 6 
#
# 1 0.023154 0.004372 -0.005552 0.000000 0.000000 0.000000
# 2 0.004372 0.023155 -0.005552 0.000000 0.000000 0.000000
# 3 -0.005552 -0.005552 0.012337 0.000000 0.000000 0.000000
# 4 0.000000 0.000000 0.000000 0.048213 0.000000 0.000000
# 5 0.000000 0.000000 0.000000 0.000000 0.048216 0.000000
# 6 0.000000 0.000000 0.000000 0.000000 0.000000 -0.002658
#
#
# Mechanical properties :
#
#
# Convention : Reuss Voigt Hill
#
# Bulk Modulus (GPa) = 22.13221 29.74424 25.93823
# Shear Modulus (GPa) = 27.63337 -56.19660 -14.28161
#
# Velocity S-wave (km/s) = 3.92414 -5.59606 -2.82108
# Velocity P-wave (km/s) = 5.73281 5.01791 1.96033
#
# Compressibility (1/GPa) = 0.04518301
#
# Stress axis : x y z
#
# Youngs Moduli (GPa) = 43.18887 43.18796 81.05484
#
# Poissons Ratio (x) = -0.18883 0.45001
# Poissons Ratio (y) = -0.18883 0.45001
# Poissons Ratio (z) = 0.23978 0.23978
#
# Static dielectric constant tensor:
#      x y z
#    x 1.630450 0.000000 0.000000 
#    y 0.000000 1.630450 0.000000 
#    z 0.000000 0.000000 1.620070 
# 
# From -- ./inp_files/11519.got.cif
#   From: 2010.05.17/outbox.cif.g08.bks.cpg/sg131_6_cif.got.tgz:11519.got - 2010.05.20 12:21:01.
