data_PCOD9566363
_publ_section_title
;
Structure prediction by ZEFSAII (Michael W. Deem and Ramdas Pophale) SiO2 
 PCOD9566363
Probable space group: P 42/M M C
;
_chemical_formula_sum "Si O2"
_cell_formula_units_Z 120
_cell_length_a 14.399432
_cell_length_b 14.399432
_cell_length_c 33.035376
_cell_angle_alpha 90.000000
_cell_angle_beta 90.000000
_cell_angle_gamma 90.000000
_cell_volume 6849.675172
_symmetry_space_group_name_H-M "P 42/M M C"
_symmetry_group_IT_number 131
_symmetry_cell_setting 'tetragonal'
loop_
_space_group_symop_operation_xyz
x,y,z
-x,-y,z
-y,x,1/2+z
y,-x,1/2+z
-x,y,-z
x,-y,-z
y,x,1/2-z
-y,-x,1/2-z
-x,-y,-z
x,y,-z
y,-x,1/2-z
-y,x,1/2-z
x,-y,z
-x,y,z
-y,-x,1/2+z
y,x,1/2+z
loop_
_atom_site_type_symbol
_atom_site_label
_atom_site_fract_x
_atom_site_fract_y
_atom_site_fract_z
Si Si1 0.887584 0.605258 0.239073
Si Si2 0.740944 0.887825 0.186854
Si Si3 0.608772 0.396222 0.950913
Si Si4 0.110458 0.397801 0.384354
Si Si5 0.889224 0.398129 0.000000
Si Si6 0.890461 0.737047 0.831671
Si Si7 0.108728 0.740797 0.073138
Si Si8 0.205576 0.704492 0.548156
O O1 0.852786 0.500000 0.245250
O O2 0.863313 0.679049 0.273952
O O3 0.861448 0.649984 0.196042
O O4 0.000000 0.599606 0.240246
O O5 0.678130 0.860347 0.148312
O O6 0.833172 0.826912 0.182626
O O7 0.757248 0.000000 0.186822
O O8 0.636326 0.500000 0.937001
O O9 0.500000 0.381471 0.940182
O O10 0.671027 0.309010 0.938202
O O11 0.612605 0.397252 0.000000
O O12 0.149278 0.500000 0.375828
O O13 0.137539 0.363965 0.428665
O O14 0.000000 0.402837 0.380674
O O15 0.869749 0.340851 0.040712
O O16 0.845053 0.500000 0.000000
O O17 0.000000 0.408015 0.000000
O O18 0.879637 0.717903 0.879570
O O19 0.000000 0.753146 0.824683
O O20 0.189588 0.812901 0.061830
O O21 0.000000 0.767455 0.066998
O O22 0.199859 0.697643 0.500000
#
# Coordination Sequence:
#
# PCOD9566363 Si02
#       8
#    16  16  16  16   8  16  16  16
#     4   9  18  33  54  80 109 142 175 209 256 312
#     4  10  19  34  56  80 110 145 179 214 260 324
#     4   8  15  28  45  67  94 123 159 206 261 320
#     4  10  21  36  54  77 104 135 176 228 280 326
#     4   9  18  32  50  72 100 141 188 228 272 323
#     4  10  20  34  54  81 113 143 177 224 269 312
#     4  10  20  34  49  71 106 144 179 221 269 317
#     4  11  20  32  52  74  99 136 179 225 275 325
#
# _framework density 17.519079999999999
#
# number of rings (size 3 to 8) (size 9 to 14) (size 15 to 20)
#    0.000    2.333    2.000    1.600    0.000    4.000 
#    0.000    3.333    0.000    2.800    0.000    0.933 
#    0.000    8.533    0.000    0.000    0.000    0.000 
#
# Total GULP energy -668266.578580 kJ/mol
# GULP energy per Si atom -5568.888155 kJ/mol
# Density = 1.747921 g / cm^3
# Si number density = 17.519080 Si / 1000 Ang^3
#
#
#
# Elastic Constant Matrix: (Units=GPa)
#
#
# Indices 1 2 3 4 5 6 
#
# 1 47.8582 21.8607 22.3428 0.0000 0.0000 0.0000
# 2 21.8607 47.8582 22.3428 0.0000 0.0000 0.0000
# 3 22.3428 22.3428 88.1132 0.0000 0.0000 0.0000
# 4 0.0000 0.0000 0.0000 14.5748 0.0000 0.0000
# 5 0.0000 0.0000 0.0000 0.0000 14.5748 0.0000
# 6 0.0000 0.0000 0.0000 0.0000 0.0000 19.5357
#
#
#
# Elastic Compliance Matrix: (Units=1/GPa)
#
#
# Indices 1 2 3 4 5 6 
#
# 1 0.027796 -0.010669 -0.004343 0.000000 0.000000 0.000000
# 2 -0.010669 0.027796 -0.004343 0.000000 0.000000 0.000000
# 3 -0.004343 -0.004343 0.013551 0.000000 0.000000 0.000000
# 4 0.000000 0.000000 0.000000 0.068611 0.000000 0.000000
# 5 0.000000 0.000000 0.000000 0.000000 0.068611 0.000000
# 6 0.000000 0.000000 0.000000 0.000000 0.000000 0.051188
#
#
# Mechanical properties :
#
#
# Convention : Reuss Voigt Hill
#
# Bulk Modulus (GPa) = 32.85826 35.21356 34.03591
# Shear Modulus (GPa) = 16.31808 17.55598 16.93703
#
# Velocity S-wave (km/s) = 3.05527 3.16904 3.11268
# Velocity P-wave (km/s) = 5.58951 5.79087 5.69108
#
# Compressibility (1/GPa) = 0.03043375
#
# Stress axis : x y z
#
# Youngs Moduli (GPa) = 35.97647 35.97647 73.79282
#
# Poissons Ratio (x) = 0.38384 0.32047
# Poissons Ratio (y) = 0.38384 0.32047
# Poissons Ratio (z) = 0.15624 0.15624
#
# Static dielectric constant tensor:
#      x y z
#    x 1.629280 0.000000 0.000000 
#    y 0.000000 1.629280 0.000000 
#    z 0.000000 0.000000 1.598470 
# 
# From -- ./inp_files/13938.got.cif
#   From: 2010.05.17/outbox.cif.g08.bks.cpg/sg131_7_cif.got.tgz:13938.got - 2010.05.20 12:21:01.
