data_PCOD9566458
_publ_section_title
;
Structure prediction by ZEFSAII (Michael W. Deem and Ramdas Pophale) SiO2 
 PCOD9566458
Probable space group: P 42/M M C
;
_chemical_formula_sum "Si O2"
_cell_formula_units_Z 96
_cell_length_a 15.255940
_cell_length_b 15.255940
_cell_length_c 20.285724
_cell_angle_alpha 90.000000
_cell_angle_beta 90.000000
_cell_angle_gamma 90.000000
_cell_volume 4721.374568
_symmetry_space_group_name_H-M "P 42/M M C"
_symmetry_group_IT_number 131
_symmetry_cell_setting 'tetragonal'
loop_
_space_group_symop_operation_xyz
x,y,z
-x,-y,z
-y,x,1/2+z
y,-x,1/2+z
-x,y,-z
x,-y,-z
y,x,1/2-z
-y,-x,1/2-z
-x,-y,-z
x,y,-z
y,-x,1/2-z
-y,x,1/2-z
x,-y,z
-x,y,z
-y,-x,1/2+z
y,x,1/2+z
loop_
_atom_site_type_symbol
_atom_site_label
_atom_site_fract_x
_atom_site_fract_y
_atom_site_fract_z
Si Si1 0.099983 0.657183 0.655831
Si Si2 0.607346 0.600576 0.823028
Si Si3 0.103309 0.290234 0.926833
Si Si4 0.904045 0.165283 0.423611
Si Si5 0.261051 0.602691 0.427072
Si Si6 0.106838 0.398734 0.801586
O O1 0.099271 0.756116 0.628678
O O2 0.168102 0.609865 0.608428
O O3 0.128942 0.645008 0.731414
O O4 0.000000 0.623500 0.650418
O O5 0.632177 0.632177 0.750000
O O6 0.634437 0.500000 0.833086
O O7 0.500000 0.600824 0.822473
O O8 0.640594 0.664976 0.879248
O O9 0.112587 0.185753 0.915744
O O10 0.139266 0.344907 0.865055
O O11 0.000000 0.310052 0.929580
O O12 0.140028 0.310501 0.000000
O O13 0.902658 0.198235 0.500000
O O14 0.000000 0.120842 0.415986
O O15 0.259296 0.641962 0.500000
O O16 0.281629 0.500000 0.433092
O O17 0.135992 0.500000 0.802165
O O18 0.000000 0.398964 0.804059
#
# Coordination Sequence:
#
# PCOD9566458 Si02
#       6
#    16  16  16  16  16  16
#     4  10  20  35  54  73 102 144 183 222 271 330
#     4   8  15  31  53  74 102 141 180 219 266 322
#     4   9  18  33  54  81 111 141 178 227 280 335
#     4   9  18  33  53  77 107 144 183 224 275 335
#     4  10  20  32  50  79 108 133 171 222 271 324
#     4   9  18  33  53  77 106 142 184 227 274 334
#
# _framework density 20.333062000000002
#
# number of rings (size 3 to 8) (size 9 to 14) (size 15 to 20)
#    0.000    2.833    0.000    1.500    0.000    3.667 
#    3.000    5.833    0.000    0.000    0.000    7.000 
#    0.000    0.000    0.000    0.000    0.000    0.000 
#
# Total GULP energy -535104.469429 kJ/mol
# GULP energy per Si atom -5574.004890 kJ/mol
# Density = 2.028678 g / cm^3
# Si number density = 20.333062 Si / 1000 Ang^3
#
#
#
# Elastic Constant Matrix: (Units=GPa)
#
#
# Indices 1 2 3 4 5 6 
#
# 1 54.4776 7.7625 57.7487 0.0000 0.0000 0.0000
# 2 7.7625 54.4776 57.7487 0.0000 0.0000 0.0000
# 3 57.7487 57.7487 203.3493 0.0000 0.0000 0.0000
# 4 0.0000 0.0000 0.0000 31.3259 0.0000 0.0000
# 5 0.0000 0.0000 0.0000 0.0000 31.3259 0.0000
# 6 0.0000 0.0000 0.0000 0.0000 0.0000 -6.2753
#
#
#
# Elastic Compliance Matrix: (Units=1/GPa)
#
#
# Indices 1 2 3 4 5 6 
#
# 1 0.027687 0.006280 -0.009646 0.000000 0.000000 0.000000
# 2 0.006280 0.027687 -0.009646 0.000000 0.000000 0.000000
# 3 -0.009646 -0.009646 0.010396 0.000000 0.000000 0.000000
# 4 0.000000 0.000000 0.000000 0.031922 0.000000 0.000000
# 5 0.000000 0.000000 0.000000 0.000000 0.031922 0.000000
# 6 0.000000 0.000000 0.000000 0.000000 0.000000 -0.159354
#
#
# Mechanical properties :
#
#
# Convention : Reuss Voigt Hill
#
# Bulk Modulus (GPa) = 25.15991 62.09158 43.62574
# Shear Modulus (GPa) = 524.47856 23.87826 274.17841
#
# Velocity S-wave (km/s) = 16.07805 3.43061 11.62482
# Velocity P-wave (km/s) = 18.89636 6.80409 14.20155
#
# Compressibility (1/GPa) = 0.03974577
#
# Stress axis : x y z
#
# Youngs Moduli (GPa) = 36.11836 36.11836 96.18638
#
# Poissons Ratio (x) = -0.22684 0.92784
# Poissons Ratio (y) = -0.22684 0.92784
# Poissons Ratio (z) = 0.34841 0.34841
#
# Static dielectric constant tensor:
#      x y z
#    x 1.740320 0.000000 0.000000 
#    y 0.000000 1.740320 0.000000 
#    z 0.000000 0.000000 1.718470 
# 
# From -- ./inp_files/9773.got.cif
#   From: 2010.05.17/outbox.cif.g08.bks.cpg/sg131_5_cif.got.tgz:9773.got - 2010.05.20 12:21:01.
