data_PCOD9566690
_publ_section_title
;
Structure prediction by ZEFSAII (Michael W. Deem and Ramdas Pophale) SiO2 
 PCOD9566690
Probable space group: P 42/M M C
;
_chemical_formula_sum "Si O2"
_cell_formula_units_Z 112
_cell_length_a 14.689940
_cell_length_b 14.689940
_cell_length_c 29.618343
_cell_angle_alpha 90.000000
_cell_angle_beta 90.000000
_cell_angle_gamma 90.000000
_cell_volume 6391.470697
_symmetry_space_group_name_H-M "P 42/M M C"
_symmetry_group_IT_number 131
_symmetry_cell_setting 'tetragonal'
loop_
_space_group_symop_operation_xyz
x,y,z
-x,-y,z
-y,x,1/2+z
y,-x,1/2+z
-x,y,-z
x,-y,-z
y,x,1/2-z
-y,-x,1/2-z
-x,-y,-z
x,y,-z
y,-x,1/2-z
-y,x,1/2-z
x,-y,z
-x,y,z
-y,-x,1/2+z
y,x,1/2+z
loop_
_atom_site_type_symbol
_atom_site_label
_atom_site_fract_x
_atom_site_fract_y
_atom_site_fract_z
Si Si1 0.602765 0.889754 0.213473
Si Si2 0.236781 0.109820 0.721651
Si Si3 0.897024 0.610942 0.612635
Si Si4 0.779065 0.608502 0.947155
Si Si5 0.110805 0.896387 0.050332
Si Si6 0.273456 0.395593 0.446580
Si Si7 0.261765 0.889908 0.616931
O O1 0.500000 0.855112 0.219370
O O2 0.671702 0.861791 0.252054
O O3 0.637874 0.868318 0.163254
O O4 0.598133 0.000000 0.214394
O O5 0.155923 0.155923 0.750000
O O6 0.247525 0.135719 0.669172
O O7 0.227553 0.000000 0.723466
O O8 0.901251 0.500000 0.613343
O O9 0.819171 0.635456 0.577638
O O10 0.000000 0.642782 0.602836
O O11 0.781075 0.500000 0.943036
O O12 0.677968 0.648060 0.938415
O O13 0.844954 0.655834 0.910813
O O14 0.802671 0.631016 0.000000
O O15 0.138513 0.827632 0.088909
O O16 0.000000 0.896656 0.049821
O O17 0.139935 0.000000 0.058170
O O18 0.140748 0.868000 0.000000
O O19 0.257354 0.397768 0.500000
O O20 0.294804 0.500000 0.432242
O O21 0.270861 0.000000 0.615326
#
# Coordination Sequence:
#
# PCOD9566690 Si02
#       7
#    16  16  16  16  16  16  16
#     4   8  15  30  51  73  97 128 169 214 259 309
#     4  10  22  36  52  77 107 142 180 219 266 318
#     4   8  14  26  48  77 105 135 169 207 257 314
#     4  10  22  38  55  78 108 142 183 231 278 325
#     4   8  14  27  49  74  98 128 167 209 255 308
#     4   9  18  32  51  77 109 143 176 213 263 325
#     4  10  21  36  54  77 106 140 179 223 269 316
#
# _framework density 17.523354000000001
#
# number of rings (size 3 to 8) (size 9 to 14) (size 15 to 20)
#    0.000    3.000    0.000    1.714    2.000    3.000 
#    0.000    7.143    0.000    0.857    0.000    0.000 
#    0.000    0.286    0.000    0.000    0.000    0.000 
#
# Total GULP energy -624117.848662 kJ/mol
# GULP energy per Si atom -5572.480792 kJ/mol
# Density = 1.748347 g / cm^3
# Si number density = 17.523354 Si / 1000 Ang^3
#
#
#
# Elastic Constant Matrix: (Units=GPa)
#
#
# Indices 1 2 3 4 5 6 
#
# 1 70.7005 26.0140 51.5162 0.0000 0.0000 0.0000
# 2 26.0140 70.7005 51.5162 0.0000 0.0000 0.0000
# 3 51.5162 51.5162 90.7767 0.0000 0.0000 0.0000
# 4 0.0000 0.0000 0.0000 3.1220 0.0000 0.0000
# 5 0.0000 0.0000 0.0000 0.0000 3.1220 0.0000
# 6 0.0000 0.0000 0.0000 0.0000 0.0000 24.2609
#
#
#
# Elastic Compliance Matrix: (Units=1/GPa)
#
#
# Indices 1 2 3 4 5 6 
#
# 1 0.024263 0.001885 -0.014839 0.000000 0.000000 0.000000
# 2 0.001885 0.024263 -0.014839 0.000000 0.000000 0.000000
# 3 -0.014839 -0.014839 0.027859 0.000000 0.000000 0.000000
# 4 0.000000 0.000000 0.000000 0.320303 0.000000 0.000000
# 5 0.000000 0.000000 0.000000 0.000000 0.320303 0.000000
# 6 0.000000 0.000000 0.000000 0.000000 0.000000 0.041219
#
#
# Mechanical properties :
#
#
# Convention : Reuss Voigt Hill
#
# Bulk Modulus (GPa) = 48.08086 54.47449 51.27767
# Shear Modulus (GPa) = 6.09214 12.97642 9.53428
#
# Velocity S-wave (km/s) = 1.86658 2.72420 2.33510
# Velocity P-wave (km/s) = 5.66950 6.40698 6.04949
#
# Compressibility (1/GPa) = 0.02079830
#
# Stress axis : x y z
#
# Youngs Moduli (GPa) = 41.21455 41.21455 35.89530
#
# Poissons Ratio (x) = -0.07769 0.53266
# Poissons Ratio (y) = -0.07769 0.53266
# Poissons Ratio (z) = 0.61160 0.61160
#
# Static dielectric constant tensor:
#      x y z
#    x 1.604740 0.000000 0.000000 
#    y 0.000000 1.604740 0.000000 
#    z 0.000000 0.000000 1.596950 
# 
# From -- ./inp_files/12444.got.cif
#   From: 2010.05.17/outbox.cif.g08.bks.cpg/sg131_7_cif.got.tgz:12444.got - 2010.05.20 12:21:01.
