data_PCOD9566479
_publ_section_title
;
Structure prediction by ZEFSAII (Michael W. Deem and Ramdas Pophale) SiO2 
 PCOD9566479
Probable space group: P 42/M M C
;
_chemical_formula_sum "Si O2"
_cell_formula_units_Z 56
_cell_length_a 20.124873
_cell_length_b 20.124873
_cell_length_c 8.603657
_cell_angle_alpha 90.000000
_cell_angle_beta 90.000000
_cell_angle_gamma 90.000000
_cell_volume 3484.571538
_symmetry_space_group_name_H-M "P 42/M M C"
_symmetry_group_IT_number 131
_symmetry_cell_setting 'tetragonal'
loop_
_space_group_symop_operation_xyz
x,y,z
-x,-y,z
-y,x,1/2+z
y,-x,1/2+z
-x,y,-z
x,-y,-z
y,x,1/2-z
-y,-x,1/2-z
-x,-y,-z
x,y,-z
y,-x,1/2-z
-y,x,1/2-z
x,-y,z
-x,y,z
-y,-x,1/2+z
y,x,1/2+z
loop_
_atom_site_type_symbol
_atom_site_label
_atom_site_fract_x
_atom_site_fract_y
_atom_site_fract_z
Si Si1 0.920044 0.500000 0.674017
Si Si2 0.317643 0.577637 0.686974
Si Si3 0.641588 0.074880 0.313598
Si Si4 0.681951 0.214701 0.686986
O O1 0.891156 0.500000 0.500000
O O2 0.905224 0.567011 0.764887
O O3 0.000000 0.500000 0.660386
O O4 0.381100 0.618901 0.750000
O O5 0.317441 0.581756 0.500000
O O6 0.318576 0.500000 0.731920
O O7 0.253222 0.616726 0.750664
O O8 0.644830 0.071503 0.500000
O O9 0.684613 0.137815 0.262038
O O10 0.655937 0.000000 0.253592
O O11 0.743603 0.256398 0.750000
O O12 0.680545 0.217532 0.500000
#
# Coordination Sequence:
#
# PCOD9566479 Si02
#       4
#     8  16  16  16
#     4   9  17  27  41  65  93 119 148 185 226 261
#     4  10  21  35  50  68  89 116 151 194 239 281
#     4   9  18  32  48  67  92 122 155 186 222 273
#     4  10  20  33  50  69  92 123 154 188 229 273
#
# _framework density 16.070841000000001
#
# number of rings (size 3 to 8) (size 9 to 14) (size 15 to 20)
#    0.000    2.429    0.000    3.857    2.000    6.571 
#    0.000    1.429    0.000    0.000    0.000    0.000 
#    0.000    0.571    0.000    7.143    0.000    0.000 
#
# Total GULP energy -312047.516613 kJ/mol
# GULP energy per Si atom -5572.277082 kJ/mol
# Density = 1.603426 g / cm^3
# Si number density = 16.070841 Si / 1000 Ang^3
#
#
#
# Elastic Constant Matrix: (Units=GPa)
#
#
# Indices 1 2 3 4 5 6 
#
# 1 122.6608 58.2887 22.6047 0.0000 0.0000 0.0000
# 2 58.2887 122.6607 22.6015 0.0000 0.0000 0.0000
# 3 22.6047 22.6015 26.1161 0.0000 0.0000 0.0000
# 4 0.0000 0.0000 0.0000 1.1191 0.0000 0.0000
# 5 0.0000 0.0000 0.0000 0.0000 1.1226 0.0000
# 6 0.0000 0.0000 0.0000 0.0000 0.0000 -2.3785
#
#
#
# Elastic Compliance Matrix: (Units=1/GPa)
#
#
# Indices 1 2 3 4 5 6 
#
# 1 0.011293 -0.004242 -0.006104 0.000000 0.000000 0.000000
# 2 -0.004242 0.011293 -0.006101 0.000000 0.000000 0.000000
# 3 -0.006104 -0.006101 0.048854 0.000000 0.000000 0.000000
# 4 0.000000 0.000000 0.000000 0.893615 0.000000 0.000000
# 5 0.000000 0.000000 0.000000 0.000000 0.890779 0.000000
# 6 0.000000 0.000000 0.000000 0.000000 0.000000 -0.420431
#
#
# Mechanical properties :
#
#
# Convention : Reuss Voigt Hill
#
# Bulk Modulus (GPa) = 25.94320 53.15859 39.55089
# Shear Modulus (GPa) = 3.37577 11.16881 7.27229
#
# Velocity S-wave (km/s) = 1.45090 2.63910 2.12955
# Velocity P-wave (km/s) = 4.35717 6.51428 5.54170
#
# Compressibility (1/GPa) = 0.03854575
#
# Stress axis : x y z
#
# Youngs Moduli (GPa) = 88.54938 88.55401 20.46921
#
# Poissons Ratio (x) = 0.37563 0.12494
# Poissons Ratio (y) = 0.37561 0.12489
# Poissons Ratio (z) = 0.54048 0.54030
#
# Static dielectric constant tensor:
#      x y z
#    x 1.552440 0.000000 0.000000 
#    y 0.000000 1.552440 0.000000 
#    z 0.000000 0.000000 1.554410 
# 
# From -- ./inp_files/1456.got.cif
#   From: 2010.05.17/outbox.cif.g08.bks.cpg/sg131_1_cif.got.tgz:1456.got - 2010.05.20 12:21:01.
