data_PCOD9566517
_publ_section_title
;
Structure prediction by ZEFSAII (Michael W. Deem and Ramdas Pophale) SiO2 
 PCOD9566517
Probable space group: P 42/M M C
;
_chemical_formula_sum "Si O2"
_cell_formula_units_Z 96
_cell_length_a 16.298240
_cell_length_b 16.298240
_cell_length_c 17.494106
_cell_angle_alpha 90.000000
_cell_angle_beta 90.000000
_cell_angle_gamma 90.000000
_cell_volume 4647.005336
_symmetry_space_group_name_H-M "P 42/M M C"
_symmetry_group_IT_number 131
_symmetry_cell_setting 'tetragonal'
loop_
_space_group_symop_operation_xyz
x,y,z
-x,-y,z
-y,x,1/2+z
y,-x,1/2+z
-x,y,-z
x,-y,-z
y,x,1/2-z
-y,-x,1/2-z
-x,-y,-z
x,y,-z
y,-x,1/2-z
-y,x,1/2-z
x,-y,z
-x,y,z
-y,-x,1/2+z
y,x,1/2+z
loop_
_atom_site_type_symbol
_atom_site_label
_atom_site_fract_x
_atom_site_fract_y
_atom_site_fract_z
Si Si1 0.910470 0.179593 0.591070
Si Si2 0.904315 0.746451 0.911133
Si Si3 0.823826 0.405525 0.840628
Si Si4 0.376541 0.909349 0.089900
Si Si5 0.747369 0.407877 0.683559
Si Si6 0.592483 0.346073 0.411951
O O1 0.910822 0.160006 0.500000
O O2 0.825968 0.142491 0.621857
O O3 0.906991 0.277808 0.597329
O O4 0.000000 0.152370 0.621735
O O5 0.887887 0.662250 0.866834
O O6 0.000000 0.765659 0.910594
O O7 0.878218 0.734975 0.000000
O O8 0.853373 0.500000 0.828740
O O9 0.779532 0.372721 0.763640
O O10 0.752186 0.408772 0.903677
O O11 0.408027 0.828271 0.130813
O O12 0.403100 0.000000 0.118585
O O13 0.396356 0.905752 0.000000
O O14 0.723134 0.500000 0.704422
O O15 0.668773 0.373264 0.639742
O O16 0.605724 0.370609 0.500000
O O17 0.500000 0.374337 0.388872
#
# Coordination Sequence:
#
# PCOD9566517 Si02
#       6
#    16  16  16  16  16  16
#     4   8  15  30  52  78 109 143 180 227 283 341
#     4  10  20  33  54  85 116 150 195 244 294 348
#     4  10  22  39  56  77 110 152 196 240 286 339
#     4   9  18  33  54  80 110 148 195 243 289 341
#     4  11  23  37  56  83 114 149 190 237 291 349
#     4  10  21  38  61  86 112 145 185 233 292 356
#
# _framework density 20.658465
#
# number of rings (size 3 to 8) (size 9 to 14) (size 15 to 20)
#    0.000    2.333    0.000    3.500    0.000    5.667 
#    0.000    5.833    0.000    3.000    0.000    0.000 
#    0.000    2.667    0.000    0.333    0.000    0.000 
#
# Total GULP energy -535080.634996 kJ/mol
# GULP energy per Si atom -5573.756615 kJ/mol
# Density = 2.061145 g / cm^3
# Si number density = 20.658465 Si / 1000 Ang^3
#
#
#
# Elastic Constant Matrix: (Units=GPa)
#
#
# Indices 1 2 3 4 5 6 
#
# 1 88.2834 39.0187 25.4118 0.0000 0.0000 0.0000
# 2 39.0187 88.2834 25.4118 0.0000 0.0000 0.0000
# 3 25.4118 25.4118 58.9294 0.0000 0.0000 0.0000
# 4 0.0000 0.0000 0.0000 3.8451 0.0000 0.0000
# 5 0.0000 0.0000 0.0000 0.0000 3.8451 0.0000
# 6 0.0000 0.0000 0.0000 0.0000 0.0000 -46.7668
#
#
#
# Elastic Compliance Matrix: (Units=1/GPa)
#
#
# Indices 1 2 3 4 5 6 
#
# 1 0.014894 -0.005405 -0.004092 0.000000 0.000000 0.000000
# 2 -0.005405 0.014894 -0.004092 0.000000 0.000000 0.000000
# 3 -0.004092 -0.004092 0.020498 0.000000 0.000000 0.000000
# 4 0.000000 0.000000 0.000000 0.260074 0.000000 0.000000
# 5 0.000000 0.000000 0.000000 0.000000 0.260074 0.000000
# 6 0.000000 0.000000 0.000000 0.000000 0.000000 -0.021383
#
#
# Mechanical properties :
#
#
# Convention : Reuss Voigt Hill
#
# Bulk Modulus (GPa) = 43.27332 46.13119 44.70226
# Shear Modulus (GPa) = 8.56266 1.89493 5.22879
#
# Velocity S-wave (km/s) = 2.03810 0.95878 1.59266
# Velocity P-wave (km/s) = 5.15082 4.85845 5.00677
#
# Compressibility (1/GPa) = 0.02310892
#
# Stress axis : x y z
#
# Youngs Moduli (GPa) = 67.14231 67.14231 48.78411
#
# Poissons Ratio (x) = 0.36289 0.19962
# Poissons Ratio (y) = 0.36289 0.19962
# Poissons Ratio (z) = 0.27474 0.27474
#
# Static dielectric constant tensor:
#      x y z
#    x 1.754340 0.000000 0.000000 
#    y 0.000000 1.754340 0.000000 
#    z 0.000000 0.000000 1.742310 
# 
# From -- ./inp_files/9746.got.cif
#   From: 2010.05.17/outbox.cif.g08.bks.cpg/sg131_5_cif.got.tgz:9746.got - 2010.05.20 12:21:01.
