data_PCOD9566817
_publ_section_title
;
Structure prediction by ZEFSAII (Michael W. Deem and Ramdas Pophale) SiO2 
 PCOD9566817
Probable space group: P 42/M M C
;
_chemical_formula_sum "Si O2"
_cell_formula_units_Z 72
_cell_length_a 15.441518
_cell_length_b 15.441518
_cell_length_c 15.794371
_cell_angle_alpha 90.000000
_cell_angle_beta 90.000000
_cell_angle_gamma 90.000000
_cell_volume 3766.017373
_symmetry_space_group_name_H-M "P 42/M M C"
_symmetry_group_IT_number 131
_symmetry_cell_setting 'tetragonal'
loop_
_space_group_symop_operation_xyz
x,y,z
-x,-y,z
-y,x,1/2+z
y,-x,1/2+z
-x,y,-z
x,-y,-z
y,x,1/2-z
-y,-x,1/2-z
-x,-y,-z
x,y,-z
y,-x,1/2-z
-y,x,1/2-z
x,-y,z
-x,y,z
-y,-x,1/2+z
y,x,1/2+z
loop_
_atom_site_type_symbol
_atom_site_label
_atom_site_fract_x
_atom_site_fract_y
_atom_site_fract_z
Si Si1 0.312940 0.597402 0.398444
Si Si2 0.245429 0.775137 0.349711
Si Si3 0.902145 0.098811 0.146504
Si Si4 0.604928 0.500000 0.095829
Si Si5 0.599369 0.099415 0.397875
O O1 0.324108 0.590918 0.500000
O O2 0.290267 0.500000 0.368536
O O3 0.250616 0.677223 0.382339
O O4 0.407925 0.624866 0.362970
O O5 0.232537 0.767464 0.250000
O O6 0.166238 0.831642 0.385247
O O7 0.332300 0.829968 0.367302
O O8 0.900635 0.099366 0.250000
O O9 0.000000 0.123386 0.121213
O O10 0.886086 0.000000 0.120175
O O11 0.500000 0.500000 0.089090
O O12 0.642492 0.500000 0.000000
O O13 0.600746 0.100681 0.500000
O O14 0.500000 0.117806 0.371536
O O15 0.620800 0.000000 0.371408
#
# Coordination Sequence:
#
# PCOD9566817 Si02
#       5
#    16  16  16   8  16
#     4   9  18  33  50  67  93 135 183 219 246 292
#     4  11  21  30  49  80 111 138 166 216 273 327
#     4   8  15  30  51  73  98 129 164 200 245 308
#     4   7  12  26  48  66  79 111 168 218 247 278
#     4   9  19  36  57  81 109 142 181 224 273 333
#
# _framework density 19.118338000000001
#
# number of rings (size 3 to 8) (size 9 to 14) (size 15 to 20)
#    0.000    3.000    0.000    4.000    1.556    1.778 
#    0.000    0.000    0.000    3.333    0.000    9.333 
#    0.000    0.000    0.000    0.000    0.000    0.000 
#
# Total GULP energy -401173.450971 kJ/mol
# GULP energy per Si atom -5571.853486 kJ/mol
# Density = 1.907482 g / cm^3
# Si number density = 19.118338 Si / 1000 Ang^3
#
#
#
# Elastic Constant Matrix: (Units=GPa)
#
#
# Indices 1 2 3 4 5 6 
#
# 1 129.1108 97.9543 11.3535 0.0000 0.0000 0.0000
# 2 97.9543 129.1104 11.3534 0.0000 0.0000 0.0000
# 3 11.3535 11.3534 17.2128 0.0000 0.0000 0.0000
# 4 0.0000 0.0000 0.0000 20.5104 0.0000 0.0000
# 5 0.0000 0.0000 0.0000 0.0000 20.5109 0.0000
# 6 0.0000 0.0000 0.0000 0.0000 0.0000 35.1650
#
#
#
# Elastic Compliance Matrix: (Units=1/GPa)
#
#
# Indices 1 2 3 4 5 6 
#
# 1 0.018406 -0.013691 -0.003110 0.000000 0.000000 0.000000
# 2 -0.013691 0.018406 -0.003110 0.000000 0.000000 0.000000
# 3 -0.003110 -0.003110 0.062199 0.000000 0.000000 0.000000
# 4 0.000000 0.000000 0.000000 0.048756 0.000000 0.000000
# 5 0.000000 0.000000 0.000000 0.000000 0.048755 0.000000
# 6 0.000000 0.000000 0.000000 0.000000 0.000000 0.028437
#
#
# Mechanical properties :
#
#
# Convention : Reuss Voigt Hill
#
# Bulk Modulus (GPa) = 16.89504 57.41737 37.15620
# Shear Modulus (GPa) = 17.57415 25.55545 21.56480
#
# Velocity S-wave (km/s) = 3.03517 3.66005 3.36216
# Velocity P-wave (km/s) = 4.59775 6.92525 5.87786
#
# Compressibility (1/GPa) = 0.05918897
#
# Stress axis : x y z
#
# Youngs Moduli (GPa) = 54.33130 54.33113 16.07745
#
# Poissons Ratio (x) = 0.74383 0.05000
# Poissons Ratio (y) = 0.74383 0.05000
# Poissons Ratio (z) = 0.16897 0.16897
#
# Static dielectric constant tensor:
#      x y z
#    x 1.692550 0.000000 0.000000 
#    y 0.000000 1.692550 0.000000 
#    z 0.000000 0.000000 1.689350 
# 
# From -- ./inp_files/7512.got.cif
#   From: 2010.05.17/outbox.cif.g08.bks.cpg/sg131_4_cif.got.tgz:7512.got - 2010.05.20 12:21:01.
