data_PCOD9566708
_publ_section_title
;
Structure prediction by ZEFSAII (Michael W. Deem and Ramdas Pophale) SiO2 
 PCOD9566708
Probable space group: P 42/M M C
;
_chemical_formula_sum "Si O2"
_cell_formula_units_Z 88
_cell_length_a 17.824831
_cell_length_b 17.824831
_cell_length_c 14.625403
_cell_angle_alpha 90.000000
_cell_angle_beta 90.000000
_cell_angle_gamma 90.000000
_cell_volume 4646.850321
_symmetry_space_group_name_H-M "P 42/M M C"
_symmetry_group_IT_number 131
_symmetry_cell_setting 'tetragonal'
loop_
_space_group_symop_operation_xyz
x,y,z
-x,-y,z
-y,x,1/2+z
y,-x,1/2+z
-x,y,-z
x,-y,-z
y,x,1/2-z
-y,-x,1/2-z
-x,-y,-z
x,y,-z
y,-x,1/2-z
-y,x,1/2-z
x,-y,z
-x,y,z
-y,-x,1/2+z
y,x,1/2+z
loop_
_atom_site_type_symbol
_atom_site_label
_atom_site_fract_x
_atom_site_fract_y
_atom_site_fract_z
Si Si1 0.589885 0.855078 0.105837
Si Si2 0.731738 0.292458 0.357340
Si Si3 0.911872 0.088129 0.250000
Si Si4 0.916639 0.359676 0.790437
Si Si5 0.418381 0.224035 0.397381
Si Si6 0.130765 0.790535 0.105323
O O1 0.500000 0.852548 0.123064
O O2 0.631747 0.775111 0.119747
O O3 0.631057 0.906550 0.181420
O O4 0.600287 0.878158 0.000000
O O5 0.724249 0.275752 0.250000
O O6 0.646974 0.284656 0.391006
O O7 0.775820 0.220247 0.395908
O O8 0.886127 0.134640 0.161359
O O9 0.000000 0.101137 0.263680
O O10 0.846209 0.404501 0.831534
O O11 0.904550 0.277057 0.833885
O O12 0.000000 0.386056 0.815684
O O13 0.415240 0.192581 0.500000
O O14 0.500000 0.256698 0.380183
O O15 0.104043 0.789747 0.000000
#
# Coordination Sequence:
#
# PCOD9566708 Si02
#       6
#    16  16   8  16  16  16
#     4  11  23  38  58  85 117 155 197 238 287 349
#     4  11  19  36  63  83 110 149 190 236 283 334
#     4  11  24  40  58  86 122 156 192 241 302 356
#     4  11  22  37  57  83 115 150 192 239 287 340
#     4  10  21  36  56  85 116 147 185 230 286 344
#     4  11  22  40  64  88 114 152 202 247 292 348
#
# _framework density 18.937559
#
# number of rings (size 3 to 8) (size 9 to 14) (size 15 to 20)
#    0.000    1.182    4.545    4.364    0.000    4.727 
#    0.000    2.727    0.000    4.909    0.000    3.818 
#    0.000    0.000    0.000    0.000    0.000    0.000 
#
# Total GULP energy -490942.932837 kJ/mol
# GULP energy per Si atom -5578.896964 kJ/mol
# Density = 1.889446 g / cm^3
# Si number density = 18.937559 Si / 1000 Ang^3
#
#
#
# Elastic Constant Matrix: (Units=GPa)
#
#
# Indices 1 2 3 4 5 6 
#
# 1 70.7411 48.6420 33.5288 0.0000 0.0000 0.0000
# 2 48.6420 70.7389 33.5286 0.0000 0.0000 0.0000
# 3 33.5288 33.5286 152.4319 0.0000 0.0000 0.0000
# 4 0.0000 0.0000 0.0000 10.3084 0.0000 0.0000
# 5 0.0000 0.0000 0.0000 0.0000 10.3071 0.0000
# 6 0.0000 0.0000 0.0000 0.0000 0.0000 5.5656
#
#
#
# Elastic Compliance Matrix: (Units=1/GPa)
#
#
# Indices 1 2 3 4 5 6 
#
# 1 0.027405 -0.017848 -0.002102 0.000000 0.000000 0.000000
# 2 -0.017848 0.027406 -0.002102 0.000000 0.000000 0.000000
# 3 -0.002102 -0.002102 0.007485 0.000000 0.000000 0.000000
# 4 0.000000 0.000000 0.000000 0.097008 0.000000 0.000000
# 5 0.000000 0.000000 0.000000 0.000000 0.097020 0.000000
# 6 0.000000 0.000000 0.000000 0.000000 0.000000 0.179675
#
#
# Mechanical properties :
#
#
# Convention : Reuss Voigt Hill
#
# Bulk Modulus (GPa) = 54.97268 58.36786 56.67027
# Shear Modulus (GPa) = 10.28453 17.11706 13.70079
#
# Velocity S-wave (km/s) = 2.33293 3.00970 2.69266
# Velocity P-wave (km/s) = 6.02894 6.55484 6.29738
#
# Compressibility (1/GPa) = 0.01819086
#
# Stress axis : x y z
#
# Youngs Moduli (GPa) = 36.49005 36.48885 133.59868
#
# Poissons Ratio (x) = 0.65125 0.28084
# Poissons Ratio (y) = 0.65127 0.28086
# Poissons Ratio (z) = 0.07671 0.07671
#
# Static dielectric constant tensor:
#      x y z
#    x 1.660650 0.000000 0.000000 
#    y 0.000000 1.660660 0.000000 
#    z 0.000000 0.000000 1.727730 
# 
# From -- ./inp_files/5830.got.cif
#   From: 2010.05.17/outbox.cif.g08.bks.cpg/sg131_3_cif.got.tgz:5830.got - 2010.05.20 12:21:01.
