data_PCOD9566804
_publ_section_title
;
Structure prediction by ZEFSAII (Michael W. Deem and Ramdas Pophale) SiO2 
 PCOD9566804
Probable space group: P 42/M M C
;
_chemical_formula_sum "Si O2"
_cell_formula_units_Z 82
_cell_length_a 22.812675
_cell_length_b 22.812675
_cell_length_c 10.149268
_cell_angle_alpha 90.000000
_cell_angle_beta 90.000000
_cell_angle_gamma 90.000000
_cell_volume 5281.863182
_symmetry_space_group_name_H-M "P 42/M M C"
_symmetry_group_IT_number 131
_symmetry_cell_setting 'tetragonal'
loop_
_space_group_symop_operation_xyz
x,y,z
-x,-y,z
-y,x,1/2+z
y,-x,1/2+z
-x,y,-z
x,-y,-z
y,x,1/2-z
-y,-x,1/2-z
-x,-y,-z
x,y,-z
y,-x,1/2-z
-y,x,1/2-z
x,-y,z
-x,y,z
-y,-x,1/2+z
y,x,1/2+z
loop_
_atom_site_type_symbol
_atom_site_label
_atom_site_fract_x
_atom_site_fract_y
_atom_site_fract_z
Si Si1 0.678551 0.244182 0.341262
Si Si2 0.166235 0.432076 0.780560
Si Si3 0.859924 0.766133 0.754059
Si Si4 0.069851 0.726549 0.500000
Si Si5 0.407989 0.892385 0.000000
Si Si6 0.933779 0.737332 0.000000
Si Si7 0.000000 0.500000 0.500000
Si Si8 0.069675 0.403730 0.000000
O O1 0.700909 0.299092 0.250000
O O2 0.688533 0.253179 0.500000
O O3 0.612905 0.218064 0.321508
O O4 0.718391 0.190597 0.287020
O O5 0.184010 0.500000 0.792731
O O6 0.145679 0.418896 0.631554
O O7 0.108524 0.423337 0.874079
O O8 0.827473 0.827473 0.750000
O O9 0.896353 0.751941 0.625199
O O10 0.903198 0.762046 0.873694
O O11 0.082987 0.657498 0.500000
O O12 0.000000 0.736994 0.500000
O O13 0.450020 0.948188 0.000000
O O14 0.929462 0.666689 0.000000
O O15 0.000000 0.754100 0.000000
O O16 0.000000 0.421881 0.000000
#
# Coordination Sequence:
#
# PCOD9566804 Si02
#       8
#    16  16  16   8   8   8   2   8
#     4  11  23  38  58  81 108 142 186 236 293 340
#     4  12  23  38  54  78 108 148 198 237 274 327
#     4  11  21  34  54  76 103 135 180 226 284 334
#     4  12  23  35  53  78 109 144 185 235 282 333
#     4  12  24  35  51  75 110 155 199 236 274 316
#     4  11  19  36  52  73 105 139 173 217 272 324
#     4  12  24  40  44  74 120 168 208 238 276 312
#     4  11  23  35  52  73 108 148 195 235 270 317
#
# _framework density 15.524825
#
# number of rings (size 3 to 8) (size 9 to 14) (size 15 to 20)
#    0.000    0.585    7.317    1.463    6.829    2.341 
#    0.000    0.000    0.000    0.000    0.000    0.000 
#    0.000   27.707    0.000    1.756    0.000    0.000 
#
# Total GULP energy -456984.074393 kJ/mol
# GULP energy per Si atom -5572.976517 kJ/mol
# Density = 1.548949 g / cm^3
# Si number density = 15.524825 Si / 1000 Ang^3
#
#
#
# Elastic Constant Matrix: (Units=GPa)
#
#
# Indices 1 2 3 4 5 6 
#
# 1 98.6781 65.8337 51.7064 0.0000 0.0000 0.0000
# 2 65.8337 98.6766 51.7056 0.0000 0.0000 0.0000
# 3 51.7064 51.7056 151.9634 0.0000 0.0000 0.0000
# 4 0.0000 0.0000 0.0000 143.7979 0.0000 0.0000
# 5 0.0000 0.0000 0.0000 0.0000 143.7747 0.0000
# 6 0.0000 0.0000 0.0000 0.0000 0.0000 34.9738
#
#
#
# Elastic Compliance Matrix: (Units=1/GPa)
#
#
# Indices 1 2 3 4 5 6 
#
# 1 0.019090 -0.011357 -0.002631 0.000000 0.000000 0.000000
# 2 -0.011357 0.019090 -0.002631 0.000000 0.000000 0.000000
# 3 -0.002631 -0.002631 0.008371 0.000000 0.000000 0.000000
# 4 0.000000 0.000000 0.000000 0.006954 0.000000 0.000000
# 5 0.000000 0.000000 0.000000 0.000000 0.006955 0.000000
# 6 0.000000 0.000000 0.000000 0.000000 0.000000 0.028593
#
#
# Mechanical properties :
#
#
# Convention : Reuss Voigt Hill
#
# Bulk Modulus (GPa) = 75.12080 76.42329 75.77205
# Shear Modulus (GPa) = 39.45419 76.51411 57.98415
#
# Velocity S-wave (km/s) = 5.04666 7.02794 6.11804
# Velocity P-wave (km/s) = 9.08025 10.73263 9.94083
#
# Compressibility (1/GPa) = 0.01331189
#
# Stress axis : x y z
#
# Youngs Moduli (GPa) = 52.38409 52.38340 119.46089
#
# Poissons Ratio (x) = 0.59494 0.31430
# Poissons Ratio (y) = 0.59495 0.31430
# Poissons Ratio (z) = 0.13782 0.13782
#
# Static dielectric constant tensor:
#      x y z
#    x 1.500360 0.000000 0.000000 
#    y 0.000000 1.500360 0.000000 
#    z 0.000000 0.000000 1.539550 
# 
# From -- ./inp_files/2153.got.cif
#   From: 2010.05.17/outbox.cif.g08.bks.cpg/sg131_2_cif.got.tgz:2153.got - 2010.05.20 12:21:01.
