data_PCOD9566221
_publ_section_title
;
Structure prediction by ZEFSAII (Michael W. Deem and Ramdas Pophale) SiO2 
 PCOD9566221
Probable space group: P 42/M M C
;
_chemical_formula_sum "Si O2"
_cell_formula_units_Z 128
_cell_length_a 20.130271
_cell_length_b 20.130271
_cell_length_c 18.431987
_cell_angle_alpha 90.000000
_cell_angle_beta 90.000000
_cell_angle_gamma 90.000000
_cell_volume 7469.153736
_symmetry_space_group_name_H-M "P 42/M M C"
_symmetry_group_IT_number 131
_symmetry_cell_setting 'tetragonal'
loop_
_space_group_symop_operation_xyz
x,y,z
-x,-y,z
-y,x,1/2+z
y,-x,1/2+z
-x,y,-z
x,-y,-z
y,x,1/2-z
-y,-x,1/2-z
-x,-y,-z
x,y,-z
y,-x,1/2-z
-y,x,1/2-z
x,-y,z
-x,y,z
-y,-x,1/2+z
y,x,1/2+z
loop_
_atom_site_type_symbol
_atom_site_label
_atom_site_fract_x
_atom_site_fract_y
_atom_site_fract_z
Si Si1 0.073312 0.705372 0.333089
Si Si2 0.707311 0.676696 0.914852
Si Si3 0.574540 0.111576 0.914897
Si Si4 0.361617 0.924640 0.681397
Si Si5 0.423294 0.259949 0.857695
Si Si6 0.783168 0.576869 0.191367
Si Si7 0.212839 0.815255 0.085806
Si Si8 0.926803 0.238711 0.913216
O O1 0.078072 0.633227 0.371026
O O2 0.082333 0.689658 0.248518
O O3 0.129452 0.750797 0.367338
O O4 0.000000 0.733461 0.345332
O O5 0.632413 0.690729 0.887600
O O6 0.744580 0.623723 0.864565
O O7 0.747004 0.746287 0.907290
O O8 0.707850 0.658622 0.000000
O O9 0.500000 0.092821 0.890565
O O10 0.581168 0.190784 0.902155
O O11 0.580616 0.097030 0.000000
O O12 0.410202 0.862355 0.686665
O O13 0.314989 0.918605 0.611145
O O14 0.389606 0.000000 0.684855
O O15 0.500000 0.283190 0.863038
O O16 0.409230 0.240645 0.773888
O O17 0.769449 0.500000 0.176183
O O18 0.137364 0.802407 0.110706
O O19 0.213997 0.833177 0.000000
O O20 0.000000 0.216923 0.886905
O O21 0.926508 0.235700 0.000000
#
# Coordination Sequence:
#
# PCOD9566221 Si02
#       8
#    16  16  16  16  16  16  16  16
#     4  11  22  33  48  76 112 145 181 222 266 321
#     4  11  21  35  57  83 109 140 182 230 280 330
#     4  10  19  31  48  71 100 138 181 217 255 308
#     4  10  20  34  53  78 108 147 187 217 264 326
#     4  10  20  35  56  81 108 144 186 224 263 320
#     4  11  22  36  55  81 114 148 181 224 278 326
#     4  10  19  32  52  76 102 141 183 223 279 330
#     4   9  18  34  55  76  99 131 181 237 278 322
#
# _framework density 17.137149000000001
#
# number of rings (size 3 to 8) (size 9 to 14) (size 15 to 20)
#    0.000    1.750    3.750    1.125    0.000    3.000 
#    0.000    1.875    0.000    0.750    0.000    7.000 
#    0.000    3.000    0.000    0.125    0.000    0.000 
#
# Total GULP energy -714206.567491 kJ/mol
# GULP energy per Si atom -5579.738809 kJ/mol
# Density = 1.709814 g / cm^3
# Si number density = 17.137149 Si / 1000 Ang^3
#
#
#
# Elastic Constant Matrix: (Units=GPa)
#
#
# Indices 1 2 3 4 5 6 
#
# 1 64.8819 22.4494 27.1191 0.0000 0.0000 0.0000
# 2 22.4494 64.8819 27.1191 0.0000 0.0000 0.0000
# 3 27.1191 27.1191 32.4404 0.0000 0.0000 0.0000
# 4 0.0000 0.0000 0.0000 9.0312 0.0000 0.0000
# 5 0.0000 0.0000 0.0000 0.0000 9.0312 0.0000
# 6 0.0000 0.0000 0.0000 0.0000 0.0000 18.4989
#
#
#
# Elastic Compliance Matrix: (Units=1/GPa)
#
#
# Indices 1 2 3 4 5 6 
#
# 1 0.023691 0.000124 -0.019909 0.000000 0.000000 0.000000
# 2 0.000124 0.023691 -0.019909 0.000000 0.000000 0.000000
# 3 -0.019909 -0.019909 0.064112 0.000000 0.000000 0.000000
# 4 0.000000 0.000000 0.000000 0.110727 0.000000 0.000000
# 5 0.000000 0.000000 0.000000 0.000000 0.110727 0.000000
# 6 0.000000 0.000000 0.000000 0.000000 0.000000 0.054057
#
#
# Mechanical properties :
#
#
# Convention : Reuss Voigt Hill
#
# Bulk Modulus (GPa) = 31.14553 35.06437 33.10495
# Shear Modulus (GPa) = 10.48013 13.01338 11.74676
#
# Velocity S-wave (km/s) = 2.47563 2.75865 2.62096
# Velocity P-wave (km/s) = 5.13667 5.53645 5.34030
#
# Compressibility (1/GPa) = 0.03210734
#
# Stress axis : x y z
#
# Youngs Moduli (GPa) = 42.21009 42.21009 15.59780
#
# Poissons Ratio (x) = -0.00524 0.31053
# Poissons Ratio (y) = -0.00524 0.31053
# Poissons Ratio (z) = 0.84035 0.84035
#
# Static dielectric constant tensor:
#      x y z
#    x 1.577450 0.000000 0.000000 
#    y 0.000000 1.577450 0.000000 
#    z 0.000000 0.000000 1.593400 
# 
# From -- ./inp_files/8457.got.cif
#   From: 2010.05.17/outbox.cif.g08.bks.cpg/sg131_5_cif.got.tgz:8457.got - 2010.05.20 12:21:01.
