data_PCOD9566113
_publ_section_title
;
Structure prediction by ZEFSAII (Michael W. Deem and Ramdas Pophale) SiO2 
 PCOD9566113
Probable space group: P 42/M M C
;
_chemical_formula_sum "Si O2"
_cell_formula_units_Z 120
_cell_length_a 28.503123
_cell_length_b 28.503123
_cell_length_c 8.793749
_cell_angle_alpha 90.000000
_cell_angle_beta 90.000000
_cell_angle_gamma 90.000000
_cell_volume 7144.288095
_symmetry_space_group_name_H-M "P 42/M M C"
_symmetry_group_IT_number 131
_symmetry_cell_setting 'tetragonal'
loop_
_space_group_symop_operation_xyz
x,y,z
-x,-y,z
-y,x,1/2+z
y,-x,1/2+z
-x,y,-z
x,-y,-z
y,x,1/2-z
-y,-x,1/2-z
-x,-y,-z
x,y,-z
y,-x,1/2-z
-y,x,1/2-z
x,-y,z
-x,y,z
-y,-x,1/2+z
y,x,1/2+z
loop_
_atom_site_type_symbol
_atom_site_label
_atom_site_fract_x
_atom_site_fract_y
_atom_site_fract_z
Si Si1 0.273304 0.555145 0.682402
Si Si2 0.382099 0.187277 0.817257
Si Si3 0.794791 0.134641 0.322501
Si Si4 0.284400 0.784591 0.322534
Si Si5 0.082221 0.624752 0.685561
Si Si6 0.731213 0.945398 0.183594
Si Si7 0.627274 0.445339 0.818253
Si Si8 0.445585 0.000000 0.185709
O O1 0.277750 0.561243 0.500000
O O2 0.267345 0.500000 0.712984
O O3 0.227591 0.582838 0.737177
O O4 0.321736 0.570606 0.759120
O O5 0.330181 0.201211 0.768265
O O6 0.389650 0.134161 0.763275
O O7 0.385451 0.186261 0.000000
O O8 0.840943 0.159058 0.250000
O O9 0.803572 0.125930 0.500000
O O10 0.753900 0.173965 0.309423
O O11 0.771625 0.088683 0.247166
O O12 0.261092 0.738909 0.250000
O O13 0.294791 0.777701 0.500000
O O14 0.081267 0.625741 0.500000
O O15 0.070142 0.678351 0.733162
O O16 0.044644 0.585731 0.733174
O O17 0.737862 0.000000 0.225539
O O18 0.731975 0.942138 0.000000
O O19 0.586953 0.413048 0.750000
O O20 0.621396 0.500000 0.771985
O O21 0.626158 0.443074 0.000000
O O22 0.500000 0.000000 0.236076
O O23 0.446737 0.000000 0.000000
#
# Coordination Sequence:
#
# PCOD9566113 Si02
#       8
#    16  16  16  16  16  16  16   8
#     4   9  19  35  52  71  96 127 164 206 252 300
#     4  10  19  31  50  71  96 130 169 213 258 305
#     4  10  20  33  50  73 103 137 174 215 261 310
#     4  10  20  32  47  69  97 128 164 203 249 302
#     4   9  16  27  43  67  98 132 170 215 265 318
#     4  10  18  30  51  75 105 143 181 218 265 319
#     4  10  21  37  58  82 106 133 162 195 241 297
#     4   9  16  26  42  68 101 133 167 215 274 325
#
# _framework density 16.796634999999998
#
# number of rings (size 3 to 8) (size 9 to 14) (size 15 to 20)
#    0.000    2.333    2.000    1.200    0.000    3.867 
#    0.000    3.333    0.000    0.000    0.000    0.000 
#    0.000    2.933    0.000    2.800    0.000    1.200 
#
# Total GULP energy -669019.629813 kJ/mol
# GULP energy per Si atom -5575.163582 kJ/mol
# Density = 1.675841 g / cm^3
# Si number density = 16.796635 Si / 1000 Ang^3
#
#
#
# Elastic Constant Matrix: (Units=GPa)
#
#
# Indices 1 2 3 4 5 6 
#
# 1 138.3494 65.3740 28.6100 0.0000 0.0000 0.0000
# 2 65.3740 138.3415 28.5918 0.0000 0.0000 0.0000
# 3 28.6100 28.5918 13.2532 0.0000 0.0000 0.0000
# 4 0.0000 0.0000 0.0000 17.5970 0.0000 0.0000
# 5 0.0000 0.0000 0.0000 0.0000 17.5968 0.0000
# 6 0.0000 0.0000 0.0000 0.0000 0.0000 8.3085
#
#
#
# Elastic Compliance Matrix: (Units=1/GPa)
#
#
# Indices 1 2 3 4 5 6 
#
# 1 0.013087 -0.000623 -0.026905 0.000000 0.000000 0.000000
# 2 -0.000623 0.013074 -0.026860 0.000000 0.000000 0.000000
# 3 -0.026905 -0.026860 0.191481 0.000000 0.000000 0.000000
# 4 0.000000 0.000000 0.000000 0.056828 0.000000 0.000000
# 5 0.000000 0.000000 0.000000 0.000000 0.056828 0.000000
# 6 0.000000 0.000000 0.000000 0.000000 0.000000 0.120359
#
#
# Mechanical properties :
#
#
# Convention : Reuss Voigt Hill
#
# Bulk Modulus (GPa) = 9.18576 59.45506 34.32041
# Shear Modulus (GPa) = 8.37910 19.85835 14.11873
#
# Velocity S-wave (km/s) = 2.23593 3.44216 2.90240
# Velocity P-wave (km/s) = 3.48519 7.16043 5.63109
#
# Compressibility (1/GPa) = 0.10886415
#
# Stress axis : x y z
#
# Youngs Moduli (GPa) = 76.41447 76.48495 5.22246
#
# Poissons Ratio (x) = 0.04769 0.14051
# Poissons Ratio (y) = 0.04764 0.14028
# Poissons Ratio (z) = 2.05594 2.05440
#
# Static dielectric constant tensor:
#      x y z
#    x 1.559210 0.000000 0.000000 
#    y 0.000000 1.559210 0.000000 
#    z 0.000000 0.000000 1.570120 
# 
# From -- ./inp_files/2678.got.cif
#   From: 2010.05.17/outbox.cif.g08.bks.cpg/sg131_2_cif.got.tgz:2678.got - 2010.05.20 12:21:01.
