data_PCOD9566641
_publ_section_title
;
Structure prediction by ZEFSAII (Michael W. Deem and Ramdas Pophale) SiO2 
 PCOD9566641
Probable space group: P 42/M M C
;
_chemical_formula_sum "Si O2"
_cell_formula_units_Z 64
_cell_length_a 14.547132
_cell_length_b 14.547132
_cell_length_c 14.915274
_cell_angle_alpha 90.000000
_cell_angle_beta 90.000000
_cell_angle_gamma 90.000000
_cell_volume 3156.356106
_symmetry_space_group_name_H-M "P 42/M M C"
_symmetry_group_IT_number 131
_symmetry_cell_setting 'tetragonal'
loop_
_space_group_symop_operation_xyz
x,y,z
-x,-y,z
-y,x,1/2+z
y,-x,1/2+z
-x,y,-z
x,-y,-z
y,x,1/2-z
-y,-x,1/2-z
-x,-y,-z
x,y,-z
y,-x,1/2-z
-y,x,1/2-z
x,-y,z
-x,y,z
-y,-x,1/2+z
y,x,1/2+z
loop_
_atom_site_type_symbol
_atom_site_label
_atom_site_fract_x
_atom_site_fract_y
_atom_site_fract_z
Si Si1 0.101445 0.306557 0.101867
Si Si2 0.604775 0.756962 0.740068
Si Si3 0.137161 0.898461 0.854823
Si Si4 0.896001 0.355136 0.606011
O O1 0.178575 0.345143 0.166964
O O2 0.102364 0.195499 0.102108
O O3 0.000000 0.336102 0.133291
O O4 0.115341 0.337928 0.000000
O O5 0.666426 0.666426 0.750000
O O6 0.500000 0.737428 0.714350
O O7 0.604867 0.817160 0.831246
O O8 0.112770 0.887231 0.750000
O O9 0.246447 0.896964 0.871166
O O10 0.105523 0.000000 0.884878
O O11 0.878692 0.367266 0.500000
O O12 0.000000 0.389191 0.624785
#
# Coordination Sequence:
#
# PCOD9566641 Si02
#       4
#    16  16  16  16
#     4  11  23  40  64  95 132 174 217 256 304 373
#     4  12  26  45  68  92 122 161 209 268 330 389
#     4  11  20  33  58  92 133 179 218 254 297 358
#     4  10  20  37  65  97 126 159 203 254 311 377
#
# _framework density 20.276544999999999
#
# number of rings (size 3 to 8) (size 9 to 14) (size 15 to 20)
#    0.000    1.000    5.000    2.250    0.000    6.500 
#    0.000    3.750    0.000    0.000    0.000    3.500 
#    0.000    0.000    0.000    0.000    0.000    0.000 
#
# Total GULP energy -357722.730820 kJ/mol
# GULP energy per Si atom -5589.417669 kJ/mol
# Density = 2.023039 g / cm^3
# Si number density = 20.276545 Si / 1000 Ang^3
#
#
#
# Elastic Constant Matrix: (Units=GPa)
#
#
# Indices 1 2 3 4 5 6 
#
# 1 136.6266 53.7156 37.5599 0.0000 0.0000 0.0000
# 2 53.7156 136.6270 37.5595 0.0000 0.0000 0.0000
# 3 37.5599 37.5595 85.9802 0.0000 0.0000 0.0000
# 4 0.0000 0.0000 0.0000 2.0294 0.0000 0.0000
# 5 0.0000 0.0000 0.0000 0.0000 2.0289 0.0000
# 6 0.0000 0.0000 0.0000 0.0000 0.0000 -22.4259
#
#
#
# Elastic Compliance Matrix: (Units=1/GPa)
#
#
# Indices 1 2 3 4 5 6 
#
# 1 0.009205 -0.002856 -0.002773 0.000000 0.000000 0.000000
# 2 -0.002856 0.009205 -0.002773 0.000000 0.000000 0.000000
# 3 -0.002773 -0.002773 0.014053 0.000000 0.000000 0.000000
# 4 0.000000 0.000000 0.000000 0.492759 0.000000 0.000000
# 5 0.000000 0.000000 0.000000 0.000000 0.492883 0.000000
# 6 0.000000 0.000000 0.000000 0.000000 0.000000 -0.044591
#
#
# Mechanical properties :
#
#
# Convention : Reuss Voigt Hill
#
# Bulk Modulus (GPa) = 63.86852 68.54486 66.20669
# Shear Modulus (GPa) = 5.02241 11.68639 8.35440
#
# Velocity S-wave (km/s) = 1.57554 2.40333 2.03204
# Velocity P-wave (km/s) = 5.90566 6.44824 6.18290
#
# Compressibility (1/GPa) = 0.01565717
#
# Stress axis : x y z
#
# Youngs Moduli (GPa) = 108.64093 108.64157 71.15709
#
# Poissons Ratio (x) = 0.31033 0.19733
# Poissons Ratio (y) = 0.31033 0.19732
# Poissons Ratio (z) = 0.30128 0.30127
#
# Static dielectric constant tensor:
#      x y z
#    x 1.725320 0.000000 0.000000 
#    y 0.000000 1.725320 0.000000 
#    z 0.000000 0.000000 1.717500 
# 
# From -- ./inp_files/5426.got.cif
#   From: 2010.05.17/outbox.cif.g08.bks.cpg/sg131_3_cif.got.tgz:5426.got - 2010.05.20 12:21:01.
