data_PCOD9566454
_publ_section_title
;
Structure prediction by ZEFSAII (Michael W. Deem and Ramdas Pophale) SiO2 
 PCOD9566454
Probable space group: P 42/M M C
;
_chemical_formula_sum "Si O2"
_cell_formula_units_Z 112
_cell_length_a 14.443488
_cell_length_b 14.443488
_cell_length_c 26.113925
_cell_angle_alpha 90.000000
_cell_angle_beta 90.000000
_cell_angle_gamma 90.000000
_cell_volume 5447.739375
_symmetry_space_group_name_H-M "P 42/M M C"
_symmetry_group_IT_number 131
_symmetry_cell_setting 'tetragonal'
loop_
_space_group_symop_operation_xyz
x,y,z
-x,-y,z
-y,x,1/2+z
y,-x,1/2+z
-x,y,-z
x,-y,-z
y,x,1/2-z
-y,-x,1/2-z
-x,-y,-z
x,y,-z
y,-x,1/2-z
-y,x,1/2-z
x,-y,z
-x,y,z
-y,-x,1/2+z
y,x,1/2+z
loop_
_atom_site_type_symbol
_atom_site_label
_atom_site_fract_x
_atom_site_fract_y
_atom_site_fract_z
Si Si1 0.894681 0.389080 0.343417
Si Si2 0.845978 0.602054 0.138340
Si Si3 0.105122 0.887951 0.695902
Si Si4 0.103561 0.785999 0.091997
Si Si5 0.610942 0.236753 0.250938
Si Si6 0.400398 0.321486 0.441359
Si Si7 0.309884 0.805805 0.056464
O O1 0.887629 0.500000 0.349786
O O2 0.825307 0.362439 0.297917
O O3 0.867838 0.341472 0.396525
O O4 0.000000 0.367561 0.328793
O O5 0.888275 0.500000 0.139582
O O6 0.902891 0.680497 0.110408
O O7 0.817659 0.628393 0.195969
O O8 0.753892 0.596444 0.103407
O O9 0.146231 0.853770 0.750000
O O10 0.158995 0.872195 0.643994
O O11 0.000000 0.854816 0.689695
O O12 0.102452 0.000000 0.702021
O O13 0.197354 0.794355 0.058889
O O14 0.000000 0.814991 0.073175
O O15 0.669751 0.330250 0.250000
O O16 0.500000 0.253828 0.249168
O O17 0.400417 0.282806 0.500000
O O18 0.500000 0.373980 0.437479
O O19 0.295727 0.358681 0.436739
O O20 0.334084 0.841238 0.000000
#
# Coordination Sequence:
#
# PCOD9566454 Si02
#       7
#    16  16  16  16  16  16  16
#     4  10  23  43  64  86 114 150 195 247 297 341
#     4   9  18  31  48  74 110 151 193 232 268 318
#     4   8  15  29  47  67  93 125 164 212 264 321
#     4  10  20  32  49  76 109 145 183 224 278 344
#     4  10  20  36  59  87 122 158 190 231 286 347
#     4   8  14  28  52  80 112 149 184 224 280 342
#     4  10  21  37  58  83 110 144 192 248 301 354
#
# _framework density 20.558987999999999
#
# number of rings (size 3 to 8) (size 9 to 14) (size 15 to 20)
#    0.000    2.714    0.000    2.143    0.000    4.143 
#    0.000    3.571    0.000    1.286    0.000   15.000 
#    0.000    0.000    0.000    0.000    0.000    0.000 
#
# Total GULP energy -623813.070675 kJ/mol
# GULP energy per Si atom -5569.759560 kJ/mol
# Density = 2.051219 g / cm^3
# Si number density = 20.558988 Si / 1000 Ang^3
#
#
#
# Elastic Constant Matrix: (Units=GPa)
#
#
# Indices 1 2 3 4 5 6 
#
# 1 49.8644 21.9114 20.3530 0.0000 0.0000 0.0000
# 2 21.9114 49.8572 20.3511 0.0000 0.0000 0.0000
# 3 20.3530 20.3511 103.6263 0.0000 0.0000 0.0000
# 4 0.0000 0.0000 0.0000 9.5839 0.0000 0.0000
# 5 0.0000 0.0000 0.0000 0.0000 9.5844 0.0000
# 6 0.0000 0.0000 0.0000 0.0000 0.0000 16.7247
#
#
#
# Elastic Compliance Matrix: (Units=1/GPa)
#
#
# Indices 1 2 3 4 5 6 
#
# 1 0.025727 -0.010050 -0.003079 0.000000 0.000000 0.000000
# 2 -0.010050 0.025731 -0.003079 0.000000 0.000000 0.000000
# 3 -0.003079 -0.003079 0.010860 0.000000 0.000000 0.000000
# 4 0.000000 0.000000 0.000000 0.104342 0.000000 0.000000
# 5 0.000000 0.000000 0.000000 0.000000 0.104336 0.000000
# 6 0.000000 0.000000 0.000000 0.000000 0.000000 0.059792
#
#
# Mechanical properties :
#
#
# Convention : Reuss Voigt Hill
#
# Bulk Modulus (GPa) = 33.44392 36.50877 34.97634
# Shear Modulus (GPa) = 13.39865 16.56075 14.97970
#
# Velocity S-wave (km/s) = 2.55565 2.84125 2.70223
# Velocity P-wave (km/s) = 5.00110 5.34418 5.17548
#
# Compressibility (1/GPa) = 0.02990080
#
# Stress axis : x y z
#
# Youngs Moduli (GPa) = 38.86911 38.86368 92.08400
#
# Poissons Ratio (x) = 0.39057 0.28356
# Poissons Ratio (y) = 0.39062 0.28357
# Poissons Ratio (z) = 0.11969 0.11968
#
# Static dielectric constant tensor:
#      x y z
#    x 1.770990 0.000000 0.000000 
#    y 0.000000 1.770990 0.000000 
#    z 0.000000 0.000000 1.708660 
# 
# From -- ./inp_files/11312.got.cif
#   From: 2010.05.17/outbox.cif.g08.bks.cpg/sg131_6_cif.got.tgz:11312.got - 2010.05.20 12:21:01.
