data_PCOD9566453
_publ_section_title
;
Structure prediction by ZEFSAII (Michael W. Deem and Ramdas Pophale) SiO2 
 PCOD9566453
Probable space group: P 42/M M C
;
_chemical_formula_sum "Si O2"
_cell_formula_units_Z 88
_cell_length_a 12.677357
_cell_length_b 12.677357
_cell_length_c 30.201974
_cell_angle_alpha 90.000000
_cell_angle_beta 90.000000
_cell_angle_gamma 90.000000
_cell_volume 4853.921743
_symmetry_space_group_name_H-M "P 42/M M C"
_symmetry_group_IT_number 131
_symmetry_cell_setting 'tetragonal'
loop_
_space_group_symop_operation_xyz
x,y,z
-x,-y,z
-y,x,1/2+z
y,-x,1/2+z
-x,y,-z
x,-y,-z
y,x,1/2-z
-y,-x,1/2-z
-x,-y,-z
x,y,-z
y,-x,1/2-z
-y,x,1/2-z
x,-y,z
-x,y,z
-y,-x,1/2+z
y,x,1/2+z
loop_
_atom_site_type_symbol
_atom_site_label
_atom_site_fract_x
_atom_site_fract_y
_atom_site_fract_z
Si Si1 0.121928 0.719632 0.373395
Si Si2 0.660169 0.621439 0.373397
Si Si3 0.820330 0.882419 0.297849
Si Si4 0.881691 0.127787 0.049802
Si Si5 0.620053 0.752423 0.285775
Si Si6 0.372554 0.500000 0.949307
O O1 0.213070 0.632730 0.373502
O O2 0.133287 0.793040 0.329983
O O3 0.153578 0.795936 0.413941
O O4 0.000000 0.685237 0.377789
O O5 0.631386 0.500000 0.365274
O O6 0.621901 0.693325 0.332927
O O7 0.601924 0.654810 0.418967
O O8 0.873527 0.873527 0.250000
O O9 0.697540 0.852369 0.290414
O O10 0.834266 0.000000 0.316054
O O11 0.000000 0.164853 0.060815
O O12 0.885596 0.000000 0.049026
O O13 0.855458 0.162980 0.000000
O O14 0.675654 0.675654 0.250000
O O15 0.500000 0.776730 0.273116
O O16 0.500000 0.500000 0.952656
O O17 0.331758 0.500000 0.000000
#
# Coordination Sequence:
#
# PCOD9566453 Si02
#       6
#    16  16  16  16  16   8
#     4  10  20  32  49  75 105 137 175 216 262 317
#     4  10  20  34  52  75 104 135 175 220 263 318
#     4  10  21  35  51  74 105 142 180 215 255 312
#     4   8  14  26  45  68  93 122 159 205 253 298
#     4  10  20  34  54  79 104 132 172 219 274 319
#     4   9  18  34  56  76  97 133 179 223 262 312
#
# _framework density 18.129669
#
# number of rings (size 3 to 8) (size 9 to 14) (size 15 to 20)
#    0.000    2.455    0.909    2.182    0.000    4.364 
#    0.000    0.000    0.000    6.545    0.000    5.091 
#    0.000    5.818    0.000    0.000    0.000    0.000 
#
# Total GULP energy -490372.035027 kJ/mol
# GULP energy per Si atom -5572.409489 kJ/mol
# Density = 1.808841 g / cm^3
# Si number density = 18.129669 Si / 1000 Ang^3
#
#
#
# Elastic Constant Matrix: (Units=GPa)
#
#
# Indices 1 2 3 4 5 6 
#
# 1 59.7514 13.0240 6.2028 0.0000 0.0000 0.0000
# 2 13.0240 59.7514 6.2028 0.0000 0.0000 0.0000
# 3 6.2028 6.2028 87.1810 0.0000 0.0000 0.0000
# 4 0.0000 0.0000 0.0000 20.0589 0.0000 0.0000
# 5 0.0000 0.0000 0.0000 0.0000 20.0589 0.0000
# 6 0.0000 0.0000 0.0000 0.0000 0.0000 2.6600
#
#
#
# Elastic Compliance Matrix: (Units=1/GPa)
#
#
# Indices 1 2 3 4 5 6 
#
# 1 0.017655 -0.003746 -0.000990 0.000000 0.000000 0.000000
# 2 -0.003746 0.017655 -0.000990 0.000000 0.000000 0.000000
# 3 -0.000990 -0.000990 0.011611 0.000000 0.000000 0.000000
# 4 0.000000 0.000000 0.000000 0.049853 0.000000 0.000000
# 5 0.000000 0.000000 0.000000 0.000000 0.049853 0.000000
# 6 0.000000 0.000000 0.000000 0.000000 0.000000 0.375944
#
#
# Mechanical properties :
#
#
# Convention : Reuss Voigt Hill
#
# Bulk Modulus (GPa) = 28.19142 28.61592 28.40367
# Shear Modulus (GPa) = 9.16010 20.63918 14.89964
#
# Velocity S-wave (km/s) = 2.25023 3.37771 2.86988
# Velocity P-wave (km/s) = 4.72599 5.57047 5.16552
#
# Compressibility (1/GPa) = 0.03547179
#
# Stress axis : x y z
#
# Youngs Moduli (GPa) = 56.64066 56.64066 86.12363
#
# Poissons Ratio (x) = 0.21215 0.08523
# Poissons Ratio (y) = 0.21215 0.08523
# Poissons Ratio (z) = 0.05605 0.05605
#
# Static dielectric constant tensor:
#      x y z
#    x 1.624580 0.000000 0.000000 
#    y 0.000000 1.624580 0.000000 
#    z 0.000000 0.000000 1.636740 
# 
# From -- ./inp_files/13567.got.cif
#   From: 2010.05.17/outbox.cif.g08.bks.cpg/sg131_7_cif.got.tgz:13567.got - 2010.05.20 12:21:01.
