data_PCOD9566670
_publ_section_title
;
Structure prediction by ZEFSAII (Michael W. Deem and Ramdas Pophale) SiO2 
 PCOD9566670
Probable space group: P 42/M M C
;
_chemical_formula_sum "Si O2"
_cell_formula_units_Z 48
_cell_length_a 7.615821
_cell_length_b 7.615821
_cell_length_c 39.943555
_cell_angle_alpha 90.000000
_cell_angle_beta 90.000000
_cell_angle_gamma 90.000000
_cell_volume 2316.755329
_symmetry_space_group_name_H-M "P 42/M M C"
_symmetry_group_IT_number 131
_symmetry_cell_setting 'tetragonal'
loop_
_space_group_symop_operation_xyz
x,y,z
-x,-y,z
-y,x,1/2+z
y,-x,1/2+z
-x,y,-z
x,-y,-z
y,x,1/2-z
-y,-x,1/2-z
-x,-y,-z
x,y,-z
y,-x,1/2-z
-y,x,1/2-z
x,-y,z
-x,y,z
-y,-x,1/2+z
y,x,1/2+z
loop_
_atom_site_type_symbol
_atom_site_label
_atom_site_fract_x
_atom_site_fract_y
_atom_site_fract_z
Si Si1 0.802116 0.707313 0.176547
Si Si2 0.785365 0.796831 0.500000
Si Si3 0.208146 0.791855 0.750000
Si Si4 0.500000 0.789804 0.051104
Si Si5 0.711232 0.500000 0.629219
O O1 0.818138 0.500000 0.170461
O O2 0.726939 0.725660 0.214194
O O3 0.670979 0.780211 0.148801
O O4 0.000000 0.783013 0.175645
O O5 0.729479 0.676362 0.531682
O O6 0.000000 0.803159 0.500000
O O7 0.725747 0.000000 0.500000
O O8 0.000000 0.758297 0.750020
O O9 0.500000 0.747125 0.090021
O O10 0.500000 0.000000 0.047698
O O11 0.500000 0.500000 0.633239
#
# Coordination Sequence:
#
# PCOD9566670 Si02
#       5
#    16   8   8   8   8
#     4   9  19  34  49  68  95 129 169 210 257 313
#     4   8  15  31  54  78 104 132 164 208 256 300
#     4   9  18  32  49  70  94 120 159 216 266 301
#     4   9  18  32  52  78 102 128 170 210 244 304
#     4  10  21  35  49  72 104 140 168 206 262 312
#
# _framework density 20.718630000000001
#
# number of rings (size 3 to 8) (size 9 to 14) (size 15 to 20)
#    0.000    3.000    0.000    1.000    2.333    2.667 
#    0.000    1.667    0.000    1.000    0.000    0.000 
#    0.000    0.000    0.000    0.000    0.000    0.000 
#
# Total GULP energy -267563.394043 kJ/mol
# GULP energy per Si atom -5574.237376 kJ/mol
# Density = 2.067147 g / cm^3
# Si number density = 20.718630 Si / 1000 Ang^3
#
#
#
# Elastic Constant Matrix: (Units=GPa)
#
#
# Indices 1 2 3 4 5 6 
#
# 1 88.8818 26.5614 55.9141 0.0000 0.0000 0.0000
# 2 26.5614 88.8821 55.9140 0.0000 0.0000 0.0000
# 3 55.9141 55.9140 202.9877 0.0000 0.0000 0.0000
# 4 0.0000 0.0000 0.0000 25.9966 0.0000 0.0000
# 5 0.0000 0.0000 0.0000 0.0000 25.9967 0.0000
# 6 0.0000 0.0000 0.0000 0.0000 0.0000 1.2685
#
#
#
# Elastic Compliance Matrix: (Units=1/GPa)
#
#
# Indices 1 2 3 4 5 6 
#
# 1 0.013930 -0.002116 -0.003254 0.000000 0.000000 0.000000
# 2 -0.002116 0.013930 -0.003254 0.000000 0.000000 0.000000
# 3 -0.003254 -0.003254 0.006719 0.000000 0.000000 0.000000
# 4 0.000000 0.000000 0.000000 0.038467 0.000000 0.000000
# 5 0.000000 0.000000 0.000000 0.000000 0.038466 0.000000
# 6 0.000000 0.000000 0.000000 0.000000 0.000000 0.788354
#
#
# Mechanical properties :
#
#
# Convention : Reuss Voigt Hill
#
# Bulk Modulus (GPa) = 57.69973 73.05896 65.37935
# Shear Modulus (GPa) = 5.41774 26.80982 16.11378
#
# Velocity S-wave (km/s) = 1.61882 3.60112 2.79183
# Velocity P-wave (km/s) = 5.60391 7.25464 6.48203
#
# Compressibility (1/GPa) = 0.01733110
#
# Stress axis : x y z
#
# Youngs Moduli (GPa) = 71.78512 71.78546 148.82468
#
# Poissons Ratio (x) = 0.15187 0.48434
# Poissons Ratio (y) = 0.15187 0.48434
# Poissons Ratio (z) = 0.23362 0.23362
#
# Static dielectric constant tensor:
#      x y z
#    x 1.815350 0.000000 0.000000 
#    y 0.000000 1.815370 0.000000 
#    z 0.000000 0.000000 1.714140 
# 
# From -- ./inp_files/12968.got.cif
#   From: 2010.05.17/outbox.cif.g08.bks.cpg/sg131_7_cif.got.tgz:12968.got - 2010.05.20 12:21:01.
