data_PCOD9566753
_publ_section_title
;
Structure prediction by ZEFSAII (Michael W. Deem and Ramdas Pophale) SiO2 
 PCOD9566753
Probable space group: P 42/M M C
;
_chemical_formula_sum "Si O2"
_cell_formula_units_Z 88
_cell_length_a 17.609192
_cell_length_b 17.609192
_cell_length_c 14.948024
_cell_angle_alpha 90.000000
_cell_angle_beta 90.000000
_cell_angle_gamma 90.000000
_cell_volume 4635.137736
_symmetry_space_group_name_H-M "P 42/M M C"
_symmetry_group_IT_number 131
_symmetry_cell_setting 'tetragonal'
loop_
_space_group_symop_operation_xyz
x,y,z
-x,-y,z
-y,x,1/2+z
y,-x,1/2+z
-x,y,-z
x,-y,-z
y,x,1/2-z
-y,-x,1/2-z
-x,-y,-z
x,y,-z
y,-x,1/2-z
-y,x,1/2-z
x,-y,z
-x,y,z
-y,-x,1/2+z
y,x,1/2+z
loop_
_atom_site_type_symbol
_atom_site_label
_atom_site_fract_x
_atom_site_fract_y
_atom_site_fract_z
Si Si1 0.815416 0.148735 0.851659
Si Si2 0.913639 0.000000 0.106157
Si Si3 0.710374 0.412588 0.899316
Si Si4 0.687046 0.139000 0.400866
Si Si5 0.588299 0.411702 0.250000
Si Si6 0.092460 0.500000 0.394816
Si Si7 0.342847 0.089411 0.802137
O O1 0.829609 0.170392 0.750000
O O2 0.865712 0.074636 0.869915
O O3 0.843759 0.223078 0.902786
O O4 0.725963 0.130294 0.854800
O O5 0.000000 0.000000 0.143223
O O6 0.920229 0.000000 0.000000
O O7 0.735441 0.500000 0.884028
O O8 0.781577 0.357393 0.892792
O O9 0.644818 0.394207 0.830168
O O10 0.680074 0.408250 0.000000
O O11 0.666641 0.105613 0.500000
O O12 0.667124 0.098571 0.306063
O O13 0.500000 0.401831 0.224584
O O14 0.115837 0.500000 0.500000
O O15 0.116079 0.575901 0.340746
O O16 0.000000 0.500000 0.394786
O O17 0.335784 0.000000 0.821172
#
# Coordination Sequence:
#
# PCOD9566753 Si02
#       7
#    16   8  16  16   8   8  16
#     4  10  22  38  59  84 116 160 200 244 301 360
#     4  11  24  38  58  89 119 153 200 252 302 360
#     4   9  19  35  56  82 112 152 196 238 292 354
#     4  10  22  38  59  85 117 156 200 247 297 355
#     4   9  18  32  54  82 112 150 189 236 290 338
#     4   9  20  38  61  89 117 149 189 242 294 354
#     4  10  21  39  60  87 116 154 199 242 303 361
#
# _framework density 18.985412
#
# number of rings (size 3 to 8) (size 9 to 14) (size 15 to 20)
#    0.000    2.273    0.909    0.545    6.364    2.909 
#    0.000    1.818    0.000    1.636    0.000    0.000 
#    0.000    0.000    0.000    0.000    0.000    0.000 
#
# Total GULP energy -490379.185662 kJ/mol
# GULP energy per Si atom -5572.490746 kJ/mol
# Density = 1.894220 g / cm^3
# Si number density = 18.985412 Si / 1000 Ang^3
#
#
#
# Elastic Constant Matrix: (Units=GPa)
#
#
# Indices 1 2 3 4 5 6 
#
# 1 86.7140 37.7748 20.8401 0.0000 0.0000 0.0000
# 2 37.7748 86.7139 20.8389 0.0000 0.0000 0.0000
# 3 20.8401 20.8389 59.8684 0.0000 0.0000 0.0000
# 4 0.0000 0.0000 0.0000 18.4788 0.0000 0.0000
# 5 0.0000 0.0000 0.0000 0.0000 18.4771 0.0000
# 6 0.0000 0.0000 0.0000 0.0000 0.0000 22.6808
#
#
#
# Elastic Compliance Matrix: (Units=1/GPa)
#
#
# Indices 1 2 3 4 5 6 
#
# 1 0.014763 -0.005671 -0.003165 0.000000 0.000000 0.000000
# 2 -0.005671 0.014763 -0.003165 0.000000 0.000000 0.000000
# 3 -0.003165 -0.003165 0.018907 0.000000 0.000000 0.000000
# 4 0.000000 0.000000 0.000000 0.054116 0.000000 0.000000
# 5 0.000000 0.000000 0.000000 0.000000 0.054121 0.000000
# 6 0.000000 0.000000 0.000000 0.000000 0.000000 0.044090
#
#
# Mechanical properties :
#
#
# Convention : Reuss Voigt Hill
#
# Bulk Modulus (GPa) = 40.93039 43.57820 42.25429
# Shear Modulus (GPa) = 21.46800 22.18351 21.82575
#
# Velocity S-wave (km/s) = 3.36633 3.42197 3.39426
# Velocity P-wave (km/s) = 6.05931 6.21422 6.13725
#
# Compressibility (1/GPa) = 0.02443173
#
# Stress axis : x y z
#
# Youngs Moduli (GPa) = 67.73649 67.73707 52.89127
#
# Poissons Ratio (x) = 0.38410 0.16741
# Poissons Ratio (y) = 0.38410 0.16739
# Poissons Ratio (z) = 0.21440 0.21437
#
# Static dielectric constant tensor:
#      x y z
#    x 1.639880 0.000000 0.000000 
#    y 0.000000 1.639880 0.000000 
#    z 0.000000 0.000000 1.690550 
# 
# From -- ./inp_files/5944.got.cif
#   From: 2010.05.17/outbox.cif.g08.bks.cpg/sg131_3_cif.got.tgz:5944.got - 2010.05.20 12:21:01.
