data_PCOD9566001
_publ_section_title
;
Structure prediction by ZEFSAII (Michael W. Deem and Ramdas Pophale) SiO2 
 PCOD9566001
Probable space group: P 4/N C C
;
_chemical_formula_sum "Si O2"
_cell_formula_units_Z 60
_cell_length_a 16.747366
_cell_length_b 16.747366
_cell_length_c 9.609595
_cell_angle_alpha 90.000000
_cell_angle_beta 90.000000
_cell_angle_gamma 90.000000
_cell_volume 2695.244123
_symmetry_space_group_name_H-M "P 4/N C C"
_symmetry_group_IT_number 130
_symmetry_cell_setting 'tetragonal'
loop_
_space_group_symop_operation_xyz
x,y,z
1/2-y,x,z
1/2-x,1/2-y,z
y,1/2-x,z
1/2+x,-y,1/2-z
-x,1/2+y,1/2-z
1/2+y,1/2+x,1/2-z
-y,-x,1/2-z
-x,-y,-z
1/2+y,-x,-z
1/2+x,1/2+y,-z
-y,1/2+x,-z
1/2-x,y,1/2+z
x,1/2-y,1/2+z
1/2-y,1/2-x,1/2+z
y,x,1/2+z
loop_
_atom_site_type_symbol
_atom_site_label
_atom_site_fract_x
_atom_site_fract_y
_atom_site_fract_z
Si Si1 0.814830 0.574398 0.041625
Si Si2 0.594070 0.501781 0.024322
Si Si3 0.366770 0.633231 0.750000
Si Si4 0.750000 0.750000 0.549245
Si Si5 0.023897 0.734216 0.809068
O O1 0.763142 0.653584 0.047509
O O2 0.797319 0.532220 0.893279
O O3 0.905753 0.600782 0.066888
O O4 0.987613 0.714769 0.658487
O O5 0.651675 0.482802 0.894257
O O6 0.500000 0.500000 0.000000
O O7 0.616652 0.434093 0.134190
O O8 0.390066 0.722219 0.800719
#
# Coordination Sequence:
#
# PCOD9566001 Si02
#       5
#    16  16   8   4  16
#     4  12  26  42  69 110 154 199 259 319 407 480
#     4  12  25  46  77 106 150 205 261 321 399 481
#     4  12  24  48  74 105 156 197 262 324 388 482
#     4  12  24  38  68 102 164 202 240 326 396 490
#     4  12  26  47  71 114 148 204 260 328 399 485
#
# _framework density 22.261434000000001
#
# number of rings (size 3 to 8) (size 9 to 14) (size 15 to 20)
#    0.000    0.000    8.000    1.600    3.733    1.067 
#    0.000    0.000    0.000   12.000    0.000    0.000 
#    0.000    0.000    0.000    0.000    0.000    0.000 
#
# Total GULP energy -334221.834260 kJ/mol
# GULP energy per Si atom -5570.363904 kJ/mol
# Density = 2.221077 g / cm^3
# Si number density = 22.261434 Si / 1000 Ang^3
#
#
#
# Elastic Constant Matrix: (Units=GPa)
#
#
# Indices 1 2 3 4 5 6 
#
# 1 117.7610 35.6173 22.6289 0.0000 0.0000 0.0000
# 2 35.6173 117.7622 22.6292 0.0000 0.0000 0.0000
# 3 22.6289 22.6292 58.1572 0.0000 0.0000 0.0000
# 4 0.0000 0.0000 0.0000 -2.3676 0.0000 0.0000
# 5 0.0000 0.0000 0.0000 0.0000 -2.3673 0.0000
# 6 0.0000 0.0000 0.0000 0.0000 0.0000 63.6032
#
#
#
# Elastic Compliance Matrix: (Units=1/GPa)
#
#
# Indices 1 2 3 4 5 6 
#
# 1 0.009770 -0.002404 -0.002866 0.000000 0.000000 0.000000
# 2 -0.002404 0.009770 -0.002866 0.000000 0.000000 0.000000
# 3 -0.002866 -0.002866 0.019425 0.000000 0.000000 0.000000
# 4 0.000000 0.000000 0.000000 -0.422375 0.000000 0.000000
# 5 0.000000 0.000000 0.000000 0.000000 -0.422420 0.000000
# 6 0.000000 0.000000 0.000000 0.000000 0.000000 0.015722
#
#
# Mechanical properties :
#
#
# Convention : Reuss Voigt Hill
#
# Bulk Modulus (GPa) = 44.06780 50.60348 47.33564
# Shear Modulus (GPa) = -6.52509 25.96067 9.71779
#
# Velocity S-wave (km/s) = -1.71391 3.41863 2.09160
# Velocity P-wave (km/s) = 3.99023 6.19383 5.20987
#
# Compressibility (1/GPa) = 0.02269231
#
# Stress axis : x y z
#
# Youngs Moduli (GPa) = 102.35815 102.35899 51.47997
#
# Poissons Ratio (x) = 0.24608 0.14754
# Poissons Ratio (y) = 0.24608 0.14754
# Poissons Ratio (z) = 0.29335 0.29335
#
# Static dielectric constant tensor:
#      x y z
#    x 1.743130 0.000000 0.000000 
#    y 0.000000 1.743120 0.000000 
#    z 0.000000 0.000000 1.840200 
# 
# From -- ./inp_files/654.got.cif
#   From: 2010.05.17/outbox.cif.g08.bks.cpg/sg130_1_cif.got.tgz:654.got - 2010.05.20 12:17:35.
