data_PCOD9566160
_publ_section_title
;
Structure prediction by ZEFSAII (Michael W. Deem and Ramdas Pophale) SiO2 
 PCOD9566160
Probable space group: P 42/M M C
;
_chemical_formula_sum "Si O2"
_cell_formula_units_Z 128
_cell_length_a 18.839097
_cell_length_b 18.839097
_cell_length_c 23.560938
_cell_angle_alpha 90.000000
_cell_angle_beta 90.000000
_cell_angle_gamma 90.000000
_cell_volume 8362.049632
_symmetry_space_group_name_H-M "P 42/M M C"
_symmetry_group_IT_number 131
_symmetry_cell_setting 'tetragonal'
loop_
_space_group_symop_operation_xyz
x,y,z
-x,-y,z
-y,x,1/2+z
y,-x,1/2+z
-x,y,-z
x,-y,-z
y,x,1/2-z
-y,-x,1/2-z
-x,-y,-z
x,y,-z
y,-x,1/2-z
-y,x,1/2-z
x,-y,z
-x,y,z
-y,-x,1/2+z
y,x,1/2+z
loop_
_atom_site_type_symbol
_atom_site_label
_atom_site_fract_x
_atom_site_fract_y
_atom_site_fract_z
Si Si1 0.311589 0.769897 0.845915
Si Si2 0.420028 0.915084 0.938257
Si Si3 0.305071 0.418063 0.742594
Si Si4 0.335311 0.918910 0.178765
Si Si5 0.283062 0.581488 0.431743
Si Si6 0.367573 0.222126 0.648057
Si Si7 0.334530 0.578834 0.067929
Si Si8 0.918285 0.415649 0.798859
O O1 0.368356 0.738086 0.801056
O O2 0.287884 0.848022 0.826109
O O3 0.358458 0.766645 0.903774
O O4 0.247259 0.714240 0.848916
O O5 0.500000 0.885552 0.934719
O O6 0.382228 0.908916 0.877870
O O7 0.425350 0.000000 0.943368
O O8 0.389824 0.890846 0.000000
O O9 0.381825 0.381825 0.750000
O O10 0.307295 0.500000 0.726085
O O11 0.263578 0.408490 0.801655
O O12 0.381629 0.912063 0.235991
O O13 0.306167 0.000000 0.177925
O O14 0.278667 0.583350 0.500000
O O15 0.272027 0.500000 0.413629
O O16 0.361738 0.608635 0.414169
O O17 0.398705 0.257725 0.591513
O O18 0.380905 0.139868 0.659976
O O19 0.352753 0.500000 0.088192
O O20 0.333571 0.578673 0.000000
O O21 0.904987 0.500000 0.795097
O O22 0.000000 0.405140 0.817193
#
# Coordination Sequence:
#
# PCOD9566160 Si02
#       8
#    16  16  16  16  16  16  16  16
#     4  10  20  31  44  61  83 113 145 175 212 257
#     4   8  14  24  36  52  78 111 143 173 206 242
#     4  10  19  29  42  59  79 108 142 174 210 248
#     4  10  19  29  42  61  84 108 141 181 215 249
#     4   9  18  30  42  59  84 115 151 187 220 251
#     4  10  19  32  47  62  84 112 139 170 213 268
#     4   9  17  29  46  65  82 106 143 184 224 263
#     4  10  19  29  45  68  89 109 136 174 216 256
#
# _framework density 15.307252
#
# number of rings (size 3 to 8) (size 9 to 14) (size 15 to 20)
#    0.000    2.500    1.250    2.250    0.000    3.875 
#    0.000    2.500    0.000    4.875    0.000    1.750 
#    0.000    0.500    0.000    2.750    0.000    0.000 
#
# Total GULP energy -712614.814781 kJ/mol
# GULP energy per Si atom -5567.303240 kJ/mol
# Density = 1.527241 g / cm^3
# Si number density = 15.307252 Si / 1000 Ang^3
#
#
#
# Elastic Constant Matrix: (Units=GPa)
#
#
# Indices 1 2 3 4 5 6 
#
# 1 91.9260 30.8693 3.6077 0.0000 0.0000 0.0000
# 2 30.8693 91.9260 3.6077 0.0000 0.0000 0.0000
# 3 3.6077 3.6077 22.3597 0.0000 0.0000 0.0000
# 4 0.0000 0.0000 0.0000 16.1216 0.0000 0.0000
# 5 0.0000 0.0000 0.0000 0.0000 16.1216 0.0000
# 6 0.0000 0.0000 0.0000 0.0000 0.0000 7.4105
#
#
#
# Elastic Compliance Matrix: (Units=1/GPa)
#
#
# Indices 1 2 3 4 5 6 
#
# 1 0.012300 -0.004078 -0.001327 0.000000 0.000000 0.000000
# 2 -0.004078 0.012300 -0.001327 0.000000 0.000000 0.000000
# 3 -0.001327 -0.001327 0.045151 0.000000 0.000000 0.000000
# 4 0.000000 0.000000 0.000000 0.062029 0.000000 0.000000
# 5 0.000000 0.000000 0.000000 0.000000 0.062029 0.000000
# 6 0.000000 0.000000 0.000000 0.000000 0.000000 0.134945
#
#
# Mechanical properties :
#
#
# Convention : Reuss Voigt Hill
#
# Bulk Modulus (GPa) = 17.76565 31.37567 24.57066
# Shear Modulus (GPa) = 13.85124 19.13920 16.49522
#
# Velocity S-wave (km/s) = 3.01139 3.53984 3.28626
# Velocity P-wave (km/s) = 4.87058 6.10320 5.52139
#
# Compressibility (1/GPa) = 0.05628840
#
# Stress axis : x y z
#
# Youngs Moduli (GPa) = 81.30144 81.30144 22.14773
#
# Poissons Ratio (x) = 0.33157 0.02938
# Poissons Ratio (y) = 0.33157 0.02938
# Poissons Ratio (z) = 0.10785 0.10785
#
# Static dielectric constant tensor:
#      x y z
#    x 1.539580 0.000000 0.000000 
#    y 0.000000 1.539580 0.000000 
#    z 0.000000 0.000000 1.555260 
# 
# From -- ./inp_files/11489.got.cif
#   From: 2010.05.17/outbox.cif.g08.bks.cpg/sg131_6_cif.got.tgz:11489.got - 2010.05.20 12:21:01.
