data_PCOD9566608
_publ_section_title
;
Structure prediction by ZEFSAII (Michael W. Deem and Ramdas Pophale) SiO2 
 PCOD9566608
Probable space group: P 42/M M C
;
_chemical_formula_sum "Si O2"
_cell_formula_units_Z 72
_cell_length_a 14.724578
_cell_length_b 14.724578
_cell_length_c 17.449172
_cell_angle_alpha 90.000000
_cell_angle_beta 90.000000
_cell_angle_gamma 90.000000
_cell_volume 3783.210771
_symmetry_space_group_name_H-M "P 42/M M C"
_symmetry_group_IT_number 131
_symmetry_cell_setting 'tetragonal'
loop_
_space_group_symop_operation_xyz
x,y,z
-x,-y,z
-y,x,1/2+z
y,-x,1/2+z
-x,y,-z
x,-y,-z
y,x,1/2-z
-y,-x,1/2-z
-x,-y,-z
x,y,-z
y,-x,1/2-z
-y,x,1/2-z
x,-y,z
-x,y,z
-y,-x,1/2+z
y,x,1/2+z
loop_
_atom_site_type_symbol
_atom_site_label
_atom_site_fract_x
_atom_site_fract_y
_atom_site_fract_z
Si Si1 0.000000 0.609687 0.084479
Si Si2 0.103231 0.897394 0.593154
Si Si3 0.242072 0.743060 0.588578
Si Si4 0.894349 0.608079 0.350586
Si Si5 0.392029 0.179810 0.320219
O O1 0.908464 0.631476 0.128617
O O2 0.000000 0.500000 0.078987
O O3 0.000000 0.650947 0.000000
O O4 0.102368 0.895849 0.500000
O O5 0.177151 0.824890 0.617126
O O6 0.000000 0.876331 0.618044
O O7 0.125286 0.000000 0.617280
O O8 0.270091 0.757888 0.500000
O O9 0.174725 0.657712 0.593108
O O10 0.328408 0.742097 0.644863
O O11 0.894754 0.500000 0.362188
O O12 0.852333 0.625587 0.266268
O O13 0.000000 0.638487 0.355666
O O14 0.500000 0.198899 0.327497
#
# Coordination Sequence:
#
# PCOD9566608 Si02
#       5
#     8  16  16  16  16
#     4   9  16  28  50  78 106 138 176 219 270 326
#     4   8  15  28  44  66 102 143 177 212 259 317
#     4  11  22  33  53  84 113 145 188 237 285 338
#     4  10  21  39  60  80 109 152 197 238 282 332
#     4  10  20  36  55  79 113 149 184 229 284 343
#
# _framework density 19.031452999999999
#
# number of rings (size 3 to 8) (size 9 to 14) (size 15 to 20)
#    0.000    2.333    1.111    2.667    1.556    3.111 
#    0.000    1.111    0.000    0.667    0.000    7.778 
#    0.000    0.000    0.000    0.000    0.000    0.000 
#
# Total GULP energy -401648.274178 kJ/mol
# GULP energy per Si atom -5578.448252 kJ/mol
# Density = 1.898814 g / cm^3
# Si number density = 19.031453 Si / 1000 Ang^3
#
#
#
# Elastic Constant Matrix: (Units=GPa)
#
#
# Indices 1 2 3 4 5 6 
#
# 1 52.2150 27.0829 18.6293 0.0000 0.0000 0.0000
# 2 27.0829 52.2150 18.6293 0.0000 0.0000 0.0000
# 3 18.6293 18.6293 30.8290 0.0000 0.0000 0.0000
# 4 0.0000 0.0000 0.0000 23.1323 0.0000 0.0000
# 5 0.0000 0.0000 0.0000 0.0000 23.1323 0.0000
# 6 0.0000 0.0000 0.0000 0.0000 0.0000 27.3919
#
#
#
# Elastic Compliance Matrix: (Units=1/GPa)
#
#
# Indices 1 2 3 4 5 6 
#
# 1 0.028700 -0.011090 -0.010642 0.000000 0.000000 0.000000
# 2 -0.011090 0.028700 -0.010642 0.000000 0.000000 0.000000
# 3 -0.010642 -0.010642 0.045298 0.000000 0.000000 0.000000
# 4 0.000000 0.000000 0.000000 0.043230 0.000000 0.000000
# 5 0.000000 0.000000 0.000000 0.000000 0.043230 0.000000
# 6 0.000000 0.000000 0.000000 0.000000 0.000000 0.036507
#
#
# Mechanical properties :
#
#
# Convention : Reuss Voigt Hill
#
# Bulk Modulus (GPa) = 26.34867 29.32687 27.83777
# Shear Modulus (GPa) = 16.49826 19.45913 17.97870
#
# Velocity S-wave (km/s) = 2.94750 3.20108 3.07690
# Velocity P-wave (km/s) = 5.04565 5.39497 5.22323
#
# Compressibility (1/GPa) = 0.03795258
#
# Stress axis : x y z
#
# Youngs Moduli (GPa) = 34.84287 34.84287 22.07592
#
# Poissons Ratio (x) = 0.38639 0.23493
# Poissons Ratio (y) = 0.38639 0.23493
# Poissons Ratio (z) = 0.37079 0.37079
#
# Static dielectric constant tensor:
#      x y z
#    x 1.679290 0.000000 0.000000 
#    y 0.000000 1.679290 0.000000 
#    z 0.000000 0.000000 1.662530 
# 
# From -- ./inp_files/7520.got.cif
#   From: 2010.05.17/outbox.cif.g08.bks.cpg/sg131_4_cif.got.tgz:7520.got - 2010.05.20 12:21:01.
