data_PCOD9566727
_publ_section_title
;
Structure prediction by ZEFSAII (Michael W. Deem and Ramdas Pophale) SiO2 
 PCOD9566727
Probable space group: P 42/M M C
;
_chemical_formula_sum "Si O2"
_cell_formula_units_Z 96
_cell_length_a 15.154357
_cell_length_b 15.154357
_cell_length_c 23.191872
_cell_angle_alpha 90.000000
_cell_angle_beta 90.000000
_cell_angle_gamma 90.000000
_cell_volume 5326.118605
_symmetry_space_group_name_H-M "P 42/M M C"
_symmetry_group_IT_number 131
_symmetry_cell_setting 'tetragonal'
loop_
_space_group_symop_operation_xyz
x,y,z
-x,-y,z
-y,x,1/2+z
y,-x,1/2+z
-x,y,-z
x,-y,-z
y,x,1/2-z
-y,-x,1/2-z
-x,-y,-z
x,y,-z
y,-x,1/2-z
-y,x,1/2-z
x,-y,z
-x,y,z
-y,-x,1/2+z
y,x,1/2+z
loop_
_atom_site_type_symbol
_atom_site_label
_atom_site_fract_x
_atom_site_fract_y
_atom_site_fract_z
Si Si1 0.106686 0.246711 0.735726
Si Si2 0.399700 0.000000 0.932080
Si Si3 0.894042 0.398444 0.170873
Si Si4 0.220783 0.332074 0.932566
Si Si5 0.896238 0.000000 0.069810
Si Si6 0.394399 0.407032 0.567247
Si Si7 0.863805 0.748830 0.604278
O O1 0.154766 0.154766 0.750000
O O2 0.129781 0.324311 0.781241
O O3 0.142715 0.267897 0.672274
O O4 0.000000 0.239293 0.733561
O O5 0.337051 0.083275 0.917599
O O6 0.500000 0.000000 0.906605
O O7 0.410001 0.000000 0.000000
O O8 0.866999 0.500000 0.184313
O O9 0.853700 0.368776 0.109706
O O10 0.000000 0.397699 0.167442
O O11 0.314078 0.367072 0.908194
O O12 0.232756 0.227600 0.926981
O O13 0.208597 0.357417 0.000000
O O14 0.838701 0.918918 0.093658
O O15 0.000000 0.000000 0.085625
O O16 0.891006 0.000000 0.000000
O O17 0.365745 0.405505 0.500000
O O18 0.361893 0.500000 0.592781
O O19 0.500000 0.409207 0.567293
#
# Coordination Sequence:
#
# PCOD9566727 Si02
#       7
#    16   8  16  16   8  16  16
#     4  11  22  41  63  86 114 149 196 253 300 355
#     4  10  21  37  58  87 123 160 197 238 290 359
#     4  10  23  41  61  85 117 157 202 251 300 356
#     4  11  21  34  58  86 118 155 193 241 299 357
#     4  10  21  37  58  85 119 160 195 225 285 361
#     4   8  15  29  49  75 107 141 178 220 269 331
#     4  11  21  38  58  83 118 153 195 247 297 348
#
# _framework density 18.024383
#
# number of rings (size 3 to 8) (size 9 to 14) (size 15 to 20)
#    0.000    1.833    3.333    3.000    0.000    4.167 
#    0.000    2.500    0.000    0.000    0.000    0.000 
#    0.000    0.000    0.000    0.000    0.000    0.000 
#
# Total GULP energy -534604.858934 kJ/mol
# GULP energy per Si atom -5568.800614 kJ/mol
# Density = 1.798336 g / cm^3
# Si number density = 18.024383 Si / 1000 Ang^3
#
#
#
# Elastic Constant Matrix: (Units=GPa)
#
#
# Indices 1 2 3 4 5 6 
#
# 1 67.3663 23.3940 12.6564 0.0000 0.0000 0.0000
# 2 23.3940 67.3663 12.6564 0.0000 0.0000 0.0000
# 3 12.6564 12.6564 84.8034 0.0000 0.0000 0.0000
# 4 0.0000 0.0000 0.0000 35.5424 0.0000 0.0000
# 5 0.0000 0.0000 0.0000 0.0000 35.5424 0.0000
# 6 0.0000 0.0000 0.0000 0.0000 0.0000 23.5390
#
#
#
# Elastic Compliance Matrix: (Units=1/GPa)
#
#
# Indices 1 2 3 4 5 6 
#
# 1 0.017119 -0.005623 -0.001716 0.000000 0.000000 0.000000
# 2 -0.005623 0.017119 -0.001716 0.000000 0.000000 0.000000
# 3 -0.001716 -0.001716 0.012304 0.000000 0.000000 0.000000
# 4 0.000000 0.000000 0.000000 0.028135 0.000000 0.000000
# 5 0.000000 0.000000 0.000000 0.000000 0.028135 0.000000
# 6 0.000000 0.000000 0.000000 0.000000 0.000000 0.042483
#
#
# Mechanical properties :
#
#
# Convention : Reuss Voigt Hill
#
# Bulk Modulus (GPa) = 35.16903 35.21659 35.19281
# Shear Modulus (GPa) = 28.92147 30.31338 29.61742
#
# Velocity S-wave (km/s) = 4.01006 4.10542 4.05802
# Velocity P-wave (km/s) = 6.40274 6.48486 6.44393
#
# Compressibility (1/GPa) = 0.02843411
#
# Stress axis : x y z
#
# Youngs Moduli (GPa) = 58.41435 58.41435 81.27355
#
# Poissons Ratio (x) = 0.32844 0.13945
# Poissons Ratio (y) = 0.32844 0.13945
# Poissons Ratio (z) = 0.10023 0.10023
#
# Static dielectric constant tensor:
#      x y z
#    x 1.624500 0.000000 0.000000 
#    y 0.000000 1.624500 0.000000 
#    z 0.000000 0.000000 1.622890 
# 
# From -- ./inp_files/11209.got.cif
#   From: 2010.05.17/outbox.cif.g08.bks.cpg/sg131_6_cif.got.tgz:11209.got - 2010.05.20 12:21:01.
