data_PCOD9566524
_publ_section_title
;
Structure prediction by ZEFSAII (Michael W. Deem and Ramdas Pophale) SiO2 
 PCOD9566524
Probable space group: P 42/M M C
;
_chemical_formula_sum "Si O2"
_cell_formula_units_Z 72
_cell_length_a 21.454746
_cell_length_b 21.454746
_cell_length_c 7.499049
_cell_angle_alpha 90.000000
_cell_angle_beta 90.000000
_cell_angle_gamma 90.000000
_cell_volume 3451.858193
_symmetry_space_group_name_H-M "P 42/M M C"
_symmetry_group_IT_number 131
_symmetry_cell_setting 'tetragonal'
loop_
_space_group_symop_operation_xyz
x,y,z
-x,-y,z
-y,x,1/2+z
y,-x,1/2+z
-x,y,-z
x,-y,-z
y,x,1/2-z
-y,-x,1/2-z
-x,-y,-z
x,y,-z
y,-x,1/2-z
-y,x,1/2-z
x,-y,z
-x,y,z
-y,-x,1/2+z
y,x,1/2+z
loop_
_atom_site_type_symbol
_atom_site_label
_atom_site_fract_x
_atom_site_fract_y
_atom_site_fract_z
Si Si1 0.000000 0.426710 0.782977
Si Si2 0.681387 0.094970 0.718179
Si Si3 0.824946 0.069551 0.713666
Si Si4 0.668234 0.766312 0.287065
Si Si5 0.667354 0.430874 0.213738
O O1 0.056279 0.380188 0.729474
O O2 0.000000 0.500000 0.723067
O O3 0.000000 0.430255 0.000000
O O4 0.683016 0.091545 0.500000
O O5 0.752333 0.077652 0.775406
O O6 0.668912 0.164561 0.780953
O O7 0.873808 0.126193 0.750000
O O8 0.821263 0.067797 0.500000
O O9 0.846190 0.000000 0.774556
O O10 0.733425 0.733425 0.250000
O O11 0.660254 0.769747 0.500000
O O12 0.614879 0.720823 0.215101
O O13 0.601903 0.398098 0.250000
O O14 0.671527 0.500000 0.285423
O O15 0.674455 0.433413 0.000000
#
# Coordination Sequence:
#
# PCOD9566524 Si02
#       5
#     8  16  16  16  16
#     4   9  16  26  44  72 102 129 158 192 237 295
#     4   9  16  29  47  69  99 131 160 195 244 292
#     4  10  20  34  52  73 102 136 169 210 254 297
#     4   9  17  29  47  69  93 121 154 193 234 279
#     4   9  18  31  45  64  91 120 152 192 236 281
#
# _framework density 20.858332000000001
#
# number of rings (size 3 to 8) (size 9 to 14) (size 15 to 20)
#    0.000    2.778    1.111    0.667    0.000    2.222 
#    0.000    6.667    0.000    0.000    0.000    0.000 
#    0.000    6.222    0.000    0.000    0.000    0.000 
#
# Total GULP energy -401070.378043 kJ/mol
# GULP energy per Si atom -5570.421917 kJ/mol
# Density = 2.081086 g / cm^3
# Si number density = 20.858332 Si / 1000 Ang^3
#
#
#
# Elastic Constant Matrix: (Units=GPa)
#
#
# Indices 1 2 3 4 5 6 
#
# 1 199.6424 89.5201 2.5705 0.0000 0.0000 0.0000
# 2 89.5201 199.6285 2.5699 0.0000 0.0000 0.0000
# 3 2.5705 2.5699 57.0819 0.0000 0.0000 0.0000
# 4 0.0000 0.0000 0.0000 11.0610 0.0000 0.0000
# 5 0.0000 0.0000 0.0000 0.0000 11.0611 0.0000
# 6 0.0000 0.0000 0.0000 0.0000 0.0000 -4.6911
#
#
#
# Elastic Compliance Matrix: (Units=1/GPa)
#
#
# Indices 1 2 3 4 5 6 
#
# 1 0.006271 -0.002810 -0.000156 0.000000 0.000000 0.000000
# 2 -0.002810 0.006271 -0.000156 0.000000 0.000000 0.000000
# 3 -0.000156 -0.000156 0.017533 0.000000 0.000000 0.000000
# 4 0.000000 0.000000 0.000000 0.090407 0.000000 0.000000
# 5 0.000000 0.000000 0.000000 0.000000 0.090407 0.000000
# 6 0.000000 0.000000 0.000000 0.000000 0.000000 -0.213169
#
#
# Mechanical properties :
#
#
# Convention : Reuss Voigt Hill
#
# Bulk Modulus (GPa) = 41.96111 71.74153 56.85132
# Shear Modulus (GPa) = 419.89677 27.59903 223.74790
#
# Velocity S-wave (km/s) = 14.20373 3.64148 10.36837
# Velocity P-wave (km/s) = 17.00457 7.22148 13.06341
#
# Compressibility (1/GPa) = 0.02383159
#
# Stress axis : x y z
#
# Youngs Moduli (GPa) = 159.46341 159.45233 57.03620
#
# Poissons Ratio (x) = 0.44808 0.00889
# Poissons Ratio (y) = 0.44811 0.00889
# Poissons Ratio (z) = 0.02486 0.02484
#
# Static dielectric constant tensor:
#      x y z
#    x 1.744360 0.000000 0.000000 
#    y 0.000000 1.744370 0.000000 
#    z 0.000000 0.000000 1.809670 
# 
# From -- ./inp_files/1784.got.cif
#   From: 2010.05.17/outbox.cif.g08.bks.cpg/sg131_1_cif.got.tgz:1784.got - 2010.05.20 12:21:01.
