data_PCOD9566233
_publ_section_title
;
Structure prediction by ZEFSAII (Michael W. Deem and Ramdas Pophale) SiO2 
 PCOD9566233
Probable space group: P 42/M M C
;
_chemical_formula_sum "Si O2"
_cell_formula_units_Z 96
_cell_length_a 14.434956
_cell_length_b 14.434956
_cell_length_c 24.086922
_cell_angle_alpha 90.000000
_cell_angle_beta 90.000000
_cell_angle_gamma 90.000000
_cell_volume 5018.942673
_symmetry_space_group_name_H-M "P 42/M M C"
_symmetry_group_IT_number 131
_symmetry_cell_setting 'tetragonal'
loop_
_space_group_symop_operation_xyz
x,y,z
-x,-y,z
-y,x,1/2+z
y,-x,1/2+z
-x,y,-z
x,-y,-z
y,x,1/2-z
-y,-x,1/2-z
-x,-y,-z
x,y,-z
y,-x,1/2-z
-y,x,1/2-z
x,-y,z
-x,y,z
-y,-x,1/2+z
y,x,1/2+z
loop_
_atom_site_type_symbol
_atom_site_label
_atom_site_fract_x
_atom_site_fract_y
_atom_site_fract_z
Si Si1 0.104854 0.389511 0.563445
Si Si2 0.677324 0.253290 0.154233
Si Si3 0.106171 0.895898 0.923125
Si Si4 0.701819 0.809536 0.437543
Si Si5 0.102231 0.817607 0.696604
Si Si6 0.391667 0.608334 0.250000
Si Si7 0.605000 0.000000 0.567155
O O1 0.129825 0.359298 0.500000
O O2 0.097565 0.500000 0.560721
O O3 0.180492 0.371104 0.611318
O O4 0.000000 0.353165 0.576163
O O5 0.735176 0.314895 0.110168
O O6 0.744501 0.184543 0.188369
O O7 0.627464 0.320071 0.198772
O O8 0.171399 0.812295 0.941062
O O9 0.117225 0.896065 0.857067
O O10 0.000000 0.877065 0.938734
O O11 0.130079 0.000000 0.941301
O O12 0.668555 0.786978 0.500000
O O13 0.658050 0.906573 0.418017
O O14 0.122298 0.877703 0.750000
O O15 0.000000 0.773662 0.699732
O O16 0.500000 0.620127 0.266787
O O17 0.500000 0.000000 0.587925
O O18 0.602723 0.000000 0.500000
#
# Coordination Sequence:
#
# PCOD9566233 Si02
#       7
#    16  16  16  16  16   8   8
#     4   9  18  34  60  94 128 159 188 225 286 362
#     4  11  21  38  59  89 116 150 194 248 299 359
#     4   9  17  28  44  70 108 156 202 238 275 323
#     4  10  20  33  53  81 115 152 191 238 287 344
#     4  10  19  31  49  76 113 156 201 242 284 333
#     4  11  26  48  70  88 109 146 198 258 325 384
#     4   9  18  34  53  73 103 147 192 232 282 340
#
# _framework density 19.127535999999999
#
# number of rings (size 3 to 8) (size 9 to 14) (size 15 to 20)
#    0.000    2.167    1.667    2.500    0.000    2.500 
#    0.000    0.833    0.000    1.500    0.000    5.833 
#    0.000    0.000    0.000    0.000    0.000    0.000 
#
# Total GULP energy -534903.300254 kJ/mol
# GULP energy per Si atom -5571.909378 kJ/mol
# Density = 1.908400 g / cm^3
# Si number density = 19.127536 Si / 1000 Ang^3
#
#
#
# Elastic Constant Matrix: (Units=GPa)
#
#
# Indices 1 2 3 4 5 6 
#
# 1 82.5323 29.8331 41.8162 0.0000 0.0000 0.0000
# 2 29.8331 82.5318 41.8164 0.0000 0.0000 0.0000
# 3 41.8162 41.8164 137.2662 0.0000 0.0000 0.0000
# 4 0.0000 0.0000 0.0000 15.4143 0.0000 0.0000
# 5 0.0000 0.0000 0.0000 0.0000 15.4133 0.0000
# 6 0.0000 0.0000 0.0000 0.0000 0.0000 18.1117
#
#
#
# Elastic Compliance Matrix: (Units=1/GPa)
#
#
# Indices 1 2 3 4 5 6 
#
# 1 0.015242 -0.003733 -0.003506 0.000000 0.000000 0.000000
# 2 -0.003733 0.015242 -0.003506 0.000000 0.000000 0.000000
# 3 -0.003506 -0.003506 0.009421 0.000000 0.000000 0.000000
# 4 0.000000 0.000000 0.000000 0.064875 0.000000 0.000000
# 5 0.000000 0.000000 0.000000 0.000000 0.064879 0.000000
# 6 0.000000 0.000000 0.000000 0.000000 0.000000 0.055213
#
#
# Mechanical properties :
#
#
# Convention : Reuss Voigt Hill
#
# Bulk Modulus (GPa) = 54.30314 58.80685 56.55500
# Shear Modulus (GPa) = 19.80178 22.37882 21.09030
#
# Velocity S-wave (km/s) = 3.22102 3.42421 3.32417
# Velocity P-wave (km/s) = 6.50269 6.81505 6.66070
#
# Compressibility (1/GPa) = 0.01841514
#
# Stress axis : x y z
#
# Youngs Moduli (GPa) = 65.60676 65.60607 106.14263
#
# Poissons Ratio (x) = 0.24493 0.37214
# Poissons Ratio (y) = 0.24493 0.37215
# Poissons Ratio (z) = 0.23002 0.23002
#
# Static dielectric constant tensor:
#      x y z
#    x 1.691320 0.000000 0.000000 
#    y 0.000000 1.691320 0.000000 
#    z 0.000000 0.000000 1.678060 
# 
# From -- ./inp_files/11165.got.cif
#   From: 2010.05.17/outbox.cif.g08.bks.cpg/sg131_6_cif.got.tgz:11165.got - 2010.05.20 12:21:01.
