data_PCOD9566648
_publ_section_title
;
Structure prediction by ZEFSAII (Michael W. Deem and Ramdas Pophale) SiO2 
 PCOD9566648
Probable space group: P 42/M M C
;
_chemical_formula_sum "Si O2"
_cell_formula_units_Z 42
_cell_length_a 7.710005
_cell_length_b 7.710005
_cell_length_c 34.085290
_cell_angle_alpha 90.000000
_cell_angle_beta 90.000000
_cell_angle_gamma 90.000000
_cell_volume 2026.172015
_symmetry_space_group_name_H-M "P 42/M M C"
_symmetry_group_IT_number 131
_symmetry_cell_setting 'tetragonal'
loop_
_space_group_symop_operation_xyz
x,y,z
-x,-y,z
-y,x,1/2+z
y,-x,1/2+z
-x,y,-z
x,-y,-z
y,x,1/2-z
-y,-x,1/2-z
-x,-y,-z
x,y,-z
y,-x,1/2-z
-y,x,1/2-z
x,-y,z
-x,y,z
-y,-x,1/2+z
y,x,1/2+z
loop_
_atom_site_type_symbol
_atom_site_label
_atom_site_fract_x
_atom_site_fract_y
_atom_site_fract_z
Si Si1 0.288905 0.701893 0.792162
Si Si2 0.000000 0.309644 0.064644
Si Si3 0.000000 0.000000 0.500000
Si Si4 0.699260 0.798386 0.878624
O O1 0.227368 0.772633 0.750000
O O2 0.239251 0.500000 0.795135
O O3 0.500000 0.709765 0.789860
O O4 0.241145 0.786606 0.833263
O O5 0.167981 0.293673 0.092710
O O6 0.000000 0.500000 0.046264
O O7 0.000000 0.152995 0.034134
O O8 0.500000 0.731964 0.880590
O O9 0.696185 0.000000 0.889733
#
# Coordination Sequence:
#
# PCOD9566648 Si02
#       4
#    16   8   2  16
#     4   8  14  27  49  79 118 165 215 260 301 353
#     4  12  25  45  73  97 124 165 203 254 325 388
#     4  12  26  52  70  98 138 146 202 264 318 406
#     4  10  20  38  63  92 131 172 213 264 313 366
#
# _framework density 20.728746000000001
#
# number of rings (size 3 to 8) (size 9 to 14) (size 15 to 20)
#    0.000    2.286    1.905    2.571    0.000    2.286 
#    3.429    1.905    0.000    2.286    0.000    0.000 
#    0.000    0.000    0.000    0.000    0.000    0.000 
#
# Total GULP energy -233814.457907 kJ/mol
# GULP energy per Si atom -5567.010903 kJ/mol
# Density = 2.068157 g / cm^3
# Si number density = 20.728746 Si / 1000 Ang^3
#
#
#
# Elastic Constant Matrix: (Units=GPa)
#
#
# Indices 1 2 3 4 5 6 
#
# 1 97.5144 24.7679 54.9408 0.0000 0.0000 0.0000
# 2 24.7679 97.5145 54.9408 0.0000 0.0000 0.0000
# 3 54.9408 54.9408 149.8578 0.0000 0.0000 0.0000
# 4 0.0000 0.0000 0.0000 -26.2535 0.0000 0.0000
# 5 0.0000 0.0000 0.0000 0.0000 -26.2535 0.0000
# 6 0.0000 0.0000 0.0000 0.0000 0.0000 5.6563
#
#
#
# Elastic Compliance Matrix: (Units=1/GPa)
#
#
# Indices 1 2 3 4 5 6 
#
# 1 0.012971 -0.000775 -0.004471 0.000000 0.000000 0.000000
# 2 -0.000775 0.012971 -0.004471 0.000000 0.000000 0.000000
# 3 -0.004471 -0.004471 0.009951 0.000000 0.000000 0.000000
# 4 0.000000 0.000000 0.000000 -0.038090 0.000000 0.000000
# 5 0.000000 0.000000 0.000000 0.000000 -0.038090 0.000000
# 6 0.000000 0.000000 0.000000 0.000000 0.000000 0.176795
#
#
# Mechanical properties :
#
#
# Convention : Reuss Voigt Hill
#
# Bulk Modulus (GPa) = 60.76098 68.24284 64.50191
# Shear Modulus (GPa) = 30.97327 4.64567 17.80947
#
# Velocity S-wave (km/s) = 3.86971 1.49868 2.93434
# Velocity P-wave (km/s) = 7.02440 5.99900 6.53185
#
# Compressibility (1/GPa) = 0.01645793
#
# Stress axis : x y z
#
# Youngs Moduli (GPa) = 77.09555 77.09563 100.48864
#
# Poissons Ratio (x) = 0.05978 0.44929
# Poissons Ratio (y) = 0.05978 0.44929
# Poissons Ratio (z) = 0.34470 0.34470
#
# Static dielectric constant tensor:
#      x y z
#    x 1.768340 0.000000 0.000000 
#    y 0.000000 1.768330 0.000000 
#    z 0.000000 0.000000 1.719710 
# 
# From -- ./inp_files/12748.got.cif
#   From: 2010.05.17/outbox.cif.g08.bks.cpg/sg131_7_cif.got.tgz:12748.got - 2010.05.20 12:21:01.
