data_PCOD9566990
_publ_section_title
;
Structure prediction by ZEFSAII (Michael W. Deem and Ramdas Pophale) SiO2 
 PCOD9566990
Probable space group: P 42/M C M
;
_chemical_formula_sum "Si O2"
_cell_formula_units_Z 96
_cell_length_a 25.135181
_cell_length_b 25.135181
_cell_length_c 9.242639
_cell_angle_alpha 90.000000
_cell_angle_beta 90.000000
_cell_angle_gamma 90.000000
_cell_volume 5839.289733
_symmetry_space_group_name_H-M "P 42/M C M"
_symmetry_group_IT_number 132
_symmetry_cell_setting 'tetragonal'
loop_
_space_group_symop_operation_xyz
x,y,z
-y,x,1/2+z
-x,-y,z
y,-x,1/2+z
x,-y,1/2-z
-x,y,1/2-z
y,x,-z
-y,-x,-z
-x,-y,-z
y,-x,1/2-z
x,y,-z
-y,x,1/2-z
-x,y,1/2+z
x,-y,1/2+z
-y,-x,z
y,x,z
loop_
_atom_site_type_symbol
_atom_site_label
_atom_site_fract_x
_atom_site_fract_y
_atom_site_fract_z
Si Si1 0.075013 0.660419 0.835863
Si Si2 0.656347 0.796869 0.335958
Si Si3 0.848471 0.151530 0.330155
Si Si4 0.553926 0.072870 0.664979
Si Si5 0.202478 0.447527 0.834875
Si Si6 0.784583 0.055726 0.176282
Si Si7 0.758276 0.758276 0.834531
O O1 0.138986 0.656533 0.841206
O O2 0.057933 0.610051 0.739355
O O3 0.063281 0.721187 0.788110
O O4 0.054315 0.654173 0.000000
O O5 0.657697 0.777177 0.500000
O O6 0.603842 0.779527 0.252419
O O7 0.707343 0.779552 0.248033
O O8 0.861123 0.138878 0.500000
O O9 0.821413 0.101879 0.245895
O O10 0.803278 0.196723 0.332311
O O11 0.500000 0.057923 0.750000
O O12 0.551813 0.053714 0.500000
O O13 0.553438 0.137660 0.662348
O O14 0.218688 0.500000 0.750000
O O15 0.220541 0.447375 0.000000
O O16 0.800249 0.000000 0.250000
O O17 0.788926 0.055729 0.000000
O O18 0.745585 0.745585 0.000000
#
# Coordination Sequence:
#
# PCOD9566990 Si02
#       7
#    16  16   8  16  16  16   8
#     4   9  18  31  48  70  99 132 168 208 253 300
#     4  10  18  29  45  66  94 130 168 206 253 303
#     4  11  23  39  61  86 112 141 171 203 244 298
#     4   9  16  25  41  64  93 128 169 213 256 298
#     4   9  16  26  39  59  87 122 165 211 254 296
#     4  11  23  40  61  86 113 140 169 206 250 302
#     4  11  21  31  47  73 104 134 167 208 252 303
#
# _framework density 16.440355
#
# number of rings (size 3 to 8) (size 9 to 14) (size 15 to 20)
#    0.000    2.167    1.667    2.500    0.000    6.667 
#    0.000    0.000    0.000    0.750    0.000    5.250 
#    0.000    0.000    0.000    0.000    0.000    0.417 
#
# Total GULP energy -535543.690100 kJ/mol
# GULP energy per Si atom -5578.580105 kJ/mol
# Density = 1.640294 g / cm^3
# Si number density = 16.440355 Si / 1000 Ang^3
#
#
#
# Elastic Constant Matrix: (Units=GPa)
#
#
# Indices 1 2 3 4 5 6 
#
# 1 91.0405 36.8783 64.5622 0.0000 0.0000 0.0000
# 2 36.8783 91.0408 64.5623 0.0000 0.0000 0.0000
# 3 64.5622 64.5623 159.1921 0.0000 0.0000 0.0000
# 4 0.0000 0.0000 0.0000 15.3716 0.0000 0.0000
# 5 0.0000 0.0000 0.0000 0.0000 15.3716 0.0000
# 6 0.0000 0.0000 0.0000 0.0000 0.0000 31.9724
#
#
#
# Elastic Compliance Matrix: (Units=1/GPa)
#
#
# Indices 1 2 3 4 5 6 
#
# 1 0.015850 -0.002613 -0.005368 0.000000 0.000000 0.000000
# 2 -0.002613 0.015850 -0.005368 0.000000 0.000000 0.000000
# 3 -0.005368 -0.005368 0.010636 0.000000 0.000000 0.000000
# 4 0.000000 0.000000 0.000000 0.065055 0.000000 0.000000
# 5 0.000000 0.000000 0.000000 0.000000 0.065055 0.000000
# 6 0.000000 0.000000 0.000000 0.000000 0.000000 0.031277
#
#
# Mechanical properties :
#
#
# Convention : Reuss Voigt Hill
#
# Bulk Modulus (GPa) = 63.95561 74.80879 69.38220
# Shear Modulus (GPa) = 21.21944 24.22783 22.72363
#
# Velocity S-wave (km/s) = 3.59652 3.84302 3.72181
# Velocity P-wave (km/s) = 7.49884 8.08045 7.79507
#
# Compressibility (1/GPa) = 0.01563584
#
# Stress axis : x y z
#
# Youngs Moduli (GPa) = 63.09312 63.09335 94.02134
#
# Poissons Ratio (x) = 0.16489 0.50471
# Poissons Ratio (y) = 0.16489 0.50471
# Poissons Ratio (z) = 0.33869 0.33869
#
# Static dielectric constant tensor:
#      x y z
#    x 1.536170 0.000000 0.000000 
#    y 0.000000 1.536170 0.000000 
#    z 0.000000 0.000000 1.568060 
# 
# From -- ./inp_files/1850.got.cif
#   From: 2010.05.17/outbox.cif.g08.bks.cpg/sg132_1_cif.got.tgz:1850.got - 2010.05.20 12:30:18.
