data_PCOD9566793
_publ_section_title
;
Structure prediction by ZEFSAII (Michael W. Deem and Ramdas Pophale) SiO2 
 PCOD9566793
Probable space group: P 42/M M C
;
_chemical_formula_sum "Si O2"
_cell_formula_units_Z 56
_cell_length_a 18.105398
_cell_length_b 18.105398
_cell_length_c 8.833600
_cell_angle_alpha 90.000000
_cell_angle_beta 90.000000
_cell_angle_gamma 90.000000
_cell_volume 2895.702106
_symmetry_space_group_name_H-M "P 42/M M C"
_symmetry_group_IT_number 131
_symmetry_cell_setting 'tetragonal'
loop_
_space_group_symop_operation_xyz
x,y,z
-x,-y,z
-y,x,1/2+z
y,-x,1/2+z
-x,y,-z
x,-y,-z
y,x,1/2-z
-y,-x,1/2-z
-x,-y,-z
x,y,-z
y,-x,1/2-z
-y,x,1/2-z
x,-y,z
-x,y,z
-y,-x,1/2+z
y,x,1/2+z
loop_
_atom_site_type_symbol
_atom_site_label
_atom_site_fract_x
_atom_site_fract_y
_atom_site_fract_z
Si Si1 0.500000 0.911967 0.173144
Si Si2 0.643764 0.840110 0.681668
Si Si3 0.307577 0.413984 0.680657
Si Si4 0.799442 0.085855 0.682859
O O1 0.426557 0.884870 0.256635
O O2 0.500000 0.000000 0.168835
O O3 0.500000 0.882793 0.000000
O O4 0.641321 0.837032 0.500000
O O5 0.633605 0.758803 0.749422
O O6 0.720652 0.878366 0.727536
O O7 0.382868 0.382868 0.750000
O O8 0.308049 0.406493 0.500000
O O9 0.295582 0.500000 0.718714
O O10 0.865154 0.134847 0.750000
O O11 0.803265 0.088263 0.500000
O O12 0.802978 0.000000 0.729430
#
# Coordination Sequence:
#
# PCOD9566793 Si02
#       4
#     8  16  16  16
#     4  11  23  37  57  89 128 165 202 249 305 369
#     4  11  22  39  64  91 123 163 207 255 311 374
#     4  11  24  41  62  89 124 162 206 258 309 365
#     4  10  23  42  63  91 125 162 208 259 311 370
#
# _framework density 19.339008
#
# number of rings (size 3 to 8) (size 9 to 14) (size 15 to 20)
#    0.000    1.286    1.429    3.857    0.000    9.714 
#    0.000    2.857    0.000    0.000    0.000    0.000 
#    0.000    0.000    0.000    0.000    0.000    0.000 
#
# Total GULP energy -313157.307780 kJ/mol
# GULP energy per Si atom -5592.094782 kJ/mol
# Density = 1.929499 g / cm^3
# Si number density = 19.339008 Si / 1000 Ang^3
#
#
#
# Elastic Constant Matrix: (Units=GPa)
#
#
# Indices 1 2 3 4 5 6 
#
# 1 128.5984 108.2237 49.7923 0.0000 0.0000 0.0000
# 2 108.2237 128.6067 49.7937 0.0000 0.0000 0.0000
# 3 49.7923 49.7937 56.6794 0.0000 0.0000 0.0000
# 4 0.0000 0.0000 0.0000 33.7797 0.0000 0.0000
# 5 0.0000 0.0000 0.0000 0.0000 33.7799 0.0000
# 6 0.0000 0.0000 0.0000 0.0000 0.0000 27.8116
#
#
#
# Elastic Compliance Matrix: (Units=1/GPa)
#
#
# Indices 1 2 3 4 5 6 
#
# 1 0.027884 -0.021187 -0.005883 0.000000 0.000000 0.000000
# 2 -0.021187 0.027882 -0.005882 0.000000 0.000000 0.000000
# 3 -0.005883 -0.005882 0.027979 0.000000 0.000000 0.000000
# 4 0.000000 0.000000 0.000000 0.029604 0.000000 0.000000
# 5 0.000000 0.000000 0.000000 0.000000 0.029603 0.000000
# 6 0.000000 0.000000 0.000000 0.000000 0.000000 0.035956
#
#
# Mechanical properties :
#
#
# Convention : Reuss Voigt Hill
#
# Bulk Modulus (GPa) = 56.05130 81.05599 68.55365
# Shear Modulus (GPa) = 19.93936 26.14591 23.04263
#
# Velocity S-wave (km/s) = 3.21447 3.68091 3.45557
# Velocity P-wave (km/s) = 6.54397 7.75046 7.17263
#
# Compressibility (1/GPa) = 0.01784080
#
# Stress axis : x y z
#
# Youngs Moduli (GPa) = 35.86248 35.86495 35.74127
#
# Poissons Ratio (x) = 0.75988 0.21026
# Poissons Ratio (y) = 0.75983 0.21024
# Poissons Ratio (z) = 0.21097 0.21097
#
# Static dielectric constant tensor:
#      x y z
#    x 1.668420 0.000000 0.000000 
#    y 0.000000 1.668420 0.000000 
#    z 0.000000 0.000000 1.653890 
# 
# From -- ./inp_files/1193.got.cif
#   From: 2010.05.17/outbox.cif.g08.bks.cpg/sg131_1_cif.got.tgz:1193.got - 2010.05.20 12:21:01.
