data_PCOD9566395
_publ_section_title
;
Structure prediction by ZEFSAII (Michael W. Deem and Ramdas Pophale) SiO2 
 PCOD9566395
Probable space group: P 42/M M C
;
_chemical_formula_sum "Si O2"
_cell_formula_units_Z 96
_cell_length_a 14.534722
_cell_length_b 14.534722
_cell_length_c 21.420088
_cell_angle_alpha 90.000000
_cell_angle_beta 90.000000
_cell_angle_gamma 90.000000
_cell_volume 4525.168027
_symmetry_space_group_name_H-M "P 42/M M C"
_symmetry_group_IT_number 131
_symmetry_cell_setting 'tetragonal'
loop_
_space_group_symop_operation_xyz
x,y,z
-x,-y,z
-y,x,1/2+z
y,-x,1/2+z
-x,y,-z
x,-y,-z
y,x,1/2-z
-y,-x,1/2-z
-x,-y,-z
x,y,-z
y,-x,1/2-z
-y,x,1/2-z
x,-y,z
-x,y,z
-y,-x,1/2+z
y,x,1/2+z
loop_
_atom_site_type_symbol
_atom_site_label
_atom_site_fract_x
_atom_site_fract_y
_atom_site_fract_z
Si Si1 0.304616 0.395821 0.930105
Si Si2 0.102403 0.611434 0.243184
Si Si3 0.696205 0.895776 0.071834
Si Si4 0.899854 0.136783 0.072667
Si Si5 0.647047 0.899318 0.596482
Si Si6 0.752663 0.392527 0.342813
O O1 0.338030 0.500000 0.922291
O O2 0.193678 0.396328 0.928748
O O3 0.338976 0.332869 0.873104
O O4 0.332940 0.363371 0.000000
O O5 0.103694 0.500000 0.245043
O O6 0.106491 0.641467 0.171507
O O7 0.193002 0.641872 0.281092
O O8 0.000000 0.640033 0.267698
O O9 0.800652 0.892021 0.099227
O O10 0.624864 0.831690 0.106190
O O11 0.664688 0.000000 0.073365
O O12 0.705185 0.865573 0.000000
O O13 0.898170 0.247043 0.075861
O O14 0.000000 0.108126 0.099540
O O15 0.900388 0.107575 0.000000
O O16 0.608865 0.000000 0.578632
O O17 0.729740 0.500000 0.335450
#
# Coordination Sequence:
#
# PCOD9566395 Si02
#       6
#    16  16  16  16  16  16
#     4  11  24  40  59  87 122 157 198 247 301 361
#     4   9  19  36  59  88 117 147 191 245 297 350
#     4  10  20  34  54  82 114 148 192 243 293 349
#     4   9  17  31  53  82 117 154 189 227 281 352
#     4  10  19  35  61  89 118 151 189 235 289 352
#     4  11  23  40  60  80 111 154 200 252 303 349
#
# _framework density 21.214682
#
# number of rings (size 3 to 8) (size 9 to 14) (size 15 to 20)
#    0.000    2.000    1.667    2.000    0.000    5.667 
#    0.000    4.167    0.000    0.000    0.000    2.333 
#    0.000    4.000    0.000    0.000    0.000    0.000 
#
# Total GULP energy -535225.514107 kJ/mol
# GULP energy per Si atom -5575.265772 kJ/mol
# Density = 2.116640 g / cm^3
# Si number density = 21.214682 Si / 1000 Ang^3
#
#
#
# Elastic Constant Matrix: (Units=GPa)
#
#
# Indices 1 2 3 4 5 6 
#
# 1 72.1220 13.0300 18.3789 0.0000 0.0000 0.0000
# 2 13.0300 72.1220 18.3789 0.0000 0.0000 0.0000
# 3 18.3789 18.3789 78.5357 0.0000 0.0000 0.0000
# 4 0.0000 0.0000 0.0000 27.5875 0.0000 0.0000
# 5 0.0000 0.0000 0.0000 0.0000 27.5875 0.0000
# 6 0.0000 0.0000 0.0000 0.0000 0.0000 -38.3050
#
#
#
# Elastic Compliance Matrix: (Units=1/GPa)
#
#
# Indices 1 2 3 4 5 6 
#
# 1 0.014993 -0.001930 -0.003057 0.000000 0.000000 0.000000
# 2 -0.001930 0.014993 -0.003057 0.000000 0.000000 0.000000
# 3 -0.003057 -0.003057 0.014164 0.000000 0.000000 0.000000
# 4 0.000000 0.000000 0.000000 0.036248 0.000000 0.000000
# 5 0.000000 0.000000 0.000000 0.000000 0.036248 0.000000
# 6 0.000000 0.000000 0.000000 0.000000 0.000000 -0.026106
#
#
# Mechanical properties :
#
#
# Convention : Reuss Voigt Hill
#
# Bulk Modulus (GPa) = 35.63499 35.81724 35.72611
# Shear Modulus (GPa) = 43.11007 14.90680 29.00844
#
# Velocity S-wave (km/s) = 4.51276 2.65366 3.70182
# Velocity P-wave (km/s) = 6.63228 5.12924 5.92858
#
# Compressibility (1/GPa) = 0.02806231
#
# Stress axis : x y z
#
# Youngs Moduli (GPa) = 66.69755 66.69755 70.60210
#
# Poissons Ratio (x) = 0.12871 0.21584
# Poissons Ratio (y) = 0.12871 0.21584
# Poissons Ratio (z) = 0.20390 0.20390
#
# Static dielectric constant tensor:
#      x y z
#    x 1.785160 0.000000 0.000000 
#    y 0.000000 1.785160 0.000000 
#    z 0.000000 0.000000 1.782050 
# 
# From -- ./inp_files/9740.got.cif
#   From: 2010.05.17/outbox.cif.g08.bks.cpg/sg131_5_cif.got.tgz:9740.got - 2010.05.20 12:21:01.
