data_PCOD9566283
_publ_section_title
;
Structure prediction by ZEFSAII (Michael W. Deem and Ramdas Pophale) SiO2 
 PCOD9566283
Probable space group: P 42/M M C
;
_chemical_formula_sum "Si O2"
_cell_formula_units_Z 120
_cell_length_a 27.692869
_cell_length_b 27.692869
_cell_length_c 7.633188
_cell_angle_alpha 90.000000
_cell_angle_beta 90.000000
_cell_angle_gamma 90.000000
_cell_volume 5853.853661
_symmetry_space_group_name_H-M "P 42/M M C"
_symmetry_group_IT_number 131
_symmetry_cell_setting 'tetragonal'
loop_
_space_group_symop_operation_xyz
x,y,z
-x,-y,z
-y,x,1/2+z
y,-x,1/2+z
-x,y,-z
x,-y,-z
y,x,1/2-z
-y,-x,1/2-z
-x,-y,-z
x,y,-z
y,-x,1/2-z
-y,x,1/2-z
x,-y,z
-x,y,z
-y,-x,1/2+z
y,x,1/2+z
loop_
_atom_site_type_symbol
_atom_site_label
_atom_site_fract_x
_atom_site_fract_y
_atom_site_fract_z
Si Si1 0.445576 0.365662 0.710451
Si Si2 0.551310 0.157725 0.203823
Si Si3 0.373520 0.913020 0.795934
Si Si4 0.418086 0.740445 0.298478
Si Si5 0.845064 0.765605 0.709966
Si Si6 0.731701 0.054115 0.214748
Si Si7 0.000000 0.443932 0.788336
Si Si8 0.231095 0.688907 0.290871
O O1 0.407261 0.407261 0.750000
O O2 0.447348 0.362658 0.500000
O O3 0.500000 0.375736 0.774063
O O4 0.428256 0.312860 0.774541
O O5 0.500000 0.142229 0.283722
O O6 0.599446 0.133658 0.281589
O O7 0.555357 0.215106 0.209120
O O8 0.550494 0.143015 0.000000
O O9 0.322876 0.932655 0.725643
O O10 0.414162 0.954108 0.779670
O O11 0.362510 0.902538 0.000000
O O12 0.434040 0.740739 0.500000
O O13 0.361795 0.754001 0.289041
O O14 0.811978 0.811978 0.750000
O O15 0.845779 0.761992 0.500000
O O16 0.900456 0.764472 0.770355
O O17 0.816788 0.717262 0.772196
O O18 0.744423 0.000000 0.273478
O O19 0.732024 0.052666 0.000000
O O20 0.000000 0.500000 0.734018
O O21 0.000000 0.442356 0.000000
O O22 0.273730 0.726271 0.250000
O O23 0.226634 0.681416 0.500000
#
# Coordination Sequence:
#
# PCOD9566283 Si02
#       8
#    16  16  16  16  16  16   8  16
#     4  10  23  42  61  82 106 131 161 198 245 306
#     4  10  21  35  52  75 101 131 173 223 269 313
#     4  10  19  35  56  75  96 132 182 229 271 317
#     4  11  22  36  55  78 106 140 171 205 255 313
#     4   9  18  32  51  75 106 141 175 214 260 310
#     4   9  16  29  52  78 100 129 173 219 259 303
#     4  11  23  35  47  69 103 139 179 231 286 331
#     4  10  19  32  50  75 106 137 171 211 253 303
#
# _framework density 20.499317999999999
#
# number of rings (size 3 to 8) (size 9 to 14) (size 15 to 20)
#    0.000    2.067    0.667    3.000    0.000    7.600 
#    0.000    1.333    0.000    0.000    0.000    0.000 
#    0.000    0.267    0.000    3.333    0.000    0.000 
#
# Total GULP energy -669959.572292 kJ/mol
# GULP energy per Si atom -5582.996436 kJ/mol
# Density = 2.045266 g / cm^3
# Si number density = 20.499318 Si / 1000 Ang^3
#
#
#
# Elastic Constant Matrix: (Units=GPa)
#
#
# Indices 1 2 3 4 5 6 
#
# 1 138.7927 59.0690 -3.0112 0.0000 0.0000 0.0000
# 2 59.0690 138.7913 -3.0126 0.0000 0.0000 0.0000
# 3 -3.0112 -3.0126 45.3257 0.0000 0.0000 0.0000
# 4 0.0000 0.0000 0.0000 21.4099 0.0000 0.0000
# 5 0.0000 0.0000 0.0000 0.0000 21.4094 0.0000
# 6 0.0000 0.0000 0.0000 0.0000 0.0000 18.0896
#
#
#
# Elastic Compliance Matrix: (Units=1/GPa)
#
#
# Indices 1 2 3 4 5 6 
#
# 1 0.008804 -0.003740 0.000336 0.000000 0.000000 0.000000
# 2 -0.003740 0.008804 0.000337 0.000000 0.000000 0.000000
# 3 0.000336 0.000337 0.022107 0.000000 0.000000 0.000000
# 4 0.000000 0.000000 0.000000 0.046707 0.000000 0.000000
# 5 0.000000 0.000000 0.000000 0.000000 0.046708 0.000000
# 6 0.000000 0.000000 0.000000 0.000000 0.000000 0.055280
#
#
# Mechanical properties :
#
#
# Convention : Reuss Voigt Hill
#
# Bulk Modulus (GPa) = 29.77789 47.66668 38.72229
# Shear Modulus (GPa) = 24.30273 30.17275 27.23774
#
# Velocity S-wave (km/s) = 3.44690 3.84068 3.64911
# Velocity P-wave (km/s) = 5.51356 6.55523 6.05683
#
# Compressibility (1/GPa) = 0.03358196
#
# Stress axis : x y z
#
# Youngs Moduli (GPa) = 113.58705 113.58576 45.23399
#
# Poissons Ratio (x) = 0.42476 -0.01521
# Poissons Ratio (y) = 0.42477 -0.01523
# Poissons Ratio (z) = -0.03820 -0.03825
#
# Static dielectric constant tensor:
#      x y z
#    x 1.747360 0.000000 0.000000 
#    y 0.000000 1.747360 0.000000 
#    z 0.000000 0.000000 1.780600 
# 
# From -- ./inp_files/2661.got.cif
#   From: 2010.05.17/outbox.cif.g08.bks.cpg/sg131_2_cif.got.tgz:2661.got - 2010.05.20 12:21:01.
