data_PCOD9566737
_publ_section_title
;
Structure prediction by ZEFSAII (Michael W. Deem and Ramdas Pophale) SiO2 
 PCOD9566737
Probable space group: P 42/M M C
;
_chemical_formula_sum "Si O2"
_cell_formula_units_Z 80
_cell_length_a 16.500415
_cell_length_b 16.500415
_cell_length_c 15.716226
_cell_angle_alpha 90.000000
_cell_angle_beta 90.000000
_cell_angle_gamma 90.000000
_cell_volume 4278.957765
_symmetry_space_group_name_H-M "P 42/M M C"
_symmetry_group_IT_number 131
_symmetry_cell_setting 'tetragonal'
loop_
_space_group_symop_operation_xyz
x,y,z
-x,-y,z
-y,x,1/2+z
y,-x,1/2+z
-x,y,-z
x,-y,-z
y,x,1/2-z
-y,-x,1/2-z
-x,-y,-z
x,y,-z
y,-x,1/2-z
-y,x,1/2-z
x,-y,z
-x,y,z
-y,-x,1/2+z
y,x,1/2+z
loop_
_atom_site_type_symbol
_atom_site_label
_atom_site_fract_x
_atom_site_fract_y
_atom_site_fract_z
Si Si1 0.683566 0.000000 0.100079
Si Si2 0.592416 0.274587 0.261783
Si Si3 0.201538 0.708382 0.095706
Si Si4 0.172312 0.909316 0.321051
Si Si5 0.359142 0.178657 0.900842
Si Si6 0.000000 0.121971 0.598332
O O1 0.649891 0.914029 0.130911
O O2 0.780578 0.000000 0.105190
O O3 0.664090 0.000000 0.000000
O O4 0.642055 0.357946 0.250000
O O5 0.500000 0.286901 0.288583
O O6 0.643172 0.224131 0.332344
O O7 0.594005 0.228563 0.170914
O O8 0.119792 0.756650 0.117863
O O9 0.271119 0.778052 0.096827
O O10 0.199785 0.674490 0.000000
O O11 0.160020 0.839981 0.250000
O O12 0.083127 0.909942 0.362229
O O13 0.188524 0.000000 0.288675
O O14 0.388655 0.180569 0.000000
O O15 0.000000 0.100601 0.500000
#
# Coordination Sequence:
#
# PCOD9566737 Si02
#       6
#     8  16  16  16  16   8
#     4   9  16  29  53  81 109 146 187 228 280 340
#     4  10  22  40  63  91 118 146 185 234 294 361
#     4  10  21  38  58  80 110 156 208 246 285 342
#     4  12  23  34  50  77 115 157 203 255 312 353
#     4   9  17  33  58  86 117 150 185 229 285 350
#     4  11  21  32  49  75 113 154 194 247 301 353
#
# _framework density 18.696141999999998
#
# number of rings (size 3 to 8) (size 9 to 14) (size 15 to 20)
#    0.000    1.800    3.000    2.700    0.000    3.000 
#    0.000    0.500    0.000    1.800    0.000    7.000 
#    0.000    0.000    0.000    0.000    0.000    0.000 
#
# Total GULP energy -446178.624775 kJ/mol
# GULP energy per Si atom -5577.232810 kJ/mol
# Density = 1.865359 g / cm^3
# Si number density = 18.696142 Si / 1000 Ang^3
#
#
#
# Elastic Constant Matrix: (Units=GPa)
#
#
# Indices 1 2 3 4 5 6 
#
# 1 92.8160 33.6055 29.7953 0.0000 0.0000 0.0000
# 2 33.6055 92.8156 29.7948 0.0000 0.0000 0.0000
# 3 29.7953 29.7948 103.2863 0.0000 0.0000 0.0000
# 4 0.0000 0.0000 0.0000 8.8342 0.0000 0.0000
# 5 0.0000 0.0000 0.0000 0.0000 8.8345 0.0000
# 6 0.0000 0.0000 0.0000 0.0000 0.0000 166.9388
#
#
#
# Elastic Compliance Matrix: (Units=1/GPa)
#
#
# Indices 1 2 3 4 5 6 
#
# 1 0.013022 -0.003867 -0.002641 0.000000 0.000000 0.000000
# 2 -0.003867 0.013022 -0.002641 0.000000 0.000000 0.000000
# 3 -0.002641 -0.002641 0.011205 0.000000 0.000000 0.000000
# 4 0.000000 0.000000 0.000000 0.113197 0.000000 0.000000
# 5 0.000000 0.000000 0.000000 0.000000 0.113193 0.000000
# 6 0.000000 0.000000 0.000000 0.000000 0.000000 0.005990
#
#
# Mechanical properties :
#
#
# Convention : Reuss Voigt Hill
#
# Bulk Modulus (GPa) = 52.76601 52.81211 52.78906
# Shear Modulus (GPa) = 16.99268 49.96966 33.48117
#
# Velocity S-wave (km/s) = 3.01805 5.17545 4.23638
# Velocity P-wave (km/s) = 6.35838 8.00141 7.22674
#
# Compressibility (1/GPa) = 0.01895159
#
# Stress axis : x y z
#
# Youngs Moduli (GPa) = 76.79374 76.79357 89.24209
#
# Poissons Ratio (x) = 0.29696 0.23568
# Poissons Ratio (y) = 0.29696 0.23568
# Poissons Ratio (z) = 0.20281 0.20280
#
# Static dielectric constant tensor:
#      x y z
#    x 1.788650 0.000000 0.000000 
#    y 0.000000 1.788670 0.000000 
#    z 0.000000 0.000000 1.705840 
# 
# From -- ./inp_files/5798.got.cif
#   From: 2010.05.17/outbox.cif.g08.bks.cpg/sg131_3_cif.got.tgz:5798.got - 2010.05.20 12:21:01.
