data_PCOD9566375
_publ_section_title
;
Structure prediction by ZEFSAII (Michael W. Deem and Ramdas Pophale) SiO2 
 PCOD9566375
Probable space group: P 42/M M C
;
_chemical_formula_sum "Si O2"
_cell_formula_units_Z 112
_cell_length_a 13.994983
_cell_length_b 13.994983
_cell_length_c 31.878201
_cell_angle_alpha 90.000000
_cell_angle_beta 90.000000
_cell_angle_gamma 90.000000
_cell_volume 6243.650076
_symmetry_space_group_name_H-M "P 42/M M C"
_symmetry_group_IT_number 131
_symmetry_cell_setting 'tetragonal'
loop_
_space_group_symop_operation_xyz
x,y,z
-x,-y,z
-y,x,1/2+z
y,-x,1/2+z
-x,y,-z
x,-y,-z
y,x,1/2-z
-y,-x,1/2-z
-x,-y,-z
x,y,-z
y,-x,1/2-z
-y,x,1/2-z
x,-y,z
-x,y,z
-y,-x,1/2+z
y,x,1/2+z
loop_
_atom_site_type_symbol
_atom_site_label
_atom_site_fract_x
_atom_site_fract_y
_atom_site_fract_z
Si Si1 0.387393 0.239215 0.326628
Si Si2 0.384749 0.892122 0.249751
Si Si3 0.612890 0.225050 0.835350
Si Si4 0.235680 0.112952 0.122871
Si Si5 0.883572 0.109911 0.296597
Si Si6 0.392006 0.889343 0.409135
Si Si7 0.193819 0.112401 0.451769
O O1 0.500000 0.259286 0.320291
O O2 0.352437 0.171637 0.288745
O O3 0.325358 0.334458 0.328594
O O4 0.377818 0.179925 0.369675
O O5 0.500000 0.899043 0.254443
O O6 0.368709 0.840005 0.205799
O O7 0.346050 0.000000 0.249541
O O8 0.500000 0.234380 0.841048
O O9 0.666283 0.171004 0.873108
O O10 0.172824 0.144001 0.163500
O O11 0.176462 0.138079 0.081512
O O12 0.252299 0.000000 0.125710
O O13 0.855156 0.144845 0.250000
O O14 0.000000 0.109062 0.295464
O O15 0.852821 0.000000 0.302717
O O16 0.500000 0.874937 0.425650
O O17 0.306716 0.875483 0.441845
O O18 0.386458 0.000000 0.394517
O O19 0.173214 0.135889 0.500000
O O20 0.171397 0.000000 0.445087
#
# Coordination Sequence:
#
# PCOD9566375 Si02
#       7
#    16  16  16  16  16  16  16
#     4  10  19  34  57  84 114 149 191 237 287 342
#     4   9  18  33  53  78 110 148 189 233 279 331
#     4  11  23  38  54  77 111 151 197 246 294 342
#     4  11  22  37  55  77 107 148 195 239 286 340
#     4   8  15  29  49  75 108 142 176 218 269 327
#     4   9  17  32  56  87 120 149 179 222 279 342
#     4  10  21  37  58  87 120 151 184 225 283 354
#
# _framework density 17.938226
#
# number of rings (size 3 to 8) (size 9 to 14) (size 15 to 20)
#    0.000    2.286    1.429    2.143    0.000    5.429 
#    0.000    3.571    0.000    3.000    0.000    1.000 
#    0.000    3.429    0.000    0.000    0.000    0.000 
#
# Total GULP energy -625682.573138 kJ/mol
# GULP energy per Si atom -5586.451546 kJ/mol
# Density = 1.789740 g / cm^3
# Si number density = 17.938226 Si / 1000 Ang^3
#
#
#
# Elastic Constant Matrix: (Units=GPa)
#
#
# Indices 1 2 3 4 5 6 
#
# 1 94.9646 45.8223 37.7988 0.0000 0.0000 0.0000
# 2 45.8223 94.9648 37.7988 0.0000 0.0000 0.0000
# 3 37.7988 37.7988 84.6433 0.0000 0.0000 0.0000
# 4 0.0000 0.0000 0.0000 19.9120 0.0000 0.0000
# 5 0.0000 0.0000 0.0000 0.0000 19.9121 0.0000
# 6 0.0000 0.0000 0.0000 0.0000 0.0000 26.2490
#
#
#
# Elastic Compliance Matrix: (Units=1/GPa)
#
#
# Indices 1 2 3 4 5 6 
#
# 1 0.014846 -0.005503 -0.004172 0.000000 0.000000 0.000000
# 2 -0.005503 0.014846 -0.004172 0.000000 0.000000 0.000000
# 3 -0.004172 -0.004172 0.015541 0.000000 0.000000 0.000000
# 4 0.000000 0.000000 0.000000 0.050221 0.000000 0.000000
# 5 0.000000 0.000000 0.000000 0.000000 0.050221 0.000000
# 6 0.000000 0.000000 0.000000 0.000000 0.000000 0.038097
#
#
# Mechanical properties :
#
#
# Convention : Reuss Voigt Hill
#
# Bulk Modulus (GPa) = 57.01955 57.49026 57.25491
# Shear Modulus (GPa) = 23.00830 23.42481 23.21655
#
# Velocity S-wave (km/s) = 3.58528 3.61759 3.60147
# Velocity P-wave (km/s) = 6.99962 7.04044 7.02006
#
# Compressibility (1/GPa) = 0.01753784
#
# Stress axis : x y z
#
# Youngs Moduli (GPa) = 67.35722 67.35741 64.34670
#
# Poissons Ratio (x) = 0.37066 0.26848
# Poissons Ratio (y) = 0.37066 0.26848
# Poissons Ratio (z) = 0.28104 0.28104
#
# Static dielectric constant tensor:
#      x y z
#    x 1.636210 0.000000 0.000000 
#    y 0.000000 1.636210 0.000000 
#    z 0.000000 0.000000 1.587630 
# 
# From -- ./inp_files/12480.got.cif
#   From: 2010.05.17/outbox.cif.g08.bks.cpg/sg131_7_cif.got.tgz:12480.got - 2010.05.20 12:21:01.
