data_PCOD9566176
_publ_section_title
;
Structure prediction by ZEFSAII (Michael W. Deem and Ramdas Pophale) SiO2 
 PCOD9566176
Probable space group: P 42/M M C
;
_chemical_formula_sum "Si O2"
_cell_formula_units_Z 80
_cell_length_a 20.790786
_cell_length_b 20.790786
_cell_length_c 14.600730
_cell_angle_alpha 90.000000
_cell_angle_beta 90.000000
_cell_angle_gamma 90.000000
_cell_volume 6311.264572
_symmetry_space_group_name_H-M "P 42/M M C"
_symmetry_group_IT_number 131
_symmetry_cell_setting 'tetragonal'
loop_
_space_group_symop_operation_xyz
x,y,z
-x,-y,z
-y,x,1/2+z
y,-x,1/2+z
-x,y,-z
x,-y,-z
y,x,1/2-z
-y,-x,1/2-z
-x,-y,-z
x,y,-z
y,-x,1/2-z
-y,x,1/2-z
x,-y,z
-x,y,z
-y,-x,1/2+z
y,x,1/2+z
loop_
_atom_site_type_symbol
_atom_site_label
_atom_site_fract_x
_atom_site_fract_y
_atom_site_fract_z
Si Si1 0.194083 0.577364 0.605691
Si Si2 0.578761 0.000000 0.606964
Si Si3 0.430715 0.430715 0.250000
Si Si4 0.425922 0.257189 0.391001
Si Si5 0.873854 0.577316 0.215329
Si Si6 0.379802 0.337591 0.892445
O O1 0.175586 0.588401 0.500000
O O2 0.205946 0.500000 0.615737
O O3 0.140891 0.597000 0.680200
O O4 0.261545 0.613573 0.623719
O O5 0.601124 0.063379 0.661902
O O6 0.500000 0.000000 0.606344
O O7 0.598141 0.000000 0.500000
O O8 0.426814 0.500000 0.202348
O O9 0.426016 0.375024 0.175835
O O10 0.426622 0.246262 0.500000
O O11 0.500000 0.275480 0.364813
O O12 0.409308 0.191317 0.340380
O O13 0.373045 0.311917 0.373031
O O14 0.880734 0.500000 0.217137
O O15 0.394745 0.347940 0.000000
#
# Coordination Sequence:
#
# PCOD9566176 Si02
#       6
#    16   8   8  16  16  16
#     4   9  17  28  40  52  67  90 119 147 176 211
#     4   9  16  26  41  59  75  89 104 124 161 214
#     4  11  22  30  36  48  64  84 114 152 192 230
#     4   9  16  25  38  55  72  90 115 149 188 226
#     4   9  16  26  39  54  72  90 108 135 171 212
#     4  10  19  30  42  53  67  90 119 150 185 223
#
# _framework density 12.675749
#
# number of rings (size 3 to 8) (size 9 to 14) (size 15 to 20)
#    0.000    2.600    0.000    3.000    0.000    6.400 
#    0.000    1.500    0.000    3.000    0.000    0.000 
#    0.000    0.000    0.000    0.000    0.000    0.000 
#
# Total GULP energy -445414.975671 kJ/mol
# GULP energy per Si atom -5567.687196 kJ/mol
# Density = 1.264690 g / cm^3
# Si number density = 12.675749 Si / 1000 Ang^3
#
#
#
# Elastic Constant Matrix: (Units=GPa)
#
#
# Indices 1 2 3 4 5 6 
#
# 1 53.2130 11.7113 43.3452 0.0000 0.0000 0.0000
# 2 11.7113 53.2130 43.3452 0.0000 0.0000 0.0000
# 3 43.3452 43.3452 77.8617 0.0000 0.0000 0.0000
# 4 0.0000 0.0000 0.0000 16.2984 0.0000 0.0000
# 5 0.0000 0.0000 0.0000 0.0000 16.2984 0.0000
# 6 0.0000 0.0000 0.0000 0.0000 0.0000 3.8985
#
#
#
# Elastic Compliance Matrix: (Units=1/GPa)
#
#
# Indices 1 2 3 4 5 6 
#
# 1 0.042052 0.017957 -0.033407 0.000000 0.000000 0.000000
# 2 0.017957 0.042052 -0.033407 0.000000 0.000000 0.000000
# 3 -0.033407 -0.033407 0.050038 0.000000 0.000000 0.000000
# 4 0.000000 0.000000 0.000000 0.061356 0.000000 0.000000
# 5 0.000000 0.000000 0.000000 0.000000 0.061356 0.000000
# 6 0.000000 0.000000 0.000000 0.000000 0.000000 0.256510
#
#
# Mechanical properties :
#
#
# Convention : Reuss Voigt Hill
#
# Bulk Modulus (GPa) = 27.45057 42.34345 34.89701
# Shear Modulus (GPa) = 8.02286 13.02480 10.52383
#
# Velocity S-wave (km/s) = 2.51854 3.20900 2.88450
# Velocity P-wave (km/s) = 5.49185 6.87080 6.21966
#
# Compressibility (1/GPa) = 0.03642912
#
# Stress axis : x y z
#
# Youngs Moduli (GPa) = 23.78001 23.78001 19.98486
#
# Poissons Ratio (x) = -0.42701 0.66763
# Poissons Ratio (y) = -0.42701 0.66763
# Poissons Ratio (z) = 0.79441 0.79441
#
# Static dielectric constant tensor:
#      x y z
#    x 1.404760 0.000000 0.000000 
#    y 0.000000 1.404760 0.000000 
#    z 0.000000 0.000000 1.452180 
# 
# From -- ./inp_files/7853.got.cif
#   From: 2010.05.17/outbox.cif.g08.bks.cpg/sg131_4_cif.got.tgz:7853.got - 2010.05.20 12:21:01.
