data_PCOD9566816
_publ_section_title
;
Structure prediction by ZEFSAII (Michael W. Deem and Ramdas Pophale) SiO2 
 PCOD9566816
Probable space group: P 42/M M C
;
_chemical_formula_sum "Si O2"
_cell_formula_units_Z 88
_cell_length_a 14.852695
_cell_length_b 14.852695
_cell_length_c 19.851614
_cell_angle_alpha 90.000000
_cell_angle_beta 90.000000
_cell_angle_gamma 90.000000
_cell_volume 4379.316645
_symmetry_space_group_name_H-M "P 42/M M C"
_symmetry_group_IT_number 131
_symmetry_cell_setting 'tetragonal'
loop_
_space_group_symop_operation_xyz
x,y,z
-x,-y,z
-y,x,1/2+z
y,-x,1/2+z
-x,y,-z
x,-y,-z
y,x,1/2-z
-y,-x,1/2-z
-x,-y,-z
x,y,-z
y,-x,1/2-z
-y,x,1/2-z
x,-y,z
-x,y,z
-y,-x,1/2+z
y,x,1/2+z
loop_
_atom_site_type_symbol
_atom_site_label
_atom_site_fract_x
_atom_site_fract_y
_atom_site_fract_z
Si Si1 0.280854 0.361165 0.655403
Si Si2 0.775989 0.098446 0.705941
Si Si3 0.901548 0.651402 0.422161
Si Si4 0.897029 0.131240 0.577616
Si Si5 0.394509 0.797364 0.301029
Si Si6 0.500000 0.393447 0.076436
O O1 0.186479 0.375568 0.617886
O O2 0.257933 0.392765 0.730831
O O3 0.325272 0.262198 0.653944
O O4 0.355960 0.417261 0.617832
O O5 0.824003 0.175998 0.750000
O O6 0.824255 0.101596 0.632877
O O7 0.668345 0.114655 0.706776
O O8 0.795284 0.000000 0.736087
O O9 0.895145 0.622653 0.500000
O O10 0.899678 0.760105 0.420994
O O11 0.000000 0.622236 0.395927
O O12 0.876618 0.105351 0.500000
O O13 0.000000 0.101761 0.593123
O O14 0.500000 0.808266 0.320950
O O15 0.500000 0.500000 0.074772
O O16 0.500000 0.358974 0.000000
#
# Coordination Sequence:
#
# PCOD9566816 Si02
#       6
#    16  16  16  16  16   8
#     4  11  20  39  63  87 121 164 202 258 319 379
#     4  12  24  40  62  91 130 167 209 266 326 384
#     4   9  17  32  59  91 121 157 201 248 306 380
#     4   9  18  35  60  90 125 166 210 255 308 375
#     4  11  23  41  62  87 116 160 217 263 308 377
#     4  11  24  40  61  95 131 159 202 269 335 387
#
# _framework density 20.094460000000002
#
# number of rings (size 3 to 8) (size 9 to 14) (size 15 to 20)
#    0.000    1.545    4.545    2.727    0.000    4.182 
#    0.000    1.364    0.000    3.273    0.000    1.273 
#    0.000    0.000    0.000    0.000    0.000    0.000 
#
# Total GULP energy -490625.260675 kJ/mol
# GULP energy per Si atom -5575.287053 kJ/mol
# Density = 2.004872 g / cm^3
# Si number density = 20.094460 Si / 1000 Ang^3
#
#
#
# Elastic Constant Matrix: (Units=GPa)
#
#
# Indices 1 2 3 4 5 6 
#
# 1 106.0607 10.8659 19.2519 0.0000 0.0000 0.0000
# 2 10.8659 106.0596 19.2518 0.0000 0.0000 0.0000
# 3 19.2519 19.2518 64.9054 0.0000 0.0000 0.0000
# 4 0.0000 0.0000 0.0000 10.3849 0.0000 0.0000
# 5 0.0000 0.0000 0.0000 0.0000 10.3850 0.0000
# 6 0.0000 0.0000 0.0000 0.0000 0.0000 65.0903
#
#
#
# Elastic Compliance Matrix: (Units=1/GPa)
#
#
# Indices 1 2 3 4 5 6 
#
# 1 0.009991 -0.000513 -0.002811 0.000000 0.000000 0.000000
# 2 -0.000513 0.009992 -0.002811 0.000000 0.000000 0.000000
# 3 -0.002811 -0.002811 0.017075 0.000000 0.000000 0.000000
# 4 0.000000 0.000000 0.000000 0.096293 0.000000 0.000000
# 5 0.000000 0.000000 0.000000 0.000000 0.096293 0.000000
# 6 0.000000 0.000000 0.000000 0.000000 0.000000 0.015363
#
#
# Mechanical properties :
#
#
# Convention : Reuss Voigt Hill
#
# Bulk Modulus (GPa) = 40.34576 41.75164 41.04870
# Shear Modulus (GPa) = 18.82945 32.34912 25.58928
#
# Velocity S-wave (km/s) = 3.06444 4.01665 3.57241
# Velocity P-wave (km/s) = 5.71338 6.50647 6.12278
#
# Compressibility (1/GPa) = 0.02478575
#
# Stress axis : x y z
#
# Youngs Moduli (GPa) = 100.08542 100.08439 58.56581
#
# Poissons Ratio (x) = 0.05138 0.16465
# Poissons Ratio (y) = 0.05138 0.16465
# Poissons Ratio (z) = 0.28138 0.28137
#
# Static dielectric constant tensor:
#      x y z
#    x 1.783750 0.000000 0.000000 
#    y 0.000000 1.783760 0.000000 
#    z 0.000000 0.000000 1.728350 
# 
# From -- ./inp_files/9579.got.cif
#   From: 2010.05.17/outbox.cif.g08.bks.cpg/sg131_5_cif.got.tgz:9579.got - 2010.05.20 12:21:01.
