data_PCOD9566303
_publ_section_title
;
Structure prediction by ZEFSAII (Michael W. Deem and Ramdas Pophale) SiO2 
 PCOD9566303
Probable space group: P 42/M M C
;
_chemical_formula_sum "Si O2"
_cell_formula_units_Z 48
_cell_length_a 7.747625
_cell_length_b 7.747625
_cell_length_c 39.681751
_cell_angle_alpha 90.000000
_cell_angle_beta 90.000000
_cell_angle_gamma 90.000000
_cell_volume 2381.924609
_symmetry_space_group_name_H-M "P 42/M M C"
_symmetry_group_IT_number 131
_symmetry_cell_setting 'tetragonal'
loop_
_space_group_symop_operation_xyz
x,y,z
-x,-y,z
-y,x,1/2+z
y,-x,1/2+z
-x,y,-z
x,-y,-z
y,x,1/2-z
-y,-x,1/2-z
-x,-y,-z
x,y,-z
y,-x,1/2-z
-y,x,1/2-z
x,-y,z
-x,y,z
-y,-x,1/2+z
y,x,1/2+z
loop_
_atom_site_type_symbol
_atom_site_label
_atom_site_fract_x
_atom_site_fract_y
_atom_site_fract_z
Si Si1 0.789415 0.302840 0.461849
Si Si2 0.000000 0.211630 0.912874
Si Si3 0.000000 0.211412 0.835638
Si Si4 0.691673 0.791197 0.212265
O O1 0.737199 0.254280 0.500000
O O2 0.735266 0.500000 0.455509
O O3 0.732338 0.167663 0.433892
O O4 0.000000 0.301642 0.461687
O O5 0.000000 0.268700 0.874232
O O6 0.000000 0.000000 0.912620
O O7 0.165873 0.267608 0.814264
O O8 0.000000 0.000000 0.836074
O O9 0.727939 0.727939 0.250000
O O10 0.500000 0.739719 0.201911
O O11 0.700079 0.000000 0.213618
#
# Coordination Sequence:
#
# PCOD9566303 Si02
#       4
#    16   8   8  16
#     4   8  13  20  30  45  69 106 153 204 251 299
#     4   9  15  22  33  51  75 109 149 198 258 310
#     4   9  18  29  43  64  93 122 156 212 267 315
#     4  10  19  32  52  72  93 126 163 203 256 313
#
# _framework density 20.151769000000002
#
# number of rings (size 3 to 8) (size 9 to 14) (size 15 to 20)
#    0.000    3.000    1.667    1.500    0.000    3.667 
#    0.000    6.667    0.000    0.000    0.000    0.000 
#    0.000    0.000    0.000    0.000    0.000   13.333 
#
# Total GULP energy -267924.493361 kJ/mol
# GULP energy per Si atom -5581.760278 kJ/mol
# Density = 2.010590 g / cm^3
# Si number density = 20.151769 Si / 1000 Ang^3
#
#
#
# Elastic Constant Matrix: (Units=GPa)
#
#
# Indices 1 2 3 4 5 6 
#
# 1 76.0059 40.6900 76.9299 0.0000 0.0000 0.0000
# 2 40.6900 76.0059 76.9299 0.0000 0.0000 0.0000
# 3 76.9299 76.9299 212.3903 0.0000 0.0000 0.0000
# 4 0.0000 0.0000 0.0000 -14.0970 0.0000 0.0000
# 5 0.0000 0.0000 0.0000 0.0000 -14.0970 0.0000
# 6 0.0000 0.0000 0.0000 0.0000 0.0000 -1.9813
#
#
#
# Elastic Compliance Matrix: (Units=1/GPa)
#
#
# Indices 1 2 3 4 5 6 
#
# 1 0.022359 -0.005957 -0.005941 0.000000 0.000000 0.000000
# 2 -0.005957 0.022359 -0.005941 0.000000 0.000000 0.000000
# 3 -0.005941 -0.005941 0.009012 0.000000 0.000000 0.000000
# 4 0.000000 0.000000 0.000000 -0.070937 0.000000 0.000000
# 5 0.000000 0.000000 0.000000 0.000000 -0.070937 0.000000
# 6 0.000000 0.000000 0.000000 0.000000 0.000000 -0.504707
#
#
# Mechanical properties :
#
#
# Convention : Reuss Voigt Hill
#
# Bulk Modulus (GPa) = 55.39374 83.72241 69.55807
# Shear Modulus (GPa) = -9.07185 5.28843 -1.89171
#
# Velocity S-wave (km/s) = -2.12404 1.62173 -0.96993
# Velocity P-wave (km/s) = 4.64032 6.71884 5.77388
#
# Compressibility (1/GPa) = 0.01805258
#
# Stress axis : x y z
#
# Youngs Moduli (GPa) = 44.72437 44.72437 110.96086
#
# Poissons Ratio (x) = 0.26641 0.65923
# Poissons Ratio (y) = 0.26641 0.65923
# Poissons Ratio (z) = 0.26571 0.26571
#
# Static dielectric constant tensor:
#      x y z
#    x 1.757200 0.000000 0.000000 
#    y 0.000000 1.757200 0.000000 
#    z 0.000000 0.000000 1.654600 
# 
# From -- ./inp_files/12885.got.cif
#   From: 2010.05.17/outbox.cif.g08.bks.cpg/sg131_7_cif.got.tgz:12885.got - 2010.05.20 12:21:01.
