data_PCOD9566691
_publ_section_title
;
Structure prediction by ZEFSAII (Michael W. Deem and Ramdas Pophale) SiO2 
 PCOD9566691
Probable space group: P 42/M M C
;
_chemical_formula_sum "Si O2"
_cell_formula_units_Z 64
_cell_length_a 20.328999
_cell_length_b 20.328999
_cell_length_c 9.065490
_cell_angle_alpha 90.000000
_cell_angle_beta 90.000000
_cell_angle_gamma 90.000000
_cell_volume 3746.478738
_symmetry_space_group_name_H-M "P 42/M M C"
_symmetry_group_IT_number 131
_symmetry_cell_setting 'tetragonal'
loop_
_space_group_symop_operation_xyz
x,y,z
-x,-y,z
-y,x,1/2+z
y,-x,1/2+z
-x,y,-z
x,-y,-z
y,x,1/2-z
-y,-x,1/2-z
-x,-y,-z
x,y,-z
y,-x,1/2-z
-y,x,1/2-z
x,-y,z
-x,y,z
-y,-x,1/2+z
y,x,1/2+z
loop_
_atom_site_type_symbol
_atom_site_label
_atom_site_fract_x
_atom_site_fract_y
_atom_site_fract_z
Si Si1 0.922721 0.317438 0.675389
Si Si2 0.822585 0.922481 0.324377
Si Si3 0.575736 0.323798 0.322570
Si Si4 0.828953 0.423157 0.823219
O O1 0.913744 0.310663 0.500000
O O2 0.906948 0.248487 0.754625
O O3 0.877379 0.374732 0.739272
O O4 0.000000 0.331571 0.703457
O O5 0.877631 0.877631 0.250000
O O6 0.821005 0.911930 0.500000
O O7 0.835326 0.000000 0.297137
O O8 0.626503 0.373497 0.250000
O O9 0.579288 0.328959 0.500000
O O10 0.500000 0.337884 0.279195
O O11 0.589835 0.247523 0.284835
O O12 0.842289 0.500000 0.790613
O O13 0.835846 0.414487 0.000000
#
# Coordination Sequence:
#
# PCOD9566691 Si02
#       4
#    16  16  16  16
#     4  10  21  36  54  78 108 139 173 216 263 311
#     4  10  21  37  57  80 107 140 177 216 259 310
#     4   9  19  35  53  75 103 134 170 211 254 303
#     4   9  19  36  55  75 103 139 177 217 262 314
#
# _framework density 17.082706999999999
#
# number of rings (size 3 to 8) (size 9 to 14) (size 15 to 20)
#    0.000    2.500    0.000    3.000    0.000    7.000 
#    0.000   10.000    0.000    0.000    0.000    0.000 
#    0.000    0.000    0.000    0.000    0.000    0.000 
#
# Total GULP energy -357156.543032 kJ/mol
# GULP energy per Si atom -5580.570985 kJ/mol
# Density = 1.704383 g / cm^3
# Si number density = 17.082707 Si / 1000 Ang^3
#
#
#
# Elastic Constant Matrix: (Units=GPa)
#
#
# Indices 1 2 3 4 5 6 
#
# 1 125.7562 116.2122 79.9785 0.0000 0.0000 0.0000
# 2 116.2122 125.7562 79.9785 0.0000 0.0000 0.0000
# 3 79.9785 79.9785 72.4241 0.0000 0.0000 0.0000
# 4 0.0000 0.0000 0.0000 37.3782 0.0000 0.0000
# 5 0.0000 0.0000 0.0000 0.0000 37.3782 0.0000
# 6 0.0000 0.0000 0.0000 0.0000 0.0000 43.8468
#
#
#
# Elastic Compliance Matrix: (Units=1/GPa)
#
#
# Indices 1 2 3 4 5 6 
#
# 1 0.060043 -0.044735 -0.016904 0.000000 0.000000 0.000000
# 2 -0.044735 0.060043 -0.016904 0.000000 0.000000 0.000000
# 3 -0.016904 -0.016904 0.051143 0.000000 0.000000 0.000000
# 4 0.000000 0.000000 0.000000 0.026754 0.000000 0.000000
# 5 0.000000 0.000000 0.000000 0.000000 0.026754 0.000000
# 6 0.000000 0.000000 0.000000 0.000000 0.000000 0.022807
#
#
# Mechanical properties :
#
#
# Convention : Reuss Voigt Hill
#
# Bulk Modulus (GPa) = 70.71814 97.36389 84.04102
# Shear Modulus (GPa) = 12.21465 26.90512 19.55989
#
# Velocity S-wave (km/s) = 2.67691 3.97292 3.38747
# Velocity P-wave (km/s) = 7.14436 8.84109 8.03762
#
# Compressibility (1/GPa) = 0.01414064
#
# Stress axis : x y z
#
# Youngs Moduli (GPa) = 16.65471 16.65471 19.55312
#
# Poissons Ratio (x) = 0.74506 0.33053
# Poissons Ratio (y) = 0.74506 0.33053
# Poissons Ratio (z) = 0.28154 0.28154
#
# Static dielectric constant tensor:
#      x y z
#    x 1.553870 0.000000 0.000000 
#    y 0.000000 1.553870 0.000000 
#    z 0.000000 0.000000 1.566350 
# 
# From -- ./inp_files/1612.got.cif
#   From: 2010.05.17/outbox.cif.g08.bks.cpg/sg131_1_cif.got.tgz:1612.got - 2010.05.20 12:21:01.
