data_PCOD9566332
_publ_section_title
;
Structure prediction by ZEFSAII (Michael W. Deem and Ramdas Pophale) SiO2 
 PCOD9566332
Probable space group: P 42/M M C
;
_chemical_formula_sum "Si O2"
_cell_formula_units_Z 56
_cell_length_a 17.874057
_cell_length_b 17.874057
_cell_length_c 10.206300
_cell_angle_alpha 90.000000
_cell_angle_beta 90.000000
_cell_angle_gamma 90.000000
_cell_volume 3260.728255
_symmetry_space_group_name_H-M "P 42/M M C"
_symmetry_group_IT_number 131
_symmetry_cell_setting 'tetragonal'
loop_
_space_group_symop_operation_xyz
x,y,z
-x,-y,z
-y,x,1/2+z
y,-x,1/2+z
-x,y,-z
x,-y,-z
y,x,1/2-z
-y,-x,1/2-z
-x,-y,-z
x,y,-z
y,-x,1/2-z
-y,x,1/2-z
x,-y,z
-x,y,z
-y,-x,1/2+z
y,x,1/2+z
loop_
_atom_site_type_symbol
_atom_site_label
_atom_site_fract_x
_atom_site_fract_y
_atom_site_fract_z
Si Si1 0.413178 0.673787 0.000000
Si Si2 0.088839 0.350901 0.500000
Si Si3 0.588202 0.801010 0.781700
Si Si4 0.088900 0.088900 0.750000
Si Si5 0.825597 0.910734 0.000000
Si Si6 0.409496 0.257672 0.500000
O O1 0.404078 0.727309 0.872989
O O2 0.500000 0.645621 0.000000
O O3 0.344319 0.616538 0.000000
O O4 0.131374 0.379583 0.630479
O O5 0.098993 0.261972 0.500000
O O6 0.000000 0.368716 0.500000
O O7 0.500000 0.816017 0.769286
O O8 0.616794 0.782857 0.634884
O O9 0.118581 0.133609 0.626888
O O10 0.000000 0.099896 0.768839
O O11 0.840536 0.000000 0.000000
O O12 0.500000 0.256611 0.500000
#
# Coordination Sequence:
#
# PCOD9566332 Si02
#       6
#     8   8  16   8   8   8
#     4   9  17  32  53  77 109 144 177 206 241 310
#     4  10  20  37  55  72  99 133 176 224 263 310
#     4   9  19  35  53  75 101 133 172 214 259 308
#     4   9  16  30  52  74 100 136 168 194 239 302
#     4   9  18  32  49  73 102 127 161 210 250 289
#     4  10  19  33  53  78 111 137 166 219 262 303
#
# _framework density 17.174078000000002
#
# number of rings (size 3 to 8) (size 9 to 14) (size 15 to 20)
#    0.000    2.714    0.000    2.571    0.000    3.143 
#   10.286    0.714    0.000   11.143    0.000    0.000 
#    0.000    0.000    0.000    0.000    0.000    0.000 
#
# Total GULP energy -311761.046522 kJ/mol
# GULP energy per Si atom -5567.161545 kJ/mol
# Density = 1.713499 g / cm^3
# Si number density = 17.174078 Si / 1000 Ang^3
#
#
#
# Elastic Constant Matrix: (Units=GPa)
#
#
# Indices 1 2 3 4 5 6 
#
# 1 44.1090 40.9150 52.6547 0.0000 0.0000 0.0000
# 2 40.9150 44.1090 52.6547 0.0000 0.0000 0.0000
# 3 52.6547 52.6547 184.6666 0.0000 0.0000 0.0000
# 4 0.0000 0.0000 0.0000 16.2016 0.0000 0.0000
# 5 0.0000 0.0000 0.0000 0.0000 16.2016 0.0000
# 6 0.0000 0.0000 0.0000 0.0000 0.0000 17.1987
#
#
#
# Elastic Compliance Matrix: (Units=1/GPa)
#
#
# Indices 1 2 3 4 5 6 
#
# 1 0.165634 -0.147451 -0.005185 0.000000 0.000000 0.000000
# 2 -0.147451 0.165634 -0.005185 0.000000 0.000000 0.000000
# 3 -0.005185 -0.005185 0.008372 0.000000 0.000000 0.000000
# 4 0.000000 0.000000 0.000000 0.061722 0.000000 0.000000
# 5 0.000000 0.000000 0.000000 0.000000 0.061722 0.000000
# 6 0.000000 0.000000 0.000000 0.000000 0.000000 0.058144
#
#
# Mechanical properties :
#
#
# Convention : Reuss Voigt Hill
#
# Bulk Modulus (GPa) = 41.66783 62.81482 52.24133
# Shear Modulus (GPa) = 5.91810 18.36441 12.14125
#
# Velocity S-wave (km/s) = 1.85834 3.27358 2.66174
# Velocity P-wave (km/s) = 5.37767 7.13745 6.31912
#
# Compressibility (1/GPa) = 0.02399933
#
# Stress axis : x y z
#
# Youngs Moduli (GPa) = 6.03743 6.03743 119.44922
#
# Poissons Ratio (x) = 0.89022 0.61929
# Poissons Ratio (y) = 0.89022 0.61929
# Poissons Ratio (z) = 0.03130 0.03130
#
# Static dielectric constant tensor:
#      x y z
#    x 1.587470 0.000000 0.000000 
#    y 0.000000 1.587470 0.000000 
#    z 0.000000 0.000000 2.091430 
# 
# From -- ./inp_files/1339.got.cif
#   From: 2010.05.17/outbox.cif.g08.bks.cpg/sg131_1_cif.got.tgz:1339.got - 2010.05.20 12:21:01.
