data_PCOD9566049
_publ_section_title
;
Structure prediction by ZEFSAII (Michael W. Deem and Ramdas Pophale) SiO2 
 PCOD9566049
Probable space group: P 42/M M C
;
_chemical_formula_sum "Si O2"
_cell_formula_units_Z 96
_cell_length_a 18.718823
_cell_length_b 18.718823
_cell_length_c 17.469647
_cell_angle_alpha 90.000000
_cell_angle_beta 90.000000
_cell_angle_gamma 90.000000
_cell_volume 6121.265335
_symmetry_space_group_name_H-M "P 42/M M C"
_symmetry_group_IT_number 131
_symmetry_cell_setting 'tetragonal'
loop_
_space_group_symop_operation_xyz
x,y,z
-x,-y,z
-y,x,1/2+z
y,-x,1/2+z
-x,y,-z
x,-y,-z
y,x,1/2-z
-y,-x,1/2-z
-x,-y,-z
x,y,-z
y,-x,1/2-z
-y,x,1/2-z
x,-y,z
-x,y,z
-y,-x,1/2+z
y,x,1/2+z
loop_
_atom_site_type_symbol
_atom_site_label
_atom_site_fract_x
_atom_site_fract_y
_atom_site_fract_z
Si Si1 0.822163 0.205845 0.339712
Si Si2 0.780953 0.418057 0.627061
Si Si3 0.583241 0.304110 0.280511
Si Si4 0.309870 0.282658 0.414293
Si Si5 0.081399 0.079624 0.156697
Si Si6 0.915687 0.670534 0.408853
O O1 0.803007 0.196994 0.250000
O O2 0.751386 0.230170 0.383080
O O3 0.857599 0.132881 0.368539
O O4 0.882197 0.265760 0.357857
O O5 0.768420 0.500000 0.604402
O O6 0.758021 0.410744 0.716285
O O7 0.728791 0.360471 0.587745
O O8 0.862164 0.394965 0.609775
O O9 0.627347 0.372654 0.250000
O O10 0.500000 0.319875 0.291337
O O11 0.623819 0.282172 0.357194
O O12 0.330506 0.265094 0.500000
O O13 0.081079 0.081079 0.250000
O O14 0.000000 0.088182 0.131383
O O15 0.106434 0.000000 0.134023
O O16 0.907865 0.686934 0.500000
O O17 0.000000 0.659029 0.394088
#
# Coordination Sequence:
#
# PCOD9566049 Si02
#       6
#    16  16  16  16  16  16
#     4  10  17  28  46  65  89 121 158 195 226 264
#     4   9  17  31  49  67  91 121 152 183 215 260
#     4   9  18  33  51  70  91 117 149 185 226 269
#     4  10  19  30  46  68  92 120 152 185 224 267
#     4   8  14  24  39  62  89 115 147 189 234 272
#     4  10  20  31  44  66  96 126 151 179 223 273
#
# _framework density 15.683033
#
# number of rings (size 3 to 8) (size 9 to 14) (size 15 to 20)
#    0.000    2.667    0.000    5.500    0.000    2.833 
#    0.000    0.833    0.000    2.000    0.000   10.500 
#    0.000    0.000    0.000   10.167    0.000    0.000 
#
# Total GULP energy -534632.822494 kJ/mol
# GULP energy per Si atom -5569.091901 kJ/mol
# Density = 1.564734 g / cm^3
# Si number density = 15.683033 Si / 1000 Ang^3
#
#
#
# Elastic Constant Matrix: (Units=GPa)
#
#
# Indices 1 2 3 4 5 6 
#
# 1 89.4765 27.2089 42.7062 0.0000 0.0000 0.0000
# 2 27.2089 89.4768 42.7064 0.0000 0.0000 0.0000
# 3 42.7062 42.7064 85.8508 0.0000 0.0000 0.0000
# 4 0.0000 0.0000 0.0000 -0.1251 0.0000 0.0000
# 5 0.0000 0.0000 0.0000 0.0000 -0.1251 0.0000
# 6 0.0000 0.0000 0.0000 0.0000 0.0000 14.2745
#
#
#
# Elastic Compliance Matrix: (Units=1/GPa)
#
#
# Indices 1 2 3 4 5 6 
#
# 1 0.014769 -0.001291 -0.006704 0.000000 0.000000 0.000000
# 2 -0.001291 0.014769 -0.006704 0.000000 0.000000 0.000000
# 3 -0.006704 -0.006704 0.018318 0.000000 0.000000 0.000000
# 4 0.000000 0.000000 0.000000 -7.993226 0.000000 0.000000
# 5 0.000000 0.000000 0.000000 0.000000 -7.992964 0.000000
# 6 0.000000 0.000000 0.000000 0.000000 0.000000 0.070055
#
#
# Mechanical properties :
#
#
# Convention : Reuss Voigt Hill
#
# Bulk Modulus (GPa) = 54.18328 54.44969 54.31648
# Shear Modulus (GPa) = -0.31580 12.95035 6.31728
#
# Velocity S-wave (km/s) = -0.44922 2.87671 2.00919
# Velocity P-wave (km/s) = 5.86131 6.76965 6.33179
#
# Compressibility (1/GPa) = 0.01845588
#
# Stress axis : x y z
#
# Youngs Moduli (GPa) = 67.71098 67.71111 54.59024
#
# Poissons Ratio (x) = 0.08742 0.36599
# Poissons Ratio (y) = 0.08742 0.36600
# Poissons Ratio (z) = 0.45396 0.45396
#
# Static dielectric constant tensor:
#      x y z
#    x 1.521330 0.000000 0.000000 
#    y 0.000000 1.521330 0.000000 
#    z 0.000000 0.000000 1.533170 
# 
# From -- ./inp_files/7982.got.cif
#   From: 2010.05.17/outbox.cif.g08.bks.cpg/sg131_4_cif.got.tgz:7982.got - 2010.05.20 12:21:01.
