data_PCOD9566120
_publ_section_title
;
Structure prediction by ZEFSAII (Michael W. Deem and Ramdas Pophale) SiO2 
 PCOD9566120
Probable space group: P 42/M M C
;
_chemical_formula_sum "Si O2"
_cell_formula_units_Z 96
_cell_length_a 17.122883
_cell_length_b 17.122883
_cell_length_c 21.270120
_cell_angle_alpha 90.000000
_cell_angle_beta 90.000000
_cell_angle_gamma 90.000000
_cell_volume 6236.252893
_symmetry_space_group_name_H-M "P 42/M M C"
_symmetry_group_IT_number 131
_symmetry_cell_setting 'tetragonal'
loop_
_space_group_symop_operation_xyz
x,y,z
-x,-y,z
-y,x,1/2+z
y,-x,1/2+z
-x,y,-z
x,-y,-z
y,x,1/2-z
-y,-x,1/2-z
-x,-y,-z
x,y,-z
y,-x,1/2-z
-y,x,1/2-z
x,-y,z
-x,y,z
-y,-x,1/2+z
y,x,1/2+z
loop_
_atom_site_type_symbol
_atom_site_label
_atom_site_fract_x
_atom_site_fract_y
_atom_site_fract_z
Si Si1 0.093538 0.411769 0.374559
Si Si2 0.656884 0.415718 0.191830
Si Si3 0.589206 0.906472 0.274554
Si Si4 0.410838 0.644187 0.930954
Si Si5 0.289890 0.211794 0.071231
Si Si6 0.212039 0.718021 0.188941
O O1 0.115781 0.500000 0.395704
O O2 0.112841 0.406510 0.300100
O O3 0.137636 0.342484 0.409673
O O4 0.000000 0.405408 0.380894
O O5 0.600384 0.399617 0.250000
O O6 0.694605 0.500000 0.199375
O O7 0.610861 0.410236 0.126764
O O8 0.720130 0.347482 0.191445
O O9 0.500000 0.885539 0.295533
O O10 0.663069 0.864267 0.306551
O O11 0.595454 0.000000 0.280586
O O12 0.500000 0.671225 0.924175
O O13 0.352227 0.717094 0.928523
O O14 0.402735 0.607196 0.000000
O O15 0.226871 0.233311 0.125041
O O16 0.259069 0.204489 0.000000
O O17 0.227204 0.772797 0.250000
#
# Coordination Sequence:
#
# PCOD9566120 Si02
#       6
#    16  16  16  16  16  16
#     4   9  17  28  44  69 100 132 162 190 227 281
#     4  10  20  29  39  57  78 103 140 186 227 261
#     4   9  17  30  50  74  97 122 156 199 242 282
#     4   9  18  30  41  53  73 108 149 183 220 263
#     4  10  19  30  44  64  92 123 155 190 228 275
#     4  10  18  31  48  66  87 120 154 187 229 277
#
# _framework density 15.393859000000001
#
# number of rings (size 3 to 8) (size 9 to 14) (size 15 to 20)
#    0.000    2.500    1.667    2.500    0.000    2.833 
#    0.000    1.667    0.000    2.000    0.000    1.167 
#    0.000    2.333    0.000    1.500    0.000    0.000 
#
# Total GULP energy -534505.573889 kJ/mol
# GULP energy per Si atom -5567.766395 kJ/mol
# Density = 1.535882 g / cm^3
# Si number density = 15.393859 Si / 1000 Ang^3
#
#
#
# Elastic Constant Matrix: (Units=GPa)
#
#
# Indices 1 2 3 4 5 6 
#
# 1 43.4195 13.3224 29.0735 0.0000 0.0000 0.0000
# 2 13.3224 43.4192 29.0731 0.0000 0.0000 0.0000
# 3 29.0735 29.0731 89.1896 0.0000 0.0000 0.0000
# 4 0.0000 0.0000 0.0000 3.7108 0.0000 0.0000
# 5 0.0000 0.0000 0.0000 0.0000 3.7105 0.0000
# 6 0.0000 0.0000 0.0000 0.0000 0.0000 30.5616
#
#
#
# Elastic Compliance Matrix: (Units=1/GPa)
#
#
# Indices 1 2 3 4 5 6 
#
# 1 0.029845 -0.003381 -0.008626 0.000000 0.000000 0.000000
# 2 -0.003381 0.029845 -0.008626 0.000000 0.000000 0.000000
# 3 -0.008626 -0.008626 0.016836 0.000000 0.000000 0.000000
# 4 0.000000 0.000000 0.000000 0.269485 0.000000 0.000000
# 5 0.000000 0.000000 0.000000 0.000000 0.269506 0.000000
# 6 0.000000 0.000000 0.000000 0.000000 0.000000 0.032721
#
#
# Mechanical properties :
#
#
# Convention : Reuss Voigt Hill
#
# Bulk Modulus (GPa) = 28.36258 35.44070 31.90164
# Shear Modulus (GPa) = 7.13004 14.56719 10.84862
#
# Velocity S-wave (km/s) = 2.15448 3.07953 2.65757
# Velocity P-wave (km/s) = 4.96525 5.97640 5.49413
#
# Compressibility (1/GPa) = 0.03525773
#
# Stress axis : x y z
#
# Youngs Moduli (GPa) = 33.50668 33.50655 59.39643
#
# Poissons Ratio (x) = 0.11329 0.51238
# Poissons Ratio (y) = 0.11329 0.51238
# Poissons Ratio (z) = 0.28904 0.28904
#
# Static dielectric constant tensor:
#      x y z
#    x 1.507890 0.000000 0.000000 
#    y 0.000000 1.507890 0.000000 
#    z 0.000000 0.000000 1.545890 
# 
# From -- ./inp_files/7932.got.cif
#   From: 2010.05.17/outbox.cif.g08.bks.cpg/sg131_4_cif.got.tgz:7932.got - 2010.05.20 12:21:01.
