data_PCOD9566437
_publ_section_title
;
Structure prediction by ZEFSAII (Michael W. Deem and Ramdas Pophale) SiO2 
 PCOD9566437
Probable space group: P 42/M M C
;
_chemical_formula_sum "Si O2"
_cell_formula_units_Z 96
_cell_length_a 24.754842
_cell_length_b 24.754842
_cell_length_c 7.720557
_cell_angle_alpha 90.000000
_cell_angle_beta 90.000000
_cell_angle_gamma 90.000000
_cell_volume 4731.174334
_symmetry_space_group_name_H-M "P 42/M M C"
_symmetry_group_IT_number 131
_symmetry_cell_setting 'tetragonal'
loop_
_space_group_symop_operation_xyz
x,y,z
-x,-y,z
-y,x,1/2+z
y,-x,1/2+z
-x,y,-z
x,-y,-z
y,x,1/2-z
-y,-x,1/2-z
-x,-y,-z
x,y,-z
y,-x,1/2-z
-y,x,1/2-z
x,-y,z
-x,y,z
-y,-x,1/2+z
y,x,1/2+z
loop_
_atom_site_type_symbol
_atom_site_label
_atom_site_fract_x
_atom_site_fract_y
_atom_site_fract_z
Si Si1 0.292719 0.059680 0.790313
Si Si2 0.820453 0.737645 0.708270
Si Si3 0.825244 0.441200 0.793188
Si Si4 0.561878 0.352072 0.704526
Si Si5 0.356112 0.255846 0.190316
Si Si6 0.580752 0.057221 0.705421
O O1 0.269396 0.117641 0.729936
O O2 0.355084 0.060330 0.733011
O O3 0.270893 0.000000 0.734391
O O4 0.290526 0.059896 0.000000
O O5 0.795748 0.795748 0.750000
O O6 0.821672 0.729432 0.500000
O O7 0.775837 0.694216 0.778746
O O8 0.800030 0.500000 0.775922
O O9 0.792927 0.398083 0.687802
O O10 0.886723 0.442241 0.731283
O O11 0.824194 0.427595 0.000000
O O12 0.591526 0.408475 0.750000
O O13 0.556310 0.349989 0.500000
O O14 0.500000 0.346097 0.776979
O O15 0.606223 0.305059 0.745434
O O16 0.337529 0.273648 0.000000
O O17 0.569133 0.056129 0.500000
O O18 0.562428 0.000000 0.780069
#
# Coordination Sequence:
#
# PCOD9566437 Si02
#       6
#    16  16  16  16  16  16
#     4   9  17  32  52  72 100 137 175 215 259 309
#     4  10  21  34  51  79 108 138 175 214 259 307
#     4  10  20  32  47  69  99 136 177 222 270 315
#     4  11  25  44  65  88 112 138 170 210 262 323
#     4  11  22  37  56  80 108 140 179 217 260 315
#     4   9  17  29  46  68  94 129 174 219 263 308
#
# _framework density 20.290945000000001
#
# number of rings (size 3 to 8) (size 9 to 14) (size 15 to 20)
#    0.000    2.000    1.667    2.000    0.000    7.500 
#    0.000    2.500    0.000    0.000    0.000    3.500 
#    0.000    0.333    0.000    4.167    0.000    0.000 
#
# Total GULP energy -534764.825357 kJ/mol
# GULP energy per Si atom -5570.466931 kJ/mol
# Density = 2.024476 g / cm^3
# Si number density = 20.290945 Si / 1000 Ang^3
#
#
#
# Elastic Constant Matrix: (Units=GPa)
#
#
# Indices 1 2 3 4 5 6 
#
# 1 118.0206 84.9081 9.6228 0.0000 0.0000 0.0000
# 2 84.9081 118.0159 9.6217 0.0000 0.0000 0.0000
# 3 9.6228 9.6217 33.5314 0.0000 0.0000 0.0000
# 4 0.0000 0.0000 0.0000 35.2465 0.0000 0.0000
# 5 0.0000 0.0000 0.0000 0.0000 35.2465 0.0000
# 6 0.0000 0.0000 0.0000 0.0000 0.0000 10.4687
#
#
#
# Elastic Compliance Matrix: (Units=1/GPa)
#
#
# Indices 1 2 3 4 5 6 
#
# 1 0.017634 -0.012568 -0.001454 0.000000 0.000000 0.000000
# 2 -0.012568 0.017634 -0.001453 0.000000 0.000000 0.000000
# 3 -0.001454 -0.001453 0.030657 0.000000 0.000000 0.000000
# 4 0.000000 0.000000 0.000000 0.028372 0.000000 0.000000
# 5 0.000000 0.000000 0.000000 0.000000 0.028372 0.000000
# 6 0.000000 0.000000 0.000000 0.000000 0.000000 0.095523
#
#
# Mechanical properties :
#
#
# Convention : Reuss Voigt Hill
#
# Bulk Modulus (GPa) = 28.59276 53.09700 40.84488
# Shear Modulus (GPa) = 19.17174 27.22001 23.19587
#
# Velocity S-wave (km/s) = 3.07716 3.66660 3.38474
# Velocity P-wave (km/s) = 5.17177 6.64454 5.95387
#
# Compressibility (1/GPa) = 0.03497389
#
# Stress axis : x y z
#
# Youngs Moduli (GPa) = 56.70974 56.70771 32.61888
#
# Poissons Ratio (x) = 0.71271 0.04743
# Poissons Ratio (y) = 0.71274 0.04740
# Poissons Ratio (z) = 0.08246 0.08241
#
# Static dielectric constant tensor:
#      x y z
#    x 1.740900 0.000000 0.000000 
#    y 0.000000 1.740900 0.000000 
#    z 0.000000 0.000000 1.789410 
# 
# From -- ./inp_files/2187.got.cif
#   From: 2010.05.17/outbox.cif.g08.bks.cpg/sg131_2_cif.got.tgz:2187.got - 2010.05.20 12:21:01.
