data_PCOD9566257
_publ_section_title
;
Structure prediction by ZEFSAII (Michael W. Deem and Ramdas Pophale) SiO2 
 PCOD9566257
Probable space group: P 42/M M C
;
_chemical_formula_sum "Si O2"
_cell_formula_units_Z 80
_cell_length_a 18.800845
_cell_length_b 18.800845
_cell_length_c 16.469466
_cell_angle_alpha 90.000000
_cell_angle_beta 90.000000
_cell_angle_gamma 90.000000
_cell_volume 5821.491343
_symmetry_space_group_name_H-M "P 42/M M C"
_symmetry_group_IT_number 131
_symmetry_cell_setting 'tetragonal'
loop_
_space_group_symop_operation_xyz
x,y,z
-x,-y,z
-y,x,1/2+z
y,-x,1/2+z
-x,y,-z
x,-y,-z
y,x,1/2-z
-y,-x,1/2-z
-x,-y,-z
x,y,-z
y,-x,1/2-z
-y,x,1/2-z
x,-y,z
-x,y,z
-y,-x,1/2+z
y,x,1/2+z
loop_
_atom_site_type_symbol
_atom_site_label
_atom_site_fract_x
_atom_site_fract_y
_atom_site_fract_z
Si Si1 0.000000 0.917836 0.401465
Si Si2 0.916123 0.703308 0.377748
Si Si3 0.280740 0.084164 0.315066
Si Si4 0.913798 0.577711 0.095027
Si Si5 0.914271 0.580803 0.500000
Si Si6 0.149300 0.851607 0.093345
O O1 0.073549 0.882566 0.374497
O O2 0.000000 0.911927 0.500000
O O3 0.000000 0.000000 0.378905
O O4 0.910208 0.705779 0.280798
O O5 0.896695 0.629311 0.421452
O O6 0.866690 0.766852 0.408541
O O7 0.000000 0.717569 0.398184
O O8 0.352528 0.110498 0.358601
O O9 0.212794 0.125574 0.349673
O O10 0.270078 0.000000 0.333699
O O11 0.889512 0.500000 0.125387
O O12 0.000000 0.577573 0.100755
O O13 0.896058 0.582990 0.000000
O O14 0.886051 0.500000 0.500000
O O15 0.000000 0.575102 0.500000
O O16 0.124165 0.839332 0.000000
#
# Coordination Sequence:
#
# PCOD9566257 Si02
#       6
#     8  16  16  16   8  16
#     4   9  18  28  42  60  74 107 155 198 229 262
#     4  10  19  32  46  59  83 110 139 183 241 275
#     4  10  20  29  42  64  86 109 144 189 224 273
#     4   8  14  26  42  59  81 106 130 164 217 271
#     4   9  18  32  52  70  80 102 145 186 229 285
#     4  11  19  30  46  58  82 117 149 188 232 276
#
# _framework density 13.742183000000001
#
# number of rings (size 3 to 8) (size 9 to 14) (size 15 to 20)
#    0.000    2.400    2.000    2.400    0.000    2.800 
#    0.000    4.000    0.000    0.000    0.000    0.000 
#    0.000    0.000    0.000    0.000    0.000    2.000 
#
# Total GULP energy -445605.404936 kJ/mol
# GULP energy per Si atom -5570.067562 kJ/mol
# Density = 1.371091 g / cm^3
# Si number density = 13.742183 Si / 1000 Ang^3
#
#
#
# Elastic Constant Matrix: (Units=GPa)
#
#
# Indices 1 2 3 4 5 6 
#
# 1 87.9533 40.0759 38.2562 0.0000 0.0000 0.0000
# 2 40.0759 87.9533 38.2562 0.0000 0.0000 0.0000
# 3 38.2562 38.2562 62.0832 0.0000 0.0000 0.0000
# 4 0.0000 0.0000 0.0000 10.6704 0.0000 0.0000
# 5 0.0000 0.0000 0.0000 0.0000 10.6704 0.0000
# 6 0.0000 0.0000 0.0000 0.0000 0.0000 5.1198
#
#
#
# Elastic Compliance Matrix: (Units=1/GPa)
#
#
# Indices 1 2 3 4 5 6 
#
# 1 0.016625 -0.004261 -0.007619 0.000000 0.000000 0.000000
# 2 -0.004261 0.016625 -0.007619 0.000000 0.000000 0.000000
# 3 -0.007619 -0.007619 0.025497 0.000000 0.000000 0.000000
# 4 0.000000 0.000000 0.000000 0.093717 0.000000 0.000000
# 5 0.000000 0.000000 0.000000 0.000000 0.093717 0.000000
# 6 0.000000 0.000000 0.000000 0.000000 0.000000 0.195319
#
#
# Mechanical properties :
#
#
# Convention : Reuss Voigt Hill
#
# Bulk Modulus (GPa) = 50.63377 52.35185 51.49281
# Shear Modulus (GPa) = 10.26524 13.38557 11.82540
#
# Velocity S-wave (km/s) = 2.73607 3.12436 2.93664
# Velocity P-wave (km/s) = 6.84887 7.15500 7.00360
#
# Compressibility (1/GPa) = 0.01974966
#
# Stress axis : x y z
#
# Youngs Moduli (GPa) = 60.14953 60.14953 39.22061
#
# Poissons Ratio (x) = 0.25633 0.29881
# Poissons Ratio (y) = 0.25633 0.29881
# Poissons Ratio (z) = 0.45826 0.45826
#
# Static dielectric constant tensor:
#      x y z
#    x 1.447440 0.000000 0.000000 
#    y 0.000000 1.447440 0.000000 
#    z 0.000000 0.000000 1.487260 
# 
# From -- ./inp_files/7831.got.cif
#   From: 2010.05.17/outbox.cif.g08.bks.cpg/sg131_4_cif.got.tgz:7831.got - 2010.05.20 12:21:01.
