data_PCOD9566876
_publ_section_title
;
Structure prediction by ZEFSAII (Michael W. Deem and Ramdas Pophale) SiO2 
 PCOD9566876
Probable space group: P 42/M M C
;
_chemical_formula_sum "Si O2"
_cell_formula_units_Z 56
_cell_length_a 14.726675
_cell_length_b 14.726675
_cell_length_c 13.284314
_cell_angle_alpha 90.000000
_cell_angle_beta 90.000000
_cell_angle_gamma 90.000000
_cell_volume 2881.035022
_symmetry_space_group_name_H-M "P 42/M M C"
_symmetry_group_IT_number 131
_symmetry_cell_setting 'tetragonal'
loop_
_space_group_symop_operation_xyz
x,y,z
-x,-y,z
-y,x,1/2+z
y,-x,1/2+z
-x,y,-z
x,-y,-z
y,x,1/2-z
-y,-x,1/2-z
-x,-y,-z
x,y,-z
y,-x,1/2-z
-y,x,1/2-z
x,-y,z
-x,y,z
-y,-x,1/2+z
y,x,1/2+z
loop_
_atom_site_type_symbol
_atom_site_label
_atom_site_fract_x
_atom_site_fract_y
_atom_site_fract_z
Si Si1 0.391115 0.892360 0.500000
Si Si2 0.396555 0.107924 0.889907
Si Si3 0.175739 0.292908 0.198057
Si Si4 0.109206 0.900497 0.884288
O O1 0.500000 0.892284 0.500000
O O2 0.354281 0.842270 0.600160
O O3 0.361282 0.000000 0.500000
O O4 0.500000 0.141971 0.874237
O O5 0.335552 0.124780 0.793199
O O6 0.401922 0.000000 0.898244
O O7 0.363862 0.142649 0.000000
O O8 0.273820 0.273820 0.250000
O O9 0.141724 0.193742 0.161668
O O10 0.000000 0.900426 0.883928
O O11 0.137163 0.000000 0.840871
O O12 0.139605 0.900716 0.000000
#
# Coordination Sequence:
#
# PCOD9566876 Si02
#       4
#     8  16  16  16
#     4  11  24  44  69  95 126 169 227 293 349 390
#     4   9  19  37  61  86 114 154 208 271 334 388
#     4  12  24  35  58  88 124 161 211 266 327 388
#     4   9  18  33  50  70 106 161 219 264 300 346
#
# _framework density 19.437457999999999
#
# number of rings (size 3 to 8) (size 9 to 14) (size 15 to 20)
#    0.000    1.857    1.429    5.143    2.000    5.714 
#    0.000    4.286    0.000    0.000    0.000    4.000 
#    0.000   13.714    0.000    0.000    0.000    0.000 
#
# Total GULP energy -312075.562922 kJ/mol
# GULP energy per Si atom -5572.777909 kJ/mol
# Density = 1.939322 g / cm^3
# Si number density = 19.437458 Si / 1000 Ang^3
#
#
#
# Elastic Constant Matrix: (Units=GPa)
#
#
# Indices 1 2 3 4 5 6 
#
# 1 85.8411 12.9555 55.4811 0.0000 0.0000 0.0000
# 2 12.9555 85.8411 55.4811 0.0000 0.0000 0.0000
# 3 55.4811 55.4811 194.8753 0.0000 0.0000 0.0000
# 4 0.0000 0.0000 0.0000 23.1762 0.0000 0.0000
# 5 0.0000 0.0000 0.0000 0.0000 23.1762 0.0000
# 6 0.0000 0.0000 0.0000 0.0000 0.0000 15.6457
#
#
#
# Elastic Compliance Matrix: (Units=1/GPa)
#
#
# Indices 1 2 3 4 5 6 
#
# 1 0.014300 0.000580 -0.004236 0.000000 0.000000 0.000000
# 2 0.000580 0.014300 -0.004236 0.000000 0.000000 0.000000
# 3 -0.004236 -0.004236 0.007544 0.000000 0.000000 0.000000
# 4 0.000000 0.000000 0.000000 0.043148 0.000000 0.000000
# 5 0.000000 0.000000 0.000000 0.000000 0.043148 0.000000
# 6 0.000000 0.000000 0.000000 0.000000 0.000000 0.063915
#
#
# Mechanical properties :
#
#
# Convention : Reuss Voigt Hill
#
# Bulk Modulus (GPa) = 49.12076 68.26585 58.69330
# Shear Modulus (GPa) = 23.93198 28.57562 26.25380
#
# Velocity S-wave (km/s) = 3.51270 3.83839 3.67915
# Velocity P-wave (km/s) = 6.46360 7.40549 6.95052
#
# Compressibility (1/GPa) = 0.02035799
#
# Stress axis : x y z
#
# Youngs Moduli (GPa) = 69.93047 69.93047 132.56244
#
# Poissons Ratio (x) = -0.04054 0.56157
# Poissons Ratio (y) = -0.04054 0.56157
# Poissons Ratio (z) = 0.29624 0.29624
#
# Static dielectric constant tensor:
#      x y z
#    x 1.729310 0.000000 0.000000 
#    y 0.000000 1.729310 0.000000 
#    z 0.000000 0.000000 1.794620 
# 
# From -- ./inp_files/5326.got.cif
#   From: 2010.05.17/outbox.cif.g08.bks.cpg/sg131_3_cif.got.tgz:5326.got - 2010.05.20 12:21:01.
