data_PCOD9566945
_publ_section_title
;
Structure prediction by ZEFSAII (Michael W. Deem and Ramdas Pophale) SiO2 
 PCOD9566945
Probable space group: P 42/M C M
;
_chemical_formula_sum "Si O2"
_cell_formula_units_Z 120
_cell_length_a 24.395297
_cell_length_b 24.395297
_cell_length_c 14.356366
_cell_angle_alpha 90.000000
_cell_angle_beta 90.000000
_cell_angle_gamma 90.000000
_cell_volume 8543.911501
_symmetry_space_group_name_H-M "P 42/M C M"
_symmetry_group_IT_number 132
_symmetry_cell_setting 'tetragonal'
loop_
_space_group_symop_operation_xyz
x,y,z
-y,x,1/2+z
-x,-y,z
y,-x,1/2+z
x,-y,1/2-z
-x,y,1/2-z
y,x,-z
-y,-x,-z
-x,-y,-z
y,-x,1/2-z
x,y,-z
-y,x,1/2-z
-x,y,1/2+z
x,-y,1/2+z
-y,-x,z
y,x,z
loop_
_atom_site_type_symbol
_atom_site_label
_atom_site_fract_x
_atom_site_fract_y
_atom_site_fract_z
Si Si1 0.574996 0.668400 0.892622
Si Si2 0.955443 0.044558 0.113676
Si Si3 0.897503 0.807819 0.894473
Si Si4 0.545912 0.367414 0.112158
Si Si5 0.129874 0.221741 0.698088
Si Si6 0.974712 0.831004 0.389633
Si Si7 0.790232 0.695635 0.607422
Si Si8 0.284924 0.377169 0.720497
O O1 0.620678 0.620678 0.889042
O O2 0.517243 0.641749 0.862409
O O3 0.593273 0.715310 0.820548
O O4 0.570523 0.686767 0.000000
O O5 0.969127 0.106227 0.143082
O O6 0.956171 0.043830 0.000000
O O7 0.000000 0.000000 0.143761
O O8 0.867002 0.867002 0.888926
O O9 0.872627 0.773097 0.809985
O O10 0.962271 0.813815 0.879254
O O11 0.887938 0.787500 0.000000
O O12 0.576619 0.423382 0.143048
O O13 0.581855 0.317801 0.152661
O O14 0.548206 0.366489 0.000000
O O15 0.169823 0.169823 0.676995
O O16 0.069832 0.206189 0.661558
O O17 0.156978 0.273709 0.648752
O O18 0.961823 0.829747 0.500000
O O19 0.797975 0.679117 0.500000
O O20 0.741811 0.741811 0.607697
O O21 0.769211 0.646026 0.671894
O O22 0.324595 0.324595 0.732369
#
# Coordination Sequence:
#
# PCOD9566945 Si02
#       8
#    16   8  16  16  16  16  16  16
#     4   9  17  27  38  55  81 112 145 177 206 236
#     4   9  16  24  36  54  75 101 131 161 196 238
#     4   9  18  30  41  52  72 102 131 156 186 231
#     4   9  16  25  39  58  80 109 144 179 211 243
#     4  10  18  28  41  56  75  93 123 165 210 245
#     4  10  17  26  40  56  76 100 126 160 201 241
#     4   9  17  28  43  60  74  89 116 162 215 258
#     4   9  16  27  40  54  74 100 131 169 213 250
#
# _framework density 14.045089000000001
#
# number of rings (size 3 to 8) (size 9 to 14) (size 15 to 20)
#    0.000    2.733    0.667    2.000    0.000    4.000 
#    0.000    2.000    0.000    6.400    0.000    0.000 
#    0.000    0.000    0.000    0.000    0.000   10.667 
#
# Total GULP energy -668305.275910 kJ/mol
# GULP energy per Si atom -5569.210633 kJ/mol
# Density = 1.401312 g / cm^3
# Si number density = 14.045089 Si / 1000 Ang^3
#
#
#
# Elastic Constant Matrix: (Units=GPa)
#
#
# Indices 1 2 3 4 5 6 
#
# 1 38.5700 31.9130 38.2279 0.0000 0.0000 0.0000
# 2 31.9130 38.5700 38.2279 0.0000 0.0000 0.0000
# 3 38.2279 38.2279 87.5254 0.0000 0.0000 0.0000
# 4 0.0000 0.0000 0.0000 17.6783 0.0000 0.0000
# 5 0.0000 0.0000 0.0000 0.0000 17.6783 0.0000
# 6 0.0000 0.0000 0.0000 0.0000 0.0000 19.4693
#
#
#
# Elastic Compliance Matrix: (Units=1/GPa)
#
#
# Indices 1 2 3 4 5 6 
#
# 1 0.088590 -0.061629 -0.011776 0.000000 0.000000 0.000000
# 2 -0.061629 0.088590 -0.011776 0.000000 0.000000 0.000000
# 3 -0.011776 -0.011776 0.021712 0.000000 0.000000 0.000000
# 4 0.000000 0.000000 0.000000 0.056566 0.000000 0.000000
# 5 0.000000 0.000000 0.000000 0.000000 0.056567 0.000000
# 6 0.000000 0.000000 0.000000 0.000000 0.000000 0.051363
#
#
# Mechanical properties :
#
#
# Convention : Reuss Voigt Hill
#
# Bulk Modulus (GPa) = 35.04895 42.37811 38.71353
# Shear Modulus (GPa) = 9.20371 14.71829 11.96100
#
# Velocity S-wave (km/s) = 2.56266 3.24069 2.92141
# Velocity P-wave (km/s) = 5.81077 6.65140 6.24525
#
# Compressibility (1/GPa) = 0.02853153
#
# Stress axis : x y z
#
# Youngs Moduli (GPa) = 11.28792 11.28794 46.05810
#
# Poissons Ratio (x) = 0.69566 0.54237
# Poissons Ratio (y) = 0.69566 0.54237
# Poissons Ratio (z) = 0.13292 0.13292
#
# Static dielectric constant tensor:
#      x y z
#    x 1.441100 0.000000 0.000000 
#    y 0.000000 1.441100 0.000000 
#    z 0.000000 0.000000 1.519340 
# 
# From -- ./inp_files/5151.got.cif
#   From: 2010.05.17/outbox.cif.g08.bks.cpg/sg132_3_cif.got.tgz:5151.got - 2010.05.20 12:30:18.
