data_PCOD9566350
_publ_section_title
;
Structure prediction by ZEFSAII (Michael W. Deem and Ramdas Pophale) SiO2 
 PCOD9566350
Probable space group: P 42/M M C
;
_chemical_formula_sum "Si O2"
_cell_formula_units_Z 34
_cell_length_a 8.166143
_cell_length_b 8.166143
_cell_length_c 27.779664
_cell_angle_alpha 90.000000
_cell_angle_beta 90.000000
_cell_angle_gamma 90.000000
_cell_volume 1852.511659
_symmetry_space_group_name_H-M "P 42/M M C"
_symmetry_group_IT_number 131
_symmetry_cell_setting 'tetragonal'
loop_
_space_group_symop_operation_xyz
x,y,z
-x,-y,z
-y,x,1/2+z
y,-x,1/2+z
-x,y,-z
x,-y,-z
y,x,1/2-z
-y,-x,1/2-z
-x,-y,-z
x,y,-z
y,-x,1/2-z
-y,x,1/2-z
x,-y,z
-x,y,z
-y,-x,1/2+z
y,x,1/2+z
loop_
_atom_site_type_symbol
_atom_site_label
_atom_site_fract_x
_atom_site_fract_y
_atom_site_fract_z
Si Si1 0.683411 0.500000 0.843920
Si Si2 0.180832 0.803370 0.603237
Si Si3 0.500000 0.500000 0.750000
Si Si4 0.690874 0.200175 0.500000
O O1 0.500000 0.500000 0.865040
O O2 0.762980 0.333261 0.862531
O O3 0.653097 0.500000 0.786491
O O4 0.223730 0.744845 0.549191
O O5 0.000000 0.742934 0.618073
O O6 0.173217 0.000000 0.600924
O O7 0.500000 0.247654 0.500000
O O8 0.694825 0.000000 0.500000
#
# Coordination Sequence:
#
# PCOD9566350 Si02
#       4
#     8  16   2   8
#     4  10  21  40  59  77 108 149 195 231 302 360
#     4  10  19  33  57  88 119 152 194 240 282 338
#     4   8  24  44  60  74  96 152 184 228 300 358
#     4   9  15  27  51  83 121 162 193 226 275 334
#
# _framework density 18.353462
#
# number of rings (size 3 to 8) (size 9 to 14) (size 15 to 20)
#    0.706    1.647    2.353    1.412    0.000    3.765 
#    0.000    7.059    0.000    5.647    0.000    0.000 
#    0.000    0.000    0.000    0.000    0.000    0.000 
#
# Total GULP energy -189297.447268 kJ/mol
# GULP energy per Si atom -5567.571978 kJ/mol
# Density = 1.831169 g / cm^3
# Si number density = 18.353462 Si / 1000 Ang^3
#
#
#
# Elastic Constant Matrix: (Units=GPa)
#
#
# Indices 1 2 3 4 5 6 
#
# 1 98.2850 32.3196 45.7301 0.0000 0.0000 0.0000
# 2 32.3196 98.2850 45.7301 0.0000 0.0000 0.0000
# 3 45.7301 45.7301 135.1076 0.0000 0.0000 0.0000
# 4 0.0000 0.0000 0.0000 9.8256 0.0000 0.0000
# 5 0.0000 0.0000 0.0000 0.0000 9.8256 0.0000
# 6 0.0000 0.0000 0.0000 0.0000 0.0000 9.2480
#
#
#
# Elastic Compliance Matrix: (Units=1/GPa)
#
#
# Indices 1 2 3 4 5 6 
#
# 1 0.012597 -0.002562 -0.003397 0.000000 0.000000 0.000000
# 2 -0.002562 0.012597 -0.003397 0.000000 0.000000 0.000000
# 3 -0.003397 -0.003397 0.009701 0.000000 0.000000 0.000000
# 4 0.000000 0.000000 0.000000 0.101775 0.000000 0.000000
# 5 0.000000 0.000000 0.000000 0.000000 0.101775 0.000000
# 6 0.000000 0.000000 0.000000 0.000000 0.000000 0.108132
#
#
# Mechanical properties :
#
#
# Convention : Reuss Voigt Hill
#
# Bulk Modulus (GPa) = 61.78626 64.35968 63.07297
# Shear Modulus (GPa) = 13.48864 19.63970 16.56417
#
# Velocity S-wave (km/s) = 2.71391 3.27476 3.00744
# Velocity P-wave (km/s) = 6.59986 7.03147 6.81908
#
# Compressibility (1/GPa) = 0.01618483
#
# Stress axis : x y z
#
# Youngs Moduli (GPa) = 79.38147 79.38147 103.08357
#
# Poissons Ratio (x) = 0.20338 0.35014
# Poissons Ratio (y) = 0.20338 0.35014
# Poissons Ratio (z) = 0.26963 0.26963
#
# Static dielectric constant tensor:
#      x y z
#    x 1.686460 0.000000 0.000000 
#    y 0.000000 1.686460 0.000000 
#    z 0.000000 0.000000 1.612490 
# 
# From -- ./inp_files/11664.got.cif
#   From: 2010.05.17/outbox.cif.g08.bks.cpg/sg131_6_cif.got.tgz:11664.got - 2010.05.20 12:21:01.
