data_PCOD9566248
_publ_section_title
;
Structure prediction by ZEFSAII (Michael W. Deem and Ramdas Pophale) SiO2 
 PCOD9566248
Probable space group: P 42/M M C
;
_chemical_formula_sum "Si O2"
_cell_formula_units_Z 96
_cell_length_a 24.916461
_cell_length_b 24.916461
_cell_length_c 8.198374
_cell_angle_alpha 90.000000
_cell_angle_beta 90.000000
_cell_angle_gamma 90.000000
_cell_volume 5089.796766
_symmetry_space_group_name_H-M "P 42/M M C"
_symmetry_group_IT_number 131
_symmetry_cell_setting 'tetragonal'
loop_
_space_group_symop_operation_xyz
x,y,z
-x,-y,z
-y,x,1/2+z
y,-x,1/2+z
-x,y,-z
x,-y,-z
y,x,1/2-z
-y,-x,1/2-z
-x,-y,-z
x,y,-z
y,-x,1/2-z
-y,x,1/2-z
x,-y,z
-x,y,z
-y,-x,1/2+z
y,x,1/2+z
loop_
_atom_site_type_symbol
_atom_site_label
_atom_site_fract_x
_atom_site_fract_y
_atom_site_fract_z
Si Si1 0.644556 0.438374 0.804248
Si Si2 0.061502 0.438358 0.800792
Si Si3 0.939383 0.143765 0.196866
Si Si4 0.648179 0.148373 0.694998
Si Si5 0.852750 0.769161 0.802824
Si Si6 0.731779 0.353001 0.691704
O O1 0.589243 0.410758 0.750000
O O2 0.648279 0.500000 0.752873
O O3 0.691662 0.401797 0.731402
O O4 0.648384 0.435499 0.000000
O O5 0.072621 0.500000 0.750503
O O6 0.106141 0.396048 0.742391
O O7 0.000000 0.424868 0.753062
O O8 0.062397 0.438144 0.000000
O O9 0.911050 0.088951 0.250000
O O10 0.900677 0.191880 0.253879
O O11 0.000000 0.148691 0.256466
O O12 0.940042 0.145567 0.000000
O O13 0.649732 0.140732 0.500000
O O14 0.708755 0.139739 0.758130
O O15 0.636590 0.210756 0.727973
O O16 0.797509 0.797509 0.750000
O O17 0.853123 0.768161 0.000000
O O18 0.700616 0.299385 0.750000
O O19 0.739696 0.348451 0.500000
#
# Coordination Sequence:
#
# PCOD9566248 Si02
#       6
#    16  16  16  16  16  16
#     4  10  21  37  57  80 107 140 177 217 260 305
#     4   8  15  29  49  74 103 132 164 206 252 295
#     4   9  18  32  48  67  93 124 159 200 245 293
#     4  10  19  31  51  78 103 131 170 211 253 306
#     4   9  18  31  47  68  95 126 158 196 243 291
#     4  11  22  36  54  76 106 140 174 215 262 311
#
# _framework density 18.861263999999998
#
# number of rings (size 3 to 8) (size 9 to 14) (size 15 to 20)
#    0.000    2.500    0.000    4.000    0.000    5.333 
#    0.000    6.667    0.000    0.500    0.000    3.500 
#    0.000    0.000    0.000    0.000    0.000    0.000 
#
# Total GULP energy -535546.221511 kJ/mol
# GULP energy per Si atom -5578.606474 kJ/mol
# Density = 1.881833 g / cm^3
# Si number density = 18.861264 Si / 1000 Ang^3
#
#
#
# Elastic Constant Matrix: (Units=GPa)
#
#
# Indices 1 2 3 4 5 6 
#
# 1 140.6425 96.1999 0.2124 0.0000 0.0000 0.0000
# 2 96.1999 140.6284 0.2128 0.0000 0.0000 0.0000
# 3 0.2124 0.2128 6.3113 0.0000 0.0000 0.0000
# 4 0.0000 0.0000 0.0000 16.5827 0.0000 0.0000
# 5 0.0000 0.0000 0.0000 0.0000 16.5821 0.0000
# 6 0.0000 0.0000 0.0000 0.0000 0.0000 26.3156
#
#
#
# Elastic Compliance Matrix: (Units=1/GPa)
#
#
# Indices 1 2 3 4 5 6 
#
# 1 0.013363 -0.009141 -0.000142 0.000000 0.000000 0.000000
# 2 -0.009141 0.013364 -0.000143 0.000000 0.000000 0.000000
# 3 -0.000142 -0.000143 0.158457 0.000000 0.000000 0.000000
# 4 0.000000 0.000000 0.000000 0.060304 0.000000 0.000000
# 5 0.000000 0.000000 0.000000 0.000000 0.060306 0.000000
# 6 0.000000 0.000000 0.000000 0.000000 0.000000 0.038000
#
#
# Mechanical properties :
#
#
# Convention : Reuss Voigt Hill
#
# Bulk Modulus (GPa) = 6.01205 53.42583 29.71894
# Shear Modulus (GPa) = 11.95917 24.62653 18.29285
#
# Velocity S-wave (km/s) = 2.52079 3.61732 3.11764
# Velocity P-wave (km/s) = 3.41569 6.77007 5.36194
#
# Compressibility (1/GPa) = 0.16633274
#
# Stress axis : x y z
#
# Youngs Moduli (GPa) = 74.83410 74.82662 6.31088
#
# Poissons Ratio (x) = 0.68399 0.00089
# Poissons Ratio (y) = 0.68406 0.00090
# Poissons Ratio (z) = 0.01060 0.01069
#
# Static dielectric constant tensor:
#      x y z
#    x 1.641740 0.000000 0.000000 
#    y 0.000000 1.641750 0.000000 
#    z 0.000000 0.000000 1.668620 
# 
# From -- ./inp_files/2252.got.cif
#   From: 2010.05.17/outbox.cif.g08.bks.cpg/sg131_2_cif.got.tgz:2252.got - 2010.05.20 12:21:01.
