data_PCOD9566784
_publ_section_title
;
Structure prediction by ZEFSAII (Michael W. Deem and Ramdas Pophale) SiO2 
 PCOD9566784
Probable space group: P 42/M M C
;
_chemical_formula_sum "Si O2"
_cell_formula_units_Z 38
_cell_length_a 9.892848
_cell_length_b 9.892848
_cell_length_c 20.816960
_cell_angle_alpha 90.000000
_cell_angle_beta 90.000000
_cell_angle_gamma 90.000000
_cell_volume 2037.323433
_symmetry_space_group_name_H-M "P 42/M M C"
_symmetry_group_IT_number 131
_symmetry_cell_setting 'tetragonal'
loop_
_space_group_symop_operation_xyz
x,y,z
-x,-y,z
-y,x,1/2+z
y,-x,1/2+z
-x,y,-z
x,-y,-z
y,x,1/2-z
-y,-x,1/2-z
-x,-y,-z
x,y,-z
y,-x,1/2-z
-y,x,1/2-z
x,-y,z
-x,y,z
-y,-x,1/2+z
y,x,1/2+z
loop_
_atom_site_type_symbol
_atom_site_label
_atom_site_fract_x
_atom_site_fract_y
_atom_site_fract_z
Si Si1 0.756891 0.341697 0.073568
Si Si2 0.000000 0.000000 0.250000
Si Si3 0.500000 0.000000 0.225412
Si Si4 0.155521 0.500000 0.399578
Si Si5 0.000000 0.271136 0.168832
O O1 0.720012 0.500000 0.084223
O O2 0.629969 0.241993 0.080925
O O3 0.870617 0.298914 0.124128
O O4 0.807183 0.331695 0.000000
O O5 0.000000 0.126528 0.202111
O O6 0.500000 0.127532 0.177136
O O7 0.373222 0.000000 0.271702
O O8 0.000000 0.500000 0.425226
#
# Coordination Sequence:
#
# PCOD9566784 Si02
#       5
#    16   2   4   8   8
#     4  11  23  42  68  97 129 169 216 268 327 384
#     4  12  28  40  66  88 136 172 212 270 344 376
#     4  10  22  44  66  86 134 168 216 256 320 380
#     4  10  24  42  63  99 131 174 211 267 329 377
#     4  12  23  45  64  93 127 172 216 271 315 397
#
# _framework density 18.651924000000001
#
# number of rings (size 3 to 8) (size 9 to 14) (size 15 to 20)
#    0.632    0.421    2.105    4.421    2.947    5.053 
#    0.000    1.053    4.632    0.000    0.000    0.000 
#    0.000    0.000    0.000    0.000    0.000    0.000 
#
# Total GULP energy -212164.381366 kJ/mol
# GULP energy per Si atom -5583.273194 kJ/mol
# Density = 1.860947 g / cm^3
# Si number density = 18.651924 Si / 1000 Ang^3
#
#
#
# Elastic Constant Matrix: (Units=GPa)
#
#
# Indices 1 2 3 4 5 6 
#
# 1 144.5169 59.5039 61.2557 0.0000 0.0000 0.0000
# 2 59.5039 144.5169 61.2557 0.0000 0.0000 0.0000
# 3 61.2557 61.2557 150.7738 0.0000 0.0000 0.0000
# 4 0.0000 0.0000 0.0000 60.4865 0.0000 0.0000
# 5 0.0000 0.0000 0.0000 0.0000 60.4865 0.0000
# 6 0.0000 0.0000 0.0000 0.0000 0.0000 29.7403
#
#
#
# Elastic Compliance Matrix: (Units=1/GPa)
#
#
# Indices 1 2 3 4 5 6 
#
# 1 0.009123 -0.002640 -0.002634 0.000000 0.000000 0.000000
# 2 -0.002640 0.009123 -0.002634 0.000000 0.000000 0.000000
# 3 -0.002634 -0.002634 0.008773 0.000000 0.000000 0.000000
# 4 0.000000 0.000000 0.000000 0.016533 0.000000 0.000000
# 5 0.000000 0.000000 0.000000 0.000000 0.016533 0.000000
# 6 0.000000 0.000000 0.000000 0.000000 0.000000 0.033624
#
#
# Mechanical properties :
#
#
# Convention : Reuss Voigt Hill
#
# Bulk Modulus (GPa) = 89.26065 89.31536 89.28801
# Shear Modulus (GPa) = 44.14693 47.32882 45.73787
#
# Velocity S-wave (km/s) = 4.87034 5.04280 4.95732
# Velocity P-wave (km/s) = 8.92115 9.04963 8.98562
#
# Compressibility (1/GPa) = 0.01120314
#
# Stress axis : x y z
#
# Youngs Moduli (GPa) = 109.61305 109.61305 113.99062
#
# Poissons Ratio (x) = 0.28937 0.30024
# Poissons Ratio (y) = 0.28937 0.30024
# Poissons Ratio (z) = 0.28871 0.28871
#
# Static dielectric constant tensor:
#      x y z
#    x 1.597550 0.000000 0.000000 
#    y 0.000000 1.597550 0.000000 
#    z 0.000000 0.000000 1.625820 
# 
# From -- ./inp_files/10439.got.cif
#   From: 2010.05.17/outbox.cif.g08.bks.cpg/sg131_6_cif.got.tgz:10439.got - 2010.05.20 12:21:01.
