data_PCOD9566097
_publ_section_title
;
Structure prediction by ZEFSAII (Michael W. Deem and Ramdas Pophale) SiO2 
 PCOD9566097
Probable space group: P 42/M M C
;
_chemical_formula_sum "Si O2"
_cell_formula_units_Z 120
_cell_length_a 14.932972
_cell_length_b 14.932972
_cell_length_c 33.838570
_cell_angle_alpha 90.000000
_cell_angle_beta 90.000000
_cell_angle_gamma 90.000000
_cell_volume 7545.786328
_symmetry_space_group_name_H-M "P 42/M M C"
_symmetry_group_IT_number 131
_symmetry_cell_setting 'tetragonal'
loop_
_space_group_symop_operation_xyz
x,y,z
-x,-y,z
-y,x,1/2+z
y,-x,1/2+z
-x,y,-z
x,-y,-z
y,x,1/2-z
-y,-x,1/2-z
-x,-y,-z
x,y,-z
y,-x,1/2-z
-y,x,1/2-z
x,-y,z
-x,y,z
-y,-x,1/2+z
y,x,1/2+z
loop_
_atom_site_type_symbol
_atom_site_label
_atom_site_fract_x
_atom_site_fract_y
_atom_site_fract_z
Si Si1 0.102072 0.396090 0.387774
Si Si2 0.405584 0.274882 0.269820
Si Si3 0.396468 0.391895 0.500000
Si Si4 0.103245 0.767772 0.671464
Si Si5 0.676747 0.899848 0.747678
Si Si6 0.252287 0.604120 0.136519
Si Si7 0.261415 0.102900 0.656588
Si Si8 0.296138 0.606572 0.581040
O O1 0.107396 0.500000 0.374600
O O2 0.112477 0.325580 0.352253
O O3 0.188211 0.381689 0.416070
O O4 0.000000 0.383578 0.403950
O O5 0.325210 0.325210 0.250000
O O6 0.500000 0.316438 0.258391
O O7 0.399509 0.173749 0.254646
O O8 0.396568 0.276061 0.316929
O O9 0.500000 0.358936 0.500000
O O10 0.401678 0.500000 0.500000
O O11 0.340630 0.368149 0.460836
O O12 0.122800 0.746055 0.717379
O O13 0.170689 0.839960 0.653602
O O14 0.000000 0.796999 0.668459
O O15 0.718101 0.899107 0.703749
O O16 0.644039 0.000000 0.756213
O O17 0.243828 0.500000 0.124015
O O18 0.159683 0.660218 0.135266
O O19 0.329997 0.655698 0.113004
O O20 0.255342 0.000000 0.643272
O O21 0.313525 0.500000 0.588014
#
# Coordination Sequence:
#
# PCOD9566097 Si02
#       8
#    16  16   8  16  16  16  16  16
#     4   9  18  31  48  73 103 132 162 195 236 294
#     4  10  21  33  45  62  90 124 163 205 243 286
#     4   9  18  32  51  79 108 132 162 199 239 289
#     4  10  18  30  47  68  96 127 163 206 249 296
#     4   9  18  31  47  64  87 121 161 208 258 298
#     4  10  20  34  49  68  93 127 167 203 247 296
#     4  10  19  32  47  66  93 125 166 211 255 297
#     4  10  19  33  54  77 104 133 160 197 244 294
#
# _framework density 15.902914000000001
#
# number of rings (size 3 to 8) (size 9 to 14) (size 15 to 20)
#    0.000    2.333    1.333    2.400    0.000    2.800 
#    0.000    5.667    0.000    4.400    0.000    0.467 
#    0.000    1.600    0.000    2.933    0.000    0.133 
#
# Total GULP energy -668090.932081 kJ/mol
# GULP energy per Si atom -5567.424434 kJ/mol
# Density = 1.586672 g / cm^3
# Si number density = 15.902914 Si / 1000 Ang^3
#
#
#
# Elastic Constant Matrix: (Units=GPa)
#
#
# Indices 1 2 3 4 5 6 
#
# 1 106.8170 64.9278 35.5297 0.0000 0.0000 0.0000
# 2 64.9278 106.8170 35.5297 0.0000 0.0000 0.0000
# 3 35.5297 35.5297 34.9543 0.0000 0.0000 0.0000
# 4 0.0000 0.0000 0.0000 12.0286 0.0000 0.0000
# 5 0.0000 0.0000 0.0000 0.0000 12.0286 0.0000
# 6 0.0000 0.0000 0.0000 0.0000 0.0000 11.0459
#
#
#
# Elastic Compliance Matrix: (Units=1/GPa)
#
#
# Indices 1 2 3 4 5 6 
#
# 1 0.016961 -0.006912 -0.010214 0.000000 0.000000 0.000000
# 2 -0.006912 0.016961 -0.010214 0.000000 0.000000 0.000000
# 3 -0.010214 -0.010214 0.049373 0.000000 0.000000 0.000000
# 4 0.000000 0.000000 0.000000 0.083135 0.000000 0.000000
# 5 0.000000 0.000000 0.000000 0.000000 0.083135 0.000000
# 6 0.000000 0.000000 0.000000 0.000000 0.000000 0.090531
#
#
# Mechanical properties :
#
#
# Convention : Reuss Voigt Hill
#
# Bulk Modulus (GPa) = 34.94767 57.84033 46.39400
# Shear Modulus (GPa) = 12.36660 14.52735 13.44698
#
# Velocity S-wave (km/s) = 2.79163 3.02570 2.91102
# Velocity P-wave (km/s) = 5.69335 6.97541 6.36673
#
# Compressibility (1/GPa) = 0.02861421
#
# Stress axis : x y z
#
# Youngs Moduli (GPa) = 58.96026 58.96026 20.25388
#
# Poissons Ratio (x) = 0.40753 0.20688
# Poissons Ratio (y) = 0.40753 0.20688
# Poissons Ratio (z) = 0.60223 0.60223
#
# Static dielectric constant tensor:
#      x y z
#    x 1.545820 0.000000 0.000000 
#    y 0.000000 1.545820 0.000000 
#    z 0.000000 0.000000 1.511100 
# 
# From -- ./inp_files/13927.got.cif
#   From: 2010.05.17/outbox.cif.g08.bks.cpg/sg131_7_cif.got.tgz:13927.got - 2010.05.20 12:21:01.
