data_PCOD9566843
_publ_section_title
;
Structure prediction by ZEFSAII (Michael W. Deem and Ramdas Pophale) SiO2 
 PCOD9566843
Probable space group: P 42/M M C
;
_chemical_formula_sum "Si O2"
_cell_formula_units_Z 112
_cell_length_a 15.522704
_cell_length_b 15.522704
_cell_length_c 22.951200
_cell_angle_alpha 90.000000
_cell_angle_beta 90.000000
_cell_angle_gamma 90.000000
_cell_volume 5530.191236
_symmetry_space_group_name_H-M "P 42/M M C"
_symmetry_group_IT_number 131
_symmetry_cell_setting 'tetragonal'
loop_
_space_group_symop_operation_xyz
x,y,z
-x,-y,z
-y,x,1/2+z
y,-x,1/2+z
-x,y,-z
x,-y,-z
y,x,1/2-z
-y,-x,1/2-z
-x,-y,-z
x,y,-z
y,-x,1/2-z
-y,x,1/2-z
x,-y,z
-x,y,z
-y,-x,1/2+z
y,x,1/2+z
loop_
_atom_site_type_symbol
_atom_site_label
_atom_site_fract_x
_atom_site_fract_y
_atom_site_fract_z
Si Si1 0.836064 0.736900 0.634188
Si Si2 0.899939 0.604114 0.932502
Si Si3 0.256184 0.594718 0.434625
Si Si4 0.097618 0.597049 0.280550
Si Si5 0.780597 0.653882 0.823196
Si Si6 0.903895 0.103593 0.066807
Si Si7 0.597811 0.407052 0.337203
O O1 0.802221 0.674923 0.582680
O O2 0.893962 0.671934 0.671679
O O3 0.755332 0.762791 0.674432
O O4 0.871652 0.824868 0.607733
O O5 0.898999 0.500000 0.931315
O O6 0.828950 0.633834 0.885099
O O7 0.000000 0.630534 0.919137
O O8 0.881543 0.630572 0.000000
O O9 0.288348 0.604422 0.500000
O O10 0.213057 0.500000 0.430538
O O11 0.334408 0.593608 0.389607
O O12 0.119727 0.500000 0.302223
O O13 0.158085 0.620893 0.227175
O O14 0.000000 0.594651 0.259436
O O15 0.687083 0.612208 0.810779
O O16 0.000000 0.133673 0.085357
O O17 0.906604 0.000000 0.065244
O O18 0.890200 0.133667 0.000000
O O19 0.610750 0.500000 0.304884
O O20 0.500000 0.408282 0.358346
#
# Coordination Sequence:
#
# PCOD9566843 Si02
#       7
#    16  16  16  16  16  16  16
#     4  11  22  37  56  83 115 148 184 232 287 346
#     4   9  18  33  54  82 117 155 195 244 302 358
#     4   9  18  32  51  77 110 148 188 231 280 331
#     4  11  24  42  64  85 107 144 196 251 301 347
#     4  11  22  36  56  84 116 151 189 235 290 350
#     4   9  19  37  61  88 117 149 183 221 274 345
#     4   9  18  32  51  77 109 147 191 234 277 332
#
# _framework density 20.252464
#
# number of rings (size 3 to 8) (size 9 to 14) (size 15 to 20)
#    0.000    2.143    0.000    4.286    0.000    6.000 
#    0.000    2.857    0.000    0.857    0.000   16.000 
#    0.000    0.000    0.000    0.000    0.000    0.000 
#
# Total GULP energy -624549.202411 kJ/mol
# GULP energy per Si atom -5576.332164 kJ/mol
# Density = 2.020637 g / cm^3
# Si number density = 20.252464 Si / 1000 Ang^3
#
#
#
# Elastic Constant Matrix: (Units=GPa)
#
#
# Indices 1 2 3 4 5 6 
#
# 1 122.7562 55.2320 43.0707 0.0000 0.0000 0.0000
# 2 55.2320 122.7562 43.0707 0.0000 0.0000 0.0000
# 3 43.0707 43.0707 66.1318 0.0000 0.0000 0.0000
# 4 0.0000 0.0000 0.0000 47.9940 0.0000 0.0000
# 5 0.0000 0.0000 0.0000 0.0000 47.9940 0.0000
# 6 0.0000 0.0000 0.0000 0.0000 0.0000 28.9624
#
#
#
# Elastic Compliance Matrix: (Units=1/GPa)
#
#
# Indices 1 2 3 4 5 6 
#
# 1 0.011507 -0.003303 -0.005343 0.000000 0.000000 0.000000
# 2 -0.003303 0.011507 -0.005343 0.000000 0.000000 0.000000
# 3 -0.005343 -0.005343 0.022082 0.000000 0.000000 0.000000
# 4 0.000000 0.000000 0.000000 0.020836 0.000000 0.000000
# 5 0.000000 0.000000 0.000000 0.000000 0.020836 0.000000
# 6 0.000000 0.000000 0.000000 0.000000 0.000000 0.034528
#
#
# Mechanical properties :
#
#
# Convention : Reuss Voigt Hill
#
# Bulk Modulus (GPa) = 58.42262 66.04345 62.23304
# Shear Modulus (GPa) = 32.26239 36.34146 34.30193
#
# Velocity S-wave (km/s) = 3.99558 4.24066 4.11994
# Velocity P-wave (km/s) = 7.08492 7.52718 7.30939
#
# Compressibility (1/GPa) = 0.01711666
#
# Stress axis : x y z
#
# Youngs Moduli (GPa) = 86.90389 86.90389 45.28671
#
# Poissons Ratio (x) = 0.28700 0.24199
# Poissons Ratio (y) = 0.28700 0.24199
# Poissons Ratio (z) = 0.46437 0.46437
#
# Static dielectric constant tensor:
#      x y z
#    x 1.741050 0.000000 0.000000 
#    y 0.000000 1.741050 0.000000 
#    z 0.000000 0.000000 1.716950 
# 
# From -- ./inp_files/11320.got.cif
#   From: 2010.05.17/outbox.cif.g08.bks.cpg/sg131_6_cif.got.tgz:11320.got - 2010.05.20 12:21:01.
