data_PCOD9566075
_publ_section_title
;
Structure prediction by ZEFSAII (Michael W. Deem and Ramdas Pophale) SiO2 
 PCOD9566075
Probable space group: P 42/M M C
;
_chemical_formula_sum "Si O2"
_cell_formula_units_Z 96
_cell_length_a 18.068491
_cell_length_b 18.068491
_cell_length_c 18.023127
_cell_angle_alpha 90.000000
_cell_angle_beta 90.000000
_cell_angle_gamma 90.000000
_cell_volume 5884.016886
_symmetry_space_group_name_H-M "P 42/M M C"
_symmetry_group_IT_number 131
_symmetry_cell_setting 'tetragonal'
loop_
_space_group_symop_operation_xyz
x,y,z
-x,-y,z
-y,x,1/2+z
y,-x,1/2+z
-x,y,-z
x,-y,-z
y,x,1/2-z
-y,-x,1/2-z
-x,-y,-z
x,y,-z
y,-x,1/2-z
-y,x,1/2-z
x,-y,z
-x,y,z
-y,-x,1/2+z
y,x,1/2+z
loop_
_atom_site_type_symbol
_atom_site_label
_atom_site_fract_x
_atom_site_fract_y
_atom_site_fract_z
Si Si1 0.084184 0.239133 0.088703
Si Si2 0.586636 0.788815 0.083041
Si Si3 0.862478 0.919111 0.910842
Si Si4 0.819580 0.298050 0.783162
Si Si5 0.704536 0.412766 0.266284
Si Si6 0.692712 0.085418 0.859534
O O1 0.091673 0.152688 0.111631
O O2 0.145498 0.280114 0.137580
O O3 0.000000 0.264083 0.103117
O O4 0.097470 0.244615 0.000000
O O5 0.500000 0.810342 0.089356
O O6 0.600855 0.730157 0.148418
O O7 0.639170 0.858953 0.096846
O O8 0.598921 0.759692 0.000000
O O9 0.776999 0.908216 0.888112
O O10 0.886875 0.000000 0.882610
O O11 0.866010 0.921495 0.000000
O O12 0.768300 0.231701 0.750000
O O13 0.767033 0.369736 0.781021
O O14 0.886219 0.308585 0.724992
O O15 0.627619 0.372382 0.250000
O O16 0.703104 0.500000 0.252940
O O17 0.670471 0.000000 0.866768
#
# Coordination Sequence:
#
# PCOD9566075 Si02
#       6
#    16  16  16  16  16  16
#     4  10  20  33  50  70  94 131 177 220 260 299
#     4   9  18  32  50  74 105 136 164 197 238 291
#     4   9  17  28  42  64  94 127 164 207 257 307
#     4  10  18  33  51  72  96 128 165 210 251 295
#     4   9  19  35  56  82 107 132 163 196 239 293
#     4  10  18  28  45  68  97 132 166 203 248 298
#
# _framework density 16.315384999999999
#
# number of rings (size 3 to 8) (size 9 to 14) (size 15 to 20)
#    0.000    2.500    1.667    1.000    0.000    1.833 
#    0.000    2.500    0.000    3.500    0.000    3.500 
#    0.000    0.000    0.000    0.000    0.000    0.000 
#
# Total GULP energy -534876.051556 kJ/mol
# GULP energy per Si atom -5571.625537 kJ/mol
# Density = 1.627825 g / cm^3
# Si number density = 16.315385 Si / 1000 Ang^3
#
#
#
# Elastic Constant Matrix: (Units=GPa)
#
#
# Indices 1 2 3 4 5 6 
#
# 1 78.3897 50.6578 43.3855 0.0000 0.0000 0.0000
# 2 50.6578 78.3890 43.3849 0.0000 0.0000 0.0000
# 3 43.3855 43.3849 64.0791 0.0000 0.0000 0.0000
# 4 0.0000 0.0000 0.0000 17.8947 0.0000 0.0000
# 5 0.0000 0.0000 0.0000 0.0000 17.8941 0.0000
# 6 0.0000 0.0000 0.0000 0.0000 0.0000 20.2235
#
#
#
# Elastic Compliance Matrix: (Units=1/GPa)
#
#
# Indices 1 2 3 4 5 6 
#
# 1 0.025143 -0.010917 -0.009631 0.000000 0.000000 0.000000
# 2 -0.010917 0.025142 -0.009631 0.000000 0.000000 0.000000
# 3 -0.009631 -0.009631 0.028647 0.000000 0.000000 0.000000
# 4 0.000000 0.000000 0.000000 0.055882 0.000000 0.000000
# 5 0.000000 0.000000 0.000000 0.000000 0.055884 0.000000
# 6 0.000000 0.000000 0.000000 0.000000 0.000000 0.049447
#
#
# Mechanical properties :
#
#
# Convention : Reuss Voigt Hill
#
# Bulk Modulus (GPa) = 53.84210 55.07936 54.46073
# Shear Modulus (GPa) = 16.30273 16.76444 16.53358
#
# Velocity S-wave (km/s) = 3.16448 3.20898 3.18681
# Velocity P-wave (km/s) = 6.81354 6.89656 6.85518
#
# Compressibility (1/GPa) = 0.01857283
#
# Stress axis : x y z
#
# Youngs Moduli (GPa) = 39.77321 39.77333 34.90720
#
# Poissons Ratio (x) = 0.43422 0.33620
# Poissons Ratio (y) = 0.43422 0.33619
# Poissons Ratio (z) = 0.38307 0.38306
#
# Static dielectric constant tensor:
#      x y z
#    x 1.545960 0.000000 0.000000 
#    y 0.000000 1.545960 0.000000 
#    z 0.000000 0.000000 1.555470 
# 
# From -- ./inp_files/7919.got.cif
#   From: 2010.05.17/outbox.cif.g08.bks.cpg/sg131_4_cif.got.tgz:7919.got - 2010.05.20 12:21:01.
