data_PCOD9566866
_publ_section_title
;
Structure prediction by ZEFSAII (Michael W. Deem and Ramdas Pophale) SiO2 
 PCOD9566866
Probable space group: P 42/M M C
;
_chemical_formula_sum "Si O2"
_cell_formula_units_Z 96
_cell_length_a 13.914421
_cell_length_b 13.914421
_cell_length_c 21.906263
_cell_angle_alpha 90.000000
_cell_angle_beta 90.000000
_cell_angle_gamma 90.000000
_cell_volume 4241.295934
_symmetry_space_group_name_H-M "P 42/M M C"
_symmetry_group_IT_number 131
_symmetry_cell_setting 'tetragonal'
loop_
_space_group_symop_operation_xyz
x,y,z
-x,-y,z
-y,x,1/2+z
y,-x,1/2+z
-x,y,-z
x,-y,-z
y,x,1/2-z
-y,-x,1/2-z
-x,-y,-z
x,y,-z
y,-x,1/2-z
-y,x,1/2-z
x,-y,z
-x,y,z
-y,-x,1/2+z
y,x,1/2+z
loop_
_atom_site_type_symbol
_atom_site_label
_atom_site_fract_x
_atom_site_fract_y
_atom_site_fract_z
Si Si1 0.882840 0.393292 0.253386
Si Si2 0.196009 0.187306 0.565454
Si Si3 0.115874 0.609480 0.110521
Si Si4 0.112747 0.803537 0.689739
Si Si5 0.608841 0.384000 0.316362
Si Si6 0.742971 0.609546 0.431314
O O1 0.848966 0.500000 0.272056
O O2 0.856927 0.377282 0.182220
O O3 0.851654 0.304999 0.295211
O O4 0.000000 0.395106 0.254312
O O5 0.159663 0.151544 0.500000
O O6 0.309185 0.164803 0.570469
O O7 0.154542 0.149876 0.628736
O O8 0.182186 0.302821 0.567934
O O9 0.138995 0.500000 0.093268
O O10 0.000000 0.620053 0.106711
O O11 0.137590 0.862411 0.750000
O O12 0.000000 0.797208 0.681560
O O13 0.647903 0.352098 0.250000
O O14 0.603951 0.500000 0.310392
O O15 0.500000 0.347895 0.324563
O O16 0.670043 0.367121 0.376706
O O17 0.698965 0.611432 0.500000
O O18 0.779247 0.500000 0.422529
#
# Coordination Sequence:
#
# PCOD9566866 Si02
#       6
#    16  16  16  16  16  16
#     4   8  15  32  61  93 120 150 195 250 305 362
#     4  11  24  39  59  90 126 164 209 254 302 367
#     4   9  18  36  62  91 124 157 194 250 316 375
#     4  11  23  41  66  93 124 162 205 251 305 365
#     4   8  14  26  44  66  95 135 186 243 297 343
#     4   9  19  35  52  73 109 157 202 243 289 346
#
# _framework density 22.634589999999999
#
# number of rings (size 3 to 8) (size 9 to 14) (size 15 to 20)
#    0.000    2.667    1.667    1.500    0.000    3.500 
#    0.000    4.167    0.000    0.000    0.000    7.000 
#    0.000    0.333    0.000    0.000    0.000    0.000 
#
# Total GULP energy -536134.880034 kJ/mol
# GULP energy per Si atom -5584.738334 kJ/mol
# Density = 2.258307 g / cm^3
# Si number density = 22.634590 Si / 1000 Ang^3
#
#
#
# Elastic Constant Matrix: (Units=GPa)
#
#
# Indices 1 2 3 4 5 6 
#
# 1 45.0383 1.3913 13.0489 0.0000 0.0000 0.0000
# 2 1.3913 45.0340 13.0468 0.0000 0.0000 0.0000
# 3 13.0489 13.0468 157.7069 0.0000 0.0000 0.0000
# 4 0.0000 0.0000 0.0000 5.4737 0.0000 0.0000
# 5 0.0000 0.0000 0.0000 0.0000 5.4745 0.0000
# 6 0.0000 0.0000 0.0000 0.0000 0.0000 17.1495
#
#
#
# Elastic Compliance Matrix: (Units=1/GPa)
#
#
# Indices 1 2 3 4 5 6 
#
# 1 0.022750 -0.000161 -0.001869 0.000000 0.000000 0.000000
# 2 -0.000161 0.022752 -0.001869 0.000000 0.000000 0.000000
# 3 -0.001869 -0.001869 0.006650 0.000000 0.000000 0.000000
# 4 0.000000 0.000000 0.000000 0.182691 0.000000 0.000000
# 5 0.000000 0.000000 0.000000 0.000000 0.182665 0.000000
# 6 0.000000 0.000000 0.000000 0.000000 0.000000 0.058311
#
#
# Mechanical properties :
#
#
# Convention : Reuss Voigt Hill
#
# Bulk Modulus (GPa) = 22.54623 33.63924 28.09273
# Shear Modulus (GPa) = 10.03207 20.30570 15.16888
#
# Velocity S-wave (km/s) = 2.10756 2.99843 2.59156
# Velocity P-wave (km/s) = 3.98811 5.18474 4.62529
#
# Compressibility (1/GPa) = 0.04435332
#
# Stress axis : x y z
#
# Youngs Moduli (GPa) = 43.95638 43.95246 150.37304
#
# Poissons Ratio (x) = 0.00709 0.28105
# Poissons Ratio (y) = 0.00709 0.28103
# Poissons Ratio (z) = 0.08215 0.08214
#
# Static dielectric constant tensor:
#      x y z
#    x 1.851540 0.000000 0.000000 
#    y 0.000000 1.851540 0.000000 
#    z 0.000000 0.000000 1.876980 
# 
# From -- ./inp_files/9724.got.cif
#   From: 2010.05.17/outbox.cif.g08.bks.cpg/sg131_5_cif.got.tgz:9724.got - 2010.05.20 12:21:01.
