data_PCOD9566554
_publ_section_title
;
Structure prediction by ZEFSAII (Michael W. Deem and Ramdas Pophale) SiO2 
 PCOD9566554
Probable space group: P 42/M M C
;
_chemical_formula_sum "Si O2"
_cell_formula_units_Z 112
_cell_length_a 15.168871
_cell_length_b 15.168871
_cell_length_c 28.100301
_cell_angle_alpha 90.000000
_cell_angle_beta 90.000000
_cell_angle_gamma 90.000000
_cell_volume 6465.728851
_symmetry_space_group_name_H-M "P 42/M M C"
_symmetry_group_IT_number 131
_symmetry_cell_setting 'tetragonal'
loop_
_space_group_symop_operation_xyz
x,y,z
-x,-y,z
-y,x,1/2+z
y,-x,1/2+z
-x,y,-z
x,-y,-z
y,x,1/2-z
-y,-x,1/2-z
-x,-y,-z
x,y,-z
y,-x,1/2-z
-y,x,1/2-z
x,-y,z
-x,y,z
-y,-x,1/2+z
y,x,1/2+z
loop_
_atom_site_type_symbol
_atom_site_label
_atom_site_fract_x
_atom_site_fract_y
_atom_site_fract_z
Si Si1 0.746071 0.765300 0.555963
Si Si2 0.392856 0.901327 0.800546
Si Si3 0.101473 0.100456 0.557856
Si Si4 0.393899 0.900807 0.408776
Si Si5 0.396304 0.853692 0.695995
Si Si6 0.398988 0.247357 0.875034
Si Si7 0.642906 0.400089 0.804629
O O1 0.756829 0.748301 0.500000
O O2 0.828141 0.826357 0.573039
O O3 0.659631 0.825440 0.564343
O O4 0.741236 0.673843 0.584370
O O5 0.500000 0.895541 0.798286
O O6 0.359031 0.881724 0.747155
O O7 0.367543 0.831006 0.840059
O O8 0.368559 0.000000 0.814234
O O9 0.103243 0.100144 0.500000
O O10 0.000000 0.118678 0.571989
O O11 0.124165 0.000000 0.572901
O O12 0.500000 0.886457 0.410649
O O13 0.364234 0.894661 0.353330
O O14 0.376252 0.000000 0.426722
O O15 0.500000 0.877560 0.697665
O O16 0.389556 0.748454 0.692124
O O17 0.500000 0.230615 0.891351
O O18 0.399417 0.332143 0.840769
O O19 0.616998 0.383003 0.750000
O O20 0.619895 0.500000 0.816922
#
# Coordination Sequence:
#
# PCOD9566554 Si02
#       7
#    16  16  16  16  16  16  16
#     4  11  23  37  54  75 102 139 185 237 281 317
#     4   9  17  31  52  77 105 135 167 207 257 316
#     4   8  15  31  56  82 103 123 155 208 273 330
#     4  10  20  34  54  81 112 143 172 207 262 334
#     4   9  16  29  51  78 107 137 165 199 253 320
#     4  11  23  37  52  73 103 143 188 230 271 317
#     4  11  20  33  54  79 107 138 175 222 272 319
#
# _framework density 17.322099999999999
#
# number of rings (size 3 to 8) (size 9 to 14) (size 15 to 20)
#    0.000    2.143    2.857    1.714    0.000    4.714 
#    0.000    0.714    0.000    0.000    0.000    6.000 
#    0.000    0.000    0.000    0.714    0.000    0.714 
#
# Total GULP energy -624363.494982 kJ/mol
# GULP energy per Si atom -5574.674062 kJ/mol
# Density = 1.728267 g / cm^3
# Si number density = 17.322100 Si / 1000 Ang^3
#
#
#
# Elastic Constant Matrix: (Units=GPa)
#
#
# Indices 1 2 3 4 5 6 
#
# 1 70.6496 34.1151 32.2055 0.0000 0.0000 0.0000
# 2 34.1151 70.6525 32.2054 0.0000 0.0000 0.0000
# 3 32.2055 32.2054 62.3512 0.0000 0.0000 0.0000
# 4 0.0000 0.0000 0.0000 -37.9620 0.0000 0.0000
# 5 0.0000 0.0000 0.0000 0.0000 -37.9674 0.0000
# 6 0.0000 0.0000 0.0000 0.0000 0.0000 19.3609
#
#
#
# Elastic Compliance Matrix: (Units=1/GPa)
#
#
# Indices 1 2 3 4 5 6 
#
# 1 0.020679 -0.006692 -0.007225 0.000000 0.000000 0.000000
# 2 -0.006692 0.020678 -0.007224 0.000000 0.000000 0.000000
# 3 -0.007225 -0.007224 0.023501 0.000000 0.000000 0.000000
# 4 0.000000 0.000000 0.000000 -0.026342 0.000000 0.000000
# 5 0.000000 0.000000 0.000000 0.000000 -0.026338 0.000000
# 6 0.000000 0.000000 0.000000 0.000000 0.000000 0.051651
#
#
# Mechanical properties :
#
#
# Convention : Reuss Voigt Hill
#
# Bulk Modulus (GPa) = 44.29269 44.52283 44.40776
# Shear Modulus (GPa) = 44.00053 -4.30523 19.84765
#
# Velocity S-wave (km/s) = 5.04545 -1.57822 3.38864
# Velocity P-wave (km/s) = 7.71800 4.73684 6.40333
#
# Compressibility (1/GPa) = 0.02257709
#
# Stress axis : x y z
#
# Youngs Moduli (GPa) = 48.35808 48.36079 42.55105
#
# Poissons Ratio (x) = 0.32362 0.30742
# Poissons Ratio (y) = 0.32361 0.30739
# Poissons Ratio (z) = 0.34937 0.34936
#
# Static dielectric constant tensor:
#      x y z
#    x 1.598450 0.000000 0.000000 
#    y 0.000000 1.598450 0.000000 
#    z 0.000000 0.000000 1.597080 
# 
# From -- ./inp_files/12436.got.cif
#   From: 2010.05.17/outbox.cif.g08.bks.cpg/sg131_7_cif.got.tgz:12436.got - 2010.05.20 12:21:01.
