data_PCOD9566434
_publ_section_title
;
Structure prediction by ZEFSAII (Michael W. Deem and Ramdas Pophale) SiO2 
 PCOD9566434
Probable space group: P 42/M M C
;
_chemical_formula_sum "Si O2"
_cell_formula_units_Z 112
_cell_length_a 19.229212
_cell_length_b 19.229212
_cell_length_c 18.450522
_cell_angle_alpha 90.000000
_cell_angle_beta 90.000000
_cell_angle_gamma 90.000000
_cell_volume 6822.312878
_symmetry_space_group_name_H-M "P 42/M M C"
_symmetry_group_IT_number 131
_symmetry_cell_setting 'tetragonal'
loop_
_space_group_symop_operation_xyz
x,y,z
-x,-y,z
-y,x,1/2+z
y,-x,1/2+z
-x,y,-z
x,-y,-z
y,x,1/2-z
-y,-x,1/2-z
-x,-y,-z
x,y,-z
y,-x,1/2-z
-y,x,1/2-z
x,-y,z
-x,y,z
-y,-x,1/2+z
y,x,1/2+z
loop_
_atom_site_type_symbol
_atom_site_label
_atom_site_fract_x
_atom_site_fract_y
_atom_site_fract_z
Si Si1 0.419539 0.843091 0.831845
Si Si2 0.921423 0.713764 0.913169
Si Si3 0.422155 0.081858 0.678812
Si Si4 0.664021 0.701233 0.832417
Si Si5 0.921181 0.299517 0.587197
Si Si6 0.418107 0.418982 0.913257
Si Si7 0.785794 0.782436 0.412644
O O1 0.500000 0.846001 0.853266
O O2 0.413259 0.871996 0.750164
O O3 0.390577 0.764971 0.835050
O O4 0.371459 0.891768 0.881393
O O5 0.905236 0.639529 0.877154
O O6 0.861382 0.767708 0.892706
O O7 0.000000 0.734004 0.891701
O O8 0.920356 0.706510 0.000000
O O9 0.500000 0.094215 0.649089
O O10 0.418679 0.000000 0.699330
O O11 0.683800 0.683800 0.750000
O O12 0.630259 0.634424 0.870748
O O13 0.731195 0.730693 0.874832
O O14 0.921935 0.302723 0.500000
O O15 0.863230 0.242388 0.608330
O O16 0.000000 0.286086 0.612238
O O17 0.403067 0.500000 0.896124
O O18 0.500000 0.406737 0.896924
O O19 0.409503 0.410068 0.000000
O O20 0.779807 0.775176 0.500000
#
# Coordination Sequence:
#
# PCOD9566434 Si02
#       7
#    16  16  16  16  16  16  16
#     4  10  20  32  46  68  97 126 155 189 232 279
#     4   9  17  30  49  70  91 120 159 198 233 273
#     4   9  17  29  45  66  95 128 156 186 229 279
#     4  11  21  32  49  72  97 124 157 199 240 280
#     4   9  18  32  50  71  94 123 157 190 227 276
#     4   9  19  36  54  69  89 122 162 200 240 286
#     4   9  18  33  50  69  96 126 155 190 234 283
#
# _framework density 16.416720000000002
#
# number of rings (size 3 to 8) (size 9 to 14) (size 15 to 20)
#    0.000    2.571    0.000    2.571    0.000    3.143 
#    0.000    3.571    0.000    1.286    0.000    3.000 
#    0.000    0.000    0.000    6.857    0.000    9.429 
#
# Total GULP energy -624320.201982 kJ/mol
# GULP energy per Si atom -5574.287518 kJ/mol
# Density = 1.637935 g / cm^3
# Si number density = 16.416720 Si / 1000 Ang^3
#
#
#
# Elastic Constant Matrix: (Units=GPa)
#
#
# Indices 1 2 3 4 5 6 
#
# 1 120.2432 84.5310 37.5620 0.0000 0.0000 0.0000
# 2 84.5310 120.2432 37.5620 0.0000 0.0000 0.0000
# 3 37.5620 37.5620 25.3252 0.0000 0.0000 0.0000
# 4 0.0000 0.0000 0.0000 20.6831 0.0000 0.0000
# 5 0.0000 0.0000 0.0000 0.0000 20.6831 0.0000
# 6 0.0000 0.0000 0.0000 0.0000 0.0000 18.0250
#
#
#
# Elastic Compliance Matrix: (Units=1/GPa)
#
#
# Indices 1 2 3 4 5 6 
#
# 1 0.019357 -0.008645 -0.015888 0.000000 0.000000 0.000000
# 2 -0.008645 0.019357 -0.015888 0.000000 0.000000 0.000000
# 3 -0.015888 -0.015888 0.086616 0.000000 0.000000 0.000000
# 4 0.000000 0.000000 0.000000 0.048349 0.000000 0.000000
# 5 0.000000 0.000000 0.000000 0.000000 0.048349 0.000000
# 6 0.000000 0.000000 0.000000 0.000000 0.000000 0.055478
#
#
# Mechanical properties :
#
#
# Convention : Reuss Voigt Hill
#
# Bulk Modulus (GPa) = 22.47787 65.01349 43.74568
# Shear Modulus (GPa) = 13.39846 18.95537 16.17691
#
# Velocity S-wave (km/s) = 2.85993 3.40168 3.14250
# Velocity P-wave (km/s) = 4.96260 7.42405 6.31443
#
# Compressibility (1/GPa) = 0.04448820
#
# Stress axis : x y z
#
# Youngs Moduli (GPa) = 51.66117 51.66117 11.54516
#
# Poissons Ratio (x) = 0.44660 0.18343
# Poissons Ratio (y) = 0.44660 0.18343
# Poissons Ratio (z) = 0.82080 0.82080
#
# Static dielectric constant tensor:
#      x y z
#    x 1.547370 0.000000 0.000000 
#    y 0.000000 1.547370 0.000000 
#    z 0.000000 0.000000 1.536540 
# 
# From -- ./inp_files/10057.got.cif
#   From: 2010.05.17/outbox.cif.g08.bks.cpg/sg131_6_cif.got.tgz:10057.got - 2010.05.20 12:21:01.
