data_PCOD9566710
_publ_section_title
;
Structure prediction by ZEFSAII (Michael W. Deem and Ramdas Pophale) SiO2 
 PCOD9566710
Probable space group: P 42/M M C
;
_chemical_formula_sum "Si O2"
_cell_formula_units_Z 120
_cell_length_a 14.462814
_cell_length_b 14.462814
_cell_length_c 28.195473
_cell_angle_alpha 90.000000
_cell_angle_beta 90.000000
_cell_angle_gamma 90.000000
_cell_volume 5897.731358
_symmetry_space_group_name_H-M "P 42/M M C"
_symmetry_group_IT_number 131
_symmetry_cell_setting 'tetragonal'
loop_
_space_group_symop_operation_xyz
x,y,z
-x,-y,z
-y,x,1/2+z
y,-x,1/2+z
-x,y,-z
x,-y,-z
y,x,1/2-z
-y,-x,1/2-z
-x,-y,-z
x,y,-z
y,-x,1/2-z
-y,x,1/2-z
x,-y,z
-x,y,z
-y,-x,1/2+z
y,x,1/2+z
loop_
_atom_site_type_symbol
_atom_site_label
_atom_site_fract_x
_atom_site_fract_y
_atom_site_fract_z
Si Si1 0.106039 0.889348 0.556696
Si Si2 0.194431 0.389848 0.814106
Si Si3 0.709506 0.198900 0.416015
Si Si4 0.108429 0.260911 0.260937
Si Si5 0.603554 0.890899 0.844899
Si Si6 0.891129 0.602161 0.000000
Si Si7 0.608621 0.400714 0.315341
Si Si8 0.727490 0.599226 0.587965
O O1 0.118002 0.872273 0.500000
O O2 0.184344 0.834817 0.585117
O O3 0.000000 0.864877 0.569191
O O4 0.116729 0.000000 0.563657
O O5 0.177667 0.500000 0.817233
O O6 0.192343 0.341605 0.865628
O O7 0.124530 0.336846 0.780032
O O8 0.299156 0.374655 0.794491
O O9 0.657502 0.136570 0.453601
O O10 0.704061 0.303992 0.435313
O O11 0.174286 0.174286 0.250000
O O12 0.136405 0.315128 0.309061
O O13 0.000000 0.236283 0.263860
O O14 0.500000 0.872463 0.824099
O O15 0.607635 0.831907 0.892576
O O16 0.610132 0.000000 0.853162
O O17 0.848194 0.500000 0.000000
O O18 0.000000 0.593911 0.000000
O O19 0.626540 0.500000 0.289703
O O20 0.500000 0.400887 0.327520
O O21 0.667278 0.403529 0.363605
O O22 0.714846 0.500000 0.563568
#
# Coordination Sequence:
#
# PCOD9566710 Si02
#       8
#    16  16  16  16  16   8  16  16
#     4   9  18  34  56  79 102 135 185 240 289 334
#     4  10  21  36  57  87 119 149 186 234 289 347
#     4  11  20  35  58  83 115 152 187 230 284 341
#     4  11  23  39  57  79 110 151 196 240 288 341
#     4   9  18  35  59  83 108 141 183 228 274 331
#     4  11  24  40  58  80 108 147 192 234 280 338
#     4   8  14  27  48  73 103 138 173 211 260 317
#     4   9  18  32  53  81 109 140 180 226 271 322
#
# _framework density 20.346807999999999
#
# number of rings (size 3 to 8) (size 9 to 14) (size 15 to 20)
#    0.000    2.333    0.667    3.200    0.000    3.067 
#    0.000    1.667    0.000    1.200    0.000    4.667 
#    0.000    0.000    0.000    0.000    0.000    0.000 
#
# Total GULP energy -669560.604343 kJ/mol
# GULP energy per Si atom -5579.671703 kJ/mol
# Density = 2.030050 g / cm^3
# Si number density = 20.346808 Si / 1000 Ang^3
#
#
#
# Elastic Constant Matrix: (Units=GPa)
#
#
# Indices 1 2 3 4 5 6 
#
# 1 97.8871 34.1896 14.6068 0.0000 0.0000 0.0000
# 2 34.1896 97.8871 14.6068 0.0000 0.0000 0.0000
# 3 14.6068 14.6068 39.8632 0.0000 0.0000 0.0000
# 4 0.0000 0.0000 0.0000 10.3977 0.0000 0.0000
# 5 0.0000 0.0000 0.0000 0.0000 10.3977 0.0000
# 6 0.0000 0.0000 0.0000 0.0000 0.0000 28.8970
#
#
#
# Elastic Compliance Matrix: (Units=1/GPa)
#
#
# Indices 1 2 3 4 5 6 
#
# 1 0.011969 -0.003730 -0.003019 0.000000 0.000000 0.000000
# 2 -0.003730 0.011969 -0.003019 0.000000 0.000000 0.000000
# 3 -0.003019 -0.003019 0.027298 0.000000 0.000000 0.000000
# 4 0.000000 0.000000 0.000000 0.096175 0.000000 0.000000
# 5 0.000000 0.000000 0.000000 0.000000 0.096175 0.000000
# 6 0.000000 0.000000 0.000000 0.000000 0.000000 0.034606
#
#
# Mechanical properties :
#
#
# Convention : Reuss Voigt Hill
#
# Bulk Modulus (GPa) = 31.54527 40.27152 35.90840
# Shear Modulus (GPa) = 16.21824 21.42078 18.81951
#
# Velocity S-wave (km/s) = 2.82634 3.24818 3.04458
# Velocity P-wave (km/s) = 5.11746 5.82264 5.48140
#
# Compressibility (1/GPa) = 0.03170048
#
# Stress axis : x y z
#
# Youngs Moduli (GPa) = 83.54805 83.54805 36.63239
#
# Poissons Ratio (x) = 0.31164 0.11059
# Poissons Ratio (y) = 0.31164 0.11059
# Poissons Ratio (z) = 0.25223 0.25223
#
# Static dielectric constant tensor:
#      x y z
#    x 1.745890 0.000000 0.000000 
#    y 0.000000 1.745890 0.000000 
#    z 0.000000 0.000000 1.722920 
# 
# From -- ./inp_files/13930.got.cif
#   From: 2010.05.17/outbox.cif.g08.bks.cpg/sg131_7_cif.got.tgz:13930.got - 2010.05.20 12:21:01.
