data_PCOD9566980
_publ_section_title
;
Structure prediction by ZEFSAII (Michael W. Deem and Ramdas Pophale) SiO2 
 PCOD9566980
Probable space group: P 42/M C M
;
_chemical_formula_sum "Si O2"
_cell_formula_units_Z 80
_cell_length_a 14.643911
_cell_length_b 14.643911
_cell_length_c 14.382534
_cell_angle_alpha 90.000000
_cell_angle_beta 90.000000
_cell_angle_gamma 90.000000
_cell_volume 3084.249982
_symmetry_space_group_name_H-M "P 42/M C M"
_symmetry_group_IT_number 132
_symmetry_cell_setting 'tetragonal'
loop_
_space_group_symop_operation_xyz
x,y,z
-y,x,1/2+z
-x,-y,z
y,-x,1/2+z
x,-y,1/2-z
-x,y,1/2-z
y,x,-z
-y,-x,-z
-x,-y,-z
y,-x,1/2-z
x,y,-z
-y,x,1/2-z
-x,y,1/2+z
x,-y,1/2+z
-y,-x,z
y,x,z
loop_
_atom_site_type_symbol
_atom_site_label
_atom_site_fract_x
_atom_site_fract_y
_atom_site_fract_z
Si Si1 0.989480 0.648216 0.852794
Si Si2 0.666116 0.192091 0.141689
Si Si3 0.339222 0.515885 0.138575
Si Si4 0.349056 0.791038 0.367221
Si Si5 0.853196 0.005344 0.889102
O O1 0.892879 0.621213 0.897626
O O2 0.980579 0.757660 0.845663
O O3 0.000000 0.606655 0.750000
O O4 0.091410 0.641950 0.893633
O O5 0.763707 0.236293 0.115347
O O6 0.590505 0.264052 0.113347
O O7 0.659221 0.195488 0.254923
O O8 0.348625 0.500000 0.250000
O O9 0.434080 0.565921 0.109543
O O10 0.287456 0.422982 0.109452
O O11 0.251514 0.748487 0.397069
O O12 0.924159 0.924159 0.876624
O O13 0.838956 0.016381 0.000000
O O14 0.904477 0.095524 0.852636
#
# Coordination Sequence:
#
# PCOD9566980 Si02
#       5
#    16  16  16  16  16
#     4  10  18  28  44  65  94 126 150 183 234 283
#     4   8  15  26  39  59  85 114 153 192 223 269
#     4   9  16  26  40  58  84 119 155 192 236 281
#     4   9  17  26  37  59  88 117 155 195 227 273
#     4   9  18  31  45  63  89 122 162 203 234 266
#
# _framework density 25.938234999999999
#
# number of rings (size 3 to 8) (size 9 to 14) (size 15 to 20)
#    0.000    3.000    0.000    3.600    0.000    4.600 
#    0.000    5.000    0.000    0.000    0.000    2.800 
#    0.000    2.400    0.000    4.200    0.000   74.600 
#
# Total GULP energy -446093.492007 kJ/mol
# GULP energy per Si atom -5576.168650 kJ/mol
# Density = 2.587920 g / cm^3
# Si number density = 25.938235 Si / 1000 Ang^3
#
#
#
# Elastic Constant Matrix: (Units=GPa)
#
#
# Indices 1 2 3 4 5 6 
#
# 1 106.9876 159.8295 4.6172 0.0000 0.0000 0.0000
# 2 159.8295 106.9876 4.6172 0.0000 0.0000 0.0000
# 3 4.6172 4.6172 117.7579 0.0000 0.0000 0.0000
# 4 0.0000 0.0000 0.0000 -196.1511 0.0000 0.0000
# 5 0.0000 0.0000 0.0000 0.0000 -196.1511 0.0000
# 6 0.0000 0.0000 0.0000 0.0000 0.0000 53.9342
#
#
#
# Elastic Compliance Matrix: (Units=1/GPa)
#
#
# Indices 1 2 3 4 5 6 
#
# 1 -0.007586 0.011339 -0.000147 0.000000 0.000000 0.000000
# 2 0.011339 -0.007586 -0.000147 0.000000 0.000000 0.000000
# 3 -0.000147 -0.000147 0.008504 0.000000 0.000000 0.000000
# 4 0.000000 0.000000 0.000000 -0.005098 0.000000 0.000000
# 5 0.000000 0.000000 0.000000 0.000000 -0.005098 0.000000
# 6 0.000000 0.000000 0.000000 0.000000 0.000000 0.018541
#
#
# Mechanical properties :
#
#
# Convention : Reuss Voigt Hill
#
# Bulk Modulus (GPa) = 64.84706 74.42896 69.63801
# Shear Modulus (GPa) = -327.40924 -56.82899 -192.11912
#
# Velocity S-wave (km/s) = -11.24724 -4.68582 -8.61561
# Velocity P-wave (km/s) = 11.98384 0.72035 8.48915
#
# Compressibility (1/GPa) = 0.01542090
#
# Stress axis : x y z
#
# Youngs Moduli (GPa) = -131.82706 -131.82706 117.59805
#
# Poissons Ratio (x) = 1.49474 0.01730
# Poissons Ratio (y) = 1.49474 0.01730
# Poissons Ratio (z) = -0.01940 -0.01940
#
# Static dielectric constant tensor:
#      x y z
#    x 2.038360 0.000000 0.000000 
#    y 0.000000 2.038360 0.000000 
#    z 0.000000 0.000000 2.039410 
# 
# From -- ./inp_files/7666.got.cif
#   From: 2010.05.17/outbox.cif.g08.bks.cpg/sg132_4_cif.got.tgz:7666.got - 2010.05.20 12:30:18.
