data_PCOD9566003
_publ_section_title
;
Structure prediction by ZEFSAII (Michael W. Deem and Ramdas Pophale) SiO2 
 PCOD9566003
Probable space group: P 4/N C C
;
_chemical_formula_sum "Si O2"
_cell_formula_units_Z 60
_cell_length_a 17.324776
_cell_length_b 17.324776
_cell_length_c 8.076328
_cell_angle_alpha 90.000000
_cell_angle_beta 90.000000
_cell_angle_gamma 90.000000
_cell_volume 2424.092594
_symmetry_space_group_name_H-M "P 4/N C C"
_symmetry_group_IT_number 130
_symmetry_cell_setting 'tetragonal'
loop_
_space_group_symop_operation_xyz
x,y,z
1/2-y,x,z
1/2-x,1/2-y,z
y,1/2-x,z
1/2+x,-y,1/2-z
-x,1/2+y,1/2-z
1/2+y,1/2+x,1/2-z
-y,-x,1/2-z
-x,-y,-z
1/2+y,-x,-z
1/2+x,1/2+y,-z
-y,1/2+x,-z
1/2-x,y,1/2+z
x,1/2-y,1/2+z
1/2-y,1/2-x,1/2+z
y,x,1/2+z
loop_
_atom_site_type_symbol
_atom_site_label
_atom_site_fract_x
_atom_site_fract_y
_atom_site_fract_z
Si Si1 0.088455 0.162955 0.527431
Si Si2 0.603917 0.396084 0.750000
Si Si3 0.090958 0.980216 0.585072
Si Si4 0.250000 0.250000 0.474840
Si Si5 0.012438 0.745304 0.246155
O O1 0.091111 0.071323 0.547539
O O2 0.172226 0.194956 0.481307
O O3 0.023591 0.194363 0.401162
O O4 0.060102 0.202333 0.696969
O O5 0.569780 0.434140 0.581943
O O6 0.581431 0.306538 0.763251
O O7 0.180148 0.962443 0.624544
O O8 0.044446 0.955555 0.750000
#
# Coordination Sequence:
#
# PCOD9566003 Si02
#       5
#    16   8  16   4  16
#     4  12  28  50  78 128 170 222 279 356 436 530
#     4  12  28  56  85 122 176 229 292 366 426 534
#     4  12  30  55  89 126 173 231 296 363 439 519
#     4  12  24  46  80 114 184 218 264 350 446 532
#     4  12  27  53  80 122 166 222 289 355 433 510
#
# _framework density 24.751532000000001
#
# number of rings (size 3 to 8) (size 9 to 14) (size 15 to 20)
#    0.000    0.000    5.333    1.600    9.333    3.200 
#    4.800    0.667    0.000    0.000    3.467    0.000 
#    0.000    0.000    0.000    0.000    0.000    0.000 
#
# Total GULP energy -335052.511238 kJ/mol
# GULP energy per Si atom -5584.208521 kJ/mol
# Density = 2.469520 g / cm^3
# Si number density = 24.751532 Si / 1000 Ang^3
#
#
#
# Elastic Constant Matrix: (Units=GPa)
#
#
# Indices 1 2 3 4 5 6 
#
# 1 205.2203 88.0849 79.1000 0.0000 0.0000 0.0000
# 2 88.0849 205.2153 79.1000 0.0000 0.0000 0.0000
# 3 79.1000 79.1000 147.1230 0.0000 0.0000 0.0000
# 4 0.0000 0.0000 0.0000 28.7853 0.0000 0.0000
# 5 0.0000 0.0000 0.0000 0.0000 28.7851 0.0000
# 6 0.0000 0.0000 0.0000 0.0000 0.0000 61.1561
#
#
#
# Elastic Compliance Matrix: (Units=1/GPa)
#
#
# Indices 1 2 3 4 5 6 
#
# 1 0.006670 -0.001868 -0.002582 0.000000 0.000000 0.000000
# 2 -0.001868 0.006670 -0.002582 0.000000 0.000000 0.000000
# 3 -0.002582 -0.002582 0.009573 0.000000 0.000000 0.000000
# 4 0.000000 0.000000 0.000000 0.034740 0.000000 0.000000
# 5 0.000000 0.000000 0.000000 0.000000 0.034740 0.000000
# 6 0.000000 0.000000 0.000000 0.000000 0.000000 0.016352
#
#
# Mechanical properties :
#
#
# Convention : Reuss Voigt Hill
#
# Bulk Modulus (GPa) = 112.99319 116.68094 114.83707
# Shear Modulus (GPa) = 39.75931 44.49686 42.12808
#
# Velocity S-wave (km/s) = 4.01226 4.24458 4.13005
# Velocity P-wave (km/s) = 8.19844 8.44187 8.32105
#
# Compressibility (1/GPa) = 0.00885009
#
# Stress axis : x y z
#
# Youngs Moduli (GPa) = 149.93522 149.93061 104.45844
#
# Poissons Ratio (x) = 0.28002 0.26968
# Poissons Ratio (y) = 0.28003 0.26969
# Poissons Ratio (z) = 0.38709 0.38709
#
# Static dielectric constant tensor:
#      x y z
#    x 1.946480 0.000000 0.000000 
#    y 0.000000 1.946490 0.000000 
#    z 0.000000 0.000000 2.175780 
# 
# From -- ./inp_files/648.got.cif
#   From: 2010.05.17/outbox.cif.g08.bks.cpg/sg130_1_cif.got.tgz:648.got - 2010.05.20 12:17:35.
