data_PCOD9566397
_publ_section_title
;
Structure prediction by ZEFSAII (Michael W. Deem and Ramdas Pophale) SiO2 
 PCOD9566397
Probable space group: P 42/M M C
;
_chemical_formula_sum "Si O2"
_cell_formula_units_Z 88
_cell_length_a 17.316380
_cell_length_b 17.316380
_cell_length_c 14.747003
_cell_angle_alpha 90.000000
_cell_angle_beta 90.000000
_cell_angle_gamma 90.000000
_cell_volume 4421.992319
_symmetry_space_group_name_H-M "P 42/M M C"
_symmetry_group_IT_number 131
_symmetry_cell_setting 'tetragonal'
loop_
_space_group_symop_operation_xyz
x,y,z
-x,-y,z
-y,x,1/2+z
y,-x,1/2+z
-x,y,-z
x,-y,-z
y,x,1/2-z
-y,-x,1/2-z
-x,-y,-z
x,y,-z
y,-x,1/2-z
-y,x,1/2-z
x,-y,z
-x,y,z
-y,-x,1/2+z
y,x,1/2+z
loop_
_atom_site_type_symbol
_atom_site_label
_atom_site_fract_x
_atom_site_fract_y
_atom_site_fract_z
Si Si1 0.619125 0.759561 0.902888
Si Si2 0.804055 0.385044 0.203123
Si Si3 0.908681 0.500000 0.896422
Si Si4 0.771043 0.803440 0.395133
Si Si5 0.414572 0.628247 0.350837
Si Si6 0.911814 0.087258 0.890097
O O1 0.592846 0.795871 0.808357
O O2 0.710914 0.777048 0.900946
O O3 0.606239 0.666457 0.897712
O O4 0.589100 0.787218 0.000000
O O5 0.872960 0.427980 0.154901
O O6 0.815792 0.295641 0.178784
O O7 0.721339 0.408663 0.159663
O O8 0.000000 0.500000 0.894912
O O9 0.881486 0.500000 0.000000
O O10 0.750070 0.828089 0.500000
O O11 0.847806 0.849326 0.367365
O O12 0.406785 0.593216 0.250000
O O13 0.500000 0.608775 0.387695
O O14 0.000000 0.106218 0.862153
O O15 0.893808 0.000000 0.858716
O O16 0.912347 0.084690 0.000000
#
# Coordination Sequence:
#
# PCOD9566397 Si02
#       6
#    16  16   8  16  16  16
#     4   9  19  34  55  82 109 146 202 247 276 330
#     4  10  19  36  56  78 115 155 190 232 291 350
#     4  11  24  40  61  91 118 139 177 235 301 370
#     4   9  16  28  50  80 111 146 192 241 288 345
#     4   9  17  31  54  84 118 156 195 231 282 341
#     4   8  14  25  43  71 108 147 184 226 286 359
#
# _framework density 19.900531999999998
#
# number of rings (size 3 to 8) (size 9 to 14) (size 15 to 20)
#    0.000    2.818    0.909    2.727    0.000    2.000 
#    0.000    3.182    0.000    5.455    0.000    7.636 
#    0.000    0.000    0.000    0.000    0.000    0.000 
#
# Total GULP energy -490468.251146 kJ/mol
# GULP energy per Si atom -5573.502854 kJ/mol
# Density = 1.985524 g / cm^3
# Si number density = 19.900532 Si / 1000 Ang^3
#
#
#
# Elastic Constant Matrix: (Units=GPa)
#
#
# Indices 1 2 3 4 5 6 
#
# 1 91.8216 54.1247 24.1910 0.0000 0.0000 0.0000
# 2 54.1247 91.8216 24.1910 0.0000 0.0000 0.0000
# 3 24.1910 24.1910 133.0234 0.0000 0.0000 0.0000
# 4 0.0000 0.0000 0.0000 9.1236 0.0000 0.0000
# 5 0.0000 0.0000 0.0000 0.0000 9.1425 0.0000
# 6 0.0000 0.0000 0.0000 0.0000 0.0000 -6.6892
#
#
#
# Elastic Compliance Matrix: (Units=1/GPa)
#
#
# Indices 1 2 3 4 5 6 
#
# 1 0.016909 -0.009618 -0.001326 0.000000 0.000000 0.000000
# 2 -0.009618 0.016909 -0.001326 0.000000 0.000000 0.000000
# 3 -0.001326 -0.001326 0.008000 0.000000 0.000000 0.000000
# 4 0.000000 0.000000 0.000000 0.109606 0.000000 0.000000
# 5 0.000000 0.000000 0.000000 0.000000 0.109379 0.000000
# 6 0.000000 0.000000 0.000000 0.000000 0.000000 -0.149495
#
#
# Mechanical properties :
#
#
# Convention : Reuss Voigt Hill
#
# Bulk Modulus (GPa) = 57.87494 57.96444 57.91969
# Shear Modulus (GPa) = 35.30876 16.59271 25.95073
#
# Velocity S-wave (km/s) = 4.21677 2.89066 3.61504
# Velocity P-wave (km/s) = 7.27004 6.35071 6.82587
#
# Compressibility (1/GPa) = 0.01727864
#
# Stress axis : x y z
#
# Youngs Moduli (GPa) = 59.13868 59.13872 125.00392
#
# Poissons Ratio (x) = 0.56880 0.16575
# Poissons Ratio (y) = 0.56880 0.16575
# Poissons Ratio (z) = 0.07842 0.07842
#
# Static dielectric constant tensor:
#      x y z
#    x 1.707950 0.000000 0.000000 
#    y 0.000000 1.707950 0.000000 
#    z 0.000000 0.000000 1.757170 
# 
# From -- ./inp_files/5907.got.cif
#   From: 2010.05.17/outbox.cif.g08.bks.cpg/sg131_3_cif.got.tgz:5907.got - 2010.05.20 12:21:01.
