data_PCOD9566781
_publ_section_title
;
Structure prediction by ZEFSAII (Michael W. Deem and Ramdas Pophale) SiO2 
 PCOD9566781
Probable space group: P 42/M M C
;
_chemical_formula_sum "Si O2"
_cell_formula_units_Z 84
_cell_length_a 14.229959
_cell_length_b 14.229959
_cell_length_c 19.903335
_cell_angle_alpha 90.000000
_cell_angle_beta 90.000000
_cell_angle_gamma 90.000000
_cell_volume 4030.260799
_symmetry_space_group_name_H-M "P 42/M M C"
_symmetry_group_IT_number 131
_symmetry_cell_setting 'tetragonal'
loop_
_space_group_symop_operation_xyz
x,y,z
-x,-y,z
-y,x,1/2+z
y,-x,1/2+z
-x,y,-z
x,-y,-z
y,x,1/2-z
-y,-x,1/2-z
-x,-y,-z
x,y,-z
y,-x,1/2-z
-y,x,1/2-z
x,-y,z
-x,y,z
-y,-x,1/2+z
y,x,1/2+z
loop_
_atom_site_type_symbol
_atom_site_label
_atom_site_fract_x
_atom_site_fract_y
_atom_site_fract_z
Si Si1 0.245718 0.171156 0.073718
Si Si2 0.331892 0.610879 0.609555
Si Si3 0.368019 0.500000 0.000000
Si Si4 0.654559 0.887981 0.575350
Si Si5 0.754533 0.105583 0.220994
Si Si6 0.604520 0.230997 0.702707
O O1 0.335253 0.240776 0.080849
O O2 0.154924 0.240321 0.077208
O O3 0.244280 0.109776 0.140442
O O4 0.247156 0.126166 0.000000
O O5 0.317854 0.500000 0.618225
O O6 0.417721 0.625948 0.558265
O O7 0.358289 0.668619 0.676737
O O8 0.617325 0.866170 0.500000
O O9 0.603634 0.832188 0.634249
O O10 0.651884 0.000000 0.584219
O O11 0.849961 0.150040 0.250000
O O12 0.673243 0.173473 0.248989
O O13 0.739573 0.000000 0.244916
O O14 0.500000 0.238009 0.729907
#
# Coordination Sequence:
#
# PCOD9566781 Si02
#       6
#    16  16   4  16  16  16
#     4  10  22  41  65  93 127 173 221 275 332 394
#     4  11  21  34  61  98 142 184 228 272 322 387
#     4  12  21  32  60 108 147 196 237 276 318 386
#     4   9  18  33  57  90 128 167 209 258 315 384
#     4  12  26  47  70  98 132 169 221 286 354 416
#     4  11  24  39  62  92 134 180 222 269 332 400
#
# _framework density 20.842321999999999
#
# number of rings (size 3 to 8) (size 9 to 14) (size 15 to 20)
#    0.000    1.333    5.714    1.429    1.333    3.238 
#    0.000    0.952    2.095    0.000    0.000    6.667 
#    0.000    0.000    0.000    0.000    0.000    0.000 
#
# Total GULP energy -468414.188226 kJ/mol
# GULP energy per Si atom -5576.359384 kJ/mol
# Density = 2.079488 g / cm^3
# Si number density = 20.842322 Si / 1000 Ang^3
#
#
#
# Elastic Constant Matrix: (Units=GPa)
#
#
# Indices 1 2 3 4 5 6 
#
# 1 105.0558 14.7498 20.9448 0.0000 0.0000 0.0000
# 2 14.7498 105.0575 20.9454 0.0000 0.0000 0.0000
# 3 20.9448 20.9454 135.8424 0.0000 0.0000 0.0000
# 4 0.0000 0.0000 0.0000 15.6775 0.0000 0.0000
# 5 0.0000 0.0000 0.0000 0.0000 15.6772 0.0000
# 6 0.0000 0.0000 0.0000 0.0000 0.0000 -7.3306
#
#
#
# Elastic Compliance Matrix: (Units=1/GPa)
#
#
# Indices 1 2 3 4 5 6 
#
# 1 0.009948 -0.001125 -0.001360 0.000000 0.000000 0.000000
# 2 -0.001125 0.009948 -0.001360 0.000000 0.000000 0.000000
# 3 -0.001360 -0.001360 0.007781 0.000000 0.000000 0.000000
# 4 0.000000 0.000000 0.000000 0.063786 0.000000 0.000000
# 5 0.000000 0.000000 0.000000 0.000000 0.063787 0.000000
# 6 0.000000 0.000000 0.000000 0.000000 0.000000 -0.136415
#
#
# Mechanical properties :
#
#
# Convention : Reuss Voigt Hill
#
# Bulk Modulus (GPa) = 50.03854 51.02619 50.53236
# Shear Modulus (GPa) = 150.65560 24.09253 87.37407
#
# Velocity S-wave (km/s) = 8.51119 3.40360 6.48170
# Velocity P-wave (km/s) = 10.98397 6.32307 8.96183
#
# Compressibility (1/GPa) = 0.01998460
#
# Stress axis : x y z
#
# Youngs Moduli (GPa) = 100.52311 100.52454 128.51898
#
# Poissons Ratio (x) = 0.11314 0.17482
# Poissons Ratio (y) = 0.11314 0.17483
# Poissons Ratio (z) = 0.13674 0.13674
#
# Static dielectric constant tensor:
#      x y z
#    x 1.733980 0.000000 0.000000 
#    y 0.000000 1.733980 0.000000 
#    z 0.000000 0.000000 1.824260 
# 
# From -- ./inp_files/9561.got.cif
#   From: 2010.05.17/outbox.cif.g08.bks.cpg/sg131_5_cif.got.tgz:9561.got - 2010.05.20 12:21:01.
