data_PCOD9566752
_publ_section_title
;
Structure prediction by ZEFSAII (Michael W. Deem and Ramdas Pophale) SiO2 
 PCOD9566752
Probable space group: P 42/M M C
;
_chemical_formula_sum "Si O2"
_cell_formula_units_Z 96
_cell_length_a 24.577418
_cell_length_b 24.577418
_cell_length_c 8.897127
_cell_angle_alpha 90.000000
_cell_angle_beta 90.000000
_cell_angle_gamma 90.000000
_cell_volume 5374.304898
_symmetry_space_group_name_H-M "P 42/M M C"
_symmetry_group_IT_number 131
_symmetry_cell_setting 'tetragonal'
loop_
_space_group_symop_operation_xyz
x,y,z
-x,-y,z
-y,x,1/2+z
y,-x,1/2+z
-x,y,-z
x,-y,-z
y,x,1/2-z
-y,-x,1/2-z
-x,-y,-z
x,y,-z
y,-x,1/2-z
-y,x,1/2-z
x,-y,z
-x,y,z
-y,-x,1/2+z
y,x,1/2+z
loop_
_atom_site_type_symbol
_atom_site_label
_atom_site_fract_x
_atom_site_fract_y
_atom_site_fract_z
Si Si1 0.856391 0.060679 0.680221
Si Si2 0.062473 0.729096 0.180236
Si Si3 0.938337 0.434884 0.176255
Si Si4 0.144681 0.355211 0.678234
Si Si5 0.354126 0.437172 0.180965
Si Si6 0.652006 0.735755 0.680603
O O1 0.893882 0.106119 0.750000
O O2 0.860937 0.062051 0.500000
O O3 0.792844 0.068488 0.715508
O O4 0.872358 0.000000 0.731581
O O5 0.107272 0.694569 0.265576
O O6 0.000000 0.713397 0.217214
O O7 0.068728 0.722195 0.000000
O O8 0.934750 0.500000 0.184877
O O9 0.890972 0.406880 0.269391
O O10 0.000000 0.419530 0.223744
O O11 0.932851 0.419397 0.000000
O O12 0.151238 0.354328 0.500000
O O13 0.203657 0.353247 0.755506
O O14 0.405533 0.405533 0.250000
O O15 0.350290 0.500000 0.229594
O O16 0.300921 0.401104 0.219528
O O17 0.358923 0.436371 0.000000
O O18 0.703283 0.703283 0.750000
O O19 0.656986 0.737363 0.500000
#
# Coordination Sequence:
#
# PCOD9566752 Si02
#       6
#    16  16  16  16  16  16
#     4   9  19  35  54  77 104 135 172 214 261 314
#     4   9  19  37  57  75 101 139 181 225 272 320
#     4   9  19  37  59  81 108 145 186 226 271 322
#     4  12  24  35  53  83 113 142 179 222 271 329
#     4   9  19  36  58  84 112 143 179 218 260 306
#     4  10  21  39  59  78 106 144 185 228 271 317
#
# _framework density 17.862774999999999
#
# number of rings (size 3 to 8) (size 9 to 14) (size 15 to 20)
#    0.000    2.333    0.000    4.000    0.000    6.667 
#    0.000    7.500    0.000    0.000    0.000    0.000 
#    0.000    0.000    0.000    0.000    0.000    0.000 
#
# Total GULP energy -535806.434533 kJ/mol
# GULP energy per Si atom -5581.317026 kJ/mol
# Density = 1.782212 g / cm^3
# Si number density = 17.862775 Si / 1000 Ang^3
#
#
#
# Elastic Constant Matrix: (Units=GPa)
#
#
# Indices 1 2 3 4 5 6 
#
# 1 143.3137 81.3520 55.0822 0.0000 0.0000 0.0000
# 2 81.3520 143.3086 55.0838 0.0000 0.0000 0.0000
# 3 55.0822 55.0838 61.5704 0.0000 0.0000 0.0000
# 4 0.0000 0.0000 0.0000 32.2486 0.0000 0.0000
# 5 0.0000 0.0000 0.0000 0.0000 32.2488 0.0000
# 6 0.0000 0.0000 0.0000 0.0000 0.0000 24.4550
#
#
#
# Elastic Compliance Matrix: (Units=1/GPa)
#
#
# Indices 1 2 3 4 5 6 
#
# 1 0.012034 -0.004105 -0.007094 0.000000 0.000000 0.000000
# 2 -0.004105 0.012035 -0.007095 0.000000 0.000000 0.000000
# 3 -0.007094 -0.007095 0.028935 0.000000 0.000000 0.000000
# 4 0.000000 0.000000 0.000000 0.031009 0.000000 0.000000
# 5 0.000000 0.000000 0.000000 0.000000 0.031009 0.000000
# 6 0.000000 0.000000 0.000000 0.000000 0.000000 0.040891
#
#
# Mechanical properties :
#
#
# Convention : Reuss Voigt Hill
#
# Bulk Modulus (GPa) = 60.91009 81.24764 71.07887
# Shear Modulus (GPa) = 25.25583 28.23546 26.74565
#
# Velocity S-wave (km/s) = 3.76424 3.98010 3.87367
# Velocity P-wave (km/s) = 7.28461 8.16729 7.73855
#
# Compressibility (1/GPa) = 0.01641764
#
# Stress axis : x y z
#
# Youngs Moduli (GPa) = 83.09598 83.08884 34.55986
#
# Poissons Ratio (x) = 0.34107 0.24516
# Poissons Ratio (y) = 0.34110 0.24520
# Poissons Ratio (z) = 0.58946 0.58952
#
# Static dielectric constant tensor:
#      x y z
#    x 1.601490 0.000000 0.000000 
#    y 0.000000 1.601480 0.000000 
#    z 0.000000 0.000000 1.597670 
# 
# From -- ./inp_files/2295.got.cif
#   From: 2010.05.17/outbox.cif.g08.bks.cpg/sg131_2_cif.got.tgz:2295.got - 2010.05.20 12:21:01.
