data_PCOD9566258
_publ_section_title
;
Structure prediction by ZEFSAII (Michael W. Deem and Ramdas Pophale) SiO2 
 PCOD9566258
Probable space group: P 42/M M C
;
_chemical_formula_sum "Si O2"
_cell_formula_units_Z 64
_cell_length_a 12.569040
_cell_length_b 12.569040
_cell_length_c 24.598167
_cell_angle_alpha 90.000000
_cell_angle_beta 90.000000
_cell_angle_gamma 90.000000
_cell_volume 3886.037278
_symmetry_space_group_name_H-M "P 42/M M C"
_symmetry_group_IT_number 131
_symmetry_cell_setting 'tetragonal'
loop_
_space_group_symop_operation_xyz
x,y,z
-x,-y,z
-y,x,1/2+z
y,-x,1/2+z
-x,y,-z
x,-y,-z
y,x,1/2-z
-y,-x,1/2-z
-x,-y,-z
x,y,-z
y,-x,1/2-z
-y,x,1/2-z
x,-y,z
-x,y,z
-y,-x,1/2+z
y,x,1/2+z
loop_
_atom_site_type_symbol
_atom_site_label
_atom_site_fract_x
_atom_site_fract_y
_atom_site_fract_z
Si Si1 0.873664 0.873664 0.250000
Si Si2 0.655625 0.500000 0.219961
Si Si3 0.733473 0.628036 0.562476
Si Si4 0.376996 0.500000 0.908710
Si Si5 0.500000 0.118465 0.767052
Si Si6 0.876504 0.290017 0.658258
O O1 0.806187 0.840586 0.197269
O O2 0.000000 0.855941 0.242029
O O3 0.600719 0.600719 0.250000
O O4 0.627176 0.500000 0.156707
O O5 0.781472 0.500000 0.227395
O O6 0.766332 0.642320 0.500000
O O7 0.737402 0.500000 0.574276
O O8 0.611725 0.666113 0.570009
O O9 0.806240 0.688318 0.605603
O O10 0.500000 0.500000 0.926579
O O11 0.603742 0.127518 0.804960
O O12 0.500000 0.000000 0.742096
O O13 0.000000 0.272068 0.643294
#
# Coordination Sequence:
#
# PCOD9566258 Si02
#       6
#     8   8  16   8   8  16
#     4   9  20  38  58  78 101 134 172 212 259 306
#     4  11  20  29  49  76 100 132 171 211 256 305
#     4  10  20  33  50  71 101 139 175 211 250 296
#     4  10  19  32  46  71  99 136 177 210 247 292
#     4  10  21  33  46  72 109 136 158 202 259 311
#     4  10  20  34  53  76 104 133 165 208 256 311
#
# _framework density 16.469218999999999
#
# number of rings (size 3 to 8) (size 9 to 14) (size 15 to 20)
#    0.000    2.000    2.500    1.875    5.250    2.000 
#    0.000    1.250    0.000    0.750    0.000    3.500 
#    0.000    3.000    0.000    0.000    0.000    0.000 
#
# Total GULP energy -356984.740070 kJ/mol
# GULP energy per Si atom -5577.886564 kJ/mol
# Density = 1.643173 g / cm^3
# Si number density = 16.469219 Si / 1000 Ang^3
#
#
#
# Elastic Constant Matrix: (Units=GPa)
#
#
# Indices 1 2 3 4 5 6 
#
# 1 75.1764 33.1058 47.6426 0.0000 0.0000 0.0000
# 2 33.1058 75.1764 47.6426 0.0000 0.0000 0.0000
# 3 47.6426 47.6426 100.1911 0.0000 0.0000 0.0000
# 4 0.0000 0.0000 0.0000 -10.1859 0.0000 0.0000
# 5 0.0000 0.0000 0.0000 0.0000 -10.1859 0.0000
# 6 0.0000 0.0000 0.0000 0.0000 0.0000 14.3824
#
#
#
# Elastic Compliance Matrix: (Units=1/GPa)
#
#
# Indices 1 2 3 4 5 6 
#
# 1 0.019825 -0.003945 -0.007551 0.000000 0.000000 0.000000
# 2 -0.003945 0.019825 -0.007551 0.000000 0.000000 0.000000
# 3 -0.007551 -0.007551 0.017162 0.000000 0.000000 0.000000
# 4 0.000000 0.000000 0.000000 -0.098175 0.000000 0.000000
# 5 0.000000 0.000000 0.000000 0.000000 -0.098175 0.000000
# 6 0.000000 0.000000 0.000000 0.000000 0.000000 0.069529
#
#
# Mechanical properties :
#
#
# Convention : Reuss Voigt Hill
#
# Bulk Modulus (GPa) = 53.42590 56.36953 54.89771
# Shear Modulus (GPa) = -194.74311 6.94565 -93.89873
#
# Velocity S-wave (km/s) = -10.88593 2.05585 -7.55900
# Velocity P-wave (km/s) = 11.20242 6.31956 6.54054
#
# Compressibility (1/GPa) = 0.01871751
#
# Stress axis : x y z
#
# Youngs Moduli (GPa) = 50.44196 50.44196 58.26703
#
# Poissons Ratio (x) = 0.19898 0.43998
# Poissons Ratio (y) = 0.19898 0.43998
# Poissons Ratio (z) = 0.38090 0.38090
#
# Static dielectric constant tensor:
#      x y z
#    x 1.569520 0.000000 0.000000 
#    y 0.000000 1.569520 0.000000 
#    z 0.000000 0.000000 1.526690 
# 
# From -- ./inp_files/10855.got.cif
#   From: 2010.05.17/outbox.cif.g08.bks.cpg/sg131_6_cif.got.tgz:10855.got - 2010.05.20 12:21:01.
