data_PCOD9566977
_publ_section_title
;
Structure prediction by ZEFSAII (Michael W. Deem and Ramdas Pophale) SiO2 
 PCOD9566977
Probable space group: P 42/M C M
;
_chemical_formula_sum "Si O2"
_cell_formula_units_Z 96
_cell_length_a 25.129592
_cell_length_b 25.129592
_cell_length_c 9.255786
_cell_angle_alpha 90.000000
_cell_angle_beta 90.000000
_cell_angle_gamma 90.000000
_cell_volume 5844.995483
_symmetry_space_group_name_H-M "P 42/M C M"
_symmetry_group_IT_number 132
_symmetry_cell_setting 'tetragonal'
loop_
_space_group_symop_operation_xyz
x,y,z
-y,x,1/2+z
-x,-y,z
y,-x,1/2+z
x,-y,1/2-z
-x,y,1/2-z
y,x,-z
-y,-x,-z
-x,-y,-z
y,-x,1/2-z
x,y,-z
-y,x,1/2-z
-x,y,1/2+z
x,-y,1/2+z
-y,-x,z
y,x,z
loop_
_atom_site_type_symbol
_atom_site_label
_atom_site_fract_x
_atom_site_fract_y
_atom_site_fract_z
Si Si1 0.336996 0.136844 0.168568
Si Si2 0.448676 0.260770 0.336837
Si Si3 0.348003 0.264027 0.163254
Si Si4 0.775980 0.863106 0.326047
Si Si5 0.554584 0.868931 0.668816
Si Si6 0.943926 0.143525 0.670236
O O1 0.342401 0.200820 0.167395
O O2 0.282234 0.128851 0.256283
O O3 0.390760 0.115890 0.247524
O O4 0.333842 0.119309 0.000000
O O5 0.500000 0.277925 0.250000
O O6 0.454013 0.277054 0.500000
O O7 0.394205 0.280771 0.269717
O O8 0.446681 0.195878 0.330943
O O9 0.293097 0.293097 0.196834
O O10 0.363859 0.278030 0.000000
O O11 0.773588 0.868857 0.500000
O O12 0.806249 0.806249 0.296691
O O13 0.813738 0.907063 0.252467
O O14 0.500000 0.886030 0.750000
O O15 0.555205 0.885445 0.500000
O O16 0.949446 0.157107 0.500000
O O17 0.912009 0.087992 0.678826
O O18 0.000000 0.140487 0.750000
#
# Coordination Sequence:
#
# PCOD9566977 Si02
#       6
#    16  16  16  16  16  16
#     4  10  18  28  43  63  89 123 160 195 234 281
#     4   9  16  25  37  51  69  96 130 168 210 257
#     4   9  17  27  38  54  78 107 138 173 212 256
#     4  10  20  33  49  70  98 131 166 204 245 291
#     4   9  16  26  39  57  82 114 153 195 237 279
#     4  10  21  37  57  80 106 136 169 206 248 293
#
# _framework density 16.424308
#
# number of rings (size 3 to 8) (size 9 to 14) (size 15 to 20)
#    0.000    2.500    0.000    3.000    0.000    7.833 
#    0.000    0.833    0.000    0.000    0.000    0.000 
#    0.000    1.000    0.000   10.167    0.000    6.167 
#
# Total GULP energy -534613.789622 kJ/mol
# GULP energy per Si atom -5568.893642 kJ/mol
# Density = 1.638693 g / cm^3
# Si number density = 16.424308 Si / 1000 Ang^3
#
#
#
# Elastic Constant Matrix: (Units=GPa)
#
#
# Indices 1 2 3 4 5 6 
#
# 1 71.4827 21.9806 55.5578 0.0000 0.0000 0.0000
# 2 21.9806 71.4827 55.5578 0.0000 0.0000 0.0000
# 3 55.5578 55.5578 138.3415 0.0000 0.0000 0.0000
# 4 0.0000 0.0000 0.0000 29.9413 0.0000 0.0000
# 5 0.0000 0.0000 0.0000 0.0000 29.9413 0.0000
# 6 0.0000 0.0000 0.0000 0.0000 0.0000 0.8196
#
#
#
# Elastic Compliance Matrix: (Units=1/GPa)
#
#
# Indices 1 2 3 4 5 6 
#
# 1 0.020338 0.000137 -0.008223 0.000000 0.000000 0.000000
# 2 0.000137 0.020338 -0.008223 0.000000 0.000000 0.000000
# 3 -0.008223 -0.008223 0.013833 0.000000 0.000000 0.000000
# 4 0.000000 0.000000 0.000000 0.033399 0.000000 0.000000
# 5 0.000000 0.000000 0.000000 0.000000 0.033399 0.000000
# 6 0.000000 0.000000 0.000000 0.000000 0.000000 1.220082
#
#
# Mechanical properties :
#
#
# Convention : Reuss Voigt Hill
#
# Bulk Modulus (GPa) = 45.67835 60.83326 53.25580
# Shear Modulus (GPa) = 3.61977 22.02115 12.82046
#
# Velocity S-wave (km/s) = 1.48617 3.66562 2.79691
# Velocity P-wave (km/s) = 5.55128 7.41853 6.55177
#
# Compressibility (1/GPa) = 0.02189221
#
# Stress axis : x y z
#
# Youngs Moduli (GPa) = 49.16850 49.16850 72.29062
#
# Poissons Ratio (x) = -0.00674 0.59443
# Poissons Ratio (y) = -0.00674 0.59443
# Poissons Ratio (z) = 0.40430 0.40430
#
# Static dielectric constant tensor:
#      x y z
#    x 1.541040 0.000000 0.000000 
#    y 0.000000 1.541040 0.000000 
#    z 0.000000 0.000000 1.556110 
# 
# From -- ./inp_files/1697.got.cif
#   From: 2010.05.17/outbox.cif.g08.bks.cpg/sg132_1_cif.got.tgz:1697.got - 2010.05.20 12:30:18.
