data_PCOD9566965
_publ_section_title
;
Structure prediction by ZEFSAII (Michael W. Deem and Ramdas Pophale) SiO2 
 PCOD9566965
Probable space group: P 42/M C M
;
_chemical_formula_sum "Si O2"
_cell_formula_units_Z 96
_cell_length_a 29.515399
_cell_length_b 29.515399
_cell_length_c 9.261324
_cell_angle_alpha 90.000000
_cell_angle_beta 90.000000
_cell_angle_gamma 90.000000
_cell_volume 8068.083700
_symmetry_space_group_name_H-M "P 42/M C M"
_symmetry_group_IT_number 132
_symmetry_cell_setting 'tetragonal'
loop_
_space_group_symop_operation_xyz
x,y,z
-y,x,1/2+z
-x,-y,z
y,-x,1/2+z
x,-y,1/2-z
-x,y,1/2-z
y,x,-z
-y,-x,-z
-x,-y,-z
y,-x,1/2-z
x,y,-z
-y,x,1/2-z
-x,y,1/2+z
x,-y,1/2+z
-y,-x,z
y,x,z
loop_
_atom_site_type_symbol
_atom_site_label
_atom_site_fract_x
_atom_site_fract_y
_atom_site_fract_z
Si Si1 0.543736 0.797245 0.165200
Si Si2 0.186540 0.684344 0.833774
Si Si3 0.265613 0.607168 0.166338
Si Si4 0.453381 0.950941 0.676151
Si Si5 0.250766 0.749235 0.666640
Si Si6 0.875773 0.380527 0.665284
Si Si7 0.671154 0.671154 0.833555
O O1 0.500000 0.813709 0.250000
O O2 0.564823 0.754696 0.248561
O O3 0.581963 0.835862 0.165000
O O4 0.532584 0.786508 0.000000
O O5 0.225980 0.645680 0.832382
O O6 0.208080 0.726398 0.746838
O O7 0.142876 0.660534 0.761862
O O8 0.178207 0.696351 0.000000
O O9 0.307557 0.629094 0.249408
O O10 0.275543 0.596987 0.000000
O O11 0.500000 0.932913 0.750000
O O12 0.458481 0.953364 0.500000
O O13 0.409819 0.919664 0.708550
O O14 0.447119 0.000000 0.750000
O O15 0.240528 0.759473 0.500000
O O16 0.289795 0.710206 0.667108
O O17 0.881724 0.364855 0.500000
O O18 0.661086 0.661086 0.000000
#
# Coordination Sequence:
#
# PCOD9566965 Si02
#       7
#    16  16  16  16   8  16   8
#     4  10  18  27  37  49  65  84 105 129 156 187
#     4   9  16  24  36  52  68  85 107 132 156 185
#     4   9  16  25  35  48  64  82 103 126 150 176
#     4  10  19  30  42  54  67  84 108 140 178 220
#     4   9  15  23  35  49  69  91 107 125 152 184
#     4   9  18  29  39  51  67  86 108 134 167 204
#     4   9  15  23  35  49  63  81 103 126 148 171
#
# _framework density 11.898736
#
# number of rings (size 3 to 8) (size 9 to 14) (size 15 to 20)
#    0.000    2.667    0.000    3.500    0.000    8.000 
#    0.000    0.000    0.000    0.000    0.000    0.000 
#    0.000    0.000    0.000    0.000    0.000    0.417 
#
# Total GULP energy -534436.613930 kJ/mol
# GULP energy per Si atom -5567.048062 kJ/mol
# Density = 1.187165 g / cm^3
# Si number density = 11.898736 Si / 1000 Ang^3
#
#
#
# Elastic Constant Matrix: (Units=GPa)
#
#
# Indices 1 2 3 4 5 6 
#
# 1 31.7251 27.8228 32.4613 0.0000 0.0000 0.0000
# 2 27.8228 31.7251 32.4613 0.0000 0.0000 0.0000
# 3 32.4613 32.4613 101.7414 0.0000 0.0000 0.0000
# 4 0.0000 0.0000 0.0000 13.1366 0.0000 0.0000
# 5 0.0000 0.0000 0.0000 0.0000 13.1366 0.0000
# 6 0.0000 0.0000 0.0000 0.0000 0.0000 22.1069
#
#
#
# Elastic Compliance Matrix: (Units=1/GPa)
#
#
# Indices 1 2 3 4 5 6 
#
# 1 0.141005 -0.115254 -0.008216 0.000000 0.000000 0.000000
# 2 -0.115254 0.141005 -0.008216 0.000000 0.000000 0.000000
# 3 -0.008216 -0.008216 0.015072 0.000000 0.000000 0.000000
# 4 0.000000 0.000000 0.000000 0.076123 0.000000 0.000000
# 5 0.000000 0.000000 0.000000 0.000000 0.076123 0.000000
# 6 0.000000 0.000000 0.000000 0.000000 0.000000 0.045235
#
#
# Mechanical properties :
#
#
# Convention : Reuss Voigt Hill
#
# Bulk Modulus (GPa) = 29.66552 38.96474 34.31513
# Shear Modulus (GPa) = 6.50051 14.50575 10.50313
#
# Velocity S-wave (km/s) = 2.33988 3.49535 2.97427
# Velocity P-wave (km/s) = 5.68206 7.00771 6.37941
#
# Compressibility (1/GPa) = 0.03370917
#
# Stress axis : x y z
#
# Youngs Moduli (GPa) = 7.09197 7.09196 66.35010
#
# Poissons Ratio (x) = 0.81738 0.54513
# Poissons Ratio (y) = 0.81738 0.54513
# Poissons Ratio (z) = 0.05827 0.05827
#
# Static dielectric constant tensor:
#      x y z
#    x 1.378330 0.000000 0.000000 
#    y 0.000000 1.378330 0.000000 
#    z 0.000000 0.000000 1.404030 
# 
# From -- ./inp_files/2132.got.cif
#   From: 2010.05.17/outbox.cif.g08.bks.cpg/sg132_2_cif.got.tgz:2132.got - 2010.05.20 12:30:18.
