data_PCOD9566857
_publ_section_title
;
Structure prediction by ZEFSAII (Michael W. Deem and Ramdas Pophale) SiO2 
 PCOD9566857
Probable space group: P 42/M M C
;
_chemical_formula_sum "Si O2"
_cell_formula_units_Z 88
_cell_length_a 14.442606
_cell_length_b 14.442606
_cell_length_c 21.493423
_cell_angle_alpha 90.000000
_cell_angle_beta 90.000000
_cell_angle_gamma 90.000000
_cell_volume 4483.288775
_symmetry_space_group_name_H-M "P 42/M M C"
_symmetry_group_IT_number 131
_symmetry_cell_setting 'tetragonal'
loop_
_space_group_symop_operation_xyz
x,y,z
-x,-y,z
-y,x,1/2+z
y,-x,1/2+z
-x,y,-z
x,-y,-z
y,x,1/2-z
-y,-x,1/2-z
-x,-y,-z
x,y,-z
y,-x,1/2-z
-y,x,1/2-z
x,-y,z
-x,y,z
-y,-x,1/2+z
y,x,1/2+z
loop_
_atom_site_type_symbol
_atom_site_label
_atom_site_fract_x
_atom_site_fract_y
_atom_site_fract_z
Si Si1 0.500000 0.612942 0.429041
Si Si2 0.889966 0.204057 0.692950
Si Si3 0.111907 0.601906 0.748627
Si Si4 0.789702 0.207447 0.430646
Si Si5 0.603981 0.300608 0.925073
Si Si6 0.888784 0.603750 0.896393
O O1 0.500000 0.500000 0.432108
O O2 0.500000 0.648950 0.500000
O O3 0.598911 0.636007 0.399136
O O4 0.860319 0.139682 0.750000
O O5 0.855567 0.307457 0.712311
O O6 0.846935 0.171325 0.627874
O O7 0.000000 0.207190 0.687277
O O8 0.146122 0.500000 0.728628
O O9 0.130390 0.611896 0.822351
O O10 0.000000 0.600443 0.742881
O O11 0.829293 0.194688 0.500000
O O12 0.774417 0.316698 0.417913
O O13 0.688183 0.161588 0.429127
O O14 0.500000 0.278348 0.903384
O O15 0.597550 0.314025 0.000000
O O16 0.860550 0.500000 0.916391
O O17 0.000000 0.610689 0.904826
#
# Coordination Sequence:
#
# PCOD9566857 Si02
#       6
#     8  16  16  16  16  16
#     4   7  10  20  40  64  97 147 195 227 255 296
#     4  11  23  41  63  84 111 149 196 242 288 346
#     4   8  15  32  60  87 108 138 184 236 286 337
#     4  11  23  35  55  88 120 153 192 235 286 344
#     4   8  15  28  45  71 112 155 192 227 263 315
#     4   9  18  34  56  84 118 149 181 230 292 353
#
# _framework density 19.628447000000001
#
# number of rings (size 3 to 8) (size 9 to 14) (size 15 to 20)
#    0.000    2.818    1.818    2.182    1.273    2.000 
#    0.000    0.909    0.000    0.000    0.000    7.636 
#    0.000    0.000    0.000    0.000    0.000    0.000 
#
# Total GULP energy -490324.479923 kJ/mol
# GULP energy per Si atom -5571.869090 kJ/mol
# Density = 1.958377 g / cm^3
# Si number density = 19.628447 Si / 1000 Ang^3
#
#
#
# Elastic Constant Matrix: (Units=GPa)
#
#
# Indices 1 2 3 4 5 6 
#
# 1 44.8350 12.3061 31.3386 0.0000 0.0000 0.0000
# 2 12.3061 44.8380 31.3401 0.0000 0.0000 0.0000
# 3 31.3386 31.3401 102.7832 0.0000 0.0000 0.0000
# 4 0.0000 0.0000 0.0000 9.3065 0.0000 0.0000
# 5 0.0000 0.0000 0.0000 0.0000 9.3056 0.0000
# 6 0.0000 0.0000 0.0000 0.0000 0.0000 18.1064
#
#
#
# Elastic Compliance Matrix: (Units=1/GPa)
#
#
# Indices 1 2 3 4 5 6 
#
# 1 0.028518 -0.002223 -0.008017 0.000000 0.000000 0.000000
# 2 -0.002223 0.028516 -0.008017 0.000000 0.000000 0.000000
# 3 -0.008017 -0.008017 0.014618 0.000000 0.000000 0.000000
# 4 0.000000 0.000000 0.000000 0.107451 0.000000 0.000000
# 5 0.000000 0.000000 0.000000 0.000000 0.107462 0.000000
# 6 0.000000 0.000000 0.000000 0.000000 0.000000 0.055229
#
#
# Mechanical properties :
#
#
# Convention : Reuss Voigt Hill
#
# Bulk Modulus (GPa) = 28.45974 38.04732 33.25353
# Shear Modulus (GPa) = 12.81974 15.17511 13.99743
#
# Velocity S-wave (km/s) = 2.55839 2.78352 2.67333
# Velocity P-wave (km/s) = 4.82264 5.45495 5.14851
#
# Compressibility (1/GPa) = 0.03513736
#
# Stress axis : x y z
#
# Youngs Moduli (GPa) = 35.06540 35.06744 68.40756
#
# Poissons Ratio (x) = 0.07796 0.54844
# Poissons Ratio (y) = 0.07796 0.54844
# Poissons Ratio (z) = 0.28113 0.28114
#
# Static dielectric constant tensor:
#      x y z
#    x 1.714830 0.000000 0.000000 
#    y 0.000000 1.714830 0.000000 
#    z 0.000000 0.000000 1.682310 
# 
# From -- ./inp_files/9584.got.cif
#   From: 2010.05.17/outbox.cif.g08.bks.cpg/sg131_5_cif.got.tgz:9584.got - 2010.05.20 12:21:01.
