data_PCOD9566181
_publ_section_title
;
Structure prediction by ZEFSAII (Michael W. Deem and Ramdas Pophale) SiO2 
 PCOD9566181
Probable space group: P 42/M M C
;
_chemical_formula_sum "Si O2"
_cell_formula_units_Z 96
_cell_length_a 19.105584
_cell_length_b 19.105584
_cell_length_c 20.258345
_cell_angle_alpha 90.000000
_cell_angle_beta 90.000000
_cell_angle_gamma 90.000000
_cell_volume 7394.768754
_symmetry_space_group_name_H-M "P 42/M M C"
_symmetry_group_IT_number 131
_symmetry_cell_setting 'tetragonal'
loop_
_space_group_symop_operation_xyz
x,y,z
-x,-y,z
-y,x,1/2+z
y,-x,1/2+z
-x,y,-z
x,-y,-z
y,x,1/2-z
-y,-x,1/2-z
-x,-y,-z
x,y,-z
y,-x,1/2-z
-y,x,1/2-z
x,-y,z
-x,y,z
-y,-x,1/2+z
y,x,1/2+z
loop_
_atom_site_type_symbol
_atom_site_label
_atom_site_fract_x
_atom_site_fract_y
_atom_site_fract_z
Si Si1 0.582507 0.423407 0.500000
Si Si2 0.415187 0.919937 0.174739
Si Si3 0.584126 0.205253 0.420825
Si Si4 0.079546 0.415291 0.175343
Si Si5 0.652966 0.649938 0.878671
Si Si6 0.583931 0.793336 0.920926
Si Si7 0.416060 0.583941 0.750000
O O1 0.500000 0.428944 0.500000
O O2 0.615741 0.500000 0.500000
O O3 0.606344 0.383160 0.436519
O O4 0.500000 0.921398 0.175163
O O5 0.393211 0.900308 0.249791
O O6 0.396261 0.863431 0.119317
O O7 0.392002 0.000000 0.161615
O O8 0.595688 0.201905 0.500000
O O9 0.500000 0.219156 0.411566
O O10 0.602302 0.134082 0.381948
O O11 0.630601 0.265981 0.387820
O O12 0.077780 0.500000 0.176888
O O13 0.000000 0.391292 0.162620
O O14 0.629236 0.729353 0.892130
O O15 0.620005 0.620027 0.812289
O O16 0.500000 0.780554 0.910568
O O17 0.594514 0.799222 0.000000
O O18 0.500000 0.595363 0.750059
#
# Coordination Sequence:
#
# PCOD9566181 Si02
#       7
#     8  16  16  16  16  16   8
#     4  11  20  32  48  56  70 106 146 182 218 253
#     4   8  15  28  45  63  81 101 126 160 206 256
#     4  10  19  30  44  61  81 106 136 172 212 253
#     4   8  15  28  45  63  81 101 126 160 206 256
#     4  12  22  33  44  60  82 106 140 181 222 262
#     4  10  19  30  44  61  81 106 136 172 212 253
#     4  11  24  36  44  56  74 102 146 194 230 257
#
# _framework density 12.982151
#
# number of rings (size 3 to 8) (size 9 to 14) (size 15 to 20)
#    0.000    2.167    1.667    4.000    2.333    2.000 
#    0.000    3.333    0.000    0.000    0.000    0.000 
#    0.000    0.000    0.000    0.000    0.000    0.833 
#
# Total GULP energy -534669.435859 kJ/mol
# GULP energy per Si atom -5569.473290 kJ/mol
# Density = 1.295260 g / cm^3
# Si number density = 12.982151 Si / 1000 Ang^3
#
#
#
# Elastic Constant Matrix: (Units=GPa)
#
#
# Indices 1 2 3 4 5 6 
#
# 1 72.2421 27.2078 48.2111 0.0000 0.0000 0.0000
# 2 27.2078 72.2418 48.2112 0.0000 0.0000 0.0000
# 3 48.2111 48.2112 111.8946 0.0000 0.0000 0.0000
# 4 0.0000 0.0000 0.0000 21.1658 0.0000 0.0000
# 5 0.0000 0.0000 0.0000 0.0000 21.1659 0.0000
# 6 0.0000 0.0000 0.0000 0.0000 0.0000 9.1218
#
#
#
# Elastic Compliance Matrix: (Units=1/GPa)
#
#
# Indices 1 2 3 4 5 6 
#
# 1 0.019737 -0.002468 -0.007441 0.000000 0.000000 0.000000
# 2 -0.002468 0.019738 -0.007441 0.000000 0.000000 0.000000
# 3 -0.007441 -0.007441 0.015349 0.000000 0.000000 0.000000
# 4 0.000000 0.000000 0.000000 0.047246 0.000000 0.000000
# 5 0.000000 0.000000 0.000000 0.000000 0.047246 0.000000
# 6 0.000000 0.000000 0.000000 0.000000 0.000000 0.109628
#
#
# Mechanical properties :
#
#
# Convention : Reuss Voigt Hill
#
# Bulk Modulus (GPa) = 49.68973 55.95984 52.82479
# Shear Modulus (GPa) = 16.64719 19.14060 17.89389
#
# Velocity S-wave (km/s) = 3.58483 3.84393 3.71664
# Velocity P-wave (km/s) = 7.44937 7.93094 7.69393
#
# Compressibility (1/GPa) = 0.02012488
#
# Stress axis : x y z
#
# Youngs Moduli (GPa) = 50.66522 50.66480 65.15119
#
# Poissons Ratio (x) = 0.12503 0.48478
# Poissons Ratio (y) = 0.12503 0.48478
# Poissons Ratio (z) = 0.37699 0.37699
#
# Static dielectric constant tensor:
#      x y z
#    x 1.427050 0.000000 0.000000 
#    y 0.000000 1.427060 0.000000 
#    z 0.000000 0.000000 1.434690 
# 
# From -- ./inp_files/9978.got.cif
#   From: 2010.05.17/outbox.cif.g08.bks.cpg/sg131_5_cif.got.tgz:9978.got - 2010.05.20 12:21:01.
