data_PCOD9566550
_publ_section_title
;
Structure prediction by ZEFSAII (Michael W. Deem and Ramdas Pophale) SiO2 
 PCOD9566550
Probable space group: P 42/M M C
;
_chemical_formula_sum "Si O2"
_cell_formula_units_Z 72
_cell_length_a 15.678597
_cell_length_b 15.678597
_cell_length_c 14.717343
_cell_angle_alpha 90.000000
_cell_angle_beta 90.000000
_cell_angle_gamma 90.000000
_cell_volume 3617.793766
_symmetry_space_group_name_H-M "P 42/M M C"
_symmetry_group_IT_number 131
_symmetry_cell_setting 'tetragonal'
loop_
_space_group_symop_operation_xyz
x,y,z
-x,-y,z
-y,x,1/2+z
y,-x,1/2+z
-x,y,-z
x,-y,-z
y,x,1/2-z
-y,-x,1/2-z
-x,-y,-z
x,y,-z
y,-x,1/2-z
-y,x,1/2-z
x,-y,z
-x,y,z
-y,-x,1/2+z
y,x,1/2+z
loop_
_atom_site_type_symbol
_atom_site_label
_atom_site_fract_x
_atom_site_fract_y
_atom_site_fract_z
Si Si1 0.500000 0.598319 0.110762
Si Si2 0.599535 0.901396 0.761287
Si Si3 0.813298 0.258802 0.845697
Si Si4 0.097678 0.092016 0.860752
Si Si5 0.370853 0.741999 0.896814
O O1 0.500000 0.500000 0.142373
O O2 0.578795 0.658908 0.138323
O O3 0.500000 0.593930 0.000000
O O4 0.500000 0.897021 0.734731
O O5 0.664893 0.876346 0.680773
O O6 0.613730 0.827564 0.837462
O O7 0.616871 0.000000 0.790425
O O8 0.777241 0.222760 0.750000
O O9 0.856431 0.177108 0.891434
O O10 0.727994 0.283592 0.896525
O O11 0.095250 0.095250 0.750000
O O12 0.000000 0.092829 0.890703
O O13 0.136532 0.000000 0.885576
O O14 0.398261 0.759744 0.000000
#
# Coordination Sequence:
#
# PCOD9566550 Si02
#       5
#     8  16  16  16  16
#     4   9  18  34  55  75  99 135 177 224 286 346
#     4  10  20  34  54  78 110 149 187 230 280 335
#     4   9  18  30  48  73 104 137 180 223 272 327
#     4   8  13  23  42  67  92 121 162 211 259 307
#     4  10  20  35  54  79 110 143 184 236 286 345
#
# _framework density 19.901630999999998
#
# number of rings (size 3 to 8) (size 9 to 14) (size 15 to 20)
#    0.000    2.778    1.111    1.333    0.000    6.667 
#    0.000    1.111    0.000    2.667    0.000    3.111 
#    0.000    0.000    0.000    0.000    0.000    0.000 
#
# Total GULP energy -400914.239756 kJ/mol
# GULP energy per Si atom -5568.253330 kJ/mol
# Density = 1.985633 g / cm^3
# Si number density = 19.901631 Si / 1000 Ang^3
#
#
#
# Elastic Constant Matrix: (Units=GPa)
#
#
# Indices 1 2 3 4 5 6 
#
# 1 159.6984 84.4189 25.4824 0.0000 0.0000 0.0000
# 2 84.4189 159.6977 25.4825 0.0000 0.0000 0.0000
# 3 25.4824 25.4825 47.1593 0.0000 0.0000 0.0000
# 4 0.0000 0.0000 0.0000 9.5270 0.0000 0.0000
# 5 0.0000 0.0000 0.0000 0.0000 9.5271 0.0000
# 6 0.0000 0.0000 0.0000 0.0000 0.0000 31.7230
#
#
#
# Elastic Compliance Matrix: (Units=1/GPa)
#
#
# Indices 1 2 3 4 5 6 
#
# 1 0.008951 -0.004333 -0.002495 0.000000 0.000000 0.000000
# 2 -0.004333 0.008951 -0.002495 0.000000 0.000000 0.000000
# 3 -0.002495 -0.002495 0.023901 0.000000 0.000000 0.000000
# 4 0.000000 0.000000 0.000000 0.104964 0.000000 0.000000
# 5 0.000000 0.000000 0.000000 0.000000 0.104964 0.000000
# 6 0.000000 0.000000 0.000000 0.000000 0.000000 0.031523
#
#
# Mechanical properties :
#
#
# Convention : Reuss Voigt Hill
#
# Bulk Modulus (GPa) = 43.18572 70.81366 56.99969
# Shear Modulus (GPa) = 16.14890 25.56686 20.85788
#
# Velocity S-wave (km/s) = 2.85166 3.58811 3.24087
# Velocity P-wave (km/s) = 5.70871 7.26809 6.53508
#
# Compressibility (1/GPa) = 0.02315580
#
# Stress axis : x y z
#
# Youngs Moduli (GPa) = 111.72499 111.72429 41.83924
#
# Poissons Ratio (x) = 0.48414 0.10438
# Poissons Ratio (y) = 0.48414 0.10439
# Poissons Ratio (z) = 0.27874 0.27875
#
# Static dielectric constant tensor:
#      x y z
#    x 1.731270 0.000000 0.000000 
#    y 0.000000 1.731270 0.000000 
#    z 0.000000 0.000000 1.738690 
# 
# From -- ./inp_files/7525.got.cif
#   From: 2010.05.17/outbox.cif.g08.bks.cpg/sg131_4_cif.got.tgz:7525.got - 2010.05.20 12:21:01.
