data_PCOD9566627
_publ_section_title
;
Structure prediction by ZEFSAII (Michael W. Deem and Ramdas Pophale) SiO2 
 PCOD9566627
Probable space group: P 42/M M C
;
_chemical_formula_sum "Si O2"
_cell_formula_units_Z 58
_cell_length_a 14.794225
_cell_length_b 14.794225
_cell_length_c 14.224109
_cell_angle_alpha 90.000000
_cell_angle_beta 90.000000
_cell_angle_gamma 90.000000
_cell_volume 3113.217841
_symmetry_space_group_name_H-M "P 42/M M C"
_symmetry_group_IT_number 131
_symmetry_cell_setting 'tetragonal'
loop_
_space_group_symop_operation_xyz
x,y,z
-x,-y,z
-y,x,1/2+z
y,-x,1/2+z
-x,y,-z
x,-y,-z
y,x,1/2-z
-y,-x,1/2-z
-x,-y,-z
x,y,-z
y,-x,1/2-z
-y,x,1/2-z
x,-y,z
-x,y,z
-y,-x,1/2+z
y,x,1/2+z
loop_
_atom_site_type_symbol
_atom_site_label
_atom_site_fract_x
_atom_site_fract_y
_atom_site_fract_z
Si Si1 0.392229 0.245712 0.500000
Si Si2 0.391599 0.099016 0.649581
Si Si3 0.000000 0.000000 0.750000
Si Si4 0.000000 0.167335 0.609282
Si Si5 0.711870 0.833954 0.822176
Si Si6 0.609229 0.254287 0.000000
O O1 0.500000 0.249013 0.500000
O O2 0.360995 0.183743 0.587209
O O3 0.353631 0.345881 0.500000
O O4 0.500000 0.098586 0.645003
O O5 0.357346 0.114407 0.753868
O O6 0.360065 0.000000 0.615651
O O7 0.000000 0.914515 0.681872
O O8 0.090896 0.223723 0.631425
O O9 0.000000 0.140203 0.500000
O O10 0.768468 0.768468 0.750000
O O11 0.653851 0.788852 0.905989
O O12 0.500000 0.250640 0.000000
#
# Coordination Sequence:
#
# PCOD9566627 Si02
#       6
#     8  16   2   8  16   8
#     4  10  21  39  63  92 128 162 209 278 336 393
#     4  10  20  36  62  95 124 158 207 264 326 394
#     4  12  26  44  68  98 132 180 218 264 328 402
#     4  12  25  43  65  98 136 171 220 271 321 391
#     4  12  23  41  65  89 127 173 216 267 325 391
#     4  12  26  43  65  93 128 172 224 275 333 396
#
# _framework density 18.630243
#
# number of rings (size 3 to 8) (size 9 to 14) (size 15 to 20)
#    0.000    0.828    6.897    1.448    0.000    1.931 
#    0.000    0.690    0.000    0.000    0.000    0.000 
#    0.000    0.000    0.000    0.000    0.000    0.000 
#
# Total GULP energy -323403.348900 kJ/mol
# GULP energy per Si atom -5575.919809 kJ/mol
# Density = 1.858784 g / cm^3
# Si number density = 18.630243 Si / 1000 Ang^3
#
#
#
# Elastic Constant Matrix: (Units=GPa)
#
#
# Indices 1 2 3 4 5 6 
#
# 1 106.9130 56.8843 56.0201 0.0000 0.0000 0.0000
# 2 56.8843 106.9130 56.0201 0.0000 0.0000 0.0000
# 3 56.0201 56.0201 146.7707 0.0000 0.0000 0.0000
# 4 0.0000 0.0000 0.0000 30.4595 0.0000 0.0000
# 5 0.0000 0.0000 0.0000 0.0000 30.4595 0.0000
# 6 0.0000 0.0000 0.0000 0.0000 0.0000 30.7082
#
#
#
# Elastic Compliance Matrix: (Units=1/GPa)
#
#
# Indices 1 2 3 4 5 6 
#
# 1 0.014125 -0.005863 -0.003154 0.000000 0.000000 0.000000
# 2 -0.005863 0.014125 -0.003154 0.000000 0.000000 0.000000
# 3 -0.003154 -0.003154 0.009221 0.000000 0.000000 0.000000
# 4 0.000000 0.000000 0.000000 0.032830 0.000000 0.000000
# 5 0.000000 0.000000 0.000000 0.000000 0.032830 0.000000
# 6 0.000000 0.000000 0.000000 0.000000 0.000000 0.032565
#
#
# Mechanical properties :
#
#
# Convention : Reuss Voigt Hill
#
# Bulk Modulus (GPa) = 76.15651 77.60506 76.88079
# Shear Modulus (GPa) = 30.41097 31.10360 30.75729
#
# Velocity S-wave (km/s) = 4.04461 4.09041 4.06758
# Velocity P-wave (km/s) = 7.92329 8.00340 7.96345
#
# Compressibility (1/GPa) = 0.01313085
#
# Stress axis : x y z
#
# Youngs Moduli (GPa) = 70.79459 70.79459 108.45206
#
# Poissons Ratio (x) = 0.41508 0.34201
# Poissons Ratio (y) = 0.41508 0.34201
# Poissons Ratio (z) = 0.22325 0.22325
#
# Static dielectric constant tensor:
#      x y z
#    x 1.649260 0.000000 0.000000 
#    y 0.000000 1.649260 0.000000 
#    z 0.000000 0.000000 1.643620 
# 
# From -- ./inp_files/5533.got.cif
#   From: 2010.05.17/outbox.cif.g08.bks.cpg/sg131_3_cif.got.tgz:5533.got - 2010.05.20 12:21:01.
