data_PCOD9566195
_publ_section_title
;
Structure prediction by ZEFSAII (Michael W. Deem and Ramdas Pophale) SiO2 
 PCOD9566195
Probable space group: P 42/M M C
;
_chemical_formula_sum "Si O2"
_cell_formula_units_Z 80
_cell_length_a 17.183387
_cell_length_b 17.183387
_cell_length_c 12.954491
_cell_angle_alpha 90.000000
_cell_angle_beta 90.000000
_cell_angle_gamma 90.000000
_cell_volume 3825.056867
_symmetry_space_group_name_H-M "P 42/M M C"
_symmetry_group_IT_number 131
_symmetry_cell_setting 'tetragonal'
loop_
_space_group_symop_operation_xyz
x,y,z
-x,-y,z
-y,x,1/2+z
y,-x,1/2+z
-x,y,-z
x,-y,-z
y,x,1/2-z
-y,-x,1/2-z
-x,-y,-z
x,y,-z
y,-x,1/2-z
-y,x,1/2-z
x,-y,z
-x,y,z
-y,-x,1/2+z
y,x,1/2+z
loop_
_atom_site_type_symbol
_atom_site_label
_atom_site_fract_x
_atom_site_fract_y
_atom_site_fract_z
Si Si1 0.415844 0.176522 0.830884
Si Si2 0.848666 0.228605 0.887403
Si Si3 0.382297 0.243617 0.619143
Si Si4 0.359304 0.415263 0.378496
Si Si5 0.911067 0.257522 0.665963
O O1 0.500000 0.145619 0.864008
O O2 0.415731 0.187221 0.706065
O O3 0.409079 0.265361 0.870535
O O4 0.341439 0.125935 0.860366
O O5 0.777474 0.290535 0.879326
O O6 0.902641 0.246186 0.790095
O O7 0.809539 0.144374 0.878526
O O8 0.885040 0.239562 0.000000
O O9 0.407814 0.234123 0.500000
O O10 0.394437 0.332480 0.655748
O O11 0.378150 0.416479 0.500000
O O12 0.383587 0.500000 0.336444
O O13 0.000000 0.252119 0.634201
#
# Coordination Sequence:
#
# PCOD9566195 Si02
#       5
#    16  16  16  16  16
#     4  10  19  30  46  70 103 138 167 200 245 296
#     4   9  18  34  54  74  98 130 170 211 247 287
#     4   9  16  29  49  68  91 127 174 218 247 282
#     4   9  16  26  44  69  95 126 165 209 254 294
#     4  10  20  33  52  79 106 131 165 205 245 298
#
# _framework density 20.914721
#
# number of rings (size 3 to 8) (size 9 to 14) (size 15 to 20)
#    0.000    2.600    2.000    0.600    0.000    1.600 
#    0.000    0.000    0.000    5.400    0.000   21.000 
#    0.000    0.000    0.000    0.000    0.000    0.000 
#
# Total GULP energy -446227.962286 kJ/mol
# GULP energy per Si atom -5577.849529 kJ/mol
# Density = 2.086712 g / cm^3
# Si number density = 20.914721 Si / 1000 Ang^3
#
#
#
# Elastic Constant Matrix: (Units=GPa)
#
#
# Indices 1 2 3 4 5 6 
#
# 1 85.8225 7.7824 -14.4949 0.0000 0.0000 0.0000
# 2 7.7824 85.8225 -14.4949 0.0000 0.0000 0.0000
# 3 -14.4949 -14.4949 66.5905 0.0000 0.0000 0.0000
# 4 0.0000 0.0000 0.0000 7.8900 0.0000 0.0000
# 5 0.0000 0.0000 0.0000 0.0000 7.8900 0.0000
# 6 0.0000 0.0000 0.0000 0.0000 0.0000 4.8901
#
#
#
# Elastic Compliance Matrix: (Units=1/GPa)
#
#
# Indices 1 2 3 4 5 6 
#
# 1 0.012135 -0.000679 0.002494 0.000000 0.000000 0.000000
# 2 -0.000679 0.012135 0.002494 0.000000 0.000000 0.000000
# 3 0.002494 0.002494 0.016103 0.000000 0.000000 0.000000
# 4 0.000000 0.000000 0.000000 0.126742 0.000000 0.000000
# 5 0.000000 0.000000 0.000000 0.000000 0.126742 0.000000
# 6 0.000000 0.000000 0.000000 0.000000 0.000000 0.204494
#
#
# Mechanical properties :
#
#
# Convention : Reuss Voigt Hill
#
# Bulk Modulus (GPa) = 20.41327 21.75787 21.08557
# Shear Modulus (GPa) = 9.88017 21.43022 15.65519
#
# Velocity S-wave (km/s) = 2.17584 3.20448 2.73889
# Velocity P-wave (km/s) = 4.01171 4.91094 4.48392
#
# Compressibility (1/GPa) = 0.04898773
#
# Stress axis : x y z
#
# Youngs Moduli (GPa) = 82.40838 82.40838 62.10138
#
# Poissons Ratio (x) = 0.05597 -0.15485
# Poissons Ratio (y) = 0.05597 -0.15485
# Poissons Ratio (z) = -0.20549 -0.20549
#
# Static dielectric constant tensor:
#      x y z
#    x 1.736310 0.000000 0.000000 
#    y 0.000000 1.736310 0.000000 
#    z 0.000000 0.000000 1.829280 
# 
# From -- ./inp_files/5687.got.cif
#   From: 2010.05.17/outbox.cif.g08.bks.cpg/sg131_3_cif.got.tgz:5687.got - 2010.05.20 12:21:01.
