data_PCOD9566414
_publ_section_title
;
Structure prediction by ZEFSAII (Michael W. Deem and Ramdas Pophale) SiO2 
 PCOD9566414
Probable space group: P 42/M M C
;
_chemical_formula_sum "Si O2"
_cell_formula_units_Z 96
_cell_length_a 24.367014
_cell_length_b 24.367014
_cell_length_c 7.710906
_cell_angle_alpha 90.000000
_cell_angle_beta 90.000000
_cell_angle_gamma 90.000000
_cell_volume 4578.361011
_symmetry_space_group_name_H-M "P 42/M M C"
_symmetry_group_IT_number 131
_symmetry_cell_setting 'tetragonal'
loop_
_space_group_symop_operation_xyz
x,y,z
-x,-y,z
-y,x,1/2+z
y,-x,1/2+z
-x,y,-z
x,-y,-z
y,x,1/2-z
-y,-x,1/2-z
-x,-y,-z
x,y,-z
y,-x,1/2-z
-y,x,1/2-z
x,-y,z
-x,y,z
-y,-x,1/2+z
y,x,1/2+z
loop_
_atom_site_type_symbol
_atom_site_label
_atom_site_fract_x
_atom_site_fract_y
_atom_site_fract_z
Si Si1 0.235305 0.151618 0.791654
Si Si2 0.648411 0.559912 0.202197
Si Si3 0.323580 0.239699 0.790744
Si Si4 0.440014 0.935509 0.291597
Si Si5 0.228905 0.558964 0.697652
Si Si6 0.062125 0.318892 0.292192
O O1 0.174451 0.174451 0.750000
O O2 0.277318 0.198218 0.726220
O O3 0.265954 0.096455 0.729577
O O4 0.237666 0.150475 0.000000
O O5 0.606922 0.606922 0.250000
O O6 0.622469 0.500000 0.228898
O O7 0.704745 0.560692 0.306994
O O8 0.663904 0.564624 0.000000
O O9 0.300565 0.300565 0.750000
O O10 0.381921 0.219395 0.718977
O O11 0.327104 0.236527 0.000000
O O12 0.441115 0.933290 0.500000
O O13 0.500000 0.913642 0.230096
O O14 0.380168 0.913064 0.238562
O O15 0.439128 0.000000 0.238925
O O16 0.207670 0.558881 0.500000
O O17 0.214027 0.500000 0.779268
O O18 0.059274 0.314162 0.500000
O O19 0.000000 0.318671 0.221538
#
# Coordination Sequence:
#
# PCOD9566414 Si02
#       6
#    16  16  16  16  16  16
#     4   9  18  32  48  68  94 123 156 193 233 276
#     4  10  20  31  42  56  73  93 118 151 194 245
#     4   9  17  29  45  63  82 107 140 175 211 254
#     4   8  14  25  41  62  90 125 164 203 241 283
#     4   9  17  29  44  60  78 100 127 161 201 245
#     4   9  17  29  46  69  97 128 162 200 242 289
#
# _framework density 20.968202999999999
#
# number of rings (size 3 to 8) (size 9 to 14) (size 15 to 20)
#    0.000    3.000    0.000    1.500    0.000    4.167 
#    0.000    3.333    0.000    3.000    0.000    2.333 
#    0.000    0.333    0.000    4.167    0.000    0.000 
#
# Total GULP energy -534526.973225 kJ/mol
# GULP energy per Si atom -5567.989304 kJ/mol
# Density = 2.092048 g / cm^3
# Si number density = 20.968203 Si / 1000 Ang^3
#
#
#
# Elastic Constant Matrix: (Units=GPa)
#
#
# Indices 1 2 3 4 5 6 
#
# 1 95.8071 44.8619 2.5631 0.0000 0.0000 0.0000
# 2 44.8619 95.8071 2.5631 0.0000 0.0000 0.0000
# 3 2.5631 2.5631 42.3569 0.0000 0.0000 0.0000
# 4 0.0000 0.0000 0.0000 -10.4120 0.0000 0.0000
# 5 0.0000 0.0000 0.0000 0.0000 -10.4120 0.0000
# 6 0.0000 0.0000 0.0000 0.0000 0.0000 18.3908
#
#
#
# Elastic Compliance Matrix: (Units=1/GPa)
#
#
# Indices 1 2 3 4 5 6 
#
# 1 0.013377 -0.006252 -0.000431 0.000000 0.000000 0.000000
# 2 -0.006252 0.013377 -0.000431 0.000000 0.000000 0.000000
# 3 -0.000431 -0.000431 0.023661 0.000000 0.000000 0.000000
# 4 0.000000 0.000000 0.000000 -0.096043 0.000000 0.000000
# 5 0.000000 0.000000 0.000000 0.000000 -0.096043 0.000000
# 6 0.000000 0.000000 0.000000 0.000000 0.000000 0.054375
#
#
# Mechanical properties :
#
#
# Convention : Reuss Voigt Hill
#
# Bulk Modulus (GPa) = 27.63519 37.10528 32.37023
# Shear Modulus (GPa) = -81.95957 11.77890 -35.09033
#
# Velocity S-wave (km/s) = -6.25879 2.37270 -4.09528
# Velocity P-wave (km/s) = 6.24673 5.02401 2.62498
#
# Compressibility (1/GPa) = 0.03618575
#
# Stress axis : x y z
#
# Youngs Moduli (GPa) = 74.75651 74.75651 42.26354
#
# Poissons Ratio (x) = 0.46739 0.01822
# Poissons Ratio (y) = 0.46739 0.01822
# Poissons Ratio (z) = 0.03223 0.03223
#
# Static dielectric constant tensor:
#      x y z
#    x 1.823030 0.000000 0.000000 
#    y 0.000000 1.823030 0.000000 
#    z 0.000000 0.000000 1.782950 
# 
# From -- ./inp_files/2269.got.cif
#   From: 2010.05.17/outbox.cif.g08.bks.cpg/sg131_2_cif.got.tgz:2269.got - 2010.05.20 12:21:01.
