data_PCOD9566374
_publ_section_title
;
Structure prediction by ZEFSAII (Michael W. Deem and Ramdas Pophale) SiO2 
 PCOD9566374
Probable space group: P 42/M M C
;
_chemical_formula_sum "Si O2"
_cell_formula_units_Z 112
_cell_length_a 14.630621
_cell_length_b 14.630621
_cell_length_c 22.611843
_cell_angle_alpha 90.000000
_cell_angle_beta 90.000000
_cell_angle_gamma 90.000000
_cell_volume 4840.179655
_symmetry_space_group_name_H-M "P 42/M M C"
_symmetry_group_IT_number 131
_symmetry_cell_setting 'tetragonal'
loop_
_space_group_symop_operation_xyz
x,y,z
-x,-y,z
-y,x,1/2+z
y,-x,1/2+z
-x,y,-z
x,-y,-z
y,x,1/2-z
-y,-x,1/2-z
-x,-y,-z
x,y,-z
y,-x,1/2-z
-y,x,1/2-z
x,-y,z
-x,y,z
-y,-x,1/2+z
y,x,1/2+z
loop_
_atom_site_type_symbol
_atom_site_label
_atom_site_fract_x
_atom_site_fract_y
_atom_site_fract_z
Si Si1 0.892618 0.898444 0.137296
Si Si2 0.603524 0.391554 0.685896
Si Si3 0.657337 0.692819 0.063031
Si Si4 0.398827 0.891567 0.791508
Si Si5 0.287212 0.896053 0.685410
Si Si6 0.293434 0.103012 0.913364
Si Si7 0.859246 0.391142 0.934191
O O1 0.861045 0.815214 0.178200
O O2 0.817143 0.895484 0.085594
O O3 0.000000 0.885663 0.120848
O O4 0.885221 0.000000 0.164198
O O5 0.640542 0.359459 0.750000
O O6 0.595773 0.500000 0.694476
O O7 0.500000 0.354697 0.674843
O O8 0.663898 0.380076 0.627070
O O9 0.670432 0.802367 0.060693
O O10 0.754636 0.641535 0.063167
O O11 0.611468 0.666181 0.000000
O O12 0.500000 0.852927 0.803996
O O13 0.353110 0.850803 0.732936
O O14 0.331113 0.888684 0.846550
O O15 0.411594 0.000000 0.780578
O O16 0.335414 0.897013 0.621431
O O17 0.273367 0.000000 0.704994
O O18 0.321898 0.000000 0.933340
O O19 0.867670 0.500000 0.924230
O O20 0.897315 0.371458 0.000000
#
# Coordination Sequence:
#
# PCOD9566374 Si02
#       7
#    16  16  16  16  16  16  16
#     4   9  18  35  59  87 120 160 212 273 333 392
#     4   9  20  41  68  99 134 169 209 262 326 397
#     4  11  23  39  60  90 126 166 216 269 324 390
#     4   9  19  35  55  82 116 153 197 251 313 385
#     4  10  19  34  57  83 113 153 201 255 315 381
#     4  10  21  39  61  85 120 167 216 269 329 393
#     4  10  21  36  53  78 114 154 196 247 311 381
#
# _framework density 23.139638000000001
#
# number of rings (size 3 to 8) (size 9 to 14) (size 15 to 20)
#    0.000    2.286    1.429    1.286    0.000    4.857 
#    0.000    5.000    0.000    6.857    0.000    7.000 
#    0.000    0.000    0.000    0.000    0.000    0.000 
#
# Total GULP energy -624048.623447 kJ/mol
# GULP energy per Si atom -5571.862709 kJ/mol
# Density = 2.308697 g / cm^3
# Si number density = 23.139638 Si / 1000 Ang^3
#
#
#
# Elastic Constant Matrix: (Units=GPa)
#
#
# Indices 1 2 3 4 5 6 
#
# 1 113.6762 0.2402 43.5698 0.0000 0.0000 0.0000
# 2 0.2402 113.6758 43.5698 0.0000 0.0000 0.0000
# 3 43.5698 43.5698 162.8737 0.0000 0.0000 0.0000
# 4 0.0000 0.0000 0.0000 10.1341 0.0000 0.0000
# 5 0.0000 0.0000 0.0000 0.0000 10.1337 0.0000
# 6 0.0000 0.0000 0.0000 0.0000 0.0000 21.3586
#
#
#
# Elastic Compliance Matrix: (Units=1/GPa)
#
#
# Indices 1 2 3 4 5 6 
#
# 1 0.009926 0.001111 -0.002952 0.000000 0.000000 0.000000
# 2 0.001111 0.009926 -0.002952 0.000000 0.000000 0.000000
# 3 -0.002952 -0.002952 0.007719 0.000000 0.000000 0.000000
# 4 0.000000 0.000000 0.000000 0.098677 0.000000 0.000000
# 5 0.000000 0.000000 0.000000 0.000000 0.098681 0.000000
# 6 0.000000 0.000000 0.000000 0.000000 0.000000 0.046820
#
#
# Mechanical properties :
#
#
# Convention : Reuss Voigt Hill
#
# Bulk Modulus (GPa) = 55.60724 62.77614 59.19169
# Shear Modulus (GPa) = 17.40149 28.51500 22.95824
#
# Velocity S-wave (km/s) = 2.74527 3.51422 3.15328
# Velocity P-wave (km/s) = 5.84226 6.60716 6.23645
#
# Compressibility (1/GPa) = 0.01798327
#
# Stress axis : x y z
#
# Youngs Moduli (GPa) = 100.74374 100.74336 129.54521
#
# Poissons Ratio (x) = -0.11189 0.38247
# Poissons Ratio (y) = -0.11189 0.38247
# Poissons Ratio (z) = 0.29744 0.29744
#
# Static dielectric constant tensor:
#      x y z
#    x 1.895500 0.000000 0.000000 
#    y 0.000000 1.895500 0.000000 
#    z 0.000000 0.000000 1.906660 
# 
# From -- ./inp_files/11303.got.cif
#   From: 2010.05.17/outbox.cif.g08.bks.cpg/sg131_6_cif.got.tgz:11303.got - 2010.05.20 12:21:01.
