data_PCOD9566875
_publ_section_title
;
Structure prediction by ZEFSAII (Michael W. Deem and Ramdas Pophale) SiO2 
 PCOD9566875
Probable space group: P 42/M M C
;
_chemical_formula_sum "Si O2"
_cell_formula_units_Z 58
_cell_length_a 12.088279
_cell_length_b 12.088279
_cell_length_c 22.189265
_cell_angle_alpha 90.000000
_cell_angle_beta 90.000000
_cell_angle_gamma 90.000000
_cell_volume 3242.439392
_symmetry_space_group_name_H-M "P 42/M M C"
_symmetry_group_IT_number 131
_symmetry_cell_setting 'tetragonal'
loop_
_space_group_symop_operation_xyz
x,y,z
-x,-y,z
-y,x,1/2+z
y,-x,1/2+z
-x,y,-z
x,-y,-z
y,x,1/2-z
-y,-x,1/2-z
-x,-y,-z
x,y,-z
y,-x,1/2-z
-y,x,1/2-z
x,-y,z
-x,y,z
-y,-x,1/2+z
y,x,1/2+z
loop_
_atom_site_type_symbol
_atom_site_label
_atom_site_fract_x
_atom_site_fract_y
_atom_site_fract_z
Si Si1 0.367684 0.372754 0.818238
Si Si2 0.000000 0.000000 0.250000
Si Si3 0.000000 0.231919 0.291350
Si Si4 0.866916 0.871220 0.000000
Si Si5 0.779029 0.200592 0.371383
Si Si6 0.000000 0.631897 0.181164
O O1 0.336831 0.336831 0.750000
O O2 0.331352 0.500000 0.826712
O O3 0.500000 0.371427 0.820815
O O4 0.312570 0.290164 0.864423
O O5 0.000000 0.133989 0.241326
O O6 0.891515 0.213401 0.332289
O O7 0.000000 0.343711 0.253064
O O8 0.826362 0.813616 0.060809
O O9 0.000000 0.868647 0.000000
O O10 0.832684 0.000000 0.000000
O O11 0.695828 0.106387 0.346104
O O12 0.000000 0.500000 0.169392
#
# Coordination Sequence:
#
# PCOD9566875 Si02
#       6
#    16   2   8   8  16   8
#     4   9  19  38  64  91 122 162 202 245 304 368
#     4  12  20  36  52  90 116 148 196 236 294 372
#     4  12  22  35  62  88 123 152 199 254 313 367
#     4  11  24  42  63  84 119 169 210 250 299 360
#     4  12  22  39  60  89 120 160 204 252 304 363
#     4  12  24  37  57  93 129 156 190 249 319 371
#
# _framework density 17.887768000000001
#
# number of rings (size 3 to 8) (size 9 to 14) (size 15 to 20)
#    0.000    0.966    5.517    3.310    0.000    3.310 
#    0.000    4.138    0.000    2.483    0.000    0.000 
#    0.000    0.000    0.000    0.000    0.000    0.000 
#
# Total GULP energy -323191.636842 kJ/mol
# GULP energy per Si atom -5572.269601 kJ/mol
# Density = 1.784705 g / cm^3
# Si number density = 17.887768 Si / 1000 Ang^3
#
#
#
# Elastic Constant Matrix: (Units=GPa)
#
#
# Indices 1 2 3 4 5 6 
#
# 1 93.3732 37.1142 53.1771 0.0000 0.0000 0.0000
# 2 37.1142 93.3732 53.1771 0.0000 0.0000 0.0000
# 3 53.1771 53.1771 121.9484 0.0000 0.0000 0.0000
# 4 0.0000 0.0000 0.0000 17.2934 0.0000 0.0000
# 5 0.0000 0.0000 0.0000 0.0000 17.2934 0.0000
# 6 0.0000 0.0000 0.0000 0.0000 0.0000 32.2774
#
#
#
# Elastic Compliance Matrix: (Units=1/GPa)
#
#
# Indices 1 2 3 4 5 6 
#
# 1 0.014832 -0.002943 -0.005184 0.000000 0.000000 0.000000
# 2 -0.002943 0.014832 -0.005184 0.000000 0.000000 0.000000
# 3 -0.005184 -0.005184 0.012722 0.000000 0.000000 0.000000
# 4 0.000000 0.000000 0.000000 0.057825 0.000000 0.000000
# 5 0.000000 0.000000 0.000000 0.000000 0.057825 0.000000
# 6 0.000000 0.000000 0.000000 0.000000 0.000000 0.030981
#
#
# Mechanical properties :
#
#
# Convention : Reuss Voigt Hill
#
# Bulk Modulus (GPa) = 63.44252 66.18130 64.81191
# Shear Modulus (GPa) = 22.63513 24.38794 23.51153
#
# Velocity S-wave (km/s) = 3.56110 3.69641 3.62939
# Velocity P-wave (km/s) = 7.24241 7.43615 7.33992
#
# Compressibility (1/GPa) = 0.01576230
#
# Stress axis : x y z
#
# Youngs Moduli (GPa) = 67.42157 67.42157 78.60619
#
# Poissons Ratio (x) = 0.19841 0.40753
# Poissons Ratio (y) = 0.19841 0.40753
# Poissons Ratio (z) = 0.34954 0.34954
#
# Static dielectric constant tensor:
#      x y z
#    x 1.625860 0.000000 0.000000 
#    y 0.000000 1.625860 0.000000 
#    z 0.000000 0.000000 1.515430 
# 
# From -- ./inp_files/9237.got.cif
#   From: 2010.05.17/outbox.cif.g08.bks.cpg/sg131_5_cif.got.tgz:9237.got - 2010.05.20 12:21:01.
