data_PCOD9566697
_publ_section_title
;
Structure prediction by ZEFSAII (Michael W. Deem and Ramdas Pophale) SiO2 
 PCOD9566697
Probable space group: P 42/M M C
;
_chemical_formula_sum "Si O2"
_cell_formula_units_Z 64
_cell_length_a 14.817193
_cell_length_b 14.817193
_cell_length_c 15.526824
_cell_angle_alpha 90.000000
_cell_angle_beta 90.000000
_cell_angle_gamma 90.000000
_cell_volume 3408.901918
_symmetry_space_group_name_H-M "P 42/M M C"
_symmetry_group_IT_number 131
_symmetry_cell_setting 'tetragonal'
loop_
_space_group_symop_operation_xyz
x,y,z
-x,-y,z
-y,x,1/2+z
y,-x,1/2+z
-x,y,-z
x,-y,-z
y,x,1/2-z
-y,-x,1/2-z
-x,-y,-z
x,y,-z
y,-x,1/2-z
-y,x,1/2-z
x,-y,z
-x,y,z
-y,-x,1/2+z
y,x,1/2+z
loop_
_atom_site_type_symbol
_atom_site_label
_atom_site_fract_x
_atom_site_fract_y
_atom_site_fract_z
Si Si1 0.607262 0.099653 0.222093
Si Si2 0.103063 0.894556 0.854116
Si Si3 0.216149 0.723322 0.403785
Si Si4 0.180030 0.395526 0.096555
O O1 0.500000 0.105242 0.206398
O O2 0.660119 0.174029 0.168519
O O3 0.621153 0.113463 0.324000
O O4 0.639841 0.000000 0.196577
O O5 0.111067 0.888934 0.750000
O O6 0.179014 0.831574 0.894072
O O7 0.000000 0.869935 0.877042
O O8 0.116591 0.000000 0.877482
O O9 0.197768 0.688325 0.500000
O O10 0.322574 0.740787 0.394092
O O11 0.209480 0.500000 0.103129
O O12 0.141533 0.383241 0.000000
#
# Coordination Sequence:
#
# PCOD9566697 Si02
#       4
#    16  16  16  16
#     4  10  21  36  55  80 110 144 179 216 261 315
#     4   9  18  32  49  70  99 137 180 223 262 301
#     4  11  22  34  52  77 106 143 180 215 260 314
#     4   9  19  36  57  80 104 133 175 227 279 324
#
# _framework density 18.774374000000002
#
# number of rings (size 3 to 8) (size 9 to 14) (size 15 to 20)
#    0.000    2.250    0.000    3.750    0.000    6.500 
#    0.000    7.500    0.000    0.750    0.000    7.000 
#    0.000    0.000    0.000    0.000    0.000    0.500 
#
# Total GULP energy -357228.444220 kJ/mol
# GULP energy per Si atom -5581.694441 kJ/mol
# Density = 1.873164 g / cm^3
# Si number density = 18.774374 Si / 1000 Ang^3
#
#
#
# Elastic Constant Matrix: (Units=GPa)
#
#
# Indices 1 2 3 4 5 6 
#
# 1 52.6280 26.9772 34.4972 0.0000 0.0000 0.0000
# 2 26.9772 52.6280 34.4972 0.0000 0.0000 0.0000
# 3 34.4972 34.4972 80.5335 0.0000 0.0000 0.0000
# 4 0.0000 0.0000 0.0000 12.8361 0.0000 0.0000
# 5 0.0000 0.0000 0.0000 0.0000 12.8365 0.0000
# 6 0.0000 0.0000 0.0000 0.0000 0.0000 14.7687
#
#
#
# Elastic Compliance Matrix: (Units=1/GPa)
#
#
# Indices 1 2 3 4 5 6 
#
# 1 0.029482 -0.009503 -0.008558 0.000000 0.000000 0.000000
# 2 -0.009503 0.029482 -0.008558 0.000000 0.000000 0.000000
# 3 -0.008558 -0.008558 0.019749 0.000000 0.000000 0.000000
# 4 0.000000 0.000000 0.000000 0.077906 0.000000 0.000000
# 5 0.000000 0.000000 0.000000 0.000000 0.077903 0.000000
# 6 0.000000 0.000000 0.000000 0.000000 0.000000 0.067711
#
#
# Mechanical properties :
#
#
# Convention : Reuss Voigt Hill
#
# Bulk Modulus (GPa) = 39.25437 41.97030 40.61233
# Shear Modulus (GPa) = 13.73762 14.07612 13.90687
#
# Velocity S-wave (km/s) = 2.70797 2.74113 2.72460
# Velocity P-wave (km/s) = 5.54359 5.69403 5.61931
#
# Compressibility (1/GPa) = 0.02547487
#
# Stress axis : x y z
#
# Youngs Moduli (GPa) = 33.91853 33.91852 50.63449
#
# Poissons Ratio (x) = 0.32232 0.43335
# Poissons Ratio (y) = 0.32232 0.43335
# Poissons Ratio (z) = 0.29029 0.29029
#
# Static dielectric constant tensor:
#      x y z
#    x 1.641480 0.000000 0.000000 
#    y 0.000000 1.641480 0.000000 
#    z 0.000000 0.000000 1.673150 
# 
# From -- ./inp_files/5436.got.cif
#   From: 2010.05.17/outbox.cif.g08.bks.cpg/sg131_3_cif.got.tgz:5436.got - 2010.05.20 12:21:01.
