data_PCOD9566922
_publ_section_title
;
Structure prediction by ZEFSAII (Michael W. Deem and Ramdas Pophale) SiO2 
 PCOD9566922
Probable space group: P 42/M M C
;
_chemical_formula_sum "Si O2"
_cell_formula_units_Z 96
_cell_length_a 15.000000
_cell_length_b 15.000000
_cell_length_c 21.000000
_cell_angle_alpha 90.000000
_cell_angle_beta 90.000000
_cell_angle_gamma 90.000000
_cell_volume 4725.000000
_symmetry_space_group_name_H-M "P 42/M M C"
_symmetry_group_IT_number 131
_symmetry_cell_setting 'tetragonal'
loop_
_space_group_symop_operation_xyz
x,y,z
-x,-y,z
-y,x,1/2+z
y,-x,1/2+z
-x,y,-z
x,-y,-z
y,x,1/2-z
-y,-x,1/2-z
-x,-y,-z
x,y,-z
y,-x,1/2-z
-y,x,1/2-z
x,-y,z
-x,y,z
-y,-x,1/2+z
y,x,1/2+z
loop_
_atom_site_type_symbol
_atom_site_label
_atom_site_fract_x
_atom_site_fract_y
_atom_site_fract_z
Si Si1 0.397599 0.101054 0.598779
Si Si2 0.349340 0.597835 0.814785
Si Si3 0.603357 0.845629 0.259538
Si Si4 0.722465 0.401782 0.570401
Si Si5 0.794952 0.215500 0.070135
Si Si6 0.212661 0.893459 0.804519
O O1 0.500000 0.129210 0.582028
O O2 0.394602 0.097804 0.675698
O O3 0.316372 0.165441 0.578303
O O4 0.384009 0.000000 0.574996
O O5 0.404456 0.595545 0.750000
O O6 0.339664 0.500000 0.843104
O O7 0.252585 0.624457 0.787596
O O8 0.389584 0.660150 0.868391
O O9 0.500000 0.845691 0.235315
O O10 0.682656 0.872840 0.212337
O O11 0.677058 0.399739 0.500000
O O12 0.765524 0.500000 0.575007
O O13 0.780748 0.312832 0.570841
O O14 0.817299 0.153284 0.129660
O O15 0.823872 0.184066 0.000000
O O16 0.153902 0.846099 0.750000
O O17 0.201293 0.000000 0.805691
#
# Coordination Sequence:
#
# PCOD9566922 Si02
#       6
#    16  16  16  16  16  16
#     4  10  20  37  64  97 129 158 196 254 324 389
#     4  11  21  33  51  78 116 160 206 255 307 362
#     4  10  20  37  64  97 126 154 198 263 327 378
#     4  10  21  37  57  81 115 164 214 255 298 353
#     4  11  24  42  64  93 131 170 211 260 314 374
#     4  12  25  43  68  95 126 166 213 260 312 375
#
# _framework density 20.317460000000001
#
# number of rings (size 3 to 8) (size 9 to 14) (size 15 to 20)
#    0.000    1.333    3.333    2.500    0.000    5.667 
#    0.000    3.333    0.000    0.000    0.000    5.833 
#    0.000    0.000    0.000    0.000    0.000    0.000 
#
# Total GULP energy -535488.062161 kJ/mol
# GULP energy per Si atom -5578.000648 kJ/mol
# Density = 2.027122 g / cm^3
# Si number density = 20.317460 Si / 1000 Ang^3
#
#
#
# Elastic Constant Matrix: (Units=GPa)
#
#
# Indices 1 2 3 4 5 6 
#
# 1 102.8115 45.0639 36.9022 0.0000 0.0000 0.0000
# 2 45.0639 102.8112 36.9028 0.0000 0.0000 0.0000
# 3 36.9022 36.9028 157.3495 0.0000 0.0000 0.0000
# 4 0.0000 0.0000 0.0000 -28.0957 0.0000 0.0000
# 5 0.0000 0.0000 0.0000 0.0000 -28.0942 0.0000
# 6 0.0000 0.0000 0.0000 0.0000 0.0000 13.3563
#
#
#
# Elastic Compliance Matrix: (Units=1/GPa)
#
#
# Indices 1 2 3 4 5 6 
#
# 1 0.012488 -0.004829 -0.001796 0.000000 0.000000 0.000000
# 2 -0.004829 0.012488 -0.001796 0.000000 0.000000 0.000000
# 3 -0.001796 -0.001796 0.007198 0.000000 0.000000 0.000000
# 4 0.000000 0.000000 0.000000 -0.035593 0.000000 0.000000
# 5 0.000000 0.000000 0.000000 0.000000 -0.035595 0.000000
# 6 0.000000 0.000000 0.000000 0.000000 0.000000 0.074871
#
#
# Mechanical properties :
#
#
# Convention : Reuss Voigt Hill
#
# Bulk Modulus (GPa) = 65.22807 66.74556 65.98681
# Shear Modulus (GPa) = 86.48992 7.70684 47.09838
#
# Velocity S-wave (km/s) = 6.53159 1.94973 4.81991
# Velocity P-wave (km/s) = 9.43697 6.16370 7.97018
#
# Compressibility (1/GPa) = 0.01533082
#
# Stress axis : x y z
#
# Youngs Moduli (GPa) = 80.07799 80.07751 138.93135
#
# Poissons Ratio (x) = 0.38669 0.24955
# Poissons Ratio (y) = 0.38669 0.24956
# Poissons Ratio (z) = 0.14383 0.14384
#
# Static dielectric constant tensor:
#      x y z
#    x 1.756880 0.000000 0.000000 
#    y 0.000000 1.756880 0.000000 
#    z 0.000000 0.000000 1.760270 
# 
# From -- ./inp_files/9759.got.cif
#   From: 2010.05.17/outbox.ucp.g08.bks.cvg/sg131_5_cif.got.tgz:9759.got - 2010.06.11 11:38:44.
