data_PCOD9566987
_publ_section_title
;
Structure prediction by ZEFSAII (Michael W. Deem and Ramdas Pophale) SiO2 
 PCOD9566987
Probable space group: P 42/M C M
;
_chemical_formula_sum "Si O2"
_cell_formula_units_Z 40
_cell_length_a 10.236453
_cell_length_b 10.236453
_cell_length_c 21.653207
_cell_angle_alpha 90.000000
_cell_angle_beta 90.000000
_cell_angle_gamma 90.000000
_cell_volume 2268.930646
_symmetry_space_group_name_H-M "P 42/M C M"
_symmetry_group_IT_number 132
_symmetry_cell_setting 'tetragonal'
loop_
_space_group_symop_operation_xyz
x,y,z
-y,x,1/2+z
-x,-y,z
y,-x,1/2+z
x,-y,1/2-z
-x,y,1/2-z
y,x,-z
-y,-x,-z
-x,-y,-z
y,-x,1/2-z
x,y,-z
-y,x,1/2-z
-x,y,1/2+z
x,-y,1/2+z
-y,-x,z
y,x,z
loop_
_atom_site_type_symbol
_atom_site_label
_atom_site_fract_x
_atom_site_fract_y
_atom_site_fract_z
Si Si1 0.720205 0.495470 0.931407
Si Si2 0.816313 0.596953 0.808058
Si Si3 0.210467 0.000000 0.750000
O O1 0.636494 0.363506 0.922546
O O2 0.612389 0.612389 0.931987
O O3 0.810953 0.522986 0.873024
O O4 0.780610 0.493033 0.000000
O O5 0.820489 0.500000 0.750000
O O6 0.685723 0.685723 0.802865
O O7 0.936874 0.696328 0.801266
O O8 0.115786 0.115786 0.727137
#
# Coordination Sequence:
#
# PCOD9566987 Si02
#       3
#    16  16   8
#     4   8  14  25  42  68 103 134 152 174 224 294
#     4  10  18  28  47  73  98 122 152 193 237 284
#     4   9  19  34  48  62  85 123 168 208 240 269
#
# _framework density 17.629449000000001
#
# number of rings (size 3 to 8) (size 9 to 14) (size 15 to 20)
#    0.000    3.000    0.000    3.000    0.000    2.000 
#    0.000    0.000    0.000    6.000    0.000   14.000 
#    0.000    0.000    0.000    0.000    0.000    0.000 
#
# Total GULP energy -222780.493559 kJ/mol
# GULP energy per Si atom -5569.512339 kJ/mol
# Density = 1.758932 g / cm^3
# Si number density = 17.629449 Si / 1000 Ang^3
#
#
#
# Elastic Constant Matrix: (Units=GPa)
#
#
# Indices 1 2 3 4 5 6 
#
# 1 64.6832 33.5351 66.0272 0.0000 0.0000 0.0000
# 2 33.5351 64.6832 66.0272 0.0000 0.0000 0.0000
# 3 66.0272 66.0272 177.7299 0.0000 0.0000 0.0000
# 4 0.0000 0.0000 0.0000 6.0333 0.0000 0.0000
# 5 0.0000 0.0000 0.0000 0.0000 6.0333 0.0000
# 6 0.0000 0.0000 0.0000 0.0000 0.0000 9.6325
#
#
#
# Elastic Compliance Matrix: (Units=1/GPa)
#
#
# Indices 1 2 3 4 5 6 
#
# 1 0.026223 -0.005881 -0.007557 0.000000 0.000000 0.000000
# 2 -0.005881 0.026223 -0.007557 0.000000 0.000000 0.000000
# 3 -0.007557 -0.007557 0.011241 0.000000 0.000000 0.000000
# 4 0.000000 0.000000 0.000000 0.165747 0.000000 0.000000
# 5 0.000000 0.000000 0.000000 0.000000 0.165747 0.000000
# 6 0.000000 0.000000 0.000000 0.000000 0.000000 0.103815
#
#
# Mechanical properties :
#
#
# Convention : Reuss Voigt Hill
#
# Bulk Modulus (GPa) = 46.08947 70.91948 58.50447
# Shear Modulus (GPa) = 9.12040 13.77359 11.44700
#
# Velocity S-wave (km/s) = 2.27698 2.79818 2.55092
# Velocity P-wave (km/s) = 5.75439 7.12425 6.47564
#
# Compressibility (1/GPa) = 0.02169693
#
# Stress axis : x y z
#
# Youngs Moduli (GPa) = 38.13405 38.13405 88.95638
#
# Poissons Ratio (x) = 0.22428 0.67225
# Poissons Ratio (y) = 0.22428 0.67225
# Poissons Ratio (z) = 0.28818 0.28818
#
# Static dielectric constant tensor:
#      x y z
#    x 1.615780 0.000000 0.000000 
#    y 0.000000 1.615780 0.000000 
#    z 0.000000 0.000000 1.590060 
# 
# From -- ./inp_files/5537.got.cif
#   From: 2010.05.17/outbox.cif.g08.bks.cpg/sg132_3_cif.got.tgz:5537.got - 2010.05.20 12:30:18.
