data_PCOD9566928
_publ_section_title
;
Structure prediction by ZEFSAII (Michael W. Deem and Ramdas Pophale) SiO2 
 PCOD9566928
Probable space group: P 42/M M C
;
_chemical_formula_sum "Si O2"
_cell_formula_units_Z 58
_cell_length_a 12.000000
_cell_length_b 12.000000
_cell_length_c 21.000000
_cell_angle_alpha 90.000000
_cell_angle_beta 90.000000
_cell_angle_gamma 90.000000
_cell_volume 3024.000000
_symmetry_space_group_name_H-M "P 42/M M C"
_symmetry_group_IT_number 131
_symmetry_cell_setting 'tetragonal'
loop_
_space_group_symop_operation_xyz
x,y,z
-x,-y,z
-y,x,1/2+z
y,-x,1/2+z
-x,y,-z
x,-y,-z
y,x,1/2-z
-y,-x,1/2-z
-x,-y,-z
x,y,-z
y,-x,1/2-z
-y,x,1/2-z
x,-y,z
-x,y,z
-y,-x,1/2+z
y,x,1/2+z
loop_
_atom_site_type_symbol
_atom_site_label
_atom_site_fract_x
_atom_site_fract_y
_atom_site_fract_z
Si Si1 0.719271 0.242120 0.076297
Si Si2 0.132636 0.267678 0.197063
Si Si3 0.500000 0.500000 0.250000
Si Si4 0.500000 0.315772 0.139080
Si Si5 0.372550 0.000000 0.076029
Si Si6 0.500000 0.132527 0.760594
O O1 0.818376 0.263533 0.125784
O O2 0.611801 0.316766 0.096461
O O3 0.688041 0.113872 0.092583
O O4 0.740132 0.252240 0.000000
O O5 0.184968 0.184968 0.250000
O O6 0.163498 0.389523 0.222919
O O7 0.000000 0.253746 0.196098
O O8 0.500000 0.398663 0.199380
O O9 0.500000 0.197388 0.173998
O O10 0.500000 0.000000 0.096137
O O11 0.375690 0.000000 0.000000
O O12 0.500000 0.000000 0.767606
#
# Coordination Sequence:
#
# PCOD9566928 Si02
#       6
#    16  16   2   8   8   8
#     4  11  23  39  63  95 127 161 208 263 317 369
#     4  11  24  42  64  91 125 166 211 256 311 379
#     4  12  28  40  54  92 140 176 198 240 328 408
#     4  12  21  38  63  87 126 161 203 258 313 370
#     4   9  18  34  59  91 123 157 203 257 306 358
#     4  10  22  41  67  91 113 156 215 263 299 349
#
# _framework density 19.179894000000001
#
# number of rings (size 3 to 8) (size 9 to 14) (size 15 to 20)
#    0.000    1.241    4.138    2.069    3.862    0.828 
#    0.000    3.448    0.000    4.966    0.000    0.000 
#    0.000    0.000    0.000    0.000    0.000    0.000 
#
# Total GULP energy -323473.582004 kJ/mol
# GULP energy per Si atom -5577.130724 kJ/mol
# Density = 1.913624 g / cm^3
# Si number density = 19.179894 Si / 1000 Ang^3
#
#
#
# Elastic Constant Matrix: (Units=GPa)
#
#
# Indices 1 2 3 4 5 6 
#
# 1 80.8706 36.6103 57.0061 0.0000 0.0000 0.0000
# 2 36.6103 80.8706 57.0061 0.0000 0.0000 0.0000
# 3 57.0061 57.0061 159.8958 0.0000 0.0000 0.0000
# 4 0.0000 0.0000 0.0000 -63.4421 0.0000 0.0000
# 5 0.0000 0.0000 0.0000 0.0000 -63.4421 0.0000
# 6 0.0000 0.0000 0.0000 0.0000 0.0000 56.6511
#
#
#
# Elastic Compliance Matrix: (Units=1/GPa)
#
#
# Indices 1 2 3 4 5 6 
#
# 1 0.017804 -0.004789 -0.004640 0.000000 0.000000 0.000000
# 2 -0.004789 0.017804 -0.004640 0.000000 0.000000 0.000000
# 3 -0.004640 -0.004640 0.009563 0.000000 0.000000 0.000000
# 4 0.000000 0.000000 0.000000 -0.015762 0.000000 0.000000
# 5 0.000000 0.000000 0.000000 0.000000 -0.015762 0.000000
# 6 0.000000 0.000000 0.000000 0.000000 0.000000 0.017652
#
#
# Mechanical properties :
#
#
# Convention : Reuss Voigt Hill
#
# Bulk Modulus (GPa) = 58.71168 69.20909 63.96038
# Shear Modulus (GPa) = 76.78691 -2.64565 37.07063
#
# Velocity S-wave (km/s) = 6.33419 -1.17575 4.40112
# Velocity P-wave (km/s) = 9.17461 5.85827 7.69717
#
# Compressibility (1/GPa) = 0.01703239
#
# Stress axis : x y z
#
# Youngs Moduli (GPa) = 56.16584 56.16584 104.57283
#
# Poissons Ratio (x) = 0.26899 0.48524
# Poissons Ratio (y) = 0.26899 0.48524
# Poissons Ratio (z) = 0.26062 0.26062
#
# Static dielectric constant tensor:
#      x y z
#    x 1.769770 0.000000 0.000000 
#    y 0.000000 1.769770 0.000000 
#    z 0.000000 0.000000 1.632830 
# 
# From -- ./inp_files/9212.got.cif
#   From: 2010.05.17/outbox.ucp.g08.bks.cvg/sg131_5_cif.got.tgz:9212.got - 2010.06.11 11:38:44.
