data_PCOD9566475
_publ_section_title
;
Structure prediction by ZEFSAII (Michael W. Deem and Ramdas Pophale) SiO2 
 PCOD9566475
Probable space group: P 42/M M C
;
_chemical_formula_sum "Si O2"
_cell_formula_units_Z 96
_cell_length_a 24.327376
_cell_length_b 24.327376
_cell_length_c 8.930359
_cell_angle_alpha 90.000000
_cell_angle_beta 90.000000
_cell_angle_gamma 90.000000
_cell_volume 5285.175986
_symmetry_space_group_name_H-M "P 42/M M C"
_symmetry_group_IT_number 131
_symmetry_cell_setting 'tetragonal'
loop_
_space_group_symop_operation_xyz
x,y,z
-x,-y,z
-y,x,1/2+z
y,-x,1/2+z
-x,y,-z
x,-y,-z
y,x,1/2-z
-y,-x,1/2-z
-x,-y,-z
x,y,-z
y,-x,1/2-z
-y,x,1/2-z
x,-y,z
-x,y,z
-y,-x,1/2+z
y,x,1/2+z
loop_
_atom_site_type_symbol
_atom_site_label
_atom_site_fract_x
_atom_site_fract_y
_atom_site_fract_z
Si Si1 0.178967 0.258151 0.178501
Si Si2 0.844888 0.557761 0.337348
Si Si3 0.351460 0.565338 0.681545
Si Si4 0.598117 0.059168 0.669460
Si Si5 0.645999 0.249837 0.171892
Si Si6 0.061877 0.713506 0.677596
O O1 0.202859 0.202859 0.250000
O O2 0.222896 0.305183 0.231146
O O3 0.117099 0.266574 0.240151
O O4 0.178141 0.256931 0.000000
O O5 0.873470 0.560065 0.500000
O O6 0.814328 0.500000 0.328880
O O7 0.889345 0.561834 0.209318
O O8 0.801198 0.604896 0.333172
O O9 0.406155 0.593846 0.750000
O O10 0.353602 0.566425 0.500000
O O11 0.344699 0.500000 0.723890
O O12 0.301273 0.607868 0.723883
O O13 0.619654 0.063688 0.500000
O O14 0.649006 0.060890 0.782253
O O15 0.570164 0.000000 0.683040
O O16 0.665012 0.261410 0.000000
O O17 0.067938 0.721648 0.500000
O O18 0.000000 0.734201 0.721640
#
# Coordination Sequence:
#
# PCOD9566475 Si02
#       6
#    16  16  16  16  16  16
#     4  12  24  37  57  86 120 153 190 232 277 329
#     4  10  20  33  51  73  99 137 184 230 276 331
#     4  10  22  40  61  84 109 138 174 219 274 338
#     4  10  20  33  49  71 101 138 181 230 281 328
#     4  10  20  37  58  80 109 143 181 224 277 336
#     4  10  20  36  58  82 111 149 191 234 281 333
#
# _framework density 18.164012
#
# number of rings (size 3 to 8) (size 9 to 14) (size 15 to 20)
#    0.000    1.667    1.667    3.500    0.000    7.167 
#    0.000    2.500    0.000    3.000    0.000    0.000 
#    0.000    0.333    0.000    3.500    0.000    1.500 
#
# Total GULP energy -534605.177561 kJ/mol
# GULP energy per Si atom -5568.803933 kJ/mol
# Density = 1.812267 g / cm^3
# Si number density = 18.164012 Si / 1000 Ang^3
#
#
#
# Elastic Constant Matrix: (Units=GPa)
#
#
# Indices 1 2 3 4 5 6 
#
# 1 94.2547 59.2282 42.7371 0.0000 0.0000 0.0000
# 2 59.2282 94.2583 42.7383 0.0000 0.0000 0.0000
# 3 42.7371 42.7383 76.0242 0.0000 0.0000 0.0000
# 4 0.0000 0.0000 0.0000 26.7496 0.0000 0.0000
# 5 0.0000 0.0000 0.0000 0.0000 26.7498 0.0000
# 6 0.0000 0.0000 0.0000 0.0000 0.0000 9.3735
#
#
#
# Elastic Compliance Matrix: (Units=1/GPa)
#
#
# Indices 1 2 3 4 5 6 
#
# 1 0.019017 -0.009532 -0.005332 0.000000 0.000000 0.000000
# 2 -0.009532 0.019016 -0.005332 0.000000 0.000000 0.000000
# 3 -0.005332 -0.005332 0.019148 0.000000 0.000000 0.000000
# 4 0.000000 0.000000 0.000000 0.037384 0.000000 0.000000
# 5 0.000000 0.000000 0.000000 0.000000 0.037383 0.000000
# 6 0.000000 0.000000 0.000000 0.000000 0.000000 0.106684
#
#
# Mechanical properties :
#
#
# Convention : Reuss Voigt Hill
#
# Bulk Modulus (GPa) = 59.55858 61.54939 60.55398
# Shear Modulus (GPa) = 17.56727 20.56348 19.06537
#
# Velocity S-wave (km/s) = 3.11327 3.36832 3.24330
# Velocity P-wave (km/s) = 6.76637 7.00617 6.88731
#
# Compressibility (1/GPa) = 0.01679019
#
# Stress axis : x y z
#
# Youngs Moduli (GPa) = 52.58510 52.58682 52.22363
#
# Poissons Ratio (x) = 0.50125 0.27845
# Poissons Ratio (y) = 0.50123 0.27845
# Poissons Ratio (z) = 0.28037 0.28039
#
# Static dielectric constant tensor:
#      x y z
#    x 1.643070 0.000000 0.000000 
#    y 0.000000 1.643070 0.000000 
#    z 0.000000 0.000000 1.652280 
# 
# From -- ./inp_files/2265.got.cif
#   From: 2010.05.17/outbox.cif.g08.bks.cpg/sg131_2_cif.got.tgz:2265.got - 2010.05.20 12:21:01.
