data_PCOD9566146
_publ_section_title
;
Structure prediction by ZEFSAII (Michael W. Deem and Ramdas Pophale) SiO2 
 PCOD9566146
Probable space group: P 42/M M C
;
_chemical_formula_sum "Si O2"
_cell_formula_units_Z 58
_cell_length_a 16.766829
_cell_length_b 16.766829
_cell_length_c 9.701604
_cell_angle_alpha 90.000000
_cell_angle_beta 90.000000
_cell_angle_gamma 90.000000
_cell_volume 2727.378508
_symmetry_space_group_name_H-M "P 42/M M C"
_symmetry_group_IT_number 131
_symmetry_cell_setting 'tetragonal'
loop_
_space_group_symop_operation_xyz
x,y,z
-x,-y,z
-y,x,1/2+z
y,-x,1/2+z
-x,y,-z
x,-y,-z
y,x,1/2-z
-y,-x,1/2-z
-x,-y,-z
x,y,-z
y,-x,1/2-z
-y,x,1/2-z
x,-y,z
-x,y,z
-y,-x,1/2+z
y,x,1/2+z
loop_
_atom_site_type_symbol
_atom_site_label
_atom_site_fract_x
_atom_site_fract_y
_atom_site_fract_z
Si Si1 0.413038 0.311038 0.500000
Si Si2 0.139412 0.761268 0.838830
Si Si3 0.750174 0.591887 0.500000
Si Si4 0.165564 0.000000 0.845201
Si Si5 0.589048 0.831593 0.713092
Si Si6 0.000000 0.000000 0.500000
O O1 0.500000 0.353564 0.500000
O O2 0.331333 0.359013 0.500000
O O3 0.411847 0.251124 0.628848
O O4 0.219228 0.780773 0.750000
O O5 0.122175 0.666870 0.837527
O O6 0.073495 0.806425 0.748649
O O7 0.144024 0.787471 0.000000
O O8 0.724641 0.500000 0.500000
O O9 0.806076 0.603864 0.631033
O O10 0.204479 0.000000 0.000000
O O11 0.072452 0.000000 0.883722
O O12 0.500000 0.867356 0.696817
#
# Coordination Sequence:
#
# PCOD9566146 Si02
#       6
#     8  16   8   8  16   2
#     4  10  18  33  53  81 124 172 226 285 353 429
#     4  12  25  43  72 104 142 185 238 298 348 419
#     4  10  20  32  51  83 120 169 232 296 360 425
#     4  10  25  50  75 107 142 180 232 276 353 434
#     4  10  22  38  61  93 132 179 233 291 357 421
#     4   8  24  52  84 104 144 192 204 276 322 440
#
# _framework density 21.265841999999999
#
# number of rings (size 3 to 8) (size 9 to 14) (size 15 to 20)
#    0.414    1.103    1.379    3.724    3.862    1.379 
#    0.000    3.448    0.000    7.448    0.000    0.000 
#    0.000    0.000    0.000    0.000    0.000    0.000 
#
# Total GULP energy -322993.519809 kJ/mol
# GULP energy per Si atom -5568.853790 kJ/mol
# Density = 2.121744 g / cm^3
# Si number density = 21.265842 Si / 1000 Ang^3
#
#
#
# Elastic Constant Matrix: (Units=GPa)
#
#
# Indices 1 2 3 4 5 6 
#
# 1 99.0748 30.5780 29.4055 0.0000 0.0000 0.0000
# 2 30.5780 99.0760 29.4058 0.0000 0.0000 0.0000
# 3 29.4055 29.4058 200.7323 0.0000 0.0000 0.0000
# 4 0.0000 0.0000 0.0000 18.3279 0.0000 0.0000
# 5 0.0000 0.0000 0.0000 0.0000 18.3275 0.0000
# 6 0.0000 0.0000 0.0000 0.0000 0.0000 13.9126
#
#
#
# Elastic Compliance Matrix: (Units=1/GPa)
#
#
# Indices 1 2 3 4 5 6 
#
# 1 0.011431 -0.003169 -0.001210 0.000000 0.000000 0.000000
# 2 -0.003169 0.011430 -0.001210 0.000000 0.000000 0.000000
# 3 -0.001210 -0.001210 0.005336 0.000000 0.000000 0.000000
# 4 0.000000 0.000000 0.000000 0.054562 0.000000 0.000000
# 5 0.000000 0.000000 0.000000 0.000000 0.054563 0.000000
# 6 0.000000 0.000000 0.000000 0.000000 0.000000 0.071877
#
#
# Mechanical properties :
#
#
# Convention : Reuss Voigt Hill
#
# Bulk Modulus (GPa) = 58.75819 64.18463 61.47141
# Shear Modulus (GPa) = 22.11898 30.74653 26.43276
#
# Velocity S-wave (km/s) = 3.22858 3.80652 3.52940
# Velocity P-wave (km/s) = 6.44893 7.04038 6.75113
#
# Compressibility (1/GPa) = 0.01701891
#
# Stress axis : x y z
#
# Youngs Moduli (GPa) = 87.48488 87.48586 187.39379
#
# Poissons Ratio (x) = 0.27721 0.22680
# Poissons Ratio (y) = 0.27721 0.22680
# Poissons Ratio (z) = 0.10588 0.10588
#
# Static dielectric constant tensor:
#      x y z
#    x 1.839340 0.000000 0.000000 
#    y 0.000000 1.839340 0.000000 
#    z 0.000000 0.000000 2.252930 
# 
# From -- ./inp_files/1323.got.cif
#   From: 2010.05.17/outbox.cif.g08.bks.cpg/sg131_1_cif.got.tgz:1323.got - 2010.05.20 12:21:01.
