data_PCOD9566567
_publ_section_title
;
Structure prediction by ZEFSAII (Michael W. Deem and Ramdas Pophale) SiO2 
 PCOD9566567
Probable space group: P 42/M M C
;
_chemical_formula_sum "Si O2"
_cell_formula_units_Z 96
_cell_length_a 24.299590
_cell_length_b 24.299590
_cell_length_c 9.645545
_cell_angle_alpha 90.000000
_cell_angle_beta 90.000000
_cell_angle_gamma 90.000000
_cell_volume 5695.405672
_symmetry_space_group_name_H-M "P 42/M M C"
_symmetry_group_IT_number 131
_symmetry_cell_setting 'tetragonal'
loop_
_space_group_symop_operation_xyz
x,y,z
-x,-y,z
-y,x,1/2+z
y,-x,1/2+z
-x,y,-z
x,-y,-z
y,x,1/2-z
-y,-x,1/2-z
-x,-y,-z
x,y,-z
y,-x,1/2-z
-y,x,1/2-z
x,-y,z
-x,y,z
-y,-x,1/2+z
y,x,1/2+z
loop_
_atom_site_type_symbol
_atom_site_label
_atom_site_fract_x
_atom_site_fract_y
_atom_site_fract_z
Si Si1 0.871889 0.565878 0.664381
Si Si2 0.121695 0.121695 0.250000
Si Si3 0.564551 0.642724 0.335065
Si Si4 0.767440 0.433418 0.843067
Si Si5 0.065624 0.765976 0.666253
Si Si6 0.065093 0.062682 0.000000
Si Si7 0.344259 0.065902 0.660479
O O1 0.875751 0.576962 0.500000
O O2 0.880663 0.500000 0.684255
O O3 0.812056 0.580485 0.727637
O O4 0.912485 0.603095 0.755029
O O5 0.184294 0.104672 0.216700
O O6 0.098083 0.085930 0.373948
O O7 0.600028 0.600028 0.250000
O O8 0.569081 0.633294 0.500000
O O9 0.500000 0.638749 0.298505
O O10 0.583977 0.705399 0.309359
O O11 0.765683 0.500000 0.849182
O O12 0.782139 0.414782 0.000000
O O13 0.072090 0.758180 0.500000
O O14 0.079513 0.710988 0.752797
O O15 0.000000 0.778626 0.689741
O O16 0.000000 0.058372 0.000000
O O17 0.087951 0.000000 0.000000
O O18 0.342749 0.085648 0.500000
O O19 0.346921 0.000000 0.656071
#
# Coordination Sequence:
#
# PCOD9566567 Si02
#       7
#    16   8  16  16  16   8  16
#     4  10  20  34  56  86 115 142 172 212 267 323
#     4  12  22  35  56  80 108 146 188 228 278 334
#     4   9  18  31  47  70 101 137 178 219 264 312
#     4   8  15  30  51  73 100 135 174 215 258 310
#     4  10  21  38  57  78 107 145 187 228 273 325
#     4  11  22  34  50  78 114 144 178 230 286 334
#     4  10  22  38  58  83 110 144 183 221 262 315
#
# _framework density 16.855691
#
# number of rings (size 3 to 8) (size 9 to 14) (size 15 to 20)
#    0.000    2.250    0.833    3.500    1.167    4.167 
#    0.000    4.167    1.833    0.000    0.000    0.000 
#    0.000    0.000    0.000    0.000    0.000    0.000 
#
# Total GULP energy -534923.624839 kJ/mol
# GULP energy per Si atom -5572.121092 kJ/mol
# Density = 1.681733 g / cm^3
# Si number density = 16.855691 Si / 1000 Ang^3
#
#
#
# Elastic Constant Matrix: (Units=GPa)
#
#
# Indices 1 2 3 4 5 6 
#
# 1 75.6122 44.7915 60.3796 0.0000 0.0000 0.0000
# 2 44.7915 75.6122 60.3796 0.0000 0.0000 0.0000
# 3 60.3796 60.3796 136.0934 0.0000 0.0000 0.0000
# 4 0.0000 0.0000 0.0000 30.5065 0.0000 0.0000
# 5 0.0000 0.0000 0.0000 0.0000 30.5065 0.0000
# 6 0.0000 0.0000 0.0000 0.0000 0.0000 -20.1145
#
#
#
# Elastic Compliance Matrix: (Units=1/GPa)
#
#
# Indices 1 2 3 4 5 6 
#
# 1 0.023705 -0.008741 -0.006639 0.000000 0.000000 0.000000
# 2 -0.008741 0.023705 -0.006639 0.000000 0.000000 0.000000
# 3 -0.006639 -0.006639 0.013239 0.000000 0.000000 0.000000
# 4 0.000000 0.000000 0.000000 0.032780 0.000000 0.000000
# 5 0.000000 0.000000 0.000000 0.000000 0.032780 0.000000
# 6 0.000000 0.000000 0.000000 0.000000 0.000000 -0.049715
#
#
# Mechanical properties :
#
#
# Convention : Reuss Voigt Hill
#
# Bulk Modulus (GPa) = 60.20140 68.71323 64.45732
# Shear Modulus (GPa) = 39.66133 16.29752 27.97942
#
# Velocity S-wave (km/s) = 4.85603 3.11285 4.07866
# Velocity P-wave (km/s) = 8.19967 7.33307 7.77845
#
# Compressibility (1/GPa) = 0.01661091
#
# Stress axis : x y z
#
# Youngs Moduli (GPa) = 42.18548 42.18548 75.53554
#
# Poissons Ratio (x) = 0.36874 0.50148
# Poissons Ratio (y) = 0.36874 0.50148
# Poissons Ratio (z) = 0.28007 0.28007
#
# Static dielectric constant tensor:
#      x y z
#    x 1.565190 0.000000 0.000000 
#    y 0.000000 1.565190 0.000000 
#    z 0.000000 0.000000 1.555000 
# 
# From -- ./inp_files/2355.got.cif
#   From: 2010.05.17/outbox.cif.g08.bks.cpg/sg131_2_cif.got.tgz:2355.got - 2010.05.20 12:21:01.
