data_PCOD9566099
_publ_section_title
;
Structure prediction by ZEFSAII (Michael W. Deem and Ramdas Pophale) SiO2 
 PCOD9566099
Probable space group: P 42/M M C
;
_chemical_formula_sum "Si O2"
_cell_formula_units_Z 80
_cell_length_a 23.597271
_cell_length_b 23.597271
_cell_length_c 7.822950
_cell_angle_alpha 90.000000
_cell_angle_beta 90.000000
_cell_angle_gamma 90.000000
_cell_volume 4356.062625
_symmetry_space_group_name_H-M "P 42/M M C"
_symmetry_group_IT_number 131
_symmetry_cell_setting 'tetragonal'
loop_
_space_group_symop_operation_xyz
x,y,z
-x,-y,z
-y,x,1/2+z
y,-x,1/2+z
-x,y,-z
x,-y,-z
y,x,1/2-z
-y,-x,1/2-z
-x,-y,-z
x,y,-z
y,-x,1/2-z
-y,x,1/2-z
x,-y,z
-x,y,z
-y,-x,1/2+z
y,x,1/2+z
loop_
_atom_site_type_symbol
_atom_site_label
_atom_site_fract_x
_atom_site_fract_y
_atom_site_fract_z
Si Si1 0.500000 0.273559 0.194968
Si Si2 0.936732 0.155761 0.205276
Si Si3 0.714112 0.378631 0.203499
Si Si4 0.376610 0.844641 0.710121
Si Si5 0.851917 0.500000 0.806279
Si Si6 0.935426 0.284333 0.791276
O O1 0.559442 0.304218 0.228388
O O2 0.500000 0.216937 0.309548
O O3 0.500000 0.253685 0.000000
O O4 0.889618 0.110383 0.250000
O O5 0.923873 0.219761 0.264784
O O6 0.000000 0.140254 0.267322
O O7 0.939238 0.158432 0.000000
O O8 0.671206 0.328795 0.250000
O O9 0.779113 0.368126 0.263869
O O10 0.716111 0.382575 0.000000
O O11 0.377781 0.844530 0.500000
O O12 0.438741 0.865423 0.770331
O O13 0.327909 0.887508 0.766302
O O14 0.874224 0.500000 0.000000
O O15 0.000000 0.299032 0.740560
O O16 0.934587 0.284877 0.000000
#
# Coordination Sequence:
#
# PCOD9566099 Si02
#       6
#     8  16  16  16   8  16
#     4  10  18  30  48  68  92 125 160 191 230 277
#     4   9  18  31  46  64  85 111 144 181 223 271
#     4  10  19  31  47  70  98 124 154 193 235 277
#     4   8  14  25  42  63  90 122 152 187 229 268
#     4   8  14  26  43  64  91 121 152 189 232 271
#     4   8  14  26  43  63  90 123 154 185 228 279
#
# _framework density 18.365207999999999
#
# number of rings (size 3 to 8) (size 9 to 14) (size 15 to 20)
#    0.000    3.200    0.000    3.900    0.000    1.400 
#    0.000    1.500    0.000    8.100    0.000    2.100 
#    0.000   12.800    0.000    0.000    0.000    0.000 
#
# Total GULP energy -445481.839602 kJ/mol
# GULP energy per Si atom -5568.522995 kJ/mol
# Density = 1.832341 g / cm^3
# Si number density = 18.365208 Si / 1000 Ang^3
#
#
#
# Elastic Constant Matrix: (Units=GPa)
#
#
# Indices 1 2 3 4 5 6 
#
# 1 146.1952 120.5536 9.2112 0.0000 0.0000 0.0000
# 2 120.5536 146.1938 9.2111 0.0000 0.0000 0.0000
# 3 9.2112 9.2111 35.1647 0.0000 0.0000 0.0000
# 4 0.0000 0.0000 0.0000 12.6185 0.0000 0.0000
# 5 0.0000 0.0000 0.0000 0.0000 12.6184 0.0000
# 6 0.0000 0.0000 0.0000 0.0000 0.0000 -11.3886
#
#
#
# Elastic Compliance Matrix: (Units=1/GPa)
#
#
# Indices 1 2 3 4 5 6 
#
# 1 0.021409 -0.017591 -0.001000 0.000000 0.000000 0.000000
# 2 -0.017591 0.021409 -0.001000 0.000000 0.000000 0.000000
# 3 -0.001000 -0.001000 0.028962 0.000000 0.000000 0.000000
# 4 0.000000 0.000000 0.000000 0.079249 0.000000 0.000000
# 5 0.000000 0.000000 0.000000 0.000000 0.079249 0.000000
# 6 0.000000 0.000000 0.000000 0.000000 0.000000 -0.087807
#
#
# Mechanical properties :
#
#
# Convention : Reuss Voigt Hill
#
# Bulk Modulus (GPa) = 30.67763 67.27839 48.97801
# Shear Modulus (GPa) = 25.97153 15.34153 20.65653
#
# Velocity S-wave (km/s) = 3.76462 2.89339 3.35739
# Velocity P-wave (km/s) = 5.96967 6.91921 6.46191
#
# Compressibility (1/GPa) = 0.03259705
#
# Stress axis : x y z
#
# Youngs Moduli (GPa) = 46.70935 46.70892 34.52860
#
# Poissons Ratio (x) = 0.82166 0.03453
# Poissons Ratio (y) = 0.82167 0.03453
# Poissons Ratio (z) = 0.04671 0.04671
#
# Static dielectric constant tensor:
#      x y z
#    x 1.634710 0.000000 0.000000 
#    y 0.000000 1.634710 0.000000 
#    z 0.000000 0.000000 1.696700 
# 
# From -- ./inp_files/2096.got.cif
#   From: 2010.05.17/outbox.cif.g08.bks.cpg/sg131_2_cif.got.tgz:2096.got - 2010.05.20 12:21:01.
