data_PCOD9566006
_publ_section_title
;
Structure prediction by ZEFSAII (Michael W. Deem and Ramdas Pophale) SiO2 
 PCOD9566006
Probable space group: P 4/N C C
;
_chemical_formula_sum "Si O2"
_cell_formula_units_Z 56
_cell_length_a 14.862210
_cell_length_b 14.862210
_cell_length_c 9.955547
_cell_angle_alpha 90.000000
_cell_angle_beta 90.000000
_cell_angle_gamma 90.000000
_cell_volume 2199.033847
_symmetry_space_group_name_H-M "P 4/N C C"
_symmetry_group_IT_number 130
_symmetry_cell_setting 'tetragonal'
loop_
_space_group_symop_operation_xyz
x,y,z
1/2-y,x,z
1/2-x,1/2-y,z
y,1/2-x,z
1/2+x,-y,1/2-z
-x,1/2+y,1/2-z
1/2+y,1/2+x,1/2-z
-y,-x,1/2-z
-x,-y,-z
1/2+y,-x,-z
1/2+x,1/2+y,-z
-y,1/2+x,-z
1/2-x,y,1/2+z
x,1/2-y,1/2+z
1/2-y,1/2-x,1/2+z
y,x,1/2+z
loop_
_atom_site_type_symbol
_atom_site_label
_atom_site_fract_x
_atom_site_fract_y
_atom_site_fract_z
Si Si1 0.750000 0.250000 0.750000
Si Si2 0.929872 0.308590 0.399039
Si Si3 0.750000 0.750000 0.269941
Si Si4 0.373438 0.511697 0.961015
Si Si5 0.416621 0.391353 0.720178
O O1 0.759734 0.159260 0.660932
O O2 0.902660 0.389777 0.494620
O O3 0.988072 0.234270 0.475296
O O4 0.992386 0.347097 0.280585
O O5 0.665226 0.677883 0.270301
O O6 0.412870 0.440506 0.066949
O O7 0.394852 0.476320 0.813465
#
# Coordination Sequence:
#
# PCOD9566006 Si02
#       5
#     4  16   4  16  16
#     4  12  24  54  84 128 174 226 280 372 462 526
#     4  12  26  51  83 123 171 217 286 363 448 518
#     4  12  28  54  80 110 164 234 288 350 424 522
#     4  12  28  53  84 124 170 226 282 367 438 538
#     4  12  28  52  82 118 167 222 296 352 440 512
#
# _framework density 25.465727000000001
#
# number of rings (size 3 to 8) (size 9 to 14) (size 15 to 20)
#    0.000    0.000    5.714    2.571    4.000    1.143 
#    5.143    0.000    0.000    0.000    0.000    0.000 
#    0.000    0.000    0.000    0.000    0.000    0.000 
#
# Total GULP energy -313208.554354 kJ/mol
# GULP energy per Si atom -5593.009899 kJ/mol
# Density = 2.540777 g / cm^3
# Si number density = 25.465727 Si / 1000 Ang^3
#
#
#
# Elastic Constant Matrix: (Units=GPa)
#
#
# Indices 1 2 3 4 5 6 
#
# 1 170.4429 47.4407 46.2596 0.0000 0.0000 0.0000
# 2 47.4407 170.4429 46.2596 0.0000 0.0000 0.0000
# 3 46.2596 46.2596 93.0280 0.0000 0.0000 0.0000
# 4 0.0000 0.0000 0.0000 29.1278 0.0000 0.0000
# 5 0.0000 0.0000 0.0000 0.0000 29.1278 0.0000
# 6 0.0000 0.0000 0.0000 0.0000 0.0000 71.1436
#
#
#
# Elastic Compliance Matrix: (Units=1/GPa)
#
#
# Indices 1 2 3 4 5 6 
#
# 1 0.006974 -0.001156 -0.002893 0.000000 0.000000 0.000000
# 2 -0.001156 0.006974 -0.002893 0.000000 0.000000 0.000000
# 3 -0.002893 -0.002893 0.013627 0.000000 0.000000 0.000000
# 4 0.000000 0.000000 0.000000 0.034331 0.000000 0.000000
# 5 0.000000 0.000000 0.000000 0.000000 0.034331 0.000000
# 6 0.000000 0.000000 0.000000 0.000000 0.000000 0.014056
#
#
# Mechanical properties :
#
#
# Convention : Reuss Voigt Hill
#
# Bulk Modulus (GPa) = 73.04378 79.31483 76.17931
# Shear Modulus (GPa) = 38.83746 45.47678 42.15712
#
# Velocity S-wave (km/s) = 3.90947 4.23046 4.07313
# Velocity P-wave (km/s) = 7.00886 7.42130 7.21803
#
# Compressibility (1/GPa) = 0.01369042
#
# Stress axis : x y z
#
# Youngs Moduli (GPa) = 143.38926 143.38926 73.38495
#
# Poissons Ratio (x) = 0.16575 0.21231
# Poissons Ratio (y) = 0.16575 0.21231
# Poissons Ratio (z) = 0.41485 0.41485
#
# Static dielectric constant tensor:
#      x y z
#    x 2.008530 0.000000 0.000000 
#    y 0.000000 2.008530 0.000000 
#    z 0.000000 0.000000 2.022600 
# 
# From -- ./inp_files/1437.got.cif
#   From: 2010.05.17/outbox.cif.g08.bks.cpg/sg130_1_cif.got.tgz:1437.got - 2010.05.20 12:17:35.
