data_PCOD9566353
_publ_section_title
;
Structure prediction by ZEFSAII (Michael W. Deem and Ramdas Pophale) SiO2 
 PCOD9566353
Probable space group: P 42/M M C
;
_chemical_formula_sum "Si O2"
_cell_formula_units_Z 88
_cell_length_a 12.617158
_cell_length_b 12.617158
_cell_length_c 31.536262
_cell_angle_alpha 90.000000
_cell_angle_beta 90.000000
_cell_angle_gamma 90.000000
_cell_volume 5020.341939
_symmetry_space_group_name_H-M "P 42/M M C"
_symmetry_group_IT_number 131
_symmetry_cell_setting 'tetragonal'
loop_
_space_group_symop_operation_xyz
x,y,z
-x,-y,z
-y,x,1/2+z
y,-x,1/2+z
-x,y,-z
x,-y,-z
y,x,1/2-z
-y,-x,1/2-z
-x,-y,-z
x,y,-z
y,-x,1/2-z
-y,x,1/2-z
x,-y,z
-x,y,z
-y,-x,1/2+z
y,x,1/2+z
loop_
_atom_site_type_symbol
_atom_site_label
_atom_site_fract_x
_atom_site_fract_y
_atom_site_fract_z
Si Si1 0.872584 0.000000 0.949011
Si Si2 0.209189 0.771217 0.404637
Si Si3 0.620466 0.377285 0.550977
Si Si4 0.383768 0.127496 0.832411
Si Si5 0.293447 0.873096 0.742232
Si Si6 0.874062 0.618381 0.848406
O O1 0.822178 0.107613 0.928561
O O2 0.000000 0.000000 0.941665
O O3 0.854668 0.000000 0.000000
O O4 0.283806 0.694994 0.432762
O O5 0.167023 0.703319 0.364953
O O6 0.293398 0.851295 0.383634
O O7 0.621441 0.374634 0.500000
O O8 0.635253 0.500000 0.564146
O O9 0.500000 0.345189 0.564174
O O10 0.500000 0.166003 0.845203
O O11 0.361401 0.156345 0.783626
O O12 0.383130 0.000000 0.833987
O O13 0.180376 0.819625 0.750000
O O14 0.343448 0.835219 0.697951
O O15 0.285067 0.000000 0.740798
O O16 0.832793 0.500000 0.858084
O O17 0.000000 0.610429 0.844493
#
# Coordination Sequence:
#
# PCOD9566353 Si02
#       6
#     8  16  16  16  16  16
#     4  11  26  44  59  81 117 157 190 234 303 369
#     4  12  20  36  59  85 109 145 189 237 281 341
#     4   9  19  36  57  82 111 142 179 228 287 344
#     4  10  20  34  53  79 111 145 184 227 275 332
#     4  10  19  34  52  78 113 154 189 227 278 332
#     4  10  21  36  56  82 112 147 191 237 281 332
#
# _framework density 17.528686
#
# number of rings (size 3 to 8) (size 9 to 14) (size 15 to 20)
#    0.000    1.727    2.727    3.273    0.000    2.364 
#    0.000    0.000    0.000    2.182    0.000    8.909 
#    0.000    0.000    0.000    0.000    0.000    0.000 
#
# Total GULP energy -490277.719836 kJ/mol
# GULP energy per Si atom -5571.337725 kJ/mol
# Density = 1.748879 g / cm^3
# Si number density = 17.528686 Si / 1000 Ang^3
#
#
#
# Elastic Constant Matrix: (Units=GPa)
#
#
# Indices 1 2 3 4 5 6 
#
# 1 98.5661 57.4988 51.1491 0.0000 0.0000 0.0000
# 2 57.4988 98.5619 51.1499 0.0000 0.0000 0.0000
# 3 51.1491 51.1499 93.8155 0.0000 0.0000 0.0000
# 4 0.0000 0.0000 0.0000 27.4554 0.0000 0.0000
# 5 0.0000 0.0000 0.0000 0.0000 27.4555 0.0000
# 6 0.0000 0.0000 0.0000 0.0000 0.0000 26.2230
#
#
#
# Elastic Compliance Matrix: (Units=1/GPa)
#
#
# Indices 1 2 3 4 5 6 
#
# 1 0.017161 -0.007190 -0.005436 0.000000 0.000000 0.000000
# 2 -0.007190 0.017162 -0.005437 0.000000 0.000000 0.000000
# 3 -0.005436 -0.005437 0.016587 0.000000 0.000000 0.000000
# 4 0.000000 0.000000 0.000000 0.036423 0.000000 0.000000
# 5 0.000000 0.000000 0.000000 0.000000 0.036423 0.000000
# 6 0.000000 0.000000 0.000000 0.000000 0.000000 0.038134
#
#
# Mechanical properties :
#
#
# Convention : Reuss Voigt Hill
#
# Bulk Modulus (GPa) = 67.64089 67.83766 67.73927
# Shear Modulus (GPa) = 24.63735 24.96984 24.80359
#
# Velocity S-wave (km/s) = 3.75313 3.77837 3.76577
# Velocity P-wave (km/s) = 7.57982 7.60393 7.59188
#
# Compressibility (1/GPa) = 0.01478396
#
# Stress axis : x y z
#
# Youngs Moduli (GPa) = 58.27235 58.26818 60.28707
#
# Poissons Ratio (x) = 0.41896 0.32772
# Poissons Ratio (y) = 0.41899 0.32778
# Poissons Ratio (z) = 0.31677 0.31680
#
# Static dielectric constant tensor:
#      x y z
#    x 1.600590 0.000000 0.000000 
#    y 0.000000 1.600590 0.000000 
#    z 0.000000 0.000000 1.595280 
# 
# From -- ./inp_files/13550.got.cif
#   From: 2010.05.17/outbox.cif.g08.bks.cpg/sg131_7_cif.got.tgz:13550.got - 2010.05.20 12:21:01.
