data_PCOD9566227
_publ_section_title
;
Structure prediction by ZEFSAII (Michael W. Deem and Ramdas Pophale) SiO2 
 PCOD9566227
Probable space group: P 42/M M C
;
_chemical_formula_sum "Si O2"
_cell_formula_units_Z 96
_cell_length_a 25.633054
_cell_length_b 25.633054
_cell_length_c 8.892248
_cell_angle_alpha 90.000000
_cell_angle_beta 90.000000
_cell_angle_gamma 90.000000
_cell_volume 5842.682292
_symmetry_space_group_name_H-M "P 42/M M C"
_symmetry_group_IT_number 131
_symmetry_cell_setting 'tetragonal'
loop_
_space_group_symop_operation_xyz
x,y,z
-x,-y,z
-y,x,1/2+z
y,-x,1/2+z
-x,y,-z
x,-y,-z
y,x,1/2-z
-y,-x,1/2-z
-x,-y,-z
x,y,-z
y,-x,1/2-z
-y,x,1/2-z
x,-y,z
-x,y,z
-y,-x,1/2+z
y,x,1/2+z
loop_
_atom_site_type_symbol
_atom_site_label
_atom_site_fract_x
_atom_site_fract_y
_atom_site_fract_z
Si Si1 0.216469 0.337297 0.678330
Si Si2 0.118719 0.605553 0.179496
Si Si3 0.610361 0.315291 0.319618
Si Si4 0.144957 0.500000 0.678779
Si Si5 0.290451 0.940692 0.318894
Si Si6 0.230929 0.154990 0.823345
Si Si7 0.500000 0.261835 0.319522
O O1 0.216301 0.349147 0.500000
O O2 0.173982 0.371633 0.765859
O O3 0.271344 0.351817 0.749722
O O4 0.196565 0.278235 0.697004
O O5 0.114795 0.550671 0.261281
O O6 0.077106 0.650436 0.219797
O O7 0.118631 0.598578 0.000000
O O8 0.630194 0.369807 0.250000
O O9 0.615340 0.316761 0.500000
O O10 0.551984 0.295034 0.282369
O O11 0.148204 0.500000 0.500000
O O12 0.204590 0.500000 0.743409
O O13 0.286535 0.937834 0.500000
O O14 0.251431 0.898433 0.249367
O O15 0.280710 0.000000 0.271118
O O16 0.179937 0.179937 0.750000
O O17 0.223386 0.147624 0.000000
O O18 0.500000 0.252959 0.500000
#
# Coordination Sequence:
#
# PCOD9566227 Si02
#       7
#    16  16  16   8  16  16   8
#     4  10  19  31  48  74 104 133 165 200 246 304
#     4  10  19  32  51  73 101 135 171 213 261 306
#     4  11  22  35  52  73  99 127 159 198 247 306
#     4  12  22  32  51  75 101 132 172 214 256 305
#     4   9  19  36  56  76 101 138 181 221 263 312
#     4  10  20  32  49  75 107 140 174 213 257 304
#     4  10  22  38  54  72  98 130 161 199 251 307
#
# _framework density 16.430809
#
# number of rings (size 3 to 8) (size 9 to 14) (size 15 to 20)
#    0.000    1.833    1.667    3.250    0.000    5.000 
#    0.000    0.417    0.000    2.750    0.000    1.750 
#    0.000    0.333    0.000    3.500    0.000    1.500 
#
# Total GULP energy -535727.288488 kJ/mol
# GULP energy per Si atom -5580.492588 kJ/mol
# Density = 1.639341 g / cm^3
# Si number density = 16.430809 Si / 1000 Ang^3
#
#
#
# Elastic Constant Matrix: (Units=GPa)
#
#
# Indices 1 2 3 4 5 6 
#
# 1 92.3424 73.3508 50.1558 0.0000 0.0000 0.0000
# 2 73.3508 92.3376 50.1563 0.0000 0.0000 0.0000
# 3 50.1558 50.1563 61.8047 0.0000 0.0000 0.0000
# 4 0.0000 0.0000 0.0000 20.4880 0.0000 0.0000
# 5 0.0000 0.0000 0.0000 0.0000 20.4881 0.0000
# 6 0.0000 0.0000 0.0000 0.0000 0.0000 5.3484
#
#
#
# Elastic Compliance Matrix: (Units=1/GPa)
#
#
# Indices 1 2 3 4 5 6 
#
# 1 0.032261 -0.020398 -0.009627 0.000000 0.000000 0.000000
# 2 -0.020398 0.032265 -0.009630 0.000000 0.000000 0.000000
# 3 -0.009627 -0.009630 0.031807 0.000000 0.000000 0.000000
# 4 0.000000 0.000000 0.000000 0.048809 0.000000 0.000000
# 5 0.000000 0.000000 0.000000 0.000000 0.048809 0.000000
# 6 0.000000 0.000000 0.000000 0.000000 0.000000 0.186973
#
#
# Mechanical properties :
#
#
# Convention : Reuss Voigt Hill
#
# Bulk Modulus (GPa) = 58.74430 65.97894 62.36162
# Shear Modulus (GPa) = 10.73172 14.11968 12.42570
#
# Velocity S-wave (km/s) = 2.55844 2.93463 2.75297
# Velocity P-wave (km/s) = 6.67515 7.19205 6.93842
#
# Compressibility (1/GPa) = 0.01702293
#
# Stress axis : x y z
#
# Youngs Moduli (GPa) = 30.99697 30.99363 31.43935
#
# Poissons Ratio (x) = 0.63222 0.30266
# Poissons Ratio (y) = 0.63229 0.30276
# Poissons Ratio (z) = 0.29840 0.29847
#
# Static dielectric constant tensor:
#      x y z
#    x 1.621630 0.000000 0.000000 
#    y 0.000000 1.621850 0.000000 
#    z 0.000000 0.000000 1.546280 
# 
# From -- ./inp_files/2320.got.cif
#   From: 2010.05.17/outbox.cif.g08.bks.cpg/sg131_2_cif.got.tgz:2320.got - 2010.05.20 12:21:01.
