data_PCOD9566380
_publ_section_title
;
Structure prediction by ZEFSAII (Michael W. Deem and Ramdas Pophale) SiO2 
 PCOD9566380
Probable space group: P 42/M M C
;
_chemical_formula_sum "Si O2"
_cell_formula_units_Z 52
_cell_length_a 11.441536
_cell_length_b 11.441536
_cell_length_c 21.150251
_cell_angle_alpha 90.000000
_cell_angle_beta 90.000000
_cell_angle_gamma 90.000000
_cell_volume 2768.752837
_symmetry_space_group_name_H-M "P 42/M M C"
_symmetry_group_IT_number 131
_symmetry_cell_setting 'tetragonal'
loop_
_space_group_symop_operation_xyz
x,y,z
-x,-y,z
-y,x,1/2+z
y,-x,1/2+z
-x,y,-z
x,-y,-z
y,x,1/2-z
-y,-x,1/2-z
-x,-y,-z
x,y,-z
y,-x,1/2-z
-y,x,1/2-z
x,-y,z
-x,y,z
-y,-x,1/2+z
y,x,1/2+z
loop_
_atom_site_type_symbol
_atom_site_label
_atom_site_fract_x
_atom_site_fract_y
_atom_site_fract_z
Si Si1 0.633789 0.500000 0.861882
Si Si2 0.700211 0.500000 0.000000
Si Si3 0.726311 0.861053 0.500000
Si Si4 0.862114 0.137887 0.750000
Si Si5 0.754947 0.263921 0.629564
Si Si6 0.140304 0.500000 0.574113
O O1 0.500000 0.500000 0.835705
O O2 0.624751 0.500000 0.937732
O O3 0.707338 0.380502 0.850672
O O4 0.787462 0.392244 0.000000
O O5 0.776218 0.818501 0.432269
O O6 0.713749 0.000000 0.500000
O O7 0.818208 0.207424 0.688938
O O8 0.000000 0.157593 0.759362
O O9 0.808476 0.387049 0.608248
O O10 0.176030 0.500000 0.500000
O O11 0.000000 0.500000 0.576517
#
# Coordination Sequence:
#
# PCOD9566380 Si02
#       6
#     8   4   8   8  16   8
#     4  10  19  34  60  94 128 162 197 249 323 388
#     4   8  18  28  54  86 128 163 201 242 302 376
#     4  10  19  34  58  89 124 161 209 264 310 372
#     4  11  26  48  67  86 124 176 225 272 324 387
#     4  11  22  40  64  96 127 169 214 266 329 393
#     4  11  22  38  63  96 133 169 217 277 329 384
#
# _framework density 18.781018
#
# number of rings (size 3 to 8) (size 9 to 14) (size 15 to 20)
#    0.000    1.538    3.077    2.308    0.000    1.231 
#    0.000    3.846    0.000    3.692    0.000    0.000 
#    0.000    0.000    0.000    0.000    0.000    0.000 
#
# Total GULP energy -289946.289721 kJ/mol
# GULP energy per Si atom -5575.890187 kJ/mol
# Density = 1.873827 g / cm^3
# Si number density = 18.781018 Si / 1000 Ang^3
#
#
#
# Elastic Constant Matrix: (Units=GPa)
#
#
# Indices 1 2 3 4 5 6 
#
# 1 121.6788 53.0785 59.1955 0.0000 0.0000 0.0000
# 2 53.0785 121.6781 59.1957 0.0000 0.0000 0.0000
# 3 59.1955 59.1957 136.5044 0.0000 0.0000 0.0000
# 4 0.0000 0.0000 0.0000 24.2479 0.0000 0.0000
# 5 0.0000 0.0000 0.0000 0.0000 24.2464 0.0000
# 6 0.0000 0.0000 0.0000 0.0000 0.0000 28.4947
#
#
#
# Elastic Compliance Matrix: (Units=1/GPa)
#
#
# Indices 1 2 3 4 5 6 
#
# 1 0.011340 -0.003237 -0.003514 0.000000 0.000000 0.000000
# 2 -0.003237 0.011340 -0.003514 0.000000 0.000000 0.000000
# 3 -0.003514 -0.003514 0.010373 0.000000 0.000000 0.000000
# 4 0.000000 0.000000 0.000000 0.041241 0.000000 0.000000
# 5 0.000000 0.000000 0.000000 0.000000 0.041243 0.000000
# 6 0.000000 0.000000 0.000000 0.000000 0.000000 0.035094
#
#
# Mechanical properties :
#
#
# Convention : Reuss Voigt Hill
#
# Bulk Modulus (GPa) = 79.84920 80.31117 80.08019
# Shear Modulus (GPa) = 28.51674 29.29057 28.90365
#
# Velocity S-wave (km/s) = 3.90087 3.95344 3.92724
# Velocity P-wave (km/s) = 7.93078 7.98087 7.95586
#
# Compressibility (1/GPa) = 0.01252361
#
# Stress axis : x y z
#
# Youngs Moduli (GPa) = 88.18405 88.18333 96.40161
#
# Poissons Ratio (x) = 0.28548 0.33873
# Poissons Ratio (y) = 0.28548 0.33873
# Poissons Ratio (z) = 0.30985 0.30986
#
# Static dielectric constant tensor:
#      x y z
#    x 1.636350 0.000000 0.000000 
#    y 0.000000 1.636350 0.000000 
#    z 0.000000 0.000000 1.658920 
# 
# From -- ./inp_files/9119.got.cif
#   From: 2010.05.17/outbox.cif.g08.bks.cpg/sg131_5_cif.got.tgz:9119.got - 2010.05.20 12:21:01.
