data_PCOD9566805
_publ_section_title
;
Structure prediction by ZEFSAII (Michael W. Deem and Ramdas Pophale) SiO2 
 PCOD9566805
Probable space group: P 42/M M C
;
_chemical_formula_sum "Si O2"
_cell_formula_units_Z 64
_cell_length_a 12.079352
_cell_length_b 12.079352
_cell_length_c 27.531896
_cell_angle_alpha 90.000000
_cell_angle_beta 90.000000
_cell_angle_gamma 90.000000
_cell_volume 4017.199449
_symmetry_space_group_name_H-M "P 42/M M C"
_symmetry_group_IT_number 131
_symmetry_cell_setting 'tetragonal'
loop_
_space_group_symop_operation_xyz
x,y,z
-x,-y,z
-y,x,1/2+z
y,-x,1/2+z
-x,y,-z
x,-y,-z
y,x,1/2-z
-y,-x,1/2-z
-x,-y,-z
x,y,-z
y,-x,1/2-z
-y,x,1/2-z
x,-y,z
-x,y,z
-y,-x,1/2+z
y,x,1/2+z
loop_
_atom_site_type_symbol
_atom_site_label
_atom_site_fract_x
_atom_site_fract_y
_atom_site_fract_z
Si Si1 0.367742 0.122773 0.443488
Si Si2 0.734220 0.802396 0.104243
Si Si3 0.127524 0.867681 0.807225
Si Si4 0.500000 0.866024 0.941779
Si Si5 0.873564 0.000000 0.942144
O O1 0.335339 0.133222 0.500000
O O2 0.500000 0.124575 0.441230
O O3 0.314830 0.220988 0.413691
O O4 0.330024 0.000000 0.426973
O O5 0.775698 0.817334 0.159543
O O6 0.609219 0.824035 0.086812
O O7 0.808696 0.893226 0.076240
O O8 0.148637 0.851364 0.750000
O O9 0.000000 0.830080 0.818002
O O10 0.128807 0.000000 0.815630
O O11 0.500000 0.000000 0.940303
O O12 0.500000 0.835671 0.000000
O O13 0.000000 0.000000 0.924647
O O14 0.874143 0.000000 0.000000
#
# Coordination Sequence:
#
# PCOD9566805 Si02
#       5
#    16  16  16   8   8
#     4   9  18  32  50  73 102 133 168 213 263 304
#     4  12  20  32  51  71 104 140 177 208 257 311
#     4   9  17  30  50  76 101 126 161 215 276 326
#     4  11  22  34  47  71 111 153 178 205 253 310
#     4  11  20  27  45  77 105 130 167 211 257 316
#
# _framework density 15.931497999999999
#
# number of rings (size 3 to 8) (size 9 to 14) (size 15 to 20)
#    0.000    1.750    2.500    6.000    0.000    2.000 
#    0.000    0.625    2.750    2.250    0.000    0.000 
#    0.000    0.000    0.000    0.000    0.000    0.000 
#
# Total GULP energy -356757.820823 kJ/mol
# GULP energy per Si atom -5574.340950 kJ/mol
# Density = 1.589524 g / cm^3
# Si number density = 15.931498 Si / 1000 Ang^3
#
#
#
# Elastic Constant Matrix: (Units=GPa)
#
#
# Indices 1 2 3 4 5 6 
#
# 1 83.0578 29.0951 41.4190 0.0000 0.0000 0.0000
# 2 29.0951 83.0579 41.4190 0.0000 0.0000 0.0000
# 3 41.4190 41.4190 101.0334 0.0000 0.0000 0.0000
# 4 0.0000 0.0000 0.0000 19.4925 0.0000 0.0000
# 5 0.0000 0.0000 0.0000 0.0000 19.4924 0.0000
# 6 0.0000 0.0000 0.0000 0.0000 0.0000 19.5558
#
#
#
# Elastic Compliance Matrix: (Units=1/GPa)
#
#
# Indices 1 2 3 4 5 6 
#
# 1 0.015660 -0.002871 -0.005243 0.000000 0.000000 0.000000
# 2 -0.002871 0.015660 -0.005243 0.000000 0.000000 0.000000
# 3 -0.005243 -0.005243 0.014196 0.000000 0.000000 0.000000
# 4 0.000000 0.000000 0.000000 0.051302 0.000000 0.000000
# 5 0.000000 0.000000 0.000000 0.000000 0.051302 0.000000
# 6 0.000000 0.000000 0.000000 0.000000 0.000000 0.051136
#
#
# Mechanical properties :
#
#
# Convention : Reuss Voigt Hill
#
# Bulk Modulus (GPa) = 53.18384 54.55727 53.87055
# Shear Modulus (GPa) = 21.52966 22.05585 21.79276
#
# Velocity S-wave (km/s) = 3.68011 3.72481 3.70253
# Velocity P-wave (km/s) = 7.17725 7.26761 7.22257
#
# Compressibility (1/GPa) = 0.01880270
#
# Stress axis : x y z
#
# Youngs Moduli (GPa) = 63.85657 63.85674 70.44060
#
# Poissons Ratio (x) = 0.18335 0.36931
# Poissons Ratio (y) = 0.18335 0.36931
# Poissons Ratio (z) = 0.33479 0.33479
#
# Static dielectric constant tensor:
#      x y z
#    x 1.543080 0.000000 0.000000 
#    y 0.000000 1.543080 0.000000 
#    z 0.000000 0.000000 1.566890 
# 
# From -- ./inp_files/11993.got.cif
#   From: 2010.05.17/outbox.cif.g08.bks.cpg/sg131_6_cif.got.tgz:11993.got - 2010.05.20 12:21:01.
