data_PCOD9566745
_publ_section_title
;
Structure prediction by ZEFSAII (Michael W. Deem and Ramdas Pophale) SiO2 
 PCOD9566745
Probable space group: P 42/M M C
;
_chemical_formula_sum "Si O2"
_cell_formula_units_Z 84
_cell_length_a 15.141231
_cell_length_b 15.141231
_cell_length_c 19.091869
_cell_angle_alpha 90.000000
_cell_angle_beta 90.000000
_cell_angle_gamma 90.000000
_cell_volume 4376.942248
_symmetry_space_group_name_H-M "P 42/M M C"
_symmetry_group_IT_number 131
_symmetry_cell_setting 'tetragonal'
loop_
_space_group_symop_operation_xyz
x,y,z
-x,-y,z
-y,x,1/2+z
y,-x,1/2+z
-x,y,-z
x,-y,-z
y,x,1/2-z
-y,-x,1/2-z
-x,-y,-z
x,y,-z
y,-x,1/2-z
-y,x,1/2-z
x,-y,z
-x,y,z
-y,-x,1/2+z
y,x,1/2+z
loop_
_atom_site_type_symbol
_atom_site_label
_atom_site_fract_x
_atom_site_fract_y
_atom_site_fract_z
Si Si1 0.321891 0.403446 0.309909
Si Si2 0.000000 0.603806 0.621730
Si Si3 0.319034 0.901420 0.605504
Si Si4 0.870419 0.398057 0.250315
Si Si5 0.752425 0.000000 0.000000
Si Si6 0.600130 0.718184 0.579271
Si Si7 0.103662 0.159299 0.000000
O O1 0.395068 0.395068 0.250000
O O2 0.321618 0.500000 0.342639
O O3 0.232241 0.390676 0.266833
O O4 0.334610 0.331154 0.369062
O O5 0.081355 0.613770 0.675642
O O6 0.000000 0.500000 0.595841
O O7 0.000000 0.682494 0.565126
O O8 0.329599 0.897002 0.689883
O O9 0.380929 0.822111 0.580920
O O10 0.224227 0.886682 0.567930
O O11 0.346868 0.000000 0.584497
O O12 0.889515 0.500000 0.227101
O O13 0.820302 0.915755 0.000000
O O14 0.610348 0.686588 0.500000
O O15 0.500000 0.701247 0.602652
O O16 0.000000 0.127671 0.000000
#
# Coordination Sequence:
#
# PCOD9566745 Si02
#       7
#    16   8  16  16   4  16   8
#     4  11  23  38  59  85 120 169 216 260 307 365
#     4  10  23  41  65 103 135 167 218 262 322 397
#     4  11  21  39  65  92 124 158 199 256 318 384
#     4  10  21  38  61  93 130 165 205 263 321 377
#     4  12  26  44  72  92 130 182 210 268 330 360
#     4  11  24  39  58  87 124 162 209 259 309 375
#     4  10  25  45  68  98 126 166 221 261 317 396
#
# _framework density 19.191479000000001
#
# number of rings (size 3 to 8) (size 9 to 14) (size 15 to 20)
#    0.000    1.333    3.810    1.429    2.667    2.857 
#    0.000    1.905    0.000    0.000    2.476    0.000 
#    0.000    0.000    0.000    0.000    0.000    0.000 
#
# Total GULP energy -468314.069702 kJ/mol
# GULP energy per Si atom -5575.167496 kJ/mol
# Density = 1.914780 g / cm^3
# Si number density = 19.191479 Si / 1000 Ang^3
#
#
#
# Elastic Constant Matrix: (Units=GPa)
#
#
# Indices 1 2 3 4 5 6 
#
# 1 95.7329 48.5502 55.6703 0.0000 0.0000 0.0000
# 2 48.5502 95.7329 55.6703 0.0000 0.0000 0.0000
# 3 55.6703 55.6703 105.5051 0.0000 0.0000 0.0000
# 4 0.0000 0.0000 0.0000 26.6927 0.0000 0.0000
# 5 0.0000 0.0000 0.0000 0.0000 26.6927 0.0000
# 6 0.0000 0.0000 0.0000 0.0000 0.0000 24.8522
#
#
#
# Elastic Compliance Matrix: (Units=1/GPa)
#
#
# Indices 1 2 3 4 5 6 
#
# 1 0.016443 -0.004751 -0.006169 0.000000 0.000000 0.000000
# 2 -0.004751 0.016443 -0.006169 0.000000 0.000000 0.000000
# 3 -0.006169 -0.006169 0.015988 0.000000 0.000000 0.000000
# 4 0.000000 0.000000 0.000000 0.037463 0.000000 0.000000
# 5 0.000000 0.000000 0.000000 0.000000 0.037463 0.000000
# 6 0.000000 0.000000 0.000000 0.000000 0.000000 0.040238
#
#
# Mechanical properties :
#
#
# Convention : Reuss Voigt Hill
#
# Bulk Modulus (GPa) = 68.04991 68.52807 68.28899
# Shear Modulus (GPa) = 24.61649 24.78618 24.70134
#
# Velocity S-wave (km/s) = 3.58533 3.59767 3.59151
# Velocity P-wave (km/s) = 7.25775 7.28304 7.27041
#
# Compressibility (1/GPa) = 0.01469510
#
# Stress axis : x y z
#
# Youngs Moduli (GPa) = 60.81708 60.81708 62.54538
#
# Poissons Ratio (x) = 0.28897 0.38584
# Poissons Ratio (y) = 0.28897 0.38584
# Poissons Ratio (z) = 0.37518 0.37518
#
# Static dielectric constant tensor:
#      x y z
#    x 1.703820 0.000000 0.000000 
#    y 0.000000 1.703820 0.000000 
#    z 0.000000 0.000000 1.681870 
# 
# From -- ./inp_files/9637.got.cif
#   From: 2010.05.17/outbox.cif.g08.bks.cpg/sg131_5_cif.got.tgz:9637.got - 2010.05.20 12:21:01.
