data_PCOD9566873
_publ_section_title
;
Structure prediction by ZEFSAII (Michael W. Deem and Ramdas Pophale) SiO2 
 PCOD9566873
Probable space group: P 42/M M C
;
_chemical_formula_sum "Si O2"
_cell_formula_units_Z 40
_cell_length_a 8.192600
_cell_length_b 8.192600
_cell_length_c 29.485288
_cell_angle_alpha 90.000000
_cell_angle_beta 90.000000
_cell_angle_gamma 90.000000
_cell_volume 1979.014045
_symmetry_space_group_name_H-M "P 42/M M C"
_symmetry_group_IT_number 131
_symmetry_cell_setting 'tetragonal'
loop_
_space_group_symop_operation_xyz
x,y,z
-x,-y,z
-y,x,1/2+z
y,-x,1/2+z
-x,y,-z
x,-y,-z
y,x,1/2-z
-y,-x,1/2-z
-x,-y,-z
x,y,-z
y,-x,1/2-z
-y,x,1/2-z
x,-y,z
-x,y,z
-y,-x,1/2+z
y,x,1/2+z
loop_
_atom_site_type_symbol
_atom_site_label
_atom_site_fract_x
_atom_site_fract_y
_atom_site_fract_z
Si Si1 0.305681 0.500000 0.551193
Si Si2 0.309437 0.697559 0.800409
Si Si3 0.193908 0.820644 0.395063
O O1 0.500000 0.500000 0.548957
O O2 0.237905 0.500000 0.500000
O O3 0.257132 0.335457 0.577477
O O4 0.253231 0.746770 0.750000
O O5 0.305395 0.500000 0.801440
O O6 0.500000 0.746255 0.806006
O O7 0.208553 0.764041 0.842338
O O8 0.000000 0.822098 0.400285
O O9 0.257999 0.000000 0.409217
#
# Coordination Sequence:
#
# PCOD9566873 Si02
#       3
#     8  16  16
#     4  11  25  45  69  93 119 157 209 267 319 374
#     4   9  18  34  58  88 123 165 210 254 305 367
#     4  11  24  40  61  92 129 165 203 254 314 380
#
# _framework density 20.212084000000001
#
# number of rings (size 3 to 8) (size 9 to 14) (size 15 to 20)
#    0.000    1.800    2.000    3.000    0.000    7.200 
#    0.000   10.000    0.000    0.000    0.000    0.000 
#    0.000    0.000    0.000    0.000    0.000    0.000 
#
# Total GULP energy -223406.284380 kJ/mol
# GULP energy per Si atom -5585.157109 kJ/mol
# Density = 2.016608 g / cm^3
# Si number density = 20.212084 Si / 1000 Ang^3
#
#
#
# Elastic Constant Matrix: (Units=GPa)
#
#
# Indices 1 2 3 4 5 6 
#
# 1 97.5383 40.6498 55.6915 0.0000 0.0000 0.0000
# 2 40.6498 97.5380 55.6913 0.0000 0.0000 0.0000
# 3 55.6915 55.6913 130.7343 0.0000 0.0000 0.0000
# 4 0.0000 0.0000 0.0000 -7.8489 0.0000 0.0000
# 5 0.0000 0.0000 0.0000 0.0000 -7.8483 0.0000
# 6 0.0000 0.0000 0.0000 0.0000 0.0000 18.4935
#
#
#
# Elastic Compliance Matrix: (Units=1/GPa)
#
#
# Indices 1 2 3 4 5 6 
#
# 1 0.014299 -0.003279 -0.004695 0.000000 0.000000 0.000000
# 2 -0.003279 0.014299 -0.004695 0.000000 0.000000 0.000000
# 3 -0.004695 -0.004695 0.011649 0.000000 0.000000 0.000000
# 4 0.000000 0.000000 0.000000 -0.127406 0.000000 0.000000
# 5 0.000000 0.000000 0.000000 0.000000 -0.127415 0.000000
# 6 0.000000 0.000000 0.000000 0.000000 0.000000 0.054073
#
#
# Mechanical properties :
#
#
# Convention : Reuss Voigt Hill
#
# Bulk Modulus (GPa) = 67.06303 69.98621 68.52462
# Shear Modulus (GPa) = -38.40423 12.14444 -13.12989
#
# Velocity S-wave (km/s) = -4.36370 2.45388 -2.55150
# Velocity P-wave (km/s) = 2.80402 6.53681 5.02953
#
# Compressibility (1/GPa) = 0.01491135
#
# Stress axis : x y z
#
# Youngs Moduli (GPa) = 69.93307 69.93297 85.84564
#
# Poissons Ratio (x) = 0.22930 0.40301
# Poissons Ratio (y) = 0.22930 0.40301
# Poissons Ratio (z) = 0.32831 0.32831
#
# Static dielectric constant tensor:
#      x y z
#    x 1.730810 0.000000 0.000000 
#    y 0.000000 1.730810 0.000000 
#    z 0.000000 0.000000 1.713960 
# 
# From -- ./inp_files/11702.got.cif
#   From: 2010.05.17/outbox.cif.g08.bks.cpg/sg131_6_cif.got.tgz:11702.got - 2010.05.20 12:21:01.
