data_PCOD9566487
_publ_section_title
;
Structure prediction by ZEFSAII (Michael W. Deem and Ramdas Pophale) SiO2 
 PCOD9566487
Probable space group: P 42/M M C
;
_chemical_formula_sum "Si O2"
_cell_formula_units_Z 96
_cell_length_a 24.355409
_cell_length_b 24.355409
_cell_length_c 8.776687
_cell_angle_alpha 90.000000
_cell_angle_beta 90.000000
_cell_angle_gamma 90.000000
_cell_volume 5206.207395
_symmetry_space_group_name_H-M "P 42/M M C"
_symmetry_group_IT_number 131
_symmetry_cell_setting 'tetragonal'
loop_
_space_group_symop_operation_xyz
x,y,z
-x,-y,z
-y,x,1/2+z
y,-x,1/2+z
-x,y,-z
x,-y,-z
y,x,1/2-z
-y,-x,1/2-z
-x,-y,-z
x,y,-z
y,-x,1/2-z
-y,x,1/2-z
x,-y,z
-x,y,z
-y,-x,1/2+z
y,x,1/2+z
loop_
_atom_site_type_symbol
_atom_site_label
_atom_site_fract_x
_atom_site_fract_y
_atom_site_fract_z
Si Si1 0.819619 0.259713 0.681477
Si Si2 0.058804 0.599009 0.328417
Si Si3 0.442189 0.156109 0.334102
Si Si4 0.285511 0.938383 0.679698
Si Si5 0.565924 0.350281 0.815792
Si Si6 0.253220 0.643016 0.824737
O O1 0.796513 0.203488 0.750000
O O2 0.818885 0.260319 0.500000
O O3 0.882154 0.267384 0.738964
O O4 0.775629 0.305749 0.739641
O O5 0.062261 0.621618 0.500000
O O6 0.110912 0.562998 0.293760
O O7 0.060757 0.649441 0.212650
O O8 0.000000 0.570538 0.313638
O O9 0.440029 0.127996 0.500000
O O10 0.500000 0.185779 0.321438
O O11 0.396531 0.201102 0.330241
O O12 0.274844 0.933508 0.500000
O O13 0.265711 0.000000 0.729737
O O14 0.593856 0.406145 0.750000
O O15 0.500000 0.344551 0.775943
O O16 0.606784 0.301770 0.752198
O O17 0.569146 0.349997 0.000000
O O18 0.269205 0.657687 0.000000
#
# Coordination Sequence:
#
# PCOD9566487 Si02
#       6
#    16  16  16  16  16  16
#     4  12  24  38  59  88 122 157 197 241 287 339
#     4  10  20  33  50  73 102 140 186 235 286 336
#     4  10  21  35  52  74 102 141 188 236 285 339
#     4  10  20  36  58  83 114 153 195 239 288 341
#     4  11  25  44  66  91 117 146 182 227 283 348
#     4  11  22  39  61  85 115 151 190 232 285 343
#
# _framework density 18.439526000000001
#
# number of rings (size 3 to 8) (size 9 to 14) (size 15 to 20)
#    0.000    1.333    1.667    4.500    0.000    5.500 
#    0.000    2.500    0.000    0.000    0.000    0.000 
#    0.000    0.333    0.000    3.500    0.000    1.500 
#
# Total GULP energy -534762.455742 kJ/mol
# GULP energy per Si atom -5570.442247 kJ/mol
# Density = 1.839756 g / cm^3
# Si number density = 18.439526 Si / 1000 Ang^3
#
#
#
# Elastic Constant Matrix: (Units=GPa)
#
#
# Indices 1 2 3 4 5 6 
#
# 1 95.7340 63.1228 47.6902 0.0000 0.0000 0.0000
# 2 63.1228 95.7369 47.6915 0.0000 0.0000 0.0000
# 3 47.6902 47.6915 106.6789 0.0000 0.0000 0.0000
# 4 0.0000 0.0000 0.0000 47.3738 0.0000 0.0000
# 5 0.0000 0.0000 0.0000 0.0000 47.5642 0.0000
# 6 0.0000 0.0000 0.0000 0.0000 0.0000 5.0956
#
#
#
# Elastic Compliance Matrix: (Units=1/GPa)
#
#
# Indices 1 2 3 4 5 6 
#
# 1 0.019634 -0.011029 -0.003847 0.000000 0.000000 0.000000
# 2 -0.011029 0.019634 -0.003847 0.000000 0.000000 0.000000
# 3 -0.003847 -0.003847 0.012813 0.000000 0.000000 0.000000
# 4 0.000000 0.000000 0.000000 0.021109 0.000000 0.000000
# 5 0.000000 0.000000 0.000000 0.000000 0.021024 0.000000
# 6 0.000000 0.000000 0.000000 0.000000 0.000000 0.196247
#
#
# Mechanical properties :
#
#
# Convention : Reuss Voigt Hill
#
# Bulk Modulus (GPa) = 68.32631 68.35098 68.33864
# Shear Modulus (GPa) = 15.02474 29.31639 22.17056
#
# Velocity S-wave (km/s) = 2.85759 3.99164 3.47124
# Velocity P-wave (km/s) = 6.92982 7.64149 7.29434
#
# Compressibility (1/GPa) = 0.01463565
#
# Stress axis : x y z
#
# Youngs Moduli (GPa) = 50.93210 50.93327 78.04435
#
# Poissons Ratio (x) = 0.56175 0.30020
# Poissons Ratio (y) = 0.56174 0.30022
# Poissons Ratio (z) = 0.19591 0.19593
#
# Static dielectric constant tensor:
#      x y z
#    x 1.653800 0.000000 0.000000 
#    y 0.000000 1.653800 0.000000 
#    z 0.000000 0.000000 1.685070 
# 
# From -- ./inp_files/2231.got.cif
#   From: 2010.05.17/outbox.cif.g08.bks.cpg/sg131_2_cif.got.tgz:2231.got - 2010.05.20 12:21:01.
