data_PCOD9566868
_publ_section_title
;
Structure prediction by ZEFSAII (Michael W. Deem and Ramdas Pophale) SiO2 
 PCOD9566868
Probable space group: P 42/M M C
;
_chemical_formula_sum "Si O2"
_cell_formula_units_Z 42
_cell_length_a 11.091150
_cell_length_b 11.091150
_cell_length_c 16.020776
_cell_angle_alpha 90.000000
_cell_angle_beta 90.000000
_cell_angle_gamma 90.000000
_cell_volume 1970.773464
_symmetry_space_group_name_H-M "P 42/M M C"
_symmetry_group_IT_number 131
_symmetry_cell_setting 'tetragonal'
loop_
_space_group_symop_operation_xyz
x,y,z
-x,-y,z
-y,x,1/2+z
y,-x,1/2+z
-x,y,-z
x,-y,-z
y,x,1/2-z
-y,-x,1/2-z
-x,-y,-z
x,y,-z
y,-x,1/2-z
-y,x,1/2-z
x,-y,z
-x,y,z
-y,-x,1/2+z
y,x,1/2+z
loop_
_atom_site_type_symbol
_atom_site_label
_atom_site_fract_x
_atom_site_fract_y
_atom_site_fract_z
Si Si1 0.139449 0.500000 0.320219
Si Si2 0.500000 0.500000 0.750000
Si Si3 0.500000 0.746008 0.353802
Si Si4 0.233741 0.255750 0.404813
Si Si5 0.000000 0.143483 0.902044
O O1 0.157569 0.500000 0.220933
O O2 0.197805 0.376889 0.355795
O O3 0.000000 0.500000 0.343395
O O4 0.382451 0.500000 0.806993
O O5 0.622337 0.754137 0.404503
O O6 0.187336 0.266624 0.500000
O O7 0.187355 0.128684 0.367103
O O8 0.000000 0.000000 0.899211
O O9 0.000000 0.183054 0.000000
#
# Coordination Sequence:
#
# PCOD9566868 Si02
#       5
#     8   2   8  16   8
#     4  12  25  40  65  94 132 172 214 266 328 396
#     4  12  20  44  66  80 128 168 206 256 328 384
#     4  12  23  43  63  94 128 167 213 264 332 387
#     4  11  23  41  67  96 126 169 221 272 324 383
#     4   9  20  39  63  93 131 166 205 262 323 380
#
# _framework density 21.311430000000001
#
# number of rings (size 3 to 8) (size 9 to 14) (size 15 to 20)
#    0.000    0.952    3.810    2.286    2.667    3.048 
#    0.000    5.714    0.000    0.000    0.000    0.000 
#    0.000    0.000    0.000    0.000    0.000    0.000 
#
# Total GULP energy -234710.691356 kJ/mol
# GULP energy per Si atom -5588.349794 kJ/mol
# Density = 2.126292 g / cm^3
# Si number density = 21.311430 Si / 1000 Ang^3
#
#
#
# Elastic Constant Matrix: (Units=GPa)
#
#
# Indices 1 2 3 4 5 6 
#
# 1 150.2626 50.9030 12.6385 0.0000 0.0000 0.0000
# 2 50.9030 150.2626 12.6385 0.0000 0.0000 0.0000
# 3 12.6385 12.6385 54.9302 0.0000 0.0000 0.0000
# 4 0.0000 0.0000 0.0000 10.2289 0.0000 0.0000
# 5 0.0000 0.0000 0.0000 0.0000 10.2289 0.0000
# 6 0.0000 0.0000 0.0000 0.0000 0.0000 31.6872
#
#
#
# Elastic Compliance Matrix: (Units=1/GPa)
#
#
# Indices 1 2 3 4 5 6 
#
# 1 0.007592 -0.002473 -0.001178 0.000000 0.000000 0.000000
# 2 -0.002473 0.007592 -0.001178 0.000000 0.000000 0.000000
# 3 -0.001178 -0.001178 0.018747 0.000000 0.000000 0.000000
# 4 0.000000 0.000000 0.000000 0.097762 0.000000 0.000000
# 5 0.000000 0.000000 0.000000 0.000000 0.097762 0.000000
# 6 0.000000 0.000000 0.000000 0.000000 0.000000 0.031559
#
#
# Mechanical properties :
#
#
# Convention : Reuss Voigt Hill
#
# Bulk Modulus (GPa) = 41.19677 56.42394 48.81035
# Shear Modulus (GPa) = 17.93656 29.04738 23.49197
#
# Velocity S-wave (km/s) = 2.90425 3.69588 3.32372
# Velocity P-wave (km/s) = 5.53345 6.68925 6.13861
#
# Compressibility (1/GPa) = 0.02427375
#
# Stress axis : x y z
#
# Youngs Moduli (GPa) = 131.72218 131.72218 53.34218
#
# Poissons Ratio (x) = 0.32571 0.06283
# Poissons Ratio (y) = 0.32571 0.06283
# Poissons Ratio (z) = 0.15514 0.15514
#
# Static dielectric constant tensor:
#      x y z
#    x 1.764320 0.000000 0.000000 
#    y 0.000000 1.764320 0.000000 
#    z 0.000000 0.000000 1.744820 
# 
# From -- ./inp_files/6952.got.cif
#   From: 2010.05.17/outbox.cif.g08.bks.cpg/sg131_4_cif.got.tgz:6952.got - 2010.05.20 12:21:01.
