data_PCOD9566255
_publ_section_title
;
Structure prediction by ZEFSAII (Michael W. Deem and Ramdas Pophale) SiO2 
 PCOD9566255
Probable space group: P 42/M M C
;
_chemical_formula_sum "Si O2"
_cell_formula_units_Z 120
_cell_length_a 20.445119
_cell_length_b 20.445119
_cell_length_c 16.500475
_cell_angle_alpha 90.000000
_cell_angle_beta 90.000000
_cell_angle_gamma 90.000000
_cell_volume 6897.246252
_symmetry_space_group_name_H-M "P 42/M M C"
_symmetry_group_IT_number 131
_symmetry_cell_setting 'tetragonal'
loop_
_space_group_symop_operation_xyz
x,y,z
-x,-y,z
-y,x,1/2+z
y,-x,1/2+z
-x,y,-z
x,-y,-z
y,x,1/2-z
-y,-x,1/2-z
-x,-y,-z
x,y,-z
y,-x,1/2-z
-y,x,1/2-z
x,-y,z
-x,y,z
-y,-x,1/2+z
y,x,1/2+z
loop_
_atom_site_type_symbol
_atom_site_label
_atom_site_fract_x
_atom_site_fract_y
_atom_site_fract_z
Si Si1 0.363895 0.201219 0.408162
Si Si2 0.739367 0.876693 0.907684
Si Si3 0.791951 0.573496 0.265060
Si Si4 0.076544 0.929712 0.000000
Si Si5 0.121635 0.864819 0.836600
Si Si6 0.628238 0.070884 0.809355
Si Si7 0.704072 0.740872 0.164092
Si Si8 0.923933 0.284717 0.146376
O O1 0.389582 0.207042 0.500000
O O2 0.413035 0.199916 0.331568
O O3 0.318124 0.263500 0.385398
O O4 0.321216 0.133760 0.403499
O O5 0.801641 0.879633 0.849336
O O6 0.679633 0.922406 0.882474
O O7 0.713788 0.803669 0.891486
O O8 0.760012 0.886117 0.000000
O O9 0.769287 0.500000 0.279271
O O10 0.864351 0.584468 0.303120
O O11 0.744891 0.629208 0.304029
O O12 0.091468 0.893543 0.082735
O O13 0.000000 0.937789 0.000000
O O14 0.111113 0.000000 0.000000
O O15 0.104216 0.895785 0.750000
O O16 0.102098 0.788482 0.838385
O O17 0.674607 0.073919 0.729895
O O18 0.594936 0.000000 0.810771
O O19 0.743767 0.743767 0.250000
O O20 0.000000 0.283480 0.115331
#
# Coordination Sequence:
#
# PCOD9566255 Si02
#       8
#    16  16  16   8  16  16  16  16
#     4  10  19  31  52  80 113 143 170 217 270 318
#     4  11  19  30  49  76 104 126 161 221 279 330
#     4   9  19  34  53  76 106 145 183 221 265 322
#     4  11  28  46  52  66  94 130 178 222 278 358
#     4  12  22  37  58  76 100 131 169 223 286 342
#     4   9  19  34  50  71  99 133 179 226 265 320
#     4   9  17  31  51  74 105 139 177 215 259 313
#     4  10  20  32  50  77 104 134 175 217 270 338
#
# _framework density 17.398247999999999
#
# number of rings (size 3 to 8) (size 9 to 14) (size 15 to 20)
#    0.000    1.933    3.333    2.000    0.933    2.667 
#    0.000    0.667    0.000   10.000    0.000    7.467 
#    0.000   21.600    0.000   10.800    0.000    0.000 
#
# Total GULP energy -668071.147629 kJ/mol
# GULP energy per Si atom -5567.259564 kJ/mol
# Density = 1.735865 g / cm^3
# Si number density = 17.398248 Si / 1000 Ang^3
#
#
#
# Elastic Constant Matrix: (Units=GPa)
#
#
# Indices 1 2 3 4 5 6 
#
# 1 62.2791 7.0245 24.2045 0.0000 0.0000 0.0000
# 2 7.0245 62.2787 24.2044 0.0000 0.0000 0.0000
# 3 24.2045 24.2044 78.9641 0.0000 0.0000 0.0000
# 4 0.0000 0.0000 0.0000 24.5318 0.0000 0.0000
# 5 0.0000 0.0000 0.0000 0.0000 24.5325 0.0000
# 6 0.0000 0.0000 0.0000 0.0000 0.0000 6.2736
#
#
#
# Elastic Compliance Matrix: (Units=1/GPa)
#
#
# Indices 1 2 3 4 5 6 
#
# 1 0.018229 0.000131 -0.005628 0.000000 0.000000 0.000000
# 2 0.000131 0.018229 -0.005628 0.000000 0.000000 0.000000
# 3 -0.005628 -0.005628 0.016114 0.000000 0.000000 0.000000
# 4 0.000000 0.000000 0.000000 0.040763 0.000000 0.000000
# 5 0.000000 0.000000 0.000000 0.000000 0.040762 0.000000
# 6 0.000000 0.000000 0.000000 0.000000 0.000000 0.159399
#
#
# Mechanical properties :
#
#
# Convention : Reuss Voigt Hill
#
# Bulk Modulus (GPa) = 32.97789 34.93210 33.95499
# Shear Modulus (GPa) = 15.34427 20.94013 18.14220
#
# Velocity S-wave (km/s) = 2.97298 3.47302 3.23268
# Velocity P-wave (km/s) = 5.54803 6.01698 5.78726
#
# Compressibility (1/GPa) = 0.03032334
#
# Stress axis : x y z
#
# Youngs Moduli (GPa) = 54.85695 54.85662 62.05715
#
# Poissons Ratio (x) = -0.00720 0.34925
# Poissons Ratio (y) = -0.00720 0.34925
# Poissons Ratio (z) = 0.30873 0.30873
#
# Static dielectric constant tensor:
#      x y z
#    x 1.610500 0.000000 0.000000 
#    y 0.000000 1.610500 0.000000 
#    z 0.000000 0.000000 1.602330 
# 
# From -- ./inp_files/6320.got.cif
#   From: 2010.05.17/outbox.cif.g08.bks.cpg/sg131_4_cif.got.tgz:6320.got - 2010.05.20 12:21:01.
