data_PCOD9566071
_publ_section_title
;
Structure prediction by ZEFSAII (Michael W. Deem and Ramdas Pophale) SiO2 
 PCOD9566071
Probable space group: P 42/M M C
;
_chemical_formula_sum "Si O2"
_cell_formula_units_Z 96
_cell_length_a 17.551740
_cell_length_b 17.551740
_cell_length_c 22.898481
_cell_angle_alpha 90.000000
_cell_angle_beta 90.000000
_cell_angle_gamma 90.000000
_cell_volume 7054.187965
_symmetry_space_group_name_H-M "P 42/M M C"
_symmetry_group_IT_number 131
_symmetry_cell_setting 'tetragonal'
loop_
_space_group_symop_operation_xyz
x,y,z
-x,-y,z
-y,x,1/2+z
y,-x,1/2+z
-x,y,-z
x,-y,-z
y,x,1/2-z
-y,-x,1/2-z
-x,-y,-z
x,y,-z
y,-x,1/2-z
-y,x,1/2-z
x,-y,z
-x,y,z
-y,-x,1/2+z
y,x,1/2+z
loop_
_atom_site_type_symbol
_atom_site_label
_atom_site_fract_x
_atom_site_fract_y
_atom_site_fract_z
Si Si1 0.711747 0.412578 0.263974
Si Si2 0.590492 0.280253 0.568039
Si Si3 0.000000 0.592883 0.656312
Si Si4 0.707963 0.411818 0.597576
Si Si5 0.164469 0.592013 0.830921
Si Si6 0.407515 0.124311 0.063846
Si Si7 0.000000 0.406758 0.207991
O O1 0.641983 0.358018 0.250000
O O2 0.694217 0.500000 0.247249
O O3 0.723916 0.410647 0.333091
O O4 0.784961 0.388843 0.226077
O O5 0.600519 0.260047 0.500000
O O6 0.500000 0.294499 0.577672
O O7 0.639721 0.355223 0.582098
O O8 0.614988 0.212760 0.612100
O O9 0.073129 0.617690 0.618276
O O10 0.000000 0.616545 0.723724
O O11 0.000000 0.500000 0.657258
O O12 0.691644 0.500000 0.581064
O O13 0.787290 0.386393 0.568986
O O14 0.160087 0.500000 0.832995
O O15 0.078015 0.619253 0.822902
O O16 0.500000 0.122610 0.065458
O O17 0.384220 0.094625 0.000000
O O18 0.000000 0.500000 0.207568
#
# Coordination Sequence:
#
# PCOD9566071 Si02
#       7
#    16  16   8  16  16  16   8
#     4  10  18  28  42  59  80 105 135 173 210 245
#     4  10  20  32  43  55  76 106 140 179 217 249
#     4   9  15  24  39  59  78  99 125 157 199 242
#     4  10  19  29  42  59  79 107 143 176 206 243
#     4   9  17  30  44  60  78  98 128 168 213 253
#     4   9  16  25  37  55  80 106 132 162 193 232
#     4   9  16  27  45  61  75  94 123 167 213 255
#
# _framework density 13.608938
#
# number of rings (size 3 to 8) (size 9 to 14) (size 15 to 20)
#    0.000    2.500    1.667    1.750    0.000    6.500 
#    0.000    2.917    0.000    2.500    0.000    0.000 
#    0.000    0.000    0.000    0.000    0.000    2.917 
#
# Total GULP energy -534536.917741 kJ/mol
# GULP energy per Si atom -5568.092893 kJ/mol
# Density = 1.357796 g / cm^3
# Si number density = 13.608938 Si / 1000 Ang^3
#
#
#
# Elastic Constant Matrix: (Units=GPa)
#
#
# Indices 1 2 3 4 5 6 
#
# 1 65.5002 34.5286 33.6177 0.0000 0.0000 0.0000
# 2 34.5286 65.4989 33.6193 0.0000 0.0000 0.0000
# 3 33.6177 33.6193 81.3769 0.0000 0.0000 0.0000
# 4 0.0000 0.0000 0.0000 11.9285 0.0000 0.0000
# 5 0.0000 0.0000 0.0000 0.0000 11.9297 0.0000
# 6 0.0000 0.0000 0.0000 0.0000 0.0000 -0.6447
#
#
#
# Elastic Compliance Matrix: (Units=1/GPa)
#
#
# Indices 1 2 3 4 5 6 
#
# 1 0.023064 -0.009224 -0.005717 0.000000 0.000000 0.000000
# 2 -0.009224 0.023065 -0.005718 0.000000 0.000000 0.000000
# 3 -0.005717 -0.005718 0.017013 0.000000 0.000000 0.000000
# 4 0.000000 0.000000 0.000000 0.083833 0.000000 0.000000
# 5 0.000000 0.000000 0.000000 0.000000 0.083824 0.000000
# 6 0.000000 0.000000 0.000000 0.000000 0.000000 -1.551160
#
#
# Mechanical properties :
#
#
# Convention : Reuss Voigt Hill
#
# Bulk Modulus (GPa) = 45.82393 46.21191 46.01792
# Shear Modulus (GPa) = -3.93153 12.01675 4.04261
#
# Velocity S-wave (km/s) = -1.70153 2.97476 1.72540
# Velocity P-wave (km/s) = 5.46670 6.76976 6.15282
#
# Compressibility (1/GPa) = 0.02182266
#
# Stress axis : x y z
#
# Youngs Moduli (GPa) = 43.35786 43.35566 58.77919
#
# Poissons Ratio (x) = 0.39991 0.33606
# Poissons Ratio (y) = 0.39993 0.33612
# Poissons Ratio (z) = 0.24789 0.24793
#
# Static dielectric constant tensor:
#      x y z
#    x 1.433200 0.000000 0.000000 
#    y 0.000000 1.433200 0.000000 
#    z 0.000000 0.000000 1.497360 
# 
# From -- ./inp_files/9961.got.cif
#   From: 2010.05.17/outbox.cif.g08.bks.cpg/sg131_5_cif.got.tgz:9961.got - 2010.05.20 12:21:01.
