data_PCOD9566023
_publ_section_title
;
Structure prediction by ZEFSAII (Michael W. Deem and Ramdas Pophale) SiO2 
 PCOD9566023
Probable space group: P 4/N C C
;
_chemical_formula_sum "Si O2"
_cell_formula_units_Z 96
_cell_length_a 21.000000
_cell_length_b 21.000000
_cell_length_c 12.000000
_cell_angle_alpha 90.000000
_cell_angle_beta 90.000000
_cell_angle_gamma 90.000000
_cell_volume 5292.000000
_symmetry_space_group_name_H-M "P 4/N C C"
_symmetry_group_IT_number 130
_symmetry_cell_setting 'tetragonal'
loop_
_space_group_symop_operation_xyz
x,y,z
1/2-y,x,z
1/2-x,1/2-y,z
y,1/2-x,z
1/2+x,-y,1/2-z
-x,1/2+y,1/2-z
1/2+y,1/2+x,1/2-z
-y,-x,1/2-z
-x,-y,-z
1/2+y,-x,-z
1/2+x,1/2+y,-z
-y,1/2+x,-z
1/2-x,y,1/2+z
x,1/2-y,1/2+z
1/2-y,1/2-x,1/2+z
y,x,1/2+z
loop_
_atom_site_type_symbol
_atom_site_label
_atom_site_fract_x
_atom_site_fract_y
_atom_site_fract_z
Si Si1 0.465222 0.065545 0.956667
Si Si2 0.656337 0.271953 0.457718
Si Si3 0.967573 0.366717 0.753793
Si Si4 0.509857 0.668228 0.992067
Si Si5 0.775744 0.064012 0.692114
Si Si6 0.522507 0.191079 0.065263
O O1 0.388191 0.056553 0.963528
O O2 0.487891 0.125987 0.031021
O O3 0.490451 0.087036 0.833346
O O4 0.500000 0.000000 0.000000
O O5 0.713861 0.321468 0.462458
O O6 0.636787 0.241418 0.339156
O O7 0.590698 0.301603 0.502760
O O8 0.897151 0.397151 0.750000
O O9 0.969067 0.294505 0.799933
O O10 0.987692 0.360997 0.625338
O O11 0.519596 0.744464 0.961460
O O12 0.459481 0.679218 0.091503
O O13 0.807922 0.044172 0.806565
#
# Coordination Sequence:
#
# PCOD9566023 Si02
#       6
#    16  16  16  16  16  16
#     4  12  24  40  67 100 131 167 229 285 348 408
#     4  10  22  38  56  84 125 177 226 266 321 400
#     4  11  22  40  63  95 133 173 217 283 343 398
#     4  10  23  40  62  89 130 174 213 275 340 407
#     4  10  23  39  64  85 133 177 223 267 337 405
#     4  10  24  42  61  93 128 174 220 281 338 402
#
# _framework density 18.14059
#
# number of rings (size 3 to 8) (size 9 to 14) (size 15 to 20)
#    0.000    1.500    5.000    0.000   14.000    0.667 
#    0.000    1.667    0.000    0.500    0.000    0.000 
#    0.000    0.000    0.000    0.000    0.000    0.000 
#
# Total GULP energy -534484.896108 kJ/mol
# GULP energy per Si atom -5567.551001 kJ/mol
# Density = 1.809930 g / cm^3
# Si number density = 18.140590 Si / 1000 Ang^3
#
#
#
# Elastic Constant Matrix: (Units=GPa)
#
#
# Indices 1 2 3 4 5 6 
#
# 1 85.0159 26.0724 11.7970 0.0000 0.0000 0.0000
# 2 26.0724 85.0159 11.7970 0.0000 0.0000 0.0000
# 3 11.7970 11.7970 110.7890 0.0000 0.0000 0.0000
# 4 0.0000 0.0000 0.0000 27.4761 0.0000 0.0000
# 5 0.0000 0.0000 0.0000 0.0000 27.4761 0.0000
# 6 0.0000 0.0000 0.0000 0.0000 0.0000 41.3717
#
#
#
# Elastic Compliance Matrix: (Units=1/GPa)
#
#
# Indices 1 2 3 4 5 6 
#
# 1 0.013088 -0.003878 -0.000981 0.000000 0.000000 0.000000
# 2 -0.003878 0.013088 -0.000981 0.000000 0.000000 0.000000
# 3 -0.000981 -0.000981 0.009235 0.000000 0.000000 0.000000
# 4 0.000000 0.000000 0.000000 0.036395 0.000000 0.000000
# 5 0.000000 0.000000 0.000000 0.000000 0.036395 0.000000
# 6 0.000000 0.000000 0.000000 0.000000 0.000000 0.024171
#
#
# Mechanical properties :
#
#
# Convention : Reuss Voigt Hill
#
# Bulk Modulus (GPa) = 42.13636 42.23926 42.18781
# Shear Modulus (GPa) = 32.90316 34.67509 33.78913
#
# Velocity S-wave (km/s) = 4.26348 4.37677 4.32050
# Velocity P-wave (km/s) = 6.89307 6.99117 6.94229
#
# Compressibility (1/GPa) = 0.02373247
#
# Stress axis : x y z
#
# Youngs Moduli (GPa) = 76.40720 76.40720 108.28342
#
# Poissons Ratio (x) = 0.29628 0.10619
# Poissons Ratio (y) = 0.29628 0.10619
# Poissons Ratio (z) = 0.07493 0.07493
#
# Static dielectric constant tensor:
#      x y z
#    x 1.632740 0.000000 0.000000 
#    y 0.000000 1.632740 0.000000 
#    z 0.000000 0.000000 1.727550 
# 
# From -- ./inp_files/1759.got.cif
#   From: 2010.05.17/outbox.ucp.g08.bks.cvg/sg130_1_cif.got.tgz:1759.got - 2010.06.11 11:38:29.
