data_PCOD9566183
_publ_section_title
;
Structure prediction by ZEFSAII (Michael W. Deem and Ramdas Pophale) SiO2 
 PCOD9566183
Probable space group: P 42/M M C
;
_chemical_formula_sum "Si O2"
_cell_formula_units_Z 96
_cell_length_a 14.554278
_cell_length_b 14.554278
_cell_length_c 31.012700
_cell_angle_alpha 90.000000
_cell_angle_beta 90.000000
_cell_angle_gamma 90.000000
_cell_volume 6569.327454
_symmetry_space_group_name_H-M "P 42/M M C"
_symmetry_group_IT_number 131
_symmetry_cell_setting 'tetragonal'
loop_
_space_group_symop_operation_xyz
x,y,z
-x,-y,z
-y,x,1/2+z
y,-x,1/2+z
-x,y,-z
x,-y,-z
y,x,1/2-z
-y,-x,1/2-z
-x,-y,-z
x,y,-z
y,-x,1/2-z
-y,x,1/2-z
x,-y,z
-x,y,z
-y,-x,1/2+z
y,x,1/2+z
loop_
_atom_site_type_symbol
_atom_site_label
_atom_site_fract_x
_atom_site_fract_y
_atom_site_fract_z
Si Si1 0.148293 0.602518 0.272878
Si Si2 0.802518 0.397233 0.828113
Si Si3 0.780944 0.111097 0.368172
Si Si4 0.896457 0.804707 0.290609
Si Si5 0.359722 0.599786 0.700785
Si Si6 0.111427 0.895047 0.951040
O O1 0.109415 0.500000 0.280572
O O2 0.160029 0.613329 0.221075
O O3 0.102080 0.693901 0.290921
O O4 0.250054 0.603430 0.293194
O O5 0.826201 0.500000 0.842700
O O6 0.845608 0.317717 0.857049
O O7 0.691843 0.389302 0.823587
O O8 0.850101 0.151731 0.332479
O O9 0.822196 0.137782 0.414691
O O10 0.777195 0.000000 0.364833
O O11 0.835566 0.835566 0.250000
O O12 0.000000 0.838909 0.285160
O O13 0.395556 0.604445 0.750000
O O14 0.385414 0.500000 0.682303
O O15 0.000000 0.896049 0.951400
O O16 0.140314 0.000000 0.940356
O O17 0.141520 0.874141 0.000000
#
# Coordination Sequence:
#
# PCOD9566183 Si02
#       6
#    16  16  16  16  16  16
#     4   9  17  31  47  60  84 123 161 196 231 267
#     4  10  19  30  44  63  89 122 161 194 227 274
#     4  11  21  33  47  65  93 126 158 191 230 274
#     4  12  22  32  44  62  92 126 159 193 227 268
#     4   9  15  26  44  63  85 114 153 201 246 275
#     4   8  15  30  52  74  91 110 145 194 242 284
#
# _framework density 14.613367999999999
#
# number of rings (size 3 to 8) (size 9 to 14) (size 15 to 20)
#    0.000    2.167    3.333    3.500    0.000    3.667 
#    0.000    1.667    0.000    0.500    0.000    2.333 
#    0.000    2.667    0.000   10.667    0.000    0.667 
#
# Total GULP energy -534865.629712 kJ/mol
# GULP energy per Si atom -5571.516976 kJ/mol
# Density = 1.458011 g / cm^3
# Si number density = 14.613368 Si / 1000 Ang^3
#
#
#
# Elastic Constant Matrix: (Units=GPa)
#
#
# Indices 1 2 3 4 5 6 
#
# 1 92.9061 30.1534 33.1079 0.0000 0.0000 0.0000
# 2 30.1534 92.9062 33.1078 0.0000 0.0000 0.0000
# 3 33.1079 33.1078 66.1553 0.0000 0.0000 0.0000
# 4 0.0000 0.0000 0.0000 -3.0268 0.0000 0.0000
# 5 0.0000 0.0000 0.0000 0.0000 -3.0270 0.0000
# 6 0.0000 0.0000 0.0000 0.0000 0.0000 1.0954
#
#
#
# Elastic Compliance Matrix: (Units=1/GPa)
#
#
# Indices 1 2 3 4 5 6 
#
# 1 0.013528 -0.002407 -0.005565 0.000000 0.000000 0.000000
# 2 -0.002407 0.013528 -0.005565 0.000000 0.000000 0.000000
# 3 -0.005565 -0.005565 0.020686 0.000000 0.000000 0.000000
# 4 0.000000 0.000000 0.000000 -0.330382 0.000000 0.000000
# 5 0.000000 0.000000 0.000000 0.000000 -0.330356 0.000000
# 6 0.000000 0.000000 0.000000 0.000000 0.000000 0.912885
#
#
# Mechanical properties :
#
#
# Convention : Reuss Voigt Hill
#
# Bulk Modulus (GPa) = 48.38816 49.41174 48.89995
# Shear Modulus (GPa) = 14.97655 9.38156 12.17906
#
# Velocity S-wave (km/s) = 3.20481 2.53649 2.89003
# Velocity P-wave (km/s) = 6.84679 6.51648 6.68367
#
# Compressibility (1/GPa) = 0.02066621
#
# Stress axis : x y z
#
# Youngs Moduli (GPa) = 73.91973 73.91990 48.34075
#
# Poissons Ratio (x) = 0.17795 0.26904
# Poissons Ratio (y) = 0.17795 0.26904
# Poissons Ratio (z) = 0.41140 0.41140
#
# Static dielectric constant tensor:
#      x y z
#    x 1.513780 0.000000 0.000000 
#    y 0.000000 1.513780 0.000000 
#    z 0.000000 0.000000 1.450110 
# 
# From -- ./inp_files/13689.got.cif
#   From: 2010.05.17/outbox.cif.g08.bks.cpg/sg131_7_cif.got.tgz:13689.got - 2010.05.20 12:21:01.
