data_PCOD9566639
_publ_section_title
;
Structure prediction by ZEFSAII (Michael W. Deem and Ramdas Pophale) SiO2 
 PCOD9566639
Probable space group: P 42/M M C
;
_chemical_formula_sum "Si O2"
_cell_formula_units_Z 84
_cell_length_a 12.122142
_cell_length_b 12.122142
_cell_length_c 33.052003
_cell_angle_alpha 90.000000
_cell_angle_beta 90.000000
_cell_angle_gamma 90.000000
_cell_volume 4856.870430
_symmetry_space_group_name_H-M "P 42/M M C"
_symmetry_group_IT_number 131
_symmetry_cell_setting 'tetragonal'
loop_
_space_group_symop_operation_xyz
x,y,z
-x,-y,z
-y,x,1/2+z
y,-x,1/2+z
-x,y,-z
x,-y,-z
y,x,1/2-z
-y,-x,1/2-z
-x,-y,-z
x,y,-z
y,-x,1/2-z
-y,x,1/2-z
x,-y,z
-x,y,z
-y,-x,1/2+z
y,x,1/2+z
loop_
_atom_site_type_symbol
_atom_site_label
_atom_site_fract_x
_atom_site_fract_y
_atom_site_fract_z
Si Si1 0.368554 0.230604 0.500000
Si Si2 0.625991 0.132578 0.715339
Si Si3 0.790435 0.234594 0.861419
Si Si4 0.000000 0.866870 0.090206
Si Si5 0.233353 0.000000 0.500000
Si Si6 0.129794 0.622248 0.694300
Si Si7 0.370765 0.632225 0.080388
O O1 0.500000 0.207048 0.500000
O O2 0.343528 0.307827 0.538402
O O3 0.305192 0.113564 0.500000
O O4 0.500000 0.169717 0.708871
O O5 0.698700 0.166512 0.677481
O O6 0.657116 0.170019 0.760871
O O7 0.627106 0.000000 0.715604
O O8 0.710168 0.146610 0.840644
O O9 0.708025 0.311197 0.886950
O O10 0.891289 0.185334 0.887784
O O11 0.000000 0.000000 0.094541
O O12 0.000000 0.834321 0.042446
O O13 0.176910 0.500000 0.684923
O O14 0.000000 0.609903 0.698881
O O15 0.370567 0.500000 0.085813
O O16 0.500000 0.667441 0.080713
#
# Coordination Sequence:
#
# PCOD9566639 Si02
#       7
#     8  16  16   8   4  16  16
#     4  10  20  37  62  90 117 144 182 229 284 364
#     4   9  18  33  53  80 112 148 186 229 286 343
#     4  12  20  36  56  84 112 150 195 239 289 337
#     4  12  27  41  59  82 115 155 202 253 303 356
#     4  12  22  46  60  88 110 158 194 236 316 352
#     4   9  19  35  55  77 108 151 196 238 282 334
#     4  10  21  36  57  87 119 148 179 225 288 357
#
# _framework density 17.295088
#
# number of rings (size 3 to 8) (size 9 to 14) (size 15 to 20)
#    0.000    1.714    2.857    4.000    0.000    1.143 
#    0.000    0.000    0.000    0.000    0.000    9.333 
#    0.000    0.000    0.000    0.000    0.000    0.000 
#
# Total GULP energy -467687.726141 kJ/mol
# GULP energy per Si atom -5567.711025 kJ/mol
# Density = 1.725572 g / cm^3
# Si number density = 17.295088 Si / 1000 Ang^3
#
#
#
# Elastic Constant Matrix: (Units=GPa)
#
#
# Indices 1 2 3 4 5 6 
#
# 1 91.0409 43.0405 49.8842 0.0000 0.0000 0.0000
# 2 43.0405 91.0409 49.8842 0.0000 0.0000 0.0000
# 3 49.8842 49.8842 126.5240 0.0000 0.0000 0.0000
# 4 0.0000 0.0000 0.0000 35.4476 0.0000 0.0000
# 5 0.0000 0.0000 0.0000 0.0000 35.4476 0.0000
# 6 0.0000 0.0000 0.0000 0.0000 0.0000 25.8039
#
#
#
# Elastic Compliance Matrix: (Units=1/GPa)
#
#
# Indices 1 2 3 4 5 6 
#
# 1 0.015694 -0.005139 -0.004161 0.000000 0.000000 0.000000
# 2 -0.005139 0.015694 -0.004161 0.000000 0.000000 0.000000
# 3 -0.004161 -0.004161 0.011185 0.000000 0.000000 0.000000
# 4 0.000000 0.000000 0.000000 0.028211 0.000000 0.000000
# 5 0.000000 0.000000 0.000000 0.000000 0.028211 0.000000
# 6 0.000000 0.000000 0.000000 0.000000 0.000000 0.038754
#
#
# Mechanical properties :
#
#
# Convention : Reuss Voigt Hill
#
# Bulk Modulus (GPa) = 63.90256 66.02485 64.96370
# Shear Modulus (GPa) = 29.43117 30.39294 29.91205
#
# Velocity S-wave (km/s) = 4.12965 4.19658 4.16325
# Velocity P-wave (km/s) = 7.73093 7.85749 7.79447
#
# Compressibility (1/GPa) = 0.01564883
#
# Stress axis : x y z
#
# Youngs Moduli (GPa) = 63.71919 63.71919 89.40565
#
# Poissons Ratio (x) = 0.32747 0.37204
# Poissons Ratio (y) = 0.32747 0.37204
# Poissons Ratio (z) = 0.26516 0.26516
#
# Static dielectric constant tensor:
#      x y z
#    x 1.591030 0.000000 0.000000 
#    y 0.000000 1.591030 0.000000 
#    z 0.000000 0.000000 1.603050 
# 
# From -- ./inp_files/13606.got.cif
#   From: 2010.05.17/outbox.cif.g08.bks.cpg/sg131_7_cif.got.tgz:13606.got - 2010.05.20 12:21:01.
