data_PCOD9566741
_publ_section_title
;
Structure prediction by ZEFSAII (Michael W. Deem and Ramdas Pophale) SiO2 
 PCOD9566741
Probable space group: P 42/M M C
;
_chemical_formula_sum "Si O2"
_cell_formula_units_Z 112
_cell_length_a 14.713283
_cell_length_b 14.713283
_cell_length_c 28.295640
_cell_angle_alpha 90.000000
_cell_angle_beta 90.000000
_cell_angle_gamma 90.000000
_cell_volume 6125.459859
_symmetry_space_group_name_H-M "P 42/M M C"
_symmetry_group_IT_number 131
_symmetry_cell_setting 'tetragonal'
loop_
_space_group_symop_operation_xyz
x,y,z
-x,-y,z
-y,x,1/2+z
y,-x,1/2+z
-x,y,-z
x,-y,-z
y,x,1/2-z
-y,-x,1/2-z
-x,-y,-z
x,y,-z
y,-x,1/2-z
-y,x,1/2-z
x,-y,z
-x,y,z
-y,-x,1/2+z
y,x,1/2+z
loop_
_atom_site_type_symbol
_atom_site_label
_atom_site_fract_x
_atom_site_fract_y
_atom_site_fract_z
Si Si1 0.601190 0.146449 0.703608
Si Si2 0.605028 0.139958 0.054811
Si Si3 0.104122 0.190291 0.798237
Si Si4 0.105144 0.740431 0.641129
Si Si5 0.682705 0.402517 0.849984
Si Si6 0.640693 0.604799 0.448142
Si Si7 0.397952 0.223279 0.195897
O O1 0.500000 0.101864 0.706659
O O2 0.699460 0.100161 0.705305
O O3 0.602083 0.209968 0.657927
O O4 0.602974 0.215907 0.747944
O O5 0.500000 0.111881 0.067719
O O6 0.686749 0.113710 0.090656
O O7 0.604831 0.249703 0.054968
O O8 0.619976 0.111383 0.000000
O O9 0.149799 0.149799 0.750000
O O10 0.169401 0.160936 0.842342
O O11 0.000000 0.157260 0.802722
O O12 0.143070 0.664655 0.676828
O O13 0.000000 0.761244 0.648781
O O14 0.649812 0.500000 0.831380
O O15 0.660009 0.395916 0.904661
O O16 0.637971 0.317661 0.823962
O O17 0.614586 0.638096 0.500000
O O18 0.611763 0.500000 0.443669
O O19 0.500000 0.210056 0.178405
#
# Coordination Sequence:
#
# PCOD9566741 Si02
#       7
#    16  16  16  16  16  16  16
#     4  10  21  38  61  84 112 150 191 236 290 349
#     4   9  18  35  60  89 123 160 195 237 295 360
#     4  12  24  42  64  86 117 154 197 251 306 356
#     4  12  24  38  59  86 116 154 197 243 296 349
#     4  11  20  32  52  76 108 153 197 237 285 344
#     4   9  17  30  48  72 107 150 192 235 281 333
#     4  11  21  35  54  79 115 152 190 236 287 349
#
# _framework density 18.284341000000001
#
# number of rings (size 3 to 8) (size 9 to 14) (size 15 to 20)
#    0.000    1.429    4.286    2.571    0.000    4.143 
#    0.000    3.571    0.000    5.571    0.000    1.000 
#    0.000    0.000    0.000   12.286    0.000    0.143 
#
# Total GULP energy -624078.330242 kJ/mol
# GULP energy per Si atom -5572.127949 kJ/mol
# Density = 1.824273 g / cm^3
# Si number density = 18.284341 Si / 1000 Ang^3
#
#
#
# Elastic Constant Matrix: (Units=GPa)
#
#
# Indices 1 2 3 4 5 6 
#
# 1 110.6213 29.4346 34.9560 0.0000 0.0000 0.0000
# 2 29.4346 110.6213 34.9560 0.0000 0.0000 0.0000
# 3 34.9560 34.9560 92.9770 0.0000 0.0000 0.0000
# 4 0.0000 0.0000 0.0000 4.8223 0.0000 0.0000
# 5 0.0000 0.0000 0.0000 0.0000 4.8223 0.0000
# 6 0.0000 0.0000 0.0000 0.0000 0.0000 -48.3563
#
#
#
# Elastic Compliance Matrix: (Units=1/GPa)
#
#
# Indices 1 2 3 4 5 6 
#
# 1 0.010553 -0.001764 -0.003305 0.000000 0.000000 0.000000
# 2 -0.001764 0.010553 -0.003305 0.000000 0.000000 0.000000
# 3 -0.003305 -0.003305 0.013240 0.000000 0.000000 0.000000
# 4 0.000000 0.000000 0.000000 0.207369 0.000000 0.000000
# 5 0.000000 0.000000 0.000000 0.000000 0.207369 0.000000
# 6 0.000000 0.000000 0.000000 0.000000 0.000000 -0.020680
#
#
# Mechanical properties :
#
#
# Convention : Reuss Voigt Hill
#
# Bulk Modulus (GPa) = 56.81491 56.99032 56.90261
# Shear Modulus (GPa) = 11.08601 6.58252 8.83426
#
# Velocity S-wave (km/s) = 2.46501 1.89945 2.20047
# Velocity P-wave (km/s) = 6.26436 6.00393 6.13552
#
# Compressibility (1/GPa) = 0.01760101
#
# Stress axis : x y z
#
# Youngs Moduli (GPa) = 94.75598 94.75598 75.52788
#
# Poissons Ratio (x) = 0.16714 0.24959
# Poissons Ratio (y) = 0.16714 0.24959
# Poissons Ratio (z) = 0.31313 0.31313
#
# Static dielectric constant tensor:
#      x y z
#    x 1.653640 0.000000 0.000000 
#    y 0.000000 1.653640 0.000000 
#    z 0.000000 0.000000 1.657280 
# 
# From -- ./inp_files/13862.got.cif
#   From: 2010.05.17/outbox.cif.g08.bks.cpg/sg131_7_cif.got.tgz:13862.got - 2010.05.20 12:21:01.
