data_PCOD9566724
_publ_section_title
;
Structure prediction by ZEFSAII (Michael W. Deem and Ramdas Pophale) SiO2 
 PCOD9566724
Probable space group: P 42/M M C
;
_chemical_formula_sum "Si O2"
_cell_formula_units_Z 104
_cell_length_a 16.679107
_cell_length_b 16.679107
_cell_length_c 19.998671
_cell_angle_alpha 90.000000
_cell_angle_beta 90.000000
_cell_angle_gamma 90.000000
_cell_volume 5563.482488
_symmetry_space_group_name_H-M "P 42/M M C"
_symmetry_group_IT_number 131
_symmetry_cell_setting 'tetragonal'
loop_
_space_group_symop_operation_xyz
x,y,z
-x,-y,z
-y,x,1/2+z
y,-x,1/2+z
-x,y,-z
x,-y,-z
y,x,1/2-z
-y,-x,1/2-z
-x,-y,-z
x,y,-z
y,-x,1/2-z
-y,x,1/2-z
x,-y,z
-x,y,z
-y,-x,1/2+z
y,x,1/2+z
loop_
_atom_site_type_symbol
_atom_site_label
_atom_site_fract_x
_atom_site_fract_y
_atom_site_fract_z
Si Si1 0.165631 0.090525 0.311707
Si Si2 0.793341 0.589549 0.922887
Si Si3 0.596451 0.000000 0.923853
Si Si4 0.092702 0.647395 0.811601
Si Si5 0.246129 0.695967 0.422538
Si Si6 0.187931 0.090874 0.922121
Si Si7 0.152205 0.404913 0.669420
O O1 0.148551 0.148551 0.250000
O O2 0.258874 0.095704 0.330683
O O3 0.109258 0.115273 0.372631
O O4 0.149571 0.000000 0.289238
O O5 0.756770 0.500000 0.915169
O O6 0.864110 0.598553 0.869657
O O7 0.737070 0.667430 0.912554
O O8 0.821591 0.595354 0.000000
O O9 0.614770 0.078456 0.880703
O O10 0.500000 0.000000 0.930582
O O11 0.629804 0.000000 0.000000
O O12 0.136221 0.635206 0.740710
O O13 0.000000 0.623777 0.802861
O O14 0.241662 0.668360 0.500000
O O15 0.169711 0.755858 0.412876
O O16 0.230017 0.627161 0.368765
O O17 0.219728 0.000000 0.907385
O O18 0.165529 0.091154 0.000000
O O19 0.153879 0.500000 0.679030
#
# Coordination Sequence:
#
# PCOD9566724 Si02
#       7
#    16  16   8  16  16  16  16
#     4  11  23  37  55  79 112 156 203 249 293 349
#     4  10  22  41  64  87 113 153 205 258 311 366
#     4   9  18  32  50  78 117 157 194 233 289 371
#     4  11  23  38  58  86 120 157 199 253 310 366
#     4  10  21  38  60  85 117 154 197 246 300 371
#     4  10  21  37  57  82 113 152 200 252 307 360
#     4  11  22  35  55  85 121 158 194 240 303 374
#
# _framework density 18.693327
#
# number of rings (size 3 to 8) (size 9 to 14) (size 15 to 20)
#    0.000    1.615    2.308    2.308    1.077    4.769 
#    0.000    3.077    0.000    0.462    0.000    2.154 
#    0.000    2.462    0.000    0.154    0.000    0.000 
#
# Total GULP energy -580353.009075 kJ/mol
# GULP energy per Si atom -5580.317395 kJ/mol
# Density = 1.865078 g / cm^3
# Si number density = 18.693327 Si / 1000 Ang^3
#
#
#
# Elastic Constant Matrix: (Units=GPa)
#
#
# Indices 1 2 3 4 5 6 
#
# 1 83.2149 31.1558 35.7495 0.0000 0.0000 0.0000
# 2 31.1558 83.2149 35.7495 0.0000 0.0000 0.0000
# 3 35.7495 35.7495 64.5928 0.0000 0.0000 0.0000
# 4 0.0000 0.0000 0.0000 23.7666 0.0000 0.0000
# 5 0.0000 0.0000 0.0000 0.0000 23.7666 0.0000
# 6 0.0000 0.0000 0.0000 0.0000 0.0000 14.8702
#
#
#
# Elastic Compliance Matrix: (Units=1/GPa)
#
#
# Indices 1 2 3 4 5 6 
#
# 1 0.016289 -0.002920 -0.007399 0.000000 0.000000 0.000000
# 2 -0.002920 0.016289 -0.007399 0.000000 0.000000 0.000000
# 3 -0.007399 -0.007399 0.023672 0.000000 0.000000 0.000000
# 4 0.000000 0.000000 0.000000 0.042076 0.000000 0.000000
# 5 0.000000 0.000000 0.000000 0.000000 0.042076 0.000000
# 6 0.000000 0.000000 0.000000 0.000000 0.000000 0.067249
#
#
# Mechanical properties :
#
#
# Convention : Reuss Voigt Hill
#
# Bulk Modulus (GPa) = 48.04648 48.48137 48.26392
# Shear Modulus (GPa) = 19.99800 21.03854 20.51827
#
# Velocity S-wave (km/s) = 3.27432 3.35842 3.31664
# Velocity P-wave (km/s) = 6.32876 6.40547 6.36723
#
# Compressibility (1/GPa) = 0.02081318
#
# Stress axis : x y z
#
# Youngs Moduli (GPa) = 61.39087 61.39087 42.24393
#
# Poissons Ratio (x) = 0.17925 0.31258
# Poissons Ratio (y) = 0.17925 0.31258
# Poissons Ratio (z) = 0.45425 0.45425
#
# Static dielectric constant tensor:
#      x y z
#    x 1.668210 0.000000 0.000000 
#    y 0.000000 1.668210 0.000000 
#    z 0.000000 0.000000 1.627640 
# 
# From -- ./inp_files/8089.got.cif
#   From: 2010.05.17/outbox.cif.g08.bks.cpg/sg131_5_cif.got.tgz:8089.got - 2010.05.20 12:21:01.
