data_PCOD9566345
_publ_section_title
;
Structure prediction by ZEFSAII (Michael W. Deem and Ramdas Pophale) SiO2 
 PCOD9566345
Probable space group: P 42/M M C
;
_chemical_formula_sum "Si O2"
_cell_formula_units_Z 104
_cell_length_a 17.845669
_cell_length_b 17.845669
_cell_length_c 17.413206
_cell_angle_alpha 90.000000
_cell_angle_beta 90.000000
_cell_angle_gamma 90.000000
_cell_volume 5545.547183
_symmetry_space_group_name_H-M "P 42/M M C"
_symmetry_group_IT_number 131
_symmetry_cell_setting 'tetragonal'
loop_
_space_group_symop_operation_xyz
x,y,z
-x,-y,z
-y,x,1/2+z
y,-x,1/2+z
-x,y,-z
x,-y,-z
y,x,1/2-z
-y,-x,1/2-z
-x,-y,-z
x,y,-z
y,-x,1/2-z
-y,x,1/2-z
x,-y,z
-x,y,z
-y,-x,1/2+z
y,x,1/2+z
loop_
_atom_site_type_symbol
_atom_site_label
_atom_site_fract_x
_atom_site_fract_y
_atom_site_fract_z
Si Si1 0.668057 0.914726 0.693141
Si Si2 0.189267 0.087991 0.413100
Si Si3 0.306940 0.792381 0.808446
Si Si4 0.582466 0.822131 0.590666
Si Si5 0.333642 0.343749 0.092117
Si Si6 0.586741 0.500000 0.093231
Si Si7 0.780071 0.085631 0.090724
O O1 0.748095 0.898600 0.651830
O O2 0.649497 0.852161 0.756073
O O3 0.608248 0.899228 0.627091
O O4 0.667756 0.000000 0.720418
O O5 0.217248 0.108481 0.500000
O O6 0.114034 0.134707 0.400171
O O7 0.174555 0.000000 0.412979
O O8 0.251794 0.748207 0.750000
O O9 0.350897 0.729218 0.856945
O O10 0.264548 0.848550 0.866588
O O11 0.579713 0.829266 0.500000
O O12 0.500000 0.799370 0.618120
O O13 0.639979 0.754540 0.605630
O O14 0.375090 0.421024 0.115730
O O15 0.345344 0.332189 0.000000
O O16 0.500000 0.500000 0.116102
O O17 0.591479 0.500000 0.000000
O O18 0.769309 0.000000 0.118530
O O19 0.762217 0.086567 0.000000
#
# Coordination Sequence:
#
# PCOD9566345 Si02
#       7
#    16  16  16  16  16   8  16
#     4  11  22  35  51  75 108 149 194 246 294 341
#     4   9  17  30  48  70  98 135 182 236 298 358
#     4  12  21  34  54  78 106 147 190 236 283 343
#     4  10  19  33  55  83 113 148 188 231 281 343
#     4  10  19  35  61  89 119 150 189 230 276 345
#     4   9  18  36  66 100 127 151 180 225 279 337
#     4  10  20  34  51  72 101 138 188 247 299 346
#
# _framework density 18.753784
#
# number of rings (size 3 to 8) (size 9 to 14) (size 15 to 20)
#    0.000    1.769    3.846    1.385    0.000    4.000 
#    0.000    3.077    1.692    0.000    0.000    0.000 
#    0.000    0.000    0.000   13.846    1.231    0.000 
#
# Total GULP energy -579340.875996 kJ/mol
# GULP energy per Si atom -5570.585346 kJ/mol
# Density = 1.871110 g / cm^3
# Si number density = 18.753784 Si / 1000 Ang^3
#
#
#
# Elastic Constant Matrix: (Units=GPa)
#
#
# Indices 1 2 3 4 5 6 
#
# 1 83.9627 29.5166 31.5476 0.0000 0.0000 0.0000
# 2 29.5166 83.9623 31.5471 0.0000 0.0000 0.0000
# 3 31.5476 31.5471 35.9793 0.0000 0.0000 0.0000
# 4 0.0000 0.0000 0.0000 -15.5570 0.0000 0.0000
# 5 0.0000 0.0000 0.0000 0.0000 -15.5499 0.0000
# 6 0.0000 0.0000 0.0000 0.0000 0.0000 23.8160
#
#
#
# Elastic Compliance Matrix: (Units=1/GPa)
#
#
# Indices 1 2 3 4 5 6 
#
# 1 0.017781 -0.000586 -0.015077 0.000000 0.000000 0.000000
# 2 -0.000586 0.017781 -0.015077 0.000000 0.000000 0.000000
# 3 -0.015077 -0.015077 0.054233 0.000000 0.000000 0.000000
# 4 0.000000 0.000000 0.000000 -0.064280 0.000000 0.000000
# 5 0.000000 0.000000 0.000000 0.000000 -0.064309 0.000000
# 6 0.000000 0.000000 0.000000 0.000000 0.000000 0.041989
#
#
# Mechanical properties :
#
#
# Convention : Reuss Voigt Hill
#
# Bulk Modulus (GPa) = 35.31622 43.23630 39.27626
# Shear Modulus (GPa) = 67.46438 5.96135 36.71286
#
# Velocity S-wave (km/s) = 6.00432 1.78484 4.42930
# Velocity P-wave (km/s) = 8.18178 5.22994 6.86636
#
# Compressibility (1/GPa) = 0.02831560
#
# Stress axis : x y z
#
# Youngs Moduli (GPa) = 56.23978 56.24024 18.43885
#
# Poissons Ratio (x) = 0.03295 0.27800
# Poissons Ratio (y) = 0.03295 0.27800
# Poissons Ratio (z) = 0.84793 0.84792
#
# Static dielectric constant tensor:
#      x y z
#    x 1.667470 0.000000 0.000000 
#    y 0.000000 1.667470 0.000000 
#    z 0.000000 0.000000 1.707630 
# 
# From -- ./inp_files/8118.got.cif
#   From: 2010.05.17/outbox.cif.g08.bks.cpg/sg131_5_cif.got.tgz:8118.got - 2010.05.20 12:21:01.
