data_PCOD9566467
_publ_section_title
;
Structure prediction by ZEFSAII (Michael W. Deem and Ramdas Pophale) SiO2 
 PCOD9566467
Probable space group: P 42/M M C
;
_chemical_formula_sum "Si O2"
_cell_formula_units_Z 72
_cell_length_a 17.349889
_cell_length_b 17.349889
_cell_length_c 17.149139
_cell_angle_alpha 90.000000
_cell_angle_beta 90.000000
_cell_angle_gamma 90.000000
_cell_volume 5162.210642
_symmetry_space_group_name_H-M "P 42/M M C"
_symmetry_group_IT_number 131
_symmetry_cell_setting 'tetragonal'
loop_
_space_group_symop_operation_xyz
x,y,z
-x,-y,z
-y,x,1/2+z
y,-x,1/2+z
-x,y,-z
x,-y,-z
y,x,1/2-z
-y,-x,1/2-z
-x,-y,-z
x,y,-z
y,-x,1/2-z
-y,x,1/2-z
x,-y,z
-x,y,z
-y,-x,1/2+z
y,x,1/2+z
loop_
_atom_site_type_symbol
_atom_site_label
_atom_site_fract_x
_atom_site_fract_y
_atom_site_fract_z
Si Si1 0.000000 0.406433 0.090893
Si Si2 0.325694 0.649991 0.842235
Si Si3 0.085833 0.593368 0.500000
Si Si4 0.408176 0.193500 0.142087
Si Si5 0.841084 0.407581 0.823395
Si Si6 0.410980 0.500000 0.093416
O O1 0.921413 0.383943 0.136230
O O2 0.000000 0.500000 0.090944
O O3 0.000000 0.381784 0.000000
O O4 0.343380 0.656621 0.750000
O O5 0.360467 0.729157 0.874180
O O6 0.234655 0.636305 0.854423
O O7 0.369243 0.575970 0.875322
O O8 0.082008 0.500000 0.500000
O O9 0.131307 0.614046 0.577788
O O10 0.000000 0.624553 0.500000
O O11 0.500000 0.210647 0.135639
O O12 0.395843 0.161570 0.229710
O O13 0.830846 0.500000 0.836546
O O14 0.500000 0.500000 0.118539
O O15 0.408119 0.500000 0.000000
#
# Coordination Sequence:
#
# PCOD9566467 Si02
#       6
#     8  16   8  16  16   8
#     4   9  18  30  46  65  85 109 145 190 233 272
#     4  10  20  33  48  64  87 123 158 191 233 268
#     4   9  18  30  46  67  85 114 149 185 235 272
#     4   9  18  30  46  65  90 115 150 192 225 269
#     4   9  17  31  46  65  85 114 152 187 227 273
#     4  11  24  32  42  63  87 121 164 202 232 258
#
# _framework density 13.947513000000001
#
# number of rings (size 3 to 8) (size 9 to 14) (size 15 to 20)
#    0.000    2.556    1.111    0.667    6.222    0.889 
#    0.000    0.000    0.000    0.000    0.000    0.000 
#    0.000    0.000    0.000    2.000    4.222    0.000 
#
# Total GULP energy -401156.485528 kJ/mol
# GULP energy per Si atom -5571.617855 kJ/mol
# Density = 1.391577 g / cm^3
# Si number density = 13.947513 Si / 1000 Ang^3
#
#
#
# Elastic Constant Matrix: (Units=GPa)
#
#
# Indices 1 2 3 4 5 6 
#
# 1 108.9944 57.3168 52.8341 0.0000 0.0000 0.0000
# 2 57.3168 108.9948 52.8336 0.0000 0.0000 0.0000
# 3 52.8341 52.8336 49.7378 0.0000 0.0000 0.0000
# 4 0.0000 0.0000 0.0000 14.5599 0.0000 0.0000
# 5 0.0000 0.0000 0.0000 0.0000 14.5599 0.0000
# 6 0.0000 0.0000 0.0000 0.0000 0.0000 6.7442
#
#
#
# Elastic Compliance Matrix: (Units=1/GPa)
#
#
# Indices 1 2 3 4 5 6 
#
# 1 0.018924 -0.000427 -0.019648 0.000000 0.000000 0.000000
# 2 -0.000427 0.018923 -0.019647 0.000000 0.000000 0.000000
# 3 -0.019648 -0.019647 0.061846 0.000000 0.000000 0.000000
# 4 0.000000 0.000000 0.000000 0.068682 0.000000 0.000000
# 5 0.000000 0.000000 0.000000 0.000000 0.068682 0.000000
# 6 0.000000 0.000000 0.000000 0.000000 0.000000 0.148276
#
#
# Mechanical properties :
#
#
# Convention : Reuss Voigt Hill
#
# Bulk Modulus (GPa) = 49.38570 65.96622 57.67596
# Shear Modulus (GPa) = 10.60388 14.15562 12.37975
#
# Velocity S-wave (km/s) = 2.76029 3.18924 2.98249
# Velocity P-wave (km/s) = 6.75604 7.80771 7.30084
#
# Compressibility (1/GPa) = 0.02024878
#
# Stress axis : x y z
#
# Youngs Moduli (GPa) = 52.84419 52.84568 16.16921
#
# Poissons Ratio (x) = 0.02259 0.31769
# Poissons Ratio (y) = 0.02258 0.31767
# Poissons Ratio (z) = 1.03826 1.03825
#
# Static dielectric constant tensor:
#      x y z
#    x 1.443460 0.000000 0.000000 
#    y 0.000000 1.443460 0.000000 
#    z 0.000000 0.000000 1.474440 
# 
# From -- ./inp_files/7650.got.cif
#   From: 2010.05.17/outbox.cif.g08.bks.cpg/sg131_4_cif.got.tgz:7650.got - 2010.05.20 12:21:01.
