data_PCOD9566382
_publ_section_title
;
Structure prediction by ZEFSAII (Michael W. Deem and Ramdas Pophale) SiO2 
 PCOD9566382
Probable space group: P 42/M M C
;
_chemical_formula_sum "Si O2"
_cell_formula_units_Z 96
_cell_length_a 14.869672
_cell_length_b 14.869672
_cell_length_c 21.311897
_cell_angle_alpha 90.000000
_cell_angle_beta 90.000000
_cell_angle_gamma 90.000000
_cell_volume 4712.212708
_symmetry_space_group_name_H-M "P 42/M M C"
_symmetry_group_IT_number 131
_symmetry_cell_setting 'tetragonal'
loop_
_space_group_symop_operation_xyz
x,y,z
-x,-y,z
-y,x,1/2+z
y,-x,1/2+z
-x,y,-z
x,-y,-z
y,x,1/2-z
-y,-x,1/2-z
-x,-y,-z
x,y,-z
y,-x,1/2-z
-y,x,1/2-z
x,-y,z
-x,y,z
-y,-x,1/2+z
y,x,1/2+z
loop_
_atom_site_type_symbol
_atom_site_label
_atom_site_fract_x
_atom_site_fract_y
_atom_site_fract_z
Si Si1 0.110076 0.104327 0.182581
Si Si2 0.396720 0.647376 0.426551
Si Si3 0.103087 0.790499 0.065809
Si Si4 0.607647 0.899693 0.755891
Si Si5 0.605118 0.713431 0.803266
Si Si6 0.857575 0.399791 0.891187
O O1 0.139915 0.139915 0.250000
O O2 0.145055 0.164170 0.126233
O O3 0.000000 0.108192 0.185815
O O4 0.133117 0.000000 0.173506
O O5 0.371953 0.631737 0.500000
O O6 0.500000 0.614338 0.418186
O O7 0.331271 0.611881 0.372012
O O8 0.399270 0.754103 0.412556
O O9 0.099903 0.683965 0.073946
O O10 0.000000 0.823265 0.063970
O O11 0.147862 0.813667 0.000000
O O12 0.500000 0.907228 0.765462
O O13 0.638212 0.816899 0.798954
O O14 0.618371 0.870801 0.683026
O O15 0.646986 0.000000 0.765012
O O16 0.657883 0.657883 0.750000
O O17 0.500000 0.712992 0.784733
O O18 0.893259 0.500000 0.903866
#
# Coordination Sequence:
#
# PCOD9566382 Si02
#       6
#    16  16  16  16  16  16
#     4   8  15  31  52  70  96 137 179 222 276 336
#     4  10  21  37  57  84 122 165 203 243 298 364
#     4  10  20  31  47  76 106 132 174 229 281 337
#     4   9  18  34  58  86 116 152 198 251 302 353
#     4  11  21  36  59  90 124 159 203 253 307 365
#     4  10  19  35  56  77 107 148 190 235 287 345
#
# _framework density 20.372596000000001
#
# number of rings (size 3 to 8) (size 9 to 14) (size 15 to 20)
#    0.000    2.333    1.667    2.000    0.000    3.833 
#    3.000    3.333    0.000    0.500    0.000    2.333 
#    0.000    0.333    0.000    0.000    0.000    0.000 
#
# Total GULP energy -535476.992723 kJ/mol
# GULP energy per Si atom -5577.885341 kJ/mol
# Density = 2.032623 g / cm^3
# Si number density = 20.372596 Si / 1000 Ang^3
#
#
#
# Elastic Constant Matrix: (Units=GPa)
#
#
# Indices 1 2 3 4 5 6 
#
# 1 77.4584 17.8471 55.8776 0.0000 0.0000 0.0000
# 2 17.8471 77.4584 55.8776 0.0000 0.0000 0.0000
# 3 55.8776 55.8776 172.4777 0.0000 0.0000 0.0000
# 4 0.0000 0.0000 0.0000 19.8381 0.0000 0.0000
# 5 0.0000 0.0000 0.0000 0.0000 19.8381 0.0000
# 6 0.0000 0.0000 0.0000 0.0000 0.0000 -37.5557
#
#
#
# Elastic Compliance Matrix: (Units=1/GPa)
#
#
# Indices 1 2 3 4 5 6 
#
# 1 0.016848 0.000073 -0.005482 0.000000 0.000000 0.000000
# 2 0.000073 0.016848 -0.005482 0.000000 0.000000 0.000000
# 3 -0.005482 -0.005482 0.009350 0.000000 0.000000 0.000000
# 4 0.000000 0.000000 0.000000 0.050408 0.000000 0.000000
# 5 0.000000 0.000000 0.000000 0.000000 0.050408 0.000000
# 6 0.000000 0.000000 0.000000 0.000000 0.000000 -0.026627
#
#
# Mechanical properties :
#
#
# Convention : Reuss Voigt Hill
#
# Bulk Modulus (GPa) = 47.02856 65.17767 56.10311
# Shear Modulus (GPa) = 34.22218 13.61026 23.91622
#
# Velocity S-wave (km/s) = 4.10300 2.58750 3.43000
# Velocity P-wave (km/s) = 6.75133 6.40228 6.57912
#
# Compressibility (1/GPa) = 0.02126368
#
# Stress axis : x y z
#
# Youngs Moduli (GPa) = 59.35471 59.35471 106.95578
#
# Poissons Ratio (x) = -0.00431 0.58630
# Poissons Ratio (y) = -0.00431 0.58630
# Poissons Ratio (z) = 0.32536 0.32536
#
# Static dielectric constant tensor:
#      x y z
#    x 1.767850 0.000000 0.000000 
#    y 0.000000 1.767850 0.000000 
#    z 0.000000 0.000000 1.748680 
# 
# From -- ./inp_files/9763.got.cif
#   From: 2010.05.17/outbox.cif.g08.bks.cpg/sg131_5_cif.got.tgz:9763.got - 2010.05.20 12:21:01.
