data_PCOD9566336
_publ_section_title
;
Structure prediction by ZEFSAII (Michael W. Deem and Ramdas Pophale) SiO2 
 PCOD9566336
Probable space group: P 42/M M C
;
_chemical_formula_sum "Si O2"
_cell_formula_units_Z 112
_cell_length_a 15.111736
_cell_length_b 15.111736
_cell_length_c 25.960067
_cell_angle_alpha 90.000000
_cell_angle_beta 90.000000
_cell_angle_gamma 90.000000
_cell_volume 5928.359406
_symmetry_space_group_name_H-M "P 42/M M C"
_symmetry_group_IT_number 131
_symmetry_cell_setting 'tetragonal'
loop_
_space_group_symop_operation_xyz
x,y,z
-x,-y,z
-y,x,1/2+z
y,-x,1/2+z
-x,y,-z
x,-y,-z
y,x,1/2-z
-y,-x,1/2-z
-x,-y,-z
x,y,-z
y,-x,1/2-z
-y,x,1/2-z
x,-y,z
-x,y,z
-y,-x,1/2+z
y,x,1/2+z
loop_
_atom_site_type_symbol
_atom_site_label
_atom_site_fract_x
_atom_site_fract_y
_atom_site_fract_z
Si Si1 0.744196 0.601375 0.940232
Si Si2 0.748674 0.398241 0.562820
Si Si3 0.731923 0.900918 0.060983
Si Si4 0.101364 0.357975 0.139420
Si Si5 0.784703 0.099824 0.212768
Si Si6 0.149448 0.101812 0.617476
Si Si7 0.596477 0.893391 0.758172
O O1 0.714014 0.500000 0.939394
O O2 0.664628 0.665913 0.923896
O O3 0.828203 0.610043 0.902651
O O4 0.768215 0.623513 0.000000
O O5 0.750841 0.401455 0.500000
O O6 0.744797 0.500000 0.580689
O O7 0.834677 0.343398 0.580866
O O8 0.830775 0.863994 0.070396
O O9 0.723456 0.000000 0.082648
O O10 0.718980 0.906031 0.000000
O O11 0.100089 0.251892 0.133887
O O12 0.126975 0.384373 0.197776
O O13 0.000000 0.389205 0.130454
O O14 0.833579 0.166422 0.250000
O O15 0.844150 0.100098 0.162105
O O16 0.682919 0.130123 0.208628
O O17 0.784301 0.000000 0.234829
O O18 0.120409 0.000000 0.610138
O O19 0.500000 0.857406 0.773095
O O20 0.591344 0.000000 0.761038
#
# Coordination Sequence:
#
# PCOD9566336 Si02
#       7
#    16  16  16  16  16  16  16
#     4  10  20  33  52  80 111 143 181 225 276 334
#     4   9  18  34  54  75 102 136 179 234 285 325
#     4  10  21  37  56  78 107 147 193 235 275 327
#     4  10  19  33  54  78 108 147 184 222 272 330
#     4  11  21  34  53  79 109 140 176 223 274 328
#     4  11  22  36  55  80 111 148 186 226 277 334
#     4   9  18  34  55  77 102 136 177 218 263 318
#
# _framework density 18.892242
#
# number of rings (size 3 to 8) (size 9 to 14) (size 15 to 20)
#    0.000    2.000    2.857    1.286    0.000    3.857 
#    0.000    6.429    0.000    1.714    0.000    0.000 
#    0.000    0.286    0.000    0.000    0.000    0.000 
#
# Total GULP energy -624304.530603 kJ/mol
# GULP energy per Si atom -5574.147595 kJ/mol
# Density = 1.884924 g / cm^3
# Si number density = 18.892242 Si / 1000 Ang^3
#
#
#
# Elastic Constant Matrix: (Units=GPa)
#
#
# Indices 1 2 3 4 5 6 
#
# 1 134.4177 48.7621 16.3717 0.0000 0.0000 0.0000
# 2 48.7621 134.4174 16.3709 0.0000 0.0000 0.0000
# 3 16.3717 16.3709 25.7589 0.0000 0.0000 0.0000
# 4 0.0000 0.0000 0.0000 15.6816 0.0000 0.0000
# 5 0.0000 0.0000 0.0000 0.0000 15.6813 0.0000
# 6 0.0000 0.0000 0.0000 0.0000 0.0000 9.3395
#
#
#
# Elastic Compliance Matrix: (Units=1/GPa)
#
#
# Indices 1 2 3 4 5 6 
#
# 1 0.008917 -0.002758 -0.003914 0.000000 0.000000 0.000000
# 2 -0.002758 0.008917 -0.003914 0.000000 0.000000 0.000000
# 3 -0.003914 -0.003914 0.043797 0.000000 0.000000 0.000000
# 4 0.000000 0.000000 0.000000 0.063769 0.000000 0.000000
# 5 0.000000 0.000000 0.000000 0.000000 0.063770 0.000000
# 6 0.000000 0.000000 0.000000 0.000000 0.000000 0.107072
#
#
# Mechanical properties :
#
#
# Convention : Reuss Voigt Hill
#
# Bulk Modulus (GPa) = 24.71731 50.84481 37.78106
# Shear Modulus (GPa) = 15.11030 22.34645 18.72837
#
# Velocity S-wave (km/s) = 2.83117 3.44297 3.15195
# Velocity P-wave (km/s) = 4.87843 6.54040 5.76957
#
# Compressibility (1/GPa) = 0.04045748
#
# Stress axis : x y z
#
# Youngs Moduli (GPa) = 112.14839 112.14908 22.83264
#
# Poissons Ratio (x) = 0.30930 0.08938
# Poissons Ratio (y) = 0.30930 0.08937
# Poissons Ratio (z) = 0.43900 0.43896
#
# Static dielectric constant tensor:
#      x y z
#    x 1.666320 0.000000 0.000000 
#    y 0.000000 1.666320 0.000000 
#    z 0.000000 0.000000 1.714920 
# 
# From -- ./inp_files/11283.got.cif
#   From: 2010.05.17/outbox.cif.g08.bks.cpg/sg131_6_cif.got.tgz:11283.got - 2010.05.20 12:21:01.
