data_PCOD9566347
_publ_section_title
;
Structure prediction by ZEFSAII (Michael W. Deem and Ramdas Pophale) SiO2 
 PCOD9566347
Probable space group: P 42/M M C
;
_chemical_formula_sum "Si O2"
_cell_formula_units_Z 112
_cell_length_a 14.743584
_cell_length_b 14.743584
_cell_length_c 29.203702
_cell_angle_alpha 90.000000
_cell_angle_beta 90.000000
_cell_angle_gamma 90.000000
_cell_volume 6348.104175
_symmetry_space_group_name_H-M "P 42/M M C"
_symmetry_group_IT_number 131
_symmetry_cell_setting 'tetragonal'
loop_
_space_group_symop_operation_xyz
x,y,z
-x,-y,z
-y,x,1/2+z
y,-x,1/2+z
-x,y,-z
x,-y,-z
y,x,1/2-z
-y,-x,1/2-z
-x,-y,-z
x,y,-z
y,-x,1/2-z
-y,x,1/2-z
x,-y,z
-x,y,z
-y,-x,1/2+z
y,x,1/2+z
loop_
_atom_site_type_symbol
_atom_site_label
_atom_site_fract_x
_atom_site_fract_y
_atom_site_fract_z
Si Si1 0.895294 0.110300 0.198552
Si Si2 0.393097 0.390614 0.614053
Si Si3 0.608754 0.097700 0.195924
Si Si4 0.602527 0.101965 0.555612
Si Si5 0.271173 0.266603 0.445272
Si Si6 0.297952 0.608528 0.708740
Si Si7 0.103603 0.247613 0.380506
O O1 0.863586 0.136415 0.250000
O O2 0.827594 0.134569 0.157238
O O3 0.000000 0.139983 0.191372
O O4 0.896227 0.000000 0.199635
O O5 0.390420 0.500000 0.612086
O O6 0.500000 0.364304 0.613512
O O7 0.334030 0.347827 0.573409
O O8 0.341783 0.360240 0.660711
O O9 0.500000 0.098099 0.191917
O O10 0.636425 0.193510 0.217395
O O11 0.657776 0.100060 0.147045
O O12 0.635652 0.000000 0.217474
O O13 0.601409 0.101275 0.500000
O O14 0.500000 0.124311 0.570481
O O15 0.674143 0.176427 0.569390
O O16 0.624322 0.000000 0.570801
O O17 0.263672 0.270215 0.500000
O O18 0.173951 0.259869 0.421242
O O19 0.357911 0.642090 0.750000
O O20 0.299192 0.500000 0.706966
O O21 0.000000 0.224935 0.394571
#
# Coordination Sequence:
#
# PCOD9566347 Si02
#       7
#    16  16  16  16  16  16  16
#     4   8  15  30  53  80 108 136 169 214 268 326
#     4  10  21  37  56  81 111 139 172 218 277 341
#     4   9  18  34  55  76 103 141 182 219 256 308
#     4   8  15  30  52  74  95 125 169 219 270 327
#     4  11  22  35  52  76 105 141 187 233 278 323
#     4  10  19  33  56  84 112 143 177 214 265 332
#     4  10  20  34  52  76 106 142 183 225 273 325
#
# _framework density 17.643062
#
# number of rings (size 3 to 8) (size 9 to 14) (size 15 to 20)
#    0.000    2.571    1.429    1.714    0.000    3.286 
#    0.000    0.714    0.000    0.857    0.000    9.000 
#    0.000    0.000    0.000    0.000    0.000    0.000 
#
# Total GULP energy -623631.268485 kJ/mol
# GULP energy per Si atom -5568.136326 kJ/mol
# Density = 1.760291 g / cm^3
# Si number density = 17.643062 Si / 1000 Ang^3
#
#
#
# Elastic Constant Matrix: (Units=GPa)
#
#
# Indices 1 2 3 4 5 6 
#
# 1 24.8076 18.6935 8.2910 0.0000 0.0000 0.0000
# 2 18.6935 24.8178 8.2931 0.0000 0.0000 0.0000
# 3 8.2910 8.2931 54.2131 0.0000 0.0000 0.0000
# 4 0.0000 0.0000 0.0000 23.7590 0.0000 0.0000
# 5 0.0000 0.0000 0.0000 0.0000 23.7591 0.0000
# 6 0.0000 0.0000 0.0000 0.0000 0.0000 20.1136
#
#
#
# Elastic Compliance Matrix: (Units=1/GPa)
#
#
# Indices 1 2 3 4 5 6 
#
# 1 0.093934 -0.069506 -0.003733 0.000000 0.000000 0.000000
# 2 -0.069506 0.093895 -0.003733 0.000000 0.000000 0.000000
# 3 -0.003733 -0.003733 0.019588 0.000000 0.000000 0.000000
# 4 0.000000 0.000000 0.000000 0.042089 0.000000 0.000000
# 5 0.000000 0.000000 0.000000 0.000000 0.042089 0.000000
# 6 0.000000 0.000000 0.000000 0.000000 0.000000 0.049718
#
#
# Mechanical properties :
#
#
# Convention : Reuss Voigt Hill
#
# Bulk Modulus (GPa) = 18.70168 19.37707 19.03938
# Shear Modulus (GPa) = 9.74502 18.09707 13.92104
#
# Velocity S-wave (km/s) = 2.35275 3.20618 2.81203
# Velocity P-wave (km/s) = 4.24306 4.97120 4.62149
#
# Compressibility (1/GPa) = 0.05347113
#
# Stress axis : x y z
#
# Youngs Moduli (GPa) = 10.64580 10.65014 51.05225
#
# Poissons Ratio (x) = 0.74025 0.19058
# Poissons Ratio (y) = 0.73995 0.19060
# Poissons Ratio (z) = 0.03974 0.03976
#
# Static dielectric constant tensor:
#      x y z
#    x 1.635270 0.000000 0.000000 
#    y 0.000000 1.635270 0.000000 
#    z 0.000000 0.000000 1.572500 
# 
# From -- ./inp_files/11313.got.cif
#   From: 2010.05.17/outbox.cif.g08.bks.cpg/sg131_6_cif.got.tgz:11313.got - 2010.05.20 12:21:01.
