data_PCOD9566630
_publ_section_title
;
Structure prediction by ZEFSAII (Michael W. Deem and Ramdas Pophale) SiO2 
 PCOD9566630
Probable space group: P 42/M M C
;
_chemical_formula_sum "Si O2"
_cell_formula_units_Z 112
_cell_length_a 15.170937
_cell_length_b 15.170937
_cell_length_c 26.266936
_cell_angle_alpha 90.000000
_cell_angle_beta 90.000000
_cell_angle_gamma 90.000000
_cell_volume 6045.527843
_symmetry_space_group_name_H-M "P 42/M M C"
_symmetry_group_IT_number 131
_symmetry_cell_setting 'tetragonal'
loop_
_space_group_symop_operation_xyz
x,y,z
-x,-y,z
-y,x,1/2+z
y,-x,1/2+z
-x,y,-z
x,-y,-z
y,x,1/2-z
-y,-x,1/2-z
-x,-y,-z
x,y,-z
y,-x,1/2-z
-y,x,1/2-z
x,-y,z
-x,y,z
-y,-x,1/2+z
y,x,1/2+z
loop_
_atom_site_type_symbol
_atom_site_label
_atom_site_fract_x
_atom_site_fract_y
_atom_site_fract_z
Si Si1 0.606350 0.211531 0.561420
Si Si2 0.105048 0.808380 0.347957
Si Si3 0.892676 0.500000 0.578794
Si Si4 0.308316 0.892989 0.946119
Si Si5 0.393268 0.406919 0.439614
Si Si6 0.893009 0.682207 0.253930
Si Si7 0.719954 0.102306 0.359465
Si Si8 0.500000 0.892917 0.197747
O O1 0.618433 0.202551 0.500000
O O2 0.500000 0.200180 0.570333
O O3 0.634389 0.310709 0.578092
O O4 0.667311 0.148508 0.594954
O O5 0.126084 0.741189 0.394094
O O6 0.124798 0.759901 0.294416
O O7 0.174140 0.885564 0.358555
O O8 0.000000 0.829592 0.349305
O O9 0.860032 0.408525 0.556256
O O10 0.873226 0.500000 0.638330
O O11 0.000000 0.500000 0.572595
O O12 0.311379 0.000000 0.947217
O O13 0.267547 0.863238 0.000000
O O14 0.375184 0.408001 0.500000
O O15 0.359701 0.500000 0.417625
O O16 0.500000 0.407302 0.434788
O O17 0.861624 0.692316 0.196217
O O18 0.861258 0.589609 0.276599
O O19 0.000000 0.679349 0.251930
O O20 0.697853 0.000000 0.361808
O O21 0.500000 0.000000 0.201324
#
# Coordination Sequence:
#
# PCOD9566630 Si02
#       8
#    16  16   8  16  16  16  16   8
#     4   9  19  36  57  83 116 150 184 229 286 341
#     4  10  20  37  57  75 103 142 184 233 285 330
#     4   9  13  22  43  74 106 135 166 198 246 320
#     4   9  16  26  45  74 104 135 170 209 258 317
#     4   7  10  21  47  79 105 134 173 214 263 324
#     4   9  18  33  54  80 106 136 176 225 279 334
#     4  11  24  37  54  80 107 143 191 240 284 331
#     4   9  14  25  50  79 107 136 167 208 266 332
#
# _framework density 18.526091999999998
#
# number of rings (size 3 to 8) (size 9 to 14) (size 15 to 20)
#    0.000    2.857    1.429    1.929    1.000    2.286 
#    0.000    0.714    3.143    2.571    0.000    3.000 
#    0.000    0.000    0.000    0.000    0.000    0.000 
#
# Total GULP energy -623475.585859 kJ/mol
# GULP energy per Si atom -5566.746302 kJ/mol
# Density = 1.848393 g / cm^3
# Si number density = 18.526092 Si / 1000 Ang^3
#
#
#
# Elastic Constant Matrix: (Units=GPa)
#
#
# Indices 1 2 3 4 5 6 
#
# 1 59.2563 25.3169 32.6321 0.0000 0.0000 0.0000
# 2 25.3169 59.2563 32.6321 0.0000 0.0000 0.0000
# 3 32.6321 32.6321 99.3095 0.0000 0.0000 0.0000
# 4 0.0000 0.0000 0.0000 11.7016 0.0000 0.0000
# 5 0.0000 0.0000 0.0000 0.0000 11.7016 0.0000
# 6 0.0000 0.0000 0.0000 0.0000 0.0000 22.3987
#
#
#
# Elastic Compliance Matrix: (Units=1/GPa)
#
#
# Indices 1 2 3 4 5 6 
#
# 1 0.022653 -0.006812 -0.005205 0.000000 0.000000 0.000000
# 2 -0.006812 0.022653 -0.005205 0.000000 0.000000 0.000000
# 3 -0.005205 -0.005205 0.013490 0.000000 0.000000 0.000000
# 4 0.000000 0.000000 0.000000 0.085458 0.000000 0.000000
# 5 0.000000 0.000000 0.000000 0.000000 0.085458 0.000000
# 6 0.000000 0.000000 0.000000 0.000000 0.000000 0.044645
#
#
# Mechanical properties :
#
#
# Convention : Reuss Voigt Hill
#
# Bulk Modulus (GPa) = 41.06550 44.33160 42.69855
# Shear Modulus (GPa) = 15.77694 17.64313 16.71003
#
# Velocity S-wave (km/s) = 2.92140 3.08935 3.00654
# Velocity P-wave (km/s) = 5.79602 6.05860 5.92876
#
# Compressibility (1/GPa) = 0.02435134
#
# Stress axis : x y z
#
# Youngs Moduli (GPa) = 44.14513 44.14513 74.12769
#
# Poissons Ratio (x) = 0.30070 0.38584
# Poissons Ratio (y) = 0.30070 0.38584
# Poissons Ratio (z) = 0.22978 0.22978
#
# Static dielectric constant tensor:
#      x y z
#    x 1.665830 0.000000 0.000000 
#    y 0.000000 1.665830 0.000000 
#    z 0.000000 0.000000 1.631120 
# 
# From -- ./inp_files/12529.got.cif
#   From: 2010.05.17/outbox.cif.g08.bks.cpg/sg131_7_cif.got.tgz:12529.got - 2010.05.20 12:21:01.
