data_PCOD9566242
_publ_section_title
;
Structure prediction by ZEFSAII (Michael W. Deem and Ramdas Pophale) SiO2 
 PCOD9566242
Probable space group: P 42/M M C
;
_chemical_formula_sum "Si O2"
_cell_formula_units_Z 92
_cell_length_a 25.625604
_cell_length_b 25.625604
_cell_length_c 7.702288
_cell_angle_alpha 90.000000
_cell_angle_beta 90.000000
_cell_angle_gamma 90.000000
_cell_volume 5057.873633
_symmetry_space_group_name_H-M "P 42/M M C"
_symmetry_group_IT_number 131
_symmetry_cell_setting 'tetragonal'
loop_
_space_group_symop_operation_xyz
x,y,z
-x,-y,z
-y,x,1/2+z
y,-x,1/2+z
-x,y,-z
x,-y,-z
y,x,1/2-z
-y,-x,1/2-z
-x,-y,-z
x,y,-z
y,-x,1/2-z
-y,x,1/2-z
x,-y,z
-x,y,z
-y,-x,1/2+z
y,x,1/2+z
loop_
_atom_site_type_symbol
_atom_site_label
_atom_site_fract_x
_atom_site_fract_y
_atom_site_fract_z
Si Si1 0.317847 0.500000 0.000000
Si Si2 0.645861 0.220984 0.296588
Si Si3 0.890371 0.390679 0.204493
Si Si4 0.409938 0.675274 0.199411
Si Si5 0.167598 0.248147 0.707139
Si Si6 0.713983 0.057467 0.797022
Si Si7 0.940478 0.500000 0.291960
O O1 0.318330 0.545573 0.155017
O O2 0.633919 0.227528 0.500000
O O3 0.616505 0.168789 0.229838
O O4 0.626882 0.273257 0.206197
O O5 0.706382 0.205347 0.278178
O O6 0.927925 0.347276 0.286360
O O7 0.911420 0.448164 0.232265
O O8 0.889088 0.378827 0.000000
O O9 0.374153 0.625848 0.250000
O O10 0.428911 0.669418 0.000000
O O11 0.192984 0.192984 0.750000
O O12 0.166300 0.255090 0.500000
O O13 0.108940 0.257528 0.776103
O O14 0.723212 0.000000 0.720145
O O15 0.728178 0.054676 0.000000
O O16 0.941452 0.500000 0.500000
O O17 0.000000 0.500000 0.227581
#
# Coordination Sequence:
#
# PCOD9566242 Si02
#       7
#     4  16  16  16  16  16   8
#     4  12  26  46  68 101 128 152 191 232 270 350
#     4  10  20  37  57  83 118 150 188 231 285 341
#     4  10  21  34  51  74 103 137 181 239 279 322
#     4  12  24  44  71  97 126 161 190 231 287 349
#     4  10  19  31  50  78 109 143 185 230 280 339
#     4   9  18  33  51  70  98 137 180 224 274 334
#     4  11  23  36  49  65  95 142 191 235 275 322
#
# _framework density 18.189461999999999
#
# number of rings (size 3 to 8) (size 9 to 14) (size 15 to 20)
#    0.000    1.652    1.739    3.130    0.000    6.609 
#    0.000    0.000    0.000    0.783    0.000    0.000 
#    0.000    0.348    0.000    4.348    0.000    0.000 
#
# Total GULP energy -512430.788133 kJ/mol
# GULP energy per Si atom -5569.899871 kJ/mol
# Density = 1.814806 g / cm^3
# Si number density = 18.189462 Si / 1000 Ang^3
#
#
#
# Elastic Constant Matrix: (Units=GPa)
#
#
# Indices 1 2 3 4 5 6 
#
# 1 95.7780 61.4978 14.7441 0.0000 0.0000 0.0000
# 2 61.4978 95.7901 14.7444 0.0000 0.0000 0.0000
# 3 14.7441 14.7444 96.2851 0.0000 0.0000 0.0000
# 4 0.0000 0.0000 0.0000 15.3877 0.0000 0.0000
# 5 0.0000 0.0000 0.0000 0.0000 15.3891 0.0000
# 6 0.0000 0.0000 0.0000 0.0000 0.0000 14.2313
#
#
#
# Elastic Compliance Matrix: (Units=1/GPa)
#
#
# Indices 1 2 3 4 5 6 
#
# 1 0.017857 -0.011310 -0.001003 0.000000 0.000000 0.000000
# 2 -0.011310 0.017855 -0.001002 0.000000 0.000000 0.000000
# 3 -0.001003 -0.001002 0.010693 0.000000 0.000000 0.000000
# 4 0.000000 0.000000 0.000000 0.064987 0.000000 0.000000
# 5 0.000000 0.000000 0.000000 0.000000 0.064981 0.000000
# 6 0.000000 0.000000 0.000000 0.000000 0.000000 0.070268
#
#
# Mechanical properties :
#
#
# Convention : Reuss Voigt Hill
#
# Bulk Modulus (GPa) = 50.56851 52.20287 51.38569
# Shear Modulus (GPa) = 17.86594 22.12609 19.99601
#
# Velocity S-wave (km/s) = 3.13743 3.49151 3.31919
# Velocity P-wave (km/s) = 6.40203 6.70940 6.55751
#
# Compressibility (1/GPa) = 0.01977515
#
# Stress axis : x y z
#
# Youngs Moduli (GPa) = 55.99984 56.00700 93.52076
#
# Poissons Ratio (x) = 0.63344 0.09376
# Poissons Ratio (y) = 0.63336 0.09373
# Poissons Ratio (z) = 0.05614 0.05613
#
# Static dielectric constant tensor:
#      x y z
#    x 1.630850 0.000000 0.000000 
#    y 0.000000 1.630850 0.000000 
#    z 0.000000 0.000000 1.674270 
# 
# From -- ./inp_files/2330.got.cif
#   From: 2010.05.17/outbox.cif.g08.bks.cpg/sg131_2_cif.got.tgz:2330.got - 2010.05.20 12:21:01.
