data_PCOD9566274
_publ_section_title
;
Structure prediction by ZEFSAII (Michael W. Deem and Ramdas Pophale) SiO2 
 PCOD9566274
Probable space group: P 42/M M C
;
_chemical_formula_sum "Si O2"
_cell_formula_units_Z 112
_cell_length_a 14.860063
_cell_length_b 14.860063
_cell_length_c 30.631329
_cell_angle_alpha 90.000000
_cell_angle_beta 90.000000
_cell_angle_gamma 90.000000
_cell_volume 6764.055170
_symmetry_space_group_name_H-M "P 42/M M C"
_symmetry_group_IT_number 131
_symmetry_cell_setting 'tetragonal'
loop_
_space_group_symop_operation_xyz
x,y,z
-x,-y,z
-y,x,1/2+z
y,-x,1/2+z
-x,y,-z
x,-y,-z
y,x,1/2-z
-y,-x,1/2-z
-x,-y,-z
x,y,-z
y,-x,1/2-z
-y,x,1/2-z
x,-y,z
-x,y,z
-y,-x,1/2+z
y,x,1/2+z
loop_
_atom_site_type_symbol
_atom_site_label
_atom_site_fract_x
_atom_site_fract_y
_atom_site_fract_z
Si Si1 0.890522 0.104749 0.701301
Si Si2 0.107437 0.201778 0.388741
Si Si3 0.599155 0.893855 0.870095
Si Si4 0.895061 0.606177 0.879498
Si Si5 0.752530 0.394047 0.804949
Si Si6 0.246680 0.108164 0.450075
Si Si7 0.749569 0.398457 0.704266
O O1 0.862733 0.137268 0.750000
O O2 0.864878 0.165856 0.659805
O O3 0.000000 0.104050 0.702948
O O4 0.862207 0.000000 0.694675
O O5 0.126765 0.307982 0.394691
O O6 0.161039 0.146891 0.424796
O O7 0.000000 0.187953 0.392023
O O8 0.500000 0.875398 0.890341
O O9 0.604699 0.835832 0.826385
O O10 0.602311 0.000000 0.860317
O O11 0.886734 0.500000 0.889288
O O12 0.832868 0.626671 0.838057
O O13 0.868114 0.666766 0.920650
O O14 0.000000 0.624357 0.869527
O O15 0.728886 0.500000 0.810681
O O16 0.777381 0.381142 0.754197
O O17 0.670056 0.326399 0.811648
O O18 0.253009 0.139581 0.500000
O O19 0.240955 0.000000 0.450657
O O20 0.712319 0.500000 0.702810
#
# Coordination Sequence:
#
# PCOD9566274 Si02
#       7
#    16  16  16  16  16  16  16
#     4   8  14  26  43  64  93 125 156 190 227 274
#     4  10  19  32  50  71  96 127 161 197 241 290
#     4   9  18  32  48  66  91 125 164 200 231 271
#     4   9  18  33  51  70  94 126 162 200 241 283
#     4   9  17  29  46  69  96 125 159 198 238 283
#     4  10  21  35  51  74 100 125 157 197 243 296
#     4   9  17  29  45  66  95 129 161 196 238 281
#
# _framework density 16.558114
#
# number of rings (size 3 to 8) (size 9 to 14) (size 15 to 20)
#    0.000    2.857    0.000    1.714    0.000    2.286 
#    5.143    6.429    0.000    0.429    0.000    2.000 
#    0.000    0.000    0.000   12.286    0.000    0.429 
#
# Total GULP energy -623951.004992 kJ/mol
# GULP energy per Si atom -5570.991116 kJ/mol
# Density = 1.652043 g / cm^3
# Si number density = 16.558114 Si / 1000 Ang^3
#
#
#
# Elastic Constant Matrix: (Units=GPa)
#
#
# Indices 1 2 3 4 5 6 
#
# 1 41.8772 26.6720 41.4875 0.0000 0.0000 0.0000
# 2 26.6720 41.8771 41.4874 0.0000 0.0000 0.0000
# 3 41.4875 41.4874 89.5571 0.0000 0.0000 0.0000
# 4 0.0000 0.0000 0.0000 18.5747 0.0000 0.0000
# 5 0.0000 0.0000 0.0000 0.0000 18.5747 0.0000
# 6 0.0000 0.0000 0.0000 0.0000 0.0000 22.4813
#
#
#
# Elastic Compliance Matrix: (Units=1/GPa)
#
#
# Indices 1 2 3 4 5 6 
#
# 1 0.049489 -0.016278 -0.015385 0.000000 0.000000 0.000000
# 2 -0.016278 0.049489 -0.015385 0.000000 0.000000 0.000000
# 3 -0.015385 -0.015385 0.025420 0.000000 0.000000 0.000000
# 4 0.000000 0.000000 0.000000 0.053837 0.000000 0.000000
# 5 0.000000 0.000000 0.000000 0.000000 0.053837 0.000000
# 6 0.000000 0.000000 0.000000 0.000000 0.000000 0.044481
#
#
# Mechanical properties :
#
#
# Convention : Reuss Voigt Hill
#
# Bulk Modulus (GPa) = 33.00125 43.62281 38.31203
# Shear Modulus (GPa) = 13.13201 16.17046 14.65123
#
# Velocity S-wave (km/s) = 2.81923 3.12843 2.97785
# Velocity P-wave (km/s) = 5.52913 6.28108 5.91706
#
# Compressibility (1/GPa) = 0.03030188
#
# Stress axis : x y z
#
# Youngs Moduli (GPa) = 20.20657 20.20654 39.33898
#
# Poissons Ratio (x) = 0.32893 0.60522
# Poissons Ratio (y) = 0.32893 0.60522
# Poissons Ratio (z) = 0.31087 0.31087
#
# Static dielectric constant tensor:
#      x y z
#    x 1.574450 0.000000 0.000000 
#    y 0.000000 1.574450 0.000000 
#    z 0.000000 0.000000 1.534900 
# 
# From -- ./inp_files/12420.got.cif
#   From: 2010.05.17/outbox.cif.g08.bks.cpg/sg131_7_cif.got.tgz:12420.got - 2010.05.20 12:21:01.
