data_PCOD9566157
_publ_section_title
;
Structure prediction by ZEFSAII (Michael W. Deem and Ramdas Pophale) SiO2 
 PCOD9566157
Probable space group: P 42/M M C
;
_chemical_formula_sum "Si O2"
_cell_formula_units_Z 88
_cell_length_a 13.816244
_cell_length_b 13.816244
_cell_length_c 32.166247
_cell_angle_alpha 90.000000
_cell_angle_beta 90.000000
_cell_angle_gamma 90.000000
_cell_volume 6140.169801
_symmetry_space_group_name_H-M "P 42/M M C"
_symmetry_group_IT_number 131
_symmetry_cell_setting 'tetragonal'
loop_
_space_group_symop_operation_xyz
x,y,z
-x,-y,z
-y,x,1/2+z
y,-x,1/2+z
-x,y,-z
x,-y,-z
y,x,1/2-z
-y,-x,1/2-z
-x,-y,-z
x,y,-z
y,-x,1/2-z
-y,x,1/2-z
x,-y,z
-x,y,z
-y,-x,1/2+z
y,x,1/2+z
loop_
_atom_site_type_symbol
_atom_site_label
_atom_site_fract_x
_atom_site_fract_y
_atom_site_fract_z
Si Si1 0.791636 0.884565 0.547869
Si Si2 0.383335 0.890287 0.000000
Si Si3 0.251338 0.388907 0.049032
Si Si4 0.889166 0.882449 0.795753
Si Si5 0.233848 0.385223 0.582282
Si Si6 0.885116 0.230828 0.377217
O O1 0.821813 0.862058 0.500000
O O2 0.684239 0.839209 0.553562
O O3 0.857723 0.836123 0.583147
O O4 0.790837 0.000000 0.552322
O O5 0.359890 0.828870 0.959175
O O6 0.500000 0.898225 0.000000
O O7 0.344038 0.000000 0.000000
O O8 0.232352 0.500000 0.060770
O O9 0.337561 0.338203 0.074485
O O10 0.277296 0.387946 0.000000
O O11 0.852572 0.852572 0.750000
O O12 0.824491 0.856647 0.835078
O O13 0.000000 0.849181 0.801650
O O14 0.892040 0.000000 0.794266
O O15 0.237361 0.500000 0.587141
O O16 0.176066 0.328809 0.617841
O O17 0.000000 0.249194 0.377176
#
# Coordination Sequence:
#
# PCOD9566157 Si02
#       6
#    16   8  16  16  16  16
#     4   9  18  30  41  58  87 118 146 174 209 257
#     4   9  16  26  39  53  76 115 151 173 201 245
#     4   9  17  29  44  60  78 105 146 192 228 254
#     4   8  14  26  44  65  87 109 137 176 219 259
#     4  10  19  30  41  59  86 115 149 184 218 258
#     4  10  19  28  42  63  87 117 151 180 207 247
#
# _framework density 14.331849999999999
#
# number of rings (size 3 to 8) (size 9 to 14) (size 15 to 20)
#    0.000    2.818    0.909    1.636    1.273    3.273 
#    0.000    3.636    0.000    0.000    0.000    5.091 
#    0.000   11.636    0.000    0.000    0.000    0.000 
#
# Total GULP energy -490042.445294 kJ/mol
# GULP energy per Si atom -5568.664151 kJ/mol
# Density = 1.429923 g / cm^3
# Si number density = 14.331850 Si / 1000 Ang^3
#
#
#
# Elastic Constant Matrix: (Units=GPa)
#
#
# Indices 1 2 3 4 5 6 
#
# 1 46.7769 -8.6659 11.9222 0.0000 0.0000 0.0000
# 2 -8.6659 46.7769 11.9222 0.0000 0.0000 0.0000
# 3 11.9222 11.9222 64.6120 0.0000 0.0000 0.0000
# 4 0.0000 0.0000 0.0000 10.5228 0.0000 0.0000
# 5 0.0000 0.0000 0.0000 0.0000 10.5228 0.0000
# 6 0.0000 0.0000 0.0000 0.0000 0.0000 12.5304
#
#
#
# Elastic Compliance Matrix: (Units=1/GPa)
#
#
# Indices 1 2 3 4 5 6 
#
# 1 0.023850 0.005814 -0.005474 0.000000 0.000000 0.000000
# 2 0.005814 0.023850 -0.005474 0.000000 0.000000 0.000000
# 3 -0.005474 -0.005474 0.017497 0.000000 0.000000 0.000000
# 4 0.000000 0.000000 0.000000 0.095031 0.000000 0.000000
# 5 0.000000 0.000000 0.000000 0.000000 0.095031 0.000000
# 6 0.000000 0.000000 0.000000 0.000000 0.000000 0.079806
#
#
# Mechanical properties :
#
#
# Convention : Reuss Voigt Hill
#
# Bulk Modulus (GPa) = 18.20495 20.94701 19.57598
# Shear Modulus (GPa) = 13.74974 16.24770 14.99872
#
# Velocity S-wave (km/s) = 3.10075 3.37067 3.23852
# Velocity P-wave (km/s) = 5.05466 5.45857 5.26049
#
# Compressibility (1/GPa) = 0.05493012
#
# Stress axis : x y z
#
# Youngs Moduli (GPa) = 41.92847 41.92847 57.15277
#
# Poissons Ratio (x) = -0.24375 0.31283
# Poissons Ratio (y) = -0.24375 0.31283
# Poissons Ratio (z) = 0.22950 0.22950
#
# Static dielectric constant tensor:
#      x y z
#    x 1.477760 0.000000 0.000000 
#    y 0.000000 1.477760 0.000000 
#    z 0.000000 0.000000 1.474870 
# 
# From -- ./inp_files/12257.got.cif
#   From: 2010.05.17/outbox.cif.g08.bks.cpg/sg131_7_cif.got.tgz:12257.got - 2010.05.20 12:21:01.
