data_PCOD9566604
_publ_section_title
;
Structure prediction by ZEFSAII (Michael W. Deem and Ramdas Pophale) SiO2 
 PCOD9566604
Probable space group: P 42/M M C
;
_chemical_formula_sum "Si O2"
_cell_formula_units_Z 112
_cell_length_a 14.524174
_cell_length_b 14.524174
_cell_length_c 26.739736
_cell_angle_alpha 90.000000
_cell_angle_beta 90.000000
_cell_angle_gamma 90.000000
_cell_volume 5640.790905
_symmetry_space_group_name_H-M "P 42/M M C"
_symmetry_group_IT_number 131
_symmetry_cell_setting 'tetragonal'
loop_
_space_group_symop_operation_xyz
x,y,z
-x,-y,z
-y,x,1/2+z
y,-x,1/2+z
-x,y,-z
x,-y,-z
y,x,1/2-z
-y,-x,1/2-z
-x,-y,-z
x,y,-z
y,-x,1/2-z
-y,x,1/2-z
x,-y,z
-x,y,z
-y,-x,1/2+z
y,x,1/2+z
loop_
_atom_site_type_symbol
_atom_site_label
_atom_site_fract_x
_atom_site_fract_y
_atom_site_fract_z
Si Si1 0.390097 0.109903 0.750000
Si Si2 0.104957 0.895904 0.895425
Si Si3 0.395904 0.604957 0.395426
Si Si4 0.608899 0.794027 0.148329
Si Si5 0.793932 0.608658 0.944586
Si Si6 0.108658 0.706068 0.444586
Si Si7 0.891101 0.294027 0.851670
O O1 0.500000 0.124298 0.743346
O O2 0.358976 0.162252 0.799838
O O3 0.337749 0.141024 0.700162
O O4 0.375701 0.000000 0.756654
O O5 0.184003 0.884115 0.936583
O O6 0.120125 0.815847 0.855097
O O7 0.000000 0.885770 0.914352
O O8 0.114388 0.000000 0.875476
O O9 0.385770 0.500000 0.414353
O O10 0.500000 0.614388 0.375477
O O11 0.315848 0.620125 0.355097
O O12 0.384115 0.684003 0.436583
O O13 0.500000 0.814652 0.144126
O O14 0.658769 0.837460 0.100447
O O15 0.817192 0.500000 0.940793
O O16 0.841231 0.662540 0.899553
O O17 0.819795 0.641388 0.000000
O O18 0.141388 0.680206 0.500000
O O19 0.000000 0.682808 0.440793
O O20 0.000000 0.314652 0.855874
#
# Coordination Sequence:
#
# PCOD9566604 Si02
#       7
#    16  16  16  16  16  16  16
#     4   9  18  34  57  84 112 142 179 223 272 330
#     4   9  19  36  56  79 108 143 186 231 272 321
#     4   9  19  36  56  79 108 143 186 231 272 321
#     4  10  20  35  58  85 112 145 183 225 276 331
#     4  10  21  36  55  81 113 147 183 227 278 330
#     4  10  21  36  55  81 113 147 183 227 278 330
#     4  10  20  35  58  85 112 145 183 225 276 331
#
# _framework density 19.855371999999999
#
# number of rings (size 3 to 8) (size 9 to 14) (size 15 to 20)
#    0.000    2.429    0.000    1.714    0.000    5.143 
#    0.000   10.000    0.000    5.143    0.000   12.000 
#    0.000    0.000    0.000    0.000    0.000    0.000 
#
# Total GULP energy -624962.127664 kJ/mol
# GULP energy per Si atom -5580.018997 kJ/mol
# Density = 1.981018 g / cm^3
# Si number density = 19.855372 Si / 1000 Ang^3
#
#
#
# Elastic Constant Matrix: (Units=GPa)
#
#
# Indices 1 2 3 4 5 6 
#
# 1 72.6757 40.9463 70.1172 0.0000 0.0000 0.0000
# 2 40.9463 72.6757 70.1172 0.0000 0.0000 0.0000
# 3 70.1172 70.1172 170.4726 0.0000 0.0000 0.0000
# 4 0.0000 0.0000 0.0000 18.4281 0.0000 0.0000
# 5 0.0000 0.0000 0.0000 0.0000 18.4281 0.0000
# 6 0.0000 0.0000 0.0000 0.0000 0.0000 26.8072
#
#
#
# Elastic Compliance Matrix: (Units=1/GPa)
#
#
# Indices 1 2 3 4 5 6 
#
# 1 0.024696 -0.006820 -0.007352 0.000000 0.000000 0.000000
# 2 -0.006820 0.024696 -0.007352 0.000000 0.000000 0.000000
# 3 -0.007352 -0.007352 0.011914 0.000000 0.000000 0.000000
# 4 0.000000 0.000000 0.000000 0.054265 0.000000 0.000000
# 5 0.000000 0.000000 0.000000 0.000000 0.054265 0.000000
# 6 0.000000 0.000000 0.000000 0.000000 0.000000 0.037303
#
#
# Mechanical properties :
#
#
# Convention : Reuss Voigt Hill
#
# Bulk Modulus (GPa) = 54.77705 75.35394 65.06549
# Shear Modulus (GPa) = 19.51026 21.70892 20.60959
#
# Velocity S-wave (km/s) = 3.13808 3.31018 3.22527
# Velocity P-wave (km/s) = 6.38576 7.25558 6.83452
#
# Compressibility (1/GPa) = 0.01825582
#
# Stress axis : x y z
#
# Youngs Moduli (GPa) = 40.49231 40.49231 83.93269
#
# Poissons Ratio (x) = 0.27617 0.61711
# Poissons Ratio (y) = 0.27617 0.61711
# Poissons Ratio (z) = 0.29772 0.29772
#
# Static dielectric constant tensor:
#      x y z
#    x 1.724450 0.000000 0.000000 
#    y 0.000000 1.724450 0.000000 
#    z 0.000000 0.000000 1.650120 
# 
# From -- ./inp_files/11291.got.cif
#   From: 2010.05.17/outbox.cif.g08.bks.cpg/sg131_6_cif.got.tgz:11291.got - 2010.05.20 12:21:01.
