data_PCOD9566305
_publ_section_title
;
Structure prediction by ZEFSAII (Michael W. Deem and Ramdas Pophale) SiO2 
 PCOD9566305
Probable space group: P 42/M M C
;
_chemical_formula_sum "Si O2"
_cell_formula_units_Z 104
_cell_length_a 18.712276
_cell_length_b 18.712276
_cell_length_c 18.332304
_cell_angle_alpha 90.000000
_cell_angle_beta 90.000000
_cell_angle_gamma 90.000000
_cell_volume 6419.042920
_symmetry_space_group_name_H-M "P 42/M M C"
_symmetry_group_IT_number 131
_symmetry_cell_setting 'tetragonal'
loop_
_space_group_symop_operation_xyz
x,y,z
-x,-y,z
-y,x,1/2+z
y,-x,1/2+z
-x,y,-z
x,-y,-z
y,x,1/2-z
-y,-x,1/2-z
-x,-y,-z
x,y,-z
y,-x,1/2-z
-y,x,1/2-z
x,-y,z
-x,y,z
-y,-x,1/2+z
y,x,1/2+z
loop_
_atom_site_type_symbol
_atom_site_label
_atom_site_fract_x
_atom_site_fract_y
_atom_site_fract_z
Si Si1 0.418266 0.716043 0.413248
Si Si2 0.500000 0.086485 0.417429
Si Si3 0.916505 0.367657 0.814673
Si Si4 0.323867 0.204225 0.086481
Si Si5 0.419136 0.083320 0.149411
Si Si6 0.714217 0.777668 0.675932
Si Si7 0.338193 0.420482 0.412361
O O1 0.402605 0.729181 0.500000
O O2 0.500000 0.736323 0.399046
O O3 0.359892 0.751205 0.360727
O O4 0.405252 0.631358 0.400558
O O5 0.500000 0.114257 0.500000
O O6 0.427452 0.104525 0.374579
O O7 0.500000 0.000000 0.419965
O O8 0.911601 0.406219 0.736154
O O9 0.861583 0.301505 0.813911
O O10 0.000000 0.348075 0.826080
O O11 0.359722 0.131196 0.111400
O O12 0.247606 0.223909 0.120774
O O13 0.377995 0.267426 0.112549
O O14 0.319295 0.207549 0.000000
O O15 0.500000 0.107591 0.131700
O O16 0.413379 0.000000 0.129252
O O17 0.736767 0.736767 0.750000
O O18 0.330986 0.426177 0.500000
O O19 0.343521 0.500000 0.381770
#
# Coordination Sequence:
#
# PCOD9566305 Si02
#       7
#    16   8  16  16  16  16  16
#     4   9  19  33  48  69  96 128 170 218 265 308
#     4   9  18  32  52  80 109 137 172 215 263 311
#     4  10  20  35  53  76 107 137 173 216 260 317
#     4  10  20  34  50  72 102 133 171 216 258 310
#     4  10  19  32  52  77 107 143 178 215 259 310
#     4  11  21  35  52  74  99 135 174 209 262 320
#     4   8  14  26  44  64  86 118 162 209 253 293
#
# _framework density 16.201791
#
# number of rings (size 3 to 8) (size 9 to 14) (size 15 to 20)
#    0.000    2.385    2.308    1.846    1.077    2.769 
#    0.000    3.077    0.000    0.000    0.000    0.000 
#    0.000    2.154    0.000    1.385    0.000    0.000 
#
# Total GULP energy -579337.848336 kJ/mol
# GULP energy per Si atom -5570.556234 kJ/mol
# Density = 1.616492 g / cm^3
# Si number density = 16.201791 Si / 1000 Ang^3
#
#
#
# Elastic Constant Matrix: (Units=GPa)
#
#
# Indices 1 2 3 4 5 6 
#
# 1 79.6545 37.4165 26.9670 0.0000 0.0000 0.0000
# 2 37.4165 79.6545 26.9670 0.0000 0.0000 0.0000
# 3 26.9670 26.9670 67.5381 0.0000 0.0000 0.0000
# 4 0.0000 0.0000 0.0000 19.4332 0.0000 0.0000
# 5 0.0000 0.0000 0.0000 0.0000 19.4332 0.0000
# 6 0.0000 0.0000 0.0000 0.0000 0.0000 26.5247
#
#
#
# Elastic Compliance Matrix: (Units=1/GPa)
#
#
# Indices 1 2 3 4 5 6 
#
# 1 0.017071 -0.006604 -0.004179 0.000000 0.000000 0.000000
# 2 -0.006604 0.017071 -0.004179 0.000000 0.000000 0.000000
# 3 -0.004179 -0.004179 0.018144 0.000000 0.000000 0.000000
# 4 0.000000 0.000000 0.000000 0.051458 0.000000 0.000000
# 5 0.000000 0.000000 0.000000 0.000000 0.051458 0.000000
# 6 0.000000 0.000000 0.000000 0.000000 0.000000 0.037701
#
#
# Mechanical properties :
#
#
# Convention : Reuss Voigt Hill
#
# Bulk Modulus (GPa) = 44.72100 45.50532 45.11316
# Shear Modulus (GPa) = 21.71238 22.11133 21.91185
#
# Velocity S-wave (km/s) = 3.66474 3.69825 3.68153
# Velocity P-wave (km/s) = 6.75052 6.81056 6.78060
#
# Compressibility (1/GPa) = 0.02236086
#
# Stress axis : x y z
#
# Youngs Moduli (GPa) = 58.57778 58.57778 55.11451
#
# Poissons Ratio (x) = 0.38685 0.23035
# Poissons Ratio (y) = 0.38685 0.23035
# Poissons Ratio (z) = 0.24482 0.24482
#
# Static dielectric constant tensor:
#      x y z
#    x 1.560280 0.000000 0.000000 
#    y 0.000000 1.560280 0.000000 
#    z 0.000000 0.000000 1.562410 
# 
# From -- ./inp_files/8061.got.cif
#   From: 2010.05.17/outbox.cif.g08.bks.cpg/sg131_5_cif.got.tgz:8061.got - 2010.05.20 12:21:01.
