data_PCOD9566198
_publ_section_title
;
Structure prediction by ZEFSAII (Michael W. Deem and Ramdas Pophale) SiO2 
 PCOD9566198
Probable space group: P 42/M M C
;
_chemical_formula_sum "Si O2"
_cell_formula_units_Z 104
_cell_length_a 26.979754
_cell_length_b 26.979754
_cell_length_c 8.635251
_cell_angle_alpha 90.000000
_cell_angle_beta 90.000000
_cell_angle_gamma 90.000000
_cell_volume 6285.660737
_symmetry_space_group_name_H-M "P 42/M M C"
_symmetry_group_IT_number 131
_symmetry_cell_setting 'tetragonal'
loop_
_space_group_symop_operation_xyz
x,y,z
-x,-y,z
-y,x,1/2+z
y,-x,1/2+z
-x,y,-z
x,-y,-z
y,x,1/2-z
-y,-x,1/2-z
-x,-y,-z
x,y,-z
y,-x,1/2-z
-y,x,1/2-z
x,-y,z
-x,y,z
-y,-x,1/2+z
y,x,1/2+z
loop_
_atom_site_type_symbol
_atom_site_label
_atom_site_fract_x
_atom_site_fract_y
_atom_site_fract_z
Si Si1 0.252355 0.444242 0.188741
Si Si2 0.945837 0.260043 0.314430
Si Si3 0.073704 0.366852 0.819641
Si Si4 0.632353 0.555072 0.186287
Si Si5 0.649354 0.188918 0.318173
Si Si6 0.000000 0.556703 0.685213
Si Si7 0.756483 0.165592 0.814274
O O1 0.235791 0.500000 0.238125
O O2 0.310108 0.438988 0.231059
O O3 0.223007 0.395472 0.242980
O O4 0.248954 0.444199 0.000000
O O5 0.945809 0.254592 0.500000
O O6 0.943296 0.318020 0.271482
O O7 0.892175 0.239810 0.258512
O O8 0.000000 0.240992 0.257722
O O9 0.132661 0.369866 0.808071
O O10 0.047069 0.414290 0.751016
O O11 0.060735 0.360684 0.000000
O O12 0.597408 0.597408 0.250000
O O13 0.616119 0.500000 0.237186
O O14 0.630938 0.556217 0.000000
O O15 0.657651 0.200949 0.500000
O O16 0.703067 0.187811 0.237244
O O17 0.000000 0.500000 0.734393
O O18 0.000000 0.559348 0.500000
O O19 0.800158 0.199843 0.750000
O O20 0.758089 0.165339 0.000000
#
# Coordination Sequence:
#
# PCOD9566198 Si02
#       7
#    16  16  16  16  16   8  16
#     4   8  15  30  50  69  90 118 152 190 234 285
#     4   9  17  31  52  72  93 128 166 197 238 294
#     4  10  19  30  47  71  93 115 153 204 248 287
#     4   9  18  32  49  68  89 113 141 174 216 269
#     4   9  18  32  51  73  96 125 160 198 244 295
#     4  11  23  35  45  59  87 127 163 201 252 301
#     4  10  20  33  49  72 104 136 166 203 246 292
#
# _framework density 16.545594999999999
#
# number of rings (size 3 to 8) (size 9 to 14) (size 15 to 20)
#    0.000    2.692    0.769    2.077    0.000    3.538 
#    0.000    4.615    0.000    1.385    0.000    0.000 
#    0.000    0.308    0.000    3.846    0.000    0.000 
#
# Total GULP energy -579177.585644 kJ/mol
# GULP energy per Si atom -5569.015247 kJ/mol
# Density = 1.650794 g / cm^3
# Si number density = 16.545595 Si / 1000 Ang^3
#
#
#
# Elastic Constant Matrix: (Units=GPa)
#
#
# Indices 1 2 3 4 5 6 
#
# 1 106.2052 74.6207 18.1726 0.0000 0.0000 0.0000
# 2 74.6207 106.2068 18.1732 0.0000 0.0000 0.0000
# 3 18.1726 18.1732 10.0043 0.0000 0.0000 0.0000
# 4 0.0000 0.0000 0.0000 19.9728 0.0000 0.0000
# 5 0.0000 0.0000 0.0000 0.0000 19.9728 0.0000
# 6 0.0000 0.0000 0.0000 0.0000 0.0000 21.0937
#
#
#
# Elastic Compliance Matrix: (Units=1/GPa)
#
#
# Indices 1 2 3 4 5 6 
#
# 1 0.020185 -0.011475 -0.015822 0.000000 0.000000 0.000000
# 2 -0.011475 0.020185 -0.015824 0.000000 0.000000 0.000000
# 3 -0.015822 -0.015824 0.157442 0.000000 0.000000 0.000000
# 4 0.000000 0.000000 0.000000 0.050068 0.000000 0.000000
# 5 0.000000 0.000000 0.000000 0.000000 0.050068 0.000000
# 6 0.000000 0.000000 0.000000 0.000000 0.000000 0.047407
#
#
# Mechanical properties :
#
#
# Convention : Reuss Voigt Hill
#
# Bulk Modulus (GPa) = 8.96284 49.37213 29.16748
# Shear Modulus (GPa) = 10.66581 19.63785 15.15183
#
# Velocity S-wave (km/s) = 2.54171 3.44887 3.02944
# Velocity P-wave (km/s) = 3.74734 6.76494 5.46841
#
# Compressibility (1/GPa) = 0.11157180
#
# Stress axis : x y z
#
# Youngs Moduli (GPa) = 49.54094 49.54058 6.35156
#
# Poissons Ratio (x) = 0.56847 0.10049
# Poissons Ratio (y) = 0.56848 0.10051
# Poissons Ratio (z) = 0.78382 0.78392
#
# Static dielectric constant tensor:
#      x y z
#    x 1.560430 0.000000 0.000000 
#    y 0.000000 1.560430 0.000000 
#    z 0.000000 0.000000 1.569950 
# 
# From -- ./inp_files/2575.got.cif
#   From: 2010.05.17/outbox.cif.g08.bks.cpg/sg131_2_cif.got.tgz:2575.got - 2010.05.20 12:21:01.
