data_PCOD9566672
_publ_section_title
;
Structure prediction by ZEFSAII (Michael W. Deem and Ramdas Pophale) SiO2 
 PCOD9566672
Probable space group: P 42/M M C
;
_chemical_formula_sum "Si O2"
_cell_formula_units_Z 112
_cell_length_a 14.737313
_cell_length_b 14.737313
_cell_length_c 29.619254
_cell_angle_alpha 90.000000
_cell_angle_beta 90.000000
_cell_angle_gamma 90.000000
_cell_volume 6432.958221
_symmetry_space_group_name_H-M "P 42/M M C"
_symmetry_group_IT_number 131
_symmetry_cell_setting 'tetragonal'
loop_
_space_group_symop_operation_xyz
x,y,z
-x,-y,z
-y,x,1/2+z
y,-x,1/2+z
-x,y,-z
x,-y,-z
y,x,1/2-z
-y,-x,1/2-z
-x,-y,-z
x,y,-z
y,-x,1/2-z
-y,x,1/2-z
x,-y,z
-x,y,z
-y,-x,1/2+z
y,x,1/2+z
loop_
_atom_site_type_symbol
_atom_site_label
_atom_site_fract_x
_atom_site_fract_y
_atom_site_fract_z
Si Si1 0.610257 0.603346 0.450563
Si Si2 0.107321 0.240599 0.224807
Si Si3 0.203356 0.890865 0.946268
Si Si4 0.255379 0.606944 0.772773
Si Si5 0.243630 0.895869 0.382482
Si Si6 0.890325 0.403657 0.446407
Si Si7 0.394652 0.751043 0.619848
O O1 0.639686 0.637473 0.500000
O O2 0.641180 0.500000 0.445921
O O3 0.500000 0.601202 0.450785
O O4 0.637414 0.666201 0.409689
O O5 0.158962 0.158962 0.250000
O O6 0.164259 0.332858 0.235967
O O7 0.115419 0.223504 0.170936
O O8 0.000000 0.247782 0.235638
O O9 0.134383 0.838079 0.914634
O O10 0.304792 0.861053 0.930460
O O11 0.196034 0.000000 0.941725
O O12 0.193442 0.871137 0.000000
O O13 0.338686 0.661315 0.750000
O O14 0.248891 0.500000 0.759856
O O15 0.268340 0.610176 0.826896
O O16 0.330772 0.834417 0.391807
O O17 0.265330 0.000000 0.390322
O O18 0.871069 0.404889 0.500000
O O19 0.857497 0.500000 0.426913
O O20 0.000000 0.403627 0.442406
O O21 0.500000 0.769691 0.608984
#
# Coordination Sequence:
#
# PCOD9566672 Si02
#       7
#    16  16  16  16  16  16  16
#     4   8  14  26  45  68  94 126 164 204 244 285
#     4   9  19  36  56  77 100 127 164 212 262 307
#     4   9  18  32  49  70  99 134 166 200 250 307
#     4   9  18  32  51  78 109 137 166 201 245 303
#     4  10  21  35  51  73  98 126 165 208 247 292
#     4   7  10  20  41  66  89 116 153 193 229 271
#     4   9  18  33  52  73  99 131 164 202 249 294
#
# _framework density 17.410343000000001
#
# number of rings (size 3 to 8) (size 9 to 14) (size 15 to 20)
#    0.000    3.286    0.000    1.714    0.000    3.143 
#    0.000    7.143    0.000    5.143    0.000    9.000 
#    0.000    0.000    0.000    0.000    0.000    0.000 
#
# Total GULP energy -623530.372813 kJ/mol
# GULP energy per Si atom -5567.235472 kJ/mol
# Density = 1.737072 g / cm^3
# Si number density = 17.410343 Si / 1000 Ang^3
#
#
#
# Elastic Constant Matrix: (Units=GPa)
#
#
# Indices 1 2 3 4 5 6 
#
# 1 109.6377 51.3902 47.7521 0.0000 0.0000 0.0000
# 2 51.3902 109.6382 47.7523 0.0000 0.0000 0.0000
# 3 47.7521 47.7523 36.9623 0.0000 0.0000 0.0000
# 4 0.0000 0.0000 0.0000 19.6723 0.0000 0.0000
# 5 0.0000 0.0000 0.0000 0.0000 19.6723 0.0000
# 6 0.0000 0.0000 0.0000 0.0000 0.0000 18.7159
#
#
#
# Elastic Compliance Matrix: (Units=1/GPa)
#
#
# Indices 1 2 3 4 5 6 
#
# 1 0.021866 0.004698 -0.034319 0.000000 0.000000 0.000000
# 2 0.004698 0.021866 -0.034319 0.000000 0.000000 0.000000
# 3 -0.034319 -0.034319 0.115729 0.000000 0.000000 0.000000
# 4 0.000000 0.000000 0.000000 0.050833 0.000000 0.000000
# 5 0.000000 0.000000 0.000000 0.000000 0.050833 0.000000
# 6 0.000000 0.000000 0.000000 0.000000 0.000000 0.053430
#
#
# Mechanical properties :
#
#
# Convention : Reuss Voigt Hill
#
# Bulk Modulus (GPa) = 31.66360 61.11417 46.38889
# Shear Modulus (GPa) = 11.03838 18.90167 14.97003
#
# Velocity S-wave (km/s) = 2.52069 3.29851 2.93548
# Velocity P-wave (km/s) = 5.16701 7.04878 6.17994
#
# Compressibility (1/GPa) = 0.03158200
#
# Stress axis : x y z
#
# Youngs Moduli (GPa) = 45.73261 45.73267 8.64086
#
# Poissons Ratio (x) = -0.21486 0.29655
# Poissons Ratio (y) = -0.21486 0.29655
# Poissons Ratio (z) = 1.56950 1.56950
#
# Static dielectric constant tensor:
#      x y z
#    x 1.611970 0.000000 0.000000 
#    y 0.000000 1.611970 0.000000 
#    z 0.000000 0.000000 1.577070 
# 
# From -- ./inp_files/12465.got.cif
#   From: 2010.05.17/outbox.cif.g08.bks.cpg/sg131_7_cif.got.tgz:12465.got - 2010.05.20 12:21:01.
