data_PCOD9566312
_publ_section_title
;
Structure prediction by ZEFSAII (Michael W. Deem and Ramdas Pophale) SiO2 
 PCOD9566312
Probable space group: P 42/M M C
;
_chemical_formula_sum "Si O2"
_cell_formula_units_Z 112
_cell_length_a 14.763266
_cell_length_b 14.763266
_cell_length_c 26.541770
_cell_angle_alpha 90.000000
_cell_angle_beta 90.000000
_cell_angle_gamma 90.000000
_cell_volume 5784.885549
_symmetry_space_group_name_H-M "P 42/M M C"
_symmetry_group_IT_number 131
_symmetry_cell_setting 'tetragonal'
loop_
_space_group_symop_operation_xyz
x,y,z
-x,-y,z
-y,x,1/2+z
y,-x,1/2+z
-x,y,-z
x,-y,-z
y,x,1/2-z
-y,-x,1/2-z
-x,-y,-z
x,y,-z
y,-x,1/2-z
-y,x,1/2-z
x,-y,z
-x,y,z
-y,-x,1/2+z
y,x,1/2+z
loop_
_atom_site_type_symbol
_atom_site_label
_atom_site_fract_x
_atom_site_fract_y
_atom_site_fract_z
Si Si1 0.772574 0.394039 0.940011
Si Si2 0.731953 0.104577 0.370029
Si Si3 0.404228 0.103026 0.281580
Si Si4 0.336871 0.766944 0.207173
Si Si5 0.293109 0.606963 0.601128
Si Si6 0.609387 0.097820 0.059427
Si Si7 0.164135 0.892164 0.192932
O O1 0.791279 0.500000 0.926395
O O2 0.832995 0.318255 0.911042
O O3 0.669794 0.367197 0.925229
O O4 0.784980 0.385707 0.000000
O O5 0.677145 0.126198 0.318516
O O6 0.836202 0.114499 0.351942
O O7 0.715112 0.000000 0.383069
O O8 0.500000 0.107031 0.309796
O O9 0.407288 0.169377 0.235118
O O10 0.390712 0.000000 0.264344
O O11 0.297848 0.702153 0.250000
O O12 0.373557 0.710836 0.160524
O O13 0.260007 0.840190 0.192605
O O14 0.303793 0.500000 0.590720
O O15 0.192403 0.638045 0.583200
O O16 0.500000 0.096391 0.064290
O O17 0.642904 0.000000 0.079600
O O18 0.630153 0.100732 0.000000
O O19 0.124423 0.875578 0.250000
O O20 0.168106 0.000000 0.184977
#
# Coordination Sequence:
#
# PCOD9566312 Si02
#       7
#    16  16  16  16  16  16  16
#     4  11  25  45  67  91 118 150 198 261 325 384
#     4  11  22  40  63  90 122 158 204 256 311 365
#     4  10  19  32  53  82 117 157 201 247 294 343
#     4  11  20  35  54  81 123 166 204 252 292 347
#     4  11  22  38  62  90 121 160 205 253 306 368
#     4   8  15  29  50  79 116 154 191 235 289 350
#     4  11  21  36  61  93 134 175 211 248 295 357
#
# _framework density 19.360797999999999
#
# number of rings (size 3 to 8) (size 9 to 14) (size 15 to 20)
#    0.000    1.571    4.286    2.571    0.000    4.429 
#    0.000    3.571    0.000    0.429    0.000    1.000 
#    0.000    0.000    0.000    0.000    0.000    0.000 
#
# Total GULP energy -624128.002006 kJ/mol
# GULP energy per Si atom -5572.571446 kJ/mol
# Density = 1.931673 g / cm^3
# Si number density = 19.360798 Si / 1000 Ang^3
#
#
#
# Elastic Constant Matrix: (Units=GPa)
#
#
# Indices 1 2 3 4 5 6 
#
# 1 91.6175 26.4508 30.9636 0.0000 0.0000 0.0000
# 2 26.4508 91.6174 30.9630 0.0000 0.0000 0.0000
# 3 30.9636 30.9630 62.7233 0.0000 0.0000 0.0000
# 4 0.0000 0.0000 0.0000 34.5124 0.0000 0.0000
# 5 0.0000 0.0000 0.0000 0.0000 34.5112 0.0000
# 6 0.0000 0.0000 0.0000 0.0000 0.0000 16.3784
#
#
#
# Elastic Compliance Matrix: (Units=1/GPa)
#
#
# Indices 1 2 3 4 5 6 
#
# 1 0.013387 -0.001958 -0.005642 0.000000 0.000000 0.000000
# 2 -0.001958 0.013387 -0.005642 0.000000 0.000000 0.000000
# 3 -0.005642 -0.005642 0.021513 0.000000 0.000000 0.000000
# 4 0.000000 0.000000 0.000000 0.028975 0.000000 0.000000
# 5 0.000000 0.000000 0.000000 0.000000 0.028976 0.000000
# 6 0.000000 0.000000 0.000000 0.000000 0.000000 0.061056
#
#
# Mechanical properties :
#
#
# Convention : Reuss Voigt Hill
#
# Bulk Modulus (GPa) = 45.86414 46.96811 46.41613
# Shear Modulus (GPa) = 24.86992 27.58578 26.22785
#
# Velocity S-wave (km/s) = 3.58795 3.77878 3.68460
# Velocity P-wave (km/s) = 6.39571 6.58415 6.49061
#
# Compressibility (1/GPa) = 0.02180353
#
# Stress axis : x y z
#
# Youngs Moduli (GPa) = 74.69887 74.69936 46.48309
#
# Poissons Ratio (x) = 0.14628 0.26225
# Poissons Ratio (y) = 0.14628 0.26225
# Poissons Ratio (z) = 0.42144 0.42143
#
# Static dielectric constant tensor:
#      x y z
#    x 1.719630 0.000000 0.000000 
#    y 0.000000 1.719630 0.000000 
#    z 0.000000 0.000000 1.702960 
# 
# From -- ./inp_files/12463.got.cif
#   From: 2010.05.17/outbox.cif.g08.bks.cpg/sg131_7_cif.got.tgz:12463.got - 2010.05.20 12:21:01.
