data_PCOD9566637
_publ_section_title
;
Structure prediction by ZEFSAII (Michael W. Deem and Ramdas Pophale) SiO2 
 PCOD9566637
Probable space group: P 42/M M C
;
_chemical_formula_sum "Si O2"
_cell_formula_units_Z 48
_cell_length_a 8.308644
_cell_length_b 8.308644
_cell_length_c 34.421524
_cell_angle_alpha 90.000000
_cell_angle_beta 90.000000
_cell_angle_gamma 90.000000
_cell_volume 2376.240519
_symmetry_space_group_name_H-M "P 42/M M C"
_symmetry_group_IT_number 131
_symmetry_cell_setting 'tetragonal'
loop_
_space_group_symop_operation_xyz
x,y,z
-x,-y,z
-y,x,1/2+z
y,-x,1/2+z
-x,y,-z
x,-y,-z
y,x,1/2-z
-y,-x,1/2-z
-x,-y,-z
x,y,-z
y,-x,1/2-z
-y,x,1/2-z
x,-y,z
-x,y,z
-y,-x,1/2+z
y,x,1/2+z
loop_
_atom_site_type_symbol
_atom_site_label
_atom_site_fract_x
_atom_site_fract_y
_atom_site_fract_z
Si Si1 0.192711 0.500000 0.455303
Si Si2 0.694808 0.821782 0.411284
Si Si3 0.187968 0.812033 0.750000
Si Si4 0.693131 0.683073 0.331080
O O1 0.248718 0.500000 0.500000
O O2 0.249818 0.335048 0.434839
O O3 0.000000 0.500000 0.454541
O O4 0.500000 0.819947 0.411817
O O5 0.746922 0.796080 0.366394
O O6 0.747473 0.000000 0.425008
O O7 0.278882 0.761711 0.788933
O O8 0.000000 0.783971 0.757272
O O9 0.733401 0.500000 0.342113
O O10 0.500000 0.696033 0.328210
#
# Coordination Sequence:
#
# PCOD9566637 Si02
#       4
#     8  16   8  16
#     4  11  25  43  63  91 129 169 207 253 315 385
#     4  10  21  40  67  95 123 160 208 261 315 375
#     4  11  24  37  50  78 120 161 202 249 300 360
#     4  10  20  37  61  86 114 152 200 252 308 367
#
# _framework density 20.199974999999998
#
# number of rings (size 3 to 8) (size 9 to 14) (size 15 to 20)
#    0.000    1.667    1.667    2.500    0.000    9.333 
#    0.000    3.333    0.000    0.000    0.000    0.000 
#    0.000    0.000    0.000    0.000    0.000    0.000 
#
# Total GULP energy -268059.416230 kJ/mol
# GULP energy per Si atom -5584.571171 kJ/mol
# Density = 2.015400 g / cm^3
# Si number density = 20.199975 Si / 1000 Ang^3
#
#
#
# Elastic Constant Matrix: (Units=GPa)
#
#
# Indices 1 2 3 4 5 6 
#
# 1 70.5729 42.1732 30.7083 0.0000 0.0000 0.0000
# 2 42.1732 70.5747 30.7093 0.0000 0.0000 0.0000
# 3 30.7083 30.7093 103.6743 0.0000 0.0000 0.0000
# 4 0.0000 0.0000 0.0000 -19.3206 0.0000 0.0000
# 5 0.0000 0.0000 0.0000 0.0000 -19.3144 0.0000
# 6 0.0000 0.0000 0.0000 0.0000 0.0000 21.8787
#
#
#
# Elastic Compliance Matrix: (Units=1/GPa)
#
#
# Indices 1 2 3 4 5 6 
#
# 1 0.022893 -0.012317 -0.003133 0.000000 0.000000 0.000000
# 2 -0.012317 0.022893 -0.003133 0.000000 0.000000 0.000000
# 3 -0.003133 -0.003133 0.011501 0.000000 0.000000 0.000000
# 4 0.000000 0.000000 0.000000 -0.051758 0.000000 0.000000
# 5 0.000000 0.000000 0.000000 0.000000 -0.051775 0.000000
# 6 0.000000 0.000000 0.000000 0.000000 0.000000 0.045707
#
#
# Mechanical properties :
#
#
# Convention : Reuss Voigt Hill
#
# Bulk Modulus (GPa) = 49.69524 50.22261 49.95893
# Shear Modulus (GPa) = 115.38285 6.06414 60.72349
#
# Velocity S-wave (km/s) = 7.56600 1.73452 5.48876
# Velocity P-wave (km/s) = 10.04892 5.37849 8.05943
#
# Compressibility (1/GPa) = 0.02012265
#
# Stress axis : x y z
#
# Youngs Moduli (GPa) = 43.68067 43.68151 86.94606
#
# Poissons Ratio (x) = 0.53804 0.27236
# Poissons Ratio (y) = 0.53803 0.27238
# Poissons Ratio (z) = 0.13683 0.13684
#
# Static dielectric constant tensor:
#      x y z
#    x 1.715610 0.000000 0.000000 
#    y 0.000000 1.715610 0.000000 
#    z 0.000000 0.000000 1.711120 
# 
# From -- ./inp_files/12924.got.cif
#   From: 2010.05.17/outbox.cif.g08.bks.cpg/sg131_7_cif.got.tgz:12924.got - 2010.05.20 12:21:01.
