data_PCOD9566633
_publ_section_title
;
Structure prediction by ZEFSAII (Michael W. Deem and Ramdas Pophale) SiO2 
 PCOD9566633
Probable space group: P 42/M M C
;
_chemical_formula_sum "Si O2"
_cell_formula_units_Z 112
_cell_length_a 14.803681
_cell_length_b 14.803681
_cell_length_c 27.498691
_cell_angle_alpha 90.000000
_cell_angle_beta 90.000000
_cell_angle_gamma 90.000000
_cell_volume 6026.309841
_symmetry_space_group_name_H-M "P 42/M M C"
_symmetry_group_IT_number 131
_symmetry_cell_setting 'tetragonal'
loop_
_space_group_symop_operation_xyz
x,y,z
-x,-y,z
-y,x,1/2+z
y,-x,1/2+z
-x,y,-z
x,-y,-z
y,x,1/2-z
-y,-x,1/2-z
-x,-y,-z
x,y,-z
y,-x,1/2-z
-y,x,1/2-z
x,-y,z
-x,y,z
-y,-x,1/2+z
y,x,1/2+z
loop_
_atom_site_type_symbol
_atom_site_label
_atom_site_fract_x
_atom_site_fract_y
_atom_site_fract_z
Si Si1 0.898146 0.274761 0.622257
Si Si2 0.775413 0.817284 0.699948
Si Si3 0.293528 0.601693 0.100100
Si Si4 0.897470 0.135242 0.056642
Si Si5 0.098396 0.685323 0.111095
Si Si6 0.228392 0.393436 0.443325
Si Si7 0.398770 0.701104 0.710787
O O1 0.833516 0.252897 0.667783
O O2 0.900937 0.182684 0.590145
O O3 0.849238 0.349820 0.589749
O O4 0.000000 0.298728 0.636245
O O5 0.830663 0.830663 0.750000
O O6 0.746435 0.892196 0.660338
O O7 0.678317 0.776857 0.715487
O O8 0.305942 0.500000 0.081602
O O9 0.186691 0.623449 0.106722
O O10 0.340457 0.679272 0.069014
O O11 0.332043 0.607370 0.155120
O O12 0.896420 0.242689 0.067242
O O13 0.000000 0.105254 0.068920
O O14 0.881492 0.116037 0.000000
O O15 0.000000 0.640701 0.110893
O O16 0.206337 0.380572 0.500000
O O17 0.239047 0.500000 0.434015
O O18 0.374522 0.625479 0.750000
O O19 0.500000 0.735980 0.718141
#
# Coordination Sequence:
#
# PCOD9566633 Si02
#       7
#    16  16  16  16  16  16  16
#     4  11  22  38  59  85 115 150 193 241 291 341
#     4   9  18  36  55  81 118 156 189 229 281 338
#     4  10  20  37  58  84 118 153 189 232 287 348
#     4   9  17  31  54  82 111 144 184 232 285 338
#     4   9  17  31  54  84 116 154 193 231 279 340
#     4  11  24  42  61  82 113 152 196 245 296 351
#     4   9  17  31  53  81 110 142 182 229 280 334
#
# _framework density 18.585172
#
# number of rings (size 3 to 8) (size 9 to 14) (size 15 to 20)
#    0.000    2.286    4.286    0.429    0.000    3.857 
#    0.000    3.571    0.000    0.000    0.000    7.000 
#    0.000    0.000    0.000    0.000    0.000    0.000 
#
# Total GULP energy -623707.500116 kJ/mol
# GULP energy per Si atom -5568.816965 kJ/mol
# Density = 1.854287 g / cm^3
# Si number density = 18.585172 Si / 1000 Ang^3
#
#
#
# Elastic Constant Matrix: (Units=GPa)
#
#
# Indices 1 2 3 4 5 6 
#
# 1 90.1400 30.8057 25.1717 0.0000 0.0000 0.0000
# 2 30.8057 90.1396 25.1727 0.0000 0.0000 0.0000
# 3 25.1717 25.1727 65.5815 0.0000 0.0000 0.0000
# 4 0.0000 0.0000 0.0000 6.2814 0.0000 0.0000
# 5 0.0000 0.0000 0.0000 0.0000 6.2813 0.0000
# 6 0.0000 0.0000 0.0000 0.0000 0.0000 3.6111
#
#
#
# Elastic Compliance Matrix: (Units=1/GPa)
#
#
# Indices 1 2 3 4 5 6 
#
# 1 0.013347 -0.003507 -0.003777 0.000000 0.000000 0.000000
# 2 -0.003507 0.013347 -0.003777 0.000000 0.000000 0.000000
# 3 -0.003777 -0.003777 0.018148 0.000000 0.000000 0.000000
# 4 0.000000 0.000000 0.000000 0.159201 0.000000 0.000000
# 5 0.000000 0.000000 0.000000 0.000000 0.159202 0.000000
# 6 0.000000 0.000000 0.000000 0.000000 0.000000 0.276926
#
#
# Mechanical properties :
#
#
# Convention : Reuss Voigt Hill
#
# Bulk Modulus (GPa) = 44.01349 45.35126 44.68238
# Shear Modulus (GPa) = 7.46417 14.21547 10.83982
#
# Velocity S-wave (km/s) = 2.00622 2.76865 2.41768
# Velocity P-wave (km/s) = 5.39444 5.88858 5.64692
#
# Compressibility (1/GPa) = 0.02272031
#
# Stress axis : x y z
#
# Youngs Moduli (GPa) = 74.92334 74.92226 55.10336
#
# Poissons Ratio (x) = 0.26273 0.20812
# Poissons Ratio (y) = 0.26273 0.20814
# Poissons Ratio (z) = 0.28298 0.28300
#
# Static dielectric constant tensor:
#      x y z
#    x 1.647050 0.000000 0.000000 
#    y 0.000000 1.647050 0.000000 
#    z 0.000000 0.000000 1.665840 
# 
# From -- ./inp_files/12500.got.cif
#   From: 2010.05.17/outbox.cif.g08.bks.cpg/sg131_7_cif.got.tgz:12500.got - 2010.05.20 12:21:01.
