data_PCOD9566206
_publ_section_title
;
Structure prediction by ZEFSAII (Michael W. Deem and Ramdas Pophale) SiO2 
 PCOD9566206
Probable space group: P 42/M M C
;
_chemical_formula_sum "Si O2"
_cell_formula_units_Z 96
_cell_length_a 18.806559
_cell_length_b 18.806559
_cell_length_c 16.492989
_cell_angle_alpha 90.000000
_cell_angle_beta 90.000000
_cell_angle_gamma 90.000000
_cell_volume 5833.350216
_symmetry_space_group_name_H-M "P 42/M M C"
_symmetry_group_IT_number 131
_symmetry_cell_setting 'tetragonal'
loop_
_space_group_symop_operation_xyz
x,y,z
-x,-y,z
-y,x,1/2+z
y,-x,1/2+z
-x,y,-z
x,-y,-z
y,x,1/2-z
-y,-x,1/2-z
-x,-y,-z
x,y,-z
y,-x,1/2-z
-y,x,1/2-z
x,-y,z
-x,y,z
-y,-x,1/2+z
y,x,1/2+z
loop_
_atom_site_type_symbol
_atom_site_label
_atom_site_fract_x
_atom_site_fract_y
_atom_site_fract_z
Si Si1 0.714684 0.223938 0.169414
Si Si2 0.417389 0.192815 0.500000
Si Si3 0.726647 0.279154 0.000000
Si Si4 0.674977 0.579417 0.500000
Si Si5 0.666651 0.583467 0.681294
Si Si6 0.920469 0.583585 0.140185
Si Si7 0.917701 0.356198 0.682816
Si Si8 0.913781 0.500000 0.408533
O O1 0.757984 0.242017 0.250000
O O2 0.639086 0.266921 0.181179
O O3 0.701317 0.140563 0.161138
O O4 0.751304 0.250330 0.086413
O O5 0.500000 0.213871 0.500000
O O6 0.363100 0.257413 0.500000
O O7 0.403750 0.142084 0.422954
O O8 0.641754 0.267329 0.000000
O O9 0.705533 0.500000 0.500000
O O10 0.637374 0.586978 0.588002
O O11 0.613069 0.613069 0.750000
O O12 0.684621 0.500000 0.696426
O O13 0.917394 0.500000 0.163015
O O14 0.913758 0.628583 0.221342
O O15 0.000000 0.595067 0.105311
O O16 0.894619 0.428750 0.638317
O O17 0.000000 0.340934 0.661914
O O18 0.887003 0.500000 0.500000
O O19 0.000000 0.500000 0.410533
#
# Coordination Sequence:
#
# PCOD9566206 Si02
#       8
#    16   8   8   8  16  16  16   8
#     4  10  21  35  49  69  97 127 157 198 244 291
#     4  10  19  30  50  72  93 126 165 201 240 286
#     4  10  20  35  49  69  94 121 161 202 246 288
#     4   8  16  34  49  59  79 105 143 190 234 282
#     4   9  18  32  49  66  85 114 153 195 240 283
#     4   9  16  28  45  70 100 126 154 190 231 277
#     4  10  19  32  49  70  97 130 163 197 239 290
#     4   9  18  30  44  69 101 125 159 200 233 274
#
# _framework density 16.457094999999999
#
# number of rings (size 3 to 8) (size 9 to 14) (size 15 to 20)
#    0.000    2.583    0.833    1.250    2.333    1.167 
#    0.000    9.583    0.000    2.750    0.000    0.000 
#    0.000    0.333    0.000    0.000    0.000   14.833 
#
# Total GULP energy -534440.710541 kJ/mol
# GULP energy per Si atom -5567.090735 kJ/mol
# Density = 1.641964 g / cm^3
# Si number density = 16.457095 Si / 1000 Ang^3
#
#
#
# Elastic Constant Matrix: (Units=GPa)
#
#
# Indices 1 2 3 4 5 6 
#
# 1 54.9950 17.6577 19.8571 0.0000 0.0000 0.0000
# 2 17.6577 54.9954 19.8575 0.0000 0.0000 0.0000
# 3 19.8571 19.8575 94.8288 0.0000 0.0000 0.0000
# 4 0.0000 0.0000 0.0000 4.9714 0.0000 0.0000
# 5 0.0000 0.0000 0.0000 0.0000 4.9715 0.0000
# 6 0.0000 0.0000 0.0000 0.0000 0.0000 15.2543
#
#
#
# Elastic Compliance Matrix: (Units=1/GPa)
#
#
# Indices 1 2 3 4 5 6 
#
# 1 0.021163 -0.005620 -0.003255 0.000000 0.000000 0.000000
# 2 -0.005620 0.021163 -0.003255 0.000000 0.000000 0.000000
# 3 -0.003255 -0.003255 0.011908 0.000000 0.000000 0.000000
# 4 0.000000 0.000000 0.000000 0.201149 0.000000 0.000000
# 5 0.000000 0.000000 0.000000 0.000000 0.201146 0.000000
# 6 0.000000 0.000000 0.000000 0.000000 0.000000 0.065555
#
#
# Mechanical properties :
#
#
# Convention : Reuss Voigt Hill
#
# Bulk Modulus (GPa) = 33.36023 35.50710 34.43367
# Shear Modulus (GPa) = 8.98740 14.86925 11.92833
#
# Velocity S-wave (km/s) = 2.33944 3.00912 2.69516
# Velocity P-wave (km/s) = 5.25474 5.80478 5.53659
#
# Compressibility (1/GPa) = 0.02997581
#
# Stress axis : x y z
#
# Youngs Moduli (GPa) = 47.25219 47.25242 83.97405
#
# Poissons Ratio (x) = 0.26555 0.27331
# Poissons Ratio (y) = 0.26554 0.27332
# Poissons Ratio (z) = 0.15379 0.15380
#
# Static dielectric constant tensor:
#      x y z
#    x 1.554810 0.000000 0.000000 
#    y 0.000000 1.554810 0.000000 
#    z 0.000000 0.000000 1.601590 
# 
# From -- ./inp_files/8049.got.cif
#   From: 2010.05.17/outbox.cif.g08.bks.cpg/sg131_5_cif.got.tgz:8049.got - 2010.05.20 12:21:01.
