data_PCOD9566610
_publ_section_title
;
Structure prediction by ZEFSAII (Michael W. Deem and Ramdas Pophale) SiO2 
 PCOD9566610
Probable space group: P 42/M M C
;
_chemical_formula_sum "Si O2"
_cell_formula_units_Z 48
_cell_length_a 11.989341
_cell_length_b 11.989341
_cell_length_c 20.326734
_cell_angle_alpha 90.000000
_cell_angle_beta 90.000000
_cell_angle_gamma 90.000000
_cell_volume 2921.852102
_symmetry_space_group_name_H-M "P 42/M M C"
_symmetry_group_IT_number 131
_symmetry_cell_setting 'tetragonal'
loop_
_space_group_symop_operation_xyz
x,y,z
-x,-y,z
-y,x,1/2+z
y,-x,1/2+z
-x,y,-z
x,-y,-z
y,x,1/2-z
-y,-x,1/2-z
-x,-y,-z
x,y,-z
y,-x,1/2-z
-y,x,1/2-z
x,-y,z
-x,y,z
-y,-x,1/2+z
y,x,1/2+z
loop_
_atom_site_type_symbol
_atom_site_label
_atom_site_fract_x
_atom_site_fract_y
_atom_site_fract_z
Si Si1 0.872245 0.632123 0.708062
Si Si2 0.131389 0.500000 0.078484
Si Si3 0.000000 0.867011 0.921722
Si Si4 0.276585 0.188123 0.648425
O O1 0.851618 0.500000 0.712733
O O2 0.784539 0.695177 0.661816
O O3 0.859184 0.686508 0.780323
O O4 0.000000 0.649205 0.685965
O O5 0.188676 0.610736 0.106245
O O6 0.000000 0.500000 0.099775
O O7 0.132611 0.500000 0.000000
O O8 0.105977 0.809648 0.887448
O O9 0.000000 0.000000 0.912338
O O10 0.000000 0.843344 0.000000
#
# Coordination Sequence:
#
# PCOD9566610 Si02
#       4
#    16   8   8  16
#     4  10  20  36  56  79 113 150 186 234 284 344
#     4  11  20  34  59  85 113 149 188 230 282 341
#     4  11  22  35  53  83 121 152 185 228 281 346
#     4  11  20  34  55  83 113 147 189 233 284 333
#
# _framework density 16.427935000000002
#
# number of rings (size 3 to 8) (size 9 to 14) (size 15 to 20)
#    0.000    1.333    5.000    2.000    0.000    0.000 
#    0.000    0.833    0.000    5.000    0.000   11.667 
#    0.000    0.000    0.000    0.000    0.000    0.000 
#
# Total GULP energy -267899.953515 kJ/mol
# GULP energy per Si atom -5581.249032 kJ/mol
# Density = 1.639054 g / cm^3
# Si number density = 16.427935 Si / 1000 Ang^3
#
#
#
# Elastic Constant Matrix: (Units=GPa)
#
#
# Indices 1 2 3 4 5 6 
#
# 1 121.7436 78.4073 53.3536 0.0000 0.0000 0.0000
# 2 78.4073 121.7436 53.3536 0.0000 0.0000 0.0000
# 3 53.3536 53.3536 76.8748 0.0000 0.0000 0.0000
# 4 0.0000 0.0000 0.0000 26.0465 0.0000 0.0000
# 5 0.0000 0.0000 0.0000 0.0000 26.0465 0.0000
# 6 0.0000 0.0000 0.0000 0.0000 0.0000 24.5731
#
#
#
# Elastic Compliance Matrix: (Units=1/GPa)
#
#
# Indices 1 2 3 4 5 6 
#
# 1 0.015503 -0.007572 -0.005504 0.000000 0.000000 0.000000
# 2 -0.007572 0.015503 -0.005504 0.000000 0.000000 0.000000
# 3 -0.005504 -0.005504 0.020648 0.000000 0.000000 0.000000
# 4 0.000000 0.000000 0.000000 0.038393 0.000000 0.000000
# 5 0.000000 0.000000 0.000000 0.000000 0.038393 0.000000
# 6 0.000000 0.000000 0.000000 0.000000 0.000000 0.040695
#
#
# Mechanical properties :
#
#
# Convention : Reuss Voigt Hill
#
# Bulk Modulus (GPa) = 68.99863 76.73233 72.86548
# Shear Modulus (GPa) = 23.68241 24.34973 24.01607
#
# Velocity S-wave (km/s) = 3.80095 3.85413 3.82763
# Velocity P-wave (km/s) = 7.83294 8.16184 7.99908
#
# Compressibility (1/GPa) = 0.01449304
#
# Stress axis : x y z
#
# Youngs Moduli (GPa) = 64.50353 64.50353 48.43024
#
# Poissons Ratio (x) = 0.48844 0.26657
# Poissons Ratio (y) = 0.48844 0.26657
# Poissons Ratio (z) = 0.35504 0.35504
#
# Static dielectric constant tensor:
#      x y z
#    x 1.541220 0.000000 0.000000 
#    y 0.000000 1.541220 0.000000 
#    z 0.000000 0.000000 1.543570 
# 
# From -- ./inp_files/7042.got.cif
#   From: 2010.05.17/outbox.cif.g08.bks.cpg/sg131_4_cif.got.tgz:7042.got - 2010.05.20 12:21:01.
