data_PCOD9566655
_publ_section_title
;
Structure prediction by ZEFSAII (Michael W. Deem and Ramdas Pophale) SiO2 
 PCOD9566655
Probable space group: P 42/M M C
;
_chemical_formula_sum "Si O2"
_cell_formula_units_Z 56
_cell_length_a 18.344108
_cell_length_b 18.344108
_cell_length_c 7.647195
_cell_angle_alpha 90.000000
_cell_angle_beta 90.000000
_cell_angle_gamma 90.000000
_cell_volume 2573.329282
_symmetry_space_group_name_H-M "P 42/M M C"
_symmetry_group_IT_number 131
_symmetry_cell_setting 'tetragonal'
loop_
_space_group_symop_operation_xyz
x,y,z
-x,-y,z
-y,x,1/2+z
y,-x,1/2+z
-x,y,-z
x,-y,-z
y,x,1/2-z
-y,-x,1/2-z
-x,-y,-z
x,y,-z
y,-x,1/2-z
-y,x,1/2-z
x,-y,z
-x,y,z
-y,-x,1/2+z
y,x,1/2+z
loop_
_atom_site_type_symbol
_atom_site_label
_atom_site_fract_x
_atom_site_fract_y
_atom_site_fract_z
Si Si1 0.581921 0.694187 0.709909
Si Si2 0.203447 0.916969 0.710550
Si Si3 0.916233 0.500000 0.709974
Si Si4 0.348657 0.837571 0.706467
O O1 0.616689 0.616689 0.750000
O O2 0.578781 0.702416 0.500000
O O3 0.500000 0.703136 0.777461
O O4 0.634742 0.757519 0.781054
O O5 0.135762 0.864239 0.750000
O O6 0.209075 0.921314 0.500000
O O7 0.278674 0.880268 0.778445
O O8 0.195095 0.000000 0.775555
O O9 0.912817 0.500000 0.500000
O O10 0.879367 0.425378 0.773272
O O11 0.000000 0.500000 0.766337
O O12 0.334285 0.829496 0.500000
#
# Coordination Sequence:
#
# PCOD9566655 Si02
#       4
#    16  16   8  16
#     4  10  21  37  57  83 113 148 193 237 284 341
#     4  10  22  39  61  89 118 155 201 245 296 354
#     4  11  23  35  53  87 124 153 186 231 285 344
#     4  10  20  39  62  84 115 153 195 239 287 349
#
# _framework density 21.761690999999999
#
# number of rings (size 3 to 8) (size 9 to 14) (size 15 to 20)
#    0.000    1.857    1.429    2.143    0.000    6.286 
#    0.000    2.857    0.000    0.000    0.000    0.000 
#    0.000    0.000    0.000    0.000    0.000    0.000 
#
# Total GULP energy -312841.469814 kJ/mol
# GULP energy per Si atom -5586.454818 kJ/mol
# Density = 2.171216 g / cm^3
# Si number density = 21.761691 Si / 1000 Ang^3
#
#
#
# Elastic Constant Matrix: (Units=GPa)
#
#
# Indices 1 2 3 4 5 6 
#
# 1 147.6826 120.4341 -0.8795 0.0000 0.0000 0.0000
# 2 120.4341 147.6786 -0.8784 0.0000 0.0000 0.0000
# 3 -0.8795 -0.8784 42.7439 0.0000 0.0000 0.0000
# 4 0.0000 0.0000 0.0000 24.2024 0.0000 0.0000
# 5 0.0000 0.0000 0.0000 0.0000 24.2027 0.0000
# 6 0.0000 0.0000 0.0000 0.0000 0.0000 29.1514
#
#
#
# Elastic Compliance Matrix: (Units=1/GPa)
#
#
# Indices 1 2 3 4 5 6 
#
# 1 0.020216 -0.016486 0.000077 0.000000 0.000000 0.000000
# 2 -0.016486 0.020216 0.000076 0.000000 0.000000 0.000000
# 3 0.000077 0.000076 0.023398 0.000000 0.000000 0.000000
# 4 0.000000 0.000000 0.000000 0.041318 0.000000 0.000000
# 5 0.000000 0.000000 0.000000 0.000000 0.041318 0.000000
# 6 0.000000 0.000000 0.000000 0.000000 0.000000 0.034304
#
#
# Mechanical properties :
#
#
# Convention : Reuss Voigt Hill
#
# Bulk Modulus (GPa) = 32.08661 63.93973 48.01317
# Shear Modulus (GPa) = 22.33902 30.13990 26.23946
#
# Velocity S-wave (km/s) = 3.20743 3.72559 3.47618
# Velocity P-wave (km/s) = 5.33791 6.92476 6.18246
#
# Compressibility (1/GPa) = 0.03116565
#
# Stress axis : x y z
#
# Youngs Moduli (GPa) = 49.46608 49.46475 42.73810
#
# Poissons Ratio (x) = 0.81547 -0.00330
# Poissons Ratio (y) = 0.81549 -0.00326
# Poissons Ratio (z) = -0.00382 -0.00377
#
# Static dielectric constant tensor:
#      x y z
#    x 1.792900 0.000000 0.000000 
#    y 0.000000 1.792900 0.000000 
#    z 0.000000 0.000000 1.808460 
# 
# From -- ./inp_files/1195.got.cif
#   From: 2010.05.17/outbox.cif.g08.bks.cpg/sg131_1_cif.got.tgz:1195.got - 2010.05.20 12:21:01.
