data_PCOD9566825
_publ_section_title
;
Structure prediction by ZEFSAII (Michael W. Deem and Ramdas Pophale) SiO2 
 PCOD9566825
Probable space group: P 42/M M C
;
_chemical_formula_sum "Si O2"
_cell_formula_units_Z 48
_cell_length_a 12.551315
_cell_length_b 12.551315
_cell_length_c 16.357552
_cell_angle_alpha 90.000000
_cell_angle_beta 90.000000
_cell_angle_gamma 90.000000
_cell_volume 2576.895268
_symmetry_space_group_name_H-M "P 42/M M C"
_symmetry_group_IT_number 131
_symmetry_cell_setting 'tetragonal'
loop_
_space_group_symop_operation_xyz
x,y,z
-x,-y,z
-y,x,1/2+z
y,-x,1/2+z
-x,y,-z
x,-y,-z
y,x,1/2-z
-y,-x,1/2-z
-x,-y,-z
x,y,-z
y,-x,1/2-z
-y,x,1/2-z
x,-y,z
-x,y,z
-y,-x,1/2+z
y,x,1/2+z
loop_
_atom_site_type_symbol
_atom_site_label
_atom_site_fract_x
_atom_site_fract_y
_atom_site_fract_z
Si Si1 0.118991 0.878076 0.150150
Si Si2 0.873476 0.500000 0.901221
Si Si3 0.500000 0.379968 0.903093
Si Si4 0.272036 0.697812 0.846617
O O1 0.121708 0.878293 0.250000
O O2 0.212376 0.802336 0.120121
O O3 0.000000 0.840423 0.126582
O O4 0.131092 0.000000 0.123822
O O5 0.808436 0.398699 0.867032
O O6 0.000000 0.500000 0.879593
O O7 0.866062 0.500000 0.000000
O O8 0.500000 0.500000 0.867068
O O9 0.610048 0.324088 0.879261
O O10 0.500000 0.388735 0.000000
O O11 0.286684 0.713317 0.750000
#
# Coordination Sequence:
#
# PCOD9566825 Si02
#       4
#    16   8   8  16
#     4   8  15  30  53  82 115 145 175 222 285 343
#     4  11  23  39  61  89 122 156 196 252 310 360
#     4  11  23  38  55  73 108 155 188 225 285 348
#     4  11  21  35  58  88 115 149 194 245 290 348
#
# _framework density 18.627068000000001
#
# number of rings (size 3 to 8) (size 9 to 14) (size 15 to 20)
#    0.000    2.000    1.667    4.000    0.000    1.333 
#    0.000    0.833    0.000    5.000    0.000   11.667 
#    0.000    0.000    0.000    0.000    0.000    0.000 
#
# Total GULP energy -267739.397486 kJ/mol
# GULP energy per Si atom -5577.904114 kJ/mol
# Density = 1.858467 g / cm^3
# Si number density = 18.627068 Si / 1000 Ang^3
#
#
#
# Elastic Constant Matrix: (Units=GPa)
#
#
# Indices 1 2 3 4 5 6 
#
# 1 164.8926 109.1753 29.3409 0.0000 0.0000 0.0000
# 2 109.1753 164.8923 29.3407 0.0000 0.0000 0.0000
# 3 29.3409 29.3407 46.0766 0.0000 0.0000 0.0000
# 4 0.0000 0.0000 0.0000 183.3825 0.0000 0.0000
# 5 0.0000 0.0000 0.0000 0.0000 183.9698 0.0000
# 6 0.0000 0.0000 0.0000 0.0000 0.0000 32.0307
#
#
#
# Elastic Compliance Matrix: (Units=1/GPa)
#
#
# Indices 1 2 3 4 5 6 
#
# 1 0.011086 -0.006862 -0.002690 0.000000 0.000000 0.000000
# 2 -0.006862 0.011086 -0.002690 0.000000 0.000000 0.000000
# 3 -0.002690 -0.002690 0.025129 0.000000 0.000000 0.000000
# 4 0.000000 0.000000 0.000000 0.005453 0.000000 0.000000
# 5 0.000000 0.000000 0.000000 0.000000 0.005436 0.000000
# 6 0.000000 0.000000 0.000000 0.000000 0.000000 0.031220
#
#
# Mechanical properties :
#
#
# Convention : Reuss Voigt Hill
#
# Bulk Modulus (GPa) = 43.82562 79.06393 61.44478
# Shear Modulus (GPa) = 41.15210 93.74359 67.44785
#
# Velocity S-wave (km/s) = 4.70538 7.10182 6.02397
# Velocity P-wave (km/s) = 7.28696 10.47786 9.02456
#
# Compressibility (1/GPa) = 0.02281770
#
# Stress axis : x y z
#
# Youngs Moduli (GPa) = 90.20156 90.20160 39.79434
#
# Poissons Ratio (x) = 0.61892 0.10706
# Poissons Ratio (y) = 0.61892 0.10705
# Poissons Ratio (z) = 0.24267 0.24266
#
# Static dielectric constant tensor:
#      x y z
#    x 1.600120 0.000000 0.000000 
#    y 0.000000 1.600120 0.000000 
#    z 0.000000 0.000000 1.638550 
# 
# From -- ./inp_files/7033.got.cif
#   From: 2010.05.17/outbox.cif.g08.bks.cpg/sg131_4_cif.got.tgz:7033.got - 2010.05.20 12:21:01.
