data_PCOD9566381
_publ_section_title
;
Structure prediction by ZEFSAII (Michael W. Deem and Ramdas Pophale) SiO2 
 PCOD9566381
Probable space group: P 42/M M C
;
_chemical_formula_sum "Si O2"
_cell_formula_units_Z 72
_cell_length_a 11.788795
_cell_length_b 11.788795
_cell_length_c 31.000429
_cell_angle_alpha 90.000000
_cell_angle_beta 90.000000
_cell_angle_gamma 90.000000
_cell_volume 4308.305935
_symmetry_space_group_name_H-M "P 42/M M C"
_symmetry_group_IT_number 131
_symmetry_cell_setting 'tetragonal'
loop_
_space_group_symop_operation_xyz
x,y,z
-x,-y,z
-y,x,1/2+z
y,-x,1/2+z
-x,y,-z
x,-y,-z
y,x,1/2-z
-y,-x,1/2-z
-x,-y,-z
x,y,-z
y,-x,1/2-z
-y,x,1/2-z
x,-y,z
-x,y,z
-y,-x,1/2+z
y,x,1/2+z
loop_
_atom_site_type_symbol
_atom_site_label
_atom_site_fract_x
_atom_site_fract_y
_atom_site_fract_z
Si Si1 0.864306 0.500000 0.788711
Si Si2 0.749107 0.860739 0.911358
Si Si3 0.127035 0.137226 0.000000
Si Si4 0.500000 0.871555 0.099224
Si Si5 0.866665 0.866665 0.750000
Si Si6 0.271049 0.244837 0.324392
Si Si7 0.500000 0.226291 0.809637
O O1 0.818268 0.387220 0.812402
O O2 0.820806 0.500000 0.738946
O O3 0.000000 0.500000 0.788309
O O4 0.618030 0.824685 0.916930
O O5 0.785742 0.786714 0.870119
O O6 0.755479 0.000000 0.903505
O O7 0.813235 0.833036 0.955233
O O8 0.000000 0.181785 0.000000
O O9 0.124013 0.000000 0.000000
O O10 0.500000 0.865555 0.151442
O O11 0.500000 0.000000 0.084485
O O12 0.823402 0.793299 0.710104
O O13 0.000000 0.848262 0.758055
O O14 0.289430 0.380508 0.318187
#
# Coordination Sequence:
#
# PCOD9566381 Si02
#       7
#     8  16   8   8   8  16   8
#     4  12  23  35  53  76 107 145 184 224 268 324
#     4   9  18  33  53  77 105 135 175 221 269 324
#     4   9  18  31  49  74 104 140 174 213 271 329
#     4   8  15  27  49  77 102 133 167 212 268 311
#     4  11  22  34  50  75 106 140 178 217 266 324
#     4  11  22  36  54  78 106 143 179 225 270 320
#     4  10  19  35  53  75 105 141 181 221 269 321
#
# _framework density 16.711905999999999
#
# number of rings (size 3 to 8) (size 9 to 14) (size 15 to 20)
#    0.000    2.000    2.222    1.667    0.000    4.444 
#    0.000    5.556    0.000    0.667    0.000    1.556 
#    0.000    5.333    0.000    0.000    0.000    0.000 
#
# Total GULP energy -400874.706794 kJ/mol
# GULP energy per Si atom -5567.704261 kJ/mol
# Density = 1.667387 g / cm^3
# Si number density = 16.711906 Si / 1000 Ang^3
#
#
#
# Elastic Constant Matrix: (Units=GPa)
#
#
# Indices 1 2 3 4 5 6 
#
# 1 70.9856 22.1273 51.3991 0.0000 0.0000 0.0000
# 2 22.1273 70.9856 51.3991 0.0000 0.0000 0.0000
# 3 51.3991 51.3991 152.7590 0.0000 0.0000 0.0000
# 4 0.0000 0.0000 0.0000 23.5431 0.0000 0.0000
# 5 0.0000 0.0000 0.0000 0.0000 23.5431 0.0000
# 6 0.0000 0.0000 0.0000 0.0000 0.0000 18.4221
#
#
#
# Elastic Compliance Matrix: (Units=1/GPa)
#
#
# Indices 1 2 3 4 5 6 
#
# 1 0.018777 -0.001690 -0.005749 0.000000 0.000000 0.000000
# 2 -0.001690 0.018777 -0.005749 0.000000 0.000000 0.000000
# 3 -0.005749 -0.005749 0.010415 0.000000 0.000000 0.000000
# 4 0.000000 0.000000 0.000000 0.042475 0.000000 0.000000
# 5 0.000000 0.000000 0.000000 0.000000 0.042475 0.000000
# 6 0.000000 0.000000 0.000000 0.000000 0.000000 0.054283
#
#
# Mechanical properties :
#
#
# Convention : Reuss Voigt Hill
#
# Bulk Modulus (GPa) = 46.31347 60.50903 53.41125
# Shear Modulus (GPa) = 22.64723 24.42197 23.53460
#
# Velocity S-wave (km/s) = 3.68524 3.82691 3.75674
# Velocity P-wave (km/s) = 6.77355 7.47079 7.13070
#
# Compressibility (1/GPa) = 0.02159199
#
# Stress axis : x y z
#
# Youngs Moduli (GPa) = 53.25619 53.25619 96.01350
#
# Poissons Ratio (x) = 0.09001 0.55201
# Poissons Ratio (y) = 0.09001 0.55201
# Poissons Ratio (z) = 0.30618 0.30618
#
# Static dielectric constant tensor:
#      x y z
#    x 1.578790 0.000000 0.000000 
#    y 0.000000 1.578790 0.000000 
#    z 0.000000 0.000000 1.560640 
# 
# From -- ./inp_files/12208.got.cif
#   From: 2010.05.17/outbox.cif.g08.bks.cpg/sg131_7_cif.got.tgz:12208.got - 2010.05.20 12:21:01.
