data_PCOD9566939
_publ_section_title
;
Structure prediction by ZEFSAII (Michael W. Deem and Ramdas Pophale) SiO2 
 PCOD9566939
Probable space group: P 42/M C M
;
_chemical_formula_sum "Si O2"
_cell_formula_units_Z 80
_cell_length_a 14.550969
_cell_length_b 14.550969
_cell_length_c 22.371360
_cell_angle_alpha 90.000000
_cell_angle_beta 90.000000
_cell_angle_gamma 90.000000
_cell_volume 4736.703687
_symmetry_space_group_name_H-M "P 42/M C M"
_symmetry_group_IT_number 132
_symmetry_cell_setting 'tetragonal'
loop_
_space_group_symop_operation_xyz
x,y,z
-y,x,1/2+z
-x,-y,z
y,-x,1/2+z
x,-y,1/2-z
-x,y,1/2-z
y,x,-z
-y,-x,-z
-x,-y,-z
y,-x,1/2-z
x,y,-z
-y,x,1/2-z
-x,y,1/2+z
x,-y,1/2+z
-y,-x,z
y,x,z
loop_
_atom_site_type_symbol
_atom_site_label
_atom_site_fract_x
_atom_site_fract_y
_atom_site_fract_z
Si Si1 0.602600 0.753637 0.753982
Si Si2 0.610392 0.016364 0.933780
Si Si3 0.369283 0.217009 0.616722
Si Si4 0.398914 0.951115 0.691562
Si Si5 0.648126 0.509159 0.070229
O O1 0.500000 0.711986 0.750000
O O2 0.677639 0.677639 0.771031
O O3 0.631471 0.791481 0.688250
O O4 0.594707 0.843572 0.794830
O O5 0.631994 0.122603 0.919001
O O6 0.500000 0.000000 0.936132
O O7 0.644208 0.965388 0.873760
O O8 0.645790 0.991307 0.000000
O O9 0.286890 0.286890 0.599426
O O10 0.466136 0.265681 0.602260
O O11 0.500000 0.000000 0.688161
O O12 0.354542 0.000000 0.750000
O O13 0.568596 0.431405 0.074802
O O14 0.602797 0.602797 0.093307
O O15 0.668134 0.520143 0.000000
#
# Coordination Sequence:
#
# PCOD9566939 Si02
#       5
#    16  16  16  16  16
#     4  11  21  33  50  76 106 147 192 229 271 322
#     4  10  19  30  49  74  97 126 170 221 278 324
#     4  10  19  30  46  70  99 131 175 226 274 321
#     4  10  16  33  57  70  97 144 180 217 268 328
#     4   8  14  25  40  58  87 131 173 204 243 299
#
# _framework density 16.889382000000001
#
# number of rings (size 3 to 8) (size 9 to 14) (size 15 to 20)
#    0.000    2.200    4.000    2.400    0.000    2.200 
#    0.000    2.000    0.000    0.600    0.000    0.000 
#    0.000    2.800    0.000    1.800    0.000    1.200 
#
# Total GULP energy -445492.780028 kJ/mol
# GULP energy per Si atom -5568.659750 kJ/mol
# Density = 1.685094 g / cm^3
# Si number density = 16.889382 Si / 1000 Ang^3
#
#
#
# Elastic Constant Matrix: (Units=GPa)
#
#
# Indices 1 2 3 4 5 6 
#
# 1 73.4232 38.5808 25.5224 0.0000 0.0000 0.0000
# 2 38.5808 73.4232 25.5224 0.0000 0.0000 0.0000
# 3 25.5224 25.5224 117.9739 0.0000 0.0000 0.0000
# 4 0.0000 0.0000 0.0000 -3.1900 0.0000 0.0000
# 5 0.0000 0.0000 0.0000 0.0000 -3.1900 0.0000
# 6 0.0000 0.0000 0.0000 0.0000 0.0000 10.5003
#
#
#
# Elastic Compliance Matrix: (Units=1/GPa)
#
#
# Indices 1 2 3 4 5 6 
#
# 1 0.019303 -0.009398 -0.002143 0.000000 0.000000 0.000000
# 2 -0.009398 0.019303 -0.002143 0.000000 0.000000 0.000000
# 3 -0.002143 -0.002143 0.009404 0.000000 0.000000 0.000000
# 4 0.000000 0.000000 0.000000 -0.313483 0.000000 0.000000
# 5 0.000000 0.000000 0.000000 0.000000 -0.313483 0.000000
# 6 0.000000 0.000000 0.000000 0.000000 0.000000 0.095236
#
#
# Mechanical properties :
#
#
# Convention : Reuss Voigt Hill
#
# Bulk Modulus (GPa) = 48.44487 49.34127 48.89307
# Shear Modulus (GPa) = -11.12414 12.50372 0.68979
#
# Velocity S-wave (km/s) = -2.56920 2.72385 0.63977
# Velocity P-wave (km/s) = 4.46597 6.25862 5.43669
#
# Compressibility (1/GPa) = 0.02064202
#
# Stress axis : x y z
#
# Youngs Moduli (GPa) = 51.80621 51.80621 106.34232
#
# Poissons Ratio (x) = 0.48687 0.22787
# Poissons Ratio (y) = 0.48687 0.22787
# Poissons Ratio (z) = 0.11101 0.11101
#
# Static dielectric constant tensor:
#      x y z
#    x 1.570220 0.000000 0.000000 
#    y 0.000000 1.570220 0.000000 
#    z 0.000000 0.000000 1.655240 
# 
# From -- ./inp_files/7588.got.cif
#   From: 2010.05.17/outbox.cif.g08.bks.cpg/sg132_4_cif.got.tgz:7588.got - 2010.05.20 12:30:18.
