data_PCOD9566834
_publ_section_title
;
Structure prediction by ZEFSAII (Michael W. Deem and Ramdas Pophale) SiO2 
 PCOD9566834
Probable space group: P 42/M M C
;
_chemical_formula_sum "Si O2"
_cell_formula_units_Z 48
_cell_length_a 7.766007
_cell_length_b 7.766007
_cell_length_c 39.784104
_cell_angle_alpha 90.000000
_cell_angle_beta 90.000000
_cell_angle_gamma 90.000000
_cell_volume 2399.413715
_symmetry_space_group_name_H-M "P 42/M M C"
_symmetry_group_IT_number 131
_symmetry_cell_setting 'tetragonal'
loop_
_space_group_symop_operation_xyz
x,y,z
-x,-y,z
-y,x,1/2+z
y,-x,1/2+z
-x,y,-z
x,-y,-z
y,x,1/2-z
-y,-x,1/2-z
-x,-y,-z
x,y,-z
y,-x,1/2-z
-y,x,1/2-z
x,-y,z
-x,y,z
-y,-x,1/2+z
y,x,1/2+z
loop_
_atom_site_type_symbol
_atom_site_label
_atom_site_fract_x
_atom_site_fract_y
_atom_site_fract_z
Si Si1 0.000000 0.288462 0.836583
Si Si2 0.303205 0.709949 0.212281
Si Si3 0.792923 0.694680 0.537722
Si Si4 0.297044 0.000000 0.587451
O O1 0.169090 0.234221 0.815910
O O2 0.000000 0.500000 0.836543
O O3 0.000000 0.224284 0.874834
O O4 0.243849 0.756152 0.250000
O O5 0.307153 0.500000 0.212205
O O6 0.500000 0.768732 0.206902
O O7 0.732368 0.743467 0.500000
O O8 0.731711 0.500000 0.544879
O O9 0.000000 0.689047 0.536269
O O10 0.748006 0.832736 0.565664
O O11 0.500000 0.000000 0.591554
#
# Coordination Sequence:
#
# PCOD9566834 Si02
#       4
#     8  16  16   8
#     4   9  18  30  46  73 108 140 170 208 260 329
#     4   8  14  27  49  71  91 127 176 216 252 303
#     4   9  19  37  59  77  97 139 194 233 263 315
#     4  11  22  32  49  82 118 146 168 212 286 342
#
# _framework density 20.004887
#
# number of rings (size 3 to 8) (size 9 to 14) (size 15 to 20)
#    0.000    3.000    0.000    3.000    0.000    4.667 
#    0.000    5.000    7.333    0.000    0.000    0.000 
#    0.000    0.000    0.000    0.000    0.000    0.000 
#
# Total GULP energy -267770.650344 kJ/mol
# GULP energy per Si atom -5578.555216 kJ/mol
# Density = 1.995935 g / cm^3
# Si number density = 20.004887 Si / 1000 Ang^3
#
#
#
# Elastic Constant Matrix: (Units=GPa)
#
#
# Indices 1 2 3 4 5 6 
#
# 1 72.6342 26.7248 78.6711 0.0000 0.0000 0.0000
# 2 26.7248 72.6341 78.6709 0.0000 0.0000 0.0000
# 3 78.6711 78.6709 225.4634 0.0000 0.0000 0.0000
# 4 0.0000 0.0000 0.0000 -34.2377 0.0000 0.0000
# 5 0.0000 0.0000 0.0000 0.0000 -34.2375 0.0000
# 6 0.0000 0.0000 0.0000 0.0000 0.0000 28.3206
#
#
#
# Elastic Compliance Matrix: (Units=1/GPa)
#
#
# Indices 1 2 3 4 5 6 
#
# 1 0.022138 0.000356 -0.007849 0.000000 0.000000 0.000000
# 2 0.000356 0.022138 -0.007849 0.000000 0.000000 0.000000
# 3 -0.007849 -0.007849 0.009913 0.000000 0.000000 0.000000
# 4 0.000000 0.000000 0.000000 -0.029208 0.000000 0.000000
# 5 0.000000 0.000000 0.000000 0.000000 -0.029208 0.000000
# 6 0.000000 0.000000 0.000000 0.000000 0.000000 0.035310
#
#
# Mechanical properties :
#
#
# Convention : Reuss Voigt Hill
#
# Bulk Modulus (GPa) = 42.54448 82.09614 62.32031
# Shear Modulus (GPa) = 71.83837 4.41341 38.12589
#
# Velocity S-wave (km/s) = 5.99903 1.48693 4.37032
# Velocity P-wave (km/s) = 8.32452 6.63891 7.52904
#
# Compressibility (1/GPa) = 0.02350481
#
# Stress axis : x y z
#
# Youngs Moduli (GPa) = 45.17183 45.17181 100.88231
#
# Poissons Ratio (x) = -0.01607 0.79179
# Poissons Ratio (y) = -0.01607 0.79179
# Poissons Ratio (z) = 0.35454 0.35454
#
# Static dielectric constant tensor:
#      x y z
#    x 1.743780 0.000000 0.000000 
#    y 0.000000 1.743780 0.000000 
#    z 0.000000 0.000000 1.705030 
# 
# From -- ./inp_files/12948.got.cif
#   From: 2010.05.17/outbox.cif.g08.bks.cpg/sg131_7_cif.got.tgz:12948.got - 2010.05.20 12:21:01.
