data_PCOD9566145
_publ_section_title
;
Structure prediction by ZEFSAII (Michael W. Deem and Ramdas Pophale) SiO2 
 PCOD9566145
Probable space group: P 42/M M C
;
_chemical_formula_sum "Si O2"
_cell_formula_units_Z 96
_cell_length_a 15.389607
_cell_length_b 15.389607
_cell_length_c 22.240646
_cell_angle_alpha 90.000000
_cell_angle_beta 90.000000
_cell_angle_gamma 90.000000
_cell_volume 5267.474679
_symmetry_space_group_name_H-M "P 42/M M C"
_symmetry_group_IT_number 131
_symmetry_cell_setting 'tetragonal'
loop_
_space_group_symop_operation_xyz
x,y,z
-x,-y,z
-y,x,1/2+z
y,-x,1/2+z
-x,y,-z
x,-y,-z
y,x,1/2-z
-y,-x,1/2-z
-x,-y,-z
x,y,-z
y,-x,1/2-z
-y,x,1/2-z
x,-y,z
-x,y,z
-y,-x,1/2+z
y,x,1/2+z
loop_
_atom_site_type_symbol
_atom_site_label
_atom_site_fract_x
_atom_site_fract_y
_atom_site_fract_z
Si Si1 0.598292 0.358380 0.181171
Si Si2 0.899515 0.750124 0.816102
Si Si3 0.775820 0.095732 0.827868
Si Si4 0.785581 0.402262 0.132749
Si Si5 0.596956 0.741405 0.000000
Si Si6 0.600063 0.746673 0.500000
Si Si7 0.831565 0.596904 0.370814
O O1 0.614347 0.385654 0.250000
O O2 0.500000 0.386116 0.163092
O O3 0.681903 0.392421 0.144921
O O4 0.600788 0.254474 0.171315
O O5 0.900904 0.763378 0.744226
O O6 0.845549 0.830531 0.843738
O O7 0.842157 0.666057 0.830914
O O8 0.000000 0.744242 0.836096
O O9 0.680966 0.112690 0.855591
O O10 0.807268 0.000000 0.844433
O O11 0.810141 0.500000 0.149164
O O12 0.798718 0.387718 0.061706
O O13 0.604405 0.797577 0.060641
O O14 0.500000 0.702762 0.000000
O O15 0.668187 0.667202 0.000000
O O16 0.500000 0.715602 0.500000
O O17 0.870510 0.500000 0.363303
#
# Coordination Sequence:
#
# PCOD9566145 Si02
#       7
#    16  16  16  16   8   8  16
#     4  11  21  33  50  75 112 151 186 223 267 318
#     4  10  21  38  59  82 110 142 179 225 278 334
#     4  10  20  36  59  85 113 142 176 222 276 334
#     4  11  22  36  55  79 110 146 189 232 272 323
#     4  10  18  33  53  73 104 150 194 230 269 314
#     4  10  20  33  51  75 104 142 188 240 281 312
#     4  10  20  34  55  80 110 149 188 226 268 321
#
# _framework density 18.225052000000002
#
# number of rings (size 3 to 8) (size 9 to 14) (size 15 to 20)
#    0.000    1.667    3.333    1.500    0.000    4.333 
#    0.000    5.833    0.000    3.000    0.000    0.000 
#    0.000    4.000    0.000    0.000    0.000    0.000 
#
# Total GULP energy -535529.391788 kJ/mol
# GULP energy per Si atom -5578.431164 kJ/mol
# Density = 1.818357 g / cm^3
# Si number density = 18.225052 Si / 1000 Ang^3
#
#
#
# Elastic Constant Matrix: (Units=GPa)
#
#
# Indices 1 2 3 4 5 6 
#
# 1 97.0507 49.1282 10.8234 0.0000 0.0000 0.0000
# 2 49.1282 97.0508 10.8231 0.0000 0.0000 0.0000
# 3 10.8234 10.8231 32.4013 0.0000 0.0000 0.0000
# 4 0.0000 0.0000 0.0000 11.2907 0.0000 0.0000
# 5 0.0000 0.0000 0.0000 0.0000 11.2903 0.0000
# 6 0.0000 0.0000 0.0000 0.0000 0.0000 -9.7766
#
#
#
# Elastic Compliance Matrix: (Units=1/GPa)
#
#
# Indices 1 2 3 4 5 6 
#
# 1 0.014032 -0.006835 -0.002404 0.000000 0.000000 0.000000
# 2 -0.006835 0.014032 -0.002404 0.000000 0.000000 0.000000
# 3 -0.002404 -0.002404 0.032469 0.000000 0.000000 0.000000
# 4 0.000000 0.000000 0.000000 0.088568 0.000000 0.000000
# 5 0.000000 0.000000 0.000000 0.000000 0.088572 0.000000
# 6 0.000000 0.000000 0.000000 0.000000 0.000000 -0.102285
#
#
# Mechanical properties :
#
#
# Convention : Reuss Voigt Hill
#
# Bulk Modulus (GPa) = 26.84801 40.89470 33.87135
# Shear Modulus (GPa) = 29.22433 12.94274 21.08353
#
# Velocity S-wave (km/s) = 4.00875 2.66778 3.40493
# Velocity P-wave (km/s) = 6.01582 5.65480 5.83810
#
# Compressibility (1/GPa) = 0.03724671
#
# Stress axis : x y z
#
# Youngs Moduli (GPa) = 71.26569 71.26589 30.79857
#
# Poissons Ratio (x) = 0.48711 0.07404
# Poissons Ratio (y) = 0.48710 0.07404
# Poissons Ratio (z) = 0.17133 0.17132
#
# Static dielectric constant tensor:
#      x y z
#    x 1.626820 0.000000 0.000000 
#    y 0.000000 1.626820 0.000000 
#    z 0.000000 0.000000 1.635840 
# 
# From -- ./inp_files/9811.got.cif
#   From: 2010.05.17/outbox.cif.g08.bks.cpg/sg131_5_cif.got.tgz:9811.got - 2010.05.20 12:21:01.
