data_PCOD9566978
_publ_section_title
;
Structure prediction by ZEFSAII (Michael W. Deem and Ramdas Pophale) SiO2 
 PCOD9566978
Probable space group: P 42/M C M
;
_chemical_formula_sum "Si O2"
_cell_formula_units_Z 96
_cell_length_a 21.522768
_cell_length_b 21.522768
_cell_length_c 13.951759
_cell_angle_alpha 90.000000
_cell_angle_beta 90.000000
_cell_angle_gamma 90.000000
_cell_volume 6462.866937
_symmetry_space_group_name_H-M "P 42/M C M"
_symmetry_group_IT_number 132
_symmetry_cell_setting 'tetragonal'
loop_
_space_group_symop_operation_xyz
x,y,z
-y,x,1/2+z
-x,-y,z
y,-x,1/2+z
x,-y,1/2-z
-x,y,1/2-z
y,x,-z
-y,-x,-z
-x,-y,-z
y,-x,1/2-z
x,y,-z
-y,x,1/2-z
-x,y,1/2+z
x,-y,1/2+z
-y,-x,z
y,x,z
loop_
_atom_site_type_symbol
_atom_site_label
_atom_site_fract_x
_atom_site_fract_y
_atom_site_fract_z
Si Si1 0.368495 0.092846 0.806948
Si Si2 0.402889 0.302898 0.196942
Si Si3 0.044048 0.388091 0.390156
Si Si4 0.465674 0.732477 0.889860
Si Si5 0.206220 0.696341 0.386239
Si Si6 0.872950 0.506025 0.890739
O O1 0.354814 0.080837 0.695533
O O2 0.317036 0.136855 0.852264
O O3 0.436130 0.124507 0.819746
O O4 0.378699 0.027645 0.861931
O O5 0.368229 0.368229 0.181939
O O6 0.466077 0.293855 0.137051
O O7 0.420062 0.292749 0.308295
O O8 0.354796 0.250178 0.163310
O O9 0.055333 0.369214 0.500000
O O10 0.069071 0.459136 0.382093
O O11 0.470773 0.807483 0.880858
O O12 0.449827 0.717951 0.000000
O O13 0.209846 0.686615 0.500000
O O14 0.236909 0.763092 0.364702
O O15 0.874147 0.531457 0.000000
#
# Coordination Sequence:
#
# PCOD9566978 Si02
#       6
#    16  16  16  16  16  16
#     4  11  19  30  46  63  92 124 155 192 224 266
#     4  10  20  32  48  70  90 108 140 183 231 284
#     4  10  21  30  41  64  93 127 156 182 223 271
#     4  10  20  33  50  67  87 115 141 180 232 280
#     4  10  19  31  49  69  89 117 155 199 237 267
#     4  10  18  28  43  64  88 116 150 184 221 268
#
# _framework density 14.854089
#
# number of rings (size 3 to 8) (size 9 to 14) (size 15 to 20)
#    0.000    1.833    1.667    4.000    2.333    4.000 
#    0.000    0.000    0.000    5.500    0.000    4.667 
#    0.000    0.000    0.000    0.000    0.000    6.667 
#
# Total GULP energy -535445.470906 kJ/mol
# GULP energy per Si atom -5577.556989 kJ/mol
# Density = 1.482028 g / cm^3
# Si number density = 14.854089 Si / 1000 Ang^3
#
#
#
# Elastic Constant Matrix: (Units=GPa)
#
#
# Indices 1 2 3 4 5 6 
#
# 1 55.5601 38.9521 25.6176 0.0000 0.0000 0.0000
# 2 38.9521 55.5601 25.6176 0.0000 0.0000 0.0000
# 3 25.6176 25.6176 106.1210 0.0000 0.0000 0.0000
# 4 0.0000 0.0000 0.0000 16.7985 0.0000 0.0000
# 5 0.0000 0.0000 0.0000 0.0000 16.7985 0.0000
# 6 0.0000 0.0000 0.0000 0.0000 0.0000 19.5210
#
#
#
# Elastic Compliance Matrix: (Units=1/GPa)
#
#
# Indices 1 2 3 4 5 6 
#
# 1 0.036193 -0.024019 -0.002939 0.000000 0.000000 0.000000
# 2 -0.024019 0.036193 -0.002939 0.000000 0.000000 0.000000
# 3 -0.002939 -0.002939 0.010842 0.000000 0.000000 0.000000
# 4 0.000000 0.000000 0.000000 0.059529 0.000000 0.000000
# 5 0.000000 0.000000 0.000000 0.000000 0.059529 0.000000
# 6 0.000000 0.000000 0.000000 0.000000 0.000000 0.051227
#
#
# Mechanical properties :
#
#
# Convention : Reuss Voigt Hill
#
# Bulk Modulus (GPa) = 42.67204 44.17953 43.42578
# Shear Modulus (GPa) = 15.57063 19.09386 17.33224
#
# Velocity S-wave (km/s) = 3.24116 3.58918 3.41960
# Velocity P-wave (km/s) = 6.54192 6.85443 6.69999
#
# Compressibility (1/GPa) = 0.02343455
#
# Stress axis : x y z
#
# Youngs Moduli (GPa) = 27.62979 27.62979 92.23363
#
# Poissons Ratio (x) = 0.66364 0.27105
# Poissons Ratio (y) = 0.66364 0.27105
# Poissons Ratio (z) = 0.08120 0.08120
#
# Static dielectric constant tensor:
#      x y z
#    x 1.490100 0.000000 0.000000 
#    y 0.000000 1.490100 0.000000 
#    z 0.000000 0.000000 1.535990 
# 
# From -- ./inp_files/4998.got.cif
#   From: 2010.05.17/outbox.cif.g08.bks.cpg/sg132_3_cif.got.tgz:4998.got - 2010.05.20 12:30:18.
