data_PCOD9566366
_publ_section_title
;
Structure prediction by ZEFSAII (Michael W. Deem and Ramdas Pophale) SiO2 
 PCOD9566366
Probable space group: P 42/M M C
;
_chemical_formula_sum "Si O2"
_cell_formula_units_Z 80
_cell_length_a 14.682882
_cell_length_b 14.682882
_cell_length_c 19.717742
_cell_angle_alpha 90.000000
_cell_angle_beta 90.000000
_cell_angle_gamma 90.000000
_cell_volume 4250.889314
_symmetry_space_group_name_H-M "P 42/M M C"
_symmetry_group_IT_number 131
_symmetry_cell_setting 'tetragonal'
loop_
_space_group_symop_operation_xyz
x,y,z
-x,-y,z
-y,x,1/2+z
y,-x,1/2+z
-x,y,-z
x,-y,-z
y,x,1/2-z
-y,-x,1/2-z
-x,-y,-z
x,y,-z
y,-x,1/2-z
-y,x,1/2-z
x,-y,z
-x,y,z
-y,-x,1/2+z
y,x,1/2+z
loop_
_atom_site_type_symbol
_atom_site_label
_atom_site_fract_x
_atom_site_fract_y
_atom_site_fract_z
Si Si1 0.399863 0.325414 0.349434
Si Si2 0.144258 0.400596 0.920686
Si Si3 0.102831 0.800780 0.919277
Si Si4 0.891883 0.782022 0.692689
Si Si5 0.400228 0.221478 0.794582
O O1 0.500000 0.370776 0.349820
O O2 0.395104 0.253118 0.410152
O O3 0.397059 0.262061 0.281799
O O4 0.310623 0.386136 0.342126
O O5 0.115935 0.500000 0.891795
O O6 0.107550 0.304647 0.893759
O O7 0.120396 0.402512 0.000000
O O8 0.173187 0.861166 0.878165
O O9 0.000000 0.834008 0.908717
O O10 0.121266 0.800041 0.000000
O O11 0.843987 0.843987 0.750000
O O12 0.847616 0.682142 0.696818
O O13 0.000000 0.780497 0.700874
O O14 0.500000 0.181591 0.805932
#
# Coordination Sequence:
#
# PCOD9566366 Si02
#       5
#    16  16  16  16  16
#     4   9  16  30  53  80 112 143 176 216 263 321
#     4   9  16  28  51  80 110 145 180 216 264 324
#     4  10  21  37  57  82 112 146 185 228 277 329
#     4  12  24  40  60  82 110 143 185 233 281 328
#     4  10  19  34  56  81 110 142 177 220 273 330
#
# _framework density 18.819590000000002
#
# number of rings (size 3 to 8) (size 9 to 14) (size 15 to 20)
#    0.000    2.000    4.000    0.600    0.000    3.000 
#    0.000    5.000    0.000    8.400    0.000    4.200 
#    0.000    0.000    0.000    0.000    0.000    0.000 
#
# Total GULP energy -445988.027084 kJ/mol
# GULP energy per Si atom -5574.850339 kJ/mol
# Density = 1.877676 g / cm^3
# Si number density = 18.819590 Si / 1000 Ang^3
#
#
#
# Elastic Constant Matrix: (Units=GPa)
#
#
# Indices 1 2 3 4 5 6 
#
# 1 132.6539 68.8188 24.0145 0.0000 0.0000 0.0000
# 2 68.8188 132.6539 24.0145 0.0000 0.0000 0.0000
# 3 24.0145 24.0145 26.4872 0.0000 0.0000 0.0000
# 4 0.0000 0.0000 0.0000 17.5602 0.0000 0.0000
# 5 0.0000 0.0000 0.0000 0.0000 17.5602 0.0000
# 6 0.0000 0.0000 0.0000 0.0000 0.0000 -4.4345
#
#
#
# Elastic Compliance Matrix: (Units=1/GPa)
#
#
# Indices 1 2 3 4 5 6 
#
# 1 0.010999 -0.004667 -0.005741 0.000000 0.000000 0.000000
# 2 -0.004667 0.010999 -0.005741 0.000000 0.000000 0.000000
# 3 -0.005741 -0.005741 0.048164 0.000000 0.000000 0.000000
# 4 0.000000 0.000000 0.000000 0.056947 0.000000 0.000000
# 5 0.000000 0.000000 0.000000 0.000000 0.056947 0.000000
# 6 0.000000 0.000000 0.000000 0.000000 0.000000 -0.225507
#
#
# Mechanical properties :
#
#
# Convention : Reuss Voigt Hill
#
# Bulk Modulus (GPa) = 26.40995 58.38784 42.39890
# Shear Modulus (GPa) = 1442.05804 17.80032 729.92918
#
# Velocity S-wave (km/s) = 27.71132 3.07879 19.71543
# Velocity P-wave (km/s) = 32.21728 6.61294 23.25601
#
# Compressibility (1/GPa) = 0.03786451
#
# Stress axis : x y z
#
# Youngs Moduli (GPa) = 90.91988 90.91988 20.76236
#
# Poissons Ratio (x) = 0.42429 0.11919
# Poissons Ratio (y) = 0.42429 0.11919
# Poissons Ratio (z) = 0.52196 0.52196
#
# Static dielectric constant tensor:
#      x y z
#    x 1.676200 0.000000 0.000000 
#    y 0.000000 1.676200 0.000000 
#    z 0.000000 0.000000 1.682570 
# 
# From -- ./inp_files/9446.got.cif
#   From: 2010.05.17/outbox.cif.g08.bks.cpg/sg131_5_cif.got.tgz:9446.got - 2010.05.20 12:21:01.
