data_PCOD9566497
_publ_section_title
;
Structure prediction by ZEFSAII (Michael W. Deem and Ramdas Pophale) SiO2 
 PCOD9566497
Probable space group: P 42/M M C
;
_chemical_formula_sum "Si O2"
_cell_formula_units_Z 112
_cell_length_a 14.361533
_cell_length_b 14.361533
_cell_length_c 26.851286
_cell_angle_alpha 90.000000
_cell_angle_beta 90.000000
_cell_angle_gamma 90.000000
_cell_volume 5538.175211
_symmetry_space_group_name_H-M "P 42/M M C"
_symmetry_group_IT_number 131
_symmetry_cell_setting 'tetragonal'
loop_
_space_group_symop_operation_xyz
x,y,z
-x,-y,z
-y,x,1/2+z
y,-x,1/2+z
-x,y,-z
x,-y,-z
y,x,1/2-z
-y,-x,1/2-z
-x,-y,-z
x,y,-z
y,-x,1/2-z
-y,x,1/2-z
x,-y,z
-x,y,z
-y,-x,1/2+z
y,x,1/2+z
loop_
_atom_site_type_symbol
_atom_site_label
_atom_site_fract_x
_atom_site_fract_y
_atom_site_fract_z
Si Si1 0.890542 0.104318 0.155471
Si Si2 0.791162 0.395907 0.559079
Si Si3 0.390069 0.600639 0.105316
Si Si4 0.295607 0.103090 0.696888
Si Si5 0.693216 0.697078 0.189961
Si Si6 0.890238 0.212210 0.556074
Si Si7 0.896322 0.388076 0.305791
O O1 0.881664 0.183602 0.197200
O O2 0.845239 0.141160 0.104289
O O3 0.000000 0.095508 0.146316
O O4 0.854844 0.000000 0.168333
O O5 0.783914 0.405868 0.500000
O O6 0.808436 0.500000 0.580346
O O7 0.692578 0.355616 0.577402
O O8 0.870509 0.320274 0.567141
O O9 0.350685 0.500000 0.091535
O O10 0.500000 0.598512 0.094951
O O11 0.372571 0.623505 0.163026
O O12 0.326520 0.201035 0.673296
O O13 0.344336 0.099291 0.750393
O O14 0.311295 0.000000 0.673719
O O15 0.691424 0.691424 0.250000
O O16 0.658833 0.801177 0.174133
O O17 0.852443 0.191494 0.500000
O O18 0.000000 0.194782 0.553760
O O19 0.884046 0.500000 0.303451
O O20 0.000000 0.370661 0.328338
#
# Coordination Sequence:
#
# PCOD9566497 Si02
#       7
#    16  16  16  16  16  16  16
#     4   9  17  29  46  69  97 128 162 201 244 290
#     4   9  18  33  52  73  98 128 162 201 244 290
#     4  10  21  35  51  73  99 127 163 205 247 294
#     4   9  18  32  49  69  93 124 161 199 240 286
#     4  10  20  33  51  73  99 130 162 201 246 294
#     4   9  17  29  46  69  97 128 160 195 239 292
#     4   9  18  33  51  70  94 124 159 199 242 290
#
# _framework density 20.223268000000001
#
# number of rings (size 3 to 8) (size 9 to 14) (size 15 to 20)
#    0.000    2.714    0.000    1.286    0.000    4.286 
#    0.000    7.857    0.000    1.714    0.000    0.000 
#    0.000    0.000    0.000   17.857    0.000    0.571 
#
# Total GULP energy -623508.569311 kJ/mol
# GULP energy per Si atom -5567.040797 kJ/mol
# Density = 2.017724 g / cm^3
# Si number density = 20.223268 Si / 1000 Ang^3
#
#
#
# Elastic Constant Matrix: (Units=GPa)
#
#
# Indices 1 2 3 4 5 6 
#
# 1 47.3461 7.1919 13.2242 0.0000 0.0000 0.0000
# 2 7.1919 47.3461 13.2242 0.0000 0.0000 0.0000
# 3 13.2242 13.2242 55.1515 0.0000 0.0000 0.0000
# 4 0.0000 0.0000 0.0000 19.6023 0.0000 0.0000
# 5 0.0000 0.0000 0.0000 0.0000 19.6023 0.0000
# 6 0.0000 0.0000 0.0000 0.0000 0.0000 22.1958
#
#
#
# Elastic Compliance Matrix: (Units=1/GPa)
#
#
# Indices 1 2 3 4 5 6 
#
# 1 0.022826 -0.002078 -0.004975 0.000000 0.000000 0.000000
# 2 -0.002078 0.022826 -0.004975 0.000000 0.000000 0.000000
# 3 -0.004975 -0.004975 0.020518 0.000000 0.000000 0.000000
# 4 0.000000 0.000000 0.000000 0.051015 0.000000 0.000000
# 5 0.000000 0.000000 0.000000 0.000000 0.051015 0.000000
# 6 0.000000 0.000000 0.000000 0.000000 0.000000 0.045053
#
#
# Mechanical properties :
#
#
# Convention : Reuss Voigt Hill
#
# Bulk Modulus (GPa) = 23.74482 24.12494 23.93488
# Shear Modulus (GPa) = 19.89284 20.02697 19.95990
#
# Velocity S-wave (km/s) = 3.13974 3.15031 3.14503
# Velocity P-wave (km/s) = 4.99107 5.01874 5.00493
#
# Compressibility (1/GPa) = 0.04211444
#
# Stress axis : x y z
#
# Youngs Moduli (GPa) = 43.80922 43.80922 48.73838
#
# Poissons Ratio (x) = 0.09102 0.24248
# Poissons Ratio (y) = 0.09102 0.24248
# Poissons Ratio (z) = 0.21795 0.21795
#
# Static dielectric constant tensor:
#      x y z
#    x 1.780140 0.000000 0.000000 
#    y 0.000000 1.780140 0.000000 
#    z 0.000000 0.000000 1.748830 
# 
# From -- ./inp_files/12450.got.cif
#   From: 2010.05.17/outbox.cif.g08.bks.cpg/sg131_7_cif.got.tgz:12450.got - 2010.05.20 12:21:01.
