data_PCOD9566026
_publ_section_title
;
Structure prediction by ZEFSAII (Michael W. Deem and Ramdas Pophale) SiO2 
 PCOD9566026
Probable space group: P 4/N C C
;
_chemical_formula_sum "Si O2"
_cell_formula_units_Z 108
_cell_length_a 15.000000
_cell_length_b 15.000000
_cell_length_c 24.000000
_cell_angle_alpha 90.000000
_cell_angle_beta 90.000000
_cell_angle_gamma 90.000000
_cell_volume 5400.000000
_symmetry_space_group_name_H-M "P 4/N C C"
_symmetry_group_IT_number 130
_symmetry_cell_setting 'tetragonal'
loop_
_space_group_symop_operation_xyz
x,y,z
1/2-y,x,z
1/2-x,1/2-y,z
y,1/2-x,z
1/2+x,-y,1/2-z
-x,1/2+y,1/2-z
1/2+y,1/2+x,1/2-z
-y,-x,1/2-z
-x,-y,-z
1/2+y,-x,-z
1/2+x,1/2+y,-z
-y,1/2+x,-z
1/2-x,y,1/2+z
x,1/2-y,1/2+z
1/2-y,1/2-x,1/2+z
y,x,1/2+z
loop_
_atom_site_type_symbol
_atom_site_label
_atom_site_fract_x
_atom_site_fract_y
_atom_site_fract_z
Si Si1 0.768398 0.561243 0.116727
Si Si2 0.409996 0.953334 0.373817
Si Si3 0.927908 0.320532 0.206604
Si Si4 0.361810 0.653186 0.513355
Si Si5 0.625922 0.374079 0.250000
Si Si6 0.250000 0.250000 0.431654
Si Si7 0.612111 0.705319 0.244852
Si Si8 0.925500 0.423956 0.403913
O O1 0.667751 0.526377 0.119810
O O2 0.775221 0.644165 0.075913
O O3 0.796949 0.589627 0.179323
O O4 0.834567 0.483698 0.099710
O O5 0.382956 0.883701 0.423953
O O6 0.401219 0.923288 0.308370
O O7 0.506734 0.996351 0.386586
O O8 0.893624 0.393624 0.250000
O O9 0.889336 0.228332 0.231506
O O10 0.910726 0.348483 0.143002
O O11 0.032495 0.317038 0.215329
O O12 0.260325 0.630954 0.494340
O O13 0.427969 0.610975 0.466872
O O14 0.694293 0.641815 0.255565
#
# Coordination Sequence:
#
# PCOD9566026 Si02
#       8
#    16  16  16  16   8   4  16  16
#     4  12  20  36  63  95 129 167 224 275 339 398
#     4  12  25  43  70 101 135 176 229 285 342 416
#     4  12  26  39  64  99 139 176 229 280 336 406
#     4  11  25  48  71  93 134 187 235 282 349 417
#     4  12  27  44  66 102 144 183 216 280 364 409
#     4  12  20  36  64 100 128 170 212 292 340 398
#     4  11  21  39  62  94 137 182 218 269 342 414
#     4  12  25  42  68 102 135 176 232 290 335 407
#
# _framework density 20.0
#
# number of rings (size 3 to 8) (size 9 to 14) (size 15 to 20)
#    0.000    0.296    7.407    1.556    3.111    0.000 
#    0.000    0.000    0.000    0.000    0.000    0.000 
#    0.000    0.000    0.000    0.000    0.000    0.000 
#
# Total GULP energy -601896.085748 kJ/mol
# GULP energy per Si atom -5573.111905 kJ/mol
# Density = 1.995448 g / cm^3
# Si number density = 20.000000 Si / 1000 Ang^3
#
#
#
# Elastic Constant Matrix: (Units=GPa)
#
#
# Indices 1 2 3 4 5 6 
#
# 1 73.7864 41.1446 41.0584 0.0000 0.0000 0.0000
# 2 41.1446 73.7859 41.0583 0.0000 0.0000 0.0000
# 3 41.0584 41.0583 123.8850 0.0000 0.0000 0.0000
# 4 0.0000 0.0000 0.0000 -122.6253 0.0000 0.0000
# 5 0.0000 0.0000 0.0000 0.0000 -122.5776 0.0000
# 6 0.0000 0.0000 0.0000 0.0000 0.0000 44.2744
#
#
#
# Elastic Compliance Matrix: (Units=1/GPa)
#
#
# Indices 1 2 3 4 5 6 
#
# 1 0.021018 -0.009618 -0.003778 0.000000 0.000000 0.000000
# 2 -0.009618 0.021018 -0.003778 0.000000 0.000000 0.000000
# 3 -0.003778 -0.003778 0.010576 0.000000 0.000000 0.000000
# 4 0.000000 0.000000 0.000000 -0.008155 0.000000 0.000000
# 5 0.000000 0.000000 0.000000 0.000000 -0.008158 0.000000
# 6 0.000000 0.000000 0.000000 0.000000 0.000000 0.022586
#
#
# Mechanical properties :
#
#
# Convention : Reuss Voigt Hill
#
# Bulk Modulus (GPa) = 54.75269 57.55332 56.15301
# Shear Modulus (GPa) = 50.34082 -30.30595 10.01744
#
# Velocity S-wave (km/s) = 5.02246 -3.89691 2.24044
# Velocity P-wave (km/s) = 7.81468 2.93109 5.90172
#
# Compressibility (1/GPa) = 0.01826394
#
# Stress axis : x y z
#
# Youngs Moduli (GPa) = 47.57812 47.57778 94.54927
#
# Poissons Ratio (x) = 0.45759 0.35724
# Poissons Ratio (y) = 0.45759 0.35725
# Poissons Ratio (z) = 0.17977 0.17977
#
# Static dielectric constant tensor:
#      x y z
#    x 1.750820 0.000000 0.000000 
#    y 0.000000 1.750830 0.000000 
#    z 0.000000 0.000000 1.697100 
# 
# From -- ./inp_files/4323.got.cif
#   From: 2010.05.17/outbox.ucp.g08.bks.cvg/sg130_3_cif.got.tgz:4323.got - 2010.06.11 11:38:29.
