data_PCOD9566773
_publ_section_title
;
Structure prediction by ZEFSAII (Michael W. Deem and Ramdas Pophale) SiO2 
 PCOD9566773
Probable space group: P 42/M M C
;
_chemical_formula_sum "Si O2"
_cell_formula_units_Z 42
_cell_length_a 7.327521
_cell_length_b 7.327521
_cell_length_c 35.599693
_cell_angle_alpha 90.000000
_cell_angle_beta 90.000000
_cell_angle_gamma 90.000000
_cell_volume 1911.438795
_symmetry_space_group_name_H-M "P 42/M M C"
_symmetry_group_IT_number 131
_symmetry_cell_setting 'tetragonal'
loop_
_space_group_symop_operation_xyz
x,y,z
-x,-y,z
-y,x,1/2+z
y,-x,1/2+z
-x,y,-z
x,-y,-z
y,x,1/2-z
-y,-x,1/2-z
-x,-y,-z
x,y,-z
y,-x,1/2-z
-y,x,1/2-z
x,-y,z
-x,y,z
-y,-x,1/2+z
y,x,1/2+z
loop_
_atom_site_type_symbol
_atom_site_label
_atom_site_fract_x
_atom_site_fract_y
_atom_site_fract_z
Si Si1 0.222334 0.790317 0.122035
Si Si2 0.216389 0.778667 0.040442
Si Si3 0.780427 0.500000 0.183860
Si Si4 0.500000 0.500000 0.250000
O O1 0.285821 0.718843 0.081167
O O2 0.272517 0.671206 0.157679
O O3 0.000000 0.787044 0.120327
O O4 0.278385 0.000000 0.126131
O O5 0.000000 0.736825 0.039803
O O6 0.232365 0.000000 0.041032
O O7 0.290778 0.717102 0.000000
O O8 0.674102 0.500000 0.222641
O O9 0.000000 0.500000 0.189002
#
# Coordination Sequence:
#
# PCOD9566773 Si02
#       4
#    16  16   8   2
#     4   8  14  27  49  76 107 143 178 212 254 304
#     4   7   9  15  32  63 103 141 174 209 245 283
#     4  10  22  40  59  80 106 133 168 217 267 320
#     4  12  28  44  60  84 106 128 168 220 276 336
#
# _framework density 21.972978999999999
#
# number of rings (size 3 to 8) (size 9 to 14) (size 15 to 20)
#    0.000    3.810    0.000    3.429    0.000    1.524 
#    0.000    0.952    0.000    5.714    0.000    2.667 
#    0.000    6.095    0.000    0.762    0.000    0.000 
#
# Total GULP energy -234235.056730 kJ/mol
# GULP energy per Si atom -5577.025160 kJ/mol
# Density = 2.192297 g / cm^3
# Si number density = 21.972979 Si / 1000 Ang^3
#
#
#
# Elastic Constant Matrix: (Units=GPa)
#
#
# Indices 1 2 3 4 5 6 
#
# 1 100.3466 15.5841 65.8228 0.0000 0.0000 0.0000
# 2 15.5841 100.3466 65.8228 0.0000 0.0000 0.0000
# 3 65.8228 65.8228 258.6337 0.0000 0.0000 0.0000
# 4 0.0000 0.0000 0.0000 82.4003 0.0000 0.0000
# 5 0.0000 0.0000 0.0000 0.0000 82.4003 0.0000
# 6 0.0000 0.0000 0.0000 0.0000 0.0000 12.3580
#
#
#
# Elastic Compliance Matrix: (Units=1/GPa)
#
#
# Indices 1 2 3 4 5 6 
#
# 1 0.011965 0.000167 -0.003088 0.000000 0.000000 0.000000
# 2 0.000167 0.011965 -0.003088 0.000000 0.000000 0.000000
# 3 -0.003088 -0.003088 0.005438 0.000000 0.000000 0.000000
# 4 0.000000 0.000000 0.000000 0.012136 0.000000 0.000000
# 5 0.000000 0.000000 0.000000 0.000000 0.012136 0.000000
# 6 0.000000 0.000000 0.000000 0.000000 0.000000 0.080919
#
#
# Mechanical properties :
#
#
# Convention : Reuss Voigt Hill
#
# Bulk Modulus (GPa) = 57.63158 83.75403 70.69280
# Shear Modulus (GPa) = 32.81733 56.23820 44.52776
#
# Velocity S-wave (km/s) = 3.86882 5.06456 4.50653
# Velocity P-wave (km/s) = 6.80017 8.50878 7.70200
#
# Compressibility (1/GPa) = 0.01735160
#
# Stress axis : x y z
#
# Youngs Moduli (GPa) = 83.57831 83.57831 183.88849
#
# Poissons Ratio (x) = -0.01397 0.56778
# Poissons Ratio (y) = -0.01397 0.56778
# Poissons Ratio (z) = 0.25806 0.25806
#
# Static dielectric constant tensor:
#      x y z
#    x 1.862450 0.000000 0.000000 
#    y 0.000000 1.862450 0.000000 
#    z 0.000000 0.000000 1.778200 
# 
# From -- ./inp_files/12747.got.cif
#   From: 2010.05.17/outbox.cif.g08.bks.cpg/sg131_7_cif.got.tgz:12747.got - 2010.05.20 12:21:01.
