data_PCOD9566235
_publ_section_title
;
Structure prediction by ZEFSAII (Michael W. Deem and Ramdas Pophale) SiO2 
 PCOD9566235
Probable space group: P 42/M M C
;
_chemical_formula_sum "Si O2"
_cell_formula_units_Z 80
_cell_length_a 14.541231
_cell_length_b 14.541231
_cell_length_c 21.394857
_cell_angle_alpha 90.000000
_cell_angle_beta 90.000000
_cell_angle_gamma 90.000000
_cell_volume 4523.886865
_symmetry_space_group_name_H-M "P 42/M M C"
_symmetry_group_IT_number 131
_symmetry_cell_setting 'tetragonal'
loop_
_space_group_symop_operation_xyz
x,y,z
-x,-y,z
-y,x,1/2+z
y,-x,1/2+z
-x,y,-z
x,-y,-z
y,x,1/2-z
-y,-x,1/2-z
-x,-y,-z
x,y,-z
y,-x,1/2-z
-y,x,1/2-z
x,-y,z
-x,y,z
-y,-x,1/2+z
y,x,1/2+z
loop_
_atom_site_type_symbol
_atom_site_label
_atom_site_fract_x
_atom_site_fract_y
_atom_site_fract_z
Si Si1 0.730693 0.107812 0.569839
Si Si2 0.395212 0.103003 0.234606
Si Si3 0.697702 0.609256 0.687185
Si Si4 0.609065 0.283534 0.428563
Si Si5 0.895219 0.211181 0.802665
O O1 0.769630 0.116178 0.500000
O O2 0.647406 0.179516 0.574016
O O3 0.800330 0.132506 0.625633
O O4 0.705095 0.000000 0.578754
O O5 0.500000 0.110386 0.257781
O O6 0.379464 0.191466 0.191112
O O7 0.320237 0.108832 0.288991
O O8 0.384676 0.000000 0.206411
O O9 0.654821 0.654821 0.750000
O O10 0.677652 0.500000 0.687231
O O11 0.657364 0.657808 0.625798
O O12 0.627888 0.316750 0.500000
O O13 0.500000 0.285469 0.418734
O O14 0.835131 0.164870 0.750000
O O15 0.000000 0.180169 0.794712
#
# Coordination Sequence:
#
# PCOD9566235 Si02
#       5
#    16  16  16  16  16
#     4   9  18  32  50  73 101 133 168 208 258 310
#     4   9  18  32  51  75  99 124 160 210 264 309
#     4  11  22  35  53  75 101 135 175 217 257 302
#     4  10  21  35  51  74 105 140 175 210 251 302
#     4  10  19  31  50  74 101 133 165 201 246 297
#
# _framework density 17.683910000000001
#
# number of rings (size 3 to 8) (size 9 to 14) (size 15 to 20)
#    0.000    2.200    0.000    3.600    0.000    4.800 
#    0.000    5.000    0.000    1.200    0.000   11.200 
#    0.000    0.000    0.000    0.000    0.000    0.400 
#
# Total GULP energy -445696.900304 kJ/mol
# GULP energy per Si atom -5571.211254 kJ/mol
# Density = 1.764366 g / cm^3
# Si number density = 17.683910 Si / 1000 Ang^3
#
#
#
# Elastic Constant Matrix: (Units=GPa)
#
#
# Indices 1 2 3 4 5 6 
#
# 1 76.7840 33.4134 69.6208 0.0000 0.0000 0.0000
# 2 33.4134 76.7842 69.6195 0.0000 0.0000 0.0000
# 3 69.6208 69.6195 161.4116 0.0000 0.0000 0.0000
# 4 0.0000 0.0000 0.0000 22.8664 0.0000 0.0000
# 5 0.0000 0.0000 0.0000 0.0000 22.8662 0.0000
# 6 0.0000 0.0000 0.0000 0.0000 0.0000 17.5815
#
#
#
# Elastic Compliance Matrix: (Units=1/GPa)
#
#
# Indices 1 2 3 4 5 6 
#
# 1 0.021501 -0.001556 -0.008603 0.000000 0.000000 0.000000
# 2 -0.001556 0.021500 -0.008602 0.000000 0.000000 0.000000
# 3 -0.008603 -0.008602 0.013616 0.000000 0.000000 0.000000
# 4 0.000000 0.000000 0.000000 0.043732 0.000000 0.000000
# 5 0.000000 0.000000 0.000000 0.000000 0.043733 0.000000
# 6 0.000000 0.000000 0.000000 0.000000 0.000000 0.056878
#
#
# Mechanical properties :
#
#
# Convention : Reuss Voigt Hill
#
# Bulk Modulus (GPa) = 52.36969 73.36523 62.86746
# Shear Modulus (GPa) = 20.42091 22.15123 21.28607
#
# Velocity S-wave (km/s) = 3.40188 3.54308 3.47320
# Velocity P-wave (km/s) = 6.71632 7.63642 7.19110
#
# Compressibility (1/GPa) = 0.01909501
#
# Stress axis : x y z
#
# Youngs Moduli (GPa) = 46.50975 46.51114 73.44279
#
# Poissons Ratio (x) = 0.07239 0.63179
# Poissons Ratio (y) = 0.07239 0.63176
# Poissons Ratio (z) = 0.40010 0.40009
#
# Static dielectric constant tensor:
#      x y z
#    x 1.618250 0.000000 0.000000 
#    y 0.000000 1.618250 0.000000 
#    z 0.000000 0.000000 1.625460 
# 
# From -- ./inp_files/9381.got.cif
#   From: 2010.05.17/outbox.cif.g08.bks.cpg/sg131_5_cif.got.tgz:9381.got - 2010.05.20 12:21:01.
