data_PCOD9566779
_publ_section_title
;
Structure prediction by ZEFSAII (Michael W. Deem and Ramdas Pophale) SiO2 
 PCOD9566779
Probable space group: P 42/M M C
;
_chemical_formula_sum "Si O2"
_cell_formula_units_Z 96
_cell_length_a 15.342905
_cell_length_b 15.342905
_cell_length_c 19.874993
_cell_angle_alpha 90.000000
_cell_angle_beta 90.000000
_cell_angle_gamma 90.000000
_cell_volume 4678.667437
_symmetry_space_group_name_H-M "P 42/M M C"
_symmetry_group_IT_number 131
_symmetry_cell_setting 'tetragonal'
loop_
_space_group_symop_operation_xyz
x,y,z
-x,-y,z
-y,x,1/2+z
y,-x,1/2+z
-x,y,-z
x,-y,-z
y,x,1/2-z
-y,-x,1/2-z
-x,-y,-z
x,y,-z
y,-x,1/2-z
-y,x,1/2-z
x,-y,z
-x,y,z
-y,-x,1/2+z
y,x,1/2+z
loop_
_atom_site_type_symbol
_atom_site_label
_atom_site_fract_x
_atom_site_fract_y
_atom_site_fract_z
Si Si1 0.861784 0.596170 0.888595
Si Si2 0.709468 0.595527 0.298935
Si Si3 0.599838 0.655812 0.421238
Si Si4 0.904898 0.828516 0.687428
Si Si5 0.900279 0.787776 0.925259
Si Si6 0.370173 0.901833 0.232350
O O1 0.890437 0.500000 0.912173
O O2 0.757930 0.600504 0.900664
O O3 0.898570 0.683094 0.921722
O O4 0.886053 0.604962 0.810040
O O5 0.670118 0.670118 0.250000
O O6 0.686171 0.500000 0.270229
O O7 0.664452 0.608030 0.370813
O O8 0.813992 0.598993 0.304157
O O9 0.622774 0.648416 0.500000
O O10 0.500000 0.624798 0.412988
O O11 0.892591 0.892591 0.750000
O O12 0.830015 0.842266 0.632668
O O13 0.900645 0.733416 0.720820
O O14 0.000000 0.840152 0.655662
O O15 0.000000 0.816351 0.913885
O O16 0.872366 0.814543 0.000000
O O17 0.399315 0.000000 0.212877
#
# Coordination Sequence:
#
# PCOD9566779 Si02
#       6
#    16  16  16  16  16  16
#     4  11  21  38  62  89 123 163 207 255 311 372
#     4  12  24  40  64  95 130 168 211 261 317 376
#     4  10  22  40  63  93 129 170 213 257 309 374
#     4  11  22  39  64  88 117 161 211 259 310 370
#     4  11  24  39  56  87 128 164 206 260 313 372
#     4  11  23  40  64  93 125 161 208 267 319 367
#
# _framework density 20.518661999999999
#
# number of rings (size 3 to 8) (size 9 to 14) (size 15 to 20)
#    0.000    1.000    3.333    4.000    0.000    6.333 
#    0.000    2.500    0.000    1.500    0.000    1.167 
#    0.000    0.000    0.000    0.000    0.000    0.000 
#
# Total GULP energy -536331.143563 kJ/mol
# GULP energy per Si atom -5586.782745 kJ/mol
# Density = 2.047196 g / cm^3
# Si number density = 20.518662 Si / 1000 Ang^3
#
#
#
# Elastic Constant Matrix: (Units=GPa)
#
#
# Indices 1 2 3 4 5 6 
#
# 1 104.8020 33.4340 39.6080 0.0000 0.0000 0.0000
# 2 33.4340 104.8020 39.6080 0.0000 0.0000 0.0000
# 3 39.6080 39.6080 102.2991 0.0000 0.0000 0.0000
# 4 0.0000 0.0000 0.0000 120.8553 0.0000 0.0000
# 5 0.0000 0.0000 0.0000 0.0000 120.8553 0.0000
# 6 0.0000 0.0000 0.0000 0.0000 0.0000 -142.0324
#
#
#
# Elastic Compliance Matrix: (Units=1/GPa)
#
#
# Indices 1 2 3 4 5 6 
#
# 1 0.011654 -0.002358 -0.003599 0.000000 0.000000 0.000000
# 2 -0.002358 0.011654 -0.003599 0.000000 0.000000 0.000000
# 3 -0.003599 -0.003599 0.012563 0.000000 0.000000 0.000000
# 4 0.000000 0.000000 0.000000 0.008274 0.000000 0.000000
# 5 0.000000 0.000000 0.000000 0.000000 0.008274 0.000000
# 6 0.000000 0.000000 0.000000 0.000000 0.000000 -0.007041
#
#
# Mechanical properties :
#
#
# Convention : Reuss Voigt Hill
#
# Bulk Modulus (GPa) = 59.67299 59.68923 59.68111
# Shear Modulus (GPa) = 71.34875 33.21914 52.28395
#
# Velocity S-wave (km/s) = 5.90323 4.02801 5.05336
# Velocity P-wave (km/s) = 8.69538 7.12647 7.94972
#
# Compressibility (1/GPa) = 0.01675800
#
# Stress axis : x y z
#
# Youngs Moduli (GPa) = 85.80533 85.80533 79.60172
#
# Poissons Ratio (x) = 0.20229 0.28652
# Poissons Ratio (y) = 0.20229 0.28652
# Poissons Ratio (z) = 0.30885 0.30885
#
# Static dielectric constant tensor:
#      x y z
#    x 1.755420 0.000000 0.000000 
#    y 0.000000 1.755420 0.000000 
#    z 0.000000 0.000000 1.686740 
# 
# From -- ./inp_files/9725.got.cif
#   From: 2010.05.17/outbox.cif.g08.bks.cpg/sg131_5_cif.got.tgz:9725.got - 2010.05.20 12:21:01.
