data_PCOD9566949
_publ_section_title
;
Structure prediction by ZEFSAII (Michael W. Deem and Ramdas Pophale) SiO2 
 PCOD9566949
Probable space group: P 42/M C M
;
_chemical_formula_sum "Si O2"
_cell_formula_units_Z 112
_cell_length_a 19.910922
_cell_length_b 19.910922
_cell_length_c 14.070765
_cell_angle_alpha 90.000000
_cell_angle_beta 90.000000
_cell_angle_gamma 90.000000
_cell_volume 5578.281826
_symmetry_space_group_name_H-M "P 42/M C M"
_symmetry_group_IT_number 132
_symmetry_cell_setting 'tetragonal'
loop_
_space_group_symop_operation_xyz
x,y,z
-y,x,1/2+z
-x,-y,z
y,-x,1/2+z
x,-y,1/2-z
-x,y,1/2-z
y,x,-z
-y,-x,-z
-x,-y,-z
y,-x,1/2-z
x,y,-z
-y,x,1/2-z
-x,y,1/2+z
x,-y,1/2+z
-y,-x,z
y,x,z
loop_
_atom_site_type_symbol
_atom_site_label
_atom_site_fract_x
_atom_site_fract_y
_atom_site_fract_z
Si Si1 0.353354 0.459532 0.116791
Si Si2 0.049835 0.347495 0.613146
Si Si3 0.651140 0.242980 0.384306
Si Si4 0.811212 0.293227 0.116534
Si Si5 0.486507 0.125412 0.639475
Si Si6 0.904529 0.364788 0.393293
Si Si7 0.422467 0.732501 0.108139
O O1 0.423347 0.423347 0.144597
O O2 0.293185 0.408505 0.144833
O O3 0.328654 0.533310 0.149159
O O4 0.353965 0.461711 0.000000
O O5 0.043917 0.335452 0.500000
O O6 0.112262 0.303119 0.648443
O O7 0.077596 0.423265 0.623592
O O8 0.974299 0.341842 0.651919
O O9 0.644834 0.239603 0.500000
O O10 0.720310 0.279691 0.362206
O O11 0.648639 0.167517 0.346799
O O12 0.776484 0.223517 0.140804
O O13 0.761838 0.353640 0.150526
O O14 0.812275 0.299449 0.000000
O O15 0.500000 0.132416 0.750000
O O16 0.554452 0.094561 0.599470
O O17 0.468964 0.200295 0.604064
O O18 0.901416 0.336283 0.500000
O O19 0.406375 0.712487 0.000000
#
# Coordination Sequence:
#
# PCOD9566949 Si02
#       7
#    16  16  16  16  16  16  16
#     4   8  12  19  35  58  78  96 124 160 192 225
#     4   9  18  29  42  58  74 100 136 163 187 225
#     4   8  13  21  36  58  80 101 125 154 188 223
#     4   8  14  25  41  58  73  92 125 168 203 228
#     4  11  20  27  37  56  83 109 130 157 192 225
#     4  10  17  27  42  57  78 105 132 160 186 223
#     4   9  15  26  43  58  74 101 135 162 192 232
#
# _framework density 20.077866
#
# number of rings (size 3 to 8) (size 9 to 14) (size 15 to 20)
#    0.000    3.000    1.429    3.429    0.000    2.286 
#    0.000    0.000    0.000    7.286    0.000    3.000 
#    0.000    0.571    0.000   13.143    0.000    5.714 
#
# Total GULP energy -624826.365508 kJ/mol
# GULP energy per Si atom -5578.806835 kJ/mol
# Density = 2.003217 g / cm^3
# Si number density = 20.077866 Si / 1000 Ang^3
#
#
#
# Elastic Constant Matrix: (Units=GPa)
#
#
# Indices 1 2 3 4 5 6 
#
# 1 86.1851 52.6575 -1.9936 0.0000 0.0000 0.0000
# 2 52.6575 86.1851 -1.9936 0.0000 0.0000 0.0000
# 3 -1.9936 -1.9936 64.4187 0.0000 0.0000 0.0000
# 4 0.0000 0.0000 0.0000 -7.6906 0.0000 0.0000
# 5 0.0000 0.0000 0.0000 0.0000 -7.6906 0.0000
# 6 0.0000 0.0000 0.0000 0.0000 0.0000 12.6697
#
#
#
# Elastic Compliance Matrix: (Units=1/GPa)
#
#
# Indices 1 2 3 4 5 6 
#
# 1 0.018517 -0.011309 0.000223 0.000000 0.000000 0.000000
# 2 -0.011309 0.018517 0.000223 0.000000 0.000000 0.000000
# 3 0.000223 0.000223 0.015537 0.000000 0.000000 0.000000
# 4 0.000000 0.000000 0.000000 -0.130029 0.000000 0.000000
# 5 0.000000 0.000000 0.000000 0.000000 -0.130029 0.000000
# 6 0.000000 0.000000 0.000000 0.000000 0.000000 0.078928
#
#
# Mechanical properties :
#
#
# Convention : Reuss Voigt Hill
#
# Bulk Modulus (GPa) = 32.41779 37.12548 34.77163
# Shear Modulus (GPa) = -51.78641 11.99895 -19.89373
#
# Velocity S-wave (km/s) = -5.08417 2.44728 -3.15116
# Velocity P-wave (km/s) = 4.27597 5.14941 2.02886
#
# Compressibility (1/GPa) = 0.03084726
#
# Stress axis : x y z
#
# Youngs Moduli (GPa) = 54.00301 54.00301 64.36144
#
# Poissons Ratio (x) = 0.61070 -0.01436
# Poissons Ratio (y) = 0.61070 -0.01436
# Poissons Ratio (z) = -0.01205 -0.01205
#
# Static dielectric constant tensor:
#      x y z
#    x 1.717480 0.000000 0.000000 
#    y 0.000000 1.717480 0.000000 
#    z 0.000000 0.000000 1.849350 
# 
# From -- ./inp_files/6784.got.cif
#   From: 2010.05.17/outbox.cif.g08.bks.cpg/sg132_4_cif.got.tgz:6784.got - 2010.05.20 12:30:18.
