data_PCOD9566730
_publ_section_title
;
Structure prediction by ZEFSAII (Michael W. Deem and Ramdas Pophale) SiO2 
 PCOD9566730
Probable space group: P 42/M M C
;
_chemical_formula_sum "Si O2"
_cell_formula_units_Z 96
_cell_length_a 24.685715
_cell_length_b 24.685715
_cell_length_c 8.832644
_cell_angle_alpha 90.000000
_cell_angle_beta 90.000000
_cell_angle_gamma 90.000000
_cell_volume 5382.476569
_symmetry_space_group_name_H-M "P 42/M M C"
_symmetry_group_IT_number 131
_symmetry_cell_setting 'tetragonal'
loop_
_space_group_symop_operation_xyz
x,y,z
-x,-y,z
-y,x,1/2+z
y,-x,1/2+z
-x,y,-z
x,-y,-z
y,x,1/2-z
-y,-x,1/2-z
-x,-y,-z
x,y,-z
y,-x,1/2-z
-y,x,1/2-z
x,-y,z
-x,y,z
-y,-x,1/2+z
y,x,1/2+z
loop_
_atom_site_type_symbol
_atom_site_label
_atom_site_fract_x
_atom_site_fract_y
_atom_site_fract_z
Si Si1 0.060802 0.435274 0.678339
Si Si2 0.647175 0.730844 0.317066
Si Si3 0.938633 0.269506 0.682283
Si Si4 0.646853 0.436105 0.681935
Si Si5 0.856958 0.354593 0.180517
Si Si6 0.939476 0.143677 0.318027
O O1 0.064076 0.421072 0.500000
O O2 0.064414 0.500000 0.690641
O O3 0.109406 0.406613 0.764023
O O4 0.000000 0.419406 0.730907
O O5 0.699115 0.699115 0.250000
O O6 0.647821 0.726995 0.500000
O O7 0.595438 0.698151 0.252822
O O8 0.645898 0.794002 0.271999
O O9 0.936231 0.273928 0.500000
O O10 0.891759 0.305135 0.753507
O O11 0.931875 0.206541 0.723349
O O12 0.000000 0.286023 0.727603
O O13 0.594521 0.405480 0.750000
O O14 0.647402 0.429245 0.500000
O O15 0.647220 0.500000 0.716140
O O16 0.857616 0.352275 0.000000
O O17 0.894417 0.105584 0.250000
O O18 0.937746 0.140937 0.500000
O O19 0.000000 0.127201 0.268929
#
# Coordination Sequence:
#
# PCOD9566730 Si02
#       6
#    16  16  16  16  16  16
#     4   9  19  36  56  78 106 141 179 216 255 304
#     4  10  22  39  56  76 106 142 178 218 264 311
#     4   9  19  36  55  74 100 136 175 215 261 313
#     4  10  21  37  59  86 113 143 179 217 258 304
#     4  11  23  35  52  81 109 135 173 219 266 315
#     4   9  19  35  53  75 103 134 170 212 259 313
#
# _framework density 17.835656
#
# number of rings (size 3 to 8) (size 9 to 14) (size 15 to 20)
#    0.000    2.333    0.000    4.500    0.000    9.667 
#    0.000   10.833    0.000    0.000    0.000    0.000 
#    0.000    0.000    0.000    0.000    0.000    0.000 
#
# Total GULP energy -535708.828820 kJ/mol
# GULP energy per Si atom -5580.300300 kJ/mol
# Density = 1.779506 g / cm^3
# Si number density = 17.835656 Si / 1000 Ang^3
#
#
#
# Elastic Constant Matrix: (Units=GPa)
#
#
# Indices 1 2 3 4 5 6 
#
# 1 154.7053 89.2624 50.4240 0.0000 0.0000 0.0000
# 2 89.2624 154.6983 50.4259 0.0000 0.0000 0.0000
# 3 50.4240 50.4259 48.1758 0.0000 0.0000 0.0000
# 4 0.0000 0.0000 0.0000 37.1634 0.0000 0.0000
# 5 0.0000 0.0000 0.0000 0.0000 37.1626 0.0000
# 6 0.0000 0.0000 0.0000 0.0000 0.0000 23.0243
#
#
#
# Elastic Compliance Matrix: (Units=1/GPa)
#
#
# Indices 1 2 3 4 5 6 
#
# 1 0.011253 -0.004028 -0.007561 0.000000 0.000000 0.000000
# 2 -0.004028 0.011254 -0.007563 0.000000 0.000000 0.000000
# 3 -0.007561 -0.007563 0.036588 0.000000 0.000000 0.000000
# 4 0.000000 0.000000 0.000000 0.026908 0.000000 0.000000
# 5 0.000000 0.000000 0.000000 0.000000 0.026909 0.000000
# 6 0.000000 0.000000 0.000000 0.000000 0.000000 0.043432
#
#
# Mechanical properties :
#
#
# Convention : Reuss Voigt Hill
#
# Bulk Modulus (GPa) = 48.10282 81.97822 65.04052
# Shear Modulus (GPa) = 24.80411 30.63454 27.71932
#
# Velocity S-wave (km/s) = 3.73326 4.14889 3.94655
# Velocity P-wave (km/s) = 6.75363 8.30746 7.57052
#
# Compressibility (1/GPa) = 0.02078880
#
# Stress axis : x y z
#
# Youngs Moduli (GPa) = 88.86830 88.85870 27.33116
#
# Poissons Ratio (x) = 0.35793 0.20666
# Poissons Ratio (y) = 0.35797 0.20672
# Poissons Ratio (z) = 0.67198 0.67207
#
# Static dielectric constant tensor:
#      x y z
#    x 1.601770 0.000000 0.000000 
#    y 0.000000 1.601780 0.000000 
#    z 0.000000 0.000000 1.600420 
# 
# From -- ./inp_files/2296.got.cif
#   From: 2010.05.17/outbox.cif.g08.bks.cpg/sg131_2_cif.got.tgz:2296.got - 2010.05.20 12:21:01.
