data_PCOD9566911
_publ_section_title
;
Structure prediction by ZEFSAII (Michael W. Deem and Ramdas Pophale) SiO2 
 PCOD9566911
Probable space group: P 42/M M C
;
_chemical_formula_sum "Si O2"
_cell_formula_units_Z 120
_cell_length_a 27.000000
_cell_length_b 27.000000
_cell_length_c 9.000000
_cell_angle_alpha 90.000000
_cell_angle_beta 90.000000
_cell_angle_gamma 90.000000
_cell_volume 6561.000000
_symmetry_space_group_name_H-M "P 42/M M C"
_symmetry_group_IT_number 131
_symmetry_cell_setting 'tetragonal'
loop_
_space_group_symop_operation_xyz
x,y,z
-x,-y,z
-y,x,1/2+z
y,-x,1/2+z
-x,y,-z
x,-y,-z
y,x,1/2-z
-y,-x,1/2-z
-x,-y,-z
x,y,-z
y,-x,1/2-z
-y,x,1/2-z
x,-y,z
-x,y,z
-y,-x,1/2+z
y,x,1/2+z
loop_
_atom_site_type_symbol
_atom_site_label
_atom_site_fract_x
_atom_site_fract_y
_atom_site_fract_z
Si Si1 0.691943 0.101169 0.324374
Si Si2 0.781862 0.941368 0.835699
Si Si3 0.227557 0.558623 0.322374
Si Si4 0.944071 0.500000 0.318726
Si Si5 0.365502 0.706215 0.322402
Si Si6 0.123276 0.941064 0.333955
Si Si7 0.119559 0.593068 0.321432
Si Si8 0.282422 0.212993 0.323206
O O1 0.685518 0.098149 0.500000
O O2 0.735296 0.066780 0.268300
O O3 0.641104 0.093366 0.240920
O O4 0.706764 0.157149 0.282307
O O5 0.830720 0.920383 0.758944
O O6 0.789624 0.000000 0.849498
O O7 0.773306 0.920627 0.000000
O O8 0.232193 0.566356 0.500000
O O9 0.223213 0.500000 0.296745
O O10 0.274081 0.582909 0.240850
O O11 0.176251 0.584485 0.271304
O O12 0.945098 0.500000 0.500000
O O13 0.913092 0.452845 0.272251
O O14 0.000000 0.500000 0.265414
O O15 0.343275 0.656725 0.250000
O O16 0.366324 0.702115 0.500000
O O17 0.326708 0.749968 0.278388
O O18 0.074021 0.925980 0.250000
O O19 0.123685 0.921126 0.500000
O O20 0.127574 0.000000 0.341428
O O21 0.120964 0.594656 0.500000
O O22 0.233082 0.233082 0.250000
O O23 0.278397 0.216112 0.500000
#
# Coordination Sequence:
#
# PCOD9566911 Si02
#       8
#    16  16  16   8  16  16  16  16
#     4  11  22  36  53  77 107 138 175 222 273 328
#     4  10  22  40  59  78 101 134 177 221 267 321
#     4  10  19  32  52  78 109 146 189 231 276 328
#     4   9  18  34  55  77 101 131 173 229 286 337
#     4  10  19  33  51  75 107 143 182 221 269 322
#     4  10  21  38  61  88 117 148 180 217 265 321
#     4  10  19  33  53  77 103 137 181 230 280 334
#     4   9  19  32  47  70 100 133 169 207 252 307
#
# _framework density 18.289895000000001
#
# number of rings (size 3 to 8) (size 9 to 14) (size 15 to 20)
#    0.000    2.067    2.000    1.600    0.000    4.667 
#    0.000    3.667    0.000    0.400    0.000    0.000 
#    0.000    0.267    0.000    2.800    0.000    1.200 
#
# Total GULP energy -668838.022412 kJ/mol
# GULP energy per Si atom -5573.650187 kJ/mol
# Density = 1.824827 g / cm^3
# Si number density = 18.289895 Si / 1000 Ang^3
#
#
#
# Elastic Constant Matrix: (Units=GPa)
#
#
# Indices 1 2 3 4 5 6 
#
# 1 32.3423 24.8814 20.1376 0.0000 0.0000 0.0000
# 2 24.8814 32.3261 20.1390 0.0000 0.0000 0.0000
# 3 20.1376 20.1390 -3.4040 0.0000 0.0000 0.0000
# 4 0.0000 0.0000 0.0000 18.4352 0.0000 0.0000
# 5 0.0000 0.0000 0.0000 0.0000 18.4355 0.0000
# 6 0.0000 0.0000 0.0000 0.0000 0.0000 18.8293
#
#
#
# Elastic Compliance Matrix: (Units=1/GPa)
#
#
# Indices 1 2 3 4 5 6 
#
# 1 0.068781 -0.065396 0.019993 0.000000 0.000000 0.000000
# 2 -0.065396 0.068780 0.020048 0.000000 0.000000 0.000000
# 3 0.019993 0.020048 -0.056882 0.000000 0.000000 0.000000
# 4 0.000000 0.000000 0.000000 0.054244 0.000000 0.000000
# 5 0.000000 0.000000 0.000000 0.000000 0.054243 0.000000
# 6 0.000000 0.000000 0.000000 0.000000 0.000000 0.053109
#
#
# Mechanical properties :
#
#
# Convention : Reuss Voigt Hill
#
# Bulk Modulus (GPa) = 33.36680 21.28671 27.32675
# Shear Modulus (GPa) = 16.50303 10.88043 13.69173
#
# Velocity S-wave (km/s) = 3.00709 2.44168 2.73902
# Velocity P-wave (km/s) = 5.50815 4.42864 4.99763
#
# Compressibility (1/GPa) = 0.02996991
#
# Stress axis : x y z
#
# Youngs Moduli (GPa) = 14.53893 14.53902 -17.58030
#
# Poissons Ratio (x) = 0.95080 0.35149
# Poissons Ratio (y) = 0.95079 0.35246
# Poissons Ratio (z) = -0.29068 -0.29148
#
# Static dielectric constant tensor:
#      x y z
#    x 1.642430 0.000000 0.000000 
#    y 0.000000 1.642430 0.000000 
#    z 0.000000 0.000000 1.623340 
# 
# From -- ./inp_files/2665.got.cif
#   From: 2010.05.17/outbox.ucp.g08.bks.cvg/sg131_2_cif.got.tgz:2665.got - 2010.06.11 11:38:44.
