data_PCOD9566532
_publ_section_title
;
Structure prediction by ZEFSAII (Michael W. Deem and Ramdas Pophale) SiO2 
 PCOD9566532
Probable space group: P 42/M M C
;
_chemical_formula_sum "Si O2"
_cell_formula_units_Z 112
_cell_length_a 14.354470
_cell_length_b 14.354470
_cell_length_c 25.928617
_cell_angle_alpha 90.000000
_cell_angle_beta 90.000000
_cell_angle_gamma 90.000000
_cell_volume 5342.612509
_symmetry_space_group_name_H-M "P 42/M M C"
_symmetry_group_IT_number 131
_symmetry_cell_setting 'tetragonal'
loop_
_space_group_symop_operation_xyz
x,y,z
-x,-y,z
-y,x,1/2+z
y,-x,1/2+z
-x,y,-z
x,-y,-z
y,x,1/2-z
-y,-x,1/2-z
-x,-y,-z
x,y,-z
y,-x,1/2-z
-y,x,1/2-z
x,-y,z
-x,y,z
-y,-x,1/2+z
y,x,1/2+z
loop_
_atom_site_type_symbol
_atom_site_label
_atom_site_fract_x
_atom_site_fract_y
_atom_site_fract_z
Si Si1 0.364143 0.893939 0.160332
Si Si2 0.197167 0.696180 0.558260
Si Si3 0.607577 0.223685 0.440111
Si Si4 0.394687 0.240428 0.254766
Si Si5 0.895327 0.849193 0.694231
Si Si6 0.897441 0.113745 0.083987
Si Si7 0.612399 0.897108 0.342854
O O1 0.363684 0.852747 0.102572
O O2 0.400369 0.822446 0.203246
O O3 0.255970 0.900114 0.175119
O O4 0.400205 0.000000 0.163255
O O5 0.181062 0.662586 0.500000
O O6 0.308586 0.703425 0.568078
O O7 0.158600 0.803558 0.561125
O O8 0.613181 0.194666 0.500000
O O9 0.500000 0.255290 0.430889
O O10 0.627182 0.140675 0.400238
O O11 0.328087 0.328087 0.250000
O O12 0.500000 0.268752 0.268515
O O13 0.354323 0.176017 0.300614
O O14 0.850591 0.850591 0.750000
O O15 0.855069 0.899215 0.644066
O O16 0.000000 0.885555 0.701857
O O17 0.000000 0.135296 0.061645
O O18 0.886810 0.000000 0.082596
O O19 0.500000 0.901242 0.335811
O O20 0.649503 0.000000 0.333970
#
# Coordination Sequence:
#
# PCOD9566532 Si02
#       7
#    16  16  16  16  16  16  16
#     4  10  21  36  55  82 114 148 190 240 296 355
#     4  10  20  34  52  74 105 148 199 253 308 363
#     4   9  18  32  50  75 111 155 201 248 295 346
#     4  11  23  40  63  89 119 154 193 240 294 353
#     4   9  16  26  42  65  96 135 178 225 277 335
#     4   9  18  30  42  61  92 132 183 241 299 363
#     4   9  18  33  54  81 114 152 190 229 281 347
#
# _framework density 20.963526999999999
#
# number of rings (size 3 to 8) (size 9 to 14) (size 15 to 20)
#    0.000    2.429    0.000    3.429    0.000    5.143 
#    0.000    3.571    0.000    0.429    0.000    1.000 
#    0.000    3.714    0.000   25.714    0.000    0.286 
#
# Total GULP energy -624898.746396 kJ/mol
# GULP energy per Si atom -5579.453093 kJ/mol
# Density = 2.091581 g / cm^3
# Si number density = 20.963527 Si / 1000 Ang^3
#
#
#
# Elastic Constant Matrix: (Units=GPa)
#
#
# Indices 1 2 3 4 5 6 
#
# 1 80.2914 29.8551 31.0461 0.0000 0.0000 0.0000
# 2 29.8551 80.2914 31.0461 0.0000 0.0000 0.0000
# 3 31.0461 31.0461 115.4809 0.0000 0.0000 0.0000
# 4 0.0000 0.0000 0.0000 11.0067 0.0000 0.0000
# 5 0.0000 0.0000 0.0000 0.0000 11.0067 0.0000
# 6 0.0000 0.0000 0.0000 0.0000 0.0000 9.6978
#
#
#
# Elastic Compliance Matrix: (Units=1/GPa)
#
#
# Indices 1 2 3 4 5 6 
#
# 1 0.015264 -0.004563 -0.002877 0.000000 0.000000 0.000000
# 2 -0.004563 0.015264 -0.002877 0.000000 0.000000 0.000000
# 3 -0.002877 -0.002877 0.010206 0.000000 0.000000 0.000000
# 4 0.000000 0.000000 0.000000 0.090854 0.000000 0.000000
# 5 0.000000 0.000000 0.000000 0.000000 0.090854 0.000000
# 6 0.000000 0.000000 0.000000 0.000000 0.000000 0.103116
#
#
# Mechanical properties :
#
#
# Convention : Reuss Voigt Hill
#
# Bulk Modulus (GPa) = 49.75057 51.10644 50.42851
# Shear Modulus (GPa) = 14.16869 18.61667 16.39268
#
# Velocity S-wave (km/s) = 2.60258 2.98325 2.79939
# Velocity P-wave (km/s) = 5.72841 6.02479 5.87847
#
# Compressibility (1/GPa) = 0.02010027
#
# Stress axis : x y z
#
# Youngs Moduli (GPa) = 65.51469 65.51469 97.97952
#
# Poissons Ratio (x) = 0.29896 0.28186
# Poissons Ratio (y) = 0.29896 0.28186
# Poissons Ratio (z) = 0.18847 0.18847
#
# Static dielectric constant tensor:
#      x y z
#    x 1.769900 0.000000 0.000000 
#    y 0.000000 1.769900 0.000000 
#    z 0.000000 0.000000 1.756810 
# 
# From -- ./inp_files/11307.got.cif
#   From: 2010.05.17/outbox.cif.g08.bks.cpg/sg131_6_cif.got.tgz:11307.got - 2010.05.20 12:21:01.
