data_PCOD9566115
_publ_section_title
;
Structure prediction by ZEFSAII (Michael W. Deem and Ramdas Pophale) SiO2 
 PCOD9566115
Probable space group: P 42/M M C
;
_chemical_formula_sum "Si O2"
_cell_formula_units_Z 112
_cell_length_a 18.626911
_cell_length_b 18.626911
_cell_length_c 18.672451
_cell_angle_alpha 90.000000
_cell_angle_beta 90.000000
_cell_angle_gamma 90.000000
_cell_volume 6478.627460
_symmetry_space_group_name_H-M "P 42/M M C"
_symmetry_group_IT_number 131
_symmetry_cell_setting 'tetragonal'
loop_
_space_group_symop_operation_xyz
x,y,z
-x,-y,z
-y,x,1/2+z
y,-x,1/2+z
-x,y,-z
x,-y,-z
y,x,1/2-z
-y,-x,1/2-z
-x,-y,-z
x,y,-z
y,-x,1/2-z
-y,x,1/2-z
x,-y,z
-x,y,z
-y,-x,1/2+z
y,x,1/2+z
loop_
_atom_site_type_symbol
_atom_site_label
_atom_site_fract_x
_atom_site_fract_y
_atom_site_fract_z
Si Si1 0.146802 0.208595 0.583101
Si Si2 0.284147 0.686145 0.581765
Si Si3 0.579889 0.767561 0.356854
Si Si4 0.416218 0.208927 0.808680
Si Si5 0.696258 0.082772 0.799610
Si Si6 0.082602 0.225421 0.847056
Si Si7 0.919568 0.379454 0.915492
O O1 0.126779 0.200090 0.500000
O O2 0.221171 0.254055 0.586071
O O3 0.091841 0.254414 0.630455
O O4 0.164998 0.134077 0.621902
O O5 0.287457 0.660756 0.500000
O O6 0.357707 0.724623 0.603704
O O7 0.260961 0.623455 0.635598
O O8 0.500000 0.743612 0.377436
O O9 0.589167 0.760359 0.271680
O O10 0.586554 0.852263 0.375375
O O11 0.500000 0.198478 0.825472
O O12 0.371793 0.134506 0.807996
O O13 0.742751 0.106314 0.730025
O O14 0.676062 0.000000 0.787909
O O15 0.084729 0.294241 0.899916
O O16 0.000000 0.202016 0.840595
O O17 0.000000 0.402604 0.892500
O O18 0.912781 0.393165 0.000000
#
# Coordination Sequence:
#
# PCOD9566115 Si02
#       7
#    16  16  16  16  16  16  16
#     4  10  19  32  52  75 102 138 178 223 269 309
#     4  10  20  35  54  76 104 137 177 223 266 310
#     4  11  21  33  53  79 109 144 178 213 257 311
#     4  10  21  36  56  80 105 138 178 218 262 316
#     4  10  20  34  53  78 107 138 175 218 266 318
#     4  10  18  30  51  77 104 139 179 215 252 303
#     4  10  19  30  45  71 110 148 178 209 247 297
#
# _framework density 17.287613
#
# number of rings (size 3 to 8) (size 9 to 14) (size 15 to 20)
#    0.000    1.857    2.857    1.714    0.000    5.429 
#    0.000    2.143    0.000    0.857    0.000   10.000 
#    0.000    0.000    0.000    0.000    0.000    0.000 
#
# Total GULP energy -625058.298541 kJ/mol
# GULP energy per Si atom -5580.877666 kJ/mol
# Density = 1.724827 g / cm^3
# Si number density = 17.287613 Si / 1000 Ang^3
#
#
#
# Elastic Constant Matrix: (Units=GPa)
#
#
# Indices 1 2 3 4 5 6 
#
# 1 46.6642 8.8410 33.6611 0.0000 0.0000 0.0000
# 2 8.8410 46.6642 33.6611 0.0000 0.0000 0.0000
# 3 33.6611 33.6611 103.0363 0.0000 0.0000 0.0000
# 4 0.0000 0.0000 0.0000 15.0484 0.0000 0.0000
# 5 0.0000 0.0000 0.0000 0.0000 15.0484 0.0000
# 6 0.0000 0.0000 0.0000 0.0000 0.0000 10.7176
#
#
#
# Elastic Compliance Matrix: (Units=1/GPa)
#
#
# Indices 1 2 3 4 5 6 
#
# 1 0.028140 0.001701 -0.009749 0.000000 0.000000 0.000000
# 2 0.001701 0.028140 -0.009749 0.000000 0.000000 0.000000
# 3 -0.009749 -0.009749 0.016075 0.000000 0.000000 0.000000
# 4 0.000000 0.000000 0.000000 0.066452 0.000000 0.000000
# 5 0.000000 0.000000 0.000000 0.000000 0.066452 0.000000
# 6 0.000000 0.000000 0.000000 0.000000 0.000000 0.093304
#
#
# Mechanical properties :
#
#
# Convention : Reuss Voigt Hill
#
# Bulk Modulus (GPa) = 27.20257 38.74345 32.97301
# Shear Modulus (GPa) = 14.43379 16.17632 15.30505
#
# Velocity S-wave (km/s) = 2.89263 3.06227 2.97866
# Velocity P-wave (km/s) = 5.18902 5.91296 5.56278
#
# Compressibility (1/GPa) = 0.03676123
#
# Stress axis : x y z
#
# Youngs Moduli (GPa) = 35.53715 35.53715 62.20882
#
# Poissons Ratio (x) = -0.06044 0.60645
# Poissons Ratio (y) = -0.06044 0.60645
# Poissons Ratio (z) = 0.34644 0.34644
#
# Static dielectric constant tensor:
#      x y z
#    x 1.578730 0.000000 0.000000 
#    y 0.000000 1.578730 0.000000 
#    z 0.000000 0.000000 1.596110 
# 
# From -- ./inp_files/10028.got.cif
#   From: 2010.05.17/outbox.cif.g08.bks.cpg/sg131_6_cif.got.tgz:10028.got - 2010.05.20 12:21:01.
