data_PCOD9566636
_publ_section_title
;
Structure prediction by ZEFSAII (Michael W. Deem and Ramdas Pophale) SiO2 
 PCOD9566636
Probable space group: P 42/M M C
;
_chemical_formula_sum "Si O2"
_cell_formula_units_Z 112
_cell_length_a 14.898129
_cell_length_b 14.898129
_cell_length_c 23.055141
_cell_angle_alpha 90.000000
_cell_angle_beta 90.000000
_cell_angle_gamma 90.000000
_cell_volume 5117.186476
_symmetry_space_group_name_H-M "P 42/M M C"
_symmetry_group_IT_number 131
_symmetry_cell_setting 'tetragonal'
loop_
_space_group_symop_operation_xyz
x,y,z
-x,-y,z
-y,x,1/2+z
y,-x,1/2+z
-x,y,-z
x,-y,-z
y,x,1/2-z
-y,-x,1/2-z
-x,-y,-z
x,y,-z
y,-x,1/2-z
-y,x,1/2-z
x,-y,z
-x,y,z
-y,-x,1/2+z
y,x,1/2+z
loop_
_atom_site_type_symbol
_atom_site_label
_atom_site_fract_x
_atom_site_fract_y
_atom_site_fract_z
Si Si1 0.896216 0.365542 0.345636
Si Si2 0.899553 0.397303 0.160598
Si Si3 0.100203 0.157442 0.688048
Si Si4 0.100633 0.831781 0.063394
Si Si5 0.603489 0.245963 0.253229
Si Si6 0.341090 0.223308 0.564666
Si Si7 0.398843 0.748136 0.069597
O O1 0.899160 0.260912 0.330877
O O2 0.819020 0.402060 0.302676
O O3 0.848895 0.381996 0.407244
O O4 0.000000 0.397932 0.340205
O O5 0.907464 0.500000 0.180994
O O6 0.824087 0.353532 0.200530
O O7 0.850424 0.396891 0.099209
O O8 0.000000 0.358334 0.162138
O O9 0.149595 0.149595 0.750000
O O10 0.125864 0.108894 0.627444
O O11 0.000000 0.128067 0.702483
O O12 0.176291 0.756159 0.062231
O O13 0.000000 0.792751 0.061554
O O14 0.109893 0.881607 0.000000
O O15 0.668410 0.331591 0.250000
O O16 0.500000 0.270965 0.268736
O O17 0.377065 0.235164 0.500000
O O18 0.320118 0.321274 0.591396
O O19 0.500000 0.720649 0.085558
O O20 0.391523 0.748091 0.000000
#
# Coordination Sequence:
#
# PCOD9566636 Si02
#       7
#    16  16  16  16  16  16  16
#     4  11  23  38  60  89 121 161 205 253 316 383
#     4  10  22  39  61  92 127 162 202 255 322 390
#     4  11  24  39  57  85 121 165 215 267 322 383
#     4  10  21  37  59  86 116 160 215 266 321 384
#     4  11  24  42  65  92 124 163 207 258 317 383
#     4  10  20  37  60  87 121 161 207 259 318 384
#     4  10  21  38  61  88 120 161 210 264 318 376
#
# _framework density 21.887027
#
# number of rings (size 3 to 8) (size 9 to 14) (size 15 to 20)
#    0.000    1.571    1.429    3.000    2.000    4.571 
#    0.000    3.571    0.000    1.286    0.000    2.000 
#    0.000    0.286    0.000    0.000    0.000    0.143 
#
# Total GULP energy -623767.040509 kJ/mol
# GULP energy per Si atom -5569.348576 kJ/mol
# Density = 2.183721 g / cm^3
# Si number density = 21.887027 Si / 1000 Ang^3
#
#
#
# Elastic Constant Matrix: (Units=GPa)
#
#
# Indices 1 2 3 4 5 6 
#
# 1 119.5910 34.5273 28.4180 0.0000 0.0000 0.0000
# 2 34.5273 119.5896 28.4177 0.0000 0.0000 0.0000
# 3 28.4180 28.4177 84.7816 0.0000 0.0000 0.0000
# 4 0.0000 0.0000 0.0000 19.1146 0.0000 0.0000
# 5 0.0000 0.0000 0.0000 0.0000 19.1150 0.0000
# 6 0.0000 0.0000 0.0000 0.0000 0.0000 12.3158
#
#
#
# Elastic Compliance Matrix: (Units=1/GPa)
#
#
# Indices 1 2 3 4 5 6 
#
# 1 0.009580 -0.002176 -0.002482 0.000000 0.000000 0.000000
# 2 -0.002176 0.009580 -0.002482 0.000000 0.000000 0.000000
# 3 -0.002482 -0.002482 0.013459 0.000000 0.000000 0.000000
# 4 0.000000 0.000000 0.000000 0.052316 0.000000 0.000000
# 5 0.000000 0.000000 0.000000 0.000000 0.052315 0.000000
# 6 0.000000 0.000000 0.000000 0.000000 0.000000 0.081197
#
#
# Mechanical properties :
#
#
# Convention : Reuss Voigt Hill
#
# Bulk Modulus (GPa) = 54.52702 56.29867 55.41284
# Shear Modulus (GPa) = 20.93466 25.61568 23.27517
#
# Velocity S-wave (km/s) = 3.09607 3.42476 3.26455
# Velocity P-wave (km/s) = 6.14393 6.43560 6.29145
#
# Compressibility (1/GPa) = 0.01833953
#
# Stress axis : x y z
#
# Youngs Moduli (GPa) = 104.38622 104.38504 74.30163
#
# Poissons Ratio (x) = 0.22715 0.18439
# Poissons Ratio (y) = 0.22716 0.18439
# Poissons Ratio (z) = 0.25905 0.25905
#
# Static dielectric constant tensor:
#      x y z
#    x 1.827850 0.000000 0.000000 
#    y 0.000000 1.827850 0.000000 
#    z 0.000000 0.000000 1.952290 
# 
# From -- ./inp_files/11309.got.cif
#   From: 2010.05.17/outbox.cif.g08.bks.cpg/sg131_6_cif.got.tgz:11309.got - 2010.05.20 12:21:01.
