data_PCOD9566829
_publ_section_title
;
Structure prediction by ZEFSAII (Michael W. Deem and Ramdas Pophale) SiO2 
 PCOD9566829
Probable space group: P 42/M M C
;
_chemical_formula_sum "Si O2"
_cell_formula_units_Z 88
_cell_length_a 17.642378
_cell_length_b 17.642378
_cell_length_c 15.345904
_cell_angle_alpha 90.000000
_cell_angle_beta 90.000000
_cell_angle_gamma 90.000000
_cell_volume 4776.466354
_symmetry_space_group_name_H-M "P 42/M M C"
_symmetry_group_IT_number 131
_symmetry_cell_setting 'tetragonal'
loop_
_space_group_symop_operation_xyz
x,y,z
-x,-y,z
-y,x,1/2+z
y,-x,1/2+z
-x,y,-z
x,-y,-z
y,x,1/2-z
-y,-x,1/2-z
-x,-y,-z
x,y,-z
y,-x,1/2-z
-y,x,1/2-z
x,-y,z
-x,y,z
-y,-x,1/2+z
y,x,1/2+z
loop_
_atom_site_type_symbol
_atom_site_label
_atom_site_fract_x
_atom_site_fract_y
_atom_site_fract_z
Si Si1 0.336424 0.349794 0.354449
Si Si2 0.757506 0.500000 0.399857
Si Si3 0.912773 0.339713 0.779979
Si Si4 0.301304 0.500000 0.902643
Si Si5 0.246332 0.803098 0.599048
Si Si6 0.841951 0.500000 0.223657
Si Si7 0.086440 0.266523 0.598355
O O1 0.342246 0.342246 0.250000
O O2 0.293338 0.425612 0.382048
O O3 0.422035 0.346969 0.390450
O O4 0.288273 0.277681 0.387737
O O5 0.783566 0.500000 0.500000
O O6 0.821938 0.500000 0.326075
O O7 0.859660 0.281521 0.831126
O O8 0.886389 0.424289 0.799911
O O9 0.904796 0.325754 0.676392
O O10 0.000000 0.327920 0.803369
O O11 0.236332 0.500000 0.829743
O O12 0.267976 0.500000 0.000000
O O13 0.261292 0.828593 0.500000
O O14 0.156158 0.791177 0.609389
O O15 0.094368 0.298138 0.500000
O O16 0.000000 0.235682 0.605113
#
# Coordination Sequence:
#
# PCOD9566829 Si02
#       7
#    16   8  16   8  16   8  16
#     4  12  22  40  59  86 116 156 204 253 305 355
#     4  12  24  38  60  90 119 149 198 258 308 362
#     4  11  23  38  59  87 120 158 201 248 293 346
#     4  12  24  40  60  80 114 159 202 247 300 355
#     4  11  21  36  61  87 117 157 198 243 297 359
#     4  12  23  40  58  83 119 158 202 248 295 355
#     4   9  19  36  59  88 118 150 192 244 304 365
#
# _framework density 18.423662
#
# number of rings (size 3 to 8) (size 9 to 14) (size 15 to 20)
#    0.000    0.909    3.636    4.636    0.000    2.909 
#    0.000    1.818    0.000    4.909    0.000    5.091 
#    0.000    0.000    0.000    0.000    0.000    0.000 
#
# Total GULP energy -491615.832078 kJ/mol
# GULP energy per Si atom -5586.543546 kJ/mol
# Density = 1.838173 g / cm^3
# Si number density = 18.423662 Si / 1000 Ang^3
#
#
#
# Elastic Constant Matrix: (Units=GPa)
#
#
# Indices 1 2 3 4 5 6 
#
# 1 83.6226 22.5522 5.9255 0.0000 0.0000 0.0000
# 2 22.5522 83.6226 5.9255 0.0000 0.0000 0.0000
# 3 5.9255 5.9255 82.0429 0.0000 0.0000 0.0000
# 4 0.0000 0.0000 0.0000 15.5240 0.0000 0.0000
# 5 0.0000 0.0000 0.0000 0.0000 15.5240 0.0000
# 6 0.0000 0.0000 0.0000 0.0000 0.0000 -103.4525
#
#
#
# Elastic Compliance Matrix: (Units=1/GPa)
#
#
# Indices 1 2 3 4 5 6 
#
# 1 0.012935 -0.003440 -0.000686 0.000000 0.000000 0.000000
# 2 -0.003440 0.012935 -0.000686 0.000000 0.000000 0.000000
# 3 -0.000686 -0.000686 0.012288 0.000000 0.000000 0.000000
# 4 0.000000 0.000000 0.000000 0.064416 0.000000 0.000000
# 5 0.000000 0.000000 0.000000 0.000000 0.064416 0.000000
# 6 0.000000 0.000000 0.000000 0.000000 0.000000 -0.009666
#
#
# Mechanical properties :
#
#
# Convention : Reuss Voigt Hill
#
# Bulk Modulus (GPa) = 35.04506 35.34381 35.19444
# Shear Modulus (GPa) = 28.33533 -0.15524 14.09004
#
# Velocity S-wave (km/s) = 3.92597 -0.29060 2.76847
# Velocity P-wave (km/s) = 6.29397 4.37184 5.41881
#
# Compressibility (1/GPa) = 0.02853469
#
# Stress axis : x y z
#
# Youngs Moduli (GPa) = 77.31102 77.31102 81.38149
#
# Poissons Ratio (x) = 0.26593 0.05581
# Poissons Ratio (y) = 0.26593 0.05581
# Poissons Ratio (z) = 0.05302 0.05302
#
# Static dielectric constant tensor:
#      x y z
#    x 1.619690 0.000000 0.000000 
#    y 0.000000 1.619690 0.000000 
#    z 0.000000 0.000000 1.659450 
# 
# From -- ./inp_files/5929.got.cif
#   From: 2010.05.17/outbox.cif.g08.bks.cpg/sg131_3_cif.got.tgz:5929.got - 2010.05.20 12:21:01.
