data_PCOD9566377
_publ_section_title
;
Structure prediction by ZEFSAII (Michael W. Deem and Ramdas Pophale) SiO2 
 PCOD9566377
Probable space group: P 42/M M C
;
_chemical_formula_sum "Si O2"
_cell_formula_units_Z 88
_cell_length_a 17.753406
_cell_length_b 17.753406
_cell_length_c 14.475068
_cell_angle_alpha 90.000000
_cell_angle_beta 90.000000
_cell_angle_gamma 90.000000
_cell_volume 4562.301504
_symmetry_space_group_name_H-M "P 42/M M C"
_symmetry_group_IT_number 131
_symmetry_cell_setting 'tetragonal'
loop_
_space_group_symop_operation_xyz
x,y,z
-x,-y,z
-y,x,1/2+z
y,-x,1/2+z
-x,y,-z
x,-y,-z
y,x,1/2-z
-y,-x,1/2-z
-x,-y,-z
x,y,-z
y,-x,1/2-z
-y,x,1/2-z
x,-y,z
-x,y,z
-y,-x,1/2+z
y,x,1/2+z
loop_
_atom_site_type_symbol
_atom_site_label
_atom_site_fract_x
_atom_site_fract_y
_atom_site_fract_z
Si Si1 0.282431 0.500000 0.397969
Si Si2 0.500000 0.114460 0.392062
Si Si3 0.087321 0.713442 0.398251
Si Si4 0.338759 0.084079 0.306995
Si Si5 0.500000 0.270663 0.302486
Si Si6 0.657919 0.365352 0.899055
Si Si7 0.779898 0.759136 0.141524
O O1 0.244945 0.500000 0.500000
O O2 0.237609 0.500000 0.301461
O O3 0.334246 0.426142 0.392747
O O4 0.500000 0.095125 0.500000
O O5 0.423711 0.087668 0.343245
O O6 0.500000 0.203861 0.375894
O O7 0.094021 0.675597 0.500000
O O8 0.099523 0.665559 0.304106
O O9 0.155620 0.773828 0.395328
O O10 0.000000 0.741163 0.393005
O O11 0.287511 0.142872 0.363524
O O12 0.309043 0.000000 0.320385
O O13 0.425176 0.318584 0.322022
O O14 0.713471 0.293686 0.895770
O O15 0.666504 0.401847 0.000000
O O16 0.765778 0.765778 0.250000
#
# Coordination Sequence:
#
# PCOD9566377 Si02
#       7
#     8   8  16  16   8  16  16
#     4  10  24  39  55  82 114 145 189 246 294 337
#     4  12  25  40  57  82 118 159 196 241 293 339
#     4   9  19  37  61  89 119 151 190 240 297 351
#     4  10  22  39  60  88 121 156 198 243 285 342
#     4  12  22  38  59  81 112 150 195 238 287 348
#     4  11  22  37  57  83 112 149 194 240 290 341
#     4  10  19  34  58  85 116 153 194 238 286 343
#
# _framework density 19.288511
#
# number of rings (size 3 to 8) (size 9 to 14) (size 15 to 20)
#    0.000    1.636    1.818    3.273    2.545    1.818 
#    0.000    2.727    0.000    2.727    0.000    5.091 
#    0.000    0.000    0.000    0.000    0.000    0.000 
#
# Total GULP energy -490449.458324 kJ/mol
# GULP energy per Si atom -5573.289299 kJ/mol
# Density = 1.924461 g / cm^3
# Si number density = 19.288511 Si / 1000 Ang^3
#
#
#
# Elastic Constant Matrix: (Units=GPa)
#
#
# Indices 1 2 3 4 5 6 
#
# 1 113.5009 44.3927 32.4639 0.0000 0.0000 0.0000
# 2 44.3927 113.5009 32.4639 0.0000 0.0000 0.0000
# 3 32.4639 32.4639 132.7990 0.0000 0.0000 0.0000
# 4 0.0000 0.0000 0.0000 33.6581 0.0000 0.0000
# 5 0.0000 0.0000 0.0000 0.0000 33.6581 0.0000
# 6 0.0000 0.0000 0.0000 0.0000 0.0000 29.8073
#
#
#
# Elastic Compliance Matrix: (Units=1/GPa)
#
#
# Indices 1 2 3 4 5 6 
#
# 1 0.010756 -0.003714 -0.001721 0.000000 0.000000 0.000000
# 2 -0.003714 0.010756 -0.001721 0.000000 0.000000 0.000000
# 3 -0.001721 -0.001721 0.008372 0.000000 0.000000 0.000000
# 4 0.000000 0.000000 0.000000 0.029711 0.000000 0.000000
# 5 0.000000 0.000000 0.000000 0.000000 0.029711 0.000000
# 6 0.000000 0.000000 0.000000 0.000000 0.000000 0.033549
#
#
# Mechanical properties :
#
#
# Convention : Reuss Voigt Hill
#
# Bulk Modulus (GPa) = 64.23023 64.27133 64.25078
# Shear Modulus (GPa) = 35.12308 36.12339 35.62324
#
# Velocity S-wave (km/s) = 4.27187 4.33227 4.30218
# Velocity P-wave (km/s) = 7.59630 7.64318 7.61978
#
# Compressibility (1/GPa) = 0.01556899
#
# Stress axis : x y z
#
# Youngs Moduli (GPa) = 92.97458 92.97458 119.44941
#
# Poissons Ratio (x) = 0.34535 0.20561
# Poissons Ratio (y) = 0.34535 0.20561
# Poissons Ratio (z) = 0.16004 0.16004
#
# Static dielectric constant tensor:
#      x y z
#    x 1.674680 0.000000 0.000000 
#    y 0.000000 1.674680 0.000000 
#    z 0.000000 0.000000 1.731860 
# 
# From -- ./inp_files/5930.got.cif
#   From: 2010.05.17/outbox.cif.g08.bks.cpg/sg131_3_cif.got.tgz:5930.got - 2010.05.20 12:21:01.
