data_PCOD9566123
_publ_section_title
;
Structure prediction by ZEFSAII (Michael W. Deem and Ramdas Pophale) SiO2 
 PCOD9566123
Probable space group: P 42/M M C
;
_chemical_formula_sum "Si O2"
_cell_formula_units_Z 128
_cell_length_a 16.801403
_cell_length_b 16.801403
_cell_length_c 21.853641
_cell_angle_alpha 90.000000
_cell_angle_beta 90.000000
_cell_angle_gamma 90.000000
_cell_volume 6169.001877
_symmetry_space_group_name_H-M "P 42/M M C"
_symmetry_group_IT_number 131
_symmetry_cell_setting 'tetragonal'
loop_
_space_group_symop_operation_xyz
x,y,z
-x,-y,z
-y,x,1/2+z
y,-x,1/2+z
-x,y,-z
x,-y,-z
y,x,1/2-z
-y,-x,1/2-z
-x,-y,-z
x,y,-z
y,-x,1/2-z
-y,x,1/2-z
x,-y,z
-x,y,z
-y,-x,1/2+z
y,x,1/2+z
loop_
_atom_site_type_symbol
_atom_site_label
_atom_site_fract_x
_atom_site_fract_y
_atom_site_fract_z
Si Si1 0.618633 0.856043 0.758983
Si Si2 0.800279 0.087488 0.069205
Si Si3 0.412126 0.904131 0.619103
Si Si4 0.262027 0.406060 0.567661
Si Si5 0.626518 0.913408 0.887130
Si Si6 0.761039 0.909531 0.592706
Si Si7 0.089345 0.786467 0.237644
Si Si8 0.589576 0.681438 0.802819
O O1 0.593911 0.884036 0.691636
O O2 0.596784 0.909617 0.817167
O O3 0.714669 0.855648 0.759863
O O4 0.587114 0.770010 0.775456
O O5 0.722866 0.092711 0.111302
O O6 0.856011 0.164601 0.072705
O O7 0.839415 0.000000 0.080063
O O8 0.768446 0.085914 0.000000
O O9 0.500000 0.877070 0.597241
O O10 0.329879 0.877204 0.586036
O O11 0.409937 0.000000 0.614181
O O12 0.280119 0.372049 0.500000
O O13 0.280910 0.500000 0.566276
O O14 0.167053 0.400544 0.579665
O O15 0.306709 0.373420 0.628682
O O16 0.605411 0.000000 0.913619
O O17 0.773212 0.915380 0.665400
O O18 0.765654 0.000000 0.568384
O O19 0.129680 0.870321 0.250000
O O20 0.000000 0.779717 0.262674
O O21 0.632817 0.632817 0.750000
O O22 0.500000 0.650453 0.810316
#
# Coordination Sequence:
#
# PCOD9566123 Si02
#       8
#    16  16  16  16  16  16  16  16
#     4  10  18  31  49  74 104 136 174 216 266 323
#     4  10  21  35  50  69  95 131 177 229 281 327
#     4   9  17  30  49  73 103 136 167 207 264 329
#     4   9  19  35  53  76 110 150 185 217 262 323
#     4  10  19  31  49  74 105 141 183 228 265 305
#     4   9  19  33  48  68  93 126 171 220 273 335
#     4  10  19  30  45  67  98 135 172 213 266 327
#     4  10  21  36  56  82 109 139 178 225 275 328
#
# _framework density 20.748899000000002
#
# number of rings (size 3 to 8) (size 9 to 14) (size 15 to 20)
#    0.000    2.375    0.000    3.750    0.000    6.750 
#    0.000    2.500    0.000    0.750    0.000    3.500 
#    0.000    8.000    0.000    0.375    0.000    1.125 
#
# Total GULP energy -713071.411590 kJ/mol
# GULP energy per Si atom -5570.870403 kJ/mol
# Density = 2.070167 g / cm^3
# Si number density = 20.748899 Si / 1000 Ang^3
#
#
#
# Elastic Constant Matrix: (Units=GPa)
#
#
# Indices 1 2 3 4 5 6 
#
# 1 78.7458 44.5374 26.1403 0.0000 0.0000 0.0000
# 2 44.5374 78.7413 26.1413 0.0000 0.0000 0.0000
# 3 26.1403 26.1413 102.3653 0.0000 0.0000 0.0000
# 4 0.0000 0.0000 0.0000 -2.6096 0.0000 0.0000
# 5 0.0000 0.0000 0.0000 0.0000 -2.6051 0.0000
# 6 0.0000 0.0000 0.0000 0.0000 0.0000 44.4032
#
#
#
# Elastic Compliance Matrix: (Units=1/GPa)
#
#
# Indices 1 2 3 4 5 6 
#
# 1 0.019165 -0.010069 -0.002323 0.000000 0.000000 0.000000
# 2 -0.010069 0.019166 -0.002323 0.000000 0.000000 0.000000
# 3 -0.002323 -0.002323 0.010955 0.000000 0.000000 0.000000
# 4 0.000000 0.000000 0.000000 -0.383194 0.000000 0.000000
# 5 0.000000 0.000000 0.000000 0.000000 -0.383858 0.000000
# 6 0.000000 0.000000 0.000000 0.000000 0.000000 0.022521
#
#
# Mechanical properties :
#
#
# Convention : Reuss Voigt Hill
#
# Bulk Modulus (GPa) = 50.36065 50.38780 50.37423
# Shear Modulus (GPa) = -7.58500 18.70657 5.56079
#
# Velocity S-wave (km/s) = -1.91404 3.00587 1.63886
# Velocity P-wave (km/s) = 4.40902 6.03194 5.28317
#
# Compressibility (1/GPa) = 0.01985677
#
# Stress axis : x y z
#
# Youngs Moduli (GPa) = 52.17864 52.17498 91.27938
#
# Poissons Ratio (x) = 0.52534 0.21201
# Poissons Ratio (y) = 0.52538 0.21207
# Poissons Ratio (z) = 0.12119 0.12122
#
# Static dielectric constant tensor:
#      x y z
#    x 1.761400 0.000000 0.000000 
#    y 0.000000 1.761400 0.000000 
#    z 0.000000 0.000000 1.780490 
# 
# From -- ./inp_files/11490.got.cif
#   From: 2010.05.17/outbox.cif.g08.bks.cpg/sg131_6_cif.got.tgz:11490.got - 2010.05.20 12:21:01.
