data_PCOD9566189
_publ_section_title
;
Structure prediction by ZEFSAII (Michael W. Deem and Ramdas Pophale) SiO2 
 PCOD9566189
Probable space group: P 42/M M C
;
_chemical_formula_sum "Si O2"
_cell_formula_units_Z 112
_cell_length_a 19.508706
_cell_length_b 19.508706
_cell_length_c 15.622248
_cell_angle_alpha 90.000000
_cell_angle_beta 90.000000
_cell_angle_gamma 90.000000
_cell_volume 5945.665270
_symmetry_space_group_name_H-M "P 42/M M C"
_symmetry_group_IT_number 131
_symmetry_cell_setting 'tetragonal'
loop_
_space_group_symop_operation_xyz
x,y,z
-x,-y,z
-y,x,1/2+z
y,-x,1/2+z
-x,y,-z
x,-y,-z
y,x,1/2-z
-y,-x,1/2-z
-x,-y,-z
x,y,-z
y,-x,1/2-z
-y,x,1/2-z
x,-y,z
-x,y,z
-y,-x,1/2+z
y,x,1/2+z
loop_
_atom_site_type_symbol
_atom_site_label
_atom_site_fract_x
_atom_site_fract_y
_atom_site_fract_z
Si Si1 0.210522 0.786529 0.895300
Si Si2 0.846939 0.577005 0.162890
Si Si3 0.284119 0.649110 0.100830
Si Si4 0.725457 0.924481 0.899983
Si Si5 0.920108 0.574490 0.657448
Si Si6 0.577417 0.579064 0.853416
Si Si7 0.923396 0.289980 0.898053
O O1 0.264409 0.726466 0.872934
O O2 0.234561 0.859997 0.862033
O O3 0.135628 0.761508 0.865994
O O4 0.209585 0.789135 0.000000
O O5 0.857169 0.500000 0.129642
O O6 0.768382 0.599534 0.150350
O O7 0.870616 0.577712 0.261229
O O8 0.893682 0.634227 0.118079
O O9 0.362079 0.627481 0.114959
O O10 0.267679 0.642567 0.000000
O O11 0.643925 0.910865 0.894790
O O12 0.738619 0.000000 0.862073
O O13 0.743746 0.927900 0.000000
O O14 0.910118 0.500000 0.614313
O O15 0.000000 0.575558 0.686696
O O16 0.579162 0.579162 0.750000
O O17 0.589465 0.500000 0.881104
O O18 0.500000 0.598406 0.879881
O O19 0.000000 0.282266 0.862175
O O20 0.927261 0.280074 0.000000
#
# Coordination Sequence:
#
# PCOD9566189 Si02
#       7
#    16  16  16  16  16  16  16
#     4   8  16  31  47  67  95 119 146 189 235 278
#     4  10  19  30  45  67  97 128 155 189 233 278
#     4  10  20  33  50  72  98 128 163 204 246 288
#     4   9  17  31  52  72  90 119 158 198 240 286
#     4   9  18  31  46  68  99 129 155 189 236 288
#     4   9  19  35  51  67  91 125 165 209 255 298
#     4   9  17  29  46  66  90 125 160 186 220 270
#
# _framework density 18.837253
#
# number of rings (size 3 to 8) (size 9 to 14) (size 15 to 20)
#    0.000    2.857    0.000    2.571    0.000    4.571 
#    0.000    7.143    0.000    3.000    0.000    3.000 
#    0.000    0.000    0.000    8.000    0.000   11.143 
#
# Total GULP energy -624167.995979 kJ/mol
# GULP energy per Si atom -5572.928536 kJ/mol
# Density = 1.879438 g / cm^3
# Si number density = 18.837253 Si / 1000 Ang^3
#
#
#
# Elastic Constant Matrix: (Units=GPa)
#
#
# Indices 1 2 3 4 5 6 
#
# 1 141.3650 93.3915 7.2919 0.0000 0.0000 0.0000
# 2 93.3915 141.3650 7.2919 0.0000 0.0000 0.0000
# 3 7.2919 7.2919 21.7644 0.0000 0.0000 0.0000
# 4 0.0000 0.0000 0.0000 0.3439 0.0000 0.0000
# 5 0.0000 0.0000 0.0000 0.0000 0.3439 0.0000
# 6 0.0000 0.0000 0.0000 0.0000 0.0000 19.7071
#
#
#
# Elastic Compliance Matrix: (Units=1/GPa)
#
#
# Indices 1 2 3 4 5 6 
#
# 1 0.012598 -0.008247 -0.001458 0.000000 0.000000 0.000000
# 2 -0.008247 0.012598 -0.001458 0.000000 0.000000 0.000000
# 3 -0.001458 -0.001458 0.046923 0.000000 0.000000 0.000000
# 4 0.000000 0.000000 0.000000 2.907603 0.000000 0.000000
# 5 0.000000 0.000000 0.000000 0.000000 2.907603 0.000000
# 6 0.000000 0.000000 0.000000 0.000000 0.000000 0.050743
#
#
# Mechanical properties :
#
#
# Convention : Reuss Voigt Hill
#
# Bulk Modulus (GPa) = 20.08283 57.82722 38.95502
# Shear Modulus (GPa) = 0.83654 17.18027 9.00840
#
# Velocity S-wave (km/s) = 0.66712 3.02327 2.18920
# Velocity P-wave (km/s) = 3.35824 6.55377 5.20719
#
# Compressibility (1/GPa) = 0.04979378
#
# Stress axis : x y z
#
# Youngs Moduli (GPa) = 79.38052 79.38052 21.31139
#
# Poissons Ratio (x) = 0.65467 0.03106
# Poissons Ratio (y) = 0.65467 0.03106
# Poissons Ratio (z) = 0.11570 0.11570
#
# Static dielectric constant tensor:
#      x y z
#    x 1.660940 0.000000 0.000000 
#    y 0.000000 1.660940 0.000000 
#    z 0.000000 0.000000 1.681100 
# 
# From -- ./inp_files/10082.got.cif
#   From: 2010.05.17/outbox.cif.g08.bks.cpg/sg131_6_cif.got.tgz:10082.got - 2010.05.20 12:21:01.
