data_PCOD9566065
_publ_section_title
;
Structure prediction by ZEFSAII (Michael W. Deem and Ramdas Pophale) SiO2 
 PCOD9566065
Probable space group: P 42/M M C
;
_chemical_formula_sum "Si O2"
_cell_formula_units_Z 128
_cell_length_a 22.447359
_cell_length_b 22.447359
_cell_length_c 18.489644
_cell_angle_alpha 90.000000
_cell_angle_beta 90.000000
_cell_angle_gamma 90.000000
_cell_volume 9316.634410
_symmetry_space_group_name_H-M "P 42/M M C"
_symmetry_group_IT_number 131
_symmetry_cell_setting 'tetragonal'
loop_
_space_group_symop_operation_xyz
x,y,z
-x,-y,z
-y,x,1/2+z
y,-x,1/2+z
-x,y,-z
x,-y,-z
y,x,1/2-z
-y,-x,1/2-z
-x,-y,-z
x,y,-z
y,-x,1/2-z
-y,x,1/2-z
x,-y,z
-x,y,z
-y,-x,1/2+z
y,x,1/2+z
loop_
_atom_site_type_symbol
_atom_site_label
_atom_site_fract_x
_atom_site_fract_y
_atom_site_fract_z
Si Si1 0.138305 0.931520 0.692137
Si Si2 0.677454 0.641291 0.583592
Si Si3 0.177965 0.677964 0.743374
Si Si4 0.569265 0.249633 0.200436
Si Si5 0.930735 0.250368 0.299563
Si Si6 0.177454 0.858710 0.916409
Si Si7 0.257423 0.757423 0.632680
Si Si8 0.638304 0.431521 0.192138
O O1 0.088107 0.911894 0.750000
O O2 0.199610 0.924819 0.737555
O O3 0.138903 0.885042 0.626476
O O4 0.131434 0.000000 0.670168
O O5 0.671906 0.624830 0.500000
O O6 0.721351 0.597588 0.628277
O O7 0.704943 0.707844 0.590294
O O8 0.614958 0.638903 0.626477
O O9 0.195462 0.610633 0.725717
O O10 0.110633 0.695461 0.725716
O O11 0.218762 0.718761 0.690255
O O12 0.199111 0.699112 0.822484
O O13 0.500000 0.235652 0.191095
O O14 0.575180 0.300393 0.262443
O O15 0.902413 0.221350 0.371721
O O16 0.000000 0.264349 0.308904
O O17 0.204944 0.792156 0.909706
O O18 0.171908 0.875172 0.000000
O O19 0.588104 0.411897 0.250000
O O20 0.631433 0.500000 0.170166
#
# Coordination Sequence:
#
# PCOD9566065 Si02
#       8
#    16  16  16  16  16  16  16  16
#     4   9  17  29  43  59  81 112 149 182 210 247
#     4  10  18  27  42  64  90 115 137 172 219 260
#     4   9  14  26  48  63  82 109 140 179 210 247
#     4   9  17  29  45  63  83 112 147 177 211 257
#     4   9  17  29  45  63  83 112 147 177 211 257
#     4  10  18  27  42  64  90 115 137 172 219 260
#     4   9  15  26  42  66  88 107 136 170 214 265
#     4   9  17  29  43  59  81 112 149 182 210 247
#
# _framework density 13.738866
#
# number of rings (size 3 to 8) (size 9 to 14) (size 15 to 20)
#    0.000    2.750    2.500    0.375    0.000    1.250 
#    0.000    0.000    0.000    0.375    0.000    7.000 
#    0.000    0.000    0.000    9.125    0.000    7.625 
#
# Total GULP energy -712685.393367 kJ/mol
# GULP energy per Si atom -5567.854636 kJ/mol
# Density = 1.370760 g / cm^3
# Si number density = 13.738866 Si / 1000 Ang^3
#
#
#
# Elastic Constant Matrix: (Units=GPa)
#
#
# Indices 1 2 3 4 5 6 
#
# 1 86.9670 52.8207 30.1426 0.0000 0.0000 0.0000
# 2 52.8207 86.9649 30.1421 0.0000 0.0000 0.0000
# 3 30.1426 30.1421 68.9636 0.0000 0.0000 0.0000
# 4 0.0000 0.0000 0.0000 9.9535 0.0000 0.0000
# 5 0.0000 0.0000 0.0000 0.0000 9.9537 0.0000
# 6 0.0000 0.0000 0.0000 0.0000 0.0000 12.8561
#
#
#
# Elastic Compliance Matrix: (Units=1/GPa)
#
#
# Indices 1 2 3 4 5 6 
#
# 1 0.019051 -0.010236 -0.003853 0.000000 0.000000 0.000000
# 2 -0.010236 0.019051 -0.003853 0.000000 0.000000 0.000000
# 3 -0.003853 -0.003853 0.017869 0.000000 0.000000 0.000000
# 4 0.000000 0.000000 0.000000 0.100467 0.000000 0.000000
# 5 0.000000 0.000000 0.000000 0.000000 0.100465 0.000000
# 6 0.000000 0.000000 0.000000 0.000000 0.000000 0.077784
#
#
# Mechanical properties :
#
#
# Convention : Reuss Voigt Hill
#
# Bulk Modulus (GPa) = 49.78264 52.12292 50.95278
# Shear Modulus (GPa) = 13.25326 15.20534 14.22930
#
# Velocity S-wave (km/s) = 3.10926 3.33038 3.22172
# Velocity P-wave (km/s) = 7.01452 7.26699 7.14187
#
# Compressibility (1/GPa) = 0.02008732
#
# Stress axis : x y z
#
# Youngs Moduli (GPa) = 52.49116 52.49004 55.96433
#
# Poissons Ratio (x) = 0.53727 0.21563
# Poissons Ratio (y) = 0.53728 0.21563
# Poissons Ratio (z) = 0.20225 0.20224
#
# Static dielectric constant tensor:
#      x y z
#    x 1.445250 0.000000 0.000000 
#    y 0.000000 1.445250 0.000000 
#    z 0.000000 0.000000 1.442150 
# 
# From -- ./inp_files/8419.got.cif
#   From: 2010.05.17/outbox.cif.g08.bks.cpg/sg131_5_cif.got.tgz:8419.got - 2010.05.20 12:21:01.
