data_PCOD9566406
_publ_section_title
;
Structure prediction by ZEFSAII (Michael W. Deem and Ramdas Pophale) SiO2 
 PCOD9566406
Probable space group: P 42/M M C
;
_chemical_formula_sum "Si O2"
_cell_formula_units_Z 72
_cell_length_a 14.103806
_cell_length_b 14.103806
_cell_length_c 20.753064
_cell_angle_alpha 90.000000
_cell_angle_beta 90.000000
_cell_angle_gamma 90.000000
_cell_volume 4128.144364
_symmetry_space_group_name_H-M "P 42/M M C"
_symmetry_group_IT_number 131
_symmetry_cell_setting 'tetragonal'
loop_
_space_group_symop_operation_xyz
x,y,z
-x,-y,z
-y,x,1/2+z
y,-x,1/2+z
-x,y,-z
x,-y,-z
y,x,1/2-z
-y,-x,1/2-z
-x,-y,-z
x,y,-z
y,-x,1/2-z
-y,x,1/2-z
x,-y,z
-x,y,z
-y,-x,1/2+z
y,x,1/2+z
loop_
_atom_site_type_symbol
_atom_site_label
_atom_site_fract_x
_atom_site_fract_y
_atom_site_fract_z
Si Si1 0.000000 0.394441 0.850038
Si Si2 0.337958 0.741994 0.855969
Si Si3 0.198520 0.000000 0.422536
Si Si4 0.798525 0.890855 0.922278
Si Si5 0.500000 0.613839 0.077846
Si Si6 0.801551 0.396549 0.218289
O O1 0.091566 0.388041 0.805170
O O2 0.000000 0.500000 0.880934
O O3 0.000000 0.306648 0.898550
O O4 0.283488 0.820415 0.898056
O O5 0.409633 0.672316 0.893959
O O6 0.258736 0.678774 0.820936
O O7 0.387354 0.791838 0.794881
O O8 0.147023 0.097325 0.401082
O O9 0.196531 0.000000 0.500000
O O10 0.785135 0.000000 0.901055
O O11 0.798260 0.890004 0.000000
O O12 0.500000 0.500000 0.095090
O O13 0.500000 0.618806 0.000000
O O14 0.764191 0.500000 0.199741
#
# Coordination Sequence:
#
# PCOD9566406 Si02
#       6
#     8  16   8  16   8  16
#     4  10  20  36  57  84 120 149 192 241 297 358
#     4  11  21  38  61  83 117 151 199 243 293 349
#     4  10  19  37  60  85 119 154 193 243 296 357
#     4  10  21  37  59  86 116 154 197 239 291 358
#     4  11  24  42  63  89 121 155 195 250 303 351
#     4  10  21  37  57  84 113 153 194 241 293 350
#
# _framework density 17.441251000000001
#
# number of rings (size 3 to 8) (size 9 to 14) (size 15 to 20)
#    0.000    1.667    3.333    1.667    1.556    1.556 
#    0.000    0.556    0.000    2.000    0.000    0.000 
#    0.000    0.000    0.000    0.000    0.000    0.000 
#
# Total GULP energy -401280.212888 kJ/mol
# GULP energy per Si atom -5573.336290 kJ/mol
# Density = 1.740155 g / cm^3
# Si number density = 17.441251 Si / 1000 Ang^3
#
#
#
# Elastic Constant Matrix: (Units=GPa)
#
#
# Indices 1 2 3 4 5 6 
#
# 1 123.7775 68.5325 34.3389 0.0000 0.0000 0.0000
# 2 68.5325 123.7775 34.3389 0.0000 0.0000 0.0000
# 3 34.3389 34.3389 50.6952 0.0000 0.0000 0.0000
# 4 0.0000 0.0000 0.0000 25.8283 0.0000 0.0000
# 5 0.0000 0.0000 0.0000 0.0000 25.8283 0.0000
# 6 0.0000 0.0000 0.0000 0.0000 0.0000 37.8474
#
#
#
# Elastic Compliance Matrix: (Units=1/GPa)
#
#
# Indices 1 2 3 4 5 6 
#
# 1 0.012480 -0.005621 -0.004646 0.000000 0.000000 0.000000
# 2 -0.005621 0.012480 -0.004646 0.000000 0.000000 0.000000
# 3 -0.004646 -0.004646 0.026020 0.000000 0.000000 0.000000
# 4 0.000000 0.000000 0.000000 0.038717 0.000000 0.000000
# 5 0.000000 0.000000 0.000000 0.000000 0.038717 0.000000
# 6 0.000000 0.000000 0.000000 0.000000 0.000000 0.026422
#
#
# Mechanical properties :
#
#
# Convention : Reuss Voigt Hill
#
# Bulk Modulus (GPa) = 47.27292 63.63008 55.45150
# Shear Modulus (GPa) = 26.08047 28.63680 27.35864
#
# Velocity S-wave (km/s) = 3.87115 4.05643 3.96487
# Velocity P-wave (km/s) = 6.86615 7.64861 7.26792
#
# Compressibility (1/GPa) = 0.02115376
#
# Stress axis : x y z
#
# Youngs Moduli (GPa) = 80.12708 80.12708 38.43210
#
# Poissons Ratio (x) = 0.45040 0.17856
# Poissons Ratio (y) = 0.45040 0.17856
# Poissons Ratio (z) = 0.37228 0.37228
#
# Static dielectric constant tensor:
#      x y z
#    x 1.605040 0.000000 0.000000 
#    y 0.000000 1.605040 0.000000 
#    z 0.000000 0.000000 1.564080 
# 
# From -- ./inp_files/7677.got.cif
#   From: 2010.05.17/outbox.cif.g08.bks.cpg/sg131_4_cif.got.tgz:7677.got - 2010.05.20 12:21:01.
