data_PCOD9566078
_publ_section_title
;
Structure prediction by ZEFSAII (Michael W. Deem and Ramdas Pophale) SiO2 
 PCOD9566078
Probable space group: P 42/M M C
;
_chemical_formula_sum "Si O2"
_cell_formula_units_Z 120
_cell_length_a 17.760422
_cell_length_b 17.760422
_cell_length_c 23.272175
_cell_angle_alpha 90.000000
_cell_angle_beta 90.000000
_cell_angle_gamma 90.000000
_cell_volume 7340.802426
_symmetry_space_group_name_H-M "P 42/M M C"
_symmetry_group_IT_number 131
_symmetry_cell_setting 'tetragonal'
loop_
_space_group_symop_operation_xyz
x,y,z
-x,-y,z
-y,x,1/2+z
y,-x,1/2+z
-x,y,-z
x,-y,-z
y,x,1/2-z
-y,-x,1/2-z
-x,-y,-z
x,y,-z
y,-x,1/2-z
-y,x,1/2-z
x,-y,z
-x,y,z
-y,-x,1/2+z
y,x,1/2+z
loop_
_atom_site_type_symbol
_atom_site_label
_atom_site_fract_x
_atom_site_fract_y
_atom_site_fract_z
Si Si1 0.415778 0.341489 0.067287
Si Si2 0.613864 0.187752 0.134181
Si Si3 0.294468 0.918645 0.340724
Si Si4 0.276361 0.584398 0.124848
Si Si5 0.240942 0.742562 0.818346
Si Si6 0.500000 0.086646 0.068188
Si Si7 0.415868 0.116472 0.567178
Si Si8 0.417381 0.914543 0.241019
O O1 0.500000 0.373345 0.070715
O O2 0.413010 0.267662 0.108188
O O3 0.352210 0.397388 0.090264
O O4 0.401952 0.321129 0.000000
O O5 0.701790 0.204160 0.146486
O O6 0.574927 0.128265 0.091334
O O7 0.587642 0.152292 0.194974
O O8 0.244782 0.844157 0.339400
O O9 0.349289 0.917327 0.395462
O O10 0.351416 0.909300 0.286946
O O11 0.256552 0.000000 0.336508
O O12 0.278809 0.500000 0.150677
O O13 0.262349 0.655055 0.167407
O O14 0.205483 0.585968 0.081701
O O15 0.246320 0.753681 0.750000
O O16 0.500000 0.000000 0.086878
O O17 0.500000 0.090379 0.000000
O O18 0.405756 0.103248 0.500000
O O19 0.500000 0.089891 0.583387
O O20 0.500000 0.909522 0.269072
O O21 0.412334 0.000000 0.215558
#
# Coordination Sequence:
#
# PCOD9566078 Si02
#       8
#    16  16  16  16  16   8  16  16
#     4  10  19  30  46  66  90 127 175 222 270 311
#     4  11  19  32  51  72 106 139 174 214 258 329
#     4  10  20  33  49  72 102 132 171 221 264 307
#     4   9  19  33  48  67  93 128 175 227 268 312
#     4  10  20  36  51  74 103 139 181 220 272 329
#     4  11  22  36  56  86 121 149 178 220 272 335
#     4   9  17  30  47  67  95 129 163 203 260 319
#     4  10  18  28  46  72 103 135 170 210 255 311
#
# _framework density 16.346986000000001
#
# number of rings (size 3 to 8) (size 9 to 14) (size 15 to 20)
#    0.000    2.067    2.667    1.600    0.000    2.667 
#    1.200    2.000    0.000    0.000    0.000    0.000 
#    0.000    4.533    0.000    1.467    0.000    0.000 
#
# Total GULP energy -668063.039963 kJ/mol
# GULP energy per Si atom -5567.192000 kJ/mol
# Density = 1.630978 g / cm^3
# Si number density = 16.346986 Si / 1000 Ang^3
#
#
#
# Elastic Constant Matrix: (Units=GPa)
#
#
# Indices 1 2 3 4 5 6 
#
# 1 93.9812 34.6069 17.2162 0.0000 0.0000 0.0000
# 2 34.6069 93.9811 17.2160 0.0000 0.0000 0.0000
# 3 17.2162 17.2160 63.2594 0.0000 0.0000 0.0000
# 4 0.0000 0.0000 0.0000 10.6589 0.0000 0.0000
# 5 0.0000 0.0000 0.0000 0.0000 10.6591 0.0000
# 6 0.0000 0.0000 0.0000 0.0000 0.0000 12.5935
#
#
#
# Elastic Compliance Matrix: (Units=1/GPa)
#
#
# Indices 1 2 3 4 5 6 
#
# 1 0.012615 -0.004227 -0.002283 0.000000 0.000000 0.000000
# 2 -0.004227 0.012615 -0.002283 0.000000 0.000000 0.000000
# 3 -0.002283 -0.002283 0.017050 0.000000 0.000000 0.000000
# 4 0.000000 0.000000 0.000000 0.093819 0.000000 0.000000
# 5 0.000000 0.000000 0.000000 0.000000 0.093816 0.000000
# 6 0.000000 0.000000 0.000000 0.000000 0.000000 0.079406
#
#
# Mechanical properties :
#
#
# Convention : Reuss Voigt Hill
#
# Bulk Modulus (GPa) = 40.49354 43.25556 41.87455
# Shear Modulus (GPa) = 14.91917 18.92780 16.92348
#
# Velocity S-wave (km/s) = 3.02430 3.40645 3.22105
# Velocity P-wave (km/s) = 6.08442 6.47998 6.28532
#
# Compressibility (1/GPa) = 0.02469530
#
# Stress axis : x y z
#
# Youngs Moduli (GPa) = 79.26954 79.26956 58.64938
#
# Poissons Ratio (x) = 0.33508 0.13389
# Poissons Ratio (y) = 0.33508 0.13388
# Poissons Ratio (z) = 0.18096 0.18096
#
# Static dielectric constant tensor:
#      x y z
#    x 1.564880 0.000000 0.000000 
#    y 0.000000 1.564880 0.000000 
#    z 0.000000 0.000000 1.553160 
# 
# From -- ./inp_files/11537.got.cif
#   From: 2010.05.17/outbox.cif.g08.bks.cpg/sg131_6_cif.got.tgz:11537.got - 2010.05.20 12:21:01.
