data_PCOD9566091
_publ_section_title
;
Structure prediction by ZEFSAII (Michael W. Deem and Ramdas Pophale) SiO2 
 PCOD9566091
Probable space group: P 42/M M C
;
_chemical_formula_sum "Si O2"
_cell_formula_units_Z 96
_cell_length_a 24.877130
_cell_length_b 24.877130
_cell_length_c 7.653247
_cell_angle_alpha 90.000000
_cell_angle_beta 90.000000
_cell_angle_gamma 90.000000
_cell_volume 4736.377193
_symmetry_space_group_name_H-M "P 42/M M C"
_symmetry_group_IT_number 131
_symmetry_cell_setting 'tetragonal'
loop_
_space_group_symop_operation_xyz
x,y,z
-x,-y,z
-y,x,1/2+z
y,-x,1/2+z
-x,y,-z
x,-y,-z
y,x,1/2-z
-y,-x,1/2-z
-x,-y,-z
x,y,-z
y,-x,1/2-z
-y,x,1/2-z
x,-y,z
-x,y,z
-y,-x,1/2+z
y,x,1/2+z
loop_
_atom_site_type_symbol
_atom_site_label
_atom_site_fract_x
_atom_site_fract_y
_atom_site_fract_z
Si Si1 0.940076 0.851491 0.792027
Si Si2 0.353936 0.145984 0.196052
Si Si3 0.728061 0.060755 0.794157
Si Si4 0.647019 0.558966 0.290865
Si Si5 0.437655 0.061380 0.290775
Si Si6 0.560994 0.229574 0.214028
O O1 0.894945 0.894945 0.750000
O O2 0.929573 0.791709 0.721070
O O3 0.000000 0.868008 0.730239
O O4 0.941883 0.846137 0.000000
O O5 0.305438 0.111364 0.280129
O O6 0.400378 0.101378 0.189544
O O7 0.387862 0.195116 0.277519
O O8 0.336797 0.162757 0.000000
O O9 0.717223 0.000000 0.722517
O O10 0.714202 0.058828 0.000000
O O11 0.606111 0.606111 0.250000
O O12 0.650279 0.556262 0.500000
O O13 0.628775 0.500000 0.226619
O O14 0.708404 0.567238 0.231377
O O15 0.431285 0.069354 0.500000
O O16 0.500000 0.069217 0.248895
O O17 0.423337 0.000000 0.251900
O O18 0.500000 0.211789 0.266537
O O19 0.561654 0.226535 0.000000
#
# Coordination Sequence:
#
# PCOD9566091 Si02
#       6
#    16  16  16  16  16  16
#     4  10  21  37  58  82 106 134 166 199 241 295
#     4  10  18  29  49  73  94 124 170 215 250 289
#     4   9  18  32  49  72 104 137 168 207 252 292
#     4   9  18  33  52  73  98 127 157 192 239 294
#     4   9  18  30  41  58  90 128 162 204 260 310
#     4   8  15  29  48  70  98 131 164 201 247 294
#
# _framework density 20.268654999999999
#
# number of rings (size 3 to 8) (size 9 to 14) (size 15 to 20)
#    0.000    2.833    0.000    3.000    0.000    4.333 
#    0.000    5.833    0.000    3.000    0.000    0.000 
#    0.000    0.000    0.000    0.000    0.000    0.000 
#
# Total GULP energy -534990.311380 kJ/mol
# GULP energy per Si atom -5572.815744 kJ/mol
# Density = 2.022252 g / cm^3
# Si number density = 20.268655 Si / 1000 Ang^3
#
#
#
# Elastic Constant Matrix: (Units=GPa)
#
#
# Indices 1 2 3 4 5 6 
#
# 1 956.1168 -750.5550 2.0178 0.0000 0.0000 0.0000
# 2 -750.5550 956.1168 2.0178 0.0000 0.0000 0.0000
# 3 2.0178 2.0178 34.3867 0.0000 0.0000 0.0000
# 4 0.0000 0.0000 0.0000 -3.1903 0.0000 0.0000
# 5 0.0000 0.0000 0.0000 0.0000 -3.1903 0.0000
# 6 0.0000 0.0000 0.0000 0.0000 0.0000 44.0734
#
#
#
# Elastic Compliance Matrix: (Units=1/GPa)
#
#
# Indices 1 2 3 4 5 6 
#
# 1 0.002728 0.002142 -0.000286 0.000000 0.000000 0.000000
# 2 0.002142 0.002728 -0.000286 0.000000 0.000000 0.000000
# 3 -0.000286 -0.000286 0.029115 0.000000 0.000000 0.000000
# 4 0.000000 0.000000 0.000000 -0.313446 0.000000 0.000000
# 5 0.000000 0.000000 0.000000 0.000000 -0.313446 0.000000
# 6 0.000000 0.000000 0.000000 0.000000 0.000000 0.022689
#
#
# Mechanical properties :
#
#
# Convention : Reuss Voigt Hill
#
# Bulk Modulus (GPa) = 26.51671 50.39794 38.45732
# Shear Modulus (GPa) = -8.92533 187.08119 89.07793
#
# Velocity S-wave (km/s) = -2.10073 9.61775 6.63657
# Velocity P-wave (km/s) = 2.68829 12.17595 8.81705
#
# Compressibility (1/GPa) = 0.03771207
#
# Stress axis : x y z
#
# Youngs Moduli (GPa) = 366.55108 366.55108 34.34704
#
# Poissons Ratio (x) = -0.78522 0.00982
# Poissons Ratio (y) = -0.78522 0.00982
# Poissons Ratio (z) = 0.10476 0.10476
#
# Static dielectric constant tensor:
#      x y z
#    x 1.736740 0.000000 0.000000 
#    y 0.000000 1.736740 0.000000 
#    z 0.000000 0.000000 1.763720 
# 
# From -- ./inp_files/2212.got.cif
#   From: 2010.05.17/outbox.cif.g08.bks.cpg/sg131_2_cif.got.tgz:2212.got - 2010.05.20 12:21:01.
