data_PCOD9566783
_publ_section_title
;
Structure prediction by ZEFSAII (Michael W. Deem and Ramdas Pophale) SiO2 
 PCOD9566783
Probable space group: P 42/M M C
;
_chemical_formula_sum "Si O2"
_cell_formula_units_Z 42
_cell_length_a 7.679144
_cell_length_b 7.679144
_cell_length_c 34.339404
_cell_angle_alpha 90.000000
_cell_angle_beta 90.000000
_cell_angle_gamma 90.000000
_cell_volume 2024.968988
_symmetry_space_group_name_H-M "P 42/M M C"
_symmetry_group_IT_number 131
_symmetry_cell_setting 'tetragonal'
loop_
_space_group_symop_operation_xyz
x,y,z
-x,-y,z
-y,x,1/2+z
y,-x,1/2+z
-x,y,-z
x,-y,-z
y,x,1/2-z
-y,-x,1/2-z
-x,-y,-z
x,y,-z
y,-x,1/2-z
-y,x,1/2-z
x,-y,z
-x,y,z
-y,-x,1/2+z
y,x,1/2+z
loop_
_atom_site_type_symbol
_atom_site_label
_atom_site_fract_x
_atom_site_fract_y
_atom_site_fract_z
Si Si1 0.190140 0.211953 0.372987
Si Si2 0.500000 0.500000 0.250000
Si Si3 0.291507 0.209201 0.457924
Si Si4 0.500000 0.788758 0.684798
O O1 0.219193 0.276542 0.417148
O O2 0.336012 0.259368 0.342271
O O3 0.000000 0.264421 0.359451
O O4 0.197270 0.000000 0.375404
O O5 0.328071 0.500000 0.223056
O O6 0.228886 0.276892 0.500000
O O7 0.500000 0.232751 0.456601
O O8 0.259640 0.000000 0.458376
O O9 0.500000 0.000000 0.691541
#
# Coordination Sequence:
#
# PCOD9566783 Si02
#       4
#    16   2  16   8
#     4   9  16  28  50  78 111 153 191 229 282 331
#     4  12  28  44  68  92 106 144 184 216 300 368
#     4   8  12  19  35  65 109 156 197 236 273 312
#     4  10  22  42  61  84 116 139 176 235 280 343
#
# _framework density 20.741060000000001
#
# number of rings (size 3 to 8) (size 9 to 14) (size 15 to 20)
#    0.000    3.048    1.905    1.143    0.000    2.286 
#    0.000    3.810    0.000    0.000    0.000    2.667 
#    0.000    3.048    0.000    0.381    0.000    0.000 
#
# Total GULP energy -234238.719810 kJ/mol
# GULP energy per Si atom -5577.112376 kJ/mol
# Density = 2.069385 g / cm^3
# Si number density = 20.741060 Si / 1000 Ang^3
#
#
#
# Elastic Constant Matrix: (Units=GPa)
#
#
# Indices 1 2 3 4 5 6 
#
# 1 80.7126 33.6376 71.4091 0.0000 0.0000 0.0000
# 2 33.6376 80.7126 71.4091 0.0000 0.0000 0.0000
# 3 71.4091 71.4091 180.8993 0.0000 0.0000 0.0000
# 4 0.0000 0.0000 0.0000 -44.9715 0.0000 0.0000
# 5 0.0000 0.0000 0.0000 0.0000 -44.9715 0.0000
# 6 0.0000 0.0000 0.0000 0.0000 0.0000 -2.4378
#
#
#
# Elastic Compliance Matrix: (Units=1/GPa)
#
#
# Indices 1 2 3 4 5 6 
#
# 1 0.019246 -0.001997 -0.006809 0.000000 0.000000 0.000000
# 2 -0.001997 0.019246 -0.006809 0.000000 0.000000 0.000000
# 3 -0.006809 -0.006809 0.010904 0.000000 0.000000 0.000000
# 4 0.000000 0.000000 0.000000 -0.022236 0.000000 0.000000
# 5 0.000000 0.000000 0.000000 0.000000 -0.022236 0.000000
# 6 0.000000 0.000000 0.000000 0.000000 0.000000 -0.410210
#
#
# Mechanical properties :
#
#
# Convention : Reuss Voigt Hill
#
# Bulk Modulus (GPa) = 55.04814 77.24848 66.14831
# Shear Modulus (GPa) = -13.58689 -7.41823 -10.50256
#
# Velocity S-wave (km/s) = -2.56221 -1.89324 -2.25270
# Velocity P-wave (km/s) = 4.22434 5.70491 5.01951
#
# Compressibility (1/GPa) = 0.01816592
#
# Stress axis : x y z
#
# Youngs Moduli (GPa) = 51.95883 51.95883 91.71253
#
# Poissons Ratio (x) = 0.10375 0.62448
# Poissons Ratio (y) = 0.10375 0.62448
# Poissons Ratio (z) = 0.35379 0.35379
#
# Static dielectric constant tensor:
#      x y z
#    x 1.764020 0.000000 0.000000 
#    y 0.000000 1.764020 0.000000 
#    z 0.000000 0.000000 1.724160 
# 
# From -- ./inp_files/11744.got.cif
#   From: 2010.05.17/outbox.cif.g08.bks.cpg/sg131_6_cif.got.tgz:11744.got - 2010.05.20 12:21:01.
