data_PCOD9566423
_publ_section_title
;
Structure prediction by ZEFSAII (Michael W. Deem and Ramdas Pophale) SiO2 
 PCOD9566423
Probable space group: P 42/M M C
;
_chemical_formula_sum "Si O2"
_cell_formula_units_Z 112
_cell_length_a 14.228680
_cell_length_b 14.228680
_cell_length_c 33.621888
_cell_angle_alpha 90.000000
_cell_angle_beta 90.000000
_cell_angle_gamma 90.000000
_cell_volume 6806.930583
_symmetry_space_group_name_H-M "P 42/M M C"
_symmetry_group_IT_number 131
_symmetry_cell_setting 'tetragonal'
loop_
_space_group_symop_operation_xyz
x,y,z
-x,-y,z
-y,x,1/2+z
y,-x,1/2+z
-x,y,-z
x,-y,-z
y,x,1/2-z
-y,-x,1/2-z
-x,-y,-z
x,y,-z
y,-x,1/2-z
-y,x,1/2-z
x,-y,z
-x,y,z
-y,-x,1/2+z
y,x,1/2+z
loop_
_atom_site_type_symbol
_atom_site_label
_atom_site_fract_x
_atom_site_fract_y
_atom_site_fract_z
Si Si1 0.293301 0.817048 0.224507
Si Si2 0.106704 0.113284 0.818895
Si Si3 0.394729 0.889931 0.298437
Si Si4 0.112519 0.609460 0.647987
Si Si5 0.113037 0.746079 0.045769
Si Si6 0.888925 0.792230 0.598763
Si Si7 0.113448 0.609926 0.884201
O O1 0.278490 0.721511 0.250000
O O2 0.190683 0.847193 0.208130
O O3 0.334698 0.881317 0.259099
O O4 0.361066 0.827798 0.186794
O O5 0.136955 0.133206 0.864411
O O6 0.000000 0.147076 0.810816
O O7 0.106941 0.000000 0.814011
O O8 0.500000 0.850662 0.292012
O O9 0.355223 0.852250 0.340616
O O10 0.404950 0.000000 0.305678
O O11 0.126366 0.500000 0.637681
O O12 0.134739 0.687104 0.614285
O O13 0.000000 0.621993 0.657429
O O14 0.170155 0.836468 0.060277
O O15 0.144687 0.667558 0.077581
O O16 0.000000 0.761177 0.049643
O O17 0.130880 0.721222 0.000000
O O18 0.000000 0.795024 0.592826
O O19 0.137833 0.500000 0.886556
O O20 0.000000 0.616242 0.885495
#
# Coordination Sequence:
#
# PCOD9566423 Si02
#       7
#    16  16  16  16  16  16  16
#     4  11  21  27  39  66  95 123 158 198 241 278
#     4   9  18  30  40  54  84 129 171 199 224 260
#     4   9  17  30  47  63  84 121 166 208 243 271
#     4   9  18  34  53  69  89 124 172 219 257 288
#     4  10  20  31  47  72 101 134 163 189 232 294
#     4   9  18  32  49  69  93 125 167 207 242 280
#     4   8  16  30  47  66  89 122 161 199 240 282
#
# _framework density 16.453818999999999
#
# number of rings (size 3 to 8) (size 9 to 14) (size 15 to 20)
#    0.000    2.714    0.000    3.857    4.000    4.286 
#    0.000    2.857    0.000    0.429    0.000    2.000 
#    0.000    7.429    0.000    1.286    0.000    0.143 
#
# Total GULP energy -623522.327460 kJ/mol
# GULP energy per Si atom -5567.163638 kJ/mol
# Density = 1.641637 g / cm^3
# Si number density = 16.453819 Si / 1000 Ang^3
#
#
#
# Elastic Constant Matrix: (Units=GPa)
#
#
# Indices 1 2 3 4 5 6 
#
# 1 46.8368 0.2982 10.8980 0.0000 0.0000 0.0000
# 2 0.2982 46.8378 10.8985 0.0000 0.0000 0.0000
# 3 10.8980 10.8985 67.4141 0.0000 0.0000 0.0000
# 4 0.0000 0.0000 0.0000 14.8460 0.0000 0.0000
# 5 0.0000 0.0000 0.0000 0.0000 14.8456 0.0000
# 6 0.0000 0.0000 0.0000 0.0000 0.0000 7.1215
#
#
#
# Elastic Compliance Matrix: (Units=1/GPa)
#
#
# Indices 1 2 3 4 5 6 
#
# 1 0.022209 0.000721 -0.003707 0.000000 0.000000 0.000000
# 2 0.000721 0.022208 -0.003707 0.000000 0.000000 0.000000
# 3 -0.003707 -0.003707 0.016032 0.000000 0.000000 0.000000
# 4 0.000000 0.000000 0.000000 0.067358 0.000000 0.000000
# 5 0.000000 0.000000 0.000000 0.000000 0.067360 0.000000
# 6 0.000000 0.000000 0.000000 0.000000 0.000000 0.140420
#
#
# Mechanical properties :
#
#
# Convention : Reuss Voigt Hill
#
# Bulk Modulus (GPa) = 21.24764 22.80866 22.02815
# Shear Modulus (GPa) = 13.71138 16.62888 15.17013
#
# Velocity S-wave (km/s) = 2.88987 3.18250 3.03971
# Velocity P-wave (km/s) = 4.90680 5.23419 5.07314
#
# Compressibility (1/GPa) = 0.04706405
#
# Stress axis : x y z
#
# Youngs Moduli (GPa) = 45.02752 45.02837 62.37457
#
# Poissons Ratio (x) = -0.03247 0.23121
# Poissons Ratio (y) = -0.03247 0.23121
# Poissons Ratio (z) = 0.16691 0.16691
#
# Static dielectric constant tensor:
#      x y z
#    x 1.598030 0.000000 0.000000 
#    y 0.000000 1.598030 0.000000 
#    z 0.000000 0.000000 1.578530 
# 
# From -- ./inp_files/13810.got.cif
#   From: 2010.05.17/outbox.cif.g08.bks.cpg/sg131_7_cif.got.tgz:13810.got - 2010.05.20 12:21:01.
