data_PCOD9566586
_publ_section_title
;
Structure prediction by ZEFSAII (Michael W. Deem and Ramdas Pophale) SiO2 
 PCOD9566586
Probable space group: P 42/M M C
;
_chemical_formula_sum "Si O2"
_cell_formula_units_Z 116
_cell_length_a 26.640084
_cell_length_b 26.640084
_cell_length_c 8.687655
_cell_angle_alpha 90.000000
_cell_angle_beta 90.000000
_cell_angle_gamma 90.000000
_cell_volume 6165.577284
_symmetry_space_group_name_H-M "P 42/M M C"
_symmetry_group_IT_number 131
_symmetry_cell_setting 'tetragonal'
loop_
_space_group_symop_operation_xyz
x,y,z
-x,-y,z
-y,x,1/2+z
y,-x,1/2+z
-x,y,-z
x,-y,-z
y,x,1/2-z
-y,-x,1/2-z
-x,-y,-z
x,y,-z
y,-x,1/2-z
-y,x,1/2-z
x,-y,z
-x,y,z
-y,-x,1/2+z
y,x,1/2+z
loop_
_atom_site_type_symbol
_atom_site_label
_atom_site_fract_x
_atom_site_fract_y
_atom_site_fract_z
Si Si1 0.056557 0.335373 0.668912
Si Si2 0.864169 0.059453 0.816539
Si Si3 0.271604 0.350188 0.679866
Si Si4 0.443148 0.789533 0.314652
Si Si5 0.500000 0.000000 0.236360
Si Si6 0.571663 0.906030 0.681086
Si Si7 0.085944 0.241571 0.178300
Si Si8 0.811997 0.264476 0.319360
O O1 0.080448 0.340392 0.500000
O O2 0.085098 0.369700 0.789775
O O3 0.053134 0.277910 0.717444
O O4 0.000000 0.354242 0.661212
O O5 0.912519 0.087482 0.750000
O O6 0.814996 0.082957 0.737559
O O7 0.865073 0.000000 0.784855
O O8 0.861317 0.066831 0.000000
O O9 0.319661 0.319661 0.750000
O O10 0.282102 0.358308 0.500000
O O11 0.249178 0.401451 0.751701
O O12 0.224615 0.311837 0.693335
O O13 0.437913 0.790687 0.500000
O O14 0.500000 0.773506 0.275815
O O15 0.438781 0.848710 0.264793
O O16 0.542752 0.046271 0.243448
O O17 0.559165 0.908997 0.500000
O O18 0.139705 0.266137 0.213161
O O19 0.072555 0.243805 0.000000
O O20 0.781630 0.218371 0.250000
O O21 0.824630 0.257080 0.500000
#
# Coordination Sequence:
#
# PCOD9566586 Si02
#       8
#    16  16  16  16   4  16  16  16
#     4  11  24  39  53  74 106 142 184 236 292 343
#     4  11  25  45  68  92 118 146 175 214 267 332
#     4  10  21  37  59  85 115 155 198 246 300 360
#     4  10  21  36  55  83 117 155 198 249 304 355
#     4  12  21  36  61  86 117 164 229 282 313 356
#     4  11  21  36  59  83 113 158 212 264 309 354
#     4  12  24  38  59  85 112 144 182 226 279 339
#     4  10  20  35  55  80 112 145 182 225 274 331
#
# _framework density 18.814135
#
# number of rings (size 3 to 8) (size 9 to 14) (size 15 to 20)
#    0.000    1.241    1.379    5.172    0.000    8.414 
#    0.000    1.379    0.000    0.000    0.000    0.000 
#    0.000    0.276    0.000    2.897    0.000    1.241 
#
# Total GULP energy -646028.961088 kJ/mol
# GULP energy per Si atom -5569.215182 kJ/mol
# Density = 1.877131 g / cm^3
# Si number density = 18.814135 Si / 1000 Ang^3
#
#
#
# Elastic Constant Matrix: (Units=GPa)
#
#
# Indices 1 2 3 4 5 6 
#
# 1 68.2503 64.8308 24.9996 0.0000 0.0000 0.0000
# 2 64.8308 68.2682 25.0173 0.0000 0.0000 0.0000
# 3 24.9996 25.0173 53.0591 0.0000 0.0000 0.0000
# 4 0.0000 0.0000 0.0000 -140.3803 0.0000 0.0000
# 5 0.0000 0.0000 0.0000 0.0000 -140.4797 0.0000
# 6 0.0000 0.0000 0.0000 0.0000 0.0000 23.3652
#
#
#
# Elastic Compliance Matrix: (Units=1/GPa)
#
#
# Indices 1 2 3 4 5 6 
#
# 1 0.150406 -0.141273 -0.004256 0.000000 0.000000 0.000000
# 2 -0.141273 0.150403 -0.004352 0.000000 0.000000 0.000000
# 3 -0.004256 -0.004352 0.022904 0.000000 0.000000 0.000000
# 4 0.000000 0.000000 0.000000 -0.007124 0.000000 0.000000
# 5 0.000000 0.000000 0.000000 0.000000 -0.007118 0.000000
# 6 0.000000 0.000000 0.000000 0.000000 0.000000 0.042799
#
#
# Mechanical properties :
#
#
# Convention : Reuss Voigt Hill
#
# Bulk Modulus (GPa) = 41.75184 46.58588 44.16886
# Shear Modulus (GPa) = 7.57560 -46.51697 -19.47069
#
# Velocity S-wave (km/s) = 2.00880 -4.97777 -3.22047
# Velocity P-wave (km/s) = 5.25550 2.86752 3.11429
#
# Compressibility (1/GPa) = 0.02395104
#
# Stress axis : x y z
#
# Youngs Moduli (GPa) = 6.64868 6.64882 43.66065
#
# Poissons Ratio (x) = 0.93930 0.18581
# Poissons Ratio (y) = 0.93928 0.19000
# Poissons Ratio (z) = 0.02830 0.02893
#
# Static dielectric constant tensor:
#      x y z
#    x 1.535960 0.000000 0.000000 
#    y 0.000000 1.535940 0.000000 
#    z 0.000000 0.000000 1.670330 
# 
# From -- ./inp_files/2648.got.cif
#   From: 2010.05.17/outbox.cif.g08.bks.cpg/sg131_2_cif.got.tgz:2648.got - 2010.05.20 12:21:01.
