data_PCOD9566592
_publ_section_title
;
Structure prediction by ZEFSAII (Michael W. Deem and Ramdas Pophale) SiO2 
 PCOD9566592
Probable space group: P 42/M M C
;
_chemical_formula_sum "Si O2"
_cell_formula_units_Z 70
_cell_length_a 11.499703
_cell_length_b 11.499703
_cell_length_c 31.246219
_cell_angle_alpha 90.000000
_cell_angle_beta 90.000000
_cell_angle_gamma 90.000000
_cell_volume 4132.099023
_symmetry_space_group_name_H-M "P 42/M M C"
_symmetry_group_IT_number 131
_symmetry_cell_setting 'tetragonal'
loop_
_space_group_symop_operation_xyz
x,y,z
-x,-y,z
-y,x,1/2+z
y,-x,1/2+z
-x,y,-z
x,-y,-z
y,x,1/2-z
-y,-x,1/2-z
-x,-y,-z
x,y,-z
y,-x,1/2-z
-y,x,1/2-z
x,-y,z
-x,y,z
-y,-x,1/2+z
y,x,1/2+z
loop_
_atom_site_type_symbol
_atom_site_label
_atom_site_fract_x
_atom_site_fract_y
_atom_site_fract_z
Si Si1 0.636894 0.500000 0.412016
Si Si2 0.302737 0.725194 0.152065
Si Si3 0.500000 0.500000 0.250000
Si Si4 0.500000 0.221909 0.000000
Si Si5 0.136116 0.241527 0.500000
Si Si6 0.861404 0.500000 0.295453
Si Si7 0.500000 0.252691 0.704055
Si Si8 0.863221 0.860188 0.910246
O O1 0.500000 0.500000 0.418610
O O2 0.673341 0.388736 0.383955
O O3 0.701962 0.500000 0.457088
O O4 0.386753 0.800673 0.183081
O O5 0.243842 0.617892 0.176874
O O6 0.208327 0.803240 0.128102
O O7 0.614399 0.500000 0.221280
O O8 0.619734 0.150357 0.000000
O O9 0.183214 0.187681 0.544097
O O10 0.000000 0.211500 0.500000
O O11 0.829752 0.500000 0.245319
O O12 0.000000 0.500000 0.302718
O O13 0.000000 0.834988 0.907966
O O14 0.848065 0.000000 0.908476
#
# Coordination Sequence:
#
# PCOD9566592 Si02
#       8
#     8  16   2   4   8   8   8  16
#     4  11  21  35  55  85 113 148 187 224 282 347
#     4  11  21  37  59  84 114 144 188 236 283 338
#     4  12  16  40  60  84 108 142 192 220 292 352
#     4  12  20  34  54  84 120 150 178 232 292 338
#     4  10  20  35  56  84 115 148 192 237 280 330
#     4  11  23  36  55  86 114 140 178 237 298 342
#     4  12  21  37  64  82 110 149 186 234 293 358
#     4  10  21  38  59  82 114 158 198 231 273 330
#
# _framework density 16.940543000000002
#
# number of rings (size 3 to 8) (size 9 to 14) (size 15 to 20)
#    0.000    1.143    5.714    2.057    0.000    2.286 
#    0.000    0.000    0.000    0.000    0.000    6.400 
#    0.000    0.000    0.000    0.000    0.000    0.000 
#
# Total GULP energy -390804.533162 kJ/mol
# GULP energy per Si atom -5582.921902 kJ/mol
# Density = 1.690199 g / cm^3
# Si number density = 16.940543 Si / 1000 Ang^3
#
#
#
# Elastic Constant Matrix: (Units=GPa)
#
#
# Indices 1 2 3 4 5 6 
#
# 1 88.3862 23.7884 48.2082 0.0000 0.0000 0.0000
# 2 23.7884 88.3862 48.2082 0.0000 0.0000 0.0000
# 3 48.2082 48.2082 129.8050 0.0000 0.0000 0.0000
# 4 0.0000 0.0000 0.0000 30.3400 0.0000 0.0000
# 5 0.0000 0.0000 0.0000 0.0000 30.3400 0.0000
# 6 0.0000 0.0000 0.0000 0.0000 0.0000 20.5646
#
#
#
# Elastic Compliance Matrix: (Units=1/GPa)
#
#
# Indices 1 2 3 4 5 6 
#
# 1 0.014288 -0.001193 -0.004863 0.000000 0.000000 0.000000
# 2 -0.001193 0.014288 -0.004863 0.000000 0.000000 0.000000
# 3 -0.004863 -0.004863 0.011316 0.000000 0.000000 0.000000
# 4 0.000000 0.000000 0.000000 0.032960 0.000000 0.000000
# 5 0.000000 0.000000 0.000000 0.000000 0.032960 0.000000
# 6 0.000000 0.000000 0.000000 0.000000 0.000000 0.048627
#
#
# Mechanical properties :
#
#
# Convention : Reuss Voigt Hill
#
# Bulk Modulus (GPa) = 55.39348 60.77635 58.08491
# Shear Modulus (GPa) = 27.42816 28.67375 28.05096
#
# Velocity S-wave (km/s) = 4.02815 4.11860 4.07363
# Velocity P-wave (km/s) = 7.37593 7.65319 7.51584
#
# Compressibility (1/GPa) = 0.01805267
#
# Stress axis : x y z
#
# Youngs Moduli (GPa) = 69.99090 69.99090 88.36895
#
# Poissons Ratio (x) = 0.08349 0.42976
# Poissons Ratio (y) = 0.08349 0.42976
# Poissons Ratio (z) = 0.34038 0.34038
#
# Static dielectric constant tensor:
#      x y z
#    x 1.557870 0.000000 0.000000 
#    y 0.000000 1.557870 0.000000 
#    z 0.000000 0.000000 1.578500 
# 
# From -- ./inp_files/12226.got.cif
#   From: 2010.05.17/outbox.cif.g08.bks.cpg/sg131_7_cif.got.tgz:12226.got - 2010.05.20 12:21:01.
