data_PCOD9566841
_publ_section_title
;
Structure prediction by ZEFSAII (Michael W. Deem and Ramdas Pophale) SiO2 
 PCOD9566841
Probable space group: P 42/M M C
;
_chemical_formula_sum "Si O2"
_cell_formula_units_Z 56
_cell_length_a 12.422854
_cell_length_b 12.422854
_cell_length_c 20.417838
_cell_angle_alpha 90.000000
_cell_angle_beta 90.000000
_cell_angle_gamma 90.000000
_cell_volume 3151.029841
_symmetry_space_group_name_H-M "P 42/M M C"
_symmetry_group_IT_number 131
_symmetry_cell_setting 'tetragonal'
loop_
_space_group_symop_operation_xyz
x,y,z
-x,-y,z
-y,x,1/2+z
y,-x,1/2+z
-x,y,-z
x,-y,-z
y,x,1/2-z
-y,-x,1/2-z
-x,-y,-z
x,y,-z
y,-x,1/2-z
-y,x,1/2-z
x,-y,z
-x,y,z
-y,-x,1/2+z
y,x,1/2+z
loop_
_atom_site_type_symbol
_atom_site_label
_atom_site_fract_x
_atom_site_fract_y
_atom_site_fract_z
Si Si1 0.875854 0.875854 0.250000
Si Si2 0.198227 0.770750 0.878501
Si Si3 0.000000 0.874881 0.577392
Si Si4 0.620450 0.374975 0.328719
Si Si5 0.377577 0.872946 0.500000
O O1 0.788835 0.859598 0.307848
O O2 0.000000 0.864495 0.273524
O O3 0.188593 0.891722 0.904992
O O4 0.311759 0.717475 0.861366
O O5 0.153488 0.691504 0.934722
O O6 0.000000 0.886419 0.500000
O O7 0.000000 0.000000 0.603403
O O8 0.631137 0.368864 0.250000
O O9 0.622899 0.500000 0.346781
O O10 0.500000 0.332241 0.345319
O O11 0.500000 0.826053 0.500000
O O12 0.388746 0.000000 0.500000
#
# Coordination Sequence:
#
# PCOD9566841 Si02
#       5
#     8  16   8  16   8
#     4  11  22  34  54  87 124 160 200 243 298 370
#     4  12  21  37  60  87 120 154 200 253 299 355
#     4  11  22  38  61  85 117 164 202 231 289 372
#     4   9  19  38  62  86 114 152 198 245 295 350
#     4  11  24  39  58  86 119 157 203 254 302 352
#
# _framework density 17.771967
#
# number of rings (size 3 to 8) (size 9 to 14) (size 15 to 20)
#    0.000    1.286    4.286    4.286    0.000    0.000 
#    0.000    1.429    0.000    5.143    0.000    0.000 
#    0.000    0.000    0.000    0.000    0.000    0.000 
#
# Total GULP energy -311736.711598 kJ/mol
# GULP energy per Si atom -5566.726993 kJ/mol
# Density = 1.773152 g / cm^3
# Si number density = 17.771967 Si / 1000 Ang^3
#
#
#
# Elastic Constant Matrix: (Units=GPa)
#
#
# Indices 1 2 3 4 5 6 
#
# 1 123.8603 67.9359 44.0927 0.0000 0.0000 0.0000
# 2 67.9359 123.8603 44.0926 0.0000 0.0000 0.0000
# 3 44.0927 44.0926 99.9455 0.0000 0.0000 0.0000
# 4 0.0000 0.0000 0.0000 26.8926 0.0000 0.0000
# 5 0.0000 0.0000 0.0000 0.0000 26.8927 0.0000
# 6 0.0000 0.0000 0.0000 0.0000 0.0000 17.1587
#
#
#
# Elastic Compliance Matrix: (Units=1/GPa)
#
#
# Indices 1 2 3 4 5 6 
#
# 1 0.012211 -0.005670 -0.002885 0.000000 0.000000 0.000000
# 2 -0.005670 0.012211 -0.002885 0.000000 0.000000 0.000000
# 3 -0.002885 -0.002885 0.012551 0.000000 0.000000 0.000000
# 4 0.000000 0.000000 0.000000 0.037185 0.000000 0.000000
# 5 0.000000 0.000000 0.000000 0.000000 0.037185 0.000000
# 6 0.000000 0.000000 0.000000 0.000000 0.000000 0.058279
#
#
# Mechanical properties :
#
#
# Convention : Reuss Voigt Hill
#
# Bulk Modulus (GPa) = 70.96916 73.32315 72.14616
# Shear Modulus (GPa) = 25.35473 26.95848 26.15661
#
# Velocity S-wave (km/s) = 3.78123 3.89898 3.84055
# Velocity P-wave (km/s) = 7.68658 7.84963 7.76853
#
# Compressibility (1/GPa) = 0.01409063
#
# Stress axis : x y z
#
# Youngs Moduli (GPa) = 81.89384 81.89395 79.67230
#
# Poissons Ratio (x) = 0.46437 0.22989
# Poissons Ratio (y) = 0.46437 0.22989
# Poissons Ratio (z) = 0.23630 0.23630
#
# Static dielectric constant tensor:
#      x y z
#    x 1.598210 0.000000 0.000000 
#    y 0.000000 1.598210 0.000000 
#    z 0.000000 0.000000 1.688130 
# 
# From -- ./inp_files/9067.got.cif
#   From: 2010.05.17/outbox.cif.g08.bks.cpg/sg131_5_cif.got.tgz:9067.got - 2010.05.20 12:21:01.
