data_PCOD9566606
_publ_section_title
;
Structure prediction by ZEFSAII (Michael W. Deem and Ramdas Pophale) SiO2 
 PCOD9566606
Probable space group: P 42/M M C
;
_chemical_formula_sum "Si O2"
_cell_formula_units_Z 84
_cell_length_a 13.743016
_cell_length_b 13.743016
_cell_length_c 24.025276
_cell_angle_alpha 90.000000
_cell_angle_beta 90.000000
_cell_angle_gamma 90.000000
_cell_volume 4537.665621
_symmetry_space_group_name_H-M "P 42/M M C"
_symmetry_group_IT_number 131
_symmetry_cell_setting 'tetragonal'
loop_
_space_group_symop_operation_xyz
x,y,z
-x,-y,z
-y,x,1/2+z
y,-x,1/2+z
-x,y,-z
x,-y,-z
y,x,1/2-z
-y,-x,1/2-z
-x,-y,-z
x,y,-z
y,-x,1/2-z
-y,x,1/2-z
x,-y,z
-x,y,z
-y,-x,1/2+z
y,x,1/2+z
loop_
_atom_site_type_symbol
_atom_site_label
_atom_site_fract_x
_atom_site_fract_y
_atom_site_fract_z
Si Si1 0.000000 0.249729 0.000000
Si Si2 0.000000 0.386383 0.107860
Si Si3 0.301095 0.182807 0.327139
Si Si4 0.810159 0.114344 0.000000
Si Si5 0.885439 0.390409 0.717576
Si Si6 0.753758 0.112436 0.876939
Si Si7 0.609360 0.613086 0.182500
O O1 0.904945 0.181667 0.000000
O O2 0.000000 0.318021 0.945995
O O3 0.902175 0.361771 0.142596
O O4 0.000000 0.500000 0.093703
O O5 0.320683 0.165054 0.261987
O O6 0.190282 0.175816 0.347716
O O7 0.335465 0.293349 0.339869
O O8 0.752063 0.131741 0.942729
O O9 0.838177 0.000000 0.000000
O O10 0.848167 0.500000 0.723868
O O11 0.876108 0.347849 0.655823
O O12 0.000000 0.391258 0.730420
O O13 0.784364 0.000000 0.868760
O O14 0.615268 0.615268 0.250000
O O15 0.614667 0.500000 0.166236
O O16 0.500000 0.648426 0.166996
#
# Coordination Sequence:
#
# PCOD9566606 Si02
#       7
#     4   8  16   8  16  16  16
#     4  12  22  44  64  88 116 156 210 260 318 362
#     4  12  25  39  61  94 125 160 202 251 311 375
#     4  12  21  36  59  87 127 164 199 246 306 378
#     4  10  21  41  64  86 112 156 210 266 308 363
#     4  10  20  35  58  89 125 164 200 241 305 375
#     4  10  22  38  58  85 118 158 208 256 305 360
#     4   9  18  32  53  83 117 156 200 241 286 350
#
# _framework density 18.511721000000001
#
# number of rings (size 3 to 8) (size 9 to 14) (size 15 to 20)
#    0.000    1.524    2.857    4.286    0.000    2.286 
#    0.000    0.952    0.000    2.857    0.000    0.667 
#    0.000    4.571    0.000    0.000    0.000    0.000 
#
# Total GULP energy -468607.475751 kJ/mol
# GULP energy per Si atom -5578.660426 kJ/mol
# Density = 1.846959 g / cm^3
# Si number density = 18.511721 Si / 1000 Ang^3
#
#
#
# Elastic Constant Matrix: (Units=GPa)
#
#
# Indices 1 2 3 4 5 6 
#
# 1 107.6345 38.9869 48.6428 0.0000 0.0000 0.0000
# 2 38.9869 107.6345 48.6428 0.0000 0.0000 0.0000
# 3 48.6428 48.6428 127.8764 0.0000 0.0000 0.0000
# 4 0.0000 0.0000 0.0000 17.3132 0.0000 0.0000
# 5 0.0000 0.0000 0.0000 0.0000 17.3132 0.0000
# 6 0.0000 0.0000 0.0000 0.0000 0.0000 25.7627
#
#
#
# Elastic Compliance Matrix: (Units=1/GPa)
#
#
# Indices 1 2 3 4 5 6 
#
# 1 0.011845 -0.002722 -0.003470 0.000000 0.000000 0.000000
# 2 -0.002722 0.011845 -0.003470 0.000000 0.000000 0.000000
# 3 -0.003470 -0.003470 0.010460 0.000000 0.000000 0.000000
# 4 0.000000 0.000000 0.000000 0.057759 0.000000 0.000000
# 5 0.000000 0.000000 0.000000 0.000000 0.057759 0.000000
# 6 0.000000 0.000000 0.000000 0.000000 0.000000 0.038816
#
#
# Mechanical properties :
#
#
# Convention : Reuss Voigt Hill
#
# Bulk Modulus (GPa) = 67.45416 68.41007 67.93211
# Shear Modulus (GPa) = 23.50158 25.86934 24.68546
#
# Velocity S-wave (km/s) = 3.56694 3.74231 3.65568
# Velocity P-wave (km/s) = 7.31313 7.46381 7.38885
#
# Compressibility (1/GPa) = 0.01482488
#
# Stress axis : x y z
#
# Youngs Moduli (GPa) = 84.42381 84.42381 95.60109
#
# Poissons Ratio (x) = 0.22982 0.33176
# Poissons Ratio (y) = 0.22982 0.33176
# Poissons Ratio (z) = 0.29297 0.29297
#
# Static dielectric constant tensor:
#      x y z
#    x 1.669140 0.000000 0.000000 
#    y 0.000000 1.669140 0.000000 
#    z 0.000000 0.000000 1.626140 
# 
# From -- ./inp_files/9656.got.cif
#   From: 2010.05.17/outbox.cif.g08.bks.cpg/sg131_5_cif.got.tgz:9656.got - 2010.05.20 12:21:01.
