data_PCOD9566010
_publ_section_title
;
Structure prediction by ZEFSAII (Michael W. Deem and Ramdas Pophale) SiO2 
 PCOD9566010
Probable space group: P 4/N C C
;
_chemical_formula_sum "Si O2"
_cell_formula_units_Z 56
_cell_length_a 15.494022
_cell_length_b 15.494022
_cell_length_c 10.134982
_cell_angle_alpha 90.000000
_cell_angle_beta 90.000000
_cell_angle_gamma 90.000000
_cell_volume 2433.051593
_symmetry_space_group_name_H-M "P 4/N C C"
_symmetry_group_IT_number 130
_symmetry_cell_setting 'tetragonal'
loop_
_space_group_symop_operation_xyz
x,y,z
1/2-y,x,z
1/2-x,1/2-y,z
y,1/2-x,z
1/2+x,-y,1/2-z
-x,1/2+y,1/2-z
1/2+y,1/2+x,1/2-z
-y,-x,1/2-z
-x,-y,-z
1/2+y,-x,-z
1/2+x,1/2+y,-z
-y,1/2+x,-z
1/2-x,y,1/2+z
x,1/2-y,1/2+z
1/2-y,1/2-x,1/2+z
y,x,1/2+z
loop_
_atom_site_type_symbol
_atom_site_label
_atom_site_fract_x
_atom_site_fract_y
_atom_site_fract_z
Si Si1 0.066584 0.317659 0.769030
Si Si2 0.088796 0.050426 0.500686
Si Si3 0.083162 0.700668 0.661193
Si Si4 0.750000 0.250000 0.000000
Si Si5 0.250000 0.250000 0.753566
O O1 0.071773 0.383948 0.648511
O O2 0.144143 0.249733 0.755643
O O3 0.973984 0.270356 0.760994
O O4 0.077368 0.365714 0.908957
O O5 0.159322 0.986209 0.438196
O O6 0.000000 0.000000 0.500000
O O7 0.125494 0.625494 0.750000
O O8 0.163757 0.744382 0.587533
#
# Coordination Sequence:
#
# PCOD9566010 Si02
#       5
#    16  16  16   4   4
#     4  12  28  49  81 113 160 209 269 328 402 475
#     4  12  27  48  76 112 155 205 262 330 399 481
#     4  12  26  48  74 115 156 210 267 333 400 489
#     4  12  26  44  80 110 164 212 270 326 420 476
#     4  12  28  50  80 114 160 214 264 330 396 486
#
# _framework density 23.016362000000001
#
# number of rings (size 3 to 8) (size 9 to 14) (size 15 to 20)
#    0.000    0.000    2.857    6.429    4.000    3.429 
#    0.000    0.000    0.000    0.000    0.000    0.000 
#    0.000    0.000    0.000    0.000    0.000    0.000 
#
# Total GULP energy -312904.366997 kJ/mol
# GULP energy per Si atom -5587.577982 kJ/mol
# Density = 2.296398 g / cm^3
# Si number density = 23.016362 Si / 1000 Ang^3
#
#
#
# Elastic Constant Matrix: (Units=GPa)
#
#
# Indices 1 2 3 4 5 6 
#
# 1 132.0923 40.8617 25.0723 0.0000 0.0000 0.0000
# 2 40.8617 132.0923 25.0723 0.0000 0.0000 0.0000
# 3 25.0723 25.0723 45.5445 0.0000 0.0000 0.0000
# 4 0.0000 0.0000 0.0000 33.2218 0.0000 0.0000
# 5 0.0000 0.0000 0.0000 0.0000 33.2218 0.0000
# 6 0.0000 0.0000 0.0000 0.0000 0.0000 71.7176
#
#
#
# Elastic Compliance Matrix: (Units=1/GPa)
#
#
# Indices 1 2 3 4 5 6 
#
# 1 0.008921 -0.002041 -0.003787 0.000000 0.000000 0.000000
# 2 -0.002041 0.008921 -0.003787 0.000000 0.000000 0.000000
# 3 -0.003787 -0.003787 0.026127 0.000000 0.000000 0.000000
# 4 0.000000 0.000000 0.000000 0.030101 0.000000 0.000000
# 5 0.000000 0.000000 0.000000 0.000000 0.030101 0.000000
# 6 0.000000 0.000000 0.000000 0.000000 0.000000 0.013944
#
#
# Mechanical properties :
#
#
# Convention : Reuss Voigt Hill
#
# Bulk Modulus (GPa) = 40.42573 54.63797 47.53185
# Shear Modulus (GPa) = 34.34317 42.21375 38.27846
#
# Velocity S-wave (km/s) = 3.86699 4.28726 4.08253
# Velocity P-wave (km/s) = 6.12700 6.94966 6.55125
#
# Compressibility (1/GPa) = 0.02473672
#
# Stress axis : x y z
#
# Youngs Moduli (GPa) = 112.10002 112.10002 38.27530
#
# Poissons Ratio (x) = 0.22875 0.14497
# Poissons Ratio (y) = 0.22875 0.14497
# Poissons Ratio (z) = 0.42457 0.42457
#
# Static dielectric constant tensor:
#      x y z
#    x 1.886000 0.000000 0.000000 
#    y 0.000000 1.886000 0.000000 
#    z 0.000000 0.000000 1.860690 
# 
# From -- ./inp_files/1444.got.cif
#   From: 2010.05.17/outbox.cif.g08.bks.cpg/sg130_1_cif.got.tgz:1444.got - 2010.05.20 12:17:35.
