data_PCOD9566723
_publ_section_title
;
Structure prediction by ZEFSAII (Michael W. Deem and Ramdas Pophale) SiO2 
 PCOD9566723
Probable space group: P 42/M M C
;
_chemical_formula_sum "Si O2"
_cell_formula_units_Z 88
_cell_length_a 17.751833
_cell_length_b 17.751833
_cell_length_c 14.857659
_cell_angle_alpha 90.000000
_cell_angle_beta 90.000000
_cell_angle_gamma 90.000000
_cell_volume 4682.058049
_symmetry_space_group_name_H-M "P 42/M M C"
_symmetry_group_IT_number 131
_symmetry_cell_setting 'tetragonal'
loop_
_space_group_symop_operation_xyz
x,y,z
-x,-y,z
-y,x,1/2+z
y,-x,1/2+z
-x,y,-z
x,-y,-z
y,x,1/2-z
-y,-x,1/2-z
-x,-y,-z
x,y,-z
y,-x,1/2-z
-y,x,1/2-z
x,-y,z
-x,y,z
-y,-x,1/2+z
y,x,1/2+z
loop_
_atom_site_type_symbol
_atom_site_label
_atom_site_fract_x
_atom_site_fract_y
_atom_site_fract_z
Si Si1 0.641814 0.690314 0.662457
Si Si2 0.083816 0.728747 0.108590
Si Si3 0.362032 0.909995 0.894298
Si Si4 0.145135 0.583393 0.207700
Si Si5 0.413415 0.589812 0.000000
Si Si6 0.763431 0.202264 0.107138
O O1 0.639766 0.639766 0.750000
O O2 0.596961 0.767790 0.679800
O O3 0.615388 0.637842 0.582846
O O4 0.728784 0.715732 0.647705
O O5 0.100126 0.649961 0.158128
O O6 0.150687 0.785400 0.136419
O O7 0.000000 0.755326 0.130156
O O8 0.088289 0.717681 0.000000
O O9 0.409230 0.870199 0.815047
O O10 0.278489 0.876129 0.876792
O O11 0.365857 0.000000 0.884003
O O12 0.381554 0.892866 0.000000
O O13 0.121769 0.500000 0.178937
O O14 0.500000 0.619271 0.000000
O O15 0.418034 0.500000 0.000000
O O16 0.762083 0.213785 0.000000
#
# Coordination Sequence:
#
# PCOD9566723 Si02
#       6
#    16  16  16  16   8  16
#     4  11  21  40  64  87 111 151 204 246 292 354
#     4   9  19  34  54  81 112 148 186 229 285 345
#     4  10  21  37  57  82 113 151 194 241 298 358
#     4  11  23  36  55  83 112 146 189 239 291 354
#     4  11  26  44  62  88 122 154 192 253 316 362
#     4   9  17  35  58  80 111 146 191 238 277 341
#
# _framework density 18.795154
#
# number of rings (size 3 to 8) (size 9 to 14) (size 15 to 20)
#    0.000    1.909    2.727    1.091    1.273    3.636 
#    0.000    2.727    0.000    0.545    0.000    3.818 
#    0.000    3.273    0.000    0.364    0.000    0.000 
#
# Total GULP energy -490621.227226 kJ/mol
# GULP energy per Si atom -5575.241218 kJ/mol
# Density = 1.875238 g / cm^3
# Si number density = 18.795154 Si / 1000 Ang^3
#
#
#
# Elastic Constant Matrix: (Units=GPa)
#
#
# Indices 1 2 3 4 5 6 
#
# 1 71.8781 22.0315 35.7465 0.0000 0.0000 0.0000
# 2 22.0315 71.8781 35.7465 0.0000 0.0000 0.0000
# 3 35.7465 35.7465 83.7079 0.0000 0.0000 0.0000
# 4 0.0000 0.0000 0.0000 4.9782 0.0000 0.0000
# 5 0.0000 0.0000 0.0000 0.0000 4.9782 0.0000
# 6 0.0000 0.0000 0.0000 0.0000 0.0000 0.6016
#
#
#
# Elastic Compliance Matrix: (Units=1/GPa)
#
#
# Indices 1 2 3 4 5 6 
#
# 1 0.017920 -0.002142 -0.006738 0.000000 0.000000 0.000000
# 2 -0.002142 0.017920 -0.006738 0.000000 0.000000 0.000000
# 3 -0.006738 -0.006738 0.017701 0.000000 0.000000 0.000000
# 4 0.000000 0.000000 0.000000 0.200877 0.000000 0.000000
# 5 0.000000 0.000000 0.000000 0.000000 0.200877 0.000000
# 6 0.000000 0.000000 0.000000 0.000000 0.000000 1.662237
#
#
# Mechanical properties :
#
#
# Convention : Reuss Voigt Hill
#
# Bulk Modulus (GPa) = 44.83165 46.05701 45.44433
# Shear Modulus (GPa) = 2.31889 11.04089 6.67989
#
# Velocity S-wave (km/s) = 1.11196 2.42633 1.88726
# Velocity P-wave (km/s) = 5.05501 5.69275 5.38333
#
# Compressibility (1/GPa) = 0.02230567
#
# Stress axis : x y z
#
# Youngs Moduli (GPa) = 55.80419 55.80419 56.49419
#
# Poissons Ratio (x) = 0.11952 0.38065
# Poissons Ratio (y) = 0.11952 0.38065
# Poissons Ratio (z) = 0.37600 0.37600
#
# Static dielectric constant tensor:
#      x y z
#    x 1.650810 0.000000 0.000000 
#    y 0.000000 1.650810 0.000000 
#    z 0.000000 0.000000 1.721450 
# 
# From -- ./inp_files/5845.got.cif
#   From: 2010.05.17/outbox.cif.g08.bks.cpg/sg131_3_cif.got.tgz:5845.got - 2010.05.20 12:21:01.
