data_PCOD9566948
_publ_section_title
;
Structure prediction by ZEFSAII (Michael W. Deem and Ramdas Pophale) SiO2 
 PCOD9566948
Probable space group: P 42/M C M
;
_chemical_formula_sum "Si O2"
_cell_formula_units_Z 60
_cell_length_a 11.509203
_cell_length_b 11.509203
_cell_length_c 23.648893
_cell_angle_alpha 90.000000
_cell_angle_beta 90.000000
_cell_angle_gamma 90.000000
_cell_volume 3132.573840
_symmetry_space_group_name_H-M "P 42/M C M"
_symmetry_group_IT_number 132
_symmetry_cell_setting 'tetragonal'
loop_
_space_group_symop_operation_xyz
x,y,z
-y,x,1/2+z
-x,-y,z
y,-x,1/2+z
x,-y,1/2-z
-x,y,1/2-z
y,x,-z
-y,-x,-z
-x,-y,-z
y,-x,1/2-z
x,y,-z
-y,x,1/2-z
-x,y,1/2+z
x,-y,1/2+z
-y,-x,z
y,x,z
loop_
_atom_site_type_symbol
_atom_site_label
_atom_site_fract_x
_atom_site_fract_y
_atom_site_fract_z
Si Si1 0.136778 0.489575 0.500000
Si Si2 0.563751 0.762392 0.192572
Si Si3 0.306580 0.693421 0.000000
Si Si4 0.596583 0.596583 0.382256
Si Si5 0.133781 0.329711 0.907910
Si Si6 0.802744 0.003986 0.000000
O O1 0.177870 0.357982 0.500000
O O2 0.176617 0.563233 0.553677
O O3 0.000000 0.500000 0.500000
O O4 0.500000 0.797698 0.250000
O O5 0.666337 0.666337 0.203538
O O6 0.467226 0.694944 0.155040
O O7 0.619349 0.867184 0.155430
O O8 0.357551 0.642450 0.941865
O O9 0.500000 0.500000 0.394591
O O10 0.233191 0.233191 0.907546
O O11 0.027337 0.271544 0.942746
O O12 0.877213 0.122788 0.000000
O O13 0.902269 0.902269 0.000000
#
# Coordination Sequence:
#
# PCOD9566948 Si02
#       6
#     8  16   4   8  16   8
#     4  11  22  35  48  70 107 137 179 235 287 353
#     4  10  17  26  43  75 117 154 184 216 262 339
#     4  12  21  34  50  70  99 156 190 226 294 350
#     4  10  19  26  46  78 112 149 186 219 262 337
#     4   9  18  32  51  77 108 144 181 232 288 342
#     4   8  14  27  47  70  99 139 193 251 303 343
#
# _framework density 19.153579000000001
#
# number of rings (size 3 to 8) (size 9 to 14) (size 15 to 20)
#    0.000    2.267    4.000    1.400    0.000    1.067 
#    4.800    0.000    0.000    0.800    0.000    0.000 
#    0.000    4.267    0.000    3.733    0.000    0.000 
#
# Total GULP energy -334062.361946 kJ/mol
# GULP energy per Si atom -5567.706032 kJ/mol
# Density = 1.910998 g / cm^3
# Si number density = 19.153579 Si / 1000 Ang^3
#
#
#
# Elastic Constant Matrix: (Units=GPa)
#
#
# Indices 1 2 3 4 5 6 
#
# 1 90.6875 30.3309 53.8319 0.0000 0.0000 0.0000
# 2 30.3309 90.6879 53.8317 0.0000 0.0000 0.0000
# 3 53.8319 53.8317 153.5530 0.0000 0.0000 0.0000
# 4 0.0000 0.0000 0.0000 15.1554 0.0000 0.0000
# 5 0.0000 0.0000 0.0000 0.0000 15.1554 0.0000
# 6 0.0000 0.0000 0.0000 0.0000 0.0000 28.5590
#
#
#
# Elastic Compliance Matrix: (Units=1/GPa)
#
#
# Indices 1 2 3 4 5 6 
#
# 1 0.014288 -0.002280 -0.004210 0.000000 0.000000 0.000000
# 2 -0.002280 0.014288 -0.004210 0.000000 0.000000 0.000000
# 3 -0.004210 -0.004210 0.009464 0.000000 0.000000 0.000000
# 4 0.000000 0.000000 0.000000 0.065983 0.000000 0.000000
# 5 0.000000 0.000000 0.000000 0.000000 0.065983 0.000000
# 6 0.000000 0.000000 0.000000 0.000000 0.000000 0.035015
#
#
# Mechanical properties :
#
#
# Convention : Reuss Voigt Hill
#
# Bulk Modulus (GPa) = 60.09022 67.87971 63.98497
# Shear Modulus (GPa) = 21.55465 24.90289 23.22877
#
# Velocity S-wave (km/s) = 3.35828 3.60970 3.48625
# Velocity P-wave (km/s) = 6.81750 7.27254 7.04869
#
# Compressibility (1/GPa) = 0.01664164
#
# Stress axis : x y z
#
# Youngs Moduli (GPa) = 69.98703 69.98749 105.66183
#
# Poissons Ratio (x) = 0.15956 0.44483
# Poissons Ratio (y) = 0.15956 0.44482
# Poissons Ratio (z) = 0.29464 0.29464
#
# Static dielectric constant tensor:
#      x y z
#    x 1.712040 0.000000 0.000000 
#    y 0.000000 1.712040 0.000000 
#    z 0.000000 0.000000 1.652540 
# 
# From -- ./inp_files/7505.got.cif
#   From: 2010.05.17/outbox.cif.g08.bks.cpg/sg132_4_cif.got.tgz:7505.got - 2010.05.20 12:30:18.
