data_PCOD9566665
_publ_section_title
;
Structure prediction by ZEFSAII (Michael W. Deem and Ramdas Pophale) SiO2 
 PCOD9566665
Probable space group: P 42/M M C
;
_chemical_formula_sum "Si O2"
_cell_formula_units_Z 112
_cell_length_a 14.503519
_cell_length_b 14.503519
_cell_length_c 27.812805
_cell_angle_alpha 90.000000
_cell_angle_beta 90.000000
_cell_angle_gamma 90.000000
_cell_volume 5850.480920
_symmetry_space_group_name_H-M "P 42/M M C"
_symmetry_group_IT_number 131
_symmetry_cell_setting 'tetragonal'
loop_
_space_group_symop_operation_xyz
x,y,z
-x,-y,z
-y,x,1/2+z
y,-x,1/2+z
-x,y,-z
x,-y,-z
y,x,1/2-z
-y,-x,1/2-z
-x,-y,-z
x,y,-z
y,-x,1/2-z
-y,x,1/2-z
x,-y,z
-x,y,z
-y,-x,1/2+z
y,x,1/2+z
loop_
_atom_site_type_symbol
_atom_site_label
_atom_site_fract_x
_atom_site_fract_y
_atom_site_fract_z
Si Si1 0.731817 0.610240 0.392794
Si Si2 0.105325 0.605186 0.129527
Si Si3 0.891773 0.303468 0.662532
Si Si4 0.105685 0.648200 0.231609
Si Si5 0.605463 0.611910 0.301625
Si Si6 0.609172 0.256308 0.444678
Si Si7 0.140740 0.901374 0.302607
O O1 0.740423 0.500000 0.397079
O O2 0.829067 0.657173 0.379854
O O3 0.668473 0.633548 0.346375
O O4 0.674309 0.655878 0.435759
O O5 0.095609 0.500000 0.113671
O O6 0.145788 0.602154 0.183868
O O7 0.177267 0.645677 0.091772
O O8 0.000000 0.644377 0.130317
O O9 0.859560 0.349742 0.713725
O O10 0.883303 0.192749 0.670080
O O11 0.000000 0.324331 0.656713
O O12 0.104274 0.752794 0.212861
O O13 0.000000 0.613788 0.235254
O O14 0.643770 0.643770 0.250000
O O15 0.602966 0.500000 0.297572
O O16 0.500000 0.642540 0.308802
O O17 0.614046 0.226099 0.500000
O O18 0.500000 0.276681 0.434381
O O19 0.096099 0.903902 0.250000
O O20 0.122716 0.000000 0.327288
#
# Coordination Sequence:
#
# PCOD9566665 Si02
#       7
#    16  16  16  16  16  16  16
#     4  11  23  37  54  74  98 135 180 223 272 326
#     4   9  17  30  51  80 114 150 181 209 252 319
#     4  10  21  34  49  75 110 146 185 225 262 308
#     4   8  15  28  46  73 111 150 185 218 252 301
#     4   8  15  29  48  71  99 128 161 204 254 313
#     4  10  22  39  59  84 109 132 168 225 287 341
#     4   9  16  27  45  69 101 142 182 218 257 302
#
# _framework density 19.143726000000001
#
# number of rings (size 3 to 8) (size 9 to 14) (size 15 to 20)
#    0.000    2.714    0.000    3.000    0.000    6.143 
#    0.000    6.429    0.000    0.429    0.000    1.000 
#    0.000    0.000    0.000    8.000    0.000    0.286 
#
# Total GULP energy -623849.373092 kJ/mol
# GULP energy per Si atom -5570.083688 kJ/mol
# Density = 1.910015 g / cm^3
# Si number density = 19.143726 Si / 1000 Ang^3
#
#
#
# Elastic Constant Matrix: (Units=GPa)
#
#
# Indices 1 2 3 4 5 6 
#
# 1 78.8821 24.9345 18.3010 0.0000 0.0000 0.0000
# 2 24.9345 78.8821 18.3011 0.0000 0.0000 0.0000
# 3 18.3010 18.3011 55.1369 0.0000 0.0000 0.0000
# 4 0.0000 0.0000 0.0000 15.0967 0.0000 0.0000
# 5 0.0000 0.0000 0.0000 0.0000 15.0970 0.0000
# 6 0.0000 0.0000 0.0000 0.0000 0.0000 14.0889
#
#
#
# Elastic Compliance Matrix: (Units=1/GPa)
#
#
# Indices 1 2 3 4 5 6 
#
# 1 0.014723 -0.003814 -0.003621 0.000000 0.000000 0.000000
# 2 -0.003814 0.014723 -0.003621 0.000000 0.000000 0.000000
# 3 -0.003621 -0.003621 0.020540 0.000000 0.000000 0.000000
# 4 0.000000 0.000000 0.000000 0.066239 0.000000 0.000000
# 5 0.000000 0.000000 0.000000 0.000000 0.066238 0.000000
# 6 0.000000 0.000000 0.000000 0.000000 0.000000 0.070978
#
#
# Mechanical properties :
#
#
# Convention : Reuss Voigt Hill
#
# Bulk Modulus (GPa) = 35.87485 37.33050 36.60267
# Shear Modulus (GPa) = 17.55345 18.94749 18.25047
#
# Velocity S-wave (km/s) = 3.03137 3.14944 3.09097
# Velocity P-wave (km/s) = 5.57070 5.72431 5.64803
#
# Compressibility (1/GPa) = 0.02787468
#
# Stress axis : x y z
#
# Youngs Moduli (GPa) = 67.92217 67.92213 48.68455
#
# Poissons Ratio (x) = 0.25904 0.17628
# Poissons Ratio (y) = 0.25904 0.17628
# Poissons Ratio (z) = 0.24594 0.24594
#
# Static dielectric constant tensor:
#      x y z
#    x 1.775740 0.000000 0.000000 
#    y 0.000000 1.775740 0.000000 
#    z 0.000000 0.000000 1.663710 
# 
# From -- ./inp_files/12424.got.cif
#   From: 2010.05.17/outbox.cif.g08.bks.cpg/sg131_7_cif.got.tgz:12424.got - 2010.05.20 12:21:01.
