data_PCOD9566340
_publ_section_title
;
Structure prediction by ZEFSAII (Michael W. Deem and Ramdas Pophale) SiO2 
 PCOD9566340
Probable space group: P 42/M M C
;
_chemical_formula_sum "Si O2"
_cell_formula_units_Z 112
_cell_length_a 17.716928
_cell_length_b 17.716928
_cell_length_c 19.238893
_cell_angle_alpha 90.000000
_cell_angle_beta 90.000000
_cell_angle_gamma 90.000000
_cell_volume 6038.887231
_symmetry_space_group_name_H-M "P 42/M M C"
_symmetry_group_IT_number 131
_symmetry_cell_setting 'tetragonal'
loop_
_space_group_symop_operation_xyz
x,y,z
-x,-y,z
-y,x,1/2+z
y,-x,1/2+z
-x,y,-z
x,-y,-z
y,x,1/2-z
-y,-x,1/2-z
-x,-y,-z
x,y,-z
y,-x,1/2-z
-y,x,1/2-z
x,-y,z
-x,y,z
-y,-x,1/2+z
y,x,1/2+z
loop_
_atom_site_type_symbol
_atom_site_label
_atom_site_fract_x
_atom_site_fract_y
_atom_site_fract_z
Si Si1 0.300583 0.590184 0.721974
Si Si2 0.590613 0.089102 0.576917
Si Si3 0.338608 0.085938 0.137439
Si Si4 0.846690 0.335985 0.785336
Si Si5 0.829794 0.088232 0.080943
Si Si6 0.825941 0.088106 0.307150
Si Si7 0.766167 0.590551 0.423780
O O1 0.379762 0.620239 0.750000
O O2 0.291294 0.500000 0.729454
O O3 0.235733 0.634921 0.764026
O O4 0.286713 0.611282 0.641127
O O5 0.615504 0.115831 0.500000
O O6 0.500000 0.096239 0.579767
O O7 0.626022 0.129320 0.642833
O O8 0.608520 0.000000 0.581455
O O9 0.356123 0.101414 0.218421
O O10 0.249353 0.096410 0.122227
O O11 0.380655 0.150014 0.093924
O O12 0.357893 0.000000 0.118497
O O13 0.859987 0.247181 0.795290
O O14 0.891567 0.139190 0.118339
O O15 0.850996 0.000000 0.085330
O O16 0.818119 0.106911 0.000000
O O17 0.887650 0.112351 0.250000
O O18 0.806147 0.000000 0.300409
O O19 0.742640 0.618409 0.500000
O O20 0.767854 0.500000 0.425294
#
# Coordination Sequence:
#
# PCOD9566340 Si02
#       7
#    16  16  16  16  16  16  16
#     4  10  22  40  64  92 121 153 191 234 281 343
#     4   9  18  33  53  79 116 160 198 236 287 343
#     4  10  19  33  54  81 114 155 197 241 293 349
#     4  11  21  36  59  85 114 148 190 244 295 345
#     4  10  22  39  56  77 108 149 197 249 307 360
#     4  12  24  38  57  81 110 150 198 250 303 353
#     4   9  19  35  56  85 121 157 190 231 286 344
#
# _framework density 18.546462999999999
#
# number of rings (size 3 to 8) (size 9 to 14) (size 15 to 20)
#    0.000    1.857    1.429    3.429    2.000    3.714 
#    0.000    2.143    0.000    1.286    0.000    2.000 
#    0.000    0.000    0.000    0.000    0.000    0.000 
#
# Total GULP energy -625025.466522 kJ/mol
# GULP energy per Si atom -5580.584523 kJ/mol
# Density = 1.850425 g / cm^3
# Si number density = 18.546463 Si / 1000 Ang^3
#
#
#
# Elastic Constant Matrix: (Units=GPa)
#
#
# Indices 1 2 3 4 5 6 
#
# 1 40.9528 34.3070 40.5286 0.0000 0.0000 0.0000
# 2 34.3070 40.9593 40.5296 0.0000 0.0000 0.0000
# 3 40.5286 40.5296 142.9624 0.0000 0.0000 0.0000
# 4 0.0000 0.0000 0.0000 23.7576 0.0000 0.0000
# 5 0.0000 0.0000 0.0000 0.0000 23.7582 0.0000
# 6 0.0000 0.0000 0.0000 0.0000 0.0000 20.7947
#
#
#
# Elastic Compliance Matrix: (Units=1/GPa)
#
#
# Indices 1 2 3 4 5 6 
#
# 1 0.084770 -0.065635 -0.005424 0.000000 0.000000 0.000000
# 2 -0.065635 0.084753 -0.005420 0.000000 0.000000 0.000000
# 3 -0.005424 -0.005420 0.010069 0.000000 0.000000 0.000000
# 4 0.000000 0.000000 0.000000 0.042092 0.000000 0.000000
# 5 0.000000 0.000000 0.000000 0.000000 0.042091 0.000000
# 6 0.000000 0.000000 0.000000 0.000000 0.000000 0.048089
#
#
# Mechanical properties :
#
#
# Convention : Reuss Voigt Hill
#
# Bulk Modulus (GPa) = 37.54716 50.62277 44.08496
# Shear Modulus (GPa) = 10.55518 20.96274 15.75896
#
# Velocity S-wave (km/s) = 2.38821 3.36561 2.91813
# Velocity P-wave (km/s) = 5.28144 6.51594 5.93090
#
# Compressibility (1/GPa) = 0.02663317
#
# Stress axis : x y z
#
# Youngs Moduli (GPa) = 11.79661 11.79896 99.31262
#
# Poissons Ratio (x) = 0.77443 0.53868
# Poissons Ratio (y) = 0.77427 0.53832
# Poissons Ratio (z) = 0.06399 0.06396
#
# Static dielectric constant tensor:
#      x y z
#    x 1.629480 0.000000 0.000000 
#    y 0.000000 1.629480 0.000000 
#    z 0.000000 0.000000 1.660960 
# 
# From -- ./inp_files/10061.got.cif
#   From: 2010.05.17/outbox.cif.g08.bks.cpg/sg131_6_cif.got.tgz:10061.got - 2010.05.20 12:21:01.
