data_PCOD9566583
_publ_section_title
;
Structure prediction by ZEFSAII (Michael W. Deem and Ramdas Pophale) SiO2 
 PCOD9566583
Probable space group: P 42/M M C
;
_chemical_formula_sum "Si O2"
_cell_formula_units_Z 112
_cell_length_a 15.548159
_cell_length_b 15.548159
_cell_length_c 22.267861
_cell_angle_alpha 90.000000
_cell_angle_beta 90.000000
_cell_angle_gamma 90.000000
_cell_volume 5383.149586
_symmetry_space_group_name_H-M "P 42/M M C"
_symmetry_group_IT_number 131
_symmetry_cell_setting 'tetragonal'
loop_
_space_group_symop_operation_xyz
x,y,z
-x,-y,z
-y,x,1/2+z
y,-x,1/2+z
-x,y,-z
x,-y,-z
y,x,1/2-z
-y,-x,1/2-z
-x,-y,-z
x,y,-z
y,-x,1/2-z
-y,x,1/2-z
x,-y,z
-x,y,z
-y,-x,1/2+z
y,x,1/2+z
loop_
_atom_site_type_symbol
_atom_site_label
_atom_site_fract_x
_atom_site_fract_y
_atom_site_fract_z
Si Si1 0.399289 0.246269 0.883457
Si Si2 0.641158 0.904261 0.572666
Si Si3 0.241762 0.096458 0.753113
Si Si4 0.908035 0.843240 0.928356
Si Si5 0.201844 0.595407 0.758041
Si Si6 0.906917 0.721861 0.394220
Si Si7 0.716783 0.593706 0.119720
O O1 0.500000 0.248484 0.899583
O O2 0.395137 0.234217 0.810401
O O3 0.345892 0.166404 0.910395
O O4 0.345234 0.330458 0.900632
O O5 0.633385 0.901727 0.500000
O O6 0.742763 0.901717 0.588111
O O7 0.602466 0.815829 0.597579
O O8 0.608990 0.000000 0.591587
O O9 0.160822 0.160822 0.750000
O O10 0.325720 0.140033 0.724272
O O11 0.271135 0.090622 0.822186
O O12 0.223235 0.000000 0.731196
O O13 0.819955 0.888111 0.911658
O O14 0.000000 0.877729 0.904805
O O15 0.912399 0.846811 0.000000
O O16 0.160744 0.500000 0.762108
O O17 0.276198 0.597511 0.807757
O O18 0.000000 0.695032 0.417174
O O19 0.684847 0.500000 0.101331
#
# Coordination Sequence:
#
# PCOD9566583 Si02
#       7
#    16  16  16  16  16  16  16
#     4  10  20  37  57  77 109 146 179 224 275 321
#     4   9  19  36  57  82 113 148 183 220 269 326
#     4  10  21  34  49  71 104 145 181 214 256 309
#     4   9  18  34  57  83 110 140 174 217 271 325
#     4   9  19  35  55  79 106 137 178 226 275 322
#     4  10  20  35  55  79 105 137 181 223 264 317
#     4  11  21  34  56  84 111 141 181 224 269 326
#
# _framework density 20.805665000000001
#
# number of rings (size 3 to 8) (size 9 to 14) (size 15 to 20)
#    0.000    2.286    1.429    3.000    0.000    3.286 
#    0.000    7.143    0.000    4.286    0.000    2.000 
#    0.000    0.000    0.000    0.000    0.000    0.000 
#
# Total GULP energy -624682.215348 kJ/mol
# GULP energy per Si atom -5577.519780 kJ/mol
# Density = 2.075831 g / cm^3
# Si number density = 20.805665 Si / 1000 Ang^3
#
#
#
# Elastic Constant Matrix: (Units=GPa)
#
#
# Indices 1 2 3 4 5 6 
#
# 1 164.4277 110.6252 5.0833 0.0000 0.0000 0.0000
# 2 110.6252 164.4277 5.0833 0.0000 0.0000 0.0000
# 3 5.0833 5.0833 16.9469 0.0000 0.0000 0.0000
# 4 0.0000 0.0000 0.0000 19.9546 0.0000 0.0000
# 5 0.0000 0.0000 0.0000 0.0000 19.9546 0.0000
# 6 0.0000 0.0000 0.0000 0.0000 0.0000 -0.9583
#
#
#
# Elastic Compliance Matrix: (Units=1/GPa)
#
#
# Indices 1 2 3 4 5 6 
#
# 1 0.011131 -0.007455 -0.001103 0.000000 0.000000 0.000000
# 2 -0.007455 0.011131 -0.001103 0.000000 0.000000 0.000000
# 3 -0.001103 -0.001103 0.059669 0.000000 0.000000 0.000000
# 4 0.000000 0.000000 0.000000 0.050114 0.000000 0.000000
# 5 0.000000 0.000000 0.000000 0.000000 0.050114 0.000000
# 6 0.000000 0.000000 0.000000 0.000000 0.000000 -1.043517
#
#
# Mechanical properties :
#
#
# Convention : Reuss Voigt Hill
#
# Bulk Modulus (GPa) = 15.97158 65.26509 40.61833
# Shear Modulus (GPa) = -6.08890 22.79088 8.35099
#
# Velocity S-wave (km/s) = -1.71258 3.31330 2.00562
# Velocity P-wave (km/s) = 1.94491 6.78780 4.99284
#
# Compressibility (1/GPa) = 0.06261122
#
# Stress axis : x y z
#
# Youngs Moduli (GPa) = 89.83540 89.83540 16.75902
#
# Poissons Ratio (x) = 0.66973 0.01848
# Poissons Ratio (y) = 0.66973 0.01848
# Poissons Ratio (z) = 0.09907 0.09907
#
# Static dielectric constant tensor:
#      x y z
#    x 1.741050 0.000000 0.000000 
#    y 0.000000 1.741050 0.000000 
#    z 0.000000 0.000000 1.795760 
# 
# From -- ./inp_files/11260.got.cif
#   From: 2010.05.17/outbox.cif.g08.bks.cpg/sg131_6_cif.got.tgz:11260.got - 2010.05.20 12:21:01.
