data_PCOD9566762
_publ_section_title
;
Structure prediction by ZEFSAII (Michael W. Deem and Ramdas Pophale) SiO2 
 PCOD9566762
Probable space group: P 42/M M C
;
_chemical_formula_sum "Si O2"
_cell_formula_units_Z 56
_cell_length_a 14.381460
_cell_length_b 14.381460
_cell_length_c 14.131218
_cell_angle_alpha 90.000000
_cell_angle_beta 90.000000
_cell_angle_gamma 90.000000
_cell_volume 2922.708830
_symmetry_space_group_name_H-M "P 42/M M C"
_symmetry_group_IT_number 131
_symmetry_cell_setting 'tetragonal'
loop_
_space_group_symop_operation_xyz
x,y,z
-x,-y,z
-y,x,1/2+z
y,-x,1/2+z
-x,y,-z
x,-y,-z
y,x,1/2-z
-y,-x,1/2-z
-x,-y,-z
x,y,-z
y,-x,1/2-z
-y,x,1/2-z
x,-y,z
-x,y,z
-y,-x,1/2+z
y,x,1/2+z
loop_
_atom_site_type_symbol
_atom_site_label
_atom_site_fract_x
_atom_site_fract_y
_atom_site_fract_z
Si Si1 0.219994 0.824116 0.108926
Si Si2 0.108789 0.637507 0.890851
Si Si3 0.000000 0.892010 0.616342
Si Si4 0.395835 0.749310 0.225737
O O1 0.141426 0.744519 0.109347
O O2 0.167919 0.912747 0.149262
O O3 0.313576 0.794043 0.162274
O O4 0.245817 0.841557 0.000000
O O5 0.182913 0.597260 0.816970
O O6 0.000000 0.625244 0.864984
O O7 0.119527 0.605552 0.000000
O O8 0.000000 0.892454 0.500000
O O9 0.000000 0.000000 0.643724
O O10 0.351613 0.648388 0.250000
O O11 0.500000 0.742583 0.184821
#
# Coordination Sequence:
#
# PCOD9566762 Si02
#       4
#    16  16   8  16
#     4   9  18  33  53  79 112 147 183 224 269 325
#     4   9  18  34  56  79 106 140 179 225 277 325
#     4   9  16  28  51  81 112 149 187 217 257 318
#     4  10  22  38  56  78 106 140 182 233 283 336
#
# _framework density 19.160309000000002
#
# number of rings (size 3 to 8) (size 9 to 14) (size 15 to 20)
#    0.000    2.714    0.000    0.857    2.000    5.429 
#    0.000    1.429    0.000    2.571    0.000    8.000 
#    0.000    0.000    0.000    0.000    0.000    0.000 
#
# Total GULP energy -311927.101706 kJ/mol
# GULP energy per Si atom -5570.126816 kJ/mol
# Density = 1.911670 g / cm^3
# Si number density = 19.160309 Si / 1000 Ang^3
#
#
#
# Elastic Constant Matrix: (Units=GPa)
#
#
# Indices 1 2 3 4 5 6 
#
# 1 139.9118 48.1829 19.0438 0.0000 0.0000 0.0000
# 2 48.1829 139.9164 19.0452 0.0000 0.0000 0.0000
# 3 19.0438 19.0452 60.7163 0.0000 0.0000 0.0000
# 4 0.0000 0.0000 0.0000 5.0571 0.0000 0.0000
# 5 0.0000 0.0000 0.0000 0.0000 5.0561 0.0000
# 6 0.0000 0.0000 0.0000 0.0000 0.0000 -0.3287
#
#
#
# Elastic Compliance Matrix: (Units=1/GPa)
#
#
# Indices 1 2 3 4 5 6 
#
# 1 0.008289 -0.002612 -0.001781 0.000000 0.000000 0.000000
# 2 -0.002612 0.008289 -0.001781 0.000000 0.000000 0.000000
# 3 -0.001781 -0.001781 0.017587 0.000000 0.000000 0.000000
# 4 0.000000 0.000000 0.000000 0.197742 0.000000 0.000000
# 5 0.000000 0.000000 0.000000 0.000000 0.197782 0.000000
# 6 0.000000 0.000000 0.000000 0.000000 0.000000 -3.042347
#
#
# Mechanical properties :
#
#
# Convention : Reuss Voigt Hill
#
# Bulk Modulus (GPa) = 45.83285 57.00980 51.42132
# Shear Modulus (GPa) = -1.92824 18.90840 8.49008
#
# Velocity S-wave (km/s) = -1.00427 3.14483 2.10730
# Velocity P-wave (km/s) = 4.75688 6.55784 5.72858
#
# Compressibility (1/GPa) = 0.02181841
#
# Stress axis : x y z
#
# Youngs Moduli (GPa) = 120.63720 120.64062 56.85987
#
# Poissons Ratio (x) = 0.31514 0.10124
# Poissons Ratio (y) = 0.31513 0.10125
# Poissons Ratio (z) = 0.21480 0.21483
#
# Static dielectric constant tensor:
#      x y z
#    x 1.676750 0.000000 0.000000 
#    y 0.000000 1.676750 0.000000 
#    z 0.000000 0.000000 1.724810 
# 
# From -- ./inp_files/5268.got.cif
#   From: 2010.05.17/outbox.cif.g08.bks.cpg/sg131_3_cif.got.tgz:5268.got - 2010.05.20 12:21:01.
