data_PCOD9566645
_publ_section_title
;
Structure prediction by ZEFSAII (Michael W. Deem and Ramdas Pophale) SiO2 
 PCOD9566645
Probable space group: P 42/M M C
;
_chemical_formula_sum "Si O2"
_cell_formula_units_Z 72
_cell_length_a 14.488323
_cell_length_b 14.488323
_cell_length_c 18.107368
_cell_angle_alpha 90.000000
_cell_angle_beta 90.000000
_cell_angle_gamma 90.000000
_cell_volume 3800.944839
_symmetry_space_group_name_H-M "P 42/M M C"
_symmetry_group_IT_number 131
_symmetry_cell_setting 'tetragonal'
loop_
_space_group_symop_operation_xyz
x,y,z
-x,-y,z
-y,x,1/2+z
y,-x,1/2+z
-x,y,-z
x,-y,-z
y,x,1/2-z
-y,-x,1/2-z
-x,-y,-z
x,y,-z
y,-x,1/2-z
-y,x,1/2-z
x,-y,z
-x,y,z
-y,-x,1/2+z
y,x,1/2+z
loop_
_atom_site_type_symbol
_atom_site_label
_atom_site_fract_x
_atom_site_fract_y
_atom_site_fract_z
Si Si1 0.102635 0.500000 0.138215
Si Si2 0.896275 0.706783 0.806437
Si Si3 0.292955 0.500000 0.079675
Si Si4 0.601289 0.354070 0.169880
Si Si5 0.819040 0.716643 0.350449
Si Si6 0.612480 0.111272 0.000000
O O1 0.113501 0.595880 0.182943
O O2 0.183761 0.500000 0.079881
O O3 0.000000 0.500000 0.106665
O O4 0.888309 0.726970 0.718610
O O5 0.814296 0.761998 0.849366
O O6 0.000000 0.731631 0.832027
O O7 0.328376 0.589223 0.121332
O O8 0.335183 0.500000 0.000000
O O9 0.601225 0.398776 0.250000
O O10 0.500000 0.356652 0.136787
O O11 0.639414 0.252326 0.178153
O O12 0.855421 0.671907 0.427446
O O13 0.500000 0.139030 0.000000
O O14 0.611590 0.000000 0.000000
#
# Coordination Sequence:
#
# PCOD9566645 Si02
#       6
#     8  16   8  16  16   8
#     4  10  20  38  61  87 120 162 215 264 317 365
#     4  10  21  38  65  93 120 165 219 270 312 366
#     4  12  25  39  56  85 124 161 215 264 307 377
#     4  12  23  37  58  83 120 170 212 253 313 373
#     4  11  22  39  63  90 130 162 211 265 318 385
#     4  11  26  44  65  98 135 168 199 250 328 398
#
# _framework density 18.942657000000001
#
# number of rings (size 3 to 8) (size 9 to 14) (size 15 to 20)
#    0.000    1.000    5.556    1.667    4.667    1.111 
#    0.000    0.556    0.000   12.000    0.000    0.000 
#    0.000    0.000    0.000    0.000    0.000    0.000 
#
# Total GULP energy -400944.506061 kJ/mol
# GULP energy per Si atom -5568.673695 kJ/mol
# Density = 1.889954 g / cm^3
# Si number density = 18.942657 Si / 1000 Ang^3
#
#
#
# Elastic Constant Matrix: (Units=GPa)
#
#
# Indices 1 2 3 4 5 6 
#
# 1 126.9014 41.0294 32.8666 0.0000 0.0000 0.0000
# 2 41.0294 126.9013 32.8666 0.0000 0.0000 0.0000
# 3 32.8666 32.8666 94.4048 0.0000 0.0000 0.0000
# 4 0.0000 0.0000 0.0000 -1.1065 0.0000 0.0000
# 5 0.0000 0.0000 0.0000 0.0000 -1.1058 0.0000
# 6 0.0000 0.0000 0.0000 0.0000 0.0000 28.8759
#
#
#
# Elastic Compliance Matrix: (Units=1/GPa)
#
#
# Indices 1 2 3 4 5 6 
#
# 1 0.009270 -0.002375 -0.002400 0.000000 0.000000 0.000000
# 2 -0.002375 0.009270 -0.002400 0.000000 0.000000 0.000000
# 3 -0.002400 -0.002400 0.012264 0.000000 0.000000 0.000000
# 4 0.000000 0.000000 0.000000 -0.903770 0.000000 0.000000
# 5 0.000000 0.000000 0.000000 0.000000 -0.904331 0.000000
# 6 0.000000 0.000000 0.000000 0.000000 0.000000 0.034631
#
#
# Mechanical properties :
#
#
# Convention : Reuss Voigt Hill
#
# Bulk Modulus (GPa) = 60.78394 62.41473 61.59934
# Shear Modulus (GPa) = -2.90220 21.42905 9.26343
#
# Velocity S-wave (km/s) = -1.23912 3.36707 2.21379
# Velocity P-wave (km/s) = 5.48733 6.93809 6.25491
#
# Compressibility (1/GPa) = 0.01645171
#
# Stress axis : x y z
#
# Youngs Moduli (GPa) = 107.87724 107.87707 81.53981
#
# Poissons Ratio (x) = 0.25626 0.19571
# Poissons Ratio (y) = 0.25626 0.19572
# Poissons Ratio (z) = 0.25893 0.25893
#
# Static dielectric constant tensor:
#      x y z
#    x 1.676400 0.000000 0.000000 
#    y 0.000000 1.676400 0.000000 
#    z 0.000000 0.000000 1.661900 
# 
# From -- ./inp_files/7659.got.cif
#   From: 2010.05.17/outbox.cif.g08.bks.cpg/sg131_4_cif.got.tgz:7659.got - 2010.05.20 12:21:01.
