data_PCOD9566822
_publ_section_title
;
Structure prediction by ZEFSAII (Michael W. Deem and Ramdas Pophale) SiO2 
 PCOD9566822
Probable space group: P 42/M M C
;
_chemical_formula_sum "Si O2"
_cell_formula_units_Z 64
_cell_length_a 14.236529
_cell_length_b 14.236529
_cell_length_c 17.775011
_cell_angle_alpha 90.000000
_cell_angle_beta 90.000000
_cell_angle_gamma 90.000000
_cell_volume 3602.617152
_symmetry_space_group_name_H-M "P 42/M M C"
_symmetry_group_IT_number 131
_symmetry_cell_setting 'tetragonal'
loop_
_space_group_symop_operation_xyz
x,y,z
-x,-y,z
-y,x,1/2+z
y,-x,1/2+z
-x,y,-z
x,-y,-z
y,x,1/2-z
-y,-x,1/2-z
-x,-y,-z
x,y,-z
y,-x,1/2-z
-y,x,1/2-z
x,-y,z
-x,y,z
-y,-x,1/2+z
y,x,1/2+z
loop_
_atom_site_type_symbol
_atom_site_label
_atom_site_fract_x
_atom_site_fract_y
_atom_site_fract_z
Si Si1 0.608365 0.138813 0.087202
Si Si2 0.601978 0.635082 0.913692
Si Si3 0.108312 0.265763 0.265411
Si Si4 0.604123 0.255510 0.293314
O O1 0.500000 0.107903 0.103570
O O2 0.605924 0.251902 0.088511
O O3 0.685226 0.112726 0.150914
O O4 0.629763 0.111261 0.000000
O O5 0.500000 0.606665 0.880478
O O6 0.694405 0.599566 0.873177
O O7 0.601783 0.607072 0.000000
O O8 0.174766 0.174766 0.250000
O O9 0.156043 0.345107 0.212660
O O10 0.000000 0.246128 0.248901
O O11 0.671255 0.328746 0.250000
O O12 0.500000 0.249524 0.260677
#
# Coordination Sequence:
#
# PCOD9566822 Si02
#       4
#    16  16  16  16
#     4   9  17  33  59  88 115 141 175 224 279 332
#     4   9  17  31  52  78 110 147 184 220 258 307
#     4  11  23  39  58  80 108 142 181 228 284 338
#     4  11  21  33  50  77 112 147 182 217 261 318
#
# _framework density 17.764862000000001
#
# number of rings (size 3 to 8) (size 9 to 14) (size 15 to 20)
#    0.000    2.000    5.000    3.000    0.000    5.000 
#    0.000    2.500    0.000    3.000    0.000    3.500 
#    0.000    0.000    0.000    0.000    0.000    0.000 
#
# Total GULP energy -356414.186025 kJ/mol
# GULP energy per Si atom -5568.971657 kJ/mol
# Density = 1.772443 g / cm^3
# Si number density = 17.764862 Si / 1000 Ang^3
#
#
#
# Elastic Constant Matrix: (Units=GPa)
#
#
# Indices 1 2 3 4 5 6 
#
# 1 137.0179 46.9878 35.7507 0.0000 0.0000 0.0000
# 2 46.9878 137.0179 35.7504 0.0000 0.0000 0.0000
# 3 35.7507 35.7504 88.5970 0.0000 0.0000 0.0000
# 4 0.0000 0.0000 0.0000 2.1983 0.0000 0.0000
# 5 0.0000 0.0000 0.0000 0.0000 2.1943 0.0000
# 6 0.0000 0.0000 0.0000 0.0000 0.0000 72.6579
#
#
#
# Elastic Compliance Matrix: (Units=1/GPa)
#
#
# Indices 1 2 3 4 5 6 
#
# 1 0.008776 -0.002331 -0.002601 0.000000 0.000000 0.000000
# 2 -0.002331 0.008776 -0.002601 0.000000 0.000000 0.000000
# 3 -0.002601 -0.002601 0.013386 0.000000 0.000000 0.000000
# 4 0.000000 0.000000 0.000000 0.454891 0.000000 0.000000
# 5 0.000000 0.000000 0.000000 0.000000 0.455733 0.000000
# 6 0.000000 0.000000 0.000000 0.000000 0.000000 0.013763
#
#
# Mechanical properties :
#
#
# Convention : Reuss Voigt Hill
#
# Bulk Modulus (GPa) = 62.99864 66.62339 64.81101
# Shear Modulus (GPa) = 5.12462 31.68637 18.40549
#
# Velocity S-wave (km/s) = 1.70028 4.22791 3.22228
# Velocity P-wave (km/s) = 6.27647 7.83696 7.09972
#
# Compressibility (1/GPa) = 0.01587336
#
# Stress axis : x y z
#
# Youngs Moduli (GPa) = 113.94300 113.94324 74.70500
#
# Poissons Ratio (x) = 0.26561 0.19429
# Poissons Ratio (y) = 0.26561 0.19429
# Poissons Ratio (z) = 0.29634 0.29634
#
# Static dielectric constant tensor:
#      x y z
#    x 1.626370 0.000000 0.000000 
#    y 0.000000 1.626370 0.000000 
#    z 0.000000 0.000000 1.684960 
# 
# From -- ./inp_files/7341.got.cif
#   From: 2010.05.17/outbox.cif.g08.bks.cpg/sg131_4_cif.got.tgz:7341.got - 2010.05.20 12:21:01.
