data_PCOD9566854
_publ_section_title
;
Structure prediction by ZEFSAII (Michael W. Deem and Ramdas Pophale) SiO2 
 PCOD9566854
Probable space group: P 42/M M C
;
_chemical_formula_sum "Si O2"
_cell_formula_units_Z 42
_cell_length_a 10.969388
_cell_length_b 10.969388
_cell_length_c 16.434664
_cell_angle_alpha 90.000000
_cell_angle_beta 90.000000
_cell_angle_gamma 90.000000
_cell_volume 1977.541590
_symmetry_space_group_name_H-M "P 42/M M C"
_symmetry_group_IT_number 131
_symmetry_cell_setting 'tetragonal'
loop_
_space_group_symop_operation_xyz
x,y,z
-x,-y,z
-y,x,1/2+z
y,-x,1/2+z
-x,y,-z
x,-y,-z
y,x,1/2-z
-y,-x,1/2-z
-x,-y,-z
x,y,-z
y,-x,1/2-z
-y,x,1/2-z
x,-y,z
-x,y,z
-y,-x,1/2+z
y,x,1/2+z
loop_
_atom_site_type_symbol
_atom_site_label
_atom_site_fract_x
_atom_site_fract_y
_atom_site_fract_z
Si Si1 0.229339 0.500000 0.314289
Si Si2 0.500000 0.500000 0.750000
Si Si3 0.500000 0.854189 0.369961
Si Si4 0.238933 0.250258 0.405987
Si Si5 0.000000 0.143295 0.906719
O O1 0.375409 0.500000 0.300224
O O2 0.162690 0.500000 0.227589
O O3 0.204253 0.374281 0.361045
O O4 0.617984 0.782418 0.402029
O O5 0.500000 0.000000 0.390305
O O6 0.199871 0.261136 0.500000
O O7 0.182683 0.127094 0.368046
O O8 0.000000 0.000000 0.912784
O O9 0.000000 0.195659 0.000000
#
# Coordination Sequence:
#
# PCOD9566854 Si02
#       5
#     8   2   8  16   8
#     4  12  23  41  60  92 133 171 211 262 339 398
#     4  12  20  36  58  76 120 168 190 248 324 400
#     4  12  23  38  63  92 130 166 214 267 328 389
#     4  11  22  39  66  95 125 168 220 270 323 387
#     4   9  20  39  63  91 125 160 207 270 325 376
#
# _framework density 21.238492000000001
#
# number of rings (size 3 to 8) (size 9 to 14) (size 15 to 20)
#    0.000    0.952    5.714    1.143    0.000    2.286 
#    0.000    2.857    0.000    5.714    0.000    0.000 
#    0.000    0.000    0.000    0.000    0.000    0.000 
#
# Total GULP energy -234572.710723 kJ/mol
# GULP energy per Si atom -5585.064541 kJ/mol
# Density = 2.119015 g / cm^3
# Si number density = 21.238492 Si / 1000 Ang^3
#
#
#
# Elastic Constant Matrix: (Units=GPa)
#
#
# Indices 1 2 3 4 5 6 
#
# 1 112.9059 19.2602 15.2519 0.0000 0.0000 0.0000
# 2 19.2602 112.9059 15.2519 0.0000 0.0000 0.0000
# 3 15.2519 15.2519 64.2415 0.0000 0.0000 0.0000
# 4 0.0000 0.0000 0.0000 21.0563 0.0000 0.0000
# 5 0.0000 0.0000 0.0000 0.0000 21.0563 0.0000
# 6 0.0000 0.0000 0.0000 0.0000 0.0000 -1.3557
#
#
#
# Elastic Compliance Matrix: (Units=1/GPa)
#
#
# Indices 1 2 3 4 5 6 
#
# 1 0.009342 -0.001337 -0.001900 0.000000 0.000000 0.000000
# 2 -0.001337 0.009342 -0.001900 0.000000 0.000000 0.000000
# 3 -0.001900 -0.001900 0.016469 0.000000 0.000000 0.000000
# 4 0.000000 0.000000 0.000000 0.047492 0.000000 0.000000
# 5 0.000000 0.000000 0.000000 0.000000 0.047492 0.000000
# 6 0.000000 0.000000 0.000000 0.000000 0.000000 -0.737647
#
#
# Mechanical properties :
#
#
# Convention : Reuss Voigt Hill
#
# Bulk Modulus (GPa) = 40.19859 43.28681 41.74270
# Shear Modulus (GPa) = -8.48978 24.17068 7.84045
#
# Velocity S-wave (km/s) = -2.00151 3.37717 1.92344
# Velocity P-wave (km/s) = 3.69147 5.96931 4.96284
#
# Compressibility (1/GPa) = 0.02487649
#
# Stress axis : x y z
#
# Youngs Moduli (GPa) = 107.04679 107.04679 60.72136
#
# Poissons Ratio (x) = 0.14310 0.11540
# Poissons Ratio (y) = 0.14310 0.11540
# Poissons Ratio (z) = 0.20344 0.20344
#
# Static dielectric constant tensor:
#      x y z
#    x 1.801040 0.000000 0.000000 
#    y 0.000000 1.801040 0.000000 
#    z 0.000000 0.000000 1.783910 
# 
# From -- ./inp_files/6941.got.cif
#   From: 2010.05.17/outbox.cif.g08.bks.cpg/sg131_4_cif.got.tgz:6941.got - 2010.05.20 12:21:01.
