data_PCOD9566713
_publ_section_title
;
Structure prediction by ZEFSAII (Michael W. Deem and Ramdas Pophale) SiO2 
 PCOD9566713
Probable space group: P 42/M M C
;
_chemical_formula_sum "Si O2"
_cell_formula_units_Z 72
_cell_length_a 18.064799
_cell_length_b 18.064799
_cell_length_c 10.864147
_cell_angle_alpha 90.000000
_cell_angle_beta 90.000000
_cell_angle_gamma 90.000000
_cell_volume 3545.372737
_symmetry_space_group_name_H-M "P 42/M M C"
_symmetry_group_IT_number 131
_symmetry_cell_setting 'tetragonal'
loop_
_space_group_symop_operation_xyz
x,y,z
-x,-y,z
-y,x,1/2+z
y,-x,1/2+z
-x,y,-z
x,-y,-z
y,x,1/2-z
-y,-x,1/2-z
-x,-y,-z
x,y,-z
y,-x,1/2-z
-y,x,1/2-z
x,-y,z
-x,y,z
-y,-x,1/2+z
y,x,1/2+z
loop_
_atom_site_type_symbol
_atom_site_label
_atom_site_fract_x
_atom_site_fract_y
_atom_site_fract_z
Si Si1 0.410109 0.000000 0.639482
Si Si2 0.791962 0.274974 0.368892
Si Si3 0.412684 0.322527 0.356950
Si Si4 0.916277 0.848794 0.633931
Si Si5 0.414253 0.839672 0.249629
O O1 0.390057 0.079740 0.698165
O O2 0.500000 0.000000 0.637178
O O3 0.382202 0.000000 0.500000
O O4 0.744559 0.255442 0.250000
O O5 0.754710 0.260728 0.500000
O O6 0.861688 0.220493 0.361098
O O7 0.818845 0.358497 0.358320
O O8 0.366090 0.366090 0.250000
O O9 0.392849 0.341198 0.500000
O O10 0.500000 0.340840 0.340349
O O11 0.408522 0.232566 0.338823
O O12 0.899534 0.899534 0.750000
O O13 0.904885 0.885776 0.500000
O O14 0.000000 0.822506 0.639897
O O15 0.500000 0.845785 0.214054
#
# Coordination Sequence:
#
# PCOD9566713 Si02
#       5
#     8  16  16  16  16
#     4   9  18  34  55  81 117 159 200 243 292 351
#     4  10  22  39  60  84 116 154 194 239 288 347
#     4  10  22  40  62  89 122 159 199 246 300 358
#     4   9  19  36  57  80 110 147 184 226 280 337
#     4  10  21  36  58  88 119 154 198 246 297 350
#
# _framework density 20.308161999999999
#
# number of rings (size 3 to 8) (size 9 to 14) (size 15 to 20)
#    0.000    2.333    0.000    1.333    1.556    8.889 
#    0.000    4.444    0.000    2.000    0.000    0.000 
#    0.000    0.000    0.000    0.000    0.000    0.000 
#
# Total GULP energy -401027.729200 kJ/mol
# GULP energy per Si atom -5569.829572 kJ/mol
# Density = 2.026194 g / cm^3
# Si number density = 20.308162 Si / 1000 Ang^3
#
#
#
# Elastic Constant Matrix: (Units=GPa)
#
#
# Indices 1 2 3 4 5 6 
#
# 1 105.4321 30.7850 60.2095 0.0000 0.0000 0.0000
# 2 30.7850 105.4325 60.2095 0.0000 0.0000 0.0000
# 3 60.2095 60.2095 168.7439 0.0000 0.0000 0.0000
# 4 0.0000 0.0000 0.0000 8.2491 0.0000 0.0000
# 5 0.0000 0.0000 0.0000 0.0000 8.2478 0.0000
# 6 0.0000 0.0000 0.0000 0.0000 0.0000 6.6805
#
#
#
# Elastic Compliance Matrix: (Units=1/GPa)
#
#
# Indices 1 2 3 4 5 6 
#
# 1 0.012060 -0.001336 -0.003826 0.000000 0.000000 0.000000
# 2 -0.001336 0.012060 -0.003826 0.000000 0.000000 0.000000
# 3 -0.003826 -0.003826 0.008657 0.000000 0.000000 0.000000
# 4 0.000000 0.000000 0.000000 0.121225 0.000000 0.000000
# 5 0.000000 0.000000 0.000000 0.000000 0.121244 0.000000
# 6 0.000000 0.000000 0.000000 0.000000 0.000000 0.149690
#
#
# Mechanical properties :
#
#
# Convention : Reuss Voigt Hill
#
# Bulk Modulus (GPa) = 67.57277 75.77962 71.67620
# Shear Modulus (GPa) = 11.16453 19.86245 15.51349
#
# Velocity S-wave (km/s) = 2.34723 3.13078 2.76688
# Velocity P-wave (km/s) = 6.37902 7.10386 6.75118
#
# Compressibility (1/GPa) = 0.01479886
#
# Stress axis : x y z
#
# Youngs Moduli (GPa) = 82.91807 82.91855 115.51739
#
# Poissons Ratio (x) = 0.11080 0.44201
# Poissons Ratio (y) = 0.11080 0.44201
# Poissons Ratio (z) = 0.31728 0.31727
#
# Static dielectric constant tensor:
#      x y z
#    x 1.732120 0.000000 0.000000 
#    y 0.000000 1.732120 0.000000 
#    z 0.000000 0.000000 1.761130 
# 
# From -- ./inp_files/3926.got.cif
#   From: 2010.05.17/outbox.cif.g08.bks.cpg/sg131_2_cif.got.tgz:3926.got - 2010.05.20 12:21:01.
