data_PCOD9566214
_publ_section_title
;
Structure prediction by ZEFSAII (Michael W. Deem and Ramdas Pophale) SiO2 
 PCOD9566214
Probable space group: P 42/M M C
;
_chemical_formula_sum "Si O2"
_cell_formula_units_Z 88
_cell_length_a 14.490398
_cell_length_b 14.490398
_cell_length_c 25.200313
_cell_angle_alpha 90.000000
_cell_angle_beta 90.000000
_cell_angle_gamma 90.000000
_cell_volume 5291.350903
_symmetry_space_group_name_H-M "P 42/M M C"
_symmetry_group_IT_number 131
_symmetry_cell_setting 'tetragonal'
loop_
_space_group_symop_operation_xyz
x,y,z
-x,-y,z
-y,x,1/2+z
y,-x,1/2+z
-x,y,-z
x,-y,-z
y,x,1/2-z
-y,-x,1/2-z
-x,-y,-z
x,y,-z
y,-x,1/2-z
-y,x,1/2-z
x,-y,z
-x,y,z
-y,-x,1/2+z
y,x,1/2+z
loop_
_atom_site_type_symbol
_atom_site_label
_atom_site_fract_x
_atom_site_fract_y
_atom_site_fract_z
Si Si1 0.603432 0.603432 0.250000
Si Si2 0.390644 0.106755 0.833570
Si Si3 0.898976 0.889088 0.090920
Si Si4 0.394749 0.195086 0.280988
Si Si5 0.107104 0.210051 0.797428
Si Si6 0.299399 0.112321 0.057069
O O1 0.609444 0.500000 0.274526
O O2 0.609853 0.694244 0.286296
O O3 0.500000 0.104020 0.842727
O O4 0.376460 0.167447 0.780946
O O5 0.344464 0.142513 0.887520
O O6 0.360094 0.000000 0.823591
O O7 0.887276 0.853806 0.150908
O O8 0.808101 0.861118 0.059507
O O9 0.000000 0.857758 0.071578
O O10 0.899638 0.000000 0.090838
O O11 0.500000 0.165170 0.293027
O O12 0.311778 0.145246 0.310712
O O13 0.165863 0.165863 0.750000
O O14 0.000000 0.215964 0.781560
O O15 0.305946 0.000000 0.058055
O O16 0.339218 0.142302 0.000000
#
# Coordination Sequence:
#
# PCOD9566214 Si02
#       6
#     8  16  16  16  16  16
#     4   9  18  32  48  66  89 116 148 182 213 254
#     4   9  17  28  42  62  89 117 143 173 211 260
#     4   9  18  30  42  59  84 113 147 184 219 258
#     4  10  19  31  47  67  91 120 150 181 222 267
#     4  11  20  29  43  63  89 121 152 182 217 260
#     4   9  17  28  42  59  80 110 147 184 221 260
#
# _framework density 16.630914000000001
#
# number of rings (size 3 to 8) (size 9 to 14) (size 15 to 20)
#    0.000    2.455    0.909    2.182    0.000    4.182 
#    0.000    3.636    0.000    0.000    0.000    0.000 
#    0.000    2.909    0.000   11.091    0.000    0.364 
#
# Total GULP energy -489946.859156 kJ/mol
# GULP energy per Si atom -5567.577945 kJ/mol
# Density = 1.659306 g / cm^3
# Si number density = 16.630914 Si / 1000 Ang^3
#
#
#
# Elastic Constant Matrix: (Units=GPa)
#
#
# Indices 1 2 3 4 5 6 
#
# 1 46.4289 11.1353 -2.4927 0.0000 0.0000 0.0000
# 2 11.1353 46.4289 -2.4927 0.0000 0.0000 0.0000
# 3 -2.4927 -2.4927 31.0529 0.0000 0.0000 0.0000
# 4 0.0000 0.0000 0.0000 5.7030 0.0000 0.0000
# 5 0.0000 0.0000 0.0000 0.0000 5.7030 0.0000
# 6 0.0000 0.0000 0.0000 0.0000 0.0000 21.1146
#
#
#
# Elastic Compliance Matrix: (Units=1/GPa)
#
#
# Indices 1 2 3 4 5 6 
#
# 1 0.022914 -0.005420 0.001404 0.000000 0.000000 0.000000
# 2 -0.005420 0.022914 0.001404 0.000000 0.000000 0.000000
# 3 0.001404 0.001404 0.032429 0.000000 0.000000 0.000000
# 4 0.000000 0.000000 0.000000 0.175346 0.000000 0.000000
# 5 0.000000 0.000000 0.000000 0.000000 0.175346 0.000000
# 6 0.000000 0.000000 0.000000 0.000000 0.000000 0.047361
#
#
# Mechanical properties :
#
#
# Convention : Reuss Voigt Hill
#
# Bulk Modulus (GPa) = 13.69254 15.13452 14.41353
# Shear Modulus (GPa) = 9.88386 14.35486 12.11936
#
# Velocity S-wave (km/s) = 2.44049 2.94112 2.70242
# Velocity P-wave (km/s) = 4.02397 4.54462 4.29220
#
# Compressibility (1/GPa) = 0.07303249
#
# Stress axis : x y z
#
# Youngs Moduli (GPa) = 43.64220 43.64219 30.83703
#
# Poissons Ratio (x) = 0.23654 -0.04330
# Poissons Ratio (y) = 0.23654 -0.04330
# Poissons Ratio (z) = -0.06128 -0.06128
#
# Static dielectric constant tensor:
#      x y z
#    x 1.598020 0.000000 0.000000 
#    y 0.000000 1.598020 0.000000 
#    z 0.000000 0.000000 1.575780 
# 
# From -- ./inp_files/12243.got.cif
#   From: 2010.05.17/outbox.cif.g08.bks.cpg/sg131_7_cif.got.tgz:12243.got - 2010.05.20 12:21:01.
