data_PCOD9566057
_publ_section_title
;
Structure prediction by ZEFSAII (Michael W. Deem and Ramdas Pophale) SiO2 
 PCOD9566057
Probable space group: P 42/M M C
;
_chemical_formula_sum "Si O2"
_cell_formula_units_Z 96
_cell_length_a 17.989911
_cell_length_b 17.989911
_cell_length_c 17.798893
_cell_angle_alpha 90.000000
_cell_angle_beta 90.000000
_cell_angle_gamma 90.000000
_cell_volume 5760.378515
_symmetry_space_group_name_H-M "P 42/M M C"
_symmetry_group_IT_number 131
_symmetry_cell_setting 'tetragonal'
loop_
_space_group_symop_operation_xyz
x,y,z
-x,-y,z
-y,x,1/2+z
y,-x,1/2+z
-x,y,-z
x,-y,-z
y,x,1/2-z
-y,-x,1/2-z
-x,-y,-z
x,y,-z
y,-x,1/2-z
-y,x,1/2-z
x,-y,z
-x,y,z
-y,-x,1/2+z
y,x,1/2+z
loop_
_atom_site_type_symbol
_atom_site_label
_atom_site_fract_x
_atom_site_fract_y
_atom_site_fract_z
Si Si1 0.414425 0.194530 0.649395
Si Si2 0.204685 0.086970 0.262567
Si Si3 0.413888 0.628672 0.335764
Si Si4 0.269540 0.582871 0.588338
Si Si5 0.799198 0.684010 0.289082
Si Si6 0.706261 0.913059 0.415090
O O1 0.500000 0.173263 0.639882
O O2 0.409406 0.284033 0.642084
O O3 0.383480 0.181890 0.733240
O O4 0.360372 0.145389 0.597814
O O5 0.126357 0.126357 0.250000
O O6 0.262632 0.129888 0.208726
O O7 0.235329 0.100329 0.347653
O O8 0.203083 0.000000 0.249246
O O9 0.386581 0.613420 0.250000
O O10 0.500000 0.606075 0.340927
O O11 0.356106 0.587315 0.388860
O O12 0.260351 0.592477 0.500000
O O13 0.242573 0.500000 0.609853
O O14 0.229955 0.647798 0.635070
O O15 0.735179 0.735179 0.250000
O O16 0.735591 0.904286 0.500000
O O17 0.682023 0.000000 0.407377
#
# Coordination Sequence:
#
# PCOD9566057 Si02
#       6
#    16  16  16  16  16  16
#     4  10  18  29  49  72  97 133 173 212 253 305
#     4   9  19  35  58  86 111 137 170 205 245 297
#     4  11  21  34  51  71  97 134 179 225 273 324
#     4  11  22  34  50  72  99 134 177 227 278 317
#     4  10  17  34  54  73  97 133 174 215 252 305
#     4   9  19  35  53  76 108 140 168 203 251 307
#
# _framework density 16.665571
#
# number of rings (size 3 to 8) (size 9 to 14) (size 15 to 20)
#    0.000    2.000    3.333    1.000    0.000    3.000 
#    0.000    3.333    0.000    3.500    0.000    3.500 
#    0.000    0.000    0.000    0.000    0.000    0.000 
#
# Total GULP energy -535036.003055 kJ/mol
# GULP energy per Si atom -5573.291698 kJ/mol
# Density = 1.662764 g / cm^3
# Si number density = 16.665571 Si / 1000 Ang^3
#
#
#
# Elastic Constant Matrix: (Units=GPa)
#
#
# Indices 1 2 3 4 5 6 
#
# 1 86.0565 70.3880 45.6164 0.0000 0.0000 0.0000
# 2 70.3880 86.0570 45.6162 0.0000 0.0000 0.0000
# 3 45.6164 45.6162 68.8618 0.0000 0.0000 0.0000
# 4 0.0000 0.0000 0.0000 13.1759 0.0000 0.0000
# 5 0.0000 0.0000 0.0000 0.0000 13.1759 0.0000
# 6 0.0000 0.0000 0.0000 0.0000 0.0000 19.7940
#
#
#
# Elastic Compliance Matrix: (Units=1/GPa)
#
#
# Indices 1 2 3 4 5 6 
#
# 1 0.037119 -0.026703 -0.006900 0.000000 0.000000 0.000000
# 2 -0.026703 0.037118 -0.006899 0.000000 0.000000 0.000000
# 3 -0.006900 -0.006899 0.023663 0.000000 0.000000 0.000000
# 4 0.000000 0.000000 0.000000 0.075896 0.000000 0.000000
# 5 0.000000 0.000000 0.000000 0.000000 0.075896 0.000000
# 6 0.000000 0.000000 0.000000 0.000000 0.000000 0.050520
#
#
# Mechanical properties :
#
#
# Convention : Reuss Voigt Hill
#
# Bulk Modulus (GPa) = 59.18700 62.69072 60.93886
# Shear Modulus (GPa) = 12.92496 14.51949 13.72222
#
# Velocity S-wave (km/s) = 2.78789 2.95486 2.87259
# Velocity P-wave (km/s) = 6.77899 7.02425 6.90271
#
# Compressibility (1/GPa) = 0.01689560
#
# Stress axis : x y z
#
# Youngs Moduli (GPa) = 26.94054 26.94087 42.26016
#
# Poissons Ratio (x) = 0.71940 0.29159
# Poissons Ratio (y) = 0.71939 0.29157
# Poissons Ratio (z) = 0.18589 0.18588
#
# Static dielectric constant tensor:
#      x y z
#    x 1.576650 0.000000 0.000000 
#    y 0.000000 1.576650 0.000000 
#    z 0.000000 0.000000 1.559630 
# 
# From -- ./inp_files/7940.got.cif
#   From: 2010.05.17/outbox.cif.g08.bks.cpg/sg131_4_cif.got.tgz:7940.got - 2010.05.20 12:21:01.
