data_PCOD9566092
_publ_section_title
;
Structure prediction by ZEFSAII (Michael W. Deem and Ramdas Pophale) SiO2 
 PCOD9566092
Probable space group: P 42/M M C
;
_chemical_formula_sum "Si O2"
_cell_formula_units_Z 96
_cell_length_a 25.085708
_cell_length_b 25.085708
_cell_length_c 7.846155
_cell_angle_alpha 90.000000
_cell_angle_beta 90.000000
_cell_angle_gamma 90.000000
_cell_volume 4937.528424
_symmetry_space_group_name_H-M "P 42/M M C"
_symmetry_group_IT_number 131
_symmetry_cell_setting 'tetragonal'
loop_
_space_group_symop_operation_xyz
x,y,z
-x,-y,z
-y,x,1/2+z
y,-x,1/2+z
-x,y,-z
x,-y,-z
y,x,1/2-z
-y,-x,1/2-z
-x,-y,-z
x,y,-z
y,-x,1/2-z
-y,x,1/2-z
x,-y,z
-x,y,z
-y,-x,1/2+z
y,x,1/2+z
loop_
_atom_site_type_symbol
_atom_site_label
_atom_site_fract_x
_atom_site_fract_y
_atom_site_fract_z
Si Si1 0.353270 0.856466 0.205200
Si Si2 0.059219 0.561374 0.292000
Si Si3 0.561031 0.647327 0.294260
Si Si4 0.267497 0.353028 0.797900
Si Si5 0.058538 0.855160 0.704482
Si Si6 0.060139 0.733867 0.291679
O O1 0.403783 0.891042 0.266707
O O2 0.353295 0.794335 0.248648
O O3 0.302989 0.891446 0.266459
O O4 0.353193 0.858920 0.000000
O O5 0.059348 0.562541 0.500000
O O6 0.064160 0.500000 0.239936
O O7 0.000000 0.580856 0.240299
O O8 0.593999 0.593999 0.250000
O O9 0.559089 0.650635 0.500000
O O10 0.500000 0.647707 0.231798
O O11 0.597317 0.696932 0.229533
O O12 0.299218 0.299218 0.750000
O O13 0.269358 0.357055 0.000000
O O14 0.104465 0.895536 0.750000
O O15 0.056401 0.852399 0.500000
O O16 0.067719 0.794774 0.764573
O O17 0.000000 0.872703 0.766293
O O18 0.060319 0.732759 0.500000
O O19 0.000000 0.716755 0.241404
#
# Coordination Sequence:
#
# PCOD9566092 Si02
#       6
#    16  16  16  16  16  16
#     4  10  18  29  50  76  98 126 166 207 246 289
#     4   8  14  25  43  71 105 135 165 204 244 282
#     4   9  19  36  56  77 102 133 166 199 239 287
#     4  10  21  37  53  70  98 133 166 202 243 289
#     4   9  18  32  48  66  89 116 147 184 227 279
#     4   8  15  29  48  69  93 123 160 200 241 286
#
# _framework density 19.442924999999999
#
# number of rings (size 3 to 8) (size 9 to 14) (size 15 to 20)
#    0.000    3.000    0.000    2.500    0.000    5.000 
#    0.000    4.167    0.000    3.000    0.000    1.167 
#    0.000    0.000    0.000    0.000    0.000    0.000 
#
# Total GULP energy -535080.925504 kJ/mol
# GULP energy per Si atom -5573.759641 kJ/mol
# Density = 1.939867 g / cm^3
# Si number density = 19.442925 Si / 1000 Ang^3
#
#
#
# Elastic Constant Matrix: (Units=GPa)
#
#
# Indices 1 2 3 4 5 6 
#
# 1 168.5539 140.7507 9.8571 0.0000 0.0000 0.0000
# 2 140.7507 168.5629 9.8565 0.0000 0.0000 0.0000
# 3 9.8571 9.8565 20.4705 0.0000 0.0000 0.0000
# 4 0.0000 0.0000 0.0000 10.2196 0.0000 0.0000
# 5 0.0000 0.0000 0.0000 0.0000 10.2189 0.0000
# 6 0.0000 0.0000 0.0000 0.0000 0.0000 41.5265
#
#
#
# Elastic Compliance Matrix: (Units=1/GPa)
#
#
# Indices 1 2 3 4 5 6 
#
# 1 0.019649 -0.016313 -0.001607 0.000000 0.000000 0.000000
# 2 -0.016313 0.019648 -0.001605 0.000000 0.000000 0.000000
# 3 -0.001607 -0.001605 0.050397 0.000000 0.000000 0.000000
# 4 0.000000 0.000000 0.000000 0.097851 0.000000 0.000000
# 5 0.000000 0.000000 0.000000 0.000000 0.097858 0.000000
# 6 0.000000 0.000000 0.000000 0.000000 0.000000 0.024081
#
#
# Mechanical properties :
#
#
# Convention : Reuss Voigt Hill
#
# Bulk Modulus (GPa) = 19.74565 75.39065 47.56815
# Shear Modulus (GPa) = 13.68305 25.53453 19.60879
#
# Velocity S-wave (km/s) = 2.65572 3.62789 3.17918
# Velocity P-wave (km/s) = 4.42510 7.51055 6.16400
#
# Compressibility (1/GPa) = 0.05064407
#
# Stress axis : x y z
#
# Youngs Moduli (GPa) = 50.89346 50.89643 19.84229
#
# Poissons Ratio (x) = 0.83027 0.03188
# Poissons Ratio (y) = 0.83022 0.03185
# Poissons Ratio (z) = 0.08178 0.08170
#
# Static dielectric constant tensor:
#      x y z
#    x 1.726580 0.000000 0.000000 
#    y 0.000000 1.726580 0.000000 
#    z 0.000000 0.000000 1.676410 
# 
# From -- ./inp_files/2222.got.cif
#   From: 2010.05.17/outbox.cif.g08.bks.cpg/sg131_2_cif.got.tgz:2222.got - 2010.05.20 12:21:01.
