data_PCOD9566664
_publ_section_title
;
Structure prediction by ZEFSAII (Michael W. Deem and Ramdas Pophale) SiO2 
 PCOD9566664
Probable space group: P 42/M M C
;
_chemical_formula_sum "Si O2"
_cell_formula_units_Z 112
_cell_length_a 14.380518
_cell_length_b 14.380518
_cell_length_c 31.469602
_cell_angle_alpha 90.000000
_cell_angle_beta 90.000000
_cell_angle_gamma 90.000000
_cell_volume 6507.891600
_symmetry_space_group_name_H-M "P 42/M M C"
_symmetry_group_IT_number 131
_symmetry_cell_setting 'tetragonal'
loop_
_space_group_symop_operation_xyz
x,y,z
-x,-y,z
-y,x,1/2+z
y,-x,1/2+z
-x,y,-z
x,-y,-z
y,x,1/2-z
-y,-x,1/2-z
-x,-y,-z
x,y,-z
y,-x,1/2-z
-y,x,1/2-z
x,-y,z
-x,y,z
-y,-x,1/2+z
y,x,1/2+z
loop_
_atom_site_type_symbol
_atom_site_label
_atom_site_fract_x
_atom_site_fract_y
_atom_site_fract_z
Si Si1 0.393530 0.110514 0.618823
Si Si2 0.392153 0.893154 0.127137
Si Si3 0.205467 0.696974 0.802091
Si Si4 0.758349 0.893297 0.548751
Si Si5 0.724574 0.888295 0.952341
Si Si6 0.107057 0.105317 0.801302
Si Si7 0.780701 0.609156 0.714053
O O1 0.500000 0.127849 0.606685
O O2 0.365630 0.167324 0.660404
O O3 0.322428 0.133552 0.581209
O O4 0.384102 0.000000 0.627902
O O5 0.500000 0.890803 0.114432
O O6 0.334393 0.853135 0.087754
O O7 0.385331 0.845343 0.172671
O O8 0.363699 0.000000 0.132685
O O9 0.167987 0.802640 0.810725
O O10 0.317419 0.699722 0.797895
O O11 0.174114 0.655198 0.756398
O O12 0.724982 0.886681 0.500000
O O13 0.846096 0.826563 0.552943
O O14 0.784143 0.000000 0.556974
O O15 0.725005 0.000000 0.951287
O O16 0.690984 0.861276 0.000000
O O17 0.103450 0.103450 0.750000
O O18 0.000000 0.118607 0.816438
O O19 0.137621 0.000000 0.814821
O O20 0.757927 0.500000 0.721318
#
# Coordination Sequence:
#
# PCOD9566664 Si02
#       7
#    16  16  16  16  16  16  16
#     4  10  21  35  53  78 103 127 162 209 256 304
#     4   9  18  31  46  68  99 131 164 203 245 293
#     4  11  20  35  54  73  99 135 168 212 258 300
#     4   9  18  33  52  73 100 134 167 200 243 295
#     4   9  17  30  50  75 101 131 167 204 243 289
#     4   9  17  30  48  71  99 131 167 204 246 297
#     4  10  21  34  49  70  95 129 169 206 248 297
#
# _framework density 17.209873999999999
#
# number of rings (size 3 to 8) (size 9 to 14) (size 15 to 20)
#    0.000    2.429    1.429    2.143    0.000    2.571 
#    0.000    6.429    0.000    8.143    0.000    0.000 
#    0.000    0.000    0.000   12.286    0.000    0.429 
#
# Total GULP energy -623600.717673 kJ/mol
# GULP energy per Si atom -5567.863551 kJ/mol
# Density = 1.717070 g / cm^3
# Si number density = 17.209874 Si / 1000 Ang^3
#
#
#
# Elastic Constant Matrix: (Units=GPa)
#
#
# Indices 1 2 3 4 5 6 
#
# 1 42.4558 17.8335 16.5760 0.0000 0.0000 0.0000
# 2 17.8335 42.4558 16.5760 0.0000 0.0000 0.0000
# 3 16.5760 16.5760 71.8024 0.0000 0.0000 0.0000
# 4 0.0000 0.0000 0.0000 23.9962 0.0000 0.0000
# 5 0.0000 0.0000 0.0000 0.0000 23.9962 0.0000
# 6 0.0000 0.0000 0.0000 0.0000 0.0000 16.8729
#
#
#
# Elastic Compliance Matrix: (Units=1/GPa)
#
#
# Indices 1 2 3 4 5 6 
#
# 1 0.029806 -0.010808 -0.004386 0.000000 0.000000 0.000000
# 2 -0.010808 0.029806 -0.004386 0.000000 0.000000 0.000000
# 3 -0.004386 -0.004386 0.015952 0.000000 0.000000 0.000000
# 4 0.000000 0.000000 0.000000 0.041673 0.000000 0.000000
# 5 0.000000 0.000000 0.000000 0.000000 0.041673 0.000000
# 6 0.000000 0.000000 0.000000 0.000000 0.000000 0.059267
#
#
# Mechanical properties :
#
#
# Convention : Reuss Voigt Hill
#
# Bulk Modulus (GPa) = 27.46846 28.74277 28.10562
# Shear Modulus (GPa) = 18.55485 20.02161 19.28823
#
# Velocity S-wave (km/s) = 3.28708 3.41454 3.35142
# Velocity P-wave (km/s) = 5.51381 5.68181 5.59844
#
# Compressibility (1/GPa) = 0.03640538
#
# Stress axis : x y z
#
# Youngs Moduli (GPa) = 33.55034 33.55034 62.68764
#
# Poissons Ratio (x) = 0.36260 0.27494
# Poissons Ratio (y) = 0.36260 0.27494
# Poissons Ratio (z) = 0.14715 0.14715
#
# Static dielectric constant tensor:
#      x y z
#    x 1.592840 0.000000 0.000000 
#    y 0.000000 1.592840 0.000000 
#    z 0.000000 0.000000 1.611030 
# 
# From -- ./inp_files/13816.got.cif
#   From: 2010.05.17/outbox.cif.g08.bks.cpg/sg131_7_cif.got.tgz:13816.got - 2010.05.20 12:21:01.
