data_PCOD9566076
_publ_section_title
;
Structure prediction by ZEFSAII (Michael W. Deem and Ramdas Pophale) SiO2 
 PCOD9566076
Probable space group: P 42/M M C
;
_chemical_formula_sum "Si O2"
_cell_formula_units_Z 96
_cell_length_a 23.086300
_cell_length_b 23.086300
_cell_length_c 9.956796
_cell_angle_alpha 90.000000
_cell_angle_beta 90.000000
_cell_angle_gamma 90.000000
_cell_volume 5306.745728
_symmetry_space_group_name_H-M "P 42/M M C"
_symmetry_group_IT_number 131
_symmetry_cell_setting 'tetragonal'
loop_
_space_group_symop_operation_xyz
x,y,z
-x,-y,z
-y,x,1/2+z
y,-x,1/2+z
-x,y,-z
x,-y,-z
y,x,1/2-z
-y,-x,1/2-z
-x,-y,-z
x,y,-z
y,-x,1/2-z
-y,x,1/2-z
x,-y,z
-x,y,z
-y,-x,1/2+z
y,x,1/2+z
loop_
_atom_site_type_symbol
_atom_site_label
_atom_site_fract_x
_atom_site_fract_y
_atom_site_fract_z
Si Si1 0.174621 0.431734 0.843338
Si Si2 0.648819 0.718342 0.349245
Si Si3 0.933439 0.853963 0.342834
Si Si4 0.901217 0.279443 0.350587
Si Si5 0.935938 0.592751 0.654746
Si Si6 0.811984 0.252612 0.853014
O O1 0.187489 0.500000 0.842759
O O2 0.232639 0.396703 0.800144
O O3 0.117891 0.422919 0.750511
O O4 0.163304 0.413895 0.000000
O O5 0.666179 0.666179 0.250000
O O6 0.631602 0.699369 0.500000
O O7 0.708070 0.755377 0.364790
O O8 0.889851 0.889851 0.250000
O O9 0.921898 0.866424 0.500000
O O10 0.928703 0.783764 0.329625
O O11 0.000000 0.869881 0.312418
O O12 0.872278 0.277299 0.500000
O O13 0.938586 0.337160 0.351052
O O14 0.858857 0.289149 0.226055
O O15 0.925359 0.573624 0.500000
O O16 0.000000 0.571678 0.697126
O O17 0.798471 0.201530 0.750000
O O18 0.830403 0.233358 0.000000
#
# Coordination Sequence:
#
# PCOD9566076 Si02
#       6
#    16  16  16  16  16  16
#     4  10  21  38  57  78 108 146 187 226 265 312
#     4   9  18  32  51  77 107 139 173 213 261 311
#     4  10  22  39  56  74  97 125 160 204 258 322
#     4  10  19  33  53  74  98 127 161 205 259 314
#     4  10  21  36  54  76 104 140 183 229 274 318
#     4  10  18  28  45  71 101 128 159 198 247 305
#
# _framework density 18.090181999999999
#
# number of rings (size 3 to 8) (size 9 to 14) (size 15 to 20)
#    0.000    2.167    1.667    1.500    0.000    6.833 
#    0.000    2.500    0.000    3.000    0.000    0.000 
#    0.000    0.333    0.000    4.167    0.000    0.000 
#
# Total GULP energy -534454.942992 kJ/mol
# GULP energy per Si atom -5567.238990 kJ/mol
# Density = 1.804901 g / cm^3
# Si number density = 18.090182 Si / 1000 Ang^3
#
#
#
# Elastic Constant Matrix: (Units=GPa)
#
#
# Indices 1 2 3 4 5 6 
#
# 1 71.6964 29.8950 35.3328 0.0000 0.0000 0.0000
# 2 29.8950 71.6977 35.3332 0.0000 0.0000 0.0000
# 3 35.3328 35.3332 94.2925 0.0000 0.0000 0.0000
# 4 0.0000 0.0000 0.0000 17.7207 0.0000 0.0000
# 5 0.0000 0.0000 0.0000 0.0000 17.7205 0.0000
# 6 0.0000 0.0000 0.0000 0.0000 0.0000 6.3431
#
#
#
# Elastic Compliance Matrix: (Units=1/GPa)
#
#
# Indices 1 2 3 4 5 6 
#
# 1 0.018618 -0.005304 -0.004989 0.000000 0.000000 0.000000
# 2 -0.005304 0.018618 -0.004989 0.000000 0.000000 0.000000
# 3 -0.004989 -0.004989 0.014344 0.000000 0.000000 0.000000
# 4 0.000000 0.000000 0.000000 0.056431 0.000000 0.000000
# 5 0.000000 0.000000 0.000000 0.000000 0.056432 0.000000
# 6 0.000000 0.000000 0.000000 0.000000 0.000000 0.157651
#
#
# Mechanical properties :
#
#
# Convention : Reuss Voigt Hill
#
# Bulk Modulus (GPa) = 47.58320 48.75649 48.16984
# Shear Modulus (GPa) = 13.90190 17.49858 15.70024
#
# Velocity S-wave (km/s) = 2.77515 3.11351 2.94919
# Velocity P-wave (km/s) = 6.05219 6.31947 6.18728
#
# Compressibility (1/GPa) = 0.02101582
#
# Stress axis : x y z
#
# Youngs Moduli (GPa) = 53.71149 53.71242 69.71539
#
# Poissons Ratio (x) = 0.28491 0.34779
# Poissons Ratio (y) = 0.28491 0.34779
# Poissons Ratio (z) = 0.26795 0.26796
#
# Static dielectric constant tensor:
#      x y z
#    x 1.660780 0.000000 0.000000 
#    y 0.000000 1.660780 0.000000 
#    z 0.000000 0.000000 1.698600 
# 
# From -- ./inp_files/2291.got.cif
#   From: 2010.05.17/outbox.cif.g08.bks.cpg/sg131_2_cif.got.tgz:2291.got - 2010.05.20 12:21:01.
