data_PCOD9566895
_publ_section_title
;
Structure prediction by ZEFSAII (Michael W. Deem and Ramdas Pophale) SiO2 
 PCOD9566895
Probable space group: P 42/M M C
;
_chemical_formula_sum "Si O2"
_cell_formula_units_Z 64
_cell_length_a 15.246732
_cell_length_b 15.246732
_cell_length_c 14.332277
_cell_angle_alpha 90.000000
_cell_angle_beta 90.000000
_cell_angle_gamma 90.000000
_cell_volume 3331.721768
_symmetry_space_group_name_H-M "P 42/M M C"
_symmetry_group_IT_number 131
_symmetry_cell_setting 'tetragonal'
loop_
_space_group_symop_operation_xyz
x,y,z
-x,-y,z
-y,x,1/2+z
y,-x,1/2+z
-x,y,-z
x,-y,-z
y,x,1/2-z
-y,-x,1/2-z
-x,-y,-z
x,y,-z
y,-x,1/2-z
-y,x,1/2-z
x,-y,z
-x,y,z
-y,-x,1/2+z
y,x,1/2+z
loop_
_atom_site_type_symbol
_atom_site_label
_atom_site_fract_x
_atom_site_fract_y
_atom_site_fract_z
Si Si1 0.599236 0.399304 0.363385
Si Si2 0.899360 0.670854 0.898471
Si Si3 0.598582 0.103777 0.807367
Si Si4 0.273130 0.753701 0.860092
O O1 0.601172 0.398829 0.250000
O O2 0.616105 0.500000 0.391398
O O3 0.500000 0.375591 0.390805
O O4 0.672695 0.331802 0.395461
O O5 0.883607 0.614490 0.804598
O O6 0.825001 0.745640 0.897959
O O7 0.000000 0.702871 0.891033
O O8 0.892322 0.625111 0.000000
O O9 0.500000 0.134486 0.828997
O O10 0.670321 0.158062 0.865006
O O11 0.604738 0.000000 0.824832
O O12 0.261420 0.738581 0.750000
#
# Coordination Sequence:
#
# PCOD9566895 Si02
#       4
#    16  16  16  16
#     4   8  13  21  35  57  83 110 144 186 226 265
#     4   9  18  31  46  67  96 129 163 198 241 293
#     4   9  17  29  47  72  99 126 158 196 237 285
#     4   9  16  26  44  66  89 121 159 200 240 279
#
# _framework density 19.209287
#
# number of rings (size 3 to 8) (size 9 to 14) (size 15 to 20)
#    0.000    3.250    0.000    1.500    0.000    6.500 
#    0.000    2.500    0.000    4.500    0.000   10.500 
#    0.000    0.000    0.000    0.000    0.000    0.500 
#
# Total GULP energy -356373.205363 kJ/mol
# GULP energy per Si atom -5568.331334 kJ/mol
# Density = 1.916557 g / cm^3
# Si number density = 19.209287 Si / 1000 Ang^3
#
#
#
# Elastic Constant Matrix: (Units=GPa)
#
#
# Indices 1 2 3 4 5 6 
#
# 1 87.6467 59.4646 9.0864 0.0000 0.0000 0.0000
# 2 59.4646 87.6464 9.0865 0.0000 0.0000 0.0000
# 3 9.0864 9.0865 53.8501 0.0000 0.0000 0.0000
# 4 0.0000 0.0000 0.0000 -7.9135 0.0000 0.0000
# 5 0.0000 0.0000 0.0000 0.0000 -7.9134 0.0000
# 6 0.0000 0.0000 0.0000 0.0000 0.0000 21.8820
#
#
#
# Elastic Compliance Matrix: (Units=1/GPa)
#
#
# Indices 1 2 3 4 5 6 
#
# 1 0.021213 -0.014271 -0.001171 0.000000 0.000000 0.000000
# 2 -0.014271 0.021213 -0.001171 0.000000 0.000000 0.000000
# 3 -0.001171 -0.001171 0.018965 0.000000 0.000000 0.000000
# 4 0.000000 0.000000 0.000000 -0.126366 0.000000 0.000000
# 5 0.000000 0.000000 0.000000 0.000000 -0.126369 0.000000
# 6 0.000000 0.000000 0.000000 0.000000 0.000000 0.045700
#
#
# Mechanical properties :
#
#
# Convention : Reuss Voigt Hill
#
# Bulk Modulus (GPa) = 35.50592 42.71312 39.10952
# Shear Modulus (GPa) = -48.53019 11.31141 -18.60939
#
# Velocity S-wave (km/s) = -5.03178 2.42926 -3.11588
# Velocity P-wave (km/s) = 3.90314 5.49111 2.73110
#
# Compressibility (1/GPa) = 0.02816431
#
# Stress axis : x y z
#
# Youngs Moduli (GPa) = 47.14098 47.14078 52.72765
#
# Poissons Ratio (x) = 0.67273 0.06176
# Poissons Ratio (y) = 0.67274 0.06177
# Poissons Ratio (z) = 0.05522 0.05522
#
# Static dielectric constant tensor:
#      x y z
#    x 1.666640 0.000000 0.000000 
#    y 0.000000 1.666640 0.000000 
#    z 0.000000 0.000000 1.737850 
# 
# From -- ./inp_files/5446.got.cif
#   From: 2010.05.17/outbox.cif.g08.bks.cpg/sg131_3_cif.got.tgz:5446.got - 2010.05.20 12:21:01.
