data_PCOD9566488
_publ_section_title
;
Structure prediction by ZEFSAII (Michael W. Deem and Ramdas Pophale) SiO2 
 PCOD9566488
Probable space group: P 42/M M C
;
_chemical_formula_sum "Si O2"
_cell_formula_units_Z 120
_cell_length_a 27.366270
_cell_length_b 27.366270
_cell_length_c 9.459906
_cell_angle_alpha 90.000000
_cell_angle_beta 90.000000
_cell_angle_gamma 90.000000
_cell_volume 7084.644063
_symmetry_space_group_name_H-M "P 42/M M C"
_symmetry_group_IT_number 131
_symmetry_cell_setting 'tetragonal'
loop_
_space_group_symop_operation_xyz
x,y,z
-x,-y,z
-y,x,1/2+z
y,-x,1/2+z
-x,y,-z
x,-y,-z
y,x,1/2-z
-y,-x,1/2-z
-x,-y,-z
x,y,-z
y,-x,1/2-z
-y,x,1/2-z
x,-y,z
-x,y,z
-y,-x,1/2+z
y,x,1/2+z
loop_
_atom_site_type_symbol
_atom_site_label
_atom_site_fract_x
_atom_site_fract_y
_atom_site_fract_z
Si Si1 0.373168 0.558828 0.335501
Si Si2 0.442621 0.181465 0.165604
Si Si3 0.000000 0.556568 0.831872
Si Si4 0.277786 0.559271 0.161602
Si Si5 0.612696 0.081133 0.836250
Si Si6 0.868248 0.201315 0.833126
Si Si7 0.058009 0.727543 0.332214
Si Si8 0.884574 0.052619 0.661750
O O1 0.417345 0.582656 0.250000
O O2 0.373580 0.573270 0.500000
O O3 0.375730 0.500000 0.329696
O O4 0.323423 0.574864 0.257263
O O5 0.500000 0.168195 0.193534
O O6 0.428512 0.226762 0.263915
O O7 0.406475 0.136066 0.186287
O O8 0.440473 0.196026 0.000000
O O9 0.953344 0.582975 0.767043
O O10 0.000000 0.500000 0.790810
O O11 0.000000 0.560167 0.000000
O O12 0.279450 0.500000 0.158086
O O13 0.281174 0.576711 0.000000
O O14 0.670132 0.070940 0.817284
O O15 0.601233 0.068663 0.000000
O O16 0.820544 0.179457 0.750000
O O17 0.900162 0.243304 0.754652
O O18 0.907134 0.157143 0.829442
O O19 0.857947 0.212184 0.000000
O O20 0.061531 0.740095 0.500000
O O21 0.000000 0.735021 0.291320
O O22 0.930356 0.069645 0.750000
O O23 0.899412 0.050328 0.500000
O O24 0.865383 0.000000 0.708203
#
# Coordination Sequence:
#
# PCOD9566488 Si02
#       8
#    16  16   8  16  16  16  16  16
#     4  10  20  33  50  73 103 139 179 223 272 332
#     4   9  17  30  51  77 102 133 176 221 263 310
#     4  11  23  35  49  75 113 151 187 229 270 313
#     4   9  17  30  49  72  99 131 168 213 263 312
#     4  10  20  36  55  77 107 146 187 222 264 322
#     4  10  20  35  55  77  99 127 166 212 264 316
#     4  10  20  35  55  80 110 142 179 223 268 320
#     4   9  18  31  45  64  91 120 152 188 227 279
#
# _framework density 16.938041999999999
#
# number of rings (size 3 to 8) (size 9 to 14) (size 15 to 20)
#    0.000    2.333    0.667    2.200    0.000    6.400 
#    0.000    2.667    0.000    0.800    0.000    3.733 
#    0.000    0.000    0.000    0.000    0.000    0.000 
#
# Total GULP energy -668388.327999 kJ/mol
# GULP energy per Si atom -5569.902733 kJ/mol
# Density = 1.689949 g / cm^3
# Si number density = 16.938042 Si / 1000 Ang^3
#
#
#
# Elastic Constant Matrix: (Units=GPa)
#
#
# Indices 1 2 3 4 5 6 
#
# 1 61.1700 29.2403 54.3678 0.0000 0.0000 0.0000
# 2 29.2403 61.1742 54.3834 0.0000 0.0000 0.0000
# 3 54.3678 54.3834 102.0848 0.0000 0.0000 0.0000
# 4 0.0000 0.0000 0.0000 23.0055 0.0000 0.0000
# 5 0.0000 0.0000 0.0000 0.0000 23.0053 0.0000
# 6 0.0000 0.0000 0.0000 0.0000 0.0000 -93.6162
#
#
#
# Elastic Compliance Matrix: (Units=1/GPa)
#
#
# Indices 1 2 3 4 5 6 
#
# 1 0.031044 -0.000267 -0.016391 0.000000 0.000000 0.000000
# 2 -0.000267 0.031056 -0.016402 0.000000 0.000000 0.000000
# 3 -0.016391 -0.016402 0.027263 0.000000 0.000000 0.000000
# 4 0.000000 0.000000 0.000000 0.043468 0.000000 0.000000
# 5 0.000000 0.000000 0.000000 0.000000 0.043468 0.000000
# 6 0.000000 0.000000 0.000000 0.000000 0.000000 -0.010682
#
#
# Mechanical properties :
#
#
# Convention : Reuss Voigt Hill
#
# Bulk Modulus (GPa) = 43.02463 55.60134 49.31299
# Shear Modulus (GPa) = 20.87827 -3.75858 8.55985
#
# Velocity S-wave (km/s) = 3.51469 -1.49125 2.25047
# Velocity P-wave (km/s) = 6.47511 5.47106 5.99414
#
# Compressibility (1/GPa) = 0.02324250
#
# Stress axis : x y z
#
# Youngs Moduli (GPa) = 32.21273 32.20028 36.67996
#
# Poissons Ratio (x) = 0.00860 0.60121
# Poissons Ratio (y) = 0.00860 0.60162
# Poissons Ratio (z) = 0.52799 0.52815
#
# Static dielectric constant tensor:
#      x y z
#    x 1.571510 0.000000 0.000000 
#    y 0.000000 1.571510 0.000000 
#    z 0.000000 0.000000 1.584680 
# 
# From -- ./inp_files/2696.got.cif
#   From: 2010.05.17/outbox.cif.g08.bks.cpg/sg131_2_cif.got.tgz:2696.got - 2010.05.20 12:21:01.
