data_PCOD9566137
_publ_section_title
;
Structure prediction by ZEFSAII (Michael W. Deem and Ramdas Pophale) SiO2 
 PCOD9566137
Probable space group: P 42/M M C
;
_chemical_formula_sum "Si O2"
_cell_formula_units_Z 104
_cell_length_a 19.000554
_cell_length_b 19.000554
_cell_length_c 16.996662
_cell_angle_alpha 90.000000
_cell_angle_beta 90.000000
_cell_angle_gamma 90.000000
_cell_volume 6136.152801
_symmetry_space_group_name_H-M "P 42/M M C"
_symmetry_group_IT_number 131
_symmetry_cell_setting 'tetragonal'
loop_
_space_group_symop_operation_xyz
x,y,z
-x,-y,z
-y,x,1/2+z
y,-x,1/2+z
-x,y,-z
x,-y,-z
y,x,1/2-z
-y,-x,1/2-z
-x,-y,-z
x,y,-z
y,-x,1/2-z
-y,x,1/2-z
x,-y,z
-x,y,z
-y,-x,1/2+z
y,x,1/2+z
loop_
_atom_site_type_symbol
_atom_site_label
_atom_site_fract_x
_atom_site_fract_y
_atom_site_fract_z
Si Si1 0.919689 0.321282 0.000000
Si Si2 0.215313 0.215313 0.750000
Si Si3 0.080352 0.722993 0.171349
Si Si4 0.416771 0.713010 0.660828
Si Si5 0.220536 0.360941 0.676605
Si Si6 0.582158 0.349827 0.907918
Si Si7 0.788725 0.584391 0.000000
Si Si8 0.081348 0.581613 0.266200
O O1 0.909228 0.276253 0.078330
O O2 0.866403 0.385473 0.000000
O O3 0.000000 0.346924 0.000000
O O4 0.231021 0.139182 0.713887
O O5 0.223091 0.276513 0.683780
O O6 0.087825 0.640723 0.198046
O O7 0.000000 0.743359 0.190682
O O8 0.500000 0.721233 0.666686
O O9 0.384571 0.746640 0.738944
O O10 0.396804 0.631999 0.646863
O O11 0.391644 0.751023 0.580531
O O12 0.270687 0.392080 0.610163
O O13 0.142158 0.393070 0.674241
O O14 0.500000 0.356346 0.888659
O O15 0.591570 0.367805 0.000000
O O16 0.787029 0.500000 0.000000
O O17 0.094406 0.500000 0.242516
O O18 0.000000 0.585229 0.294172
#
# Coordination Sequence:
#
# PCOD9566137 Si02
#       8
#     8   8  16  16  16  16   8  16
#     4  10  20  31  46  71 110 142 162 200 246 300
#     4  10  18  32  56  75  97 136 164 202 246 286
#     4   9  19  32  48  76 107 136 172 204 242 298
#     4  11  21  35  52  69  94 128 169 216 257 305
#     4  11  20  34  52  76  97 127 169 208 251 303
#     4  11  23  36  50  69  95 126 167 220 265 305
#     4  10  20  31  47  72 100 134 170 206 250 302
#     4   9  17  30  49  72 100 132 166 206 251 301
#
# _framework density 16.948730999999999
#
# number of rings (size 3 to 8) (size 9 to 14) (size 15 to 20)
#    0.000    1.846    2.308    3.231    0.000    2.308 
#    0.000    2.308    0.000    2.538    0.000    2.692 
#    0.000    1.846    0.000    0.000    0.000    0.000 
#
# Total GULP energy -580027.749457 kJ/mol
# GULP energy per Si atom -5577.189899 kJ/mol
# Density = 1.691016 g / cm^3
# Si number density = 16.948731 Si / 1000 Ang^3
#
#
#
# Elastic Constant Matrix: (Units=GPa)
#
#
# Indices 1 2 3 4 5 6 
#
# 1 72.6858 20.6395 4.1671 0.0000 0.0000 0.0000
# 2 20.6395 72.6858 4.1671 0.0000 0.0000 0.0000
# 3 4.1671 4.1671 17.2356 0.0000 0.0000 0.0000
# 4 0.0000 0.0000 0.0000 14.3317 0.0000 0.0000
# 5 0.0000 0.0000 0.0000 0.0000 14.3317 0.0000
# 6 0.0000 0.0000 0.0000 0.0000 0.0000 24.7375
#
#
#
# Elastic Compliance Matrix: (Units=1/GPa)
#
#
# Indices 1 2 3 4 5 6 
#
# 1 0.015083 -0.004131 -0.002648 0.000000 0.000000 0.000000
# 2 -0.004131 0.015083 -0.002648 0.000000 0.000000 0.000000
# 3 -0.002648 -0.002648 0.059300 0.000000 0.000000 0.000000
# 4 0.000000 0.000000 0.000000 0.069775 0.000000 0.000000
# 5 0.000000 0.000000 0.000000 0.000000 0.069775 0.000000
# 6 0.000000 0.000000 0.000000 0.000000 0.000000 0.040424
#
#
# Mechanical properties :
#
#
# Convention : Reuss Voigt Hill
#
# Bulk Modulus (GPa) = 14.16196 24.50608 19.33402
# Shear Modulus (GPa) = 16.03434 19.58909 17.81171
#
# Velocity S-wave (km/s) = 3.07913 3.40337 3.24530
# Velocity P-wave (km/s) = 4.58424 5.47122 5.04725
#
# Compressibility (1/GPa) = 0.07061170
#
# Stress axis : x y z
#
# Youngs Moduli (GPa) = 66.30132 66.30132 16.86351
#
# Poissons Ratio (x) = 0.27389 0.04465
# Poissons Ratio (y) = 0.27389 0.04465
# Poissons Ratio (z) = 0.17555 0.17555
#
# Static dielectric constant tensor:
#      x y z
#    x 1.588660 0.000000 0.000000 
#    y 0.000000 1.588660 0.000000 
#    z 0.000000 0.000000 1.577440 
# 
# From -- ./inp_files/8167.got.cif
#   From: 2010.05.17/outbox.cif.g08.bks.cpg/sg131_5_cif.got.tgz:8167.got - 2010.05.20 12:21:01.
