data_PCOD9566618
_publ_section_title
;
Structure prediction by ZEFSAII (Michael W. Deem and Ramdas Pophale) SiO2 
 PCOD9566618
Probable space group: P 42/M M C
;
_chemical_formula_sum "Si O2"
_cell_formula_units_Z 112
_cell_length_a 14.400445
_cell_length_b 14.400445
_cell_length_c 26.290956
_cell_angle_alpha 90.000000
_cell_angle_beta 90.000000
_cell_angle_gamma 90.000000
_cell_volume 5452.029586
_symmetry_space_group_name_H-M "P 42/M M C"
_symmetry_group_IT_number 131
_symmetry_cell_setting 'tetragonal'
loop_
_space_group_symop_operation_xyz
x,y,z
-x,-y,z
-y,x,1/2+z
y,-x,1/2+z
-x,y,-z
x,-y,-z
y,x,1/2-z
-y,-x,1/2-z
-x,-y,-z
x,y,-z
y,-x,1/2-z
-y,x,1/2-z
x,-y,z
-x,y,z
-y,-x,1/2+z
y,x,1/2+z
loop_
_atom_site_type_symbol
_atom_site_label
_atom_site_fract_x
_atom_site_fract_y
_atom_site_fract_z
Si Si1 0.697809 0.203720 0.442497
Si Si2 0.893451 0.219745 0.406156
Si Si3 0.237307 0.388807 0.246252
Si Si4 0.893921 0.388466 0.152313
Si Si5 0.608027 0.602683 0.438330
Si Si6 0.894239 0.112374 0.804101
Si Si7 0.607492 0.895025 0.841128
O O1 0.662025 0.189721 0.500000
O O2 0.809115 0.197204 0.442727
O O3 0.656709 0.134142 0.401088
O O4 0.667171 0.307304 0.424345
O O5 0.871166 0.165526 0.353734
O O6 0.887508 0.326969 0.389706
O O7 0.000000 0.198410 0.421519
O O8 0.331243 0.331243 0.250000
O O9 0.252565 0.500000 0.243162
O O10 0.176595 0.360431 0.197023
O O11 0.176949 0.370700 0.296821
O O12 0.887383 0.500000 0.147327
O O13 0.000000 0.365999 0.166119
O O14 0.609503 0.599471 0.500000
O O15 0.638737 0.500000 0.420060
O O16 0.500000 0.615621 0.423111
O O17 0.854396 0.145605 0.750000
O O18 0.000000 0.144769 0.811662
O O19 0.897418 0.000000 0.798335
O O20 0.500000 0.885324 0.854867
O O21 0.622000 0.000000 0.820486
#
# Coordination Sequence:
#
# PCOD9566618 Si02
#       7
#    16  16  16  16  16  16  16
#     4  11  23  37  55  80 111 150 198 248 294 341
#     4  10  21  35  52  77 109 146 186 227 277 338
#     4  10  20  36  59  87 121 156 186 220 270 336
#     4  10  22  40  61  86 117 153 195 243 292 341
#     4   8  15  31  56  82 104 127 162 217 285 346
#     4   8  15  30  52  77 103 128 159 209 273 334
#     4   9  18  34  56  80 107 141 181 224 271 328
#
# _framework density 20.542807
#
# number of rings (size 3 to 8) (size 9 to 14) (size 15 to 20)
#    0.000    2.571    0.000    2.571    0.000    6.143 
#    0.000    2.857    0.000    0.857    0.000    7.000 
#    0.000    1.143    0.000    0.000    0.000    0.000 
#
# Total GULP energy -625296.040672 kJ/mol
# GULP energy per Si atom -5583.000363 kJ/mol
# Density = 2.049605 g / cm^3
# Si number density = 20.542807 Si / 1000 Ang^3
#
#
#
# Elastic Constant Matrix: (Units=GPa)
#
#
# Indices 1 2 3 4 5 6 
#
# 1 67.5676 30.6914 17.9295 0.0000 0.0000 0.0000
# 2 30.6914 67.5679 17.9296 0.0000 0.0000 0.0000
# 3 17.9295 17.9296 47.2513 0.0000 0.0000 0.0000
# 4 0.0000 0.0000 0.0000 7.9698 0.0000 0.0000
# 5 0.0000 0.0000 0.0000 0.0000 7.9691 0.0000
# 6 0.0000 0.0000 0.0000 0.0000 0.0000 12.9619
#
#
#
# Elastic Compliance Matrix: (Units=1/GPa)
#
#
# Indices 1 2 3 4 5 6 
#
# 1 0.019465 -0.007652 -0.004482 0.000000 0.000000 0.000000
# 2 -0.007652 0.019465 -0.004482 0.000000 0.000000 0.000000
# 3 -0.004482 -0.004482 0.024565 0.000000 0.000000 0.000000
# 4 0.000000 0.000000 0.000000 0.125474 0.000000 0.000000
# 5 0.000000 0.000000 0.000000 0.000000 0.125484 0.000000
# 6 0.000000 0.000000 0.000000 0.000000 0.000000 0.077149
#
#
# Mechanical properties :
#
#
# Convention : Reuss Voigt Hill
#
# Bulk Modulus (GPa) = 33.04541 35.05420 34.04981
# Shear Modulus (GPa) = 11.49624 13.50259 12.49941
#
# Velocity S-wave (km/s) = 2.36820 2.56655 2.46937
# Velocity P-wave (km/s) = 4.85787 5.08762 4.97407
#
# Compressibility (1/GPa) = 0.03026139
#
# Stress axis : x y z
#
# Youngs Moduli (GPa) = 51.37321 51.37352 40.70800
#
# Poissons Ratio (x) = 0.39313 0.18247
# Poissons Ratio (y) = 0.39312 0.18247
# Poissons Ratio (z) = 0.23028 0.23028
#
# Static dielectric constant tensor:
#      x y z
#    x 1.753270 0.000000 0.000000 
#    y 0.000000 1.753270 0.000000 
#    z 0.000000 0.000000 1.711040 
# 
# From -- ./inp_files/11259.got.cif
#   From: 2010.05.17/outbox.cif.g08.bks.cpg/sg131_6_cif.got.tgz:11259.got - 2010.05.20 12:21:01.
