data_PCOD9566629
_publ_section_title
;
Structure prediction by ZEFSAII (Michael W. Deem and Ramdas Pophale) SiO2 
 PCOD9566629
Probable space group: P 42/M M C
;
_chemical_formula_sum "Si O2"
_cell_formula_units_Z 120
_cell_length_a 18.990171
_cell_length_b 18.990171
_cell_length_c 20.429834
_cell_angle_alpha 90.000000
_cell_angle_beta 90.000000
_cell_angle_gamma 90.000000
_cell_volume 7367.541464
_symmetry_space_group_name_H-M "P 42/M M C"
_symmetry_group_IT_number 131
_symmetry_cell_setting 'tetragonal'
loop_
_space_group_symop_operation_xyz
x,y,z
-x,-y,z
-y,x,1/2+z
y,-x,1/2+z
-x,y,-z
x,-y,-z
y,x,1/2-z
-y,-x,1/2-z
-x,-y,-z
x,y,-z
y,-x,1/2-z
-y,x,1/2-z
x,-y,z
-x,y,z
-y,-x,1/2+z
y,x,1/2+z
loop_
_atom_site_type_symbol
_atom_site_label
_atom_site_fract_x
_atom_site_fract_y
_atom_site_fract_z
Si Si1 0.310210 0.081892 0.425238
Si Si2 0.141247 0.421123 0.574131
Si Si3 0.075764 0.276685 0.576548
Si Si4 0.418682 0.210827 0.210641
Si Si5 0.800335 0.814017 0.366153
Si Si6 0.920131 0.582372 0.805953
Si Si7 0.921652 0.921441 0.328119
Si Si8 0.727347 0.727347 0.750000
O O1 0.336413 0.088231 0.500000
O O2 0.250676 0.140527 0.412561
O O3 0.369160 0.092661 0.369330
O O4 0.285119 0.000000 0.417639
O O5 0.170550 0.413623 0.500000
O O6 0.111760 0.500000 0.579814
O O7 0.084306 0.360416 0.582197
O O8 0.196516 0.413385 0.633011
O O9 0.073863 0.258044 0.500000
O O10 0.147541 0.244013 0.603577
O O11 0.000000 0.255808 0.606281
O O12 0.500000 0.232809 0.224699
O O13 0.406537 0.136933 0.249131
O O14 0.354462 0.259163 0.233837
O O15 0.857593 0.870250 0.341288
O O16 0.753988 0.776006 0.310426
O O17 0.916493 0.500000 0.824504
O O18 0.000000 0.597005 0.782752
O O19 0.926209 0.926209 0.250000
O O20 0.000000 0.900062 0.351938
O O21 0.907706 0.000000 0.354225
#
# Coordination Sequence:
#
# PCOD9566629 Si02
#       8
#    16  16  16  16  16  16  16   8
#     4  10  21  35  52  74 101 137 178 223 271 312
#     4   9  18  33  52  75 106 142 175 208 252 310
#     4  10  21  34  48  68  97 137 179 220 265 307
#     4  10  20  37  56  80 113 141 172 215 257 317
#     4  12  20  34  48  73 100 131 171 226 267 319
#     4   9  18  33  53  77 106 141 175 210 260 318
#     4   9  18  31  45  63  90 126 168 215 268 313
#     4  12  22  34  54  86 104 136 176 208 270 322
#
# _framework density 16.287658
#
# number of rings (size 3 to 8) (size 9 to 14) (size 15 to 20)
#    0.000    2.000    3.333    1.600    0.000    1.067 
#    0.000    4.000    0.000    0.200    0.000    5.600 
#    0.000    0.000    0.000    3.333    0.000    0.000 
#
# Total GULP energy -668010.116376 kJ/mol
# GULP energy per Si atom -5566.750970 kJ/mol
# Density = 1.625059 g / cm^3
# Si number density = 16.287658 Si / 1000 Ang^3
#
#
#
# Elastic Constant Matrix: (Units=GPa)
#
#
# Indices 1 2 3 4 5 6 
#
# 1 90.9057 49.1830 36.9461 0.0000 0.0000 0.0000
# 2 49.1830 90.9057 36.9461 0.0000 0.0000 0.0000
# 3 36.9461 36.9461 70.0776 0.0000 0.0000 0.0000
# 4 0.0000 0.0000 0.0000 20.0598 0.0000 0.0000
# 5 0.0000 0.0000 0.0000 0.0000 20.0598 0.0000
# 6 0.0000 0.0000 0.0000 0.0000 0.0000 -15.9878
#
#
#
# Elastic Compliance Matrix: (Units=1/GPa)
#
#
# Indices 1 2 3 4 5 6 
#
# 1 0.016928 -0.007040 -0.005213 0.000000 0.000000 0.000000
# 2 -0.007040 0.016928 -0.005213 0.000000 0.000000 0.000000
# 3 -0.005213 -0.005213 0.019767 0.000000 0.000000 0.000000
# 4 0.000000 0.000000 0.000000 0.049851 0.000000 0.000000
# 5 0.000000 0.000000 0.000000 0.000000 0.049851 0.000000
# 6 0.000000 0.000000 0.000000 0.000000 0.000000 -0.062548
#
#
# Mechanical properties :
#
#
# Convention : Reuss Voigt Hill
#
# Bulk Modulus (GPa) = 53.50353 55.33771 54.42062
# Shear Modulus (GPa) = 37.89621 13.41396 25.65509
#
# Velocity S-wave (km/s) = 4.82880 2.87290 3.97309
# Velocity P-wave (km/s) = 8.00064 6.71221 7.38458
#
# Compressibility (1/GPa) = 0.01869035
#
# Stress axis : x y z
#
# Youngs Moduli (GPa) = 59.07389 59.07389 50.58981
#
# Poissons Ratio (x) = 0.41587 0.26373
# Poissons Ratio (y) = 0.41587 0.26373
# Poissons Ratio (z) = 0.30796 0.30796
#
# Static dielectric constant tensor:
#      x y z
#    x 1.573650 0.000000 0.000000 
#    y 0.000000 1.573650 0.000000 
#    z 0.000000 0.000000 1.562070 
# 
# From -- ./inp_files/10143.got.cif
#   From: 2010.05.17/outbox.cif.g08.bks.cpg/sg131_6_cif.got.tgz:10143.got - 2010.05.20 12:21:01.
