data_PCOD9566319
_publ_section_title
;
Structure prediction by ZEFSAII (Michael W. Deem and Ramdas Pophale) SiO2 
 PCOD9566319
Probable space group: P 42/M M C
;
_chemical_formula_sum "Si O2"
_cell_formula_units_Z 120
_cell_length_a 29.114468
_cell_length_b 29.114468
_cell_length_c 7.587321
_cell_angle_alpha 90.000000
_cell_angle_beta 90.000000
_cell_angle_gamma 90.000000
_cell_volume 6431.409694
_symmetry_space_group_name_H-M "P 42/M M C"
_symmetry_group_IT_number 131
_symmetry_cell_setting 'tetragonal'
loop_
_space_group_symop_operation_xyz
x,y,z
-x,-y,z
-y,x,1/2+z
y,-x,1/2+z
-x,y,-z
x,-y,-z
y,x,1/2-z
-y,-x,1/2-z
-x,-y,-z
x,y,-z
y,-x,1/2-z
-y,x,1/2-z
x,-y,z
-x,y,z
-y,-x,1/2+z
y,x,1/2+z
loop_
_atom_site_type_symbol
_atom_site_label
_atom_site_fract_x
_atom_site_fract_y
_atom_site_fract_z
Si Si1 0.771853 0.053903 0.713808
Si Si2 0.125114 0.586767 0.784245
Si Si3 0.786948 0.714730 0.710036
Si Si4 0.690970 0.113925 0.699612
Si Si5 0.447904 0.227736 0.289269
Si Si6 0.286517 0.640285 0.291965
Si Si7 0.947981 0.872677 0.788685
Si Si8 0.052507 0.553986 0.500000
O O1 0.771525 0.060031 0.500000
O O2 0.728157 0.080845 0.786167
O O3 0.822538 0.068312 0.776464
O O4 0.767665 0.000000 0.748845
O O5 0.120968 0.640082 0.729729
O O6 0.176463 0.569000 0.733343
O O7 0.083782 0.564802 0.672474
O O8 0.121024 0.581607 0.000000
O O9 0.761995 0.761995 0.750000
O O10 0.792739 0.708898 0.500000
O O11 0.835675 0.712167 0.799384
O O12 0.752453 0.675117 0.780292
O O13 0.683699 0.097096 0.500000
O O14 0.450186 0.225147 0.500000
O O15 0.500000 0.236227 0.223004
O O16 0.410812 0.268185 0.252249
O O17 0.336239 0.663762 0.250000
O O18 0.283966 0.643139 0.500000
O O19 0.913110 0.913110 0.750000
O O20 0.000000 0.881136 0.723386
O O21 0.951004 0.869134 0.000000
O O22 0.046782 0.500000 0.500000
O O23 0.000000 0.574420 0.500000
#
# Coordination Sequence:
#
# PCOD9566319 Si02
#       8
#    16  16  16  16  16  16  16   8
#     4   8  16  32  51  71  96 127 163 205 259 320
#     4  10  22  39  61  87 116 149 191 245 301 359
#     4  10  20  32  48  71 104 140 176 217 264 318
#     4  10  19  32  55  79 103 136 178 223 270 332
#     4  10  20  34  54  82 116 153 194 241 293 349
#     4  10  20  33  52  76 108 149 189 231 280 337
#     4   9  18  33  52  72  97 128 161 203 255 316
#     4  11  26  44  62  84 112 148 190 246 308 362
#
# _framework density 18.658427
#
# number of rings (size 3 to 8) (size 9 to 14) (size 15 to 20)
#    0.000    2.333    1.333    2.000    1.867    3.867 
#    0.000    4.667    0.000    0.800    0.000    0.000 
#    0.000    0.267    0.000    2.800    0.000    1.200 
#
# Total GULP energy -668353.562249 kJ/mol
# GULP energy per Si atom -5569.613019 kJ/mol
# Density = 1.861596 g / cm^3
# Si number density = 18.658427 Si / 1000 Ang^3
#
#
#
# Elastic Constant Matrix: (Units=GPa)
#
#
# Indices 1 2 3 4 5 6 
#
# 1 104.1751 77.5246 10.2815 0.0000 0.0000 0.0000
# 2 77.5246 104.1764 10.2815 0.0000 0.0000 0.0000
# 3 10.2815 10.2815 58.8206 0.0000 0.0000 0.0000
# 4 0.0000 0.0000 0.0000 -44.4529 0.0000 0.0000
# 5 0.0000 0.0000 0.0000 0.0000 -44.4635 0.0000
# 6 0.0000 0.0000 0.0000 0.0000 0.0000 -15.1304
#
#
#
# Elastic Compliance Matrix: (Units=1/GPa)
#
#
# Indices 1 2 3 4 5 6 
#
# 1 0.021568 -0.015954 -0.000981 0.000000 0.000000 0.000000
# 2 -0.015954 0.021568 -0.000981 0.000000 0.000000 0.000000
# 3 -0.000981 -0.000981 0.017344 0.000000 0.000000 0.000000
# 4 0.000000 0.000000 0.000000 -0.022496 0.000000 0.000000
# 5 0.000000 0.000000 0.000000 0.000000 -0.022490 0.000000
# 6 0.000000 0.000000 0.000000 0.000000 0.000000 -0.066092
#
#
# Mechanical properties :
#
#
# Convention : Reuss Voigt Hill
#
# Bulk Modulus (GPa) = 40.57194 51.48304 46.02749
# Shear Modulus (GPa) = -763.47014 -9.53706 -386.50360
#
# Velocity S-wave (km/s) = -20.25020 -2.26329 -14.40821
# Velocity P-wave (km/s) = 22.91221 4.56314 15.87682
#
# Compressibility (1/GPa) = 0.02464757
#
# Stress axis : x y z
#
# Youngs Moduli (GPa) = 46.36423 46.36483 57.65705
#
# Poissons Ratio (x) = 0.73969 0.05659
# Poissons Ratio (y) = 0.73968 0.05658
# Poissons Ratio (z) = 0.04550 0.04550
#
# Static dielectric constant tensor:
#      x y z
#    x 1.685760 0.000000 0.000000 
#    y 0.000000 1.685760 0.000000 
#    z 0.000000 0.000000 1.652670 
# 
# From -- ./inp_files/2632.got.cif
#   From: 2010.05.17/outbox.cif.g08.bks.cpg/sg131_2_cif.got.tgz:2632.got - 2010.05.20 12:21:01.
