data_PCOD9566131
_publ_section_title
;
Structure prediction by ZEFSAII (Michael W. Deem and Ramdas Pophale) SiO2 
 PCOD9566131
Probable space group: P 42/M M C
;
_chemical_formula_sum "Si O2"
_cell_formula_units_Z 68
_cell_length_a 12.062018
_cell_length_b 12.062018
_cell_length_c 29.888547
_cell_angle_alpha 90.000000
_cell_angle_beta 90.000000
_cell_angle_gamma 90.000000
_cell_volume 4348.552796
_symmetry_space_group_name_H-M "P 42/M M C"
_symmetry_group_IT_number 131
_symmetry_cell_setting 'tetragonal'
loop_
_space_group_symop_operation_xyz
x,y,z
-x,-y,z
-y,x,1/2+z
y,-x,1/2+z
-x,y,-z
x,-y,-z
y,x,1/2-z
-y,-x,1/2-z
-x,-y,-z
x,y,-z
y,-x,1/2-z
-y,x,1/2-z
x,-y,z
-x,y,z
-y,-x,1/2+z
y,x,1/2+z
loop_
_atom_site_type_symbol
_atom_site_label
_atom_site_fract_x
_atom_site_fract_y
_atom_site_fract_z
Si Si1 0.000000 0.760808 0.551041
Si Si2 0.726698 0.630510 0.947904
Si Si3 0.000000 0.500000 0.568742
Si Si4 0.133054 0.794557 0.104295
Si Si5 0.865432 0.128032 0.798697
Si Si6 0.764337 0.500000 0.446679
O O1 0.106646 0.807650 0.576953
O O2 0.000000 0.800901 0.500000
O O3 0.000000 0.626614 0.549450
O O4 0.712887 0.500000 0.941379
O O5 0.820217 0.682583 0.916752
O O6 0.610150 0.692687 0.940014
O O7 0.756093 0.650365 0.000000
O O8 0.872212 0.500000 0.585074
O O9 0.163771 0.806645 0.156581
O O10 0.000000 0.805002 0.100330
O O11 0.828662 0.171339 0.750000
O O12 0.000000 0.125935 0.796142
O O13 0.829293 0.000000 0.804552
O O14 0.800330 0.500000 0.500000
#
# Coordination Sequence:
#
# PCOD9566131 Si02
#       6
#     8  16   4  16  16   8
#     4  12  22  32  47  73 110 138 160 199 255 313
#     4  10  21  35  50  69  97 137 180 214 241 283
#     4  12  21  32  52  76 100 132 164 204 260 304
#     4  11  21  32  48  74 103 136 170 200 250 308
#     4   8  14  27  47  71  97 125 161 203 247 303
#     4  10  18  32  51  71  96 126 168 213 251 290
#
# _framework density 15.637385999999999
#
# number of rings (size 3 to 8) (size 9 to 14) (size 15 to 20)
#    0.000    1.882    3.529    3.176    0.000    4.235 
#    0.000    1.176    0.000    0.000    6.118    0.000 
#    0.000    0.000    0.000    0.000    0.000    0.000 
#
# Total GULP energy -378557.447422 kJ/mol
# GULP energy per Si atom -5567.021286 kJ/mol
# Density = 1.560179 g / cm^3
# Si number density = 15.637386 Si / 1000 Ang^3
#
#
#
# Elastic Constant Matrix: (Units=GPa)
#
#
# Indices 1 2 3 4 5 6 
#
# 1 73.4305 25.1948 44.2603 0.0000 0.0000 0.0000
# 2 25.1948 73.4303 44.2603 0.0000 0.0000 0.0000
# 3 44.2603 44.2603 111.1076 0.0000 0.0000 0.0000
# 4 0.0000 0.0000 0.0000 9.9176 0.0000 0.0000
# 5 0.0000 0.0000 0.0000 0.0000 9.9177 0.0000
# 6 0.0000 0.0000 0.0000 0.0000 0.0000 20.8333
#
#
#
# Elastic Compliance Matrix: (Units=1/GPa)
#
#
# Indices 1 2 3 4 5 6 
#
# 1 0.018257 -0.002475 -0.006287 0.000000 0.000000 0.000000
# 2 -0.002475 0.018257 -0.006287 0.000000 0.000000 0.000000
# 3 -0.006287 -0.006287 0.014009 0.000000 0.000000 0.000000
# 4 0.000000 0.000000 0.000000 0.100830 0.000000 0.000000
# 5 0.000000 0.000000 0.000000 0.000000 0.100830 0.000000
# 6 0.000000 0.000000 0.000000 0.000000 0.000000 0.048000
#
#
# Mechanical properties :
#
#
# Convention : Reuss Voigt Hill
#
# Bulk Modulus (GPa) = 48.95761 53.93326 51.44543
# Shear Modulus (GPa) = 14.83289 17.75060 16.29175
#
# Velocity S-wave (km/s) = 3.08320 3.37284 3.23127
# Velocity P-wave (km/s) = 6.63708 7.05215 6.84776
#
# Compressibility (1/GPa) = 0.02042583
#
# Stress axis : x y z
#
# Youngs Moduli (GPa) = 54.77396 54.77381 71.38206
#
# Poissons Ratio (x) = 0.13555 0.44877
# Poissons Ratio (y) = 0.13555 0.44877
# Poissons Ratio (z) = 0.34436 0.34436
#
# Static dielectric constant tensor:
#      x y z
#    x 1.523400 0.000000 0.000000 
#    y 0.000000 1.523400 0.000000 
#    z 0.000000 0.000000 1.534050 
# 
# From -- ./inp_files/12140.got.cif
#   From: 2010.05.17/outbox.cif.g08.bks.cpg/sg131_7_cif.got.tgz:12140.got - 2010.05.20 12:21:01.
