data_PCOD9566811
_publ_section_title
;
Structure prediction by ZEFSAII (Michael W. Deem and Ramdas Pophale) SiO2 
 PCOD9566811
Probable space group: P 42/M M C
;
_chemical_formula_sum "Si O2"
_cell_formula_units_Z 56
_cell_length_a 13.793338
_cell_length_b 13.793338
_cell_length_c 17.988886
_cell_angle_alpha 90.000000
_cell_angle_beta 90.000000
_cell_angle_gamma 90.000000
_cell_volume 3422.496610
_symmetry_space_group_name_H-M "P 42/M M C"
_symmetry_group_IT_number 131
_symmetry_cell_setting 'tetragonal'
loop_
_space_group_symop_operation_xyz
x,y,z
-x,-y,z
-y,x,1/2+z
y,-x,1/2+z
-x,y,-z
x,-y,-z
y,x,1/2-z
-y,-x,1/2-z
-x,-y,-z
x,y,-z
y,-x,1/2-z
-y,x,1/2-z
x,-y,z
-x,y,z
-y,-x,1/2+z
y,x,1/2+z
loop_
_atom_site_type_symbol
_atom_site_label
_atom_site_fract_x
_atom_site_fract_y
_atom_site_fract_z
Si Si1 0.886142 0.109993 0.160596
Si Si2 0.613334 0.386606 0.161813
Si Si3 0.500000 0.887615 0.409956
Si Si4 0.297592 0.210941 0.411303
O O1 0.880315 0.119686 0.250000
O O2 0.831419 0.199622 0.123464
O O3 0.000000 0.116065 0.140472
O O4 0.852751 0.000000 0.141244
O O5 0.628897 0.371104 0.250000
O O6 0.635982 0.500000 0.145381
O O7 0.500000 0.372971 0.147059
O O8 0.679537 0.316178 0.114365
O O9 0.500000 0.878860 0.500000
O O10 0.602473 0.842014 0.384963
O O11 0.500000 0.000000 0.390012
O O12 0.292367 0.202061 0.500000
#
# Coordination Sequence:
#
# PCOD9566811 Si02
#       4
#    16  16   8  16
#     4   9  19  36  56  76 100 135 177 216 253 299
#     4   9  18  33  52  74 101 135 174 213 253 301
#     4   9  18  30  43  67 103 135 159 194 254 312
#     4  11  20  31  50  77 108 137 166 210 262 310
#
# _framework density 16.362324999999998
#
# number of rings (size 3 to 8) (size 9 to 14) (size 15 to 20)
#    0.000    2.429    1.429    3.429    0.000    2.857 
#    0.000    2.857    0.000    0.857    0.000    2.000 
#    0.000    0.000    0.000    0.000    0.000    0.000 
#
# Total GULP energy -312033.310912 kJ/mol
# GULP energy per Si atom -5572.023409 kJ/mol
# Density = 1.632508 g / cm^3
# Si number density = 16.362325 Si / 1000 Ang^3
#
#
#
# Elastic Constant Matrix: (Units=GPa)
#
#
# Indices 1 2 3 4 5 6 
#
# 1 106.5183 67.0280 42.2527 0.0000 0.0000 0.0000
# 2 67.0280 106.5179 42.2527 0.0000 0.0000 0.0000
# 3 42.2527 42.2527 29.7738 0.0000 0.0000 0.0000
# 4 0.0000 0.0000 0.0000 17.4940 0.0000 0.0000
# 5 0.0000 0.0000 0.0000 0.0000 17.4939 0.0000
# 6 0.0000 0.0000 0.0000 0.0000 0.0000 33.7447
#
#
#
# Elastic Compliance Matrix: (Units=1/GPa)
#
#
# Indices 1 2 3 4 5 6 
#
# 1 0.021986 -0.003337 -0.026465 0.000000 0.000000 0.000000
# 2 -0.003337 0.021986 -0.026465 0.000000 0.000000 0.000000
# 3 -0.026465 -0.026465 0.108701 0.000000 0.000000 0.000000
# 4 0.000000 0.000000 0.000000 0.057162 0.000000 0.000000
# 5 0.000000 0.000000 0.000000 0.000000 0.057163 0.000000
# 6 0.000000 0.000000 0.000000 0.000000 0.000000 0.029634
#
#
# Mechanical properties :
#
#
# Convention : Reuss Voigt Hill
#
# Bulk Modulus (GPa) = 24.91375 60.65299 42.78337
# Shear Modulus (GPa) = 11.83302 19.83162 15.83232
#
# Velocity S-wave (km/s) = 2.69213 3.48520 3.11402
# Velocity P-wave (km/s) = 4.99227 7.30374 6.25569
#
# Compressibility (1/GPa) = 0.04013848
#
# Stress axis : x y z
#
# Youngs Moduli (GPa) = 45.48394 45.48356 9.19954
#
# Poissons Ratio (x) = 0.15178 0.24347
# Poissons Ratio (y) = 0.15178 0.24347
# Poissons Ratio (z) = 1.20373 1.20373
#
# Static dielectric constant tensor:
#      x y z
#    x 1.551740 0.000000 0.000000 
#    y 0.000000 1.551740 0.000000 
#    z 0.000000 0.000000 1.543010 
# 
# From -- ./inp_files/9171.got.cif
#   From: 2010.05.17/outbox.cif.g08.bks.cpg/sg131_5_cif.got.tgz:9171.got - 2010.05.20 12:21:01.
