data_PCOD9566196
_publ_section_title
;
Structure prediction by ZEFSAII (Michael W. Deem and Ramdas Pophale) SiO2 
 PCOD9566196
Probable space group: P 42/M M C
;
_chemical_formula_sum "Si O2"
_cell_formula_units_Z 128
_cell_length_a 18.526788
_cell_length_b 18.526788
_cell_length_c 22.043715
_cell_angle_alpha 90.000000
_cell_angle_beta 90.000000
_cell_angle_gamma 90.000000
_cell_volume 7566.326038
_symmetry_space_group_name_H-M "P 42/M M C"
_symmetry_group_IT_number 131
_symmetry_cell_setting 'tetragonal'
loop_
_space_group_symop_operation_xyz
x,y,z
-x,-y,z
-y,x,1/2+z
y,-x,1/2+z
-x,y,-z
x,-y,-z
y,x,1/2-z
-y,-x,1/2-z
-x,-y,-z
x,y,-z
y,-x,1/2-z
-y,x,1/2-z
x,-y,z
-x,y,z
-y,-x,1/2+z
y,x,1/2+z
loop_
_atom_site_type_symbol
_atom_site_label
_atom_site_fract_x
_atom_site_fract_y
_atom_site_fract_z
Si Si1 0.733885 0.766733 0.180660
Si Si2 0.416593 0.916696 0.408087
Si Si3 0.580431 0.724143 0.137091
Si Si4 0.223223 0.668707 0.932916
Si Si5 0.367806 0.582652 0.070925
Si Si6 0.082006 0.305405 0.667936
Si Si7 0.422810 0.914275 0.263673
Si Si8 0.873652 0.418265 0.570576
O O1 0.757946 0.757946 0.250000
O O2 0.649060 0.742862 0.178561
O O3 0.768070 0.718835 0.126325
O O4 0.746662 0.850032 0.161187
O O5 0.500000 0.907762 0.427213
O O6 0.365610 0.855801 0.434024
O O7 0.415353 0.905113 0.335259
O O8 0.396238 0.000000 0.420378
O O9 0.500000 0.727976 0.164178
O O10 0.591945 0.645471 0.107771
O O11 0.584958 0.788244 0.086888
O O12 0.283452 0.605764 0.926038
O O13 0.237946 0.702677 0.000000
O O14 0.378436 0.500000 0.091607
O O15 0.389137 0.586359 0.000000
O O16 0.106336 0.353402 0.725939
O O17 0.085985 0.361240 0.612265
O O18 0.000000 0.278548 0.675068
O O19 0.500000 0.881997 0.243672
O O20 0.427261 0.000000 0.252940
O O21 0.884411 0.404421 0.500000
O O22 0.897741 0.500000 0.584480
#
# Coordination Sequence:
#
# PCOD9566196 Si02
#       8
#    16  16  16  16  16  16  16  16
#     4  10  21  37  54  72  96 129 167 198 236 297
#     4   9  17  29  48  75 104 133 165 201 240 286
#     4   9  18  32  48  65  88 121 164 212 255 290
#     4  10  20  34  50  68  97 133 163 197 244 297
#     4   9  17  28  43  64  89 121 164 211 256 296
#     4  10  19  30  47  69  93 121 156 201 244 283
#     4   8  14  25  41  64  94 123 151 187 235 285
#     4   9  17  28  42  63  94 130 162 194 242 302
#
# _framework density 16.917061
#
# number of rings (size 3 to 8) (size 9 to 14) (size 15 to 20)
#    0.000    2.750    0.000    2.625    0.000    6.500 
#    0.000    5.000    0.000    0.000    0.000    0.000 
#    0.000    1.750    0.000    1.125    0.000    0.000 
#
# Total GULP energy -712732.383804 kJ/mol
# GULP energy per Si atom -5568.221748 kJ/mol
# Density = 1.687856 g / cm^3
# Si number density = 16.917061 Si / 1000 Ang^3
#
#
#
# Elastic Constant Matrix: (Units=GPa)
#
#
# Indices 1 2 3 4 5 6 
#
# 1 83.8116 21.8588 23.9543 0.0000 0.0000 0.0000
# 2 21.8588 83.8116 23.9543 0.0000 0.0000 0.0000
# 3 23.9543 23.9543 69.6602 0.0000 0.0000 0.0000
# 4 0.0000 0.0000 0.0000 16.2756 0.0000 0.0000
# 5 0.0000 0.0000 0.0000 0.0000 16.2756 0.0000
# 6 0.0000 0.0000 0.0000 0.0000 0.0000 13.3044
#
#
#
# Elastic Compliance Matrix: (Units=1/GPa)
#
#
# Indices 1 2 3 4 5 6 
#
# 1 0.013676 -0.002465 -0.003855 0.000000 0.000000 0.000000
# 2 -0.002465 0.013676 -0.003855 0.000000 0.000000 0.000000
# 3 -0.003855 -0.003855 0.017007 0.000000 0.000000 0.000000
# 4 0.000000 0.000000 0.000000 0.061442 0.000000 0.000000
# 5 0.000000 0.000000 0.000000 0.000000 0.061442 0.000000
# 6 0.000000 0.000000 0.000000 0.000000 0.000000 0.075163
#
#
# Mechanical properties :
#
#
# Convention : Reuss Voigt Hill
#
# Bulk Modulus (GPa) = 41.65214 41.86866 41.76040
# Shear Modulus (GPa) = 18.46655 20.33885 19.40270
#
# Velocity S-wave (km/s) = 3.30751 3.47114 3.39031
# Velocity P-wave (km/s) = 6.26586 6.39282 6.32966
#
# Compressibility (1/GPa) = 0.02400837
#
# Stress axis : x y z
#
# Youngs Moduli (GPa) = 73.11919 73.11919 58.79988
#
# Poissons Ratio (x) = 0.18024 0.22669
# Poissons Ratio (y) = 0.18024 0.22669
# Poissons Ratio (z) = 0.28189 0.28189
#
# Static dielectric constant tensor:
#      x y z
#    x 1.728530 0.000000 0.000000 
#    y 0.000000 1.728530 0.000000 
#    z 0.000000 0.000000 1.603820 
# 
# From -- ./inp_files/11487.got.cif
#   From: 2010.05.17/outbox.cif.g08.bks.cpg/sg131_6_cif.got.tgz:11487.got - 2010.05.20 12:21:01.
