data_PCOD9566342
_publ_section_title
;
Structure prediction by ZEFSAII (Michael W. Deem and Ramdas Pophale) SiO2 
 PCOD9566342
Probable space group: P 42/M M C
;
_chemical_formula_sum "Si O2"
_cell_formula_units_Z 96
_cell_length_a 18.054570
_cell_length_b 18.054570
_cell_length_c 17.854611
_cell_angle_alpha 90.000000
_cell_angle_beta 90.000000
_cell_angle_gamma 90.000000
_cell_volume 5820.022873
_symmetry_space_group_name_H-M "P 42/M M C"
_symmetry_group_IT_number 131
_symmetry_cell_setting 'tetragonal'
loop_
_space_group_symop_operation_xyz
x,y,z
-x,-y,z
-y,x,1/2+z
y,-x,1/2+z
-x,y,-z
x,-y,-z
y,x,1/2-z
-y,-x,1/2-z
-x,-y,-z
x,y,-z
y,-x,1/2-z
-y,x,1/2-z
x,-y,z
-x,y,z
-y,-x,1/2+z
y,x,1/2+z
loop_
_atom_site_type_symbol
_atom_site_label
_atom_site_fract_x
_atom_site_fract_y
_atom_site_fract_z
Si Si1 0.583847 0.915202 0.589957
Si Si2 0.582806 0.784626 0.085556
Si Si3 0.300438 0.585360 0.737037
Si Si4 0.694749 0.190619 0.326662
Si Si5 0.741950 0.834767 0.087972
Si Si6 0.200461 0.086695 0.225567
O O1 0.585176 0.913261 0.500000
O O2 0.500000 0.896610 0.614256
O O3 0.642962 0.859728 0.622433
O O4 0.599148 0.000000 0.613055
O O5 0.500000 0.817956 0.093076
O O6 0.588511 0.722901 0.149753
O O7 0.652693 0.838554 0.096085
O O8 0.589031 0.755896 0.000000
O O9 0.381708 0.618293 0.750000
O O10 0.292637 0.500000 0.761318
O O11 0.245777 0.641244 0.781165
O O12 0.755812 0.233338 0.376371
O O13 0.739833 0.136537 0.270961
O O14 0.782480 0.895495 0.138747
O O15 0.760038 0.838148 0.000000
O O16 0.121988 0.121988 0.250000
O O17 0.206069 0.000000 0.241672
#
# Coordination Sequence:
#
# PCOD9566342 Si02
#       6
#    16  16  16  16  16  16
#     4   9  18  31  46  67  97 130 160 195 250 315
#     4   9  17  31  52  74 100 137 175 211 257 309
#     4  11  20  33  51  74 104 138 177 224 268 313
#     4  11  18  33  50  78  99 129 170 219 258 306
#     4  10  19  33  55  78 104 135 174 218 259 304
#     4  10  21  36  55  79 107 134 169 209 256 313
#
# _framework density 16.494779999999999
#
# number of rings (size 3 to 8) (size 9 to 14) (size 15 to 20)
#    0.000    2.000    3.333    2.500    0.000    0.667 
#    0.000    0.000    0.000    7.500    0.000    9.333 
#    0.000    0.000    0.000    0.000    0.000    0.000 
#
# Total GULP energy -534905.575784 kJ/mol
# GULP energy per Si atom -5571.933081 kJ/mol
# Density = 1.645724 g / cm^3
# Si number density = 16.494780 Si / 1000 Ang^3
#
#
#
# Elastic Constant Matrix: (Units=GPa)
#
#
# Indices 1 2 3 4 5 6 
#
# 1 87.3366 40.1910 23.6051 0.0000 0.0000 0.0000
# 2 40.1910 87.3388 23.6048 0.0000 0.0000 0.0000
# 3 23.6051 23.6048 69.9141 0.0000 0.0000 0.0000
# 4 0.0000 0.0000 0.0000 19.3467 0.0000 0.0000
# 5 0.0000 0.0000 0.0000 0.0000 19.3469 0.0000
# 6 0.0000 0.0000 0.0000 0.0000 0.0000 18.3165
#
#
#
# Elastic Compliance Matrix: (Units=1/GPa)
#
#
# Indices 1 2 3 4 5 6 
#
# 1 0.015086 -0.006124 -0.003026 0.000000 0.000000 0.000000
# 2 -0.006124 0.015086 -0.003025 0.000000 0.000000 0.000000
# 3 -0.003026 -0.003025 0.016346 0.000000 0.000000 0.000000
# 4 0.000000 0.000000 0.000000 0.051688 0.000000 0.000000
# 5 0.000000 0.000000 0.000000 0.000000 0.051688 0.000000
# 6 0.000000 0.000000 0.000000 0.000000 0.000000 0.054596
#
#
# Mechanical properties :
#
#
# Convention : Reuss Voigt Hill
#
# Bulk Modulus (GPa) = 45.11274 46.59902 45.85588
# Shear Modulus (GPa) = 21.16577 21.88125 21.52351
#
# Velocity S-wave (km/s) = 3.58604 3.64614 3.61621
# Velocity P-wave (km/s) = 6.67497 6.78512 6.73027
#
# Compressibility (1/GPa) = 0.02216669
#
# Stress axis : x y z
#
# Youngs Moduli (GPa) = 66.28600 66.28807 61.17579
#
# Poissons Ratio (x) = 0.40598 0.18510
# Poissons Ratio (y) = 0.40597 0.18509
# Poissons Ratio (z) = 0.20057 0.20055
#
# Static dielectric constant tensor:
#      x y z
#    x 1.551790 0.000000 0.000000 
#    y 0.000000 1.551790 0.000000 
#    z 0.000000 0.000000 1.566630 
# 
# From -- ./inp_files/7930.got.cif
#   From: 2010.05.17/outbox.cif.g08.bks.cpg/sg131_4_cif.got.tgz:7930.got - 2010.05.20 12:21:01.
