data_PCOD9566066
_publ_section_title
;
Structure prediction by ZEFSAII (Michael W. Deem and Ramdas Pophale) SiO2 
 PCOD9566066
Probable space group: P 42/M M C
;
_chemical_formula_sum "Si O2"
_cell_formula_units_Z 60
_cell_length_a 12.415909
_cell_length_b 12.415909
_cell_length_c 22.326866
_cell_angle_alpha 90.000000
_cell_angle_beta 90.000000
_cell_angle_gamma 90.000000
_cell_volume 3441.793480
_symmetry_space_group_name_H-M "P 42/M M C"
_symmetry_group_IT_number 131
_symmetry_cell_setting 'tetragonal'
loop_
_space_group_symop_operation_xyz
x,y,z
-x,-y,z
-y,x,1/2+z
y,-x,1/2+z
-x,y,-z
x,-y,-z
y,x,1/2-z
-y,-x,1/2-z
-x,-y,-z
x,y,-z
y,-x,1/2-z
-y,x,1/2-z
x,-y,z
-x,y,z
-y,-x,1/2+z
y,x,1/2+z
loop_
_atom_site_type_symbol
_atom_site_label
_atom_site_fract_x
_atom_site_fract_y
_atom_site_fract_z
Si Si1 0.243480 0.000000 0.429202
Si Si2 0.200005 0.372391 0.431241
Si Si3 0.627777 0.000000 0.156655
Si Si4 0.000000 0.841743 0.282055
Si Si5 0.623035 0.204743 0.427200
Si Si6 0.000000 0.000000 0.610474
O O1 0.304380 0.894795 0.405012
O O2 0.262785 0.000000 0.500000
O O3 0.115220 0.000000 0.421455
O O4 0.171138 0.339293 0.500000
O O5 0.217183 0.500000 0.431998
O O6 0.103804 0.350678 0.385292
O O7 0.308538 0.310989 0.413594
O O8 0.713946 0.000000 0.210461
O O9 0.500000 0.000000 0.172651
O O10 0.896120 0.896120 0.250000
O O11 0.000000 0.894571 0.347715
O O12 0.617513 0.198714 0.500000
O O13 0.500000 0.202607 0.405433
#
# Coordination Sequence:
#
# PCOD9566066 Si02
#       6
#     8  16   8   8  16   4
#     4  10  18  27  42  66  95 124 158 197 234 279
#     4   9  17  28  45  73 105 131 156 190 231 282
#     4  10  18  31  54  78  99 123 152 191 247 303
#     4   9  20  36  53  69  89 117 152 198 239 280
#     4   9  17  27  38  55  87 134 174 195 214 249
#     4  10  18  30  50  70  92 120 148 190 248 296
#
# _framework density 17.432772
#
# number of rings (size 3 to 8) (size 9 to 14) (size 15 to 20)
#    0.000    2.800    0.000    2.600    0.000    3.733 
#    0.000    8.000    0.000   14.400    0.000    0.000 
#    0.000    0.000    0.000    0.000    0.000    0.000 
#
# Total GULP energy -334114.351996 kJ/mol
# GULP energy per Si atom -5568.572533 kJ/mol
# Density = 1.739309 g / cm^3
# Si number density = 17.432772 Si / 1000 Ang^3
#
#
#
# Elastic Constant Matrix: (Units=GPa)
#
#
# Indices 1 2 3 4 5 6 
#
# 1 117.2938 64.0459 25.0738 0.0000 0.0000 0.0000
# 2 64.0459 117.2938 25.0738 0.0000 0.0000 0.0000
# 3 25.0738 25.0738 20.5612 0.0000 0.0000 0.0000
# 4 0.0000 0.0000 0.0000 -3.5603 0.0000 0.0000
# 5 0.0000 0.0000 0.0000 0.0000 -3.5603 0.0000
# 6 0.0000 0.0000 0.0000 0.0000 0.0000 20.0832
#
#
#
# Elastic Compliance Matrix: (Units=1/GPa)
#
#
# Indices 1 2 3 4 5 6 
#
# 1 0.013550 -0.005230 -0.010147 0.000000 0.000000 0.000000
# 2 -0.005230 0.013550 -0.010147 0.000000 0.000000 0.000000
# 3 -0.010147 -0.010147 0.073382 0.000000 0.000000 0.000000
# 4 0.000000 0.000000 0.000000 -0.280873 0.000000 0.000000
# 5 0.000000 0.000000 0.000000 0.000000 -0.280873 0.000000
# 6 0.000000 0.000000 0.000000 0.000000 0.000000 0.049793
#
#
# Mechanical properties :
#
#
# Convention : Reuss Voigt Hill
#
# Bulk Modulus (GPa) = 20.22778 53.72619 36.97699
# Shear Modulus (GPa) = -14.53723 11.98952 -1.27385
#
# Velocity S-wave (km/s) = -2.89087 2.62536 -0.85575
# Velocity P-wave (km/s) = 0.69690 6.33056 4.50342
#
# Compressibility (1/GPa) = 0.04943696
#
# Stress axis : x y z
#
# Youngs Moduli (GPa) = 73.79930 73.79930 13.62727
#
# Poissons Ratio (x) = 0.38596 0.13827
# Poissons Ratio (y) = 0.38596 0.13827
# Poissons Ratio (z) = 0.74881 0.74881
#
# Static dielectric constant tensor:
#      x y z
#    x 1.616930 0.000000 0.000000 
#    y 0.000000 1.616930 0.000000 
#    z 0.000000 0.000000 1.600280 
# 
# From -- ./inp_files/13184.got.cif
#   From: 2010.05.17/outbox.cif.g08.bks.cpg/sg131_7_cif.got.tgz:13184.got - 2010.05.20 12:21:01.
