data_PCOD9566362
_publ_section_title
;
Structure prediction by ZEFSAII (Michael W. Deem and Ramdas Pophale) SiO2 
 PCOD9566362
Probable space group: P 42/M M C
;
_chemical_formula_sum "Si O2"
_cell_formula_units_Z 120
_cell_length_a 17.996479
_cell_length_b 17.996479
_cell_length_c 20.524611
_cell_angle_alpha 90.000000
_cell_angle_beta 90.000000
_cell_angle_gamma 90.000000
_cell_volume 6647.372601
_symmetry_space_group_name_H-M "P 42/M M C"
_symmetry_group_IT_number 131
_symmetry_cell_setting 'tetragonal'
loop_
_space_group_symop_operation_xyz
x,y,z
-x,-y,z
-y,x,1/2+z
y,-x,1/2+z
-x,y,-z
x,-y,-z
y,x,1/2-z
-y,-x,1/2-z
-x,-y,-z
x,y,-z
y,-x,1/2-z
-y,x,1/2-z
x,-y,z
-x,y,z
-y,-x,1/2+z
y,x,1/2+z
loop_
_atom_site_type_symbol
_atom_site_label
_atom_site_fract_x
_atom_site_fract_y
_atom_site_fract_z
Si Si1 0.695274 0.411046 0.790622
Si Si2 0.686791 0.086150 0.881482
Si Si3 0.083729 0.230338 0.142472
Si Si4 0.247142 0.412738 0.074065
Si Si5 0.377194 0.080433 0.575085
Si Si6 0.143743 0.915752 0.924003
Si Si7 0.584699 0.909551 0.000000
Si Si8 0.817205 0.691387 0.748300
O O1 0.631568 0.368433 0.750000
O O2 0.686071 0.500000 0.788684
O O3 0.701644 0.384384 0.866682
O O4 0.775129 0.385823 0.761697
O O5 0.767395 0.086025 0.915519
O O6 0.627906 0.112974 0.934936
O O7 0.689193 0.138107 0.818733
O O8 0.670459 0.000000 0.863353
O O9 0.083807 0.288007 0.082260
O O10 0.113629 0.150642 0.120559
O O11 0.128723 0.276028 0.196468
O O12 0.000000 0.220625 0.166098
O O13 0.262945 0.500000 0.068946
O O14 0.160930 0.405615 0.096670
O O15 0.254179 0.380861 0.000000
O O16 0.399767 0.077119 0.500000
O O17 0.399577 0.000000 0.605514
O O18 0.119151 0.000000 0.906113
O O19 0.124317 0.903763 0.000000
O O20 0.500000 0.884874 0.000000
O O21 0.586555 0.000000 0.000000
O O22 0.750496 0.750496 0.750000
#
# Coordination Sequence:
#
# PCOD9566362 Si02
#       8
#    16  16  16  16  16  16   8  16
#     4  10  22  40  63  90 119 151 189 232 283 353
#     4  10  19  34  56  80 109 149 195 245 304 368
#     4  11  21  34  51  76 111 150 194 248 301 347
#     4   9  17  32  56  85 116 151 190 232 281 343
#     4   9  17  29  47  74 108 146 188 234 285 338
#     4  10  20  35  55  78 107 153 211 261 305 354
#     4   9  18  34  58  86 111 141 188 244 306 377
#     4  11  21  36  57  82 111 150 193 237 290 354
#
# _framework density 18.052244999999999
#
# number of rings (size 3 to 8) (size 9 to 14) (size 15 to 20)
#    0.000    2.067    3.333    0.800    0.000    2.000 
#    0.000    2.000    5.867    1.600    0.000    1.867 
#    0.000    0.000    0.000    0.000    0.000    0.000 
#
# Total GULP energy -668011.865413 kJ/mol
# GULP energy per Si atom -5566.765545 kJ/mol
# Density = 1.801116 g / cm^3
# Si number density = 18.052245 Si / 1000 Ang^3
#
#
#
# Elastic Constant Matrix: (Units=GPa)
#
#
# Indices 1 2 3 4 5 6 
#
# 1 77.2349 32.1119 43.1565 0.0000 0.0000 0.0000
# 2 32.1119 77.2346 43.1561 0.0000 0.0000 0.0000
# 3 43.1565 43.1561 107.1416 0.0000 0.0000 0.0000
# 4 0.0000 0.0000 0.0000 25.8414 0.0000 0.0000
# 5 0.0000 0.0000 0.0000 0.0000 25.8413 0.0000
# 6 0.0000 0.0000 0.0000 0.0000 0.0000 19.5349
#
#
#
# Elastic Compliance Matrix: (Units=1/GPa)
#
#
# Indices 1 2 3 4 5 6 
#
# 1 0.017785 -0.004377 -0.005401 0.000000 0.000000 0.000000
# 2 -0.004377 0.017785 -0.005401 0.000000 0.000000 0.000000
# 3 -0.005401 -0.005401 0.013684 0.000000 0.000000 0.000000
# 4 0.000000 0.000000 0.000000 0.038698 0.000000 0.000000
# 5 0.000000 0.000000 0.000000 0.000000 0.038698 0.000000
# 6 0.000000 0.000000 0.000000 0.000000 0.000000 0.051191
#
#
# Mechanical properties :
#
#
# Convention : Reuss Voigt Hill
#
# Bulk Modulus (GPa) = 52.91654 55.38446 54.15050
# Shear Modulus (GPa) = 23.31042 23.78928 23.54985
#
# Velocity S-wave (km/s) = 3.59733 3.63409 3.61576
# Velocity P-wave (km/s) = 6.82869 6.95381 6.89154
#
# Compressibility (1/GPa) = 0.01889768
#
# Stress axis : x y z
#
# Youngs Moduli (GPa) = 56.22703 56.22701 73.07626
#
# Poissons Ratio (x) = 0.24609 0.39468
# Poissons Ratio (y) = 0.24609 0.39467
# Poissons Ratio (z) = 0.30368 0.30367
#
# Static dielectric constant tensor:
#      x y z
#    x 1.635270 0.000000 0.000000 
#    y 0.000000 1.635270 0.000000 
#    z 0.000000 0.000000 2.191320 
# 
# From -- ./inp_files/10146.got.cif
#   From: 2010.05.17/outbox.cif.g08.bks.cpg/sg131_6_cif.got.tgz:10146.got - 2010.05.20 12:21:01.
