data_PCOD9566717
_publ_section_title
;
Structure prediction by ZEFSAII (Michael W. Deem and Ramdas Pophale) SiO2 
 PCOD9566717
Probable space group: P 42/M M C
;
_chemical_formula_sum "Si O2"
_cell_formula_units_Z 96
_cell_length_a 24.854824
_cell_length_b 24.854824
_cell_length_c 8.331375
_cell_angle_alpha 90.000000
_cell_angle_beta 90.000000
_cell_angle_gamma 90.000000
_cell_volume 5146.809183
_symmetry_space_group_name_H-M "P 42/M M C"
_symmetry_group_IT_number 131
_symmetry_cell_setting 'tetragonal'
loop_
_space_group_symop_operation_xyz
x,y,z
-x,-y,z
-y,x,1/2+z
y,-x,1/2+z
-x,y,-z
x,-y,-z
y,x,1/2-z
-y,-x,1/2-z
-x,-y,-z
x,y,-z
y,-x,1/2-z
-y,x,1/2-z
x,-y,z
-x,y,z
-y,-x,1/2+z
y,x,1/2+z
loop_
_atom_site_type_symbol
_atom_site_label
_atom_site_fract_x
_atom_site_fract_y
_atom_site_fract_z
Si Si1 0.642616 0.145930 0.807612
Si Si2 0.059995 0.854033 0.193280
Si Si3 0.058249 0.438867 0.695517
Si Si4 0.353576 0.439599 0.691699
Si Si5 0.768334 0.561089 0.190483
Si Si6 0.061578 0.270575 0.193668
O O1 0.597266 0.105168 0.743622
O O2 0.614692 0.201846 0.755975
O O3 0.695971 0.113734 0.752027
O O4 0.644895 0.146751 0.000000
O O5 0.105912 0.894089 0.250000
O O6 0.068118 0.791877 0.242696
O O7 0.000000 0.870679 0.248037
O O8 0.059865 0.854094 0.000000
O O9 0.059626 0.438446 0.500000
O O10 0.063699 0.500000 0.746972
O O11 0.000000 0.418425 0.745518
O O12 0.394744 0.394744 0.750000
O O13 0.347547 0.436039 0.500000
O O14 0.373215 0.500000 0.731886
O O15 0.294581 0.433932 0.768201
O O16 0.785365 0.500000 0.251677
O O17 0.776057 0.560360 0.000000
O O18 0.000000 0.287151 0.247359
O O19 0.061023 0.273471 0.000000
#
# Coordination Sequence:
#
# PCOD9566717 Si02
#       6
#    16  16  16  16  16  16
#     4  11  20  30  49  76 104 137 182 230 274 323
#     4   9  19  36  57  81 109 140 172 210 260 316
#     4   8  14  24  38  60  92 126 160 207 267 321
#     4  10  21  38  61  88 117 147 179 218 266 320
#     4  10  21  37  56  78 108 147 188 229 274 323
#     4   9  19  36  54  73 104 144 181 220 270 326
#
# _framework density 18.652334
#
# number of rings (size 3 to 8) (size 9 to 14) (size 15 to 20)
#    0.000    2.500    0.000    4.000    0.000    5.000 
#    0.000    4.167    0.000    2.000    0.000    7.000 
#    0.000    0.000    0.000    0.000    0.000    0.000 
#
# Total GULP energy -534425.784558 kJ/mol
# GULP energy per Si atom -5566.935256 kJ/mol
# Density = 1.860988 g / cm^3
# Si number density = 18.652334 Si / 1000 Ang^3
#
#
#
# Elastic Constant Matrix: (Units=GPa)
#
#
# Indices 1 2 3 4 5 6 
#
# 1 104.3656 73.6183 22.6401 0.0000 0.0000 0.0000
# 2 73.6183 104.3706 22.6401 0.0000 0.0000 0.0000
# 3 22.6401 22.6401 35.2109 0.0000 0.0000 0.0000
# 4 0.0000 0.0000 0.0000 24.2292 0.0000 0.0000
# 5 0.0000 0.0000 0.0000 0.0000 24.2294 0.0000
# 6 0.0000 0.0000 0.0000 0.0000 0.0000 41.0160
#
#
#
# Elastic Compliance Matrix: (Units=1/GPa)
#
#
# Indices 1 2 3 4 5 6 
#
# 1 0.019619 -0.012902 -0.004319 0.000000 0.000000 0.000000
# 2 -0.012902 0.019618 -0.004319 0.000000 0.000000 0.000000
# 3 -0.004319 -0.004319 0.033954 0.000000 0.000000 0.000000
# 4 0.000000 0.000000 0.000000 0.041273 0.000000 0.000000
# 5 0.000000 0.000000 0.000000 0.000000 0.041272 0.000000
# 6 0.000000 0.000000 0.000000 0.000000 0.000000 0.024381
#
#
# Mechanical properties :
#
#
# Convention : Reuss Voigt Hill
#
# Bulk Modulus (GPa) = 33.20869 53.52715 43.36792
# Shear Modulus (GPa) = 21.43763 26.23149 23.83456
#
# Velocity S-wave (km/s) = 3.39385 3.75419 3.57856
# Velocity P-wave (km/s) = 5.76197 6.89576 6.35420
#
# Compressibility (1/GPa) = 0.03011260
#
# Stress axis : x y z
#
# Youngs Moduli (GPa) = 50.96991 50.97272 29.45124
#
# Poissons Ratio (x) = 0.65763 0.12721
# Poissons Ratio (y) = 0.65760 0.12719
# Poissons Ratio (z) = 0.22016 0.22014
#
# Static dielectric constant tensor:
#      x y z
#    x 1.666610 0.000000 0.000000 
#    y 0.000000 1.666610 0.000000 
#    z 0.000000 0.000000 1.657180 
# 
# From -- ./inp_files/2299.got.cif
#   From: 2010.05.17/outbox.cif.g08.bks.cpg/sg131_2_cif.got.tgz:2299.got - 2010.05.20 12:21:01.
