data_PCOD9566930
_publ_section_title
;
Structure prediction by ZEFSAII (Michael W. Deem and Ramdas Pophale) SiO2 
 PCOD9566930
Probable space group: P 42/M M C
;
_chemical_formula_sum "Si O2"
_cell_formula_units_Z 112
_cell_length_a 15.000000
_cell_length_b 15.000000
_cell_length_c 24.000000
_cell_angle_alpha 90.000000
_cell_angle_beta 90.000000
_cell_angle_gamma 90.000000
_cell_volume 5400.000000
_symmetry_space_group_name_H-M "P 42/M M C"
_symmetry_group_IT_number 131
_symmetry_cell_setting 'tetragonal'
loop_
_space_group_symop_operation_xyz
x,y,z
-x,-y,z
-y,x,1/2+z
y,-x,1/2+z
-x,y,-z
x,-y,-z
y,x,1/2-z
-y,-x,1/2-z
-x,-y,-z
x,y,-z
y,-x,1/2-z
-y,x,1/2-z
x,-y,z
-x,y,z
-y,-x,1/2+z
y,x,1/2+z
loop_
_atom_site_type_symbol
_atom_site_label
_atom_site_fract_x
_atom_site_fract_y
_atom_site_fract_z
Si Si1 0.753950 0.897430 0.147450
Si Si2 0.398925 0.869385 0.436288
Si Si3 0.395362 0.861369 0.765727
Si Si4 0.603160 0.655125 0.563716
Si Si5 0.663648 0.598252 0.688399
Si Si6 0.895482 0.733430 0.163224
Si Si7 0.108111 0.400853 0.434730
O O1 0.679709 0.907629 0.196055
O O2 0.829451 0.821107 0.160807
O O3 0.690006 0.865252 0.096400
O O4 0.788722 0.000000 0.137301
O O5 0.386869 0.899793 0.500000
O O6 0.500000 0.895244 0.417841
O O7 0.397544 0.762119 0.437915
O O8 0.319967 0.896960 0.395165
O O9 0.500000 0.893063 0.760163
O O10 0.402391 0.768259 0.798301
O O11 0.342291 0.858561 0.706732
O O12 0.636337 0.626637 0.500000
O O13 0.500000 0.623940 0.566959
O O14 0.646609 0.635482 0.625220
O O15 0.631971 0.631971 0.750000
O O16 0.625139 0.500000 0.684087
O O17 0.000000 0.755764 0.177206
O O18 0.130705 0.395915 0.500000
O O19 0.138877 0.500000 0.413979
O O20 0.000000 0.402647 0.430023
#
# Coordination Sequence:
#
# PCOD9566930 Si02
#       7
#    16  16  16  16  16  16  16
#     4  11  23  40  64  92 126 169 212 255 306 371
#     4   9  19  38  64  91 119 156 205 261 321 382
#     4  11  24  42  65  91 117 150 199 261 326 385
#     4   9  18  34  57  86 124 170 216 265 324 391
#     4  11  22  35  54  82 120 166 216 269 323 387
#     4  12  26  42  63  92 128 170 212 258 317 385
#     4   8  15  31  58  92 127 163 207 262 324 382
#
# _framework density 20.740741
#
# number of rings (size 3 to 8) (size 9 to 14) (size 15 to 20)
#    0.000    1.857    0.000    6.000    0.000    7.286 
#    0.000    2.143    0.000    2.571    0.000    3.000 
#    0.000    0.000    0.000    1.571    0.000    0.571 
#
# Total GULP energy -623475.957171 kJ/mol
# GULP energy per Si atom -5566.749618 kJ/mol
# Density = 2.069353 g / cm^3
# Si number density = 20.740741 Si / 1000 Ang^3
#
#
#
# Elastic Constant Matrix: (Units=GPa)
#
#
# Indices 1 2 3 4 5 6 
#
# 1 127.4162 46.7137 49.0872 0.0000 0.0000 0.0000
# 2 46.7137 127.4162 49.0872 0.0000 0.0000 0.0000
# 3 49.0872 49.0872 144.9832 0.0000 0.0000 0.0000
# 4 0.0000 0.0000 0.0000 28.0257 0.0000 0.0000
# 5 0.0000 0.0000 0.0000 0.0000 28.0257 0.0000
# 6 0.0000 0.0000 0.0000 0.0000 0.0000 4.3711
#
#
#
# Elastic Compliance Matrix: (Units=1/GPa)
#
#
# Indices 1 2 3 4 5 6 
#
# 1 0.009744 -0.002647 -0.002403 0.000000 0.000000 0.000000
# 2 -0.002647 0.009744 -0.002403 0.000000 0.000000 0.000000
# 3 -0.002403 -0.002403 0.008525 0.000000 0.000000 0.000000
# 4 0.000000 0.000000 0.000000 0.035681 0.000000 0.000000
# 5 0.000000 0.000000 0.000000 0.000000 0.035681 0.000000
# 6 0.000000 0.000000 0.000000 0.000000 0.000000 0.228776
#
#
# Mechanical properties :
#
#
# Convention : Reuss Voigt Hill
#
# Bulk Modulus (GPa) = 76.29130 76.62132 76.45631
# Shear Modulus (GPa) = 14.39148 29.07969 21.73559
#
# Velocity S-wave (km/s) = 2.63701 3.74847 3.24074
# Velocity P-wave (km/s) = 6.79227 7.46708 7.13765
#
# Compressibility (1/GPa) = 0.01310765
#
# Stress axis : x y z
#
# Youngs Moduli (GPa) = 102.62266 102.62266 117.30789
#
# Poissons Ratio (x) = 0.27162 0.28190
# Poissons Ratio (y) = 0.27162 0.28190
# Poissons Ratio (z) = 0.24661 0.24661
#
# Static dielectric constant tensor:
#      x y z
#    x 1.775590 0.000000 0.000000 
#    y 0.000000 1.775590 0.000000 
#    z 0.000000 0.000000 1.830890 
# 
# From -- ./inp_files/11256.got.cif
#   From: 2010.05.17/outbox.ucp.g08.bks.cvg/sg131_6_cif.got.tgz:11256.got - 2010.06.11 11:38:44.
