data_PCOD9566998
_publ_section_title
;
Structure prediction by ZEFSAII (Michael W. Deem and Ramdas Pophale) SiO2 
 PCOD9566998
Probable space group: P 42/M C M
;
_chemical_formula_sum "Si O2"
_cell_formula_units_Z 64
_cell_length_a 14.566731
_cell_length_b 14.566731
_cell_length_c 18.496214
_cell_angle_alpha 90.000000
_cell_angle_beta 90.000000
_cell_angle_gamma 90.000000
_cell_volume 3924.705212
_symmetry_space_group_name_H-M "P 42/M C M"
_symmetry_group_IT_number 132
_symmetry_cell_setting 'tetragonal'
loop_
_space_group_symop_operation_xyz
x,y,z
-y,x,1/2+z
-x,-y,z
y,-x,1/2+z
x,-y,1/2-z
-x,y,1/2-z
y,x,-z
-y,-x,-z
-x,-y,-z
y,-x,1/2-z
x,y,-z
-y,x,1/2-z
-x,y,1/2+z
x,-y,1/2+z
-y,-x,z
y,x,z
loop_
_atom_site_type_symbol
_atom_site_label
_atom_site_fract_x
_atom_site_fract_y
_atom_site_fract_z
Si Si1 0.517670 0.893942 0.335916
Si Si2 0.359968 0.786681 0.415469
Si Si3 0.728451 0.122254 0.820165
Si Si4 0.079109 0.224081 0.154616
O O1 0.500000 0.892158 0.250000
O O2 0.449682 0.821877 0.373704
O O3 0.624359 0.871113 0.346088
O O4 0.500000 0.000000 0.359909
O O5 0.379758 0.775585 0.500000
O O6 0.305384 0.694617 0.389695
O O7 0.286266 0.868293 0.403151
O O8 0.789844 0.210157 0.836388
O O9 0.732170 0.105879 0.732991
O O10 0.772140 0.029394 0.852086
O O11 0.123477 0.123477 0.153844
#
# Coordination Sequence:
#
# PCOD9566998 Si02
#       4
#    16  16  16  16
#     4  11  18  31  52  76 102 132 169 213 258 296
#     4  10  20  33  51  75 102 134 172 209 248 300
#     4  10  18  29  48  76 104 131 165 209 256 298
#     4   9  16  30  48  71 105 138 166 198 245 303
#
# _framework density 16.306957000000001
#
# number of rings (size 3 to 8) (size 9 to 14) (size 15 to 20)
#    0.000    2.000    5.000    1.500    0.000    1.000 
#    0.000    2.500    0.000    3.750    0.000    7.000 
#    0.000    0.000    0.000    0.000    0.000    0.000 
#
# Total GULP energy -356585.295720 kJ/mol
# GULP energy per Si atom -5571.645246 kJ/mol
# Density = 1.626984 g / cm^3
# Si number density = 16.306957 Si / 1000 Ang^3
#
#
#
# Elastic Constant Matrix: (Units=GPa)
#
#
# Indices 1 2 3 4 5 6 
#
# 1 132.7227 88.6984 26.9618 0.0000 0.0000 0.0000
# 2 88.6984 132.7227 26.9618 0.0000 0.0000 0.0000
# 3 26.9618 26.9618 28.1634 0.0000 0.0000 0.0000
# 4 0.0000 0.0000 0.0000 10.6849 0.0000 0.0000
# 5 0.0000 0.0000 0.0000 0.0000 10.6849 0.0000
# 6 0.0000 0.0000 0.0000 0.0000 0.0000 20.9387
#
#
#
# Elastic Compliance Matrix: (Units=1/GPa)
#
#
# Indices 1 2 3 4 5 6 
#
# 1 0.014302 -0.008413 -0.005638 0.000000 0.000000 0.000000
# 2 -0.008413 0.014302 -0.005638 0.000000 0.000000 0.000000
# 3 -0.005638 -0.005638 0.046302 0.000000 0.000000 0.000000
# 4 0.000000 0.000000 0.000000 0.093590 0.000000 0.000000
# 5 0.000000 0.000000 0.000000 0.000000 0.093590 0.000000
# 6 0.000000 0.000000 0.000000 0.000000 0.000000 0.047758
#
#
# Mechanical properties :
#
#
# Convention : Reuss Voigt Hill
#
# Bulk Modulus (GPa) = 28.14636 64.31698 46.23167
# Shear Modulus (GPa) = 13.84793 18.52750 16.18772
#
# Velocity S-wave (km/s) = 2.91727 3.37437 3.15411
# Velocity P-wave (km/s) = 5.35211 7.39655 6.45577
#
# Compressibility (1/GPa) = 0.03552857
#
# Stress axis : x y z
#
# Youngs Moduli (GPa) = 69.92007 69.92007 21.59723
#
# Poissons Ratio (x) = 0.58822 0.12177
# Poissons Ratio (y) = 0.58822 0.12177
# Poissons Ratio (z) = 0.39422 0.39422
#
# Static dielectric constant tensor:
#      x y z
#    x 1.551250 0.000000 0.000000 
#    y 0.000000 1.551250 0.000000 
#    z 0.000000 0.000000 1.569970 
# 
# From -- ./inp_files/4407.got.cif
#   From: 2010.05.17/outbox.cif.g08.bks.cpg/sg132_3_cif.got.tgz:4407.got - 2010.05.20 12:30:18.
