data_PCOD9566441
_publ_section_title
;
Structure prediction by ZEFSAII (Michael W. Deem and Ramdas Pophale) SiO2 
 PCOD9566441
Probable space group: P 42/M M C
;
_chemical_formula_sum "Si O2"
_cell_formula_units_Z 104
_cell_length_a 27.829794
_cell_length_b 27.829794
_cell_length_c 9.039462
_cell_angle_alpha 90.000000
_cell_angle_beta 90.000000
_cell_angle_gamma 90.000000
_cell_volume 7001.040124
_symmetry_space_group_name_H-M "P 42/M M C"
_symmetry_group_IT_number 131
_symmetry_cell_setting 'tetragonal'
loop_
_space_group_symop_operation_xyz
x,y,z
-x,-y,z
-y,x,1/2+z
y,-x,1/2+z
-x,y,-z
x,-y,-z
y,x,1/2-z
-y,-x,1/2-z
-x,-y,-z
x,y,-z
y,-x,1/2-z
-y,x,1/2-z
x,-y,z
-x,y,z
-y,-x,1/2+z
y,x,1/2+z
loop_
_atom_site_type_symbol
_atom_site_label
_atom_site_fract_x
_atom_site_fract_y
_atom_site_fract_z
Si Si1 0.441797 0.000000 0.168309
Si Si2 0.786274 0.101596 0.673979
Si Si3 0.199792 0.728858 0.177154
Si Si4 0.556966 0.100839 0.675393
Si Si5 0.850044 0.359506 0.673673
Si Si6 0.701441 0.946820 0.170924
Si Si7 0.055434 0.876489 0.323980
O O1 0.430058 0.049135 0.253034
O O2 0.500000 0.000000 0.158975
O O3 0.422549 0.000000 0.000000
O O4 0.796536 0.099625 0.500000
O O5 0.763409 0.153693 0.708732
O O6 0.745368 0.063639 0.720446
O O7 0.833125 0.088148 0.765113
O O8 0.245695 0.754306 0.250000
O O9 0.186222 0.677296 0.246833
O O10 0.204554 0.725310 0.000000
O O11 0.565789 0.098943 0.500000
O O12 0.500000 0.108360 0.699796
O O13 0.589315 0.142001 0.749273
O O14 0.838910 0.363882 0.500000
O O15 0.902702 0.334704 0.687310
O O16 0.680891 0.000000 0.196266
O O17 0.718970 0.945180 0.000000
O O18 0.075381 0.924620 0.250000
O O19 0.059280 0.879616 0.500000
O O20 0.000000 0.867262 0.284382
#
# Coordination Sequence:
#
# PCOD9566441 Si02
#       7
#     8  16  16  16  16  16  16
#     4   9  17  29  45  63  83 113 153 191 227 269
#     4  10  20  33  51  73  92 111 135 162 195 242
#     4  10  20  34  51  71  95 118 144 177 217 262
#     4  10  20  33  47  65  91 121 154 194 235 271
#     4  10  20  32  48  68  90 118 153 186 224 271
#     4   9  18  31  45  63  89 117 142 174 213 252
#     4  11  24  39  54  70  86 104 125 152 187 230
#
# _framework density 14.854936
#
# number of rings (size 3 to 8) (size 9 to 14) (size 15 to 20)
#    0.000    2.077    0.000    3.462    1.077    9.077 
#    0.000    0.769    0.000    0.000    0.000    0.000 
#    0.000    0.000    0.000    0.000    0.000    0.000 
#
# Total GULP energy -580569.315771 kJ/mol
# GULP energy per Si atom -5582.397267 kJ/mol
# Density = 1.482113 g / cm^3
# Si number density = 14.854936 Si / 1000 Ang^3
#
#
#
# Elastic Constant Matrix: (Units=GPa)
#
#
# Indices 1 2 3 4 5 6 
#
# 1 55.9546 34.3185 43.3675 0.0000 0.0000 0.0000
# 2 34.3185 55.9523 43.3720 0.0000 0.0000 0.0000
# 3 43.3675 43.3720 73.5814 0.0000 0.0000 0.0000
# 4 0.0000 0.0000 0.0000 21.0125 0.0000 0.0000
# 5 0.0000 0.0000 0.0000 0.0000 21.0126 0.0000
# 6 0.0000 0.0000 0.0000 0.0000 0.0000 19.6336
#
#
#
# Elastic Compliance Matrix: (Units=1/GPa)
#
#
# Indices 1 2 3 4 5 6 
#
# 1 0.035879 -0.010338 -0.015052 0.000000 0.000000 0.000000
# 2 -0.010338 0.035888 -0.015061 0.000000 0.000000 0.000000
# 3 -0.015052 -0.015061 0.031339 0.000000 0.000000 0.000000
# 4 0.000000 0.000000 0.000000 0.047591 0.000000 0.000000
# 5 0.000000 0.000000 0.000000 0.000000 0.047590 0.000000
# 6 0.000000 0.000000 0.000000 0.000000 0.000000 0.050933
#
#
# Mechanical properties :
#
#
# Convention : Reuss Voigt Hill
#
# Bulk Modulus (GPa) = 45.03841 47.51159 46.27500
# Shear Modulus (GPa) = 14.81377 16.62709 15.72043
#
# Velocity S-wave (km/s) = 3.16132 3.34922 3.25662
# Velocity P-wave (km/s) = 6.61135 6.85635 6.73496
#
# Compressibility (1/GPa) = 0.02220327
#
# Stress axis : x y z
#
# Youngs Moduli (GPa) = 27.87172 27.86467 31.90873
#
# Poissons Ratio (x) = 0.28807 0.48030
# Poissons Ratio (y) = 0.28814 0.48057
# Poissons Ratio (z) = 0.41954 0.41966
#
# Static dielectric constant tensor:
#      x y z
#    x 1.496640 0.000000 0.000000 
#    y 0.000000 1.496640 0.000000 
#    z 0.000000 0.000000 1.497360 
# 
# From -- ./inp_files/2590.got.cif
#   From: 2010.05.17/outbox.cif.g08.bks.cpg/sg131_2_cif.got.tgz:2590.got - 2010.05.20 12:21:01.
