data_PCOD9566215
_publ_section_title
;
Structure prediction by ZEFSAII (Michael W. Deem and Ramdas Pophale) SiO2 
 PCOD9566215
Probable space group: P 42/M M C
;
_chemical_formula_sum "Si O2"
_cell_formula_units_Z 120
_cell_length_a 29.189730
_cell_length_b 29.189730
_cell_length_c 8.970766
_cell_angle_alpha 90.000000
_cell_angle_beta 90.000000
_cell_angle_gamma 90.000000
_cell_volume 7643.454490
_symmetry_space_group_name_H-M "P 42/M M C"
_symmetry_group_IT_number 131
_symmetry_cell_setting 'tetragonal'
loop_
_space_group_symop_operation_xyz
x,y,z
-x,-y,z
-y,x,1/2+z
y,-x,1/2+z
-x,y,-z
x,-y,-z
y,x,1/2-z
-y,-x,1/2-z
-x,-y,-z
x,y,-z
y,-x,1/2-z
-y,x,1/2-z
x,-y,z
-x,y,z
-y,-x,1/2+z
y,x,1/2+z
loop_
_atom_site_type_symbol
_atom_site_label
_atom_site_fract_x
_atom_site_fract_y
_atom_site_fract_z
Si Si1 0.054213 0.309777 0.677492
Si Si2 0.721856 0.444436 0.827793
Si Si3 0.944423 0.784862 0.829867
Si Si4 0.000000 0.447806 0.818896
Si Si5 0.374884 0.554289 0.321252
Si Si6 0.602474 0.093857 0.320726
Si Si7 0.554819 0.817787 0.822516
Si Si8 0.054815 0.878320 0.674372
O O1 0.058586 0.314355 0.500000
O O2 0.067148 0.259104 0.731371
O O3 0.084942 0.346515 0.762383
O O4 0.000000 0.316967 0.715586
O O5 0.722551 0.500000 0.826839
O O6 0.674935 0.431709 0.743691
O O7 0.769096 0.430205 0.747986
O O8 0.720858 0.429364 0.000000
O O9 0.929142 0.832143 0.756293
O O10 0.000000 0.786516 0.832865
O O11 0.928589 0.780070 0.000000
O O12 0.047271 0.423982 0.772478
O O13 0.000000 0.500000 0.768226
O O14 0.000000 0.447033 0.000000
O O15 0.414267 0.585734 0.250000
O O16 0.374888 0.559057 0.500000
O O17 0.381798 0.500000 0.286643
O O18 0.601008 0.096748 0.500000
O O19 0.579920 0.139003 0.251251
O O20 0.500000 0.822524 0.796521
O O21 0.562331 0.817225 0.000000
O O22 0.078908 0.921093 0.750000
O O23 0.065831 0.876051 0.500000
O O24 0.000000 0.881389 0.689051
#
# Coordination Sequence:
#
# PCOD9566215 Si02
#       8
#    16  16  16   8  16  16  16  16
#     4  10  19  31  47  67  94 123 155 197 246 294
#     4   9  17  31  51  72  94 124 164 208 250 292
#     4   9  17  30  49  70  92 120 157 198 240 283
#     4   9  18  30  43  61  89 125 163 201 240 289
#     4  10  20  33  50  74 105 139 172 206 244 288
#     4  11  20  31  47  67  93 125 164 205 248 297
#     4  10  20  33  48  68  95 126 162 206 254 300
#     4  10  20  33  49  71 100 132 165 198 234 276
#
# _framework density 15.699707
#
# number of rings (size 3 to 8) (size 9 to 14) (size 15 to 20)
#    0.000    2.200    0.667    3.200    0.000    6.933 
#    0.000    1.333    0.000    1.600    0.000    0.933 
#    0.000    0.000    0.000    0.000    0.000    0.000 
#
# Total GULP energy -669175.377392 kJ/mol
# GULP energy per Si atom -5576.461478 kJ/mol
# Density = 1.566397 g / cm^3
# Si number density = 15.699707 Si / 1000 Ang^3
#
#
#
# Elastic Constant Matrix: (Units=GPa)
#
#
# Indices 1 2 3 4 5 6 
#
# 1 66.5320 46.5429 48.9778 0.0000 0.0000 0.0000
# 2 46.5429 66.4940 48.9794 0.0000 0.0000 0.0000
# 3 48.9778 48.9794 89.5853 0.0000 0.0000 0.0000
# 4 0.0000 0.0000 0.0000 27.0055 0.0000 0.0000
# 5 0.0000 0.0000 0.0000 0.0000 27.0056 0.0000
# 6 0.0000 0.0000 0.0000 0.0000 0.0000 7.6973
#
#
#
# Elastic Compliance Matrix: (Units=1/GPa)
#
#
# Indices 1 2 3 4 5 6 
#
# 1 0.033424 -0.016634 -0.009179 0.000000 0.000000 0.000000
# 2 -0.016634 0.033457 -0.009198 0.000000 0.000000 0.000000
# 3 -0.009179 -0.009198 0.021210 0.000000 0.000000 0.000000
# 4 0.000000 0.000000 0.000000 0.037030 0.000000 0.000000
# 5 0.000000 0.000000 0.000000 0.000000 0.037029 0.000000
# 6 0.000000 0.000000 0.000000 0.000000 0.000000 0.129915
#
#
# Mechanical properties :
#
#
# Convention : Reuss Voigt Hill
#
# Bulk Modulus (GPa) = 55.34445 56.84573 56.09509
# Shear Modulus (GPa) = 13.58284 17.54908 15.56596
#
# Velocity S-wave (km/s) = 2.94456 3.34697 3.15219
# Velocity P-wave (km/s) = 6.84755 7.15703 7.00400
#
# Compressibility (1/GPa) = 0.01806866
#
# Stress axis : x y z
#
# Youngs Moduli (GPa) = 29.91858 29.88867 47.14773
#
# Poissons Ratio (x) = 0.49717 0.43277
# Poissons Ratio (y) = 0.49767 0.43368
# Poissons Ratio (z) = 0.27462 0.27492
#
# Static dielectric constant tensor:
#      x y z
#    x 1.511270 0.000000 0.000000 
#    y 0.000000 1.511270 0.000000 
#    z 0.000000 0.000000 1.525630 
# 
# From -- ./inp_files/2673.got.cif
#   From: 2010.05.17/outbox.cif.g08.bks.cpg/sg131_2_cif.got.tgz:2673.got - 2010.05.20 12:21:01.
