data_PCOD9566464
_publ_section_title
;
Structure prediction by ZEFSAII (Michael W. Deem and Ramdas Pophale) SiO2 
 PCOD9566464
Probable space group: P 42/M M C
;
_chemical_formula_sum "Si O2"
_cell_formula_units_Z 88
_cell_length_a 27.362049
_cell_length_b 27.362049
_cell_length_c 9.027460
_cell_angle_alpha 90.000000
_cell_angle_beta 90.000000
_cell_angle_gamma 90.000000
_cell_volume 6758.694329
_symmetry_space_group_name_H-M "P 42/M M C"
_symmetry_group_IT_number 131
_symmetry_cell_setting 'tetragonal'
loop_
_space_group_symop_operation_xyz
x,y,z
-x,-y,z
-y,x,1/2+z
y,-x,1/2+z
-x,y,-z
x,-y,-z
y,x,1/2-z
-y,-x,1/2-z
-x,-y,-z
x,y,-z
y,-x,1/2-z
-y,x,1/2-z
x,-y,z
-x,y,z
-y,-x,1/2+z
y,x,1/2+z
loop_
_atom_site_type_symbol
_atom_site_label
_atom_site_fract_x
_atom_site_fract_y
_atom_site_fract_z
Si Si1 0.649482 0.137532 0.676740
Si Si2 0.804785 0.874294 0.831327
Si Si3 0.557550 0.101610 0.823597
Si Si4 0.942608 0.720234 0.320333
Si Si5 0.209667 0.720697 0.670655
Si Si6 0.000000 0.558901 0.168019
O O1 0.649900 0.134838 0.500000
O O2 0.594885 0.136851 0.741038
O O3 0.679259 0.091112 0.744210
O O4 0.677842 0.184878 0.736367
O O5 0.851532 0.851532 0.750000
O O6 0.773288 0.920462 0.773994
O O7 0.764003 0.831108 0.831413
O O8 0.818685 0.884763 0.000000
O O9 0.500000 0.110291 0.793614
O O10 0.570971 0.048265 0.759183
O O11 0.564729 0.102623 0.000000
O O12 0.936352 0.716549 0.500000
O O13 0.000000 0.715291 0.287004
O O14 0.256647 0.743354 0.750000
O O15 0.218488 0.707048 0.500000
O O16 0.000000 0.500000 0.156154
O O17 0.000000 0.578826 0.000000
#
# Coordination Sequence:
#
# PCOD9566464 Si02
#       6
#    16  16  16  16  16   8
#     4  11  21  30  42  60  81 103 129 160 197 235
#     4   8  14  24  39  56  72  93 117 141 172 213
#     4  10  20  33  46  57  72  99 133 166 201 239
#     4   9  18  31  43  55  75 101 126 152 184 226
#     4   9  16  28  44  61  80 100 125 153 187 229
#     4   9  17  29  43  57  71  89 119 161 203 239
#
# _framework density 13.020267
#
# number of rings (size 3 to 8) (size 9 to 14) (size 15 to 20)
#    0.000    2.636    0.000    4.091    1.273    6.909 
#    0.000    0.000    0.000    0.000    0.000    0.000 
#    0.000    0.364    0.000    4.545    0.000    0.182 
#
# Total GULP energy -490130.535271 kJ/mol
# GULP energy per Si atom -5569.665174 kJ/mol
# Density = 1.299063 g / cm^3
# Si number density = 13.020267 Si / 1000 Ang^3
#
#
#
# Elastic Constant Matrix: (Units=GPa)
#
#
# Indices 1 2 3 4 5 6 
#
# 1 55.1383 41.4043 40.6824 0.0000 0.0000 0.0000
# 2 41.4043 55.1388 40.6830 0.0000 0.0000 0.0000
# 3 40.6824 40.6830 83.4567 0.0000 0.0000 0.0000
# 4 0.0000 0.0000 0.0000 17.1295 0.0000 0.0000
# 5 0.0000 0.0000 0.0000 0.0000 17.1294 0.0000
# 6 0.0000 0.0000 0.0000 0.0000 0.0000 13.0288
#
#
#
# Elastic Compliance Matrix: (Units=1/GPa)
#
#
# Indices 1 2 3 4 5 6 
#
# 1 0.045196 -0.027615 -0.008570 0.000000 0.000000 0.000000
# 2 -0.027615 0.045196 -0.008571 0.000000 0.000000 0.000000
# 3 -0.008570 -0.008571 0.020338 0.000000 0.000000 0.000000
# 4 0.000000 0.000000 0.000000 0.058379 0.000000 0.000000
# 5 0.000000 0.000000 0.000000 0.000000 0.058379 0.000000
# 6 0.000000 0.000000 0.000000 0.000000 0.000000 0.076753
#
#
# Mechanical properties :
#
#
# Convention : Reuss Voigt Hill
#
# Bulk Modulus (GPa) = 47.12796 48.80814 47.96805
# Shear Modulus (GPa) = 12.47429 14.18848 13.33139
#
# Velocity S-wave (km/s) = 3.09862 3.30468 3.20331
# Velocity P-wave (km/s) = 7.00545 7.22003 7.11355
#
# Compressibility (1/GPa) = 0.02121883
#
# Stress axis : x y z
#
# Youngs Moduli (GPa) = 22.12592 22.12582 49.16969
#
# Poissons Ratio (x) = 0.61100 0.42138
# Poissons Ratio (y) = 0.61101 0.42141
# Poissons Ratio (z) = 0.18962 0.18963
#
# Static dielectric constant tensor:
#      x y z
#    x 1.429880 0.000000 0.000000 
#    y 0.000000 1.429880 0.000000 
#    z 0.000000 0.000000 1.440170 
# 
# From -- ./inp_files/2408.got.cif
#   From: 2010.05.17/outbox.cif.g08.bks.cpg/sg131_2_cif.got.tgz:2408.got - 2010.05.20 12:21:01.
