data_PCOD9566744
_publ_section_title
;
Structure prediction by ZEFSAII (Michael W. Deem and Ramdas Pophale) SiO2 
 PCOD9566744
Probable space group: P 42/M M C
;
_chemical_formula_sum "Si O2"
_cell_formula_units_Z 34
_cell_length_a 7.933118
_cell_length_b 7.933118
_cell_length_c 27.580053
_cell_angle_alpha 90.000000
_cell_angle_beta 90.000000
_cell_angle_gamma 90.000000
_cell_volume 1735.733017
_symmetry_space_group_name_H-M "P 42/M M C"
_symmetry_group_IT_number 131
_symmetry_cell_setting 'tetragonal'
loop_
_space_group_symop_operation_xyz
x,y,z
-x,-y,z
-y,x,1/2+z
y,-x,1/2+z
-x,y,-z
x,-y,-z
y,x,1/2-z
-y,-x,1/2-z
-x,-y,-z
x,y,-z
y,-x,1/2-z
-y,x,1/2-z
x,-y,z
-x,y,z
-y,-x,1/2+z
y,x,1/2+z
loop_
_atom_site_type_symbol
_atom_site_label
_atom_site_fract_x
_atom_site_fract_y
_atom_site_fract_z
Si Si1 0.500000 0.500000 0.250000
Si Si2 0.298525 0.307703 0.000000
Si Si3 0.500000 0.793403 0.671913
Si Si4 0.183542 0.798412 0.394645
O O1 0.328661 0.500000 0.218064
O O2 0.242784 0.219878 0.049403
O O3 0.500000 0.312314 0.000000
O O4 0.233104 0.500000 0.000000
O O5 0.663136 0.746519 0.639572
O O6 0.500000 0.000000 0.680528
O O7 0.000000 0.729501 0.380648
O O8 0.178167 0.000000 0.390794
#
# Coordination Sequence:
#
# PCOD9566744 Si02
#       4
#     2   8   8  16
#     4  12  28  44  72  94 116 152 208 260 320 394
#     4  11  22  33  54  89 131 166 203 244 290 354
#     4  10  24  45  65  91 123 156 199 260 316 360
#     4  10  21  38  61  88 122 165 205 242 295 362
#
# _framework density 19.588266000000001
#
# number of rings (size 3 to 8) (size 9 to 14) (size 15 to 20)
#    0.000    1.647    2.353    1.412    3.294    6.588 
#    0.000    0.000    0.000    0.000    0.000    0.000 
#    0.000    0.000    0.000    0.000    0.000    0.000 
#
# Total GULP energy -189824.002321 kJ/mol
# GULP energy per Si atom -5583.058892 kJ/mol
# Density = 1.954368 g / cm^3
# Si number density = 19.588266 Si / 1000 Ang^3
#
#
#
# Elastic Constant Matrix: (Units=GPa)
#
#
# Indices 1 2 3 4 5 6 
#
# 1 113.7435 41.0164 62.4252 0.0000 0.0000 0.0000
# 2 41.0164 113.7435 62.4252 0.0000 0.0000 0.0000
# 3 62.4252 62.4252 136.3074 0.0000 0.0000 0.0000
# 4 0.0000 0.0000 0.0000 4.2801 0.0000 0.0000
# 5 0.0000 0.0000 0.0000 0.0000 4.2801 0.0000
# 6 0.0000 0.0000 0.0000 0.0000 0.0000 11.3172
#
#
#
# Elastic Compliance Matrix: (Units=1/GPa)
#
#
# Indices 1 2 3 4 5 6 
#
# 1 0.011999 -0.001751 -0.004693 0.000000 0.000000 0.000000
# 2 -0.001751 0.011999 -0.004693 0.000000 0.000000 0.000000
# 3 -0.004693 -0.004693 0.011635 0.000000 0.000000 0.000000
# 4 0.000000 0.000000 0.000000 0.233639 0.000000 0.000000
# 5 0.000000 0.000000 0.000000 0.000000 0.233639 0.000000
# 6 0.000000 0.000000 0.000000 0.000000 0.000000 0.088361
#
#
# Mechanical properties :
#
#
# Convention : Reuss Voigt Hill
#
# Bulk Modulus (GPa) = 74.86250 77.28092 76.07171
# Shear Modulus (GPa) = 8.09063 17.17066 12.63065
#
# Velocity S-wave (km/s) = 2.03453 2.96392 2.54206
# Velocity P-wave (km/s) = 6.61967 7.15901 6.89462
#
# Compressibility (1/GPa) = 0.01335782
#
# Stress axis : x y z
#
# Youngs Moduli (GPa) = 83.34073 83.34073 85.94670
#
# Poissons Ratio (x) = 0.14594 0.40337
# Poissons Ratio (y) = 0.14594 0.40337
# Poissons Ratio (z) = 0.39114 0.39114
#
# Static dielectric constant tensor:
#      x y z
#    x 1.712170 0.000000 0.000000 
#    y 0.000000 1.712170 0.000000 
#    z 0.000000 0.000000 1.671080 
# 
# From -- ./inp_files/8655.got.cif
#   From: 2010.05.17/outbox.cif.g08.bks.cpg/sg131_5_cif.got.tgz:8655.got - 2010.05.20 12:21:01.
