data_PCOD9566489
_publ_section_title
;
Structure prediction by ZEFSAII (Michael W. Deem and Ramdas Pophale) SiO2 
 PCOD9566489
Probable space group: P 42/M M C
;
_chemical_formula_sum "Si O2"
_cell_formula_units_Z 48
_cell_length_a 16.346510
_cell_length_b 16.346510
_cell_length_c 8.558672
_cell_angle_alpha 90.000000
_cell_angle_beta 90.000000
_cell_angle_gamma 90.000000
_cell_volume 2286.948959
_symmetry_space_group_name_H-M "P 42/M M C"
_symmetry_group_IT_number 131
_symmetry_cell_setting 'tetragonal'
loop_
_space_group_symop_operation_xyz
x,y,z
-x,-y,z
-y,x,1/2+z
y,-x,1/2+z
-x,y,-z
x,-y,-z
y,x,1/2-z
-y,-x,1/2-z
-x,-y,-z
x,y,-z
y,-x,1/2-z
-y,x,1/2-z
x,-y,z
-x,y,z
-y,-x,1/2+z
y,x,1/2+z
loop_
_atom_site_type_symbol
_atom_site_label
_atom_site_fract_x
_atom_site_fract_y
_atom_site_fract_z
Si Si1 0.611709 0.092047 0.317203
Si Si2 0.408583 0.723773 0.812883
Si Si3 0.909541 0.214258 0.677963
O O1 0.591578 0.095625 0.500000
O O2 0.590655 0.180451 0.242022
O O3 0.707892 0.089522 0.288217
O O4 0.584966 0.000000 0.258770
O O5 0.334304 0.665697 0.750000
O O6 0.500000 0.691330 0.769724
O O7 0.401494 0.724049 0.000000
O O8 0.847433 0.152568 0.750000
O O9 0.888487 0.239321 0.500000
O O10 0.000000 0.178048 0.674021
#
# Coordination Sequence:
#
# PCOD9566489 Si02
#       3
#    16  16  16
#     4  10  21  38  62  91 123 160 202 250 305 367
#     4  11  25  44  67  95 128 168 212 261 317 376
#     4  10  20  33  50  73 105 147 194 246 303 363
#
# _framework density 20.988662999999999
#
# number of rings (size 3 to 8) (size 9 to 14) (size 15 to 20)
#    0.000    1.667    0.000    4.000    0.000    8.000 
#    0.000    6.667    0.000    0.000    0.000    0.000 
#    0.000    0.000    0.000    0.000    0.000    0.000 
#
# Total GULP energy -267326.507934 kJ/mol
# GULP energy per Si atom -5569.302249 kJ/mol
# Density = 2.094089 g / cm^3
# Si number density = 20.988663 Si / 1000 Ang^3
#
#
#
# Elastic Constant Matrix: (Units=GPa)
#
#
# Indices 1 2 3 4 5 6 
#
# 1 94.5674 138.5162 37.5308 0.0000 0.0000 0.0000
# 2 138.5162 94.5783 37.4862 0.0000 0.0000 0.0000
# 3 37.5308 37.4862 71.4111 0.0000 0.0000 0.0000
# 4 0.0000 0.0000 0.0000 30.3044 0.0000 0.0000
# 5 0.0000 0.0000 0.0000 0.0000 30.3090 0.0000
# 6 0.0000 0.0000 0.0000 0.0000 0.0000 9.3196
#
#
#
# Elastic Compliance Matrix: (Units=1/GPa)
#
#
# Indices 1 2 3 4 5 6 
#
# 1 -0.008800 0.013960 -0.002703 0.000000 0.000000 0.000000
# 2 0.013960 -0.008793 -0.002721 0.000000 0.000000 0.000000
# 3 -0.002703 -0.002721 0.016852 0.000000 0.000000 0.000000
# 4 0.000000 0.000000 0.000000 0.032998 0.000000 0.000000
# 5 0.000000 0.000000 0.000000 0.000000 0.032994 0.000000
# 6 0.000000 0.000000 0.000000 0.000000 0.000000 0.107300
#
#
# Mechanical properties :
#
#
# Convention : Reuss Voigt Hill
#
# Bulk Modulus (GPa) = 61.23405 76.40258 68.81832
# Shear Modulus (GPa) = 31.07091 17.12152 24.09622
#
# Velocity S-wave (km/s) = 3.85173 2.85923 3.39198
# Velocity P-wave (km/s) = 7.00137 6.88340 6.94264
#
# Compressibility (1/GPa) = 0.01633078
#
# Stress axis : x y z
#
# Youngs Moduli (GPa) = -113.63392 -113.72155 59.33948
#
# Poissons Ratio (x) = 1.58753 0.16039
# Poissons Ratio (y) = 1.58630 0.16145
# Poissons Ratio (z) = -0.30715 -0.30941
#
# Static dielectric constant tensor:
#      x y z
#    x 1.722910 0.000000 0.000000 
#    y 0.000000 1.722900 0.000000 
#    z 0.000000 0.000000 1.743870 
# 
# From -- ./inp_files/963.got.cif
#   From: 2010.05.17/outbox.cif.g08.bks.cpg/sg131_1_cif.got.tgz:963.got - 2010.05.20 12:21:01.
