data_PCOD9566700
_publ_section_title
;
Structure prediction by ZEFSAII (Michael W. Deem and Ramdas Pophale) SiO2 
 PCOD9566700
Probable space group: P 42/M M C
;
_chemical_formula_sum "Si O2"
_cell_formula_units_Z 112
_cell_length_a 14.114923
_cell_length_b 14.114923
_cell_length_c 27.727320
_cell_angle_alpha 90.000000
_cell_angle_beta 90.000000
_cell_angle_gamma 90.000000
_cell_volume 5524.143113
_symmetry_space_group_name_H-M "P 42/M M C"
_symmetry_group_IT_number 131
_symmetry_cell_setting 'tetragonal'
loop_
_space_group_symop_operation_xyz
x,y,z
-x,-y,z
-y,x,1/2+z
y,-x,1/2+z
-x,y,-z
x,-y,-z
y,x,1/2-z
-y,-x,1/2-z
-x,-y,-z
x,y,-z
y,-x,1/2-z
-y,x,1/2-z
x,-y,z
-x,y,z
-y,-x,1/2+z
y,x,1/2+z
loop_
_atom_site_type_symbol
_atom_site_label
_atom_site_fract_x
_atom_site_fract_y
_atom_site_fract_z
Si Si1 0.612548 0.111927 0.803206
Si Si2 0.389768 0.208784 0.905019
Si Si3 0.613871 0.107104 0.607127
Si Si4 0.284306 0.885685 0.292399
Si Si5 0.611456 0.299647 0.443201
Si Si6 0.114097 0.787632 0.447478
Si Si7 0.886153 0.107722 0.848649
O O1 0.500000 0.117390 0.793617
O O2 0.632471 0.171101 0.851349
O O3 0.667128 0.148585 0.756212
O O4 0.633604 0.000000 0.812085
O O5 0.500000 0.189620 0.914730
O O6 0.365966 0.318922 0.912852
O O7 0.317447 0.153897 0.939711
O O8 0.500000 0.103441 0.609853
O O9 0.654078 0.133468 0.659673
O O10 0.637094 0.190916 0.570090
O O11 0.647288 0.000000 0.595042
O O12 0.178728 0.855105 0.306870
O O13 0.282443 0.000000 0.287664
O O14 0.625846 0.316209 0.500000
O O15 0.500000 0.313468 0.432596
O O16 0.144240 0.824654 0.500000
O O17 0.141399 0.848175 0.400507
O O18 0.000000 0.785554 0.446969
O O19 0.000000 0.108158 0.850487
O O20 0.854890 0.000000 0.839648
#
# Coordination Sequence:
#
# PCOD9566700 Si02
#       7
#    16  16  16  16  16  16  16
#     4   9  18  34  58  87 114 140 178 232 292 347
#     4  11  23  39  59  81 107 141 183 233 287 341
#     4   9  17  31  55  87 118 146 182 230 279 327
#     4   9  16  29  53  83 114 148 183 223 273 326
#     4  10  22  39  58  83 116 152 189 228 273 331
#     4  10  21  36  55  81 113 149 190 236 283 330
#     4   9  18  33  54  83 119 157 196 232 267 319
#
# _framework density 20.274636000000001
#
# number of rings (size 3 to 8) (size 9 to 14) (size 15 to 20)
#    0.000    2.429    0.000    2.143    0.000    4.571 
#    0.000    7.143    0.000    9.429    0.000    6.000 
#    0.000    9.143    0.000    0.000    0.000    0.000 
#
# Total GULP energy -625613.611326 kJ/mol
# GULP energy per Si atom -5585.835815 kJ/mol
# Density = 2.022849 g / cm^3
# Si number density = 20.274636 Si / 1000 Ang^3
#
#
#
# Elastic Constant Matrix: (Units=GPa)
#
#
# Indices 1 2 3 4 5 6 
#
# 1 62.3885 11.4910 46.1366 0.0000 0.0000 0.0000
# 2 11.4910 62.3885 46.1366 0.0000 0.0000 0.0000
# 3 46.1366 46.1366 124.3872 0.0000 0.0000 0.0000
# 4 0.0000 0.0000 0.0000 30.6993 0.0000 0.0000
# 5 0.0000 0.0000 0.0000 0.0000 30.6993 0.0000
# 6 0.0000 0.0000 0.0000 0.0000 0.0000 26.4668
#
#
#
# Elastic Compliance Matrix: (Units=1/GPa)
#
#
# Indices 1 2 3 4 5 6 
#
# 1 0.022433 0.002785 -0.009354 0.000000 0.000000 0.000000
# 2 0.002785 0.022433 -0.009354 0.000000 0.000000 0.000000
# 3 -0.009354 -0.009354 0.014978 0.000000 0.000000 0.000000
# 4 0.000000 0.000000 0.000000 0.032574 0.000000 0.000000
# 5 0.000000 0.000000 0.000000 0.000000 0.032574 0.000000
# 6 0.000000 0.000000 0.000000 0.000000 0.000000 0.037783
#
#
# Mechanical properties :
#
#
# Convention : Reuss Voigt Hill
#
# Bulk Modulus (GPa) = 35.71490 50.74364 43.22927
# Shear Modulus (GPa) = 24.51560 27.26640 25.89100
#
# Velocity S-wave (km/s) = 3.48109 3.67120 3.57741
# Velocity P-wave (km/s) = 5.81474 6.56146 6.19935
#
# Compressibility (1/GPa) = 0.02799952
#
# Stress axis : x y z
#
# Youngs Moduli (GPa) = 44.57794 44.57794 66.76394
#
# Poissons Ratio (x) = -0.12416 0.62448
# Poissons Ratio (y) = -0.12416 0.62448
# Poissons Ratio (z) = 0.41697 0.41697
#
# Static dielectric constant tensor:
#      x y z
#    x 1.735890 0.000000 0.000000 
#    y 0.000000 1.735890 0.000000 
#    z 0.000000 0.000000 1.701330 
# 
# From -- ./inp_files/11280.got.cif
#   From: 2010.05.17/outbox.cif.g08.bks.cpg/sg131_6_cif.got.tgz:11280.got - 2010.05.20 12:21:01.
