data_PCOD9566971
_publ_section_title
;
Structure prediction by ZEFSAII (Michael W. Deem and Ramdas Pophale) SiO2 
 PCOD9566971
Probable space group: P 42/M C M
;
_chemical_formula_sum "Si O2"
_cell_formula_units_Z 64
_cell_length_a 21.945354
_cell_length_b 21.945354
_cell_length_c 9.005288
_cell_angle_alpha 90.000000
_cell_angle_beta 90.000000
_cell_angle_gamma 90.000000
_cell_volume 4336.933753
_symmetry_space_group_name_H-M "P 42/M C M"
_symmetry_group_IT_number 132
_symmetry_cell_setting 'tetragonal'
loop_
_space_group_symop_operation_xyz
x,y,z
-y,x,1/2+z
-x,-y,z
y,-x,1/2+z
x,-y,1/2-z
-x,y,1/2-z
y,x,-z
-y,-x,-z
-x,-y,-z
y,-x,1/2-z
x,y,-z
-y,x,1/2-z
-x,y,1/2+z
x,-y,1/2+z
-y,-x,z
y,x,z
loop_
_atom_site_type_symbol
_atom_site_label
_atom_site_fract_x
_atom_site_fract_y
_atom_site_fract_z
Si Si1 0.766833 0.939494 0.830666
Si Si2 0.844471 0.654948 0.169732
Si Si3 0.848158 0.151843 0.175579
Si Si4 0.063611 0.566925 0.821857
Si Si5 0.754172 0.245829 0.678959
O O1 0.712577 0.890405 0.830156
O O2 0.823675 0.910294 0.745392
O O3 0.745852 0.000000 0.750000
O O4 0.782967 0.952261 0.000000
O O5 0.877737 0.606686 0.274956
O O6 0.778984 0.685755 0.208365
O O7 0.841694 0.631311 0.000000
O O8 0.798009 0.201992 0.226592
O O9 0.851282 0.148719 0.000000
O O10 0.070695 0.500000 0.750000
O O11 0.000000 0.591406 0.750000
O O12 0.057310 0.564065 0.000000
O O13 0.764339 0.235662 0.500000
#
# Coordination Sequence:
#
# PCOD9566971 Si02
#       5
#    16  16   8  16   8
#     4  10  19  30  44  61  80 101 126 158 198 242
#     4   9  17  30  46  64  85 108 136 170 208 248
#     4  10  18  28  42  59  79 100 124 156 195 239
#     4  11  21  32  45  61  84 115 149 184 218 255
#     4   8  16  30  46  62  83 109 134 167 209 250
#
# _framework density 14.756971
#
# number of rings (size 3 to 8) (size 9 to 14) (size 15 to 20)
#    0.000    2.250    0.000    7.125    0.000    7.000 
#    0.000    0.000    0.000    0.375    0.000    2.625 
#    0.000    0.000    0.000    0.000    0.000    0.625 
#
# Total GULP energy -356408.905187 kJ/mol
# GULP energy per Si atom -5568.889144 kJ/mol
# Density = 1.472338 g / cm^3
# Si number density = 14.756971 Si / 1000 Ang^3
#
#
#
# Elastic Constant Matrix: (Units=GPa)
#
#
# Indices 1 2 3 4 5 6 
#
# 1 44.7595 26.4109 30.9907 0.0000 0.0000 0.0000
# 2 26.4109 44.7596 30.9905 0.0000 0.0000 0.0000
# 3 30.9907 30.9905 117.4211 0.0000 0.0000 0.0000
# 4 0.0000 0.0000 0.0000 18.2496 0.0000 0.0000
# 5 0.0000 0.0000 0.0000 0.0000 18.2496 0.0000
# 6 0.0000 0.0000 0.0000 0.0000 0.0000 23.4507
#
#
#
# Elastic Compliance Matrix: (Units=1/GPa)
#
#
# Indices 1 2 3 4 5 6 
#
# 1 0.036372 -0.018128 -0.004815 0.000000 0.000000 0.000000
# 2 -0.018128 0.036372 -0.004815 0.000000 0.000000 0.000000
# 3 -0.004815 -0.004815 0.011058 0.000000 0.000000 0.000000
# 4 0.000000 0.000000 0.000000 0.054796 0.000000 0.000000
# 5 0.000000 0.000000 0.000000 0.000000 0.054796 0.000000
# 6 0.000000 0.000000 0.000000 0.000000 0.000000 0.042643
#
#
# Mechanical properties :
#
#
# Convention : Reuss Voigt Hill
#
# Bulk Modulus (GPa) = 35.35331 42.63604 38.99467
# Shear Modulus (GPa) = 16.61233 19.89318 18.25275
#
# Velocity S-wave (km/s) = 3.35883 3.67557 3.52076
# Velocity P-wave (km/s) = 6.24911 6.85331 6.55817
#
# Compressibility (1/GPa) = 0.02828590
#
# Stress axis : x y z
#
# Youngs Moduli (GPa) = 27.49356 27.49372 90.43193
#
# Poissons Ratio (x) = 0.49840 0.43545
# Poissons Ratio (y) = 0.49840 0.43543
# Poissons Ratio (z) = 0.13239 0.13238
#
# Static dielectric constant tensor:
#      x y z
#    x 1.530480 0.000000 0.000000 
#    y 0.000000 1.530490 0.000000 
#    z 0.000000 0.000000 1.497240 
# 
# From -- ./inp_files/1268.got.cif
#   From: 2010.05.17/outbox.cif.g08.bks.cpg/sg132_1_cif.got.tgz:1268.got - 2010.05.20 12:30:18.
