data_PCOD9566523
_publ_section_title
;
Structure prediction by ZEFSAII (Michael W. Deem and Ramdas Pophale) SiO2 
 PCOD9566523
Probable space group: P 42/M M C
;
_chemical_formula_sum "Si O2"
_cell_formula_units_Z 96
_cell_length_a 18.823638
_cell_length_b 18.823638
_cell_length_c 15.921567
_cell_angle_alpha 90.000000
_cell_angle_beta 90.000000
_cell_angle_gamma 90.000000
_cell_volume 5641.478447
_symmetry_space_group_name_H-M "P 42/M M C"
_symmetry_group_IT_number 131
_symmetry_cell_setting 'tetragonal'
loop_
_space_group_symop_operation_xyz
x,y,z
-x,-y,z
-y,x,1/2+z
y,-x,1/2+z
-x,y,-z
x,-y,-z
y,x,1/2-z
-y,-x,1/2-z
-x,-y,-z
x,y,-z
y,-x,1/2-z
-y,x,1/2-z
x,-y,z
-x,y,z
-y,-x,1/2+z
y,x,1/2+z
loop_
_atom_site_type_symbol
_atom_site_label
_atom_site_fract_x
_atom_site_fract_y
_atom_site_fract_z
Si Si1 0.780341 0.085137 0.090704
Si Si2 0.580717 0.317422 0.597020
Si Si3 0.297884 0.083235 0.740320
Si Si4 0.583100 0.196083 0.262743
Si Si5 0.283425 0.415327 0.595506
Si Si6 0.856237 0.918164 0.336161
O O1 0.731070 0.106207 0.168000
O O2 0.857860 0.119137 0.100322
O O3 0.789286 0.000000 0.097430
O O4 0.749331 0.102287 0.000000
O O5 0.586176 0.291683 0.500000
O O6 0.500000 0.345588 0.607497
O O7 0.590349 0.255584 0.665085
O O8 0.642121 0.375217 0.608783
O O9 0.363647 0.132217 0.717593
O O10 0.227765 0.089639 0.682473
O O11 0.317187 0.000000 0.743162
O O12 0.500000 0.174566 0.259945
O O13 0.601770 0.230626 0.172100
O O14 0.258377 0.398186 0.500000
O O15 0.294887 0.500000 0.599002
O O16 0.897943 0.897943 0.250000
O O17 0.870663 0.000000 0.358588
#
# Coordination Sequence:
#
# PCOD9566523 Si02
#       6
#    16  16  16  16  16  16
#     4   9  18  31  47  70  99 128 156 188 228 275
#     4   9  18  32  50  73 100 130 163 196 232 279
#     4   9  19  35  51  67  90 121 158 199 242 289
#     4  10  20  34  52  72  95 123 159 206 251 288
#     4   9  18  31  47  72 105 135 162 193 231 278
#     4   9  17  29  45  66  93 124 157 191 227 273
#
# _framework density 17.016817
#
# number of rings (size 3 to 8) (size 9 to 14) (size 15 to 20)
#    0.000    2.833    0.000    2.000    0.000    6.833 
#    0.000    5.000    0.000    4.500    0.000    7.000 
#    0.000    0.000    0.000    0.000    0.000    0.000 
#
# Total GULP energy -534770.005402 kJ/mol
# GULP energy per Si atom -5570.520890 kJ/mol
# Density = 1.697809 g / cm^3
# Si number density = 17.016817 Si / 1000 Ang^3
#
#
#
# Elastic Constant Matrix: (Units=GPa)
#
#
# Indices 1 2 3 4 5 6 
#
# 1 41.9237 33.3069 1.9932 0.0000 0.0000 0.0000
# 2 33.3069 41.9237 1.9932 0.0000 0.0000 0.0000
# 3 1.9932 1.9932 35.8255 0.0000 0.0000 0.0000
# 4 0.0000 0.0000 0.0000 11.4669 0.0000 0.0000
# 5 0.0000 0.0000 0.0000 0.0000 11.4669 0.0000
# 6 0.0000 0.0000 0.0000 0.0000 0.0000 -3.7433
#
#
#
# Elastic Compliance Matrix: (Units=1/GPa)
#
#
# Indices 1 2 3 4 5 6 
#
# 1 0.064692 -0.051360 -0.000742 0.000000 0.000000 0.000000
# 2 -0.051360 0.064692 -0.000742 0.000000 0.000000 0.000000
# 3 -0.000742 -0.000742 0.027996 0.000000 0.000000 0.000000
# 4 0.000000 0.000000 0.000000 0.087207 0.000000 0.000000
# 5 0.000000 0.000000 0.000000 0.000000 0.087207 0.000000
# 6 0.000000 0.000000 0.000000 0.000000 0.000000 -0.267144
#
#
# Mechanical properties :
#
#
# Convention : Reuss Voigt Hill
#
# Bulk Modulus (GPa) = 19.34527 21.58439 20.46483
# Shear Modulus (GPa) = 26.65689 9.33009 17.99349
#
# Velocity S-wave (km/s) = 3.96220 2.34409 3.25529
# Velocity P-wave (km/s) = 5.68551 4.47639 5.11679
#
# Compressibility (1/GPa) = 0.05169223
#
# Stress axis : x y z
#
# Youngs Moduli (GPa) = 15.45786 15.45786 35.71989
#
# Poissons Ratio (x) = 0.79392 0.02649
# Poissons Ratio (y) = 0.79392 0.02649
# Poissons Ratio (z) = 0.01147 0.01147
#
# Static dielectric constant tensor:
#      x y z
#    x 1.553450 0.000000 0.000000 
#    y 0.000000 1.553450 0.000000 
#    z 0.000000 0.000000 1.612170 
# 
# From -- ./inp_files/7968.got.cif
#   From: 2010.05.17/outbox.cif.g08.bks.cpg/sg131_4_cif.got.tgz:7968.got - 2010.05.20 12:21:01.
