data_PCOD9566760
_publ_section_title
;
Structure prediction by ZEFSAII (Michael W. Deem and Ramdas Pophale) SiO2 
 PCOD9566760
Probable space group: P 42/M M C
;
_chemical_formula_sum "Si O2"
_cell_formula_units_Z 96
_cell_length_a 13.985947
_cell_length_b 13.985947
_cell_length_c 22.284297
_cell_angle_alpha 90.000000
_cell_angle_beta 90.000000
_cell_angle_gamma 90.000000
_cell_volume 4358.958099
_symmetry_space_group_name_H-M "P 42/M M C"
_symmetry_group_IT_number 131
_symmetry_cell_setting 'tetragonal'
loop_
_space_group_symop_operation_xyz
x,y,z
-x,-y,z
-y,x,1/2+z
y,-x,1/2+z
-x,y,-z
x,-y,-z
y,x,1/2-z
-y,-x,1/2-z
-x,-y,-z
x,y,-z
y,-x,1/2-z
-y,x,1/2-z
x,-y,z
-x,y,z
-y,-x,1/2+z
y,x,1/2+z
loop_
_atom_site_type_symbol
_atom_site_label
_atom_site_fract_x
_atom_site_fract_y
_atom_site_fract_z
Si Si1 0.612520 0.116003 0.619479
Si Si2 0.606120 0.615423 0.314776
Si Si3 0.109212 0.383995 0.745242
Si Si4 0.790202 0.387683 0.618693
Si Si5 0.889077 0.884849 0.185167
Si Si6 0.196466 0.201931 0.065165
O O1 0.500000 0.136982 0.609263
O O2 0.641116 0.145621 0.688039
O O3 0.687424 0.165793 0.575435
O O4 0.621979 0.000000 0.616522
O O5 0.646159 0.646159 0.250000
O O6 0.600103 0.500000 0.307603
O O7 0.500000 0.653894 0.324409
O O8 0.678208 0.629473 0.368208
O O9 0.107379 0.500000 0.747446
O O10 0.161271 0.362775 0.682878
O O11 0.000000 0.349459 0.740339
O O12 0.807492 0.500000 0.606091
O O13 0.816199 0.310141 0.569689
O O14 0.849665 0.849665 0.250000
O O15 0.843887 0.850134 0.123774
O O16 0.000000 0.856158 0.182620
O O17 0.884981 0.000000 0.187620
O O18 0.160535 0.170370 0.000000
#
# Coordination Sequence:
#
# PCOD9566760 Si02
#       6
#    16  16  16  16  16  16
#     4   9  20  39  62  89 123 159 198 255 325 389
#     4   8  15  28  47  75 108 141 187 250 313 363
#     4   8  16  33  57  86 114 144 192 251 308 365
#     4  10  22  37  56  81 117 168 213 256 308 358
#     4   9  21  44  72 100 128 158 196 250 317 383
#     4  12  27  40  58  92 129 169 216 259 304 369
#
# _framework density 22.023610999999999
#
# number of rings (size 3 to 8) (size 9 to 14) (size 15 to 20)
#    0.000    2.667    0.000    2.500    4.667    3.667 
#    0.000    1.667    0.000    0.000    0.000    7.000 
#    0.000    0.000    0.000    0.000    0.000    0.000 
#
# Total GULP energy -535948.302331 kJ/mol
# GULP energy per Si atom -5582.794816 kJ/mol
# Density = 2.197348 g / cm^3
# Si number density = 22.023611 Si / 1000 Ang^3
#
#
#
# Elastic Constant Matrix: (Units=GPa)
#
#
# Indices 1 2 3 4 5 6 
#
# 1 58.3325 10.1436 35.4324 0.0000 0.0000 0.0000
# 2 10.1436 58.3325 35.4324 0.0000 0.0000 0.0000
# 3 35.4324 35.4324 136.4926 0.0000 0.0000 0.0000
# 4 0.0000 0.0000 0.0000 9.1836 0.0000 0.0000
# 5 0.0000 0.0000 0.0000 0.0000 9.1836 0.0000
# 6 0.0000 0.0000 0.0000 0.0000 0.0000 17.6554
#
#
#
# Elastic Compliance Matrix: (Units=1/GPa)
#
#
# Indices 1 2 3 4 5 6 
#
# 1 0.020360 -0.000392 -0.005184 0.000000 0.000000 0.000000
# 2 -0.000392 0.020360 -0.005184 0.000000 0.000000 0.000000
# 3 -0.005184 -0.005184 0.010018 0.000000 0.000000 0.000000
# 4 0.000000 0.000000 0.000000 0.108889 0.000000 0.000000
# 5 0.000000 0.000000 0.000000 0.000000 0.108889 0.000000
# 6 0.000000 0.000000 0.000000 0.000000 0.000000 0.056640
#
#
# Mechanical properties :
#
#
# Convention : Reuss Voigt Hill
#
# Bulk Modulus (GPa) = 34.22378 46.13051 40.17714
# Shear Modulus (GPa) = 14.02865 18.68114 16.35490
#
# Velocity S-wave (km/s) = 2.52659 2.91560 2.72804
# Velocity P-wave (km/s) = 4.90763 5.68557 5.31087
#
# Compressibility (1/GPa) = 0.02921945
#
# Stress axis : x y z
#
# Youngs Moduli (GPa) = 49.11635 49.11635 99.82406
#
# Poissons Ratio (x) = 0.01924 0.51744
# Poissons Ratio (y) = 0.01924 0.51744
# Poissons Ratio (z) = 0.25460 0.25460
#
# Static dielectric constant tensor:
#      x y z
#    x 1.854260 0.000000 0.000000 
#    y 0.000000 1.854260 0.000000 
#    z 0.000000 0.000000 1.772400 
# 
# From -- ./inp_files/9727.got.cif
#   From: 2010.05.17/outbox.cif.g08.bks.cpg/sg131_5_cif.got.tgz:9727.got - 2010.05.20 12:21:01.
