data_PCOD9566111
_publ_section_title
;
Structure prediction by ZEFSAII (Michael W. Deem and Ramdas Pophale) SiO2 
 PCOD9566111
Probable space group: P 42/M M C
;
_chemical_formula_sum "Si O2"
_cell_formula_units_Z 84
_cell_length_a 12.187695
_cell_length_b 12.187695
_cell_length_c 32.866758
_cell_angle_alpha 90.000000
_cell_angle_beta 90.000000
_cell_angle_gamma 90.000000
_cell_volume 4882.025256
_symmetry_space_group_name_H-M "P 42/M M C"
_symmetry_group_IT_number 131
_symmetry_cell_setting 'tetragonal'
loop_
_space_group_symop_operation_xyz
x,y,z
-x,-y,z
-y,x,1/2+z
y,-x,1/2+z
-x,y,-z
x,-y,-z
y,x,1/2-z
-y,-x,1/2-z
-x,-y,-z
x,y,-z
y,-x,1/2-z
-y,x,1/2-z
x,-y,z
-x,y,z
-y,-x,1/2+z
y,x,1/2+z
loop_
_atom_site_type_symbol
_atom_site_label
_atom_site_fract_x
_atom_site_fract_y
_atom_site_fract_z
Si Si1 0.285140 0.000000 0.124483
Si Si2 0.238283 0.500000 0.546086
Si Si3 0.209301 0.369474 0.229273
Si Si4 0.745362 0.777401 0.079640
Si Si5 0.867540 0.867640 0.500000
Si Si6 0.632179 0.127511 0.359346
Si Si7 0.000000 0.369234 0.714423
Si Si8 0.000000 0.500000 0.569819
O O1 0.238159 0.115735 0.108855
O O2 0.398518 0.000000 0.099840
O O3 0.303956 0.000000 0.172444
O O4 0.285431 0.500000 0.500000
O O5 0.255506 0.617476 0.569435
O O6 0.107081 0.500000 0.543176
O O7 0.311199 0.311199 0.250000
O O8 0.224407 0.500000 0.228147
O O9 0.182421 0.332436 0.183384
O O10 0.105305 0.346013 0.257965
O O11 0.805502 0.679737 0.102983
O O12 0.807557 0.813470 0.038644
O O13 0.000000 0.849137 0.500000
O O14 0.850096 0.000000 0.500000
O O15 0.500000 0.128548 0.359889
O O16 0.667173 0.000000 0.360341
O O17 0.000000 0.500000 0.704924
#
# Coordination Sequence:
#
# PCOD9566111 Si02
#       8
#     8   8  16  16   8  16   8   4
#     4  10  18  30  50  85 120 146 181 221 279 340
#     4  10  19  32  55  82 117 147 184 230 294 355
#     4  10  20  36  59  83 112 147 187 239 292 339
#     4  11  21  36  58  87 116 153 188 237 291 349
#     4  11  22  37  56  84 119 153 197 241 293 345
#     4  10  21  41  62  81 109 153 202 240 279 339
#     4  10  18  32  54  81 110 146 188 227 275 337
#     4   8  17  26  46  78 120 152 178 214 262 341
#
# _framework density 17.205973
#
# number of rings (size 3 to 8) (size 9 to 14) (size 15 to 20)
#    0.000    1.810    3.333    1.857    0.000    0.190 
#    1.714    0.952    0.000    2.571    0.000    0.000 
#    0.000    0.000    0.000    0.000    0.000    0.000 
#
# Total GULP energy -467930.086170 kJ/mol
# GULP energy per Si atom -5570.596264 kJ/mol
# Density = 1.716681 g / cm^3
# Si number density = 17.205973 Si / 1000 Ang^3
#
#
#
# Elastic Constant Matrix: (Units=GPa)
#
#
# Indices 1 2 3 4 5 6 
#
# 1 55.0591 31.5167 45.8809 0.0000 0.0000 0.0000
# 2 31.5167 55.0591 45.8809 0.0000 0.0000 0.0000
# 3 45.8809 45.8809 143.5076 0.0000 0.0000 0.0000
# 4 0.0000 0.0000 0.0000 29.6156 0.0000 0.0000
# 5 0.0000 0.0000 0.0000 0.0000 29.6156 0.0000
# 6 0.0000 0.0000 0.0000 0.0000 0.0000 9.0410
#
#
#
# Elastic Compliance Matrix: (Units=1/GPa)
#
#
# Indices 1 2 3 4 5 6 
#
# 1 0.029974 -0.012503 -0.005586 0.000000 0.000000 0.000000
# 2 -0.012503 0.029974 -0.005586 0.000000 0.000000 0.000000
# 3 -0.005586 -0.005586 0.010540 0.000000 0.000000 0.000000
# 4 0.000000 0.000000 0.000000 0.033766 0.000000 0.000000
# 5 0.000000 0.000000 0.000000 0.000000 0.033766 0.000000
# 6 0.000000 0.000000 0.000000 0.000000 0.000000 0.110607
#
#
# Mechanical properties :
#
#
# Convention : Reuss Voigt Hill
#
# Bulk Modulus (GPa) = 43.21715 55.57585 49.39650
# Shear Modulus (GPa) = 16.46432 22.34429 19.40431
#
# Velocity S-wave (km/s) = 3.09673 3.60757 3.36187
# Velocity P-wave (km/s) = 6.16104 7.05147 6.62124
#
# Compressibility (1/GPa) = 0.02313896
#
# Stress axis : x y z
#
# Youngs Moduli (GPa) = 33.36264 33.36264 94.87846
#
# Poissons Ratio (x) = 0.41713 0.52995
# Poissons Ratio (y) = 0.41713 0.52995
# Poissons Ratio (z) = 0.18635 0.18635
#
# Static dielectric constant tensor:
#      x y z
#    x 1.589580 0.000000 0.000000 
#    y 0.000000 1.589580 0.000000 
#    z 0.000000 0.000000 1.567950 
# 
# From -- ./inp_files/13632.got.cif
#   From: 2010.05.17/outbox.cif.g08.bks.cpg/sg131_7_cif.got.tgz:13632.got - 2010.05.20 12:21:01.
