data_PCOD9566548
_publ_section_title
;
Structure prediction by ZEFSAII (Michael W. Deem and Ramdas Pophale) SiO2 
 PCOD9566548
Probable space group: P 42/M M C
;
_chemical_formula_sum "Si O2"
_cell_formula_units_Z 112
_cell_length_a 15.245452
_cell_length_b 15.245452
_cell_length_c 22.556986
_cell_angle_alpha 90.000000
_cell_angle_beta 90.000000
_cell_angle_gamma 90.000000
_cell_volume 5242.780553
_symmetry_space_group_name_H-M "P 42/M M C"
_symmetry_group_IT_number 131
_symmetry_cell_setting 'tetragonal'
loop_
_space_group_symop_operation_xyz
x,y,z
-x,-y,z
-y,x,1/2+z
y,-x,1/2+z
-x,y,-z
x,-y,-z
y,x,1/2-z
-y,-x,1/2-z
-x,-y,-z
x,y,-z
y,-x,1/2-z
-y,x,1/2-z
x,-y,z
-x,y,z
-y,-x,1/2+z
y,x,1/2+z
loop_
_atom_site_type_symbol
_atom_site_label
_atom_site_fract_x
_atom_site_fract_y
_atom_site_fract_z
Si Si1 0.405522 0.186997 0.101327
Si Si2 0.753891 0.605721 0.739387
Si Si3 0.250332 0.102142 0.244670
Si Si4 0.904644 0.233583 0.395582
Si Si5 0.380396 0.593467 0.432281
Si Si6 0.241921 0.100348 0.428381
Si Si7 0.213263 0.593795 0.927786
O O1 0.500000 0.141521 0.097319
O O2 0.395776 0.223016 0.169015
O O3 0.323512 0.132769 0.078843
O O4 0.406333 0.276271 0.065312
O O5 0.664805 0.664805 0.750000
O O6 0.749761 0.500000 0.756797
O O7 0.835148 0.667082 0.764429
O O8 0.161534 0.161534 0.250000
O O9 0.255923 0.091637 0.173898
O O10 0.248119 0.000000 0.267844
O O11 0.841189 0.152729 0.405641
O O12 0.000000 0.212497 0.418861
O O13 0.411667 0.593202 0.500000
O O14 0.405599 0.500000 0.403850
O O15 0.404245 0.686875 0.404624
O O16 0.241192 0.101863 0.500000
O O17 0.325953 0.155212 0.407683
O O18 0.244701 0.000000 0.409543
O O19 0.173129 0.500000 0.913008
O O20 0.218960 0.599579 0.000000
#
# Coordination Sequence:
#
# PCOD9566548 Si02
#       7
#    16  16  16  16  16  16  16
#     4   9  17  31  52  76 104 135 168 206 251 301
#     4   9  18  33  53  77 107 141 175 210 249 300
#     4   9  19  35  56  81 105 131 166 213 267 315
#     4  10  20  34  54  78 102 132 169 207 253 308
#     4   9  16  27  47  74 103 134 166 202 246 295
#     4  10  21  36  52  71 100 137 174 215 260 303
#     4   9  17  30  49  71  94 126 170 213 253 297
#
# _framework density 21.362708999999999
#
# number of rings (size 3 to 8) (size 9 to 14) (size 15 to 20)
#    0.000    2.714    1.429    0.000    0.000    2.571 
#    0.000    8.571    0.000    2.571    0.000    5.000 
#    0.000    0.000    0.000    0.000    0.000    0.000 
#
# Total GULP energy -623642.822587 kJ/mol
# GULP energy per Si atom -5568.239487 kJ/mol
# Density = 2.131409 g / cm^3
# Si number density = 21.362709 Si / 1000 Ang^3
#
#
#
# Elastic Constant Matrix: (Units=GPa)
#
#
# Indices 1 2 3 4 5 6 
#
# 1 193.4348 114.4999 6.5192 0.0000 0.0000 0.0000
# 2 114.4999 193.4348 6.5192 0.0000 0.0000 0.0000
# 3 6.5192 6.5192 44.5578 0.0000 0.0000 0.0000
# 4 0.0000 0.0000 0.0000 28.8665 0.0000 0.0000
# 5 0.0000 0.0000 0.0000 0.0000 28.8665 0.0000
# 6 0.0000 0.0000 0.0000 0.0000 0.0000 -1.1086
#
#
#
# Elastic Compliance Matrix: (Units=1/GPa)
#
#
# Indices 1 2 3 4 5 6 
#
# 1 0.007968 -0.004700 -0.000478 0.000000 0.000000 0.000000
# 2 -0.004700 0.007968 -0.000478 0.000000 0.000000 0.000000
# 3 -0.000478 -0.000478 0.022583 0.000000 0.000000 0.000000
# 4 0.000000 0.000000 0.000000 0.034642 0.000000 0.000000
# 5 0.000000 0.000000 0.000000 0.000000 0.034642 0.000000
# 6 0.000000 0.000000 0.000000 0.000000 0.000000 -0.902070
#
#
# Mechanical properties :
#
#
# Convention : Reuss Voigt Hill
#
# Bulk Modulus (GPa) = 36.75705 76.27822 56.51764
# Shear Modulus (GPa) = -6.46091 31.58414 12.56161
#
# Velocity S-wave (km/s) = -1.74096 3.84926 2.42753
# Velocity P-wave (km/s) = 3.63349 7.45248 5.86267
#
# Compressibility (1/GPa) = 0.02720566
#
# Stress axis : x y z
#
# Youngs Moduli (GPa) = 125.49912 125.49912 44.28176
#
# Poissons Ratio (x) = 0.58991 0.02117
# Poissons Ratio (y) = 0.58991 0.02117
# Poissons Ratio (z) = 0.06000 0.06000
#
# Static dielectric constant tensor:
#      x y z
#    x 1.800070 0.000000 0.000000 
#    y 0.000000 1.800070 0.000000 
#    z 0.000000 0.000000 1.858030 
# 
# From -- ./inp_files/12493.got.cif
#   From: 2010.05.17/outbox.cif.g08.bks.cpg/sg131_7_cif.got.tgz:12493.got - 2010.05.20 12:21:01.
