data_PCOD9566293
_publ_section_title
;
Structure prediction by ZEFSAII (Michael W. Deem and Ramdas Pophale) SiO2 
 PCOD9566293
Probable space group: P 42/M M C
;
_chemical_formula_sum "Si O2"
_cell_formula_units_Z 104
_cell_length_a 27.163392
_cell_length_b 27.163392
_cell_length_c 8.869288
_cell_angle_alpha 90.000000
_cell_angle_beta 90.000000
_cell_angle_gamma 90.000000
_cell_volume 6544.202953
_symmetry_space_group_name_H-M "P 42/M M C"
_symmetry_group_IT_number 131
_symmetry_cell_setting 'tetragonal'
loop_
_space_group_symop_operation_xyz
x,y,z
-x,-y,z
-y,x,1/2+z
y,-x,1/2+z
-x,y,-z
x,-y,-z
y,x,1/2-z
-y,-x,1/2-z
-x,-y,-z
x,y,-z
y,-x,1/2-z
-y,x,1/2-z
x,-y,z
-x,y,z
-y,-x,1/2+z
y,x,1/2+z
loop_
_atom_site_type_symbol
_atom_site_label
_atom_site_fract_x
_atom_site_fract_y
_atom_site_fract_z
Si Si1 0.683454 0.154780 0.180613
Si Si2 0.555022 0.759841 0.319176
Si Si3 0.136453 0.212135 0.180869
Si Si4 0.873165 0.582097 0.180293
Si Si5 0.267395 0.343677 0.320007
Si Si6 0.056326 0.868695 0.181362
Si Si7 0.942247 0.500000 0.680838
O O1 0.733939 0.135354 0.249626
O O2 0.636577 0.127290 0.250771
O O3 0.677417 0.212954 0.219077
O O4 0.683181 0.150447 0.000000
O O5 0.559208 0.754180 0.500000
O O6 0.500000 0.744376 0.272787
O O7 0.560909 0.818313 0.287094
O O8 0.600490 0.732563 0.241245
O O9 0.182502 0.182502 0.250000
O O10 0.088433 0.179576 0.219636
O O11 0.141113 0.214392 0.000000
O O12 0.913987 0.547190 0.252481
O O13 0.878879 0.583413 0.000000
O O14 0.309182 0.309182 0.250000
O O15 0.271827 0.343755 0.500000
O O16 0.085010 0.914991 0.250000
O O17 0.000000 0.865509 0.232183
O O18 0.056889 0.873022 0.000000
O O19 0.937945 0.500000 0.500000
O O20 0.000000 0.500000 0.720529
#
# Coordination Sequence:
#
# PCOD9566293 Si02
#       7
#    16  16  16  16  16  16   8
#     4  10  20  33  50  74 101 131 166 205 250 299
#     4   9  17  31  50  72  97 127 163 205 248 294
#     4  10  19  32  51  73  98 131 166 202 243 294
#     4  10  19  34  54  75  97 126 167 209 252 302
#     4  10  20  31  45  69 100 134 166 202 246 293
#     4   9  19  35  53  74  99 125 156 194 237 288
#     4  11  23  37  53  73  99 129 163 211 264 305
#
# _framework density 15.891927000000001
#
# number of rings (size 3 to 8) (size 9 to 14) (size 15 to 20)
#    0.000    2.231    0.769    2.538    0.000    5.692 
#    0.000    1.538    0.000    2.769    0.000    0.000 
#    0.000    0.308    0.000    3.231    0.000    1.385 
#
# Total GULP energy -580329.237876 kJ/mol
# GULP energy per Si atom -5580.088826 kJ/mol
# Density = 1.585576 g / cm^3
# Si number density = 15.891927 Si / 1000 Ang^3
#
#
#
# Elastic Constant Matrix: (Units=GPa)
#
#
# Indices 1 2 3 4 5 6 
#
# 1 139.5675 75.4574 50.7273 0.0000 0.0000 0.0000
# 2 75.4574 139.5638 50.7266 0.0000 0.0000 0.0000
# 3 50.7273 50.7266 48.5190 0.0000 0.0000 0.0000
# 4 0.0000 0.0000 0.0000 26.9771 0.0000 0.0000
# 5 0.0000 0.0000 0.0000 0.0000 26.9774 0.0000
# 6 0.0000 0.0000 0.0000 0.0000 0.0000 16.5638
#
#
#
# Elastic Compliance Matrix: (Units=1/GPa)
#
#
# Indices 1 2 3 4 5 6 
#
# 1 0.012388 -0.003210 -0.009596 0.000000 0.000000 0.000000
# 2 -0.003210 0.012389 -0.009596 0.000000 0.000000 0.000000
# 3 -0.009596 -0.009596 0.040676 0.000000 0.000000 0.000000
# 4 0.000000 0.000000 0.000000 0.037068 0.000000 0.000000
# 5 0.000000 0.000000 0.000000 0.000000 0.037068 0.000000
# 6 0.000000 0.000000 0.000000 0.000000 0.000000 0.060373
#
#
# Mechanical properties :
#
#
# Convention : Reuss Voigt Hill
#
# Bulk Modulus (GPa) = 48.42965 75.71922 62.07443
# Shear Modulus (GPa) = 19.86892 24.15293 22.01092
#
# Velocity S-wave (km/s) = 3.53973 3.90272 3.72565
# Velocity P-wave (km/s) = 6.87363 8.24973 7.59292
#
# Compressibility (1/GPa) = 0.02064851
#
# Stress axis : x y z
#
# Youngs Moduli (GPa) = 80.72123 80.71912 24.58456
#
# Poissons Ratio (x) = 0.25912 0.23591
# Poissons Ratio (y) = 0.25913 0.23592
# Poissons Ratio (z) = 0.77460 0.77459
#
# Static dielectric constant tensor:
#      x y z
#    x 1.517260 0.000000 0.000000 
#    y 0.000000 1.517260 0.000000 
#    z 0.000000 0.000000 1.527480 
# 
# From -- ./inp_files/2544.got.cif
#   From: 2010.05.17/outbox.cif.g08.bks.cpg/sg131_2_cif.got.tgz:2544.got - 2010.05.20 12:21:01.
