data_PCOD9566344
_publ_section_title
;
Structure prediction by ZEFSAII (Michael W. Deem and Ramdas Pophale) SiO2 
 PCOD9566344
Probable space group: P 42/M M C
;
_chemical_formula_sum "Si O2"
_cell_formula_units_Z 96
_cell_length_a 14.702293
_cell_length_b 14.702293
_cell_length_c 27.933483
_cell_angle_alpha 90.000000
_cell_angle_beta 90.000000
_cell_angle_gamma 90.000000
_cell_volume 6038.029602
_symmetry_space_group_name_H-M "P 42/M M C"
_symmetry_group_IT_number 131
_symmetry_cell_setting 'tetragonal'
loop_
_space_group_symop_operation_xyz
x,y,z
-x,-y,z
-y,x,1/2+z
y,-x,1/2+z
-x,y,-z
x,-y,-z
y,x,1/2-z
-y,-x,1/2-z
-x,-y,-z
x,y,-z
y,-x,1/2-z
-y,x,1/2-z
x,-y,z
-x,y,z
-y,-x,1/2+z
y,x,1/2+z
loop_
_atom_site_type_symbol
_atom_site_label
_atom_site_fract_x
_atom_site_fract_y
_atom_site_fract_z
Si Si1 0.107600 0.733846 0.696213
Si Si2 0.752830 0.105005 0.309179
Si Si3 0.281185 0.323819 0.943207
Si Si4 0.175480 0.609287 0.383741
Si Si5 0.500000 0.398918 0.557348
Si Si6 0.000000 0.608690 0.552913
Si Si7 0.106334 0.608380 0.892644
O O1 0.166540 0.822815 0.681750
O O2 0.115142 0.724972 0.753591
O O3 0.150361 0.648297 0.668339
O O4 0.000000 0.742927 0.684862
O O5 0.666963 0.119575 0.344097
O O6 0.783530 0.000000 0.315804
O O7 0.328240 0.250460 0.909060
O O8 0.340553 0.412461 0.931530
O O9 0.177667 0.348537 0.929869
O O10 0.289699 0.302138 0.000000
O O11 0.194460 0.500000 0.383999
O O12 0.088056 0.628770 0.416503
O O13 0.500000 0.500000 0.578492
O O14 0.500000 0.408197 0.500000
O O15 0.000000 0.500000 0.547627
O O16 0.000000 0.650121 0.500000
O O17 0.123406 0.500000 0.886713
O O18 0.000000 0.618298 0.906675
#
# Coordination Sequence:
#
# PCOD9566344 Si02
#       7
#    16  16  16  16   8   8  16
#     4  10  19  33  55  81 106 134 169 210 259 311
#     4   9  19  35  55  79 106 133 166 212 262 313
#     4  11  21  34  52  75 102 136 176 217 260 306
#     4  11  21  33  51  77 106 138 176 213 251 301
#     4   9  18  32  49  71  99 131 170 214 257 301
#     4   9  18  32  48  70 103 139 171 205 245 291
#     4  10  20  35  55  78 103 133 171 215 266 319
#
# _framework density 15.899226000000001
#
# number of rings (size 3 to 8) (size 9 to 14) (size 15 to 20)
#    0.000    2.000    3.333    1.000    0.000    3.000 
#    0.000    4.167    0.000    0.000    0.000    0.000 
#    0.000    8.000    0.000    0.000    0.000    0.000 
#
# Total GULP energy -534484.849875 kJ/mol
# GULP energy per Si atom -5567.550520 kJ/mol
# Density = 1.586304 g / cm^3
# Si number density = 15.899226 Si / 1000 Ang^3
#
#
#
# Elastic Constant Matrix: (Units=GPa)
#
#
# Indices 1 2 3 4 5 6 
#
# 1 99.0920 46.1398 33.0361 0.0000 0.0000 0.0000
# 2 46.1398 99.0920 33.0361 0.0000 0.0000 0.0000
# 3 33.0361 33.0361 52.3352 0.0000 0.0000 0.0000
# 4 0.0000 0.0000 0.0000 23.4000 0.0000 0.0000
# 5 0.0000 0.0000 0.0000 0.0000 23.4000 0.0000
# 6 0.0000 0.0000 0.0000 0.0000 0.0000 0.4360
#
#
#
# Elastic Compliance Matrix: (Units=1/GPa)
#
#
# Indices 1 2 3 4 5 6 
#
# 1 0.014272 -0.004613 -0.006098 0.000000 0.000000 0.000000
# 2 -0.004613 0.014272 -0.006098 0.000000 0.000000 0.000000
# 3 -0.006098 -0.006098 0.026806 0.000000 0.000000 0.000000
# 4 0.000000 0.000000 0.000000 0.042735 0.000000 0.000000
# 5 0.000000 0.000000 0.000000 0.000000 0.042735 0.000000
# 6 0.000000 0.000000 0.000000 0.000000 0.000000 2.293340
#
#
# Mechanical properties :
#
#
# Convention : Reuss Voigt Hill
#
# Bulk Modulus (GPa) = 46.00943 52.77148 49.39046
# Shear Modulus (GPa) = 2.02018 18.66767 10.34393
#
# Velocity S-wave (km/s) = 1.12844 3.43027 2.55344
# Velocity P-wave (km/s) = 5.54065 6.99659 6.31075
#
# Compressibility (1/GPa) = 0.02173467
#
# Stress axis : x y z
#
# Youngs Moduli (GPa) = 70.06593 70.06593 37.30569
#
# Poissons Ratio (x) = 0.32319 0.22747
# Poissons Ratio (y) = 0.32319 0.22747
# Poissons Ratio (z) = 0.42723 0.42723
#
# Static dielectric constant tensor:
#      x y z
#    x 1.509540 0.000000 0.000000 
#    y 0.000000 1.509540 0.000000 
#    z 0.000000 0.000000 1.536930 
# 
# From -- ./inp_files/12338.got.cif
#   From: 2010.05.17/outbox.cif.g08.bks.cpg/sg131_7_cif.got.tgz:12338.got - 2010.05.20 12:21:01.
