data_PCOD9566671
_publ_section_title
;
Structure prediction by ZEFSAII (Michael W. Deem and Ramdas Pophale) SiO2 
 PCOD9566671
Probable space group: P 42/M M C
;
_chemical_formula_sum "Si O2"
_cell_formula_units_Z 64
_cell_length_a 19.844356
_cell_length_b 19.844356
_cell_length_c 9.621687
_cell_angle_alpha 90.000000
_cell_angle_beta 90.000000
_cell_angle_gamma 90.000000
_cell_volume 3789.005572
_symmetry_space_group_name_H-M "P 42/M M C"
_symmetry_group_IT_number 131
_symmetry_cell_setting 'tetragonal'
loop_
_space_group_symop_operation_xyz
x,y,z
-x,-y,z
-y,x,1/2+z
y,-x,1/2+z
-x,y,-z
x,-y,-z
y,x,1/2-z
-y,-x,1/2-z
-x,-y,-z
x,y,-z
y,-x,1/2-z
-y,x,1/2-z
x,-y,z
-x,y,z
-y,-x,1/2+z
y,x,1/2+z
loop_
_atom_site_type_symbol
_atom_site_label
_atom_site_fract_x
_atom_site_fract_y
_atom_site_fract_z
Si Si1 0.422479 0.275902 0.844071
Si Si2 0.500000 0.081787 0.843027
Si Si3 0.213181 0.304483 0.836445
Si Si4 0.922243 0.628638 0.838178
Si Si5 0.574902 0.425099 0.750000
O O1 0.500000 0.255960 0.815308
O O2 0.370625 0.247870 0.731397
O O3 0.421152 0.357582 0.840904
O O4 0.404146 0.253422 0.000000
O O5 0.433101 0.099379 0.759087
O O6 0.500000 0.000000 0.848085
O O7 0.500000 0.107494 0.000000
O O8 0.242811 0.242811 0.750000
O O9 0.133010 0.313596 0.821404
O O10 0.229578 0.300270 0.000000
O O11 0.000000 0.646823 0.807876
O O12 0.919662 0.606719 0.000000
O O13 0.500000 0.422011 0.682270
#
# Coordination Sequence:
#
# PCOD9566671 Si02
#       5
#    16   8  16  16   8
#     4  10  21  35  50  70  97 130 167 213 263 307
#     4   9  17  29  49  79 107 131 162 205 256 299
#     4  11  23  37  54  75 101 134 168 207 256 307
#     4   9  19  36  55  74  99 134 175 212 249 302
#     4   9  18  32  50  70  90 120 168 222 265 302
#
# _framework density 16.890975999999998
#
# number of rings (size 3 to 8) (size 9 to 14) (size 15 to 20)
#    0.000    2.250    1.250    1.125    1.750    4.500 
#    0.000    5.000    0.000    0.000    0.000    0.000 
#    0.000    0.500    0.000    6.250    0.000    0.000 
#
# Total GULP energy -356918.197201 kJ/mol
# GULP energy per Si atom -5576.846831 kJ/mol
# Density = 1.685253 g / cm^3
# Si number density = 16.890976 Si / 1000 Ang^3
#
#
#
# Elastic Constant Matrix: (Units=GPa)
#
#
# Indices 1 2 3 4 5 6 
#
# 1 86.8403 34.4254 50.6513 0.0000 0.0000 0.0000
# 2 34.4254 86.8408 50.6509 0.0000 0.0000 0.0000
# 3 50.6513 50.6509 107.8672 0.0000 0.0000 0.0000
# 4 0.0000 0.0000 0.0000 14.1536 0.0000 0.0000
# 5 0.0000 0.0000 0.0000 0.0000 14.1539 0.0000
# 6 0.0000 0.0000 0.0000 0.0000 0.0000 19.0435
#
#
#
# Elastic Compliance Matrix: (Units=1/GPa)
#
#
# Indices 1 2 3 4 5 6 
#
# 1 0.016324 -0.002755 -0.006372 0.000000 0.000000 0.000000
# 2 -0.002755 0.016324 -0.006371 0.000000 0.000000 0.000000
# 3 -0.006372 -0.006371 0.015254 0.000000 0.000000 0.000000
# 4 0.000000 0.000000 0.000000 0.070653 0.000000 0.000000
# 5 0.000000 0.000000 0.000000 0.000000 0.070652 0.000000
# 6 0.000000 0.000000 0.000000 0.000000 0.000000 0.052511
#
#
# Mechanical properties :
#
#
# Convention : Reuss Voigt Hill
#
# Bulk Modulus (GPa) = 59.15021 61.44482 60.29751
# Shear Modulus (GPa) = 17.96300 19.19157 18.57729
#
# Velocity S-wave (km/s) = 3.26462 3.37442 3.31997
# Velocity P-wave (km/s) = 7.02177 7.18600 7.10436
#
# Compressibility (1/GPa) = 0.01690611
#
# Stress axis : x y z
#
# Youngs Moduli (GPa) = 61.26017 61.26103 65.55465
#
# Poissons Ratio (x) = 0.16876 0.41769
# Poissons Ratio (y) = 0.16876 0.41768
# Poissons Ratio (z) = 0.39033 0.39032
#
# Static dielectric constant tensor:
#      x y z
#    x 1.588810 0.000000 0.000000 
#    y 0.000000 1.588810 0.000000 
#    z 0.000000 0.000000 1.574710 
# 
# From -- ./inp_files/1696.got.cif
#   From: 2010.05.17/outbox.cif.g08.bks.cpg/sg131_1_cif.got.tgz:1696.got - 2010.05.20 12:21:01.
