data_PCOD9566217
_publ_section_title
;
Structure prediction by ZEFSAII (Michael W. Deem and Ramdas Pophale) SiO2 
 PCOD9566217
Probable space group: P 42/M M C
;
_chemical_formula_sum "Si O2"
_cell_formula_units_Z 64
_cell_length_a 20.554095
_cell_length_b 20.554095
_cell_length_c 7.822830
_cell_angle_alpha 90.000000
_cell_angle_beta 90.000000
_cell_angle_gamma 90.000000
_cell_volume 3304.917415
_symmetry_space_group_name_H-M "P 42/M M C"
_symmetry_group_IT_number 131
_symmetry_cell_setting 'tetragonal'
loop_
_space_group_symop_operation_xyz
x,y,z
-x,-y,z
-y,x,1/2+z
y,-x,1/2+z
-x,y,-z
x,-y,-z
y,x,1/2-z
-y,-x,1/2-z
-x,-y,-z
x,y,-z
y,-x,1/2-z
-y,x,1/2-z
x,-y,z
-x,y,z
-y,-x,1/2+z
y,x,1/2+z
loop_
_atom_site_type_symbol
_atom_site_label
_atom_site_fract_x
_atom_site_fract_y
_atom_site_fract_z
Si Si1 0.247798 0.000000 0.193543
Si Si2 0.899482 0.500000 0.792343
Si Si3 0.608096 0.000000 0.292803
Si Si4 0.252546 0.855279 0.206608
Si Si5 0.354419 0.247646 0.202102
Si Si6 0.756095 0.500000 0.202821
O O1 0.325712 0.000000 0.193885
O O2 0.235470 0.928070 0.272359
O O3 0.220695 0.000000 0.000000
O O4 0.938744 0.563948 0.745306
O O5 0.828341 0.500000 0.719992
O O6 0.897824 0.500000 0.000000
O O7 0.618617 0.000000 0.500000
O O8 0.194994 0.805007 0.250000
O O9 0.319517 0.819366 0.270179
O O10 0.257501 0.861062 0.000000
O O11 0.304819 0.304819 0.250000
O O12 0.427590 0.267864 0.252807
O O13 0.355039 0.240288 0.000000
O O14 0.759162 0.500000 0.000000
#
# Coordination Sequence:
#
# PCOD9566217 Si02
#       6
#     8   8   8  16  16   8
#     4  10  19  31  47  71  99 126 158 206 259 300
#     4   8  16  28  42  64  97 131 163 196 233 279
#     4   9  16  28  44  64  93 131 167 196 228 283
#     4   9  19  34  52  73 101 133 168 209 255 303
#     4  10  20  35  53  75 102 134 170 210 252 299
#     4  11  20  31  50  75 101 132 167 206 249 296
#
# _framework density 19.365082000000001
#
# number of rings (size 3 to 8) (size 9 to 14) (size 15 to 20)
#    0.000    2.500    0.000    3.375    0.000    2.000 
#    0.000    2.500    0.000    0.750    0.000    5.250 
#    0.000    0.000    0.000    0.000    0.000    0.000 
#
# Total GULP energy -356273.921171 kJ/mol
# GULP energy per Si atom -5566.780018 kJ/mol
# Density = 1.932101 g / cm^3
# Si number density = 19.365082 Si / 1000 Ang^3
#
#
#
# Elastic Constant Matrix: (Units=GPa)
#
#
# Indices 1 2 3 4 5 6 
#
# 1 157.7077 -6.6078 3.4734 0.0000 0.0000 0.0000
# 2 -6.6078 157.7124 3.4737 0.0000 0.0000 0.0000
# 3 3.4734 3.4737 37.0322 0.0000 0.0000 0.0000
# 4 0.0000 0.0000 0.0000 15.7081 0.0000 0.0000
# 5 0.0000 0.0000 0.0000 0.0000 15.7054 0.0000
# 6 0.0000 0.0000 0.0000 0.0000 0.0000 67.0385
#
#
#
# Elastic Compliance Matrix: (Units=1/GPa)
#
#
# Indices 1 2 3 4 5 6 
#
# 1 0.006366 0.000280 -0.000623 0.000000 0.000000 0.000000
# 2 0.000280 0.006366 -0.000623 0.000000 0.000000 0.000000
# 3 -0.000623 -0.000623 0.027120 0.000000 0.000000 0.000000
# 4 0.000000 0.000000 0.000000 0.063661 0.000000 0.000000
# 5 0.000000 0.000000 0.000000 0.000000 0.063672 0.000000
# 6 0.000000 0.000000 0.000000 0.000000 0.000000 0.014917
#
#
# Mechanical properties :
#
#
# Convention : Reuss Voigt Hill
#
# Bulk Modulus (GPa) = 26.37125 39.23678 32.80401
# Shear Modulus (GPa) = 25.42248 43.16460 34.29354
#
# Velocity S-wave (km/s) = 3.62719 4.72634 4.21277
# Velocity P-wave (km/s) = 5.58476 7.07743 6.37493
#
# Compressibility (1/GPa) = 0.03792008
#
# Stress axis : x y z
#
# Youngs Moduli (GPa) = 157.07644 157.08115 36.87252
#
# Poissons Ratio (x) = -0.04406 0.02299
# Poissons Ratio (y) = -0.04405 0.02299
# Poissons Ratio (z) = 0.09793 0.09793
#
# Static dielectric constant tensor:
#      x y z
#    x 1.710410 0.000000 0.000000 
#    y 0.000000 1.710410 0.000000 
#    z 0.000000 0.000000 1.691300 
# 
# From -- ./inp_files/1705.got.cif
#   From: 2010.05.17/outbox.cif.g08.bks.cpg/sg131_1_cif.got.tgz:1705.got - 2010.05.20 12:21:01.
