data_PCOD9566777
_publ_section_title
;
Structure prediction by ZEFSAII (Michael W. Deem and Ramdas Pophale) SiO2 
 PCOD9566777
Probable space group: P 42/M M C
;
_chemical_formula_sum "Si O2"
_cell_formula_units_Z 116
_cell_length_a 18.325987
_cell_length_b 18.325987
_cell_length_c 17.506655
_cell_angle_alpha 90.000000
_cell_angle_beta 90.000000
_cell_angle_gamma 90.000000
_cell_volume 5879.466519
_symmetry_space_group_name_H-M "P 42/M M C"
_symmetry_group_IT_number 131
_symmetry_cell_setting 'tetragonal'
loop_
_space_group_symop_operation_xyz
x,y,z
-x,-y,z
-y,x,1/2+z
y,-x,1/2+z
-x,y,-z
x,-y,-z
y,x,1/2-z
-y,-x,1/2-z
-x,-y,-z
x,y,-z
y,-x,1/2-z
-y,x,1/2-z
x,-y,z
-x,y,z
-y,-x,1/2+z
y,x,1/2+z
loop_
_atom_site_type_symbol
_atom_site_label
_atom_site_fract_x
_atom_site_fract_y
_atom_site_fract_z
Si Si1 0.779479 0.585406 0.674864
Si Si2 0.613568 0.371517 0.090284
Si Si3 0.500000 0.500000 0.631522
Si Si4 0.082171 0.633538 0.091486
Si Si5 0.081469 0.805997 0.344737
Si Si6 0.082455 0.792262 0.164668
Si Si7 0.585083 0.234805 0.655244
Si Si8 0.648916 0.081729 0.910835
O O1 0.793671 0.500000 0.685096
O O2 0.707438 0.593966 0.623790
O O3 0.764831 0.617300 0.759133
O O4 0.851288 0.617813 0.636531
O O5 0.564217 0.435245 0.128206
O O6 0.699831 0.381245 0.105979
O O7 0.598568 0.376197 0.000000
O O8 0.091024 0.716243 0.121305
O O9 0.153214 0.592709 0.122743
O O10 0.000000 0.608742 0.115745
O O11 0.083754 0.631106 0.000000
O O12 0.090256 0.780889 0.256134
O O13 0.146264 0.861360 0.360725
O O14 0.084322 0.735779 0.398231
O O15 0.000000 0.838801 0.350616
O O16 0.000000 0.818402 0.151618
O O17 0.500000 0.253348 0.659446
O O18 0.625109 0.000000 0.885623
O O19 0.630666 0.089616 0.000000
#
# Coordination Sequence:
#
# PCOD9566777 Si02
#       8
#    16  16   4  16  16  16  16  16
#     4  11  25  43  63  92 125 160 204 251 306 371
#     4  12  24  43  68  97 130 167 211 258 312 370
#     4  12  25  44  73 102 133 172 209 258 317 372
#     4  10  22  40  62  88 119 159 205 254 310 368
#     4   9  18  33  54  81 114 153 196 245 301 360
#     4   9  18  33  54  81 114 153 196 245 301 360
#     4  11  25  43  63  92 125 160 204 251 306 371
#     4  10  22  40  62  88 119 159 205 254 310 368
#
# _framework density 19.729680999999999
#
# number of rings (size 3 to 8) (size 9 to 14) (size 15 to 20)
#    0.000    1.655    1.379    2.690    1.931    4.690 
#    0.000    5.517    0.000    0.000    0.000    3.862 
#    0.000    0.000    0.000    0.000    0.000    0.000 
#
# Total GULP energy -646482.534269 kJ/mol
# GULP energy per Si atom -5573.125295 kJ/mol
# Density = 1.968478 g / cm^3
# Si number density = 19.729681 Si / 1000 Ang^3
#
#
#
# Elastic Constant Matrix: (Units=GPa)
#
#
# Indices 1 2 3 4 5 6 
#
# 1 71.4137 17.7271 14.3157 0.0000 0.0000 0.0000
# 2 17.7271 71.4137 14.3157 0.0000 0.0000 0.0000
# 3 14.3157 14.3157 31.4169 0.0000 0.0000 0.0000
# 4 0.0000 0.0000 0.0000 -25.1637 0.0000 0.0000
# 5 0.0000 0.0000 0.0000 0.0000 -25.1637 0.0000
# 6 0.0000 0.0000 0.0000 0.0000 0.0000 41.5652
#
#
#
# Elastic Compliance Matrix: (Units=1/GPa)
#
#
# Indices 1 2 3 4 5 6 
#
# 1 0.015884 -0.002743 -0.005988 0.000000 0.000000 0.000000
# 2 -0.002743 0.015884 -0.005988 0.000000 0.000000 0.000000
# 3 -0.005988 -0.005988 0.037287 0.000000 0.000000 0.000000
# 4 0.000000 0.000000 0.000000 -0.039740 0.000000 0.000000
# 5 0.000000 0.000000 0.000000 0.000000 -0.039740 0.000000
# 6 0.000000 0.000000 0.000000 0.000000 0.000000 0.024059
#
#
# Mechanical properties :
#
#
# Convention : Reuss Voigt Hill
#
# Bulk Modulus (GPa) = 25.24133 29.66240 27.45186
# Shear Modulus (GPa) = 88.84438 6.77329 47.80883
#
# Velocity S-wave (km/s) = 6.71778 1.85486 4.92793
# Velocity P-wave (km/s) = 8.54358 4.43332 6.80614
#
# Compressibility (1/GPa) = 0.03961757
#
# Stress axis : x y z
#
# Youngs Moduli (GPa) = 62.95606 62.95606 26.81879
#
# Poissons Ratio (x) = 0.17266 0.16060
# Poissons Ratio (y) = 0.17266 0.16060
# Poissons Ratio (z) = 0.37699 0.37699
#
# Static dielectric constant tensor:
#      x y z
#    x 1.676800 0.000000 0.000000 
#    y 0.000000 1.676800 0.000000 
#    z 0.000000 0.000000 1.715620 
# 
# From -- ./inp_files/8181.got.cif
#   From: 2010.05.17/outbox.cif.g08.bks.cpg/sg131_5_cif.got.tgz:8181.got - 2010.05.20 12:21:01.
