data_PCOD9566387
_publ_section_title
;
Structure prediction by ZEFSAII (Michael W. Deem and Ramdas Pophale) SiO2 
 PCOD9566387
Probable space group: P 42/M M C
;
_chemical_formula_sum "Si O2"
_cell_formula_units_Z 72
_cell_length_a 12.256351
_cell_length_b 12.256351
_cell_length_c 28.049161
_cell_angle_alpha 90.000000
_cell_angle_beta 90.000000
_cell_angle_gamma 90.000000
_cell_volume 4213.492789
_symmetry_space_group_name_H-M "P 42/M M C"
_symmetry_group_IT_number 131
_symmetry_cell_setting 'tetragonal'
loop_
_space_group_symop_operation_xyz
x,y,z
-x,-y,z
-y,x,1/2+z
y,-x,1/2+z
-x,y,-z
x,-y,-z
y,x,1/2-z
-y,-x,1/2-z
-x,-y,-z
x,y,-z
y,-x,1/2-z
-y,x,1/2-z
x,-y,z
-x,y,z
-y,-x,1/2+z
y,x,1/2+z
loop_
_atom_site_type_symbol
_atom_site_label
_atom_site_fract_x
_atom_site_fract_y
_atom_site_fract_z
Si Si1 0.126723 0.744470 0.553970
Si Si2 0.796945 0.500000 0.554332
Si Si3 0.500000 0.375688 0.137609
Si Si4 0.282580 0.370062 0.798883
Si Si5 0.868588 0.706621 0.880908
Si Si6 0.500000 0.131949 0.553990
O O1 0.167801 0.770014 0.500000
O O2 0.138650 0.613680 0.560341
O O3 0.191474 0.810818 0.593826
O O4 0.000000 0.772816 0.555771
O O5 0.755212 0.500000 0.500000
O O6 0.703210 0.500000 0.593137
O O7 0.500000 0.500000 0.120811
O O8 0.607703 0.359487 0.169440
O O9 0.307175 0.307175 0.750000
O O10 0.265761 0.500000 0.790219
O O11 0.183852 0.321134 0.829830
O O12 0.837761 0.605576 0.915578
O O13 0.000000 0.716394 0.878998
O O14 0.500000 0.174818 0.500000
O O15 0.500000 0.000000 0.551210
#
# Coordination Sequence:
#
# PCOD9566387 Si02
#       6
#    16   8   8  16  16   8
#     4  10  21  37  58  84 117 160 204 241 280 337
#     4  10  19  35  57  85 121 156 192 236 288 344
#     4  10  20  33  56  89 116 148 184 229 293 356
#     4  11  21  37  61  86 114 149 192 243 295 352
#     4  11  22  37  58  85 119 156 195 240 293 347
#     4   9  18  33  54  82 117 155 191 228 279 347
#
# _framework density 17.087961
#
# number of rings (size 3 to 8) (size 9 to 14) (size 15 to 20)
#    0.000    1.667    4.444    1.000    0.000    3.333 
#    0.000    2.222    0.000    0.000    0.000    0.000 
#    0.000    0.000    0.000    0.000    0.000    0.000 
#
# Total GULP energy -401731.098234 kJ/mol
# GULP energy per Si atom -5579.598587 kJ/mol
# Density = 1.704907 g / cm^3
# Si number density = 17.087961 Si / 1000 Ang^3
#
#
#
# Elastic Constant Matrix: (Units=GPa)
#
#
# Indices 1 2 3 4 5 6 
#
# 1 83.6311 32.4492 57.0808 0.0000 0.0000 0.0000
# 2 32.4492 83.6311 57.0808 0.0000 0.0000 0.0000
# 3 57.0808 57.0808 127.7416 0.0000 0.0000 0.0000
# 4 0.0000 0.0000 0.0000 26.1395 0.0000 0.0000
# 5 0.0000 0.0000 0.0000 0.0000 26.1395 0.0000
# 6 0.0000 0.0000 0.0000 0.0000 0.0000 12.9770
#
#
#
# Elastic Compliance Matrix: (Units=1/GPa)
#
#
# Indices 1 2 3 4 5 6 
#
# 1 0.017453 -0.002085 -0.006867 0.000000 0.000000 0.000000
# 2 -0.002085 0.017453 -0.006867 0.000000 0.000000 0.000000
# 3 -0.006867 -0.006867 0.013966 0.000000 0.000000 0.000000
# 4 0.000000 0.000000 0.000000 0.038256 0.000000 0.000000
# 5 0.000000 0.000000 0.000000 0.000000 0.038256 0.000000
# 6 0.000000 0.000000 0.000000 0.000000 0.000000 0.077059
#
#
# Mechanical properties :
#
#
# Convention : Reuss Voigt Hill
#
# Bulk Modulus (GPa) = 58.02728 65.35838 61.69283
# Shear Modulus (GPa) = 20.84829 22.94408 21.89618
#
# Velocity S-wave (km/s) = 3.49672 3.66827 3.58352
# Velocity P-wave (km/s) = 7.09468 7.50152 7.30093
#
# Compressibility (1/GPa) = 0.01723327
#
# Stress axis : x y z
#
# Youngs Moduli (GPa) = 57.29547 57.29547 71.60428
#
# Poissons Ratio (x) = 0.11945 0.49174
# Poissons Ratio (y) = 0.11945 0.49174
# Poissons Ratio (z) = 0.39347 0.39347
#
# Static dielectric constant tensor:
#      x y z
#    x 1.576490 0.000000 0.000000 
#    y 0.000000 1.576490 0.000000 
#    z 0.000000 0.000000 1.565490 
# 
# From -- ./inp_files/12177.got.cif
#   From: 2010.05.17/outbox.cif.g08.bks.cpg/sg131_7_cif.got.tgz:12177.got - 2010.05.20 12:21:01.
