data_PCOD9566527
_publ_section_title
;
Structure prediction by ZEFSAII (Michael W. Deem and Ramdas Pophale) SiO2 
 PCOD9566527
Probable space group: P 42/M M C
;
_chemical_formula_sum "Si O2"
_cell_formula_units_Z 56
_cell_length_a 19.818957
_cell_length_b 19.818957
_cell_length_c 8.739387
_cell_angle_alpha 90.000000
_cell_angle_beta 90.000000
_cell_angle_gamma 90.000000
_cell_volume 3432.753053
_symmetry_space_group_name_H-M "P 42/M M C"
_symmetry_group_IT_number 131
_symmetry_cell_setting 'tetragonal'
loop_
_space_group_symop_operation_xyz
x,y,z
-x,-y,z
-y,x,1/2+z
y,-x,1/2+z
-x,y,-z
x,-y,-z
y,x,1/2-z
-y,-x,1/2-z
-x,-y,-z
x,y,-z
y,-x,1/2-z
-y,x,1/2-z
x,-y,z
-x,y,z
-y,-x,1/2+z
y,x,1/2+z
loop_
_atom_site_type_symbol
_atom_site_label
_atom_site_fract_x
_atom_site_fract_y
_atom_site_fract_z
Si Si1 0.184600 0.920670 0.315838
Si Si2 0.711920 0.815994 0.182247
Si Si3 0.418889 0.000000 0.827305
Si Si4 0.421764 0.143128 0.317532
O O1 0.120242 0.879759 0.250000
O O2 0.185164 0.914231 0.500000
O O3 0.249827 0.882083 0.248914
O O4 0.183543 0.000000 0.276761
O O5 0.754034 0.754034 0.250000
O O6 0.634829 0.812646 0.236409
O O7 0.716428 0.817498 0.000000
O O8 0.403328 0.067324 0.735208
O O9 0.500000 0.000000 0.841279
O O10 0.390374 0.000000 0.000000
O O11 0.416904 0.148601 0.500000
O O12 0.500000 0.155983 0.273541
#
# Coordination Sequence:
#
# PCOD9566527 Si02
#       4
#    16  16   8  16
#     4  10  21  36  53  72  95 125 164 210 260 311
#     4  11  22  36  54  74 101 133 169 209 252 304
#     4   9  17  29  45  69  99 129 164 203 244 289
#     4  10  20  34  52  74 102 134 167 205 249 297
#
# _framework density 16.313437
#
# number of rings (size 3 to 8) (size 9 to 14) (size 15 to 20)
#    0.000    1.857    0.000    6.429    2.000    6.000 
#    0.000    1.429    0.000    0.000    0.000    0.000 
#    0.000    0.571    0.000    6.000    0.000    2.571 
#
# Total GULP energy -312555.128694 kJ/mol
# GULP energy per Si atom -5581.341584 kJ/mol
# Density = 1.627631 g / cm^3
# Si number density = 16.313437 Si / 1000 Ang^3
#
#
#
# Elastic Constant Matrix: (Units=GPa)
#
#
# Indices 1 2 3 4 5 6 
#
# 1 107.7235 54.0093 48.8112 0.0000 0.0000 0.0000
# 2 54.0093 107.7229 48.8134 0.0000 0.0000 0.0000
# 3 48.8112 48.8134 103.8332 0.0000 0.0000 0.0000
# 4 0.0000 0.0000 0.0000 1.7239 0.0000 0.0000
# 5 0.0000 0.0000 0.0000 0.0000 1.6684 0.0000
# 6 0.0000 0.0000 0.0000 0.0000 0.0000 3.9212
#
#
#
# Elastic Compliance Matrix: (Units=1/GPa)
#
#
# Indices 1 2 3 4 5 6 
#
# 1 0.013625 -0.004992 -0.004058 0.000000 0.000000 0.000000
# 2 -0.004992 0.013625 -0.004059 0.000000 0.000000 0.000000
# 3 -0.004058 -0.004059 0.013446 0.000000 0.000000 0.000000
# 4 0.000000 0.000000 0.000000 0.580066 0.000000 0.000000
# 5 0.000000 0.000000 0.000000 0.000000 0.599366 0.000000
# 6 0.000000 0.000000 0.000000 0.000000 0.000000 0.255027
#
#
# Mechanical properties :
#
#
# Convention : Reuss Voigt Hill
#
# Bulk Modulus (GPa) = 69.06657 69.17194 69.11926
# Shear Modulus (GPa) = 3.31962 12.63909 7.97935
#
# Velocity S-wave (km/s) = 1.42805 2.78648 2.21402
# Velocity P-wave (km/s) = 6.71924 7.26956 6.99981
#
# Compressibility (1/GPa) = 0.01447878
#
# Stress axis : x y z
#
# Youngs Moduli (GPa) = 73.39608 73.39376 74.36925
#
# Poissons Ratio (x) = 0.36640 0.30179
# Poissons Ratio (y) = 0.36641 0.30183
# Poissons Ratio (z) = 0.29784 0.29787
#
# Static dielectric constant tensor:
#      x y z
#    x 1.621840 0.000000 0.000000 
#    y 0.000000 1.621820 0.000000 
#    z 0.000000 0.000000 1.547850 
# 
# From -- ./inp_files/1223.got.cif
#   From: 2010.05.17/outbox.cif.g08.bks.cpg/sg131_1_cif.got.tgz:1223.got - 2010.05.20 12:21:01.
