data_PCOD9566129
_publ_section_title
;
Structure prediction by ZEFSAII (Michael W. Deem and Ramdas Pophale) SiO2 
 PCOD9566129
Probable space group: P 42/M M C
;
_chemical_formula_sum "Si O2"
_cell_formula_units_Z 96
_cell_length_a 17.789359
_cell_length_b 17.789359
_cell_length_c 19.620184
_cell_angle_alpha 90.000000
_cell_angle_beta 90.000000
_cell_angle_gamma 90.000000
_cell_volume 6209.028810
_symmetry_space_group_name_H-M "P 42/M M C"
_symmetry_group_IT_number 131
_symmetry_cell_setting 'tetragonal'
loop_
_space_group_symop_operation_xyz
x,y,z
-x,-y,z
-y,x,1/2+z
y,-x,1/2+z
-x,y,-z
x,-y,-z
y,x,1/2-z
-y,-x,1/2-z
-x,-y,-z
x,y,-z
y,-x,1/2-z
-y,x,1/2-z
x,-y,z
-x,y,z
-y,-x,1/2+z
y,x,1/2+z
loop_
_atom_site_type_symbol
_atom_site_label
_atom_site_fract_x
_atom_site_fract_y
_atom_site_fract_z
Si Si1 0.411381 0.911390 0.216631
Si Si2 0.135690 0.914834 0.678202
Si Si3 0.819512 0.715621 0.203363
Si Si4 0.173870 0.412824 0.577265
Si Si5 0.751090 0.270265 0.579049
Si Si6 0.789808 0.081671 0.080502
O O1 0.500000 0.900046 0.234284
O O2 0.354656 0.859592 0.260542
O O3 0.403247 0.886343 0.137569
O O4 0.394350 0.000000 0.224864
O O5 0.094028 0.905973 0.750000
O O6 0.219029 0.881024 0.690227
O O7 0.092162 0.864910 0.623603
O O8 0.140404 0.000000 0.656322
O O9 0.756030 0.756030 0.250000
O O10 0.777813 0.702446 0.131356
O O11 0.145348 0.394650 0.500000
O O12 0.194879 0.500000 0.577747
O O13 0.246027 0.359730 0.589012
O O14 0.735991 0.252342 0.500000
O O15 0.839918 0.252682 0.593905
O O16 0.755094 0.000000 0.098585
O O17 0.804041 0.080965 0.000000
#
# Coordination Sequence:
#
# PCOD9566129 Si02
#       6
#    16  16  16  16  16  16
#     4  10  20  32  48  71 100 132 162 196 240 286
#     4  10  20  30  41  57  77 105 142 186 230 269
#     4  10  18  32  48  67  88 120 156 195 231 277
#     4   9  17  29  45  69 101 130 156 185 223 282
#     4   9  17  30  47  67  91 121 155 192 234 278
#     4   9  18  30  42  57  78 108 146 185 227 272
#
# _framework density 15.461356
#
# number of rings (size 3 to 8) (size 9 to 14) (size 15 to 20)
#    0.000    2.500    1.667    1.000    0.000    2.500 
#    0.000    4.167    0.000    2.000    0.000    1.167 
#    0.000    2.333    0.000    4.167    0.000    0.000 
#
# Total GULP energy -534453.949334 kJ/mol
# GULP energy per Si atom -5567.228639 kJ/mol
# Density = 1.542616 g / cm^3
# Si number density = 15.461356 Si / 1000 Ang^3
#
#
#
# Elastic Constant Matrix: (Units=GPa)
#
#
# Indices 1 2 3 4 5 6 
#
# 1 61.0021 38.0954 40.5713 0.0000 0.0000 0.0000
# 2 38.0954 61.0013 40.5711 0.0000 0.0000 0.0000
# 3 40.5713 40.5711 64.8558 0.0000 0.0000 0.0000
# 4 0.0000 0.0000 0.0000 16.1881 0.0000 0.0000
# 5 0.0000 0.0000 0.0000 0.0000 16.1880 0.0000
# 6 0.0000 0.0000 0.0000 0.0000 0.0000 16.3108
#
#
#
# Elastic Compliance Matrix: (Units=1/GPa)
#
#
# Indices 1 2 3 4 5 6 
#
# 1 0.032172 -0.011484 -0.012941 0.000000 0.000000 0.000000
# 2 -0.011484 0.032172 -0.012942 0.000000 0.000000 0.000000
# 3 -0.012941 -0.012942 0.031610 0.000000 0.000000 0.000000
# 4 0.000000 0.000000 0.000000 0.061774 0.000000 0.000000
# 5 0.000000 0.000000 0.000000 0.000000 0.061774 0.000000
# 6 0.000000 0.000000 0.000000 0.000000 0.000000 0.061309
#
#
# Mechanical properties :
#
#
# Convention : Reuss Voigt Hill
#
# Bulk Modulus (GPa) = 47.12556 47.25941 47.19248
# Shear Modulus (GPa) = 13.78859 14.24547 14.01703
#
# Velocity S-wave (km/s) = 2.98956 3.03868 3.01422
# Velocity P-wave (km/s) = 6.51631 6.55316 6.53477
#
# Compressibility (1/GPa) = 0.02121991
#
# Stress axis : x y z
#
# Youngs Moduli (GPa) = 31.08320 31.08277 31.63537
#
# Poissons Ratio (x) = 0.35696 0.40941
# Poissons Ratio (y) = 0.35696 0.40941
# Poissons Ratio (z) = 0.40226 0.40226
#
# Static dielectric constant tensor:
#      x y z
#    x 1.538320 0.000000 0.000000 
#    y 0.000000 1.538320 0.000000 
#    z 0.000000 0.000000 1.542470 
# 
# From -- ./inp_files/7923.got.cif
#   From: 2010.05.17/outbox.cif.g08.bks.cpg/sg131_4_cif.got.tgz:7923.got - 2010.05.20 12:21:01.
