data_PCOD9566031
_publ_section_title
;
Structure prediction by ZEFSAII (Michael W. Deem and Ramdas Pophale) SiO2 
 PCOD9566031
Probable space group: P 42/M M C
;
_chemical_formula_sum "Si O2"
_cell_formula_units_Z 88
_cell_length_a 17.845938
_cell_length_b 17.845938
_cell_length_c 14.387422
_cell_angle_alpha 90.000000
_cell_angle_beta 90.000000
_cell_angle_gamma 90.000000
_cell_volume 4582.070235
_symmetry_space_group_name_H-M "P 42/M M C"
_symmetry_group_IT_number 131
_symmetry_cell_setting 'tetragonal'
loop_
_space_group_symop_operation_xyz
x,y,z
-x,-y,z
-y,x,1/2+z
y,-x,1/2+z
-x,y,-z
x,-y,-z
y,x,1/2-z
-y,-x,1/2-z
-x,-y,-z
x,y,-z
y,-x,1/2-z
-y,x,1/2-z
x,-y,z
-x,y,z
-y,-x,1/2+z
y,x,1/2+z
loop_
_atom_site_type_symbol
_atom_site_label
_atom_site_fract_x
_atom_site_fract_y
_atom_site_fract_z
Si Si1 0.771041 0.262332 0.854014
Si Si2 0.583677 0.831330 0.317807
Si Si3 0.365774 0.161741 0.099618
Si Si4 0.164700 0.082446 0.387721
Si Si5 0.583464 0.000000 0.307342
Si Si6 0.000000 0.694508 0.642505
Si Si7 0.130288 0.000000 0.887532
O O1 0.742802 0.257199 0.750000
O O2 0.787913 0.349594 0.869275
O O3 0.705181 0.217841 0.904342
O O4 0.849220 0.217135 0.858513
O O5 0.500000 0.802525 0.334315
O O6 0.597094 0.830983 0.203625
O O7 0.586464 0.918106 0.352729
O O8 0.334174 0.077191 0.099073
O O9 0.407663 0.172155 0.000000
O O10 0.165011 0.083443 0.500000
O O11 0.078596 0.094746 0.357487
O O12 0.189835 0.000000 0.357142
O O13 0.500000 0.000000 0.259200
O O14 0.654838 0.000000 0.241594
O O15 0.000000 0.783327 0.640622
O O16 0.126544 0.000000 0.000000
#
# Coordination Sequence:
#
# PCOD9566031 Si02
#       7
#    16  16  16  16   8   8   8
#     4  10  20  32  47  70  95 125 158 200 248 300
#     4   9  19  33  48  68  95 129 164 201 248 295
#     4  10  18  30  50  74  98 125 160 200 241 292
#     4  10  20  33  48  65  88 125 171 214 251 286
#     4   8  16  30  45  62  85 117 158 197 234 280
#     4  10  16  25  46  69  93 123 150 188 240 285
#     4  10  17  28  46  65  88 120 160 202 245 289
#
# _framework density 19.205293999999999
#
# number of rings (size 3 to 8) (size 9 to 14) (size 15 to 20)
#    0.000    2.364    1.818    1.636    1.273    1.455 
#    3.273    0.000    0.000    9.000    0.000    1.273 
#    0.000   29.455    0.000   14.727    0.000    0.000 
#
# Total GULP energy -490049.466266 kJ/mol
# GULP energy per Si atom -5568.743935 kJ/mol
# Density = 1.916158 g / cm^3
# Si number density = 19.205294 Si / 1000 Ang^3
#
#
#
# Elastic Constant Matrix: (Units=GPa)
#
#
# Indices 1 2 3 4 5 6 
#
# 1 106.0730 36.8176 -2.2637 0.0000 0.0000 0.0000
# 2 36.8176 106.0726 -2.2649 0.0000 0.0000 0.0000
# 3 -2.2637 -2.2649 19.6566 0.0000 0.0000 0.0000
# 4 0.0000 0.0000 0.0000 0.4420 0.0000 0.0000
# 5 0.0000 0.0000 0.0000 0.0000 0.4422 0.0000
# 6 0.0000 0.0000 0.0000 0.0000 0.0000 46.0168
#
#
#
# Elastic Compliance Matrix: (Units=1/GPa)
#
#
# Indices 1 2 3 4 5 6 
#
# 1 0.010732 -0.003708 0.000809 0.000000 0.000000 0.000000
# 2 -0.003708 0.010732 0.000810 0.000000 0.000000 0.000000
# 3 0.000809 0.000810 0.051060 0.000000 0.000000 0.000000
# 4 0.000000 0.000000 0.000000 2.262596 0.000000 0.000000
# 5 0.000000 0.000000 0.000000 0.000000 2.261433 0.000000
# 6 0.000000 0.000000 0.000000 0.000000 0.000000 0.021731
#
#
# Mechanical properties :
#
#
# Convention : Reuss Voigt Hill
#
# Bulk Modulus (GPa) = 14.63179 32.93113 23.78146
# Shear Modulus (GPa) = 1.07637 22.68107 11.87872
#
# Velocity S-wave (km/s) = 0.74945 3.44027 2.48969
# Velocity P-wave (km/s) = 2.89552 5.74149 4.54691
#
# Compressibility (1/GPa) = 0.06834434
#
# Stress axis : x y z
#
# Youngs Moduli (GPa) = 93.18230 93.18168 19.58487
#
# Poissons Ratio (x) = 0.34549 -0.01584
# Poissons Ratio (y) = 0.34549 -0.01585
# Poissons Ratio (z) = -0.07536 -0.07544
#
# Static dielectric constant tensor:
#      x y z
#    x 1.680230 0.000000 0.000000 
#    y 0.000000 1.680230 0.000000 
#    z 0.000000 0.000000 1.746390 
# 
# From -- ./inp_files/5941.got.cif
#   From: 2010.05.17/outbox.cif.g08.bks.cpg/sg131_3_cif.got.tgz:5941.got - 2010.05.20 12:21:01.
