data_PCOD9566093
_publ_section_title
;
Structure prediction by ZEFSAII (Michael W. Deem and Ramdas Pophale) SiO2 
 PCOD9566093
Probable space group: P 42/M M C
;
_chemical_formula_sum "Si O2"
_cell_formula_units_Z 128
_cell_length_a 19.810894
_cell_length_b 19.810894
_cell_length_c 19.365347
_cell_angle_alpha 90.000000
_cell_angle_beta 90.000000
_cell_angle_gamma 90.000000
_cell_volume 7600.347193
_symmetry_space_group_name_H-M "P 42/M M C"
_symmetry_group_IT_number 131
_symmetry_cell_setting 'tetragonal'
loop_
_space_group_symop_operation_xyz
x,y,z
-x,-y,z
-y,x,1/2+z
y,-x,1/2+z
-x,y,-z
x,-y,-z
y,x,1/2-z
-y,-x,1/2-z
-x,-y,-z
x,y,-z
y,-x,1/2-z
-y,x,1/2-z
x,-y,z
-x,y,z
-y,-x,1/2+z
y,x,1/2+z
loop_
_atom_site_type_symbol
_atom_site_label
_atom_site_fract_x
_atom_site_fract_y
_atom_site_fract_z
Si Si1 0.816778 0.296112 0.920606
Si Si2 0.285774 0.921446 0.309170
Si Si3 0.132349 0.803727 0.578708
Si Si4 0.123081 0.075428 0.323448
Si Si5 0.422227 0.422907 0.833947
Si Si6 0.325004 0.850841 0.168386
Si Si7 0.077643 0.580488 0.574458
Si Si8 0.315839 0.691604 0.833273
O O1 0.885884 0.310606 0.879504
O O2 0.811134 0.214191 0.922572
O O3 0.753909 0.321472 0.874286
O O4 0.815048 0.319666 0.000000
O O5 0.203963 0.919445 0.310544
O O6 0.309733 0.874683 0.245822
O O7 0.305750 0.000000 0.301830
O O8 0.108390 0.800673 0.500000
O O9 0.104782 0.867255 0.621494
O O10 0.120028 0.735912 0.621616
O O11 0.088727 0.088727 0.250000
O O12 0.108187 0.000000 0.348297
O O13 0.422193 0.422193 0.750000
O O14 0.402925 0.500000 0.854424
O O15 0.500000 0.411308 0.855768
O O16 0.371816 0.363201 0.856086
O O17 0.392196 0.883163 0.139185
O O18 0.330244 0.770914 0.156043
O O19 0.105993 0.604141 0.500000
O O20 0.078229 0.500000 0.573868
O O21 0.000000 0.602663 0.578119
O O22 0.311920 0.688081 0.750000
#
# Coordination Sequence:
#
# PCOD9566093 Si02
#       8
#    16  16  16  16  16  16  16  16
#     4   9  18  31  47  71 102 134 166 209 263 309
#     4  10  19  30  49  73  96 130 170 213 260 309
#     4   9  18  30  48  73  99 126 162 209 258 306
#     4  10  19  32  49  67  93 128 169 212 259 311
#     4   8  15  29  49  76 111 144 175 212 247 287
#     4  11  18  29  52  76 106 132 168 213 256 302
#     4   9  19  35  51  70 103 143 173 201 247 304
#     4  10  18  29  51  78 105 138 172 211 260 306
#
# _framework density 16.841335999999998
#
# number of rings (size 3 to 8) (size 9 to 14) (size 15 to 20)
#    0.000    2.500    2.500    1.500    0.000    1.625 
#    0.000    2.500    0.000    1.875    0.000    1.750 
#    0.000    0.000    0.000    3.750    0.000    1.375 
#
# Total GULP energy -712773.368406 kJ/mol
# GULP energy per Si atom -5568.541941 kJ/mol
# Density = 1.680300 g / cm^3
# Si number density = 16.841336 Si / 1000 Ang^3
#
#
#
# Elastic Constant Matrix: (Units=GPa)
#
#
# Indices 1 2 3 4 5 6 
#
# 1 56.7514 37.0139 20.1476 0.0000 0.0000 0.0000
# 2 37.0139 56.7514 20.1475 0.0000 0.0000 0.0000
# 3 20.1476 20.1475 84.4067 0.0000 0.0000 0.0000
# 4 0.0000 0.0000 0.0000 8.7365 0.0000 0.0000
# 5 0.0000 0.0000 0.0000 0.0000 8.7365 0.0000
# 6 0.0000 0.0000 0.0000 0.0000 0.0000 16.3611
#
#
#
# Elastic Compliance Matrix: (Units=1/GPa)
#
#
# Indices 1 2 3 4 5 6 
#
# 1 0.031274 -0.019390 -0.002837 0.000000 0.000000 0.000000
# 2 -0.019390 0.031274 -0.002837 0.000000 0.000000 0.000000
# 3 -0.002837 -0.002837 0.013202 0.000000 0.000000 0.000000
# 4 0.000000 0.000000 0.000000 0.114462 0.000000 0.000000
# 5 0.000000 0.000000 0.000000 0.000000 0.114462 0.000000
# 6 0.000000 0.000000 0.000000 0.000000 0.000000 0.061121
#
#
# Mechanical properties :
#
#
# Convention : Reuss Voigt Hill
#
# Bulk Modulus (GPa) = 39.02758 39.16971 39.09865
# Shear Modulus (GPa) = 11.77956 14.80686 13.29321
#
# Velocity S-wave (km/s) = 2.64757 2.96834 2.81253
# Velocity P-wave (km/s) = 5.70703 5.92087 5.81493
#
# Compressibility (1/GPa) = 0.02562291
#
# Stress axis : x y z
#
# Youngs Moduli (GPa) = 31.97499 31.97501 75.74842
#
# Poissons Ratio (x) = 0.62001 0.21487
# Poissons Ratio (y) = 0.62001 0.21487
# Poissons Ratio (z) = 0.09070 0.09070
#
# Static dielectric constant tensor:
#      x y z
#    x 1.570620 0.000000 0.000000 
#    y 0.000000 1.570620 0.000000 
#    z 0.000000 0.000000 1.575790 
# 
# From -- ./inp_files/8439.got.cif
#   From: 2010.05.17/outbox.cif.g08.bks.cpg/sg131_5_cif.got.tgz:8439.got - 2010.05.20 12:21:01.
