data_PCOD9566946
_publ_section_title
;
Structure prediction by ZEFSAII (Michael W. Deem and Ramdas Pophale) SiO2 
 PCOD9566946
Probable space group: P 42/M C M
;
_chemical_formula_sum "Si O2"
_cell_formula_units_Z 56
_cell_length_a 12.739644
_cell_length_b 12.739644
_cell_length_c 19.017098
_cell_angle_alpha 90.000000
_cell_angle_beta 90.000000
_cell_angle_gamma 90.000000
_cell_volume 3086.447036
_symmetry_space_group_name_H-M "P 42/M C M"
_symmetry_group_IT_number 132
_symmetry_cell_setting 'tetragonal'
loop_
_space_group_symop_operation_xyz
x,y,z
-y,x,1/2+z
-x,-y,z
y,-x,1/2+z
x,-y,1/2-z
-x,y,1/2-z
y,x,-z
-y,-x,-z
-x,-y,-z
y,-x,1/2-z
x,y,-z
-y,x,1/2-z
-x,y,1/2+z
x,-y,1/2+z
-y,-x,z
y,x,z
loop_
_atom_site_type_symbol
_atom_site_label
_atom_site_fract_x
_atom_site_fract_y
_atom_site_fract_z
Si Si1 0.230771 0.050466 0.824898
Si Si2 0.810639 0.370267 0.579850
Si Si3 0.909984 0.909984 0.579989
Si Si4 0.506224 0.674745 0.671075
O O1 0.139298 0.139298 0.814651
O O2 0.326082 0.104557 0.865813
O O3 0.256333 0.000000 0.750000
O O4 0.182956 0.962202 0.876074
O O5 0.848627 0.383314 0.500000
O O6 0.719985 0.280016 0.577814
O O7 0.756416 0.473074 0.612003
O O8 0.882252 0.882252 0.500000
O O9 0.000000 0.000000 0.576309
O O10 0.500000 0.720287 0.750000
O O11 0.417682 0.582319 0.670779
O O12 0.616565 0.616565 0.660144
#
# Coordination Sequence:
#
# PCOD9566946 Si02
#       4
#    16  16   8  16
#     4  10  17  26  40  60  91 130 172 211 247 288
#     4   9  17  27  41  67 101 127 156 202 250 295
#     4   9  16  24  38  58  84 122 167 214 255 287
#     4   8  14  26  45  69  96 123 152 191 240 299
#
# _framework density 18.143839
#
# number of rings (size 3 to 8) (size 9 to 14) (size 15 to 20)
#    0.000    3.000    1.429    1.714    0.000    4.000 
#    0.000    2.857    0.000    0.857    0.000    6.000 
#    0.000    0.000    0.000    0.000    0.000    0.000 
#
# Total GULP energy -311994.048287 kJ/mol
# GULP energy per Si atom -5571.322291 kJ/mol
# Density = 1.810254 g / cm^3
# Si number density = 18.143839 Si / 1000 Ang^3
#
#
#
# Elastic Constant Matrix: (Units=GPa)
#
#
# Indices 1 2 3 4 5 6 
#
# 1 40.0398 31.0073 55.8400 0.0000 0.0000 0.0000
# 2 31.0073 40.0398 55.8400 0.0000 0.0000 0.0000
# 3 55.8400 55.8400 195.9827 0.0000 0.0000 0.0000
# 4 0.0000 0.0000 0.0000 20.7307 0.0000 0.0000
# 5 0.0000 0.0000 0.0000 0.0000 20.7307 0.0000
# 6 0.0000 0.0000 0.0000 0.0000 0.0000 20.1642
#
#
#
# Elastic Compliance Matrix: (Units=1/GPa)
#
#
# Indices 1 2 3 4 5 6 
#
# 1 0.068102 -0.042609 -0.007263 0.000000 0.000000 0.000000
# 2 -0.042609 0.068102 -0.007263 0.000000 0.000000 0.000000
# 3 -0.007263 -0.007263 0.009242 0.000000 0.000000 0.000000
# 4 0.000000 0.000000 0.000000 0.048238 0.000000 0.000000
# 5 0.000000 0.000000 0.000000 0.000000 0.048238 0.000000
# 6 0.000000 0.000000 0.000000 0.000000 0.000000 0.049593
#
#
# Mechanical properties :
#
#
# Convention : Reuss Voigt Hill
#
# Bulk Modulus (GPa) = 32.07894 62.38188 47.23041
# Shear Modulus (GPa) = 12.01411 21.21678 16.61545
#
# Velocity S-wave (km/s) = 2.57604 3.42331 3.02944
# Velocity P-wave (km/s) = 5.15429 7.07686 6.19066
#
# Compressibility (1/GPa) = 0.03117310
#
# Stress axis : x y z
#
# Youngs Moduli (GPa) = 14.68385 14.68385 108.20710
#
# Poissons Ratio (x) = 0.62567 0.78596
# Poissons Ratio (y) = 0.62567 0.78596
# Poissons Ratio (z) = 0.10666 0.10666
#
# Static dielectric constant tensor:
#      x y z
#    x 1.628120 0.000000 0.000000 
#    y 0.000000 1.628120 0.000000 
#    z 0.000000 0.000000 1.614400 
# 
# From -- ./inp_files/7290.got.cif
#   From: 2010.05.17/outbox.cif.g08.bks.cpg/sg132_4_cif.got.tgz:7290.got - 2010.05.20 12:30:18.
