data_PCOD9566663
_publ_section_title
;
Structure prediction by ZEFSAII (Michael W. Deem and Ramdas Pophale) SiO2 
 PCOD9566663
Probable space group: P 42/M M C
;
_chemical_formula_sum "Si O2"
_cell_formula_units_Z 72
_cell_length_a 15.974221
_cell_length_b 15.974221
_cell_length_c 18.322830
_cell_angle_alpha 90.000000
_cell_angle_beta 90.000000
_cell_angle_gamma 90.000000
_cell_volume 4675.541641
_symmetry_space_group_name_H-M "P 42/M M C"
_symmetry_group_IT_number 131
_symmetry_cell_setting 'tetragonal'
loop_
_space_group_symop_operation_xyz
x,y,z
-x,-y,z
-y,x,1/2+z
y,-x,1/2+z
-x,y,-z
x,-y,-z
y,x,1/2-z
-y,-x,1/2-z
-x,-y,-z
x,y,-z
y,-x,1/2-z
-y,x,1/2-z
x,-y,z
-x,y,z
-y,-x,1/2+z
y,x,1/2+z
loop_
_atom_site_type_symbol
_atom_site_label
_atom_site_fract_x
_atom_site_fract_y
_atom_site_fract_z
Si Si1 0.647863 0.405755 0.169439
Si Si2 0.401983 0.899611 0.500000
Si Si3 0.758136 0.600420 0.582382
Si Si4 0.402531 0.152458 0.656367
Si Si5 0.906456 0.602212 0.688485
O O1 0.612387 0.387614 0.250000
O O2 0.623710 0.500000 0.146731
O O3 0.618828 0.332442 0.116206
O O4 0.748649 0.402147 0.171530
O O5 0.500000 0.871566 0.500000
O O6 0.365234 0.867253 0.423224
O O7 0.400005 0.000000 0.500000
O O8 0.765292 0.633141 0.500000
O O9 0.766743 0.500000 0.579588
O O10 0.832039 0.631380 0.635639
O O11 0.500000 0.124442 0.651941
O O12 0.367440 0.108480 0.728585
O O13 0.901672 0.500000 0.690477
O O14 0.000000 0.624139 0.663613
#
# Coordination Sequence:
#
# PCOD9566663 Si02
#       5
#    16   8  16  16  16
#     4  11  21  33  48  63  86 122 165 205 239 272
#     4   9  16  26  42  66  91 111 138 183 235 287
#     4  10  21  34  45  63  88 114 155 204 240 276
#     4   9  17  28  43  64  87 113 147 185 228 279
#     4   9  16  29  48  65  82 107 141 187 242 291
#
# _framework density 15.399285000000001
#
# number of rings (size 3 to 8) (size 9 to 14) (size 15 to 20)
#    0.000    2.333    2.222    1.333    1.556    5.111 
#    0.000    3.333    0.000    0.000    0.000    0.000 
#    0.000    0.000    0.000    0.000    0.000   20.000 
#
# Total GULP energy -400975.252725 kJ/mol
# GULP energy per Si atom -5569.100732 kJ/mol
# Density = 1.536424 g / cm^3
# Si number density = 15.399285 Si / 1000 Ang^3
#
#
#
# Elastic Constant Matrix: (Units=GPa)
#
#
# Indices 1 2 3 4 5 6 
#
# 1 61.6169 1.9473 40.8793 0.0000 0.0000 0.0000
# 2 1.9473 61.6168 40.8784 0.0000 0.0000 0.0000
# 3 40.8793 40.8784 131.3284 0.0000 0.0000 0.0000
# 4 0.0000 0.0000 0.0000 10.9625 0.0000 0.0000
# 5 0.0000 0.0000 0.0000 0.0000 10.9625 0.0000
# 6 0.0000 0.0000 0.0000 0.0000 0.0000 -2.9612
#
#
#
# Elastic Compliance Matrix: (Units=1/GPa)
#
#
# Indices 1 2 3 4 5 6 
#
# 1 0.021498 0.004739 -0.008167 0.000000 0.000000 0.000000
# 2 0.004739 0.021497 -0.008166 0.000000 0.000000 0.000000
# 3 -0.008167 -0.008166 0.012699 0.000000 0.000000 0.000000
# 4 0.000000 0.000000 0.000000 0.091220 0.000000 0.000000
# 5 0.000000 0.000000 0.000000 0.000000 0.091220 0.000000
# 6 0.000000 0.000000 0.000000 0.000000 0.000000 -0.337698
#
#
# Mechanical properties :
#
#
# Convention : Reuss Voigt Hill
#
# Bulk Modulus (GPa) = 30.76488 46.88577 38.82532
# Shear Modulus (GPa) = -76.28941 15.18323 -30.55309
#
# Velocity S-wave (km/s) = -7.04616 3.14342 -4.45911
# Velocity P-wave (km/s) = 6.79532 6.60966 1.11553
#
# Compressibility (1/GPa) = 0.03250460
#
# Stress axis : x y z
#
# Youngs Moduli (GPa) = 46.51663 46.51711 78.74915
#
# Poissons Ratio (x) = -0.22043 0.64312
# Poissons Ratio (y) = -0.22042 0.64310
# Poissons Ratio (z) = 0.37989 0.37988
#
# Static dielectric constant tensor:
#      x y z
#    x 1.505720 0.000000 0.000000 
#    y 0.000000 1.505720 0.000000 
#    z 0.000000 0.000000 1.557940 
# 
# From -- ./inp_files/7536.got.cif
#   From: 2010.05.17/outbox.cif.g08.bks.cpg/sg131_4_cif.got.tgz:7536.got - 2010.05.20 12:21:01.
