data_PCOD9566190
_publ_section_title
;
Structure prediction by ZEFSAII (Michael W. Deem and Ramdas Pophale) SiO2 
 PCOD9566190
Probable space group: P 42/M M C
;
_chemical_formula_sum "Si O2"
_cell_formula_units_Z 104
_cell_length_a 27.299304
_cell_length_b 27.299304
_cell_length_c 8.791535
_cell_angle_alpha 90.000000
_cell_angle_beta 90.000000
_cell_angle_gamma 90.000000
_cell_volume 6551.909032
_symmetry_space_group_name_H-M "P 42/M M C"
_symmetry_group_IT_number 131
_symmetry_cell_setting 'tetragonal'
loop_
_space_group_symop_operation_xyz
x,y,z
-x,-y,z
-y,x,1/2+z
y,-x,1/2+z
-x,y,-z
x,-y,-z
y,x,1/2-z
-y,-x,1/2-z
-x,-y,-z
x,y,-z
y,-x,1/2-z
-y,x,1/2-z
x,-y,z
-x,y,z
-y,-x,1/2+z
y,x,1/2+z
loop_
_atom_site_type_symbol
_atom_site_label
_atom_site_fract_x
_atom_site_fract_y
_atom_site_fract_z
Si Si1 0.871056 0.578418 0.818540
Si Si2 0.056090 0.131076 0.316764
Si Si3 0.864246 0.788630 0.682451
Si Si4 0.340295 0.264801 0.182482
Si Si5 0.159206 0.686293 0.818033
Si Si6 0.943153 0.500000 0.682258
Si Si7 0.553629 0.234588 0.182900
O O1 0.870389 0.636396 0.783454
O O2 0.914222 0.547260 0.744413
O O3 0.818919 0.559093 0.757002
O O4 0.872606 0.572222 0.000000
O O5 0.084499 0.084499 0.250000
O O6 0.056612 0.127626 0.500000
O O7 0.088400 0.178704 0.275701
O O8 0.000000 0.134186 0.265536
O O9 0.817711 0.817711 0.750000
O O10 0.860303 0.786851 0.500000
O O11 0.865163 0.734556 0.750135
O O12 0.308994 0.308994 0.250000
O O13 0.319876 0.213316 0.246680
O O14 0.398034 0.265207 0.224869
O O15 0.335998 0.264657 0.000000
O O16 0.163894 0.690336 0.000000
O O17 0.940627 0.500000 0.500000
O O18 0.000000 0.500000 0.728854
O O19 0.500000 0.254975 0.223359
O O20 0.555180 0.228364 0.000000
#
# Coordination Sequence:
#
# PCOD9566190 Si02
#       7
#    16  16  16  16  16   8  16
#     4  10  20  33  51  73  95 121 156 200 246 288
#     4   9  19  35  53  74  98 123 153 189 230 278
#     4  10  19  32  51  72  97 129 162 195 233 280
#     4  10  19  30  45  68  99 131 162 196 239 285
#     4  10  20  33  49  71  98 126 159 197 238 286
#     4  11  23  37  53  71  93 123 159 201 246 291
#     4   9  17  30  49  70  93 125 162 200 239 286
#
# _framework density 15.873236
#
# number of rings (size 3 to 8) (size 9 to 14) (size 15 to 20)
#    0.000    2.231    0.769    2.538    0.000    4.154 
#    0.000    1.538    0.000    2.769    0.000    0.000 
#    0.000    0.308    0.000    3.846    0.000    0.000 
#
# Total GULP energy -580115.666670 kJ/mol
# GULP energy per Si atom -5578.035256 kJ/mol
# Density = 1.583711 g / cm^3
# Si number density = 15.873236 Si / 1000 Ang^3
#
#
#
# Elastic Constant Matrix: (Units=GPa)
#
#
# Indices 1 2 3 4 5 6 
#
# 1 136.3326 73.2471 42.8015 0.0000 0.0000 0.0000
# 2 73.2471 136.3326 42.8015 0.0000 0.0000 0.0000
# 3 42.8015 42.8015 41.4710 0.0000 0.0000 0.0000
# 4 0.0000 0.0000 0.0000 21.7726 0.0000 0.0000
# 5 0.0000 0.0000 0.0000 0.0000 21.7726 0.0000
# 6 0.0000 0.0000 0.0000 0.0000 0.0000 17.8896
#
#
#
# Elastic Compliance Matrix: (Units=1/GPa)
#
#
# Indices 1 2 3 4 5 6 
#
# 1 0.012050 -0.003801 -0.008513 0.000000 0.000000 0.000000
# 2 -0.003801 0.012050 -0.008513 0.000000 0.000000 0.000000
# 3 -0.008513 -0.008513 0.041686 0.000000 0.000000 0.000000
# 4 0.000000 0.000000 0.000000 0.045929 0.000000 0.000000
# 5 0.000000 0.000000 0.000000 0.000000 0.045929 0.000000
# 6 0.000000 0.000000 0.000000 0.000000 0.000000 0.055898
#
#
# Mechanical properties :
#
#
# Convention : Reuss Voigt Hill
#
# Bulk Modulus (GPa) = 41.44179 70.20404 55.82291
# Shear Modulus (GPa) = 18.99382 22.63935 20.81659
#
# Velocity S-wave (km/s) = 3.46294 3.78068 3.62529
# Velocity P-wave (km/s) = 6.49260 7.96128 7.26415
#
# Compressibility (1/GPa) = 0.02413023
#
# Stress axis : x y z
#
# Youngs Moduli (GPa) = 82.98661 82.98661 23.98868
#
# Poissons Ratio (x) = 0.31546 0.20423
# Poissons Ratio (y) = 0.31546 0.20423
# Poissons Ratio (z) = 0.70650 0.70650
#
# Static dielectric constant tensor:
#      x y z
#    x 1.524620 0.000000 0.000000 
#    y 0.000000 1.524620 0.000000 
#    z 0.000000 0.000000 1.531200 
# 
# From -- ./inp_files/2568.got.cif
#   From: 2010.05.17/outbox.cif.g08.bks.cpg/sg131_2_cif.got.tgz:2568.got - 2010.05.20 12:21:01.
