data_PCOD9566341
_publ_section_title
;
Structure prediction by ZEFSAII (Michael W. Deem and Ramdas Pophale) SiO2 
 PCOD9566341
Probable space group: P 42/M M C
;
_chemical_formula_sum "Si O2"
_cell_formula_units_Z 88
_cell_length_a 18.557052
_cell_length_b 18.557052
_cell_length_c 15.247408
_cell_angle_alpha 90.000000
_cell_angle_beta 90.000000
_cell_angle_gamma 90.000000
_cell_volume 5250.661137
_symmetry_space_group_name_H-M "P 42/M M C"
_symmetry_group_IT_number 131
_symmetry_cell_setting 'tetragonal'
loop_
_space_group_symop_operation_xyz
x,y,z
-x,-y,z
-y,x,1/2+z
y,-x,1/2+z
-x,y,-z
x,-y,-z
y,x,1/2-z
-y,-x,1/2-z
-x,-y,-z
x,y,-z
y,-x,1/2-z
-y,x,1/2-z
x,-y,z
-x,y,z
-y,-x,1/2+z
y,x,1/2+z
loop_
_atom_site_type_symbol
_atom_site_label
_atom_site_fract_x
_atom_site_fract_y
_atom_site_fract_z
Si Si1 0.800066 0.085955 0.101921
Si Si2 0.412792 0.917305 0.500000
Si Si3 0.586462 0.810616 0.341691
Si Si4 0.084476 0.084476 0.250000
Si Si5 0.700488 0.801140 0.809930
Si Si6 0.582328 0.582328 0.250000
Si Si7 0.342738 0.661384 0.599217
O O1 0.867652 0.102642 0.165303
O O2 0.734127 0.130538 0.142164
O O3 0.787786 0.000000 0.105999
O O4 0.812602 0.105160 0.000000
O O5 0.500000 0.919813 0.500000
O O6 0.393144 0.871614 0.586656
O O7 0.386415 0.000000 0.500000
O O8 0.500000 0.812073 0.327909
O O9 0.633413 0.819013 0.253536
O O10 0.610620 0.733297 0.380803
O O11 0.000000 0.095421 0.230341
O O12 0.761250 0.761250 0.750000
O O13 0.679003 0.740111 0.879860
O O14 0.592897 0.500000 0.223200
O O15 0.602760 0.632620 0.169366
O O16 0.353686 0.638827 0.500000
#
# Coordination Sequence:
#
# PCOD9566341 Si02
#       7
#    16   8  16   8  16   8  16
#     4  10  20  35  56  79 109 148 182 220 272 323
#     4   9  18  32  52  82 111 133 170 224 275 330
#     4  10  19  33  55  77 103 143 178 216 274 333
#     4   9  18  33  54  82 112 141 180 223 262 318
#     4  10  20  35  53  80 108 138 182 231 267 319
#     4  11  24  39  54  80 116 145 182 233 274 326
#     4  11  21  35  58  81 105 144 184 225 276 329
#
# _framework density 16.759793999999999
#
# number of rings (size 3 to 8) (size 9 to 14) (size 15 to 20)
#    0.000    1.909    4.545    1.091    0.000    2.545 
#    0.000    2.727    0.000    1.636    0.000    1.273 
#    0.000    0.000    0.000    0.000    0.000    0.000 
#
# Total GULP energy -490733.088439 kJ/mol
# GULP energy per Si atom -5576.512369 kJ/mol
# Density = 1.672165 g / cm^3
# Si number density = 16.759794 Si / 1000 Ang^3
#
#
#
# Elastic Constant Matrix: (Units=GPa)
#
#
# Indices 1 2 3 4 5 6 
#
# 1 54.7852 37.0551 38.7357 0.0000 0.0000 0.0000
# 2 37.0551 54.7852 38.7357 0.0000 0.0000 0.0000
# 3 38.7357 38.7357 127.0113 0.0000 0.0000 0.0000
# 4 0.0000 0.0000 0.0000 16.2575 0.0000 0.0000
# 5 0.0000 0.0000 0.0000 0.0000 16.2575 0.0000
# 6 0.0000 0.0000 0.0000 0.0000 0.0000 25.3656
#
#
#
# Elastic Compliance Matrix: (Units=1/GPa)
#
#
# Indices 1 2 3 4 5 6 
#
# 1 0.035531 -0.020871 -0.004471 0.000000 0.000000 0.000000
# 2 -0.020871 0.035531 -0.004471 0.000000 0.000000 0.000000
# 3 -0.004471 -0.004471 0.010600 0.000000 0.000000 0.000000
# 4 0.000000 0.000000 0.000000 0.061510 0.000000 0.000000
# 5 0.000000 0.000000 0.000000 0.000000 0.061510 0.000000
# 6 0.000000 0.000000 0.000000 0.000000 0.000000 0.039423
#
#
# Mechanical properties :
#
#
# Convention : Reuss Voigt Hill
#
# Bulk Modulus (GPa) = 45.37942 51.73717 48.55830
# Shear Modulus (GPa) = 16.07325 19.71314 17.89320
#
# Velocity S-wave (km/s) = 3.10019 3.43332 3.27100
# Velocity P-wave (km/s) = 6.32061 6.83036 6.58042
#
# Compressibility (1/GPa) = 0.02203642
#
# Stress axis : x y z
#
# Youngs Moduli (GPa) = 28.14471 28.14471 94.33607
#
# Poissons Ratio (x) = 0.58740 0.42177
# Poissons Ratio (y) = 0.58740 0.42177
# Poissons Ratio (z) = 0.12583 0.12583
#
# Static dielectric constant tensor:
#      x y z
#    x 1.558860 0.000000 0.000000 
#    y 0.000000 1.558860 0.000000 
#    z 0.000000 0.000000 1.556230 
# 
# From -- ./inp_files/5952.got.cif
#   From: 2010.05.17/outbox.cif.g08.bks.cpg/sg131_3_cif.got.tgz:5952.got - 2010.05.20 12:21:01.
