data_PCOD9566950
_publ_section_title
;
Structure prediction by ZEFSAII (Michael W. Deem and Ramdas Pophale) SiO2 
 PCOD9566950
Probable space group: P 42/M C M
;
_chemical_formula_sum "Si O2"
_cell_formula_units_Z 64
_cell_length_a 20.684639
_cell_length_b 20.684639
_cell_length_c 5.669540
_cell_angle_alpha 90.000000
_cell_angle_beta 90.000000
_cell_angle_gamma 90.000000
_cell_volume 2425.737015
_symmetry_space_group_name_H-M "P 42/M C M"
_symmetry_group_IT_number 132
_symmetry_cell_setting 'tetragonal'
loop_
_space_group_symop_operation_xyz
x,y,z
-y,x,1/2+z
-x,-y,z
y,-x,1/2+z
x,-y,1/2-z
-x,y,1/2-z
y,x,-z
-y,-x,-z
-x,-y,-z
y,-x,1/2-z
x,y,-z
-y,x,1/2-z
-x,y,1/2+z
x,-y,1/2+z
-y,-x,z
y,x,z
loop_
_atom_site_type_symbol
_atom_site_label
_atom_site_fract_x
_atom_site_fract_y
_atom_site_fract_z
Si Si1 0.346592 0.241466 0.000000
Si Si2 0.888045 0.245421 0.500000
Si Si3 0.591913 0.902450 0.500000
Si Si4 0.627116 0.528430 0.500000
Si Si5 0.143400 0.001951 0.000000
Si Si6 0.253192 0.111708 0.500000
Si Si7 0.381984 0.912903 0.500000
Si Si8 0.414978 0.247434 0.500000
O O1 0.361657 0.163726 0.000000
O O2 0.377858 0.260797 0.746872
O O3 0.277198 0.277198 0.000000
O O4 0.853311 0.245719 0.750891
O O5 0.937924 0.307501 0.500000
O O6 0.931149 0.181919 0.500000
O O7 0.670867 0.905172 0.500000
O O8 0.579387 0.928305 0.762680
O O9 0.568416 0.828359 0.500000
O O10 0.604305 0.500000 0.250000
O O11 0.601781 0.601781 0.500000
O O12 0.704232 0.525201 0.500000
O O13 0.108443 0.000000 0.750000
O O14 0.200072 0.946089 0.000000
#
# Coordination Sequence:
#
# PCOD9566950 Si02
#       8
#     8   8   8   8   8   8   8   8
#     4  10  17  27  44  64  85 106 130 157 184 217
#     4   8  12  18  25  37  60  90 124 153 178 208
#     4   8  14  24  38  55  76  97 119 143 171 205
#     4  12  26  43  62  80  96 112 130 151 176 208
#     4   8  12  16  24  37  57  87 122 152 176 202
#     4   8  12  18  28  44  64  89 120 147 173 203
#     4   8  14  21  31  48  70  97 126 152 182 213
#     4  10  20  34  51  70  88 106 125 147 174 209
#
# _framework density 26.383735999999999
#
# number of rings (size 3 to 8) (size 9 to 14) (size 15 to 20)
#    0.000    3.000    0.000    2.250    0.000    0.750 
#    0.000    0.000    0.000    0.000    0.000    0.000 
#    0.000    0.000    0.000    0.000    0.000  183.750 
#
# Total GULP energy -356504.674392 kJ/mol
# GULP energy per Si atom -5570.385537 kJ/mol
# Density = 2.632369 g / cm^3
# Si number density = 26.383736 Si / 1000 Ang^3
#
#
#
# Elastic Constant Matrix: (Units=GPa)
#
#
# Indices 1 2 3 4 5 6 
#
# 1 44.4567 45.9255 24.5897 0.0000 0.0000 0.0000
# 2 45.9255 44.4567 24.5897 0.0000 0.0000 0.0000
# 3 24.5897 24.5897 366.5319 0.0000 0.0000 0.0000
# 4 0.0000 0.0000 0.0000 12.4484 0.0000 0.0000
# 5 0.0000 0.0000 0.0000 0.0000 12.4484 0.0000
# 6 0.0000 0.0000 0.0000 0.0000 0.0000 28.5543
#
#
#
# Elastic Compliance Matrix: (Units=1/GPa)
#
#
# Indices 1 2 3 4 5 6 
#
# 1 -0.334675 0.346158 -0.000770 0.000000 0.000000 0.000000
# 2 0.346158 -0.334675 -0.000770 0.000000 0.000000 0.000000
# 3 -0.000770 -0.000770 0.002832 0.000000 0.000000 0.000000
# 4 0.000000 0.000000 0.000000 0.080332 0.000000 0.000000
# 5 0.000000 0.000000 0.000000 0.000000 0.080332 0.000000
# 6 0.000000 0.000000 0.000000 0.000000 0.000000 0.035021
#
#
# Mechanical properties :
#
#
# Convention : Reuss Voigt Hill
#
# Bulk Modulus (GPa) = 44.02042 71.73945 57.87993
# Shear Modulus (GPa) = -4.33841 34.71292 15.18725
#
# Velocity S-wave (km/s) = -1.28371 3.63118 2.40183
# Velocity P-wave (km/s) = 3.81099 6.69556 5.44767
#
# Compressibility (1/GPa) = 0.02271673
#
# Stress axis : x y z
#
# Youngs Moduli (GPa) = -2.98798 -2.98798 353.15200
#
# Poissons Ratio (x) = 1.03431 0.27206
# Poissons Ratio (y) = 1.03431 0.27206
# Poissons Ratio (z) = -0.00230 -0.00230
#
# Static dielectric constant tensor:
#      x y z
#    x 2.067810 0.000000 0.000000 
#    y 0.000000 2.067810 0.000000 
#    z 0.000000 0.000000 2.147090 
# 
# From -- ./inp_files/188.got.cif
#   From: 2010.05.17/outbox.cif.g08.bks.cpg/sg132_1_cif.got.tgz:188.got - 2010.05.20 12:30:18.
