data_PCOD9566355
_publ_section_title
;
Structure prediction by ZEFSAII (Michael W. Deem and Ramdas Pophale) SiO2 
 PCOD9566355
Probable space group: P 42/M M C
;
_chemical_formula_sum "Si O2"
_cell_formula_units_Z 104
_cell_length_a 26.835297
_cell_length_b 26.835297
_cell_length_c 8.670120
_cell_angle_alpha 90.000000
_cell_angle_beta 90.000000
_cell_angle_gamma 90.000000
_cell_volume 6243.640957
_symmetry_space_group_name_H-M "P 42/M M C"
_symmetry_group_IT_number 131
_symmetry_cell_setting 'tetragonal'
loop_
_space_group_symop_operation_xyz
x,y,z
-x,-y,z
-y,x,1/2+z
y,-x,1/2+z
-x,y,-z
x,-y,-z
y,x,1/2-z
-y,-x,1/2-z
-x,-y,-z
x,y,-z
y,-x,1/2-z
-y,x,1/2-z
x,-y,z
-x,y,z
-y,-x,1/2+z
y,x,1/2+z
loop_
_atom_site_type_symbol
_atom_site_label
_atom_site_fract_x
_atom_site_fract_y
_atom_site_fract_z
Si Si1 0.688213 0.146721 0.319395
Si Si2 0.445531 0.761073 0.183467
Si Si3 0.056154 0.248306 0.313974
Si Si4 0.874917 0.584187 0.319322
Si Si5 0.333206 0.254741 0.185877
Si Si6 0.131904 0.945159 0.185253
Si Si7 0.940810 0.500000 0.819664
O O1 0.696662 0.153966 0.500000
O O2 0.724136 0.103757 0.255392
O O3 0.633088 0.126428 0.283789
O O4 0.688774 0.201059 0.238382
O O5 0.500000 0.744894 0.246815
O O6 0.441754 0.820963 0.198603
O O7 0.391398 0.741956 0.240796
O O8 0.446236 0.750202 0.000000
O O9 0.058106 0.252709 0.500000
O O10 0.059767 0.189942 0.272989
O O11 0.000000 0.265650 0.266565
O O12 0.879942 0.597597 0.500000
O O13 0.917568 0.547456 0.264858
O O14 0.298800 0.298800 0.250000
O O15 0.333478 0.255589 0.000000
O O16 0.098181 0.901819 0.250000
O O17 0.114625 0.000000 0.237900
O O18 0.129661 0.944181 0.000000
O O19 0.000000 0.500000 0.810573
O O20 0.925982 0.500000 0.000000
#
# Coordination Sequence:
#
# PCOD9566355 Si02
#       7
#    16  16  16  16  16  16   8
#     4  11  22  35  53  77 104 134 171 215 267 318
#     4   8  14  28  52  77  96 125 170 214 253 301
#     4   9  19  37  56  72  95 129 170 212 254 306
#     4  10  19  34  54  72  94 128 172 214 256 314
#     4  10  20  34  53  77 110 144 177 218 263 316
#     4   9  19  35  54  76 100 125 154 191 236 290
#     4  11  23  35  47  69 101 131 165 219 276 315
#
# _framework density 16.656946999999999
#
# number of rings (size 3 to 8) (size 9 to 14) (size 15 to 20)
#    0.000    2.385    0.769    4.385    0.000    3.231 
#    0.000    3.846    0.000    0.000    0.000    0.000 
#    0.000    0.308    0.000    3.846    0.000    0.000 
#
# Total GULP energy -579535.684762 kJ/mol
# GULP energy per Si atom -5572.458507 kJ/mol
# Density = 1.661903 g / cm^3
# Si number density = 16.656947 Si / 1000 Ang^3
#
#
#
# Elastic Constant Matrix: (Units=GPa)
#
#
# Indices 1 2 3 4 5 6 
#
# 1 94.1320 65.5912 26.3107 0.0000 0.0000 0.0000
# 2 65.5912 94.1384 26.3093 0.0000 0.0000 0.0000
# 3 26.3107 26.3093 40.8182 0.0000 0.0000 0.0000
# 4 0.0000 0.0000 0.0000 11.4485 0.0000 0.0000
# 5 0.0000 0.0000 0.0000 0.0000 11.4894 0.0000
# 6 0.0000 0.0000 0.0000 0.0000 0.0000 26.3019
#
#
#
# Elastic Compliance Matrix: (Units=1/GPa)
#
#
# Indices 1 2 3 4 5 6 
#
# 1 0.021492 -0.013543 -0.005125 0.000000 0.000000 0.000000
# 2 -0.013543 0.021490 -0.005122 0.000000 0.000000 0.000000
# 3 -0.005125 -0.005122 0.031104 0.000000 0.000000 0.000000
# 4 0.000000 0.000000 0.000000 0.087348 0.000000 0.000000
# 5 0.000000 0.000000 0.000000 0.000000 0.087037 0.000000
# 6 0.000000 0.000000 0.000000 0.000000 0.000000 0.038020
#
#
# Mechanical properties :
#
#
# Convention : Reuss Voigt Hill
#
# Bulk Modulus (GPa) = 37.72558 51.72347 44.72453
# Shear Modulus (GPa) = 14.58131 17.23978 15.91055
#
# Velocity S-wave (km/s) = 2.96191 3.22062 3.09397
# Velocity P-wave (km/s) = 5.86472 6.70443 6.29859
#
# Compressibility (1/GPa) = 0.02650721
#
# Stress axis : x y z
#
# Youngs Moduli (GPa) = 46.52841 46.53338 32.15064
#
# Poissons Ratio (x) = 0.63018 0.16476
# Poissons Ratio (y) = 0.63011 0.16468
# Poissons Ratio (z) = 0.23844 0.23834
#
# Static dielectric constant tensor:
#      x y z
#    x 1.544710 0.000000 0.000000 
#    y 0.000000 1.544700 0.000000 
#    z 0.000000 0.000000 1.568830 
# 
# From -- ./inp_files/2539.got.cif
#   From: 2010.05.17/outbox.cif.g08.bks.cpg/sg131_2_cif.got.tgz:2539.got - 2010.05.20 12:21:01.
