data_PCOD9566847
_publ_section_title
;
Structure prediction by ZEFSAII (Michael W. Deem and Ramdas Pophale) SiO2 
 PCOD9566847
Probable space group: P 42/M M C
;
_chemical_formula_sum "Si O2"
_cell_formula_units_Z 34
_cell_length_a 11.450375
_cell_length_b 11.450375
_cell_length_c 14.369050
_cell_angle_alpha 90.000000
_cell_angle_beta 90.000000
_cell_angle_gamma 90.000000
_cell_volume 1883.941774
_symmetry_space_group_name_H-M "P 42/M M C"
_symmetry_group_IT_number 131
_symmetry_cell_setting 'tetragonal'
loop_
_space_group_symop_operation_xyz
x,y,z
-x,-y,z
-y,x,1/2+z
y,-x,1/2+z
-x,y,-z
x,-y,-z
y,x,1/2-z
-y,-x,1/2-z
-x,-y,-z
x,y,-z
y,-x,1/2-z
-y,x,1/2-z
x,-y,z
-x,y,z
-y,-x,1/2+z
y,x,1/2+z
loop_
_atom_site_type_symbol
_atom_site_label
_atom_site_fract_x
_atom_site_fract_y
_atom_site_fract_z
Si Si1 0.639373 0.194466 0.500000
Si Si2 0.833641 0.359895 0.500000
Si Si3 0.000000 0.250468 0.347720
Si Si4 0.000000 0.000000 0.250000
Si Si5 0.639916 0.000000 0.354108
O O1 0.500000 0.203904 0.500000
O O2 0.700548 0.318739 0.500000
O O3 0.675752 0.114724 0.411904
O O4 0.851075 0.500000 0.500000
O O5 0.893116 0.297854 0.589384
O O6 0.000000 0.113889 0.318131
O O7 0.000000 0.313151 0.248772
O O8 0.500000 0.000000 0.353502
#
# Coordination Sequence:
#
# PCOD9566847 Si02
#       5
#     8   8   8   2   8
#     4   9  19  34  56  83 107 139 186 231 267 309
#     4  11  23  37  54  77 111 151 181 213 261 322
#     4  11  22  37  55  81 110 138 174 214 273 336
#     4  12  24  34  60  88 104 134 168 230 288 316
#     4   9  17  35  60  81 107 144 181 224 275 322
#
# _framework density 18.047267999999999
#
# number of rings (size 3 to 8) (size 9 to 14) (size 15 to 20)
#    0.000    1.882    0.000    7.059    0.000    4.235 
#    0.000    0.000    0.000    0.000    0.000    6.588 
#    0.000    0.000    0.000    0.000    0.000    0.000 
#
# Total GULP energy -189522.076968 kJ/mol
# GULP energy per Si atom -5574.178734 kJ/mol
# Density = 1.800619 g / cm^3
# Si number density = 18.047268 Si / 1000 Ang^3
#
#
#
# Elastic Constant Matrix: (Units=GPa)
#
#
# Indices 1 2 3 4 5 6 
#
# 1 100.4148 70.0041 48.4029 0.0000 0.0000 0.0000
# 2 70.0041 100.4148 48.4029 0.0000 0.0000 0.0000
# 3 48.4029 48.4029 162.9554 0.0000 0.0000 0.0000
# 4 0.0000 0.0000 0.0000 18.1565 0.0000 0.0000
# 5 0.0000 0.0000 0.0000 0.0000 18.1565 0.0000
# 6 0.0000 0.0000 0.0000 0.0000 0.0000 26.4013
#
#
#
# Elastic Compliance Matrix: (Units=1/GPa)
#
#
# Indices 1 2 3 4 5 6 
#
# 1 0.019971 -0.012912 -0.002097 0.000000 0.000000 0.000000
# 2 -0.012912 0.019971 -0.002097 0.000000 0.000000 0.000000
# 3 -0.002097 -0.002097 0.007382 0.000000 0.000000 0.000000
# 4 0.000000 0.000000 0.000000 0.055077 0.000000 0.000000
# 5 0.000000 0.000000 0.000000 0.000000 0.055077 0.000000
# 6 0.000000 0.000000 0.000000 0.000000 0.000000 0.037877
#
#
# Mechanical properties :
#
#
# Convention : Reuss Voigt Hill
#
# Bulk Modulus (GPa) = 76.25907 77.48942 76.87424
# Shear Modulus (GPa) = 21.37328 25.67452 23.52390
#
# Velocity S-wave (km/s) = 3.44509 3.77586 3.61426
# Velocity P-wave (km/s) = 7.62704 7.87653 7.75279
#
# Compressibility (1/GPa) = 0.01311319
#
# Stress axis : x y z
#
# Youngs Moduli (GPa) = 50.07255 50.07255 135.46032
#
# Poissons Ratio (x) = 0.64654 0.28402
# Poissons Ratio (y) = 0.64654 0.28402
# Poissons Ratio (z) = 0.10499 0.10499
#
# Static dielectric constant tensor:
#      x y z
#    x 1.635310 0.000000 0.000000 
#    y 0.000000 1.635310 0.000000 
#    z 0.000000 0.000000 1.589910 
# 
# From -- ./inp_files/3157.got.cif
#   From: 2010.05.17/outbox.cif.g08.bks.cpg/sg131_2_cif.got.tgz:3157.got - 2010.05.20 12:21:01.
