data_PCOD9566703
_publ_section_title
;
Structure prediction by ZEFSAII (Michael W. Deem and Ramdas Pophale) SiO2 
 PCOD9566703
Probable space group: P 42/M M C
;
_chemical_formula_sum "Si O2"
_cell_formula_units_Z 42
_cell_length_a 11.298611
_cell_length_b 11.298611
_cell_length_c 14.322445
_cell_angle_alpha 90.000000
_cell_angle_beta 90.000000
_cell_angle_gamma 90.000000
_cell_volume 1828.383428
_symmetry_space_group_name_H-M "P 42/M M C"
_symmetry_group_IT_number 131
_symmetry_cell_setting 'tetragonal'
loop_
_space_group_symop_operation_xyz
x,y,z
-x,-y,z
-y,x,1/2+z
y,-x,1/2+z
-x,y,-z
x,-y,-z
y,x,1/2-z
-y,-x,1/2-z
-x,-y,-z
x,y,-z
y,-x,1/2-z
-y,x,1/2-z
x,-y,z
-x,y,z
-y,-x,1/2+z
y,x,1/2+z
loop_
_atom_site_type_symbol
_atom_site_label
_atom_site_fract_x
_atom_site_fract_y
_atom_site_fract_z
Si Si1 0.000000 0.000000 0.250000
Si Si2 0.744803 0.735509 0.109383
Si Si3 0.500000 0.359715 0.891156
Si Si4 0.359618 0.000000 0.613348
Si Si5 0.793262 0.000000 0.896019
O O1 0.000000 0.889339 0.316861
O O2 0.625079 0.681380 0.149994
O O3 0.875654 0.699175 0.146998
O O4 0.727029 0.876370 0.111783
O O5 0.749877 0.697354 0.000000
O O6 0.500000 0.500000 0.891070
O O7 0.500000 0.317557 0.000000
O O8 0.500000 0.000000 0.634033
O O9 0.345587 0.000000 0.500000
O O10 0.849186 0.000000 0.000000
#
# Coordination Sequence:
#
# PCOD9566703 Si02
#       5
#     2  16   8   8   8
#     4  12  22  36  60  86 112 160 194 240 296 346
#     4   9  17  29  47  75 114 151 187 238 292 348
#     4   9  16  27  47  81 117 152 199 246 292 356
#     4   9  15  23  38  64 101 145 188 234 285 334
#     4  10  21  36  55  85 120 152 192 240 295 355
#
# _framework density 22.971109999999999
#
# number of rings (size 3 to 8) (size 9 to 14) (size 15 to 20)
#    0.000    2.667    0.000    2.571    0.000    8.381 
#    0.000    3.810    0.000    0.000   29.714    0.000 
#    0.000    0.000    0.000    0.000    0.000    0.381 
#
# Total GULP energy -234383.534623 kJ/mol
# GULP energy per Si atom -5580.560348 kJ/mol
# Density = 2.291883 g / cm^3
# Si number density = 22.971110 Si / 1000 Ang^3
#
#
#
# Elastic Constant Matrix: (Units=GPa)
#
#
# Indices 1 2 3 4 5 6 
#
# 1 162.6392 85.8448 15.1025 0.0000 0.0000 0.0000
# 2 85.8448 162.6392 15.1025 0.0000 0.0000 0.0000
# 3 15.1025 15.1025 89.8154 0.0000 0.0000 0.0000
# 4 0.0000 0.0000 0.0000 -6.0367 0.0000 0.0000
# 5 0.0000 0.0000 0.0000 0.0000 -6.0367 0.0000
# 6 0.0000 0.0000 0.0000 0.0000 0.0000 -187.5532
#
#
#
# Elastic Compliance Matrix: (Units=1/GPa)
#
#
# Indices 1 2 3 4 5 6 
#
# 1 0.008565 -0.004457 -0.000691 0.000000 0.000000 0.000000
# 2 -0.004457 0.008565 -0.000691 0.000000 0.000000 0.000000
# 3 -0.000691 -0.000691 0.011366 0.000000 0.000000 0.000000
# 4 0.000000 0.000000 0.000000 -0.165653 0.000000 0.000000
# 5 0.000000 0.000000 0.000000 0.000000 -0.165653 0.000000
# 6 0.000000 0.000000 0.000000 0.000000 0.000000 -0.005332
#
#
# Mechanical properties :
#
#
# Convention : Reuss Voigt Hill
#
# Bulk Modulus (GPa) = 59.45398 71.91038 65.68218
# Shear Modulus (GPa) = -17.19054 -19.98906 -18.58980
#
# Velocity S-wave (km/s) = -2.73858 -2.95309 -2.84785
# Velocity P-wave (km/s) = 3.99231 4.44354 4.22395
#
# Compressibility (1/GPa) = 0.01681973
#
# Stress axis : x y z
#
# Youngs Moduli (GPa) = 116.75320 116.75320 87.97955
#
# Poissons Ratio (x) = 0.52033 0.06078
# Poissons Ratio (y) = 0.52033 0.06078
# Poissons Ratio (z) = 0.08066 0.08066
#
# Static dielectric constant tensor:
#      x y z
#    x 1.602640 0.000000 0.000000 
#    y 0.000000 1.602640 0.000000 
#    z 0.000000 0.000000 1.879410 
# 
# From -- ./inp_files/6945.got.cif
#   From: 2010.05.17/outbox.cif.g08.bks.cpg/sg131_4_cif.got.tgz:6945.got - 2010.05.20 12:21:01.
