data_PCOD9566294
_publ_section_title
;
Structure prediction by ZEFSAII (Michael W. Deem and Ramdas Pophale) SiO2 
 PCOD9566294
Probable space group: P 42/M M C
;
_chemical_formula_sum "Si O2"
_cell_formula_units_Z 104
_cell_length_a 27.311148
_cell_length_b 27.311148
_cell_length_c 8.728767
_cell_angle_alpha 90.000000
_cell_angle_beta 90.000000
_cell_angle_gamma 90.000000
_cell_volume 6510.776875
_symmetry_space_group_name_H-M "P 42/M M C"
_symmetry_group_IT_number 131
_symmetry_cell_setting 'tetragonal'
loop_
_space_group_symop_operation_xyz
x,y,z
-x,-y,z
-y,x,1/2+z
y,-x,1/2+z
-x,y,-z
x,-y,-z
y,x,1/2-z
-y,-x,1/2-z
-x,-y,-z
x,y,-z
y,-x,1/2-z
-y,x,1/2-z
x,-y,z
-x,y,z
-y,-x,1/2+z
y,x,1/2+z
loop_
_atom_site_type_symbol
_atom_site_label
_atom_site_fract_x
_atom_site_fract_y
_atom_site_fract_z
Si Si1 0.872351 0.581386 0.817051
Si Si2 0.055990 0.131153 0.184587
Si Si3 0.864341 0.788499 0.816030
Si Si4 0.341423 0.265349 0.183642
Si Si5 0.153500 0.683524 0.683847
Si Si6 0.942569 0.500000 0.683644
Si Si7 0.554053 0.233374 0.184932
O O1 0.873738 0.636814 0.755103
O O2 0.914891 0.547286 0.750604
O O3 0.820250 0.560548 0.757683
O O4 0.873330 0.580568 0.000000
O O5 0.084262 0.084262 0.250000
O O6 0.088587 0.178478 0.226582
O O7 0.000000 0.134366 0.236914
O O8 0.056295 0.128142 0.000000
O O9 0.817544 0.817544 0.750000
O O10 0.866035 0.734630 0.746710
O O11 0.860862 0.786256 0.000000
O O12 0.307776 0.307776 0.250000
O O13 0.321560 0.211214 0.226518
O O14 0.398664 0.265139 0.231016
O O15 0.339495 0.268599 0.000000
O O16 0.150361 0.681406 0.500000
O O17 0.937383 0.500000 0.500000
O O18 0.000000 0.500000 0.722126
O O19 0.500000 0.252685 0.223540
O O20 0.556619 0.227441 0.000000
#
# Coordination Sequence:
#
# PCOD9566294 Si02
#       7
#    16  16  16  16  16   8  16
#     4  11  21  33  52  77 100 123 161 209 255 297
#     4   9  19  35  53  74 100 128 158 195 241 291
#     4  10  19  32  51  74 100 131 166 203 246 298
#     4   9  18  29  43  67  96 129 161 197 244 291
#     4  10  20  34  51  71  98 133 170 203 243 296
#     4  11  23  39  57  73  95 129 165 205 254 303
#     4   9  17  31  50  68  94 132 170 203 243 298
#
# _framework density 15.973516
#
# number of rings (size 3 to 8) (size 9 to 14) (size 15 to 20)
#    0.000    2.231    0.769    3.923    0.000    6.000 
#    0.000    1.538    0.000    2.769    0.000    0.000 
#    0.000    0.308    0.000    3.846    0.000    0.000 
#
# Total GULP energy -580168.736529 kJ/mol
# GULP energy per Si atom -5578.545544 kJ/mol
# Density = 1.593716 g / cm^3
# Si number density = 15.973516 Si / 1000 Ang^3
#
#
#
# Elastic Constant Matrix: (Units=GPa)
#
#
# Indices 1 2 3 4 5 6 
#
# 1 138.1174 74.0275 39.0482 0.0000 0.0000 0.0000
# 2 74.0275 138.1174 39.0482 0.0000 0.0000 0.0000
# 3 39.0482 39.0482 39.6081 0.0000 0.0000 0.0000
# 4 0.0000 0.0000 0.0000 23.3347 0.0000 0.0000
# 5 0.0000 0.0000 0.0000 0.0000 23.3347 0.0000
# 6 0.0000 0.0000 0.0000 0.0000 0.0000 18.7670
#
#
#
# Elastic Compliance Matrix: (Units=1/GPa)
#
#
# Indices 1 2 3 4 5 6 
#
# 1 0.011501 -0.004102 -0.007294 0.000000 0.000000 0.000000
# 2 -0.004102 0.011501 -0.007294 0.000000 0.000000 0.000000
# 3 -0.007294 -0.007294 0.039630 0.000000 0.000000 0.000000
# 4 0.000000 0.000000 0.000000 0.042855 0.000000 0.000000
# 5 0.000000 0.000000 0.000000 0.000000 0.042855 0.000000
# 6 0.000000 0.000000 0.000000 0.000000 0.000000 0.053285
#
#
# Mechanical properties :
#
#
# Convention : Reuss Voigt Hill
#
# Bulk Modulus (GPa) = 39.60348 68.89898 54.25123
# Shear Modulus (GPa) = 20.20812 24.00185 22.10499
#
# Velocity S-wave (km/s) = 3.56068 3.88055 3.72405
# Velocity P-wave (km/s) = 6.46155 7.95645 7.24765
#
# Compressibility (1/GPa) = 0.02525030
#
# Stress axis : x y z
#
# Youngs Moduli (GPa) = 86.94844 86.94844 25.23338
#
# Poissons Ratio (x) = 0.35666 0.18406
# Poissons Ratio (y) = 0.35666 0.18406
# Poissons Ratio (z) = 0.63424 0.63424
#
# Static dielectric constant tensor:
#      x y z
#    x 1.528300 0.000000 0.000000 
#    y 0.000000 1.528300 0.000000 
#    z 0.000000 0.000000 1.537020 
# 
# From -- ./inp_files/2541.got.cif
#   From: 2010.05.17/outbox.cif.g08.bks.cpg/sg131_2_cif.got.tgz:2541.got - 2010.05.20 12:21:01.
