data_PCOD9566496
_publ_section_title
;
Structure prediction by ZEFSAII (Michael W. Deem and Ramdas Pophale) SiO2 
 PCOD9566496
Probable space group: P 42/M M C
;
_chemical_formula_sum "Si O2"
_cell_formula_units_Z 80
_cell_length_a 23.746527
_cell_length_b 23.746527
_cell_length_c 7.965841
_cell_angle_alpha 90.000000
_cell_angle_beta 90.000000
_cell_angle_gamma 90.000000
_cell_volume 4491.918180
_symmetry_space_group_name_H-M "P 42/M M C"
_symmetry_group_IT_number 131
_symmetry_cell_setting 'tetragonal'
loop_
_space_group_symop_operation_xyz
x,y,z
-x,-y,z
-y,x,1/2+z
y,-x,1/2+z
-x,y,-z
x,-y,-z
y,x,1/2-z
-y,-x,1/2-z
-x,-y,-z
x,y,-z
y,-x,1/2-z
-y,x,1/2-z
x,-y,z
-x,y,z
-y,-x,1/2+z
y,x,1/2+z
loop_
_atom_site_type_symbol
_atom_site_label
_atom_site_fract_x
_atom_site_fract_y
_atom_site_fract_z
Si Si1 0.500000 0.589260 0.199015
Si Si2 0.286917 0.500000 0.294661
Si Si3 0.916701 0.562011 0.198256
Si Si4 0.688216 0.938857 0.297282
Si Si5 0.276011 0.184272 0.199146
Si Si6 0.401762 0.205720 0.795817
O O1 0.554017 0.554017 0.250000
O O2 0.500000 0.650709 0.273141
O O3 0.500000 0.593617 0.000000
O O4 0.286701 0.500000 0.500000
O O5 0.255847 0.557315 0.245089
O O6 0.933523 0.500000 0.266416
O O7 0.937269 0.622821 0.265148
O O8 0.850140 0.569232 0.223912
O O9 0.930445 0.561116 0.000000
O O10 0.685735 0.937320 0.500000
O O11 0.721118 0.882222 0.245863
O O12 0.712141 0.000000 0.246652
O O13 0.222883 0.222883 0.250000
O O14 0.336693 0.208240 0.261861
O O15 0.277616 0.186769 0.000000
O O16 0.401797 0.201388 0.000000
#
# Coordination Sequence:
#
# PCOD9566496 Si02
#       6
#     8   8  16  16  16  16
#     4  10  20  35  50  62  78 101 131 173 229 292
#     4   9  17  30  49  68  87 113 148 190 239 292
#     4   9  16  26  42  66  95 126 161 198 236 277
#     4   9  18  32  49  70  99 133 166 203 245 288
#     4  10  20  33  51  73  98 130 166 205 248 294
#     4   9  17  30  47  66  90 123 158 193 237 287
#
# _framework density 17.809763
#
# number of rings (size 3 to 8) (size 9 to 14) (size 15 to 20)
#    0.000    2.700    1.000    1.200    0.000    2.400 
#    0.000    4.000    0.000    0.000    0.000    5.600 
#    0.000    0.400    0.000    4.200    0.000    1.800 
#
# Total GULP energy -445469.207936 kJ/mol
# GULP energy per Si atom -5568.365099 kJ/mol
# Density = 1.776923 g / cm^3
# Si number density = 17.809763 Si / 1000 Ang^3
#
#
#
# Elastic Constant Matrix: (Units=GPa)
#
#
# Indices 1 2 3 4 5 6 
#
# 1 141.7883 80.4628 12.3721 0.0000 0.0000 0.0000
# 2 80.4628 141.7883 12.3721 0.0000 0.0000 0.0000
# 3 12.3721 12.3721 21.6702 0.0000 0.0000 0.0000
# 4 0.0000 0.0000 0.0000 12.3948 0.0000 0.0000
# 5 0.0000 0.0000 0.0000 0.0000 12.3948 0.0000
# 6 0.0000 0.0000 0.0000 0.0000 0.0000 -150.5298
#
#
#
# Elastic Compliance Matrix: (Units=1/GPa)
#
#
# Indices 1 2 3 4 5 6 
#
# 1 0.010556 -0.005751 -0.002743 0.000000 0.000000 0.000000
# 2 -0.005751 0.010556 -0.002743 0.000000 0.000000 0.000000
# 3 -0.002743 -0.002743 0.049279 0.000000 0.000000 0.000000
# 4 0.000000 0.000000 0.000000 0.080679 0.000000 0.000000
# 5 0.000000 0.000000 0.000000 0.000000 0.080679 0.000000
# 6 0.000000 0.000000 0.000000 0.000000 0.000000 -0.006643
#
#
# Mechanical properties :
#
#
# Convention : Reuss Voigt Hill
#
# Bulk Modulus (GPa) = 20.87011 57.29566 39.08289
# Shear Modulus (GPa) = 18.97163 -11.81207 3.57978
#
# Velocity S-wave (km/s) = 3.26734 -2.57813 1.41929
# Velocity P-wave (km/s) = 5.09684 4.83512 4.96771
#
# Compressibility (1/GPa) = 0.04791542
#
# Stress axis : x y z
#
# Youngs Moduli (GPa) = 94.73613 94.73613 20.29279
#
# Poissons Ratio (x) = 0.54481 0.05567
# Poissons Ratio (y) = 0.54481 0.05567
# Poissons Ratio (z) = 0.25988 0.25988
#
# Static dielectric constant tensor:
#      x y z
#    x 1.631980 0.000000 0.000000 
#    y 0.000000 1.631980 0.000000 
#    z 0.000000 0.000000 1.641540 
# 
# From -- ./inp_files/2128.got.cif
#   From: 2010.05.17/outbox.cif.g08.bks.cpg/sg131_2_cif.got.tgz:2128.got - 2010.05.20 12:21:01.
