data_PCOD9566634
_publ_section_title
;
Structure prediction by ZEFSAII (Michael W. Deem and Ramdas Pophale) SiO2 
 PCOD9566634
Probable space group: P 42/M M C
;
_chemical_formula_sum "Si O2"
_cell_formula_units_Z 104
_cell_length_a 14.208219
_cell_length_b 14.208219
_cell_length_c 26.629709
_cell_angle_alpha 90.000000
_cell_angle_beta 90.000000
_cell_angle_gamma 90.000000
_cell_volume 5375.832218
_symmetry_space_group_name_H-M "P 42/M M C"
_symmetry_group_IT_number 131
_symmetry_cell_setting 'tetragonal'
loop_
_space_group_symop_operation_xyz
x,y,z
-x,-y,z
-y,x,1/2+z
y,-x,1/2+z
-x,y,-z
x,-y,-z
y,x,1/2-z
-y,-x,1/2-z
-x,-y,-z
x,y,-z
y,-x,1/2-z
-y,x,1/2-z
x,-y,z
-x,y,z
-y,-x,1/2+z
y,x,1/2+z
loop_
_atom_site_type_symbol
_atom_site_label
_atom_site_fract_x
_atom_site_fract_y
_atom_site_fract_z
Si Si1 0.885748 0.391556 0.500000
Si Si2 0.261351 0.735429 0.307230
Si Si3 0.293138 0.886229 0.892555
Si Si4 0.386914 0.246321 0.555081
Si Si5 0.387345 0.607155 0.640325
Si Si6 0.885713 0.102441 0.442945
Si Si7 0.388050 0.110370 0.638425
O O1 0.855620 0.500000 0.500000
O O2 0.860865 0.346907 0.554844
O O3 0.000000 0.385932 0.500000
O O4 0.239785 0.760216 0.250000
O O5 0.174653 0.696500 0.341683
O O6 0.336970 0.651193 0.311875
O O7 0.317546 0.825451 0.329591
O O8 0.185650 0.862690 0.906493
O O9 0.305363 0.000000 0.884970
O O10 0.345364 0.255087 0.500000
O O11 0.500000 0.256745 0.551267
O O12 0.356696 0.327226 0.593619
O O13 0.370880 0.146427 0.581529
O O14 0.360856 0.500000 0.631476
O O15 0.500000 0.613297 0.644629
O O16 0.854725 0.120832 0.500000
O O17 0.000000 0.100243 0.444884
O O18 0.852010 0.000000 0.426980
O O19 0.500000 0.131121 0.649119
O O20 0.373741 0.000000 0.644577
#
# Coordination Sequence:
#
# PCOD9566634 Si02
#       7
#     8  16  16  16  16  16  16
#     4   9  18  36  61  85 114 153 197 249 305 362
#     4  11  24  39  57  83 117 151 194 253 303 353
#     4  10  20  37  59  82 113 156 197 237 295 359
#     4   8  14  27  50  81 116 150 182 218 268 334
#     4   9  19  37  59  82 109 145 189 235 289 350
#     4   8  13  25  50  81 108 137 177 224 273 328
#     4   9  19  38  61  82 110 152 197 239 287 344
#
# _framework density 19.345842999999999
#
# number of rings (size 3 to 8) (size 9 to 14) (size 15 to 20)
#    0.000    2.846    0.769    1.846    0.000    3.692 
#    5.538    3.846    0.000    1.846    0.000    1.077 
#    0.000    0.000    0.000    0.000    0.000    0.000 
#
# Total GULP energy -579141.914073 kJ/mol
# GULP energy per Si atom -5568.672251 kJ/mol
# Density = 1.930181 g / cm^3
# Si number density = 19.345843 Si / 1000 Ang^3
#
#
#
# Elastic Constant Matrix: (Units=GPa)
#
#
# Indices 1 2 3 4 5 6 
#
# 1 76.8877 31.7187 38.4488 0.0000 0.0000 0.0000
# 2 31.7187 76.8876 38.4485 0.0000 0.0000 0.0000
# 3 38.4488 38.4485 120.7415 0.0000 0.0000 0.0000
# 4 0.0000 0.0000 0.0000 9.9968 0.0000 0.0000
# 5 0.0000 0.0000 0.0000 0.0000 9.9968 0.0000
# 6 0.0000 0.0000 0.0000 0.0000 0.0000 13.3461
#
#
#
# Elastic Compliance Matrix: (Units=1/GPa)
#
#
# Indices 1 2 3 4 5 6 
#
# 1 0.017013 -0.005126 -0.003786 0.000000 0.000000 0.000000
# 2 -0.005126 0.017013 -0.003786 0.000000 0.000000 0.000000
# 3 -0.003786 -0.003786 0.010693 0.000000 0.000000 0.000000
# 4 0.000000 0.000000 0.000000 0.100032 0.000000 0.000000
# 5 0.000000 0.000000 0.000000 0.000000 0.100032 0.000000
# 6 0.000000 0.000000 0.000000 0.000000 0.000000 0.074928
#
#
# Mechanical properties :
#
#
# Convention : Reuss Voigt Hill
#
# Bulk Modulus (GPa) = 51.74206 54.63875 53.19040
# Shear Modulus (GPa) = 14.22281 17.72800 15.97540
#
# Velocity S-wave (km/s) = 2.71437 3.03045 2.87676
# Velocity P-wave (km/s) = 6.05208 6.36783 6.21196
#
# Compressibility (1/GPa) = 0.01932664
#
# Stress axis : x y z
#
# Youngs Moduli (GPa) = 58.77693 58.77703 93.51852
#
# Poissons Ratio (x) = 0.30127 0.35402
# Poissons Ratio (y) = 0.30127 0.35402
# Poissons Ratio (z) = 0.22250 0.22250
#
# Static dielectric constant tensor:
#      x y z
#    x 1.706090 0.000000 0.000000 
#    y 0.000000 1.706090 0.000000 
#    z 0.000000 0.000000 1.697760 
# 
# From -- ./inp_files/11297.got.cif
#   From: 2010.05.17/outbox.cif.g08.bks.cpg/sg131_6_cif.got.tgz:11297.got - 2010.05.20 12:21:01.
