data_PCOD9566903
_publ_section_title
;
Structure prediction by ZEFSAII (Michael W. Deem and Ramdas Pophale) SiO2 
 PCOD9566903
Probable space group: P 42/M M C
;
_chemical_formula_sum "Si O2"
_cell_formula_units_Z 48
_cell_length_a 7.578194
_cell_length_b 7.578194
_cell_length_c 40.317877
_cell_angle_alpha 90.000000
_cell_angle_beta 90.000000
_cell_angle_gamma 90.000000
_cell_volume 2315.416338
_symmetry_space_group_name_H-M "P 42/M M C"
_symmetry_group_IT_number 131
_symmetry_cell_setting 'tetragonal'
loop_
_space_group_symop_operation_xyz
x,y,z
-x,-y,z
-y,x,1/2+z
y,-x,1/2+z
-x,y,-z
x,-y,-z
y,x,1/2-z
-y,-x,1/2-z
-x,-y,-z
x,y,-z
y,-x,1/2-z
-y,x,1/2-z
x,-y,z
-x,y,z
-y,-x,1/2+z
y,x,1/2+z
loop_
_atom_site_type_symbol
_atom_site_label
_atom_site_fract_x
_atom_site_fract_y
_atom_site_fract_z
Si Si1 0.297917 0.209999 0.000000
Si Si2 0.700020 0.290598 0.927579
Si Si3 0.000000 0.717287 0.878431
Si Si4 0.000000 0.713781 0.197250
Si Si5 0.709054 0.709054 0.750000
O O1 0.222444 0.264411 0.964550
O O2 0.500000 0.281070 0.000000
O O3 0.302996 0.000000 0.000000
O O4 0.686553 0.500000 0.922731
O O5 0.500000 0.217016 0.926736
O O6 0.829154 0.223332 0.899168
O O7 0.000000 0.776927 0.840458
O O8 0.000000 0.500000 0.878488
O O9 0.828128 0.762695 0.218684
O O10 0.000000 0.500000 0.195602
O O11 0.736041 0.500000 0.743776
#
# Coordination Sequence:
#
# PCOD9566903 Si02
#       5
#     8  16   8   8   8
#     4   9  17  30  49  68  93 133 172 211 255 296
#     4   9  17  30  49  72  98 130 169 210 253 301
#     4   9  18  31  49  76 103 128 162 208 255 300
#     4   9  18  33  54  80 108 134 170 213 256 317
#     4   9  18  33  56  82 106 137 174 213 260 314
#
# _framework density 20.730613999999999
#
# number of rings (size 3 to 8) (size 9 to 14) (size 15 to 20)
#    0.000    3.000    0.000    0.500    0.000    4.333 
#    0.000   10.833    7.333    0.000    0.000    0.000 
#    0.000    0.000    0.000    0.000    0.000    0.000 
#
# Total GULP energy -267714.896328 kJ/mol
# GULP energy per Si atom -5577.393673 kJ/mol
# Density = 2.068343 g / cm^3
# Si number density = 20.730614 Si / 1000 Ang^3
#
#
#
# Elastic Constant Matrix: (Units=GPa)
#
#
# Indices 1 2 3 4 5 6 
#
# 1 76.4998 26.8182 61.5952 0.0000 0.0000 0.0000
# 2 26.8182 76.4998 61.5952 0.0000 0.0000 0.0000
# 3 61.5952 61.5952 240.7406 0.0000 0.0000 0.0000
# 4 0.0000 0.0000 0.0000 105.8051 0.0000 0.0000
# 5 0.0000 0.0000 0.0000 0.0000 105.8051 0.0000
# 6 0.0000 0.0000 0.0000 0.0000 0.0000 0.8704
#
#
#
# Elastic Compliance Matrix: (Units=1/GPa)
#
#
# Indices 1 2 3 4 5 6 
#
# 1 0.017028 -0.003100 -0.003564 0.000000 0.000000 0.000000
# 2 -0.003100 0.017028 -0.003564 0.000000 0.000000 0.000000
# 3 -0.003564 -0.003564 0.005977 0.000000 0.000000 0.000000
# 4 0.000000 0.000000 0.000000 0.009451 0.000000 0.000000
# 5 0.000000 0.000000 0.000000 0.000000 0.009451 0.000000
# 6 0.000000 0.000000 0.000000 0.000000 0.000000 1.148882
#
#
# Mechanical properties :
#
#
# Convention : Reuss Voigt Hill
#
# Bulk Modulus (GPa) = 51.07554 77.08417 64.07985
# Shear Modulus (GPa) = 4.04924 58.74491 31.39707
#
# Velocity S-wave (km/s) = 1.39911 5.32905 3.89591
# Velocity P-wave (km/s) = 5.22506 8.66773 7.15649
#
# Compressibility (1/GPa) = 0.01957884
#
# Stress axis : x y z
#
# Youngs Moduli (GPa) = 58.72685 58.72685 167.29807
#
# Poissons Ratio (x) = 0.18206 0.59617
# Poissons Ratio (y) = 0.18206 0.59617
# Poissons Ratio (z) = 0.20927 0.20927
#
# Static dielectric constant tensor:
#      x y z
#    x 1.761520 0.000000 0.000000 
#    y 0.000000 1.761520 0.000000 
#    z 0.000000 0.000000 1.714060 
# 
# From -- ./inp_files/13027.got.cif
#   From: 2010.05.17/outbox.cif.g08.bks.cpg/sg131_7_cif.got.tgz:13027.got - 2010.05.20 12:21:01.
