data_PCOD9566191
_publ_section_title
;
Structure prediction by ZEFSAII (Michael W. Deem and Ramdas Pophale) SiO2 
 PCOD9566191
Probable space group: P 42/M M C
;
_chemical_formula_sum "Si O2"
_cell_formula_units_Z 56
_cell_length_a 13.937635
_cell_length_b 13.937635
_cell_length_c 16.226253
_cell_angle_alpha 90.000000
_cell_angle_beta 90.000000
_cell_angle_gamma 90.000000
_cell_volume 3152.074091
_symmetry_space_group_name_H-M "P 42/M M C"
_symmetry_group_IT_number 131
_symmetry_cell_setting 'tetragonal'
loop_
_space_group_symop_operation_xyz
x,y,z
-x,-y,z
-y,x,1/2+z
y,-x,1/2+z
-x,y,-z
x,-y,-z
y,x,1/2-z
-y,-x,1/2-z
-x,-y,-z
x,y,-z
y,-x,1/2-z
-y,x,1/2-z
x,-y,z
-x,y,z
-y,-x,1/2+z
y,x,1/2+z
loop_
_atom_site_type_symbol
_atom_site_label
_atom_site_fract_x
_atom_site_fract_y
_atom_site_fract_z
Si Si1 0.604583 0.000000 0.149208
Si Si2 0.212858 0.605973 0.595009
Si Si3 0.886000 0.000000 0.849948
Si Si4 0.247421 0.000000 0.703344
Si Si5 0.791065 0.181731 0.597704
O O1 0.610760 0.096991 0.097512
O O2 0.500000 0.000000 0.189051
O O3 0.678625 0.000000 0.222750
O O4 0.244544 0.604963 0.500000
O O5 0.239312 0.500000 0.630880
O O6 0.239276 0.711790 0.628917
O O7 0.853332 0.000000 0.753682
O O8 0.838338 0.095449 0.888382
O O9 0.000000 0.000000 0.868029
O O10 0.255660 0.904951 0.648601
O O11 0.771770 0.175615 0.500000
#
# Coordination Sequence:
#
# PCOD9566191 Si02
#       5
#     8  16   8   8  16
#     4  10  19  30  46  66  90 123 164 202 240 287
#     4   9  17  30  47  66  89 119 161 210 254 290
#     4  12  23  30  42  62  95 131 164 198 233 269
#     4  12  23  32  46  68 101 132 166 195 241 289
#     4  11  22  32  45  65  92 129 167 200 238 287
#
# _framework density 17.766081
#
# number of rings (size 3 to 8) (size 9 to 14) (size 15 to 20)
#    0.000    1.429    4.286    2.143    2.000    4.571 
#    0.000    0.000    0.000    1.714    0.000    0.000 
#    0.000    1.143    0.000   13.429    0.000   18.571 
#
# Total GULP energy -311797.115566 kJ/mol
# GULP energy per Si atom -5567.805635 kJ/mol
# Density = 1.772564 g / cm^3
# Si number density = 17.766081 Si / 1000 Ang^3
#
#
#
# Elastic Constant Matrix: (Units=GPa)
#
#
# Indices 1 2 3 4 5 6 
#
# 1 108.9761 9.5074 19.9427 0.0000 0.0000 0.0000
# 2 9.5074 108.9761 19.9427 0.0000 0.0000 0.0000
# 3 19.9427 19.9427 58.3152 0.0000 0.0000 0.0000
# 4 0.0000 0.0000 0.0000 10.6233 0.0000 0.0000
# 5 0.0000 0.0000 0.0000 0.0000 10.6233 0.0000
# 6 0.0000 0.0000 0.0000 0.0000 0.0000 1.7740
#
#
#
# Elastic Compliance Matrix: (Units=1/GPa)
#
#
# Indices 1 2 3 4 5 6 
#
# 1 0.009796 -0.000258 -0.003262 0.000000 0.000000 0.000000
# 2 -0.000258 0.009796 -0.003262 0.000000 0.000000 0.000000
# 3 -0.003262 -0.003262 0.019379 0.000000 0.000000 0.000000
# 4 0.000000 0.000000 0.000000 0.094133 0.000000 0.000000
# 5 0.000000 0.000000 0.000000 0.000000 0.094133 0.000000
# 6 0.000000 0.000000 0.000000 0.000000 0.000000 0.563689
#
#
# Mechanical properties :
#
#
# Convention : Reuss Voigt Hill
#
# Bulk Modulus (GPa) = 39.35782 41.67255 40.51519
# Shear Modulus (GPa) = 6.15038 19.72908 12.93973
#
# Velocity S-wave (km/s) = 1.86263 3.33602 2.70170
# Velocity P-wave (km/s) = 5.17951 6.19240 5.70847
#
# Compressibility (1/GPa) = 0.02540791
#
# Stress axis : x y z
#
# Youngs Moduli (GPa) = 102.08535 102.08535 51.60184
#
# Poissons Ratio (x) = 0.02631 0.16832
# Poissons Ratio (y) = 0.02631 0.16832
# Poissons Ratio (z) = 0.33298 0.33298
#
# Static dielectric constant tensor:
#      x y z
#    x 1.661730 0.000000 0.000000 
#    y 0.000000 1.661730 0.000000 
#    z 0.000000 0.000000 1.606020 
# 
# From -- ./inp_files/5372.got.cif
#   From: 2010.05.17/outbox.cif.g08.bks.cpg/sg131_3_cif.got.tgz:5372.got - 2010.05.20 12:21:01.
