data_PCOD9566833
_publ_section_title
;
Structure prediction by ZEFSAII (Michael W. Deem and Ramdas Pophale) SiO2 
 PCOD9566833
Probable space group: P 42/M M C
;
_chemical_formula_sum "Si O2"
_cell_formula_units_Z 64
_cell_length_a 13.974879
_cell_length_b 13.974879
_cell_length_c 17.465548
_cell_angle_alpha 90.000000
_cell_angle_beta 90.000000
_cell_angle_gamma 90.000000
_cell_volume 3410.973373
_symmetry_space_group_name_H-M "P 42/M M C"
_symmetry_group_IT_number 131
_symmetry_cell_setting 'tetragonal'
loop_
_space_group_symop_operation_xyz
x,y,z
-x,-y,z
-y,x,1/2+z
y,-x,1/2+z
-x,y,-z
x,-y,-z
y,x,1/2-z
-y,-x,1/2-z
-x,-y,-z
x,y,-z
y,-x,1/2-z
-y,x,1/2-z
x,-y,z
-x,y,z
-y,-x,1/2+z
y,x,1/2+z
loop_
_atom_site_type_symbol
_atom_site_label
_atom_site_fract_x
_atom_site_fract_y
_atom_site_fract_z
Si Si1 0.798100 0.709553 0.912183
Si Si2 0.112337 0.113979 0.660083
Si Si3 0.894797 0.385664 0.769422
Si Si4 0.611728 0.296226 0.822080
O O1 0.824677 0.819653 0.893990
O O2 0.864443 0.653894 0.851769
O O3 0.688877 0.686224 0.888222
O O4 0.816141 0.686517 0.000000
O O5 0.134229 0.134229 0.750000
O O6 0.000000 0.131151 0.647865
O O7 0.129070 0.000000 0.648428
O O8 0.898210 0.500000 0.773921
O O9 0.809822 0.364392 0.710521
O O10 0.000000 0.349321 0.747295
O O11 0.634707 0.365294 0.750000
O O12 0.500000 0.301688 0.842917
#
# Coordination Sequence:
#
# PCOD9566833 Si02
#       4
#    16  16  16  16
#     4  11  22  32  47  75 108 137 162 196 249 308
#     4   9  18  33  52  72  97 135 181 220 249 283
#     4   9  18  34  56  77  96 124 164 208 250 292
#     4   9  19  36  56  76  97 126 169 214 250 292
#
# _framework density 18.762972999999999
#
# number of rings (size 3 to 8) (size 9 to 14) (size 15 to 20)
#    0.000    2.500    0.000    3.750    0.000    6.750 
#    0.000    2.500    0.000    0.000    0.000   12.250 
#    0.000    0.000    0.000    0.000    0.000    0.000 
#
# Total GULP energy -357158.002334 kJ/mol
# GULP energy per Si atom -5580.593786 kJ/mol
# Density = 1.872027 g / cm^3
# Si number density = 18.762973 Si / 1000 Ang^3
#
#
#
# Elastic Constant Matrix: (Units=GPa)
#
#
# Indices 1 2 3 4 5 6 
#
# 1 49.3619 -7.0454 -15.4759 0.0000 0.0000 0.0000
# 2 -7.0454 49.3599 -15.4751 0.0000 0.0000 0.0000
# 3 -15.4759 -15.4751 22.4509 0.0000 0.0000 0.0000
# 4 0.0000 0.0000 0.0000 10.2551 0.0000 0.0000
# 5 0.0000 0.0000 0.0000 0.0000 10.2553 0.0000
# 6 0.0000 0.0000 0.0000 0.0000 0.0000 23.1560
#
#
#
# Elastic Compliance Matrix: (Units=1/GPa)
#
#
# Indices 1 2 3 4 5 6 
#
# 1 0.032695 0.014967 0.032854 0.000000 0.000000 0.000000
# 2 0.014967 0.032696 0.032854 0.000000 0.000000 0.000000
# 3 0.032854 0.032854 0.089834 0.000000 0.000000 0.000000
# 4 0.000000 0.000000 0.000000 0.097512 0.000000 0.000000
# 5 0.000000 0.000000 0.000000 0.000000 0.097510 0.000000
# 6 0.000000 0.000000 0.000000 0.000000 0.000000 0.043185
#
#
# Mechanical properties :
#
#
# Convention : Reuss Voigt Hill
#
# Bulk Modulus (GPa) = 3.15881 5.01998 4.08939
# Shear Modulus (GPa) = 14.81006 19.34457 17.07732
#
# Velocity S-wave (km/s) = 2.81254 3.21440 3.02016
# Velocity P-wave (km/s) = 3.49776 4.05682 3.78762
#
# Compressibility (1/GPa) = 0.31657519
#
# Stress axis : x y z
#
# Youngs Moduli (GPa) = 30.58563 30.58480 11.13161
#
# Poissons Ratio (x) = -0.45776 -0.36572
# Poissons Ratio (y) = -0.45778 -0.36572
# Poissons Ratio (z) = -1.00486 -1.00483
#
# Static dielectric constant tensor:
#      x y z
#    x 1.685640 0.000000 0.000000 
#    y 0.000000 1.685640 0.000000 
#    z 0.000000 0.000000 1.608860 
# 
# From -- ./inp_files/5437.got.cif
#   From: 2010.05.17/outbox.cif.g08.bks.cpg/sg131_3_cif.got.tgz:5437.got - 2010.05.20 12:21:01.
