data_PCOD9566492
_publ_section_title
;
Structure prediction by ZEFSAII (Michael W. Deem and Ramdas Pophale) SiO2 
 PCOD9566492
Probable space group: P 42/M M C
;
_chemical_formula_sum "Si O2"
_cell_formula_units_Z 120
_cell_length_a 18.713256
_cell_length_b 18.713256
_cell_length_c 20.057890
_cell_angle_alpha 90.000000
_cell_angle_beta 90.000000
_cell_angle_gamma 90.000000
_cell_volume 7023.991267
_symmetry_space_group_name_H-M "P 42/M M C"
_symmetry_group_IT_number 131
_symmetry_cell_setting 'tetragonal'
loop_
_space_group_symop_operation_xyz
x,y,z
-x,-y,z
-y,x,1/2+z
y,-x,1/2+z
-x,y,-z
x,-y,-z
y,x,1/2-z
-y,-x,1/2-z
-x,-y,-z
x,y,-z
y,-x,1/2-z
-y,x,1/2-z
x,-y,z
-x,y,z
-y,-x,1/2+z
y,x,1/2+z
loop_
_atom_site_type_symbol
_atom_site_label
_atom_site_fract_x
_atom_site_fract_y
_atom_site_fract_z
Si Si1 0.850898 0.820605 0.880413
Si Si2 0.754641 0.082967 0.804519
Si Si3 0.920670 0.643001 0.423051
Si Si4 0.771326 0.423009 0.580469
Si Si5 0.275807 0.711870 0.920536
Si Si6 0.415374 0.177568 0.420604
Si Si7 0.315897 0.918257 0.329118
Si Si8 0.085270 0.913382 0.500000
O O1 0.823026 0.868821 0.819551
O O2 0.783248 0.769715 0.898521
O O3 0.910392 0.761163 0.864827
O O4 0.878580 0.874081 0.937022
O O5 0.708879 0.083663 0.872653
O O6 0.703472 0.110219 0.744899
O O7 0.772907 0.000000 0.789732
O O8 0.912525 0.667422 0.500000
O O9 0.855580 0.590351 0.408871
O O10 0.000000 0.610942 0.416422
O O11 0.761384 0.424586 0.500000
O O12 0.749203 0.500000 0.607263
O O13 0.730855 0.353494 0.607264
O O14 0.248469 0.631832 0.907479
O O15 0.279559 0.719571 0.000000
O O16 0.405806 0.159839 0.500000
O O17 0.500000 0.183695 0.408575
O O18 0.375810 0.121351 0.372473
O O19 0.337439 0.000000 0.322270
O O20 0.000000 0.897400 0.500000
O O21 0.092916 0.000000 0.500000
#
# Coordination Sequence:
#
# PCOD9566492 Si02
#       8
#    16  16  16  16  16  16  16   8
#     4  11  19  34  54  73  99 142 178 225 272 321
#     4  10  20  33  50  75 103 138 181 219 263 322
#     4   9  17  28  45  69 101 138 178 219 256 304
#     4   9  16  26  42  68 103 138 172 212 256 302
#     4   9  16  29  50  78 103 130 170 214 261 306
#     4   9  19  36  59  83 104 133 173 218 273 338
#     4  10  22  36  52  76 106 136 172 221 274 332
#     4  11  24  36  50  80 112 138 182 243 296 332
#
# _framework density 17.084303999999999
#
# number of rings (size 3 to 8) (size 9 to 14) (size 15 to 20)
#    0.000    2.333    2.000    1.200    1.867    0.800 
#    0.000    2.667    0.000    2.800    0.000    8.400 
#    0.000    0.000    0.000    0.000    0.000    0.000 
#
# Total GULP energy -668083.522321 kJ/mol
# GULP energy per Si atom -5567.362686 kJ/mol
# Density = 1.704542 g / cm^3
# Si number density = 17.084304 Si / 1000 Ang^3
#
#
#
# Elastic Constant Matrix: (Units=GPa)
#
#
# Indices 1 2 3 4 5 6 
#
# 1 93.0374 39.3543 37.5760 0.0000 0.0000 0.0000
# 2 39.3543 93.0374 37.5760 0.0000 0.0000 0.0000
# 3 37.5760 37.5760 63.1927 0.0000 0.0000 0.0000
# 4 0.0000 0.0000 0.0000 16.1421 0.0000 0.0000
# 5 0.0000 0.0000 0.0000 0.0000 16.1421 0.0000
# 6 0.0000 0.0000 0.0000 0.0000 0.0000 10.4663
#
#
#
# Elastic Compliance Matrix: (Units=1/GPa)
#
#
# Indices 1 2 3 4 5 6 
#
# 1 0.015015 -0.003613 -0.006780 0.000000 0.000000 0.000000
# 2 -0.003613 0.015015 -0.006780 0.000000 0.000000 0.000000
# 3 -0.006780 -0.006780 0.023888 0.000000 0.000000 0.000000
# 4 0.000000 0.000000 0.000000 0.061950 0.000000 0.000000
# 5 0.000000 0.000000 0.000000 0.000000 0.061950 0.000000
# 6 0.000000 0.000000 0.000000 0.000000 0.000000 0.095545
#
#
# Mechanical properties :
#
#
# Convention : Reuss Voigt Hill
#
# Bulk Modulus (GPa) = 51.09356 53.14223 52.11789
# Shear Modulus (GPa) = 15.91185 17.53418 16.72302
#
# Velocity S-wave (km/s) = 3.05515 3.20712 3.13206
# Velocity P-wave (km/s) = 6.51283 6.69982 6.60698
#
# Compressibility (1/GPa) = 0.01957194
#
# Stress axis : x y z
#
# Youngs Moduli (GPa) = 66.60057 66.60057 41.86269
#
# Poissons Ratio (x) = 0.24062 0.28382
# Poissons Ratio (y) = 0.24062 0.28382
# Poissons Ratio (z) = 0.45154 0.45154
#
# Static dielectric constant tensor:
#      x y z
#    x 1.596130 0.000000 0.000000 
#    y 0.000000 1.596130 0.000000 
#    z 0.000000 0.000000 1.597640 
# 
# From -- ./inp_files/10115.got.cif
#   From: 2010.05.17/outbox.cif.g08.bks.cpg/sg131_6_cif.got.tgz:10115.got - 2010.05.20 12:21:01.
