data_PCOD9566179
_publ_section_title
;
Structure prediction by ZEFSAII (Michael W. Deem and Ramdas Pophale) SiO2 
 PCOD9566179
Probable space group: P 42/M M C
;
_chemical_formula_sum "Si O2"
_cell_formula_units_Z 72
_cell_length_a 26.497560
_cell_length_b 26.497560
_cell_length_c 8.846017
_cell_angle_alpha 90.000000
_cell_angle_beta 90.000000
_cell_angle_gamma 90.000000
_cell_volume 6210.971524
_symmetry_space_group_name_H-M "P 42/M M C"
_symmetry_group_IT_number 131
_symmetry_cell_setting 'tetragonal'
loop_
_space_group_symop_operation_xyz
x,y,z
-x,-y,z
-y,x,1/2+z
y,-x,1/2+z
-x,y,-z
x,-y,-z
y,x,1/2-z
-y,-x,1/2-z
-x,-y,-z
x,y,-z
y,-x,1/2-z
-y,x,1/2-z
x,-y,z
-x,y,z
-y,-x,1/2+z
y,x,1/2+z
loop_
_atom_site_type_symbol
_atom_site_label
_atom_site_fract_x
_atom_site_fract_y
_atom_site_fract_z
Si Si1 0.294301 0.630724 0.820883
Si Si2 0.441598 0.624650 0.175419
Si Si3 0.103667 0.560856 0.171679
Si Si4 0.000000 0.438391 0.675086
Si Si5 0.789250 0.440858 0.319399
O O1 0.317339 0.682662 0.750000
O O2 0.336491 0.589387 0.776510
O O3 0.245079 0.603069 0.752736
O O4 0.289390 0.636647 0.000000
O O5 0.429009 0.570992 0.250000
O O6 0.500000 0.636619 0.180130
O O7 0.425278 0.627399 0.000000
O O8 0.099451 0.500000 0.164522
O O9 0.051183 0.578961 0.243361
O O10 0.153119 0.570030 0.271684
O O11 0.110509 0.579258 0.000000
O O12 0.000000 0.500000 0.679007
O O13 0.000000 0.423652 0.500000
O O14 0.782971 0.439734 0.500000
O O15 0.777851 0.500000 0.271587
#
# Coordination Sequence:
#
# PCOD9566179 Si02
#       5
#    16  16  16   8  16
#     4  11  21  32  45  57  69  85 105 130 161 196
#     4  10  20  32  44  56  68  81  97 118 147 185
#     4   9  16  25  37  54  74  95 118 140 161 187
#     4   9  15  23  35  51  73  99 121 139 161 187
#     4  10  19  30  43  58  75  92 111 136 165 198
#
# _framework density 11.59239
#
# number of rings (size 3 to 8) (size 9 to 14) (size 15 to 20)
#    0.000    2.111    0.000    6.333    0.000   10.000 
#    0.000    1.111    0.000    0.000    0.000    0.000 
#    0.000    0.000    0.000    0.000    0.000    0.000 
#
# Total GULP energy -400833.635991 kJ/mol
# GULP energy per Si atom -5567.133833 kJ/mol
# Density = 1.156601 g / cm^3
# Si number density = 11.592390 Si / 1000 Ang^3
#
#
#
# Elastic Constant Matrix: (Units=GPa)
#
#
# Indices 1 2 3 4 5 6 
#
# 1 50.8000 25.3750 24.7494 0.0000 0.0000 0.0000
# 2 25.3750 50.8017 24.7504 0.0000 0.0000 0.0000
# 3 24.7494 24.7504 76.8773 0.0000 0.0000 0.0000
# 4 0.0000 0.0000 0.0000 15.1036 0.0000 0.0000
# 5 0.0000 0.0000 0.0000 0.0000 15.1038 0.0000
# 6 0.0000 0.0000 0.0000 0.0000 0.0000 3.5344
#
#
#
# Elastic Compliance Matrix: (Units=1/GPa)
#
#
# Indices 1 2 3 4 5 6 
#
# 1 0.027966 -0.011365 -0.005344 0.000000 0.000000 0.000000
# 2 -0.011365 0.027965 -0.005344 0.000000 0.000000 0.000000
# 3 -0.005344 -0.005344 0.016449 0.000000 0.000000 0.000000
# 4 0.000000 0.000000 0.000000 0.066209 0.000000 0.000000
# 5 0.000000 0.000000 0.000000 0.000000 0.066209 0.000000
# 6 0.000000 0.000000 0.000000 0.000000 0.000000 0.282934
#
#
# Mechanical properties :
#
#
# Convention : Reuss Voigt Hill
#
# Bulk Modulus (GPa) = 35.37041 36.46984 35.92013
# Shear Modulus (GPa) = 9.23767 13.65530 11.44649
#
# Velocity S-wave (km/s) = 2.82596 3.43586 3.14572
# Velocity P-wave (km/s) = 6.42075 6.87522 6.65187
#
# Compressibility (1/GPa) = 0.02827222
#
# Stress axis : x y z
#
# Youngs Moduli (GPa) = 35.75833 35.75921 60.79461
#
# Poissons Ratio (x) = 0.40640 0.32490
# Poissons Ratio (y) = 0.40639 0.32491
# Poissons Ratio (z) = 0.19110 0.19111
#
# Static dielectric constant tensor:
#      x y z
#    x 1.385300 0.000000 0.000000 
#    y 0.000000 1.385300 0.000000 
#    z 0.000000 0.000000 1.400100 
# 
# From -- ./inp_files/1968.got.cif
#   From: 2010.05.17/outbox.cif.g08.bks.cpg/sg131_1_cif.got.tgz:1968.got - 2010.05.20 12:21:01.
