data_PCOD9566810
_publ_section_title
;
Structure prediction by ZEFSAII (Michael W. Deem and Ramdas Pophale) SiO2 
 PCOD9566810
Probable space group: P 42/M M C
;
_chemical_formula_sum "Si O2"
_cell_formula_units_Z 96
_cell_length_a 24.764051
_cell_length_b 24.764051
_cell_length_c 8.688474
_cell_angle_alpha 90.000000
_cell_angle_beta 90.000000
_cell_angle_gamma 90.000000
_cell_volume 5328.278117
_symmetry_space_group_name_H-M "P 42/M M C"
_symmetry_group_IT_number 131
_symmetry_cell_setting 'tetragonal'
loop_
_space_group_symop_operation_xyz
x,y,z
-x,-y,z
-y,x,1/2+z
y,-x,1/2+z
-x,y,-z
x,-y,-z
y,x,1/2-z
-y,-x,1/2-z
-x,-y,-z
x,y,-z
y,-x,1/2-z
-y,x,1/2-z
x,-y,z
-x,y,z
-y,-x,1/2+z
y,x,1/2+z
loop_
_atom_site_type_symbol
_atom_site_label
_atom_site_fract_x
_atom_site_fract_y
_atom_site_fract_z
Si Si1 0.358595 0.861028 0.823132
Si Si2 0.560924 0.645454 0.185427
Si Si3 0.561266 0.770648 0.187699
Si Si4 0.270639 0.938659 0.314813
Si Si5 0.938956 0.854323 0.814476
Si Si6 0.063611 0.436145 0.828288
O O1 0.389238 0.808030 0.757949
O O2 0.308212 0.890344 0.743507
O O3 0.405657 0.905290 0.803793
O O4 0.344634 0.850835 0.000000
O O5 0.605581 0.605581 0.250000
O O6 0.500000 0.629895 0.233884
O O7 0.569123 0.708101 0.230701
O O8 0.562539 0.643936 0.000000
O O9 0.500000 0.787151 0.236893
O O10 0.561118 0.773822 0.000000
O O11 0.272803 0.939173 0.500000
O O12 0.208218 0.930532 0.268134
O O13 0.287042 0.000000 0.264211
O O14 0.894460 0.894460 0.750000
O O15 0.000000 0.869721 0.766691
O O16 0.937215 0.855676 0.000000
O O17 0.071786 0.500000 0.819509
O O18 0.000000 0.425807 0.819663
O O19 0.081733 0.417760 0.000000
#
# Coordination Sequence:
#
# PCOD9566810 Si02
#       6
#    16  16  16  16  16  16
#     4  11  20  29  47  73  96 123 167 217 255 289
#     4   9  18  34  55  76 100 130 160 192 236 291
#     4   8  16  32  50  68  96 133 165 197 245 297
#     4   9  19  36  53  69  98 139 174 204 245 299
#     4   9  19  36  57  80 105 134 166 200 243 296
#     4   9  18  31  44  60  88 126 163 202 254 311
#
# _framework density 18.017078000000001
#
# number of rings (size 3 to 8) (size 9 to 14) (size 15 to 20)
#    0.000    2.833    0.000    4.000    0.000    5.333 
#    0.000    6.667    0.000    6.000    0.000    0.000 
#    0.000    0.000    0.000    0.000    0.000    0.000 
#
# Total GULP energy -534775.256808 kJ/mol
# GULP energy per Si atom -5570.575592 kJ/mol
# Density = 1.797607 g / cm^3
# Si number density = 18.017078 Si / 1000 Ang^3
#
#
#
# Elastic Constant Matrix: (Units=GPa)
#
#
# Indices 1 2 3 4 5 6 
#
# 1 115.8643 89.5909 20.9266 0.0000 0.0000 0.0000
# 2 89.5909 115.8643 20.9266 0.0000 0.0000 0.0000
# 3 20.9266 20.9266 9.6962 0.0000 0.0000 0.0000
# 4 0.0000 0.0000 0.0000 37.9726 0.0000 0.0000
# 5 0.0000 0.0000 0.0000 0.0000 37.9726 0.0000
# 6 0.0000 0.0000 0.0000 0.0000 0.0000 39.0320
#
#
#
# Elastic Compliance Matrix: (Units=1/GPa)
#
#
# Indices 1 2 3 4 5 6 
#
# 1 0.023374 -0.014688 -0.018747 0.000000 0.000000 0.000000
# 2 -0.014688 0.023374 -0.018747 0.000000 0.000000 0.000000
# 3 -0.018747 -0.018747 0.184052 0.000000 0.000000 0.000000
# 4 0.000000 0.000000 0.000000 0.026335 0.000000 0.000000
# 5 0.000000 0.000000 0.000000 0.000000 0.026335 0.000000
# 6 0.000000 0.000000 0.000000 0.000000 0.000000 0.025620
#
#
# Mechanical properties :
#
#
# Convention : Reuss Voigt Hill
#
# Bulk Modulus (GPa) = 7.90902 56.03479 31.97190
# Shear Modulus (GPa) = 10.97461 30.32749 20.65105
#
# Velocity S-wave (km/s) = 2.47072 4.10721 3.38922
# Velocity P-wave (km/s) = 3.54098 7.32535 5.75323
#
# Compressibility (1/GPa) = 0.12643796
#
# Stress axis : x y z
#
# Youngs Moduli (GPa) = 42.78304 42.78304 5.43324
#
# Poissons Ratio (x) = 0.62838 0.10185
# Poissons Ratio (y) = 0.62838 0.10185
# Poissons Ratio (z) = 0.80204 0.80204
#
# Static dielectric constant tensor:
#      x y z
#    x 1.620460 0.000000 0.000000 
#    y 0.000000 1.620460 0.000000 
#    z 0.000000 0.000000 1.641400 
# 
# From -- ./inp_files/2211.got.cif
#   From: 2010.05.17/outbox.cif.g08.bks.cpg/sg131_2_cif.got.tgz:2211.got - 2010.05.20 12:21:01.
