data_PCOD9566988
_publ_section_title
;
Structure prediction by ZEFSAII (Michael W. Deem and Ramdas Pophale) SiO2 
 PCOD9566988
Probable space group: P 42/M C M
;
_chemical_formula_sum "Si O2"
_cell_formula_units_Z 96
_cell_length_a 17.261215
_cell_length_b 17.261215
_cell_length_c 23.024643
_cell_angle_alpha 90.000000
_cell_angle_beta 90.000000
_cell_angle_gamma 90.000000
_cell_volume 6860.181866
_symmetry_space_group_name_H-M "P 42/M C M"
_symmetry_group_IT_number 132
_symmetry_cell_setting 'tetragonal'
loop_
_space_group_symop_operation_xyz
x,y,z
-y,x,1/2+z
-x,-y,z
y,-x,1/2+z
x,-y,1/2-z
-x,y,1/2-z
y,x,-z
-y,-x,-z
-x,-y,-z
y,-x,1/2-z
x,y,-z
-y,x,1/2-z
-x,y,1/2+z
x,-y,1/2+z
-y,-x,z
y,x,z
loop_
_atom_site_type_symbol
_atom_site_label
_atom_site_fract_x
_atom_site_fract_y
_atom_site_fract_z
Si Si1 0.281093 0.845397 0.371236
Si Si2 0.763886 0.885677 0.622514
Si Si3 0.570148 0.892406 0.069603
Si Si4 0.074517 0.600518 0.069224
Si Si5 0.163428 0.038145 0.069056
Si Si6 0.784008 0.091149 0.255668
O O1 0.236061 0.763940 0.369084
O O2 0.367608 0.842780 0.395345
O O3 0.230847 0.900981 0.413895
O O4 0.273035 0.885119 0.307883
O O5 0.810065 0.810065 0.602003
O O6 0.678913 0.895316 0.596904
O O7 0.757542 0.882677 0.692078
O O8 0.815990 0.960083 0.603509
O O9 0.480113 0.884967 0.086932
O O10 0.591808 0.982613 0.080750
O O11 0.576622 0.879748 0.000000
O O12 0.082333 0.606236 0.000000
O O13 0.082673 0.082673 0.082983
O O14 0.164892 0.022967 0.000000
O O15 0.863705 0.136296 0.269490
O O16 0.795091 0.000000 0.250000
#
# Coordination Sequence:
#
# PCOD9566988 Si02
#       6
#    16  16  16  16  16  16
#     4  10  18  29  45  64  86 109 139 181 222 256
#     4  11  21  31  44  60  85 117 149 182 214 252
#     4   9  16  28  47  65  84 109 137 175 219 267
#     4   9  17  29  44  63  85 110 142 175 214 261
#     4  10  19  29  42  60  82 109 143 181 219 255
#     4  10  19  30  43  58  80 116 154 184 213 249
#
# _framework density 13.993798
#
# number of rings (size 3 to 8) (size 9 to 14) (size 15 to 20)
#    0.000    2.167    3.333    2.000    0.000    2.833 
#    0.000    3.333    0.000    3.000    0.000    0.000 
#    0.000    0.667    0.000    3.667    0.000    9.333 
#
# Total GULP energy -534958.216939 kJ/mol
# GULP energy per Si atom -5572.481426 kJ/mol
# Density = 1.396195 g / cm^3
# Si number density = 13.993798 Si / 1000 Ang^3
#
#
#
# Elastic Constant Matrix: (Units=GPa)
#
#
# Indices 1 2 3 4 5 6 
#
# 1 80.3544 42.0211 29.1519 0.0000 0.0000 0.0000
# 2 42.0211 80.3544 29.1519 0.0000 0.0000 0.0000
# 3 29.1519 29.1519 56.3031 0.0000 0.0000 0.0000
# 4 0.0000 0.0000 0.0000 17.9252 0.0000 0.0000
# 5 0.0000 0.0000 0.0000 0.0000 17.9252 0.0000
# 6 0.0000 0.0000 0.0000 0.0000 0.0000 13.0594
#
#
#
# Elastic Compliance Matrix: (Units=1/GPa)
#
#
# Indices 1 2 3 4 5 6 
#
# 1 0.018467 -0.007620 -0.005616 0.000000 0.000000 0.000000
# 2 -0.007620 0.018467 -0.005616 0.000000 0.000000 0.000000
# 3 -0.005616 -0.005616 0.023577 0.000000 0.000000 0.000000
# 4 0.000000 0.000000 0.000000 0.055788 0.000000 0.000000
# 5 0.000000 0.000000 0.000000 0.000000 0.055788 0.000000
# 6 0.000000 0.000000 0.000000 0.000000 0.000000 0.076573
#
#
# Mechanical properties :
#
#
# Convention : Reuss Voigt Hill
#
# Bulk Modulus (GPa) = 43.84788 46.40685 45.12737
# Shear Modulus (GPa) = 17.00873 17.56109 17.28491
#
# Velocity S-wave (km/s) = 3.49011 3.54633 3.51833
# Velocity P-wave (km/s) = 6.90239 7.07128 6.98735
#
# Compressibility (1/GPa) = 0.02280612
#
# Stress axis : x y z
#
# Youngs Moduli (GPa) = 54.15003 54.15003 42.41422
#
# Poissons Ratio (x) = 0.41261 0.23822
# Poissons Ratio (y) = 0.41261 0.23822
# Poissons Ratio (z) = 0.30413 0.30413
#
# Static dielectric constant tensor:
#      x y z
#    x 1.463850 0.000000 0.000000 
#    y 0.000000 1.463850 0.000000 
#    z 0.000000 0.000000 1.474630 
# 
# From -- ./inp_files/8062.got.cif
#   From: 2010.05.17/outbox.cif.g08.bks.cpg/sg132_5_cif.got.tgz:8062.got - 2010.05.20 12:30:18.
