data_PCOD9566162
_publ_section_title
;
Structure prediction by ZEFSAII (Michael W. Deem and Ramdas Pophale) SiO2 
 PCOD9566162
Probable space group: P 42/M M C
;
_chemical_formula_sum "Si O2"
_cell_formula_units_Z 88
_cell_length_a 27.309755
_cell_length_b 27.309755
_cell_length_c 9.120887
_cell_angle_alpha 90.000000
_cell_angle_beta 90.000000
_cell_angle_gamma 90.000000
_cell_volume 6802.564734
_symmetry_space_group_name_H-M "P 42/M M C"
_symmetry_group_IT_number 131
_symmetry_cell_setting 'tetragonal'
loop_
_space_group_symop_operation_xyz
x,y,z
-x,-y,z
-y,x,1/2+z
y,-x,1/2+z
-x,y,-z
x,-y,-z
y,x,1/2-z
-y,-x,1/2-z
-x,-y,-z
x,y,-z
y,-x,1/2-z
-y,x,1/2-z
x,-y,z
-x,y,z
-y,-x,1/2+z
y,x,1/2+z
loop_
_atom_site_type_symbol
_atom_site_label
_atom_site_fract_x
_atom_site_fract_y
_atom_site_fract_z
Si Si1 0.195470 0.874657 0.668463
Si Si2 0.442643 0.899161 0.325063
Si Si3 0.943090 0.728553 0.676340
Si Si4 0.000000 0.558961 0.665175
Si Si5 0.209989 0.720979 0.168678
Si Si6 0.648637 0.139535 0.824694
O O1 0.148462 0.851539 0.750000
O O2 0.184206 0.887094 0.500000
O O3 0.223530 0.918789 0.749953
O O4 0.235774 0.830901 0.666613
O O5 0.437101 0.900259 0.500000
O O6 0.500000 0.889412 0.292312
O O7 0.429220 0.951658 0.255080
O O8 0.404126 0.863428 0.250136
O O9 0.940640 0.734004 0.500000
O O10 0.908427 0.682035 0.713883
O O11 0.000000 0.721633 0.717812
O O12 0.000000 0.500000 0.651777
O O13 0.000000 0.580108 0.500000
O O14 0.256669 0.743332 0.250000
O O15 0.185477 0.677948 0.261030
O O16 0.219554 0.707559 0.000000
O O17 0.644680 0.141121 0.000000
#
# Coordination Sequence:
#
# PCOD9566162 Si02
#       6
#    16  16  16   8  16  16
#     4   9  16  26  41  58  75  97 122 146 174 214
#     4  10  20  32  43  56  75  99 129 166 204 237
#     4   9  18  30  41  56  79 102 122 150 185 220
#     4   9  17  29  43  55  67  89 123 161 199 237
#     4   9  16  27  42  59  79  99 123 153 189 230
#     4  10  19  29  43  60  78 102 132 160 194 235
#
# _framework density 12.936297
#
# number of rings (size 3 to 8) (size 9 to 14) (size 15 to 20)
#    0.000    2.636    0.000    2.455    1.273    7.636 
#    0.000    0.000    0.000    0.000    0.000    0.000 
#    0.000    0.364    0.000    3.818    0.000    2.000 
#
# Total GULP energy -490262.248340 kJ/mol
# GULP energy per Si atom -5571.161913 kJ/mol
# Density = 1.290685 g / cm^3
# Si number density = 12.936297 Si / 1000 Ang^3
#
#
#
# Elastic Constant Matrix: (Units=GPa)
#
#
# Indices 1 2 3 4 5 6 
#
# 1 58.7339 42.7099 40.1456 0.0000 0.0000 0.0000
# 2 42.7099 58.7336 40.1466 0.0000 0.0000 0.0000
# 3 40.1456 40.1466 74.2411 0.0000 0.0000 0.0000
# 4 0.0000 0.0000 0.0000 19.0081 0.0000 0.0000
# 5 0.0000 0.0000 0.0000 0.0000 19.0079 0.0000
# 6 0.0000 0.0000 0.0000 0.0000 0.0000 14.1477
#
#
#
# Elastic Compliance Matrix: (Units=1/GPa)
#
#
# Indices 1 2 3 4 5 6 
#
# 1 0.039820 -0.022587 -0.009318 0.000000 0.000000 0.000000
# 2 -0.022587 0.039821 -0.009320 0.000000 0.000000 0.000000
# 3 -0.009318 -0.009320 0.023548 0.000000 0.000000 0.000000
# 4 0.000000 0.000000 0.000000 0.052609 0.000000 0.000000
# 5 0.000000 0.000000 0.000000 0.000000 0.052610 0.000000
# 6 0.000000 0.000000 0.000000 0.000000 0.000000 0.070683
#
#
# Mechanical properties :
#
#
# Convention : Reuss Voigt Hill
#
# Bulk Modulus (GPa) = 48.21806 48.63478 48.42642
# Shear Modulus (GPa) = 13.57020 15.01316 14.29168
#
# Velocity S-wave (km/s) = 3.24234 3.41037 3.32742
# Velocity P-wave (km/s) = 7.16739 7.29279 7.23036
#
# Compressibility (1/GPa) = 0.02073912
#
# Stress axis : x y z
#
# Youngs Moduli (GPa) = 25.11317 25.11229 42.46558
#
# Poissons Ratio (x) = 0.56720 0.39571
# Poissons Ratio (y) = 0.56722 0.39578
# Poissons Ratio (z) = 0.23402 0.23405
#
# Static dielectric constant tensor:
#      x y z
#    x 1.418210 0.000000 0.000000 
#    y 0.000000 1.418210 0.000000 
#    z 0.000000 0.000000 1.433000 
# 
# From -- ./inp_files/2410.got.cif
#   From: 2010.05.17/outbox.cif.g08.bks.cpg/sg131_2_cif.got.tgz:2410.got - 2010.05.20 12:21:01.
