data_PCOD9566321
_publ_section_title
;
Structure prediction by ZEFSAII (Michael W. Deem and Ramdas Pophale) SiO2 
 PCOD9566321
Probable space group: P 42/M M C
;
_chemical_formula_sum "Si O2"
_cell_formula_units_Z 80
_cell_length_a 14.289157
_cell_length_b 14.289157
_cell_length_c 21.253136
_cell_angle_alpha 90.000000
_cell_angle_beta 90.000000
_cell_angle_gamma 90.000000
_cell_volume 4339.465474
_symmetry_space_group_name_H-M "P 42/M M C"
_symmetry_group_IT_number 131
_symmetry_cell_setting 'tetragonal'
loop_
_space_group_symop_operation_xyz
x,y,z
-x,-y,z
-y,x,1/2+z
y,-x,1/2+z
-x,y,-z
x,-y,-z
y,x,1/2-z
-y,-x,1/2-z
-x,-y,-z
x,y,-z
y,-x,1/2-z
-y,x,1/2-z
x,-y,z
-x,y,z
-y,-x,1/2+z
y,x,1/2+z
loop_
_atom_site_type_symbol
_atom_site_label
_atom_site_fract_x
_atom_site_fract_y
_atom_site_fract_z
Si Si1 0.608607 0.793243 0.117829
Si Si2 0.214668 0.111388 0.929845
Si Si3 0.111892 0.202180 0.811783
Si Si4 0.396112 0.887637 0.744755
Si Si5 0.606326 0.386279 0.678663
O O1 0.500000 0.796491 0.097817
O O2 0.680276 0.848816 0.075050
O O3 0.613907 0.840394 0.187144
O O4 0.639403 0.685737 0.128966
O O5 0.157768 0.160095 0.873991
O O6 0.215385 0.000000 0.919506
O O7 0.177097 0.129654 0.000000
O O8 0.147543 0.147543 0.750000
O O9 0.139043 0.310545 0.799916
O O10 0.000000 0.195565 0.815488
O O11 0.500000 0.864341 0.720606
O O12 0.391150 0.000000 0.753661
O O13 0.637471 0.362530 0.750000
O O14 0.603984 0.500000 0.678994
O O15 0.500000 0.353889 0.667464
#
# Coordination Sequence:
#
# PCOD9566321 Si02
#       5
#    16  16  16  16  16
#     4  10  19  32  55  83 113 152 191 230 282 342
#     4  11  25  42  58  81 115 152 191 239 293 349
#     4  11  22  38  62  88 115 148 190 240 290 342
#     4   9  18  33  56  87 117 144 181 233 288 337
#     4   8  15  27  44  74 114 149 183 225 274 328
#
# _framework density 18.435448999999998
#
# number of rings (size 3 to 8) (size 9 to 14) (size 15 to 20)
#    0.000    2.200    2.000    1.800    2.800    3.400 
#    0.000    2.000    0.000    2.400    0.000    5.600 
#    0.000    0.000    0.000    0.000    0.000    0.000 
#
# Total GULP energy -446569.400261 kJ/mol
# GULP energy per Si atom -5582.117503 kJ/mol
# Density = 1.839349 g / cm^3
# Si number density = 18.435449 Si / 1000 Ang^3
#
#
#
# Elastic Constant Matrix: (Units=GPa)
#
#
# Indices 1 2 3 4 5 6 
#
# 1 87.5511 36.8915 49.5323 0.0000 0.0000 0.0000
# 2 36.8915 87.5508 49.5322 0.0000 0.0000 0.0000
# 3 49.5323 49.5322 95.9294 0.0000 0.0000 0.0000
# 4 0.0000 0.0000 0.0000 12.5755 0.0000 0.0000
# 5 0.0000 0.0000 0.0000 0.0000 12.5756 0.0000
# 6 0.0000 0.0000 0.0000 0.0000 0.0000 19.9659
#
#
#
# Elastic Compliance Matrix: (Units=1/GPa)
#
#
# Indices 1 2 3 4 5 6 
#
# 1 0.016692 -0.003048 -0.007045 0.000000 0.000000 0.000000
# 2 -0.003048 0.016692 -0.007045 0.000000 0.000000 0.000000
# 3 -0.007045 -0.007045 0.017700 0.000000 0.000000 0.000000
# 4 0.000000 0.000000 0.000000 0.079520 0.000000 0.000000
# 5 0.000000 0.000000 0.000000 0.000000 0.079519 0.000000
# 6 0.000000 0.000000 0.000000 0.000000 0.000000 0.050085
#
#
# Mechanical properties :
#
#
# Convention : Reuss Voigt Hill
#
# Bulk Modulus (GPa) = 59.49622 60.32703 59.91163
# Shear Modulus (GPa) = 16.66190 18.02842 17.34516
#
# Velocity S-wave (km/s) = 3.00958 3.13057 3.07067
# Velocity P-wave (km/s) = 6.66480 6.77213 6.71868
#
# Compressibility (1/GPa) = 0.01680779
#
# Stress axis : x y z
#
# Youngs Moduli (GPa) = 59.90940 59.90917 56.49850
#
# Poissons Ratio (x) = 0.18259 0.39803
# Poissons Ratio (y) = 0.18259 0.39803
# Poissons Ratio (z) = 0.42206 0.42206
#
# Static dielectric constant tensor:
#      x y z
#    x 1.671980 0.000000 0.000000 
#    y 0.000000 1.671980 0.000000 
#    z 0.000000 0.000000 1.605720 
# 
# From -- ./inp_files/9406.got.cif
#   From: 2010.05.17/outbox.cif.g08.bks.cpg/sg131_5_cif.got.tgz:9406.got - 2010.05.20 12:21:01.
