data_PCOD9566119
_publ_section_title
;
Structure prediction by ZEFSAII (Michael W. Deem and Ramdas Pophale) SiO2 
 PCOD9566119
Probable space group: P 42/M M C
;
_chemical_formula_sum "Si O2"
_cell_formula_units_Z 88
_cell_length_a 18.428004
_cell_length_b 18.428004
_cell_length_c 14.053199
_cell_angle_alpha 90.000000
_cell_angle_beta 90.000000
_cell_angle_gamma 90.000000
_cell_volume 4772.344559
_symmetry_space_group_name_H-M "P 42/M M C"
_symmetry_group_IT_number 131
_symmetry_cell_setting 'tetragonal'
loop_
_space_group_symop_operation_xyz
x,y,z
-x,-y,z
-y,x,1/2+z
y,-x,1/2+z
-x,y,-z
x,-y,-z
y,x,1/2-z
-y,-x,1/2-z
-x,-y,-z
x,y,-z
y,-x,1/2-z
-y,x,1/2-z
x,-y,z
-x,y,z
-y,-x,1/2+z
y,x,1/2+z
loop_
_atom_site_type_symbol
_atom_site_label
_atom_site_fract_x
_atom_site_fract_y
_atom_site_fract_z
Si Si1 0.583952 0.156306 0.815839
Si Si2 0.302072 0.847236 0.662689
Si Si3 0.000000 0.631409 0.104810
Si Si4 0.418233 0.000000 0.182549
Si Si5 0.738332 0.749271 0.000000
Si Si6 0.741854 0.419205 0.500000
Si Si7 0.916360 0.762495 0.500000
Si Si8 0.081770 0.816862 0.290992
O O1 0.500000 0.144196 0.787367
O O2 0.630096 0.180519 0.725330
O O3 0.615407 0.076851 0.846040
O O4 0.582906 0.209493 0.904558
O O5 0.324471 0.924003 0.613584
O O6 0.272840 0.787618 0.589972
O O7 0.241359 0.868128 0.738877
O O8 0.000000 0.584328 0.201959
O O9 0.000000 0.596130 0.000000
O O10 0.500000 0.000000 0.144049
O O11 0.661147 0.707264 0.000000
O O12 0.723462 0.836830 0.000000
O O13 0.705505 0.500000 0.500000
O O14 0.912571 0.809903 0.596014
O O15 0.000000 0.729912 0.500000
O O16 0.106379 0.893622 0.250000
O O17 0.000000 0.798900 0.264052
#
# Coordination Sequence:
#
# PCOD9566119 Si02
#       8
#    16  16   8   8   8   8   8  16
#     4   9  19  35  51  75 112 145 177 220 269 328
#     4  11  21  34  55  81 106 145 186 227 277 327
#     4  10  18  31  47  73 106 138 179 227 266 312
#     4   8  16  30  48  70 103 143 179 210 259 320
#     4  12  22  37  59  83 106 141 190 227 272 338
#     4  10  22  37  53  76 107 142 180 229 278 321
#     4  10  22  36  52  79 105 132 176 230 281 325
#     4  11  22  37  55  75 105 141 186 239 288 330
#
# _framework density 18.439572999999999
#
# number of rings (size 3 to 8) (size 9 to 14) (size 15 to 20)
#    0.000    1.818    3.636    1.091    0.000    0.727 
#    1.636    3.636    0.000    1.636    0.000    0.000 
#    0.000    1.455    0.000    8.000    0.000    3.455 
#
# Total GULP energy -490197.944431 kJ/mol
# GULP energy per Si atom -5570.431187 kJ/mol
# Density = 1.839760 g / cm^3
# Si number density = 18.439573 Si / 1000 Ang^3
#
#
#
# Elastic Constant Matrix: (Units=GPa)
#
#
# Indices 1 2 3 4 5 6 
#
# 1 68.8872 35.7141 30.4801 0.0000 0.0000 0.0000
# 2 35.7141 68.8799 30.4828 0.0000 0.0000 0.0000
# 3 30.4801 30.4828 99.8654 0.0000 0.0000 0.0000
# 4 0.0000 0.0000 0.0000 20.1484 0.0000 0.0000
# 5 0.0000 0.0000 0.0000 0.0000 20.1485 0.0000
# 6 0.0000 0.0000 0.0000 0.0000 0.0000 15.7690
#
#
#
# Elastic Compliance Matrix: (Units=1/GPa)
#
#
# Indices 1 2 3 4 5 6 
#
# 1 0.020887 -0.009259 -0.003549 0.000000 0.000000 0.000000
# 2 -0.009259 0.020890 -0.003550 0.000000 0.000000 0.000000
# 3 -0.003549 -0.003550 0.012180 0.000000 0.000000 0.000000
# 4 0.000000 0.000000 0.000000 0.049632 0.000000 0.000000
# 5 0.000000 0.000000 0.000000 0.000000 0.049631 0.000000
# 6 0.000000 0.000000 0.000000 0.000000 0.000000 0.063416
#
#
# Mechanical properties :
#
#
# Convention : Reuss Voigt Hill
#
# Bulk Modulus (GPa) = 47.07963 47.88738 47.48351
# Shear Modulus (GPa) = 19.49820 20.61021 20.05421
#
# Velocity S-wave (km/s) = 3.25531 3.34685 3.30140
# Velocity P-wave (km/s) = 6.30212 6.40012 6.35131
#
# Compressibility (1/GPa) = 0.02124061
#
# Stress axis : x y z
#
# Youngs Moduli (GPa) = 47.87634 47.86914 82.09981
#
# Poissons Ratio (x) = 0.44324 0.29134
# Poissons Ratio (y) = 0.44331 0.29149
# Poissons Ratio (z) = 0.16990 0.16996
#
# Static dielectric constant tensor:
#      x y z
#    x 1.689730 0.000000 0.000000 
#    y 0.000000 1.689730 0.000000 
#    z 0.000000 0.000000 1.632340 
# 
# From -- ./inp_files/5992.got.cif
#   From: 2010.05.17/outbox.cif.g08.bks.cpg/sg131_3_cif.got.tgz:5992.got - 2010.05.20 12:21:01.
