data_PCOD9566714
_publ_section_title
;
Structure prediction by ZEFSAII (Michael W. Deem and Ramdas Pophale) SiO2 
 PCOD9566714
Probable space group: P 42/M M C
;
_chemical_formula_sum "Si O2"
_cell_formula_units_Z 56
_cell_length_a 14.608231
_cell_length_b 14.608231
_cell_length_c 14.017650
_cell_angle_alpha 90.000000
_cell_angle_beta 90.000000
_cell_angle_gamma 90.000000
_cell_volume 2991.372299
_symmetry_space_group_name_H-M "P 42/M M C"
_symmetry_group_IT_number 131
_symmetry_cell_setting 'tetragonal'
loop_
_space_group_symop_operation_xyz
x,y,z
-x,-y,z
-y,x,1/2+z
y,-x,1/2+z
-x,y,-z
x,-y,-z
y,x,1/2-z
-y,-x,1/2-z
-x,-y,-z
x,y,-z
y,-x,1/2-z
-y,x,1/2-z
x,-y,z
-x,y,z
-y,-x,1/2+z
y,x,1/2+z
loop_
_atom_site_type_symbol
_atom_site_label
_atom_site_fract_x
_atom_site_fract_y
_atom_site_fract_z
Si Si1 0.391760 0.811227 0.291705
Si Si2 0.227291 0.720705 0.613426
Si Si3 0.000000 0.389338 0.892535
Si Si4 0.898316 0.106633 0.114923
O O1 0.500000 0.797064 0.301413
O O2 0.331024 0.741099 0.353415
O O3 0.360286 0.806556 0.181915
O O4 0.365785 0.909343 0.335713
O O5 0.220168 0.705447 0.500000
O O6 0.168272 0.811451 0.640372
O O7 0.000000 0.500000 0.900431
O O8 0.000000 0.350535 0.000000
O O9 0.000000 0.138132 0.146057
O O10 0.887464 0.000000 0.142952
O O11 0.899878 0.107576 0.000000
#
# Coordination Sequence:
#
# PCOD9566714 Si02
#       4
#    16  16   8  16
#     4  10  22  38  55  83 118 149 192 243 288 342
#     4  10  21  36  59  86 112 152 195 238 294 350
#     4   9  18  34  57  81 110 151 191 231 281 336
#     4   8  15  29  50  78 113 150 186 227 273 327
#
# _framework density 18.720504999999999
#
# number of rings (size 3 to 8) (size 9 to 14) (size 15 to 20)
#    0.000    2.714    0.000    1.714    4.000    2.286 
#    0.000    0.000    0.000   16.286    0.000    8.000 
#    0.000    0.000    0.000    0.000    0.000    0.000 
#
# Total GULP energy -312441.074804 kJ/mol
# GULP energy per Si atom -5579.304907 kJ/mol
# Density = 1.867790 g / cm^3
# Si number density = 18.720505 Si / 1000 Ang^3
#
#
#
# Elastic Constant Matrix: (Units=GPa)
#
#
# Indices 1 2 3 4 5 6 
#
# 1 81.0322 34.4543 29.8094 0.0000 0.0000 0.0000
# 2 34.4543 81.0322 29.8094 0.0000 0.0000 0.0000
# 3 29.8094 29.8094 160.6100 0.0000 0.0000 0.0000
# 4 0.0000 0.0000 0.0000 18.9752 0.0000 0.0000
# 5 0.0000 0.0000 0.0000 0.0000 18.9752 0.0000
# 6 0.0000 0.0000 0.0000 0.0000 0.0000 21.4294
#
#
#
# Elastic Compliance Matrix: (Units=1/GPa)
#
#
# Indices 1 2 3 4 5 6 
#
# 1 0.015523 -0.005946 -0.001777 0.000000 0.000000 0.000000
# 2 -0.005946 0.015523 -0.001777 0.000000 0.000000 0.000000
# 3 -0.001777 -0.001777 0.006886 0.000000 0.000000 0.000000
# 4 0.000000 0.000000 0.000000 0.052700 0.000000 0.000000
# 5 0.000000 0.000000 0.000000 0.000000 0.052700 0.000000
# 6 0.000000 0.000000 0.000000 0.000000 0.000000 0.046665
#
#
# Mechanical properties :
#
#
# Convention : Reuss Voigt Hill
#
# Bulk Modulus (GPa) = 52.82752 56.75788 54.79270
# Shear Modulus (GPa) = 23.22233 27.11605 25.16919
#
# Velocity S-wave (km/s) = 3.52586 3.81000 3.67068
# Velocity P-wave (km/s) = 6.69746 7.05260 6.87732
#
# Compressibility (1/GPa) = 0.01892953
#
# Stress axis : x y z
#
# Youngs Moduli (GPa) = 64.42049 64.42049 145.22119
#
# Poissons Ratio (x) = 0.38307 0.25812
# Poissons Ratio (y) = 0.38307 0.25812
# Poissons Ratio (z) = 0.11450 0.11450
#
# Static dielectric constant tensor:
#      x y z
#    x 1.655600 0.000000 0.000000 
#    y 0.000000 1.655600 0.000000 
#    z 0.000000 0.000000 1.672400 
# 
# From -- ./inp_files/5251.got.cif
#   From: 2010.05.17/outbox.cif.g08.bks.cpg/sg131_3_cif.got.tgz:5251.got - 2010.05.20 12:21:01.
