data_PCOD9566011
_publ_section_title
;
Structure prediction by ZEFSAII (Michael W. Deem and Ramdas Pophale) SiO2 
 PCOD9566011
Probable space group: P 4/N C C
;
_chemical_formula_sum "Si O2"
_cell_formula_units_Z 60
_cell_length_a 18.130261
_cell_length_b 18.130261
_cell_length_c 7.655568
_cell_angle_alpha 90.000000
_cell_angle_beta 90.000000
_cell_angle_gamma 90.000000
_cell_volume 2516.433921
_symmetry_space_group_name_H-M "P 4/N C C"
_symmetry_group_IT_number 130
_symmetry_cell_setting 'tetragonal'
loop_
_space_group_symop_operation_xyz
x,y,z
1/2-y,x,z
1/2-x,1/2-y,z
y,1/2-x,z
1/2+x,-y,1/2-z
-x,1/2+y,1/2-z
1/2+y,1/2+x,1/2-z
-y,-x,1/2-z
-x,-y,-z
1/2+y,-x,-z
1/2+x,1/2+y,-z
-y,1/2+x,-z
1/2-x,y,1/2+z
x,1/2-y,1/2+z
1/2-y,1/2-x,1/2+z
y,x,1/2+z
loop_
_atom_site_type_symbol
_atom_site_label
_atom_site_fract_x
_atom_site_fract_y
_atom_site_fract_z
Si Si1 0.396160 0.822499 0.404737
Si Si2 0.571466 0.640294 0.395682
Si Si3 0.794172 0.947817 0.278310
Si Si4 0.750000 0.250000 0.500000
Si Si5 0.419209 0.919209 0.750000
O O1 0.380001 0.880001 0.250000
O O2 0.470185 0.781360 0.351243
O O3 0.327634 0.766536 0.407598
O O4 0.404769 0.863987 0.588137
O O5 0.588588 0.714100 0.284612
O O6 0.644012 0.590447 0.396901
O O7 0.551949 0.670217 0.587363
O O8 0.502323 0.595543 0.317002
#
# Coordination Sequence:
#
# PCOD9566011 Si02
#       5
#    16  16  16   4   8
#     4  12  27  47  71 107 157 200 265 313 384 465
#     4  12  27  49  79 113 154 203 263 329 396 469
#     4  12  27  51  77 115 153 202 263 332 394 472
#     4  12  30  44  74 110 156 218 250 316 386 458
#     4  12  26  47  76 110 150 207 254 318 388 466
#
# _framework density 23.843264999999999
#
# number of rings (size 3 to 8) (size 9 to 14) (size 15 to 20)
#    0.000    0.000    2.667    6.800    9.333    2.667 
#    0.000    2.667    0.000    0.000    0.000    0.000 
#    0.000    0.000    0.000    0.000    0.000    0.000 
#
# Total GULP energy -336457.640343 kJ/mol
# GULP energy per Si atom -5607.627339 kJ/mol
# Density = 2.378900 g / cm^3
# Si number density = 23.843265 Si / 1000 Ang^3
#
#
#
# Elastic Constant Matrix: (Units=GPa)
#
#
# Indices 1 2 3 4 5 6 
#
# 1 96.7883 71.1686 28.0007 0.0000 0.0000 0.0000
# 2 71.1686 96.7883 28.0007 0.0000 0.0000 0.0000
# 3 28.0007 28.0007 138.0849 0.0000 0.0000 0.0000
# 4 0.0000 0.0000 0.0000 23.9923 0.0000 0.0000
# 5 0.0000 0.0000 0.0000 0.0000 23.9923 0.0000
# 6 0.0000 0.0000 0.0000 0.0000 0.0000 45.3935
#
#
#
# Elastic Compliance Matrix: (Units=1/GPa)
#
#
# Indices 1 2 3 4 5 6 
#
# 1 0.022709 -0.016323 -0.001295 0.000000 0.000000 0.000000
# 2 -0.016323 0.022709 -0.001295 0.000000 0.000000 0.000000
# 3 -0.001295 -0.001295 0.007767 0.000000 0.000000 0.000000
# 4 0.000000 0.000000 0.000000 0.041680 0.000000 0.000000
# 5 0.000000 0.000000 0.000000 0.000000 0.041680 0.000000
# 6 0.000000 0.000000 0.000000 0.000000 0.000000 0.022030
#
#
# Mechanical properties :
#
#
# Convention : Reuss Voigt Hill
#
# Bulk Modulus (GPa) = 65.10897 65.11131 65.11014
# Shear Modulus (GPa) = 24.81135 32.30839 28.55987
#
# Velocity S-wave (km/s) = 3.22934 3.68507 3.46470
# Velocity P-wave (km/s) = 6.42426 6.74342 6.58577
#
# Compressibility (1/GPa) = 0.01535887
#
# Stress axis : x y z
#
# Youngs Moduli (GPa) = 44.03535 44.03535 128.74870
#
# Poissons Ratio (x) = 0.71881 0.16671
# Poissons Ratio (y) = 0.71881 0.16671
# Poissons Ratio (z) = 0.05702 0.05702
#
# Static dielectric constant tensor:
#      x y z
#    x 1.892940 0.000000 0.000000 
#    y 0.000000 1.892940 0.000000 
#    z 0.000000 0.000000 1.972540 
# 
# From -- ./inp_files/633.got.cif
#   From: 2010.05.17/outbox.cif.g08.bks.cpg/sg130_1_cif.got.tgz:633.got - 2010.05.20 12:17:35.
