data_PCOD9566909
_publ_section_title
;
Structure prediction by ZEFSAII (Michael W. Deem and Ramdas Pophale) SiO2 
 PCOD9566909
Probable space group: P 42/M M C
;
_chemical_formula_sum "Si O2"
_cell_formula_units_Z 88
_cell_length_a 18.000000
_cell_length_b 18.000000
_cell_length_c 15.000000
_cell_angle_alpha 90.000000
_cell_angle_beta 90.000000
_cell_angle_gamma 90.000000
_cell_volume 4860.000000
_symmetry_space_group_name_H-M "P 42/M M C"
_symmetry_group_IT_number 131
_symmetry_cell_setting 'tetragonal'
loop_
_space_group_symop_operation_xyz
x,y,z
-x,-y,z
-y,x,1/2+z
y,-x,1/2+z
-x,y,-z
x,-y,-z
y,x,1/2-z
-y,-x,1/2-z
-x,-y,-z
x,y,-z
y,-x,1/2-z
-y,x,1/2-z
x,-y,z
-x,y,z
-y,-x,1/2+z
y,x,1/2+z
loop_
_atom_site_type_symbol
_atom_site_label
_atom_site_fract_x
_atom_site_fract_y
_atom_site_fract_z
Si Si1 0.084764 0.305371 0.599150
Si Si2 0.297692 0.208367 0.672449
Si Si3 0.585143 0.193882 0.188086
Si Si4 0.360432 0.660184 0.101605
Si Si5 0.799086 0.085501 0.726871
Si Si6 0.500000 0.586423 0.391532
O O1 0.097286 0.273537 0.500000
O O2 0.143824 0.369465 0.618245
O O3 0.091082 0.247472 0.680223
O O4 0.000000 0.333910 0.601993
O O5 0.252335 0.252335 0.750000
O O6 0.373945 0.182229 0.717778
O O7 0.316977 0.273493 0.604376
O O8 0.245505 0.137491 0.656418
O O9 0.500000 0.174001 0.190441
O O10 0.596529 0.279372 0.159898
O O11 0.373876 0.576558 0.135728
O O12 0.387639 0.664387 0.000000
O O13 0.877545 0.122456 0.750000
O O14 0.803163 0.000000 0.700546
O O15 0.500000 0.500000 0.364134
O O16 0.500000 0.588042 0.500000
#
# Coordination Sequence:
#
# PCOD9566909 Si02
#       6
#    16  16  16  16  16   8
#     4   9  18  32  49  70  97 127 155 184 227 282
#     4   8  17  32  46  63  90 122 156 191 228 283
#     4  10  19  29  45  67  93 122 152 192 237 282
#     4  10  19  31  48  66  88 123 163 199 242 289
#     4   9  17  31  51  73  97 125 155 190 230 275
#     4   9  18  30  44  66  93 117 150 203 253 289
#
# _framework density 18.106995999999999
#
# number of rings (size 3 to 8) (size 9 to 14) (size 15 to 20)
#    0.000    2.818    0.000    2.182    1.273    2.727 
#    0.000    0.909    0.000    2.182    0.000    2.545 
#    0.000    2.182    0.000    0.000    0.000    0.000 
#
# Total GULP energy -490094.784151 kJ/mol
# GULP energy per Si atom -5569.258911 kJ/mol
# Density = 1.806578 g / cm^3
# Si number density = 18.106996 Si / 1000 Ang^3
#
#
#
# Elastic Constant Matrix: (Units=GPa)
#
#
# Indices 1 2 3 4 5 6 
#
# 1 103.3428 36.8202 -2.8861 0.0000 0.0000 0.0000
# 2 36.8202 103.3452 -2.8858 0.0000 0.0000 0.0000
# 3 -2.8861 -2.8858 12.6736 0.0000 0.0000 0.0000
# 4 0.0000 0.0000 0.0000 15.3759 0.0000 0.0000
# 5 0.0000 0.0000 0.0000 0.0000 15.3761 0.0000
# 6 0.0000 0.0000 0.0000 0.0000 0.0000 15.8027
#
#
#
# Elastic Compliance Matrix: (Units=1/GPa)
#
#
# Indices 1 2 3 4 5 6 
#
# 1 0.011117 -0.003915 0.001640 0.000000 0.000000 0.000000
# 2 -0.003915 0.011117 0.001640 0.000000 0.000000 0.000000
# 3 0.001640 0.001640 0.079651 0.000000 0.000000 0.000000
# 4 0.000000 0.000000 0.000000 0.065037 0.000000 0.000000
# 5 0.000000 0.000000 0.000000 0.000000 0.065036 0.000000
# 6 0.000000 0.000000 0.000000 0.000000 0.000000 0.063280
#
#
# Mechanical properties :
#
#
# Convention : Reuss Voigt Hill
#
# Bulk Modulus (GPa) = 9.93889 31.27316 20.60602
# Shear Modulus (GPa) = 15.14936 21.86515 18.50726
#
# Velocity S-wave (km/s) = 2.89564 3.47876 3.20051
# Velocity P-wave (km/s) = 4.08418 5.78312 5.00625
#
# Compressibility (1/GPa) = 0.10061486
#
# Stress axis : x y z
#
# Youngs Moduli (GPa) = 89.95023 89.95246 12.55478
#
# Poissons Ratio (x) = 0.35217 -0.02059
# Poissons Ratio (y) = 0.35216 -0.02059
# Poissons Ratio (z) = -0.14753 -0.14750
#
# Static dielectric constant tensor:
#      x y z
#    x 1.647670 0.000000 0.000000 
#    y 0.000000 1.647670 0.000000 
#    z 0.000000 0.000000 1.652880 
# 
# From -- ./inp_files/5869.got.cif
#   From: 2010.05.17/outbox.ucp.g08.bks.cvg/sg131_3_cif.got.tgz:5869.got - 2010.06.11 11:38:44.
