data_PCOD9566956
_publ_section_title
;
Structure prediction by ZEFSAII (Michael W. Deem and Ramdas Pophale) SiO2 
 PCOD9566956
Probable space group: P 42/M C M
;
_chemical_formula_sum "Si O2"
_cell_formula_units_Z 112
_cell_length_a 19.853328
_cell_length_b 19.853328
_cell_length_c 15.833545
_cell_angle_alpha 90.000000
_cell_angle_beta 90.000000
_cell_angle_gamma 90.000000
_cell_volume 6240.865113
_symmetry_space_group_name_H-M "P 42/M C M"
_symmetry_group_IT_number 132
_symmetry_cell_setting 'tetragonal'
loop_
_space_group_symop_operation_xyz
x,y,z
-y,x,1/2+z
-x,-y,z
y,-x,1/2+z
x,-y,1/2-z
-x,y,1/2-z
y,x,-z
-y,-x,-z
-x,-y,-z
y,-x,1/2-z
x,y,-z
-y,x,1/2-z
-x,y,1/2+z
x,-y,1/2+z
-y,-x,z
y,x,z
loop_
_atom_site_type_symbol
_atom_site_label
_atom_site_fract_x
_atom_site_fract_y
_atom_site_fract_z
Si Si1 0.139468 0.754104 0.161856
Si Si2 0.752752 0.354485 0.153418
Si Si3 0.554981 0.946206 0.397832
Si Si4 0.505226 0.203463 0.148379
Si Si5 0.007260 0.297295 0.599188
Si Si6 0.359195 0.252839 0.859481
Si Si7 0.143471 0.751046 0.364617
O O1 0.182344 0.817657 0.130642
O O2 0.179424 0.687138 0.131329
O O3 0.143843 0.753143 0.262933
O O4 0.062397 0.752702 0.136929
O O5 0.690593 0.309408 0.124673
O O6 0.753950 0.429890 0.120457
O O7 0.749798 0.357547 0.256305
O O8 0.557198 0.946693 0.500000
O O9 0.527104 0.873028 0.372108
O O10 0.500000 0.000000 0.369022
O O11 0.628199 0.972343 0.366464
O O12 0.500000 0.207196 0.250000
O O13 0.434544 0.232036 0.114231
O O14 0.018847 0.300729 0.500000
O O15 0.931603 0.270958 0.611597
O O16 0.324251 0.324251 0.883218
O O17 0.308175 0.194908 0.890162
O O18 0.178654 0.821347 0.393433
#
# Coordination Sequence:
#
# PCOD9566956 Si02
#       7
#    16  16  16  16  16  16  16
#     4   9  17  32  51  70  96 127 163 205 244 288
#     4   8  14  26  44  68  96 122 155 203 247 283
#     4  10  21  34  43  63 104 138 154 187 249 304
#     4  10  17  28  48  71  92 125 169 205 238 288
#     4  11  21  32  49  73 101 131 159 198 249 299
#     4   8  15  27  45  69  93 122 164 209 244 273
#     4   9  18  33  51  69  94 130 168 205 241 283
#
# _framework density 17.94623
#
# number of rings (size 3 to 8) (size 9 to 14) (size 15 to 20)
#    0.000    2.714    1.429    3.000    0.000    0.857 
#    2.571    0.000    0.000    2.571    0.000    6.000 
#    0.000    0.000    0.000    1.286    0.000    1.429 
#
# Total GULP energy -623758.821643 kJ/mol
# GULP energy per Si atom -5569.275193 kJ/mol
# Density = 1.790538 g / cm^3
# Si number density = 17.946230 Si / 1000 Ang^3
#
#
#
# Elastic Constant Matrix: (Units=GPa)
#
#
# Indices 1 2 3 4 5 6 
#
# 1 202.2099 145.3385 -7.7830 0.0000 0.0000 0.0000
# 2 145.3385 202.2099 -7.7830 0.0000 0.0000 0.0000
# 3 -7.7830 -7.7830 17.7440 0.0000 0.0000 0.0000
# 4 0.0000 0.0000 0.0000 -2.5976 0.0000 0.0000
# 5 0.0000 0.0000 0.0000 0.0000 -2.5976 0.0000
# 6 0.0000 0.0000 0.0000 0.0000 0.0000 23.4187
#
#
#
# Elastic Compliance Matrix: (Units=1/GPa)
#
#
# Indices 1 2 3 4 5 6 
#
# 1 0.010259 -0.007324 0.001287 0.000000 0.000000 0.000000
# 2 -0.007324 0.010259 0.001287 0.000000 0.000000 0.000000
# 3 0.001287 0.001287 0.057486 0.000000 0.000000 0.000000
# 4 0.000000 0.000000 0.000000 -0.384966 0.000000 0.000000
# 5 0.000000 0.000000 0.000000 0.000000 -0.384966 0.000000
# 6 0.000000 0.000000 0.000000 0.000000 0.000000 0.042701
#
#
# Mechanical properties :
#
#
# Convention : Reuss Voigt Hill
#
# Bulk Modulus (GPa) = 14.59733 75.74541 45.17137
# Shear Modulus (GPa) = -8.10515 23.13743 7.51614
#
# Velocity S-wave (km/s) = -2.12748 3.59453 2.04872
# Velocity P-wave (km/s) = 1.45489 7.71531 5.55170
#
# Compressibility (1/GPa) = 0.06850568
#
# Stress axis : x y z
#
# Youngs Moduli (GPa) = 97.47304 97.47304 17.39543
#
# Poissons Ratio (x) = 0.71392 -0.02239
# Poissons Ratio (y) = 0.71392 -0.02239
# Poissons Ratio (z) = -0.12548 -0.12548
#
# Static dielectric constant tensor:
#      x y z
#    x 0.866850 0.000000 0.000000 
#    y 0.000000 0.866850 0.000000 
#    z 0.000000 0.000000 1.640130 
# 
# From -- ./inp_files/8181.got.cif
#   From: 2010.05.17/outbox.cif.g08.bks.cpg/sg132_5_cif.got.tgz:8181.got - 2010.05.20 12:30:18.
