data_PCOD9566591
_publ_section_title
;
Structure prediction by ZEFSAII (Michael W. Deem and Ramdas Pophale) SiO2 
 PCOD9566591
Probable space group: P 42/M M C
;
_chemical_formula_sum "Si O2"
_cell_formula_units_Z 120
_cell_length_a 27.580068
_cell_length_b 27.580068
_cell_length_c 8.438289
_cell_angle_alpha 90.000000
_cell_angle_beta 90.000000
_cell_angle_gamma 90.000000
_cell_volume 6418.670184
_symmetry_space_group_name_H-M "P 42/M M C"
_symmetry_group_IT_number 131
_symmetry_cell_setting 'tetragonal'
loop_
_space_group_symop_operation_xyz
x,y,z
-x,-y,z
-y,x,1/2+z
y,-x,1/2+z
-x,y,-z
x,-y,-z
y,x,1/2-z
-y,-x,1/2-z
-x,-y,-z
x,y,-z
y,-x,1/2-z
-y,x,1/2-z
x,-y,z
-x,y,z
-y,-x,1/2+z
y,x,1/2+z
loop_
_atom_site_type_symbol
_atom_site_label
_atom_site_fract_x
_atom_site_fract_y
_atom_site_fract_z
Si Si1 0.944539 0.730177 0.688882
Si Si2 0.625056 0.086632 0.311117
Si Si3 0.771789 0.150785 0.689640
Si Si4 0.000000 0.445142 0.192960
Si Si5 0.366660 0.444271 0.808599
Si Si6 0.694909 0.772027 0.309124
Si Si7 0.161873 0.447510 0.311667
Si Si8 0.587777 0.741262 0.307737
O O1 0.945254 0.733810 0.500000
O O2 0.926382 0.676392 0.735768
O O3 0.904332 0.767405 0.753469
O O4 0.000000 0.736716 0.747773
O O5 0.631667 0.084604 0.500000
O O6 0.598840 0.136614 0.267595
O O7 0.585777 0.046560 0.259110
O O8 0.816959 0.183041 0.750000
O O9 0.772781 0.151617 0.500000
O O10 0.722268 0.178831 0.743214
O O11 0.000000 0.500000 0.252270
O O12 0.000000 0.446821 0.000000
O O13 0.408453 0.408453 0.750000
O O14 0.373238 0.500000 0.755801
O O15 0.313392 0.425103 0.759401
O O16 0.367197 0.444034 0.000000
O O17 0.729920 0.729920 0.250000
O O18 0.693684 0.773286 0.500000
O O19 0.641396 0.758039 0.255474
O O20 0.155896 0.444057 0.500000
O O21 0.141270 0.500000 0.257790
O O22 0.218123 0.446355 0.265701
O O23 0.584846 0.743532 0.500000
#
# Coordination Sequence:
#
# PCOD9566591 Si02
#       8
#    16  16  16   8  16  16  16  16
#     4  11  23  38  57  83 117 152 191 240 293 343
#     4  11  21  36  57  79 106 144 193 243 292 344
#     4  10  20  35  56  83 117 155 197 238 282 337
#     4   9  18  32  51  75 101 135 189 251 300 345
#     4  10  22  39  59  83 108 135 170 212 262 325
#     4   9  18  31  50  78 107 138 174 213 259 314
#     4  11  24  38  52  75 106 139 178 225 280 337
#     4  10  20  36  57  80 106 137 174 215 262 322
#
# _framework density 18.695461000000002
#
# number of rings (size 3 to 8) (size 9 to 14) (size 15 to 20)
#    0.000    1.800    0.667    3.600    0.000    6.000 
#    0.000    0.667    0.000    1.600    0.000    0.000 
#    0.000    0.267    0.000    2.800    0.000    1.200 
#
# Total GULP energy -670064.611325 kJ/mol
# GULP energy per Si atom -5583.871761 kJ/mol
# Density = 1.865291 g / cm^3
# Si number density = 18.695461 Si / 1000 Ang^3
#
#
#
# Elastic Constant Matrix: (Units=GPa)
#
#
# Indices 1 2 3 4 5 6 
#
# 1 135.1570 62.4818 20.2898 0.0000 0.0000 0.0000
# 2 62.4818 135.1568 20.2894 0.0000 0.0000 0.0000
# 3 20.2898 20.2894 21.9829 0.0000 0.0000 0.0000
# 4 0.0000 0.0000 0.0000 22.0307 0.0000 0.0000
# 5 0.0000 0.0000 0.0000 0.0000 22.0306 0.0000
# 6 0.0000 0.0000 0.0000 0.0000 0.0000 15.9064
#
#
#
# Elastic Compliance Matrix: (Units=1/GPa)
#
#
# Indices 1 2 3 4 5 6 
#
# 1 0.010001 -0.003759 -0.005762 0.000000 0.000000 0.000000
# 2 -0.003759 0.010001 -0.005762 0.000000 0.000000 0.000000
# 3 -0.005762 -0.005762 0.056126 0.000000 0.000000 0.000000
# 4 0.000000 0.000000 0.000000 0.045391 0.000000 0.000000
# 5 0.000000 0.000000 0.000000 0.000000 0.045392 0.000000
# 6 0.000000 0.000000 0.000000 0.000000 0.000000 0.062868
#
#
# Mechanical properties :
#
#
# Convention : Reuss Voigt Hill
#
# Bulk Modulus (GPa) = 21.94715 55.37987 38.66351
# Shear Modulus (GPa) = 18.14670 24.60923 21.37797
#
# Velocity S-wave (km/s) = 3.11890 3.63205 3.38521
# Velocity P-wave (km/s) = 4.97341 6.87571 6.00043
#
# Compressibility (1/GPa) = 0.04556400
#
# Stress axis : x y z
#
# Youngs Moduli (GPa) = 99.98655 99.98707 17.81701
#
# Poissons Ratio (x) = 0.37581 0.10266
# Poissons Ratio (y) = 0.37580 0.10266
# Poissons Ratio (z) = 0.57613 0.57610
#
# Static dielectric constant tensor:
#      x y z
#    x 1.664760 0.000000 0.000000 
#    y 0.000000 1.664760 0.000000 
#    z 0.000000 0.000000 1.639780 
# 
# From -- ./inp_files/2627.got.cif
#   From: 2010.05.17/outbox.cif.g08.bks.cpg/sg131_2_cif.got.tgz:2627.got - 2010.05.20 12:21:01.
