data_PCOD9566800
_publ_section_title
;
Structure prediction by ZEFSAII (Michael W. Deem and Ramdas Pophale) SiO2 
 PCOD9566800
Probable space group: P 42/M M C
;
_chemical_formula_sum "Si O2"
_cell_formula_units_Z 34
_cell_length_a 9.903901
_cell_length_b 9.903901
_cell_length_c 17.766574
_cell_angle_alpha 90.000000
_cell_angle_beta 90.000000
_cell_angle_gamma 90.000000
_cell_volume 1742.674475
_symmetry_space_group_name_H-M "P 42/M M C"
_symmetry_group_IT_number 131
_symmetry_cell_setting 'tetragonal'
loop_
_space_group_symop_operation_xyz
x,y,z
-x,-y,z
-y,x,1/2+z
y,-x,1/2+z
-x,y,-z
x,-y,-z
y,x,1/2-z
-y,-x,1/2-z
-x,-y,-z
x,y,-z
y,-x,1/2-z
-y,x,1/2-z
x,-y,z
-x,y,z
-y,-x,1/2+z
y,x,1/2+z
loop_
_atom_site_type_symbol
_atom_site_label
_atom_site_fract_x
_atom_site_fract_y
_atom_site_fract_z
Si Si1 0.000000 0.718842 0.915584
Si Si2 0.000000 0.000000 0.500000
Si Si3 0.657809 0.280009 0.663366
Si Si4 0.845649 0.500000 0.410427
O O1 0.869667 0.676280 0.868515
O O2 0.000000 0.878848 0.935186
O O3 0.000000 0.656443 0.000000
O O4 0.700120 0.299881 0.750000
O O5 0.500000 0.319631 0.655765
O O6 0.759777 0.372721 0.616500
O O7 0.853152 0.500000 0.500000
O O8 0.000000 0.500000 0.380950
#
# Coordination Sequence:
#
# PCOD9566800 Si02
#       4
#     8   2  16   8
#     4  10  25  45  76 102 144 184 250 297 374 436
#     4   8  24  48  68 106 148 180 228 326 356 440
#     4  12  26  44  71 106 149 193 239 302 363 439
#     4  11  27  45  73 103 142 193 244 295 360 431
#
# _framework density 19.51024
#
# number of rings (size 3 to 8) (size 9 to 14) (size 15 to 20)
#    0.706    0.235    2.353    2.824    6.588    5.647 
#    0.000    0.000    0.000    0.000    0.000    0.000 
#    0.000    0.000    0.000    0.000    0.000    0.000 
#
# Total GULP energy -189361.111008 kJ/mol
# GULP energy per Si atom -5569.444441 kJ/mol
# Density = 1.946583 g / cm^3
# Si number density = 19.510240 Si / 1000 Ang^3
#
#
#
# Elastic Constant Matrix: (Units=GPa)
#
#
# Indices 1 2 3 4 5 6 
#
# 1 190.6894 55.0300 64.2163 0.0000 0.0000 0.0000
# 2 55.0300 190.6896 64.2157 0.0000 0.0000 0.0000
# 3 64.2163 64.2157 105.3413 0.0000 0.0000 0.0000
# 4 0.0000 0.0000 0.0000 8.4511 0.0000 0.0000
# 5 0.0000 0.0000 0.0000 0.0000 8.4519 0.0000
# 6 0.0000 0.0000 0.0000 0.0000 0.0000 12.6076
#
#
#
# Elastic Compliance Matrix: (Units=1/GPa)
#
#
# Indices 1 2 3 4 5 6 
#
# 1 0.006672 -0.000699 -0.003641 0.000000 0.000000 0.000000
# 2 -0.000699 0.006672 -0.003641 0.000000 0.000000 0.000000
# 3 -0.003641 -0.003641 0.013932 0.000000 0.000000 0.000000
# 4 0.000000 0.000000 0.000000 0.118328 0.000000 0.000000
# 5 0.000000 0.000000 0.000000 0.000000 0.118317 0.000000
# 6 0.000000 0.000000 0.000000 0.000000 0.000000 0.079317
#
#
# Mechanical properties :
#
#
# Convention : Reuss Voigt Hill
#
# Bulk Modulus (GPa) = 88.38924 94.84936 91.61930
# Shear Modulus (GPa) = 13.77515 26.11932 19.94723
#
# Velocity S-wave (km/s) = 2.66004 3.66286 3.20097
# Velocity P-wave (km/s) = 7.40519 8.16146 7.79250
#
# Compressibility (1/GPa) = 0.01131359
#
# Stress axis : x y z
#
# Youngs Moduli (GPa) = 149.87811 149.87907 71.77703
#
# Poissons Ratio (x) = 0.10481 0.26134
# Poissons Ratio (y) = 0.10481 0.26134
# Poissons Ratio (z) = 0.54571 0.54570
#
# Static dielectric constant tensor:
#      x y z
#    x 1.686130 0.000000 0.000000 
#    y 0.000000 1.686130 0.000000 
#    z 0.000000 0.000000 1.669250 
# 
# From -- ./inp_files/8667.got.cif
#   From: 2010.05.17/outbox.cif.g08.bks.cpg/sg131_5_cif.got.tgz:8667.got - 2010.05.20 12:21:01.
