data_PCOD9566872
_publ_section_title
;
Structure prediction by ZEFSAII (Michael W. Deem and Ramdas Pophale) SiO2 
 PCOD9566872
Probable space group: P 42/M M C
;
_chemical_formula_sum "Si O2"
_cell_formula_units_Z 64
_cell_length_a 14.522249
_cell_length_b 14.522249
_cell_length_c 14.898648
_cell_angle_alpha 90.000000
_cell_angle_beta 90.000000
_cell_angle_gamma 90.000000
_cell_volume 3142.061038
_symmetry_space_group_name_H-M "P 42/M M C"
_symmetry_group_IT_number 131
_symmetry_cell_setting 'tetragonal'
loop_
_space_group_symop_operation_xyz
x,y,z
-x,-y,z
-y,x,1/2+z
y,-x,1/2+z
-x,y,-z
x,-y,-z
y,x,1/2-z
-y,-x,1/2-z
-x,-y,-z
x,y,-z
y,-x,1/2-z
-y,x,1/2-z
x,-y,z
-x,y,z
-y,-x,1/2+z
y,x,1/2+z
loop_
_atom_site_type_symbol
_atom_site_label
_atom_site_fract_x
_atom_site_fract_y
_atom_site_fract_z
Si Si1 0.597723 0.611332 0.105815
Si Si2 0.801389 0.391753 0.891510
Si Si3 0.740262 0.891320 0.257567
Si Si4 0.395348 0.888190 0.899968
O O1 0.597369 0.500000 0.108758
O O2 0.500000 0.642216 0.147303
O O3 0.698222 0.636601 0.140293
O O4 0.595724 0.636085 0.000000
O O5 0.818149 0.500000 0.868288
O O6 0.870317 0.321171 0.845197
O O7 0.803770 0.386708 0.000000
O O8 0.832472 0.832472 0.250000
O O9 0.675131 0.860029 0.175334
O O10 0.757820 0.000000 0.250649
O O11 0.500000 0.858177 0.882447
O O12 0.396703 0.000000 0.900270
O O13 0.369043 0.857694 0.000000
#
# Coordination Sequence:
#
# PCOD9566872 Si02
#       4
#    16  16  16  16
#     4   7  10  20  42  73 111 154 190 214 244 301
#     4   9  18  34  59  92 126 156 186 225 284 362
#     4  11  24  40  58  81 111 149 196 248 296 345
#     4   8  15  32  60  88 109 133 172 227 289 344
#
# _framework density 20.368796
#
# number of rings (size 3 to 8) (size 9 to 14) (size 15 to 20)
#    0.000    3.250    0.000    3.750    0.000    3.250 
#    0.000    3.750    0.000    3.000    0.000    5.250 
#    0.000    0.000    0.000    9.000    0.000    0.750 
#
# Total GULP energy -357096.502088 kJ/mol
# GULP energy per Si atom -5579.632845 kJ/mol
# Density = 2.032244 g / cm^3
# Si number density = 20.368796 Si / 1000 Ang^3
#
#
#
# Elastic Constant Matrix: (Units=GPa)
#
#
# Indices 1 2 3 4 5 6 
#
# 1 103.1630 32.3964 37.7170 0.0000 0.0000 0.0000
# 2 32.3964 103.1630 37.7170 0.0000 0.0000 0.0000
# 3 37.7170 37.7170 64.1215 0.0000 0.0000 0.0000
# 4 0.0000 0.0000 0.0000 78.3597 0.0000 0.0000
# 5 0.0000 0.0000 0.0000 0.0000 78.3597 0.0000
# 6 0.0000 0.0000 0.0000 0.0000 0.0000 25.5100
#
#
#
# Elastic Compliance Matrix: (Units=1/GPa)
#
#
# Indices 1 2 3 4 5 6 
#
# 1 0.012549 -0.001582 -0.006451 0.000000 0.000000 0.000000
# 2 -0.001582 0.012549 -0.006451 0.000000 0.000000 0.000000
# 3 -0.006451 -0.006451 0.023184 0.000000 0.000000 0.000000
# 4 0.000000 0.000000 0.000000 0.012762 0.000000 0.000000
# 5 0.000000 0.000000 0.000000 0.000000 0.012762 0.000000
# 6 0.000000 0.000000 0.000000 0.000000 0.000000 0.039200
#
#
# Mechanical properties :
#
#
# Convention : Reuss Voigt Hill
#
# Bulk Modulus (GPa) = 51.77454 54.01202 52.89328
# Shear Modulus (GPa) = 33.69052 47.28701 40.48877
#
# Velocity S-wave (km/s) = 4.07138 4.82347 4.46329
# Velocity P-wave (km/s) = 6.89749 7.58918 7.25159
#
# Compressibility (1/GPa) = 0.01931451
#
# Stress axis : x y z
#
# Youngs Moduli (GPa) = 79.68989 79.68989 43.13335
#
# Poissons Ratio (x) = 0.12609 0.27823
# Poissons Ratio (y) = 0.12609 0.27823
# Poissons Ratio (z) = 0.51404 0.51404
#
# Static dielectric constant tensor:
#      x y z
#    x 1.740950 0.000000 0.000000 
#    y 0.000000 1.740950 0.000000 
#    z 0.000000 0.000000 1.757720 
# 
# From -- ./inp_files/5440.got.cif
#   From: 2010.05.17/outbox.cif.g08.bks.cpg/sg131_3_cif.got.tgz:5440.got - 2010.05.20 12:21:01.
