data_PCOD9566491
_publ_section_title
;
Structure prediction by ZEFSAII (Michael W. Deem and Ramdas Pophale) SiO2 
 PCOD9566491
Probable space group: P 42/M M C
;
_chemical_formula_sum "Si O2"
_cell_formula_units_Z 96
_cell_length_a 23.494621
_cell_length_b 23.494621
_cell_length_c 8.674819
_cell_angle_alpha 90.000000
_cell_angle_beta 90.000000
_cell_angle_gamma 90.000000
_cell_volume 4788.475937
_symmetry_space_group_name_H-M "P 42/M M C"
_symmetry_group_IT_number 131
_symmetry_cell_setting 'tetragonal'
loop_
_space_group_symop_operation_xyz
x,y,z
-x,-y,z
-y,x,1/2+z
y,-x,1/2+z
-x,y,-z
x,-y,-z
y,x,1/2-z
-y,-x,1/2-z
-x,-y,-z
x,y,-z
y,-x,1/2-z
-y,x,1/2-z
x,-y,z
-x,y,z
-y,-x,1/2+z
y,x,1/2+z
loop_
_atom_site_type_symbol
_atom_site_label
_atom_site_fract_x
_atom_site_fract_y
_atom_site_fract_z
Si Si1 0.822222 0.563278 0.682650
Si Si2 0.844449 0.067074 0.315672
Si Si3 0.643957 0.437339 0.814943
Si Si4 0.654112 0.261160 0.315338
Si Si5 0.603836 0.066332 0.681823
Si Si6 0.724561 0.068673 0.825500
O O1 0.812827 0.565765 0.500000
O O2 0.801887 0.500000 0.738266
O O3 0.794262 0.620051 0.756829
O O4 0.888877 0.567514 0.722684
O O5 0.895534 0.104467 0.250000
O O6 0.841847 0.071884 0.500000
O O7 0.784558 0.087779 0.244236
O O8 0.851836 0.000000 0.277589
O O9 0.584580 0.415421 0.750000
O O10 0.657696 0.500000 0.759330
O O11 0.691481 0.392536 0.766381
O O12 0.642372 0.436990 0.000000
O O13 0.714111 0.285890 0.250000
O O14 0.658817 0.258695 0.500000
O O15 0.593364 0.073413 0.500000
O O16 0.669904 0.079670 0.720590
O O17 0.593824 0.000000 0.721808
O O18 0.728455 0.000000 0.833053
O O19 0.715906 0.090156 0.000000
#
# Coordination Sequence:
#
# PCOD9566491 Si02
#       6
#    16  16  16  16  16  16
#     4  11  24  40  60  89 124 161 201 244 292 348
#     4  10  20  33  50  74 106 145 191 243 300 364
#     4   9  18  31  47  69  97 131 171 215 264 317
#     4  10  20  37  60  83 110 146 190 238 288 341
#     4  10  21  38  61  88 118 153 193 237 289 351
#     4   9  17  32  55  79 104 137 178 224 276 336
#
# _framework density 20.048133
#
# number of rings (size 3 to 8) (size 9 to 14) (size 15 to 20)
#    0.000    2.167    0.000    3.000    0.000    7.667 
#    0.000    4.167    0.000    0.000    0.000    0.000 
#    0.000    0.000    0.000    0.000    0.000    0.000 
#
# Total GULP energy -535278.993417 kJ/mol
# GULP energy per Si atom -5575.822848 kJ/mol
# Density = 2.000250 g / cm^3
# Si number density = 20.048133 Si / 1000 Ang^3
#
#
#
# Elastic Constant Matrix: (Units=GPa)
#
#
# Indices 1 2 3 4 5 6 
#
# 1 66.4213 22.4075 13.0120 0.0000 0.0000 0.0000
# 2 22.4075 66.4241 13.0113 0.0000 0.0000 0.0000
# 3 13.0120 13.0113 32.9143 0.0000 0.0000 0.0000
# 4 0.0000 0.0000 0.0000 27.4022 0.0000 0.0000
# 5 0.0000 0.0000 0.0000 0.0000 27.4022 0.0000
# 6 0.0000 0.0000 0.0000 0.0000 0.0000 21.3620
#
#
#
# Elastic Compliance Matrix: (Units=1/GPa)
#
#
# Indices 1 2 3 4 5 6 
#
# 1 0.017726 -0.004994 -0.005034 0.000000 0.000000 0.000000
# 2 -0.004994 0.017725 -0.005033 0.000000 0.000000 0.000000
# 3 -0.005034 -0.005033 0.034361 0.000000 0.000000 0.000000
# 4 0.000000 0.000000 0.000000 0.036493 0.000000 0.000000
# 5 0.000000 0.000000 0.000000 0.000000 0.036493 0.000000
# 6 0.000000 0.000000 0.000000 0.000000 0.000000 0.046812
#
#
# Mechanical properties :
#
#
# Convention : Reuss Voigt Hill
#
# Bulk Modulus (GPa) = 25.19367 29.18014 27.18690
# Shear Modulus (GPa) = 21.46267 23.05521 22.25894
#
# Velocity S-wave (km/s) = 3.27549 3.39483 3.33569
# Velocity P-wave (km/s) = 5.18642 5.47295 5.33161
#
# Compressibility (1/GPa) = 0.03969251
#
# Stress axis : x y z
#
# Youngs Moduli (GPa) = 56.41382 56.41692 29.10248
#
# Poissons Ratio (x) = 0.28173 0.14649
# Poissons Ratio (y) = 0.28172 0.14646
# Poissons Ratio (z) = 0.28397 0.28393
#
# Static dielectric constant tensor:
#      x y z
#    x 1.742170 0.000000 0.000000 
#    y 0.000000 1.742180 0.000000 
#    z 0.000000 0.000000 1.689310 
# 
# From -- ./inp_files/2255.got.cif
#   From: 2010.05.17/outbox.cif.g08.bks.cpg/sg131_2_cif.got.tgz:2255.got - 2010.05.20 12:21:01.
