data_PCOD9566327
_publ_section_title
;
Structure prediction by ZEFSAII (Michael W. Deem and Ramdas Pophale) SiO2 
 PCOD9566327
Probable space group: P 42/M M C
;
_chemical_formula_sum "Si O2"
_cell_formula_units_Z 120
_cell_length_a 21.524591
_cell_length_b 21.524591
_cell_length_c 14.670539
_cell_angle_alpha 90.000000
_cell_angle_beta 90.000000
_cell_angle_gamma 90.000000
_cell_volume 6796.978343
_symmetry_space_group_name_H-M "P 42/M M C"
_symmetry_group_IT_number 131
_symmetry_cell_setting 'tetragonal'
loop_
_space_group_symop_operation_xyz
x,y,z
-x,-y,z
-y,x,1/2+z
y,-x,1/2+z
-x,y,-z
x,-y,-z
y,x,1/2-z
-y,-x,1/2-z
-x,-y,-z
x,y,-z
y,-x,1/2-z
-y,x,1/2-z
x,-y,z
-x,y,z
-y,-x,1/2+z
y,x,1/2+z
loop_
_atom_site_type_symbol
_atom_site_label
_atom_site_fract_x
_atom_site_fract_y
_atom_site_fract_z
Si Si1 0.569711 0.930503 0.172191
Si Si2 0.571443 0.203613 0.259060
Si Si3 0.215566 0.674665 0.892558
Si Si4 0.102634 0.700394 0.598296
Si Si5 0.867650 0.234535 0.775712
Si Si6 0.074340 0.867780 0.103419
Si Si7 0.245642 0.337889 0.602382
Si Si8 0.000000 0.072362 0.388468
O O1 0.500000 0.925661 0.129264
O O2 0.574483 0.870606 0.237507
O O3 0.630590 0.923819 0.109406
O O4 0.572647 0.000000 0.213542
O O5 0.500000 0.221899 0.257746
O O6 0.605457 0.216998 0.353567
O O7 0.609974 0.238477 0.179329
O O8 0.163433 0.709754 0.832733
O O9 0.282317 0.707183 0.875891
O O10 0.202743 0.679204 0.000000
O O11 0.082836 0.726480 0.500000
O O12 0.093780 0.740637 0.688962
O O13 0.177343 0.693006 0.597945
O O14 0.809934 0.190067 0.750000
O O15 0.908821 0.191420 0.839187
O O16 0.099780 0.933935 0.140819
O O17 0.000000 0.874356 0.099400
O O18 0.097797 0.860267 0.000000
O O19 0.258905 0.362211 0.500000
O O20 0.000000 0.072834 0.500000
O O21 0.000000 0.000000 0.360043
#
# Coordination Sequence:
#
# PCOD9566327 Si02
#       8
#    16  16  16  16  16  16  16   8
#     4   9  18  33  53  74 100 139 184 227 270 318
#     4  10  19  33  52  79 112 143 182 227 268 317
#     4  11  20  34  56  79 106 143 180 216 267 321
#     4  10  20  33  51  74 102 135 174 222 269 320
#     4  12  21  35  53  78 104 134 174 216 267 332
#     4   9  19  36  58  81 101 125 162 213 272 334
#     4   9  17  32  54  77 102 134 175 216 265 321
#     4   7  12  30  58  78  95 119 151 201 265 328
#
# _framework density 17.654903999999998
#
# number of rings (size 3 to 8) (size 9 to 14) (size 15 to 20)
#    0.000    2.200    4.000    1.600    0.000    2.133 
#    1.200    3.333    0.000    0.400    0.000    1.867 
#    0.000    5.867    0.000   11.733    0.000    0.267 
#
# Total GULP energy -668751.105445 kJ/mol
# GULP energy per Si atom -5572.925879 kJ/mol
# Density = 1.761472 g / cm^3
# Si number density = 17.654904 Si / 1000 Ang^3
#
#
#
# Elastic Constant Matrix: (Units=GPa)
#
#
# Indices 1 2 3 4 5 6 
#
# 1 71.5870 24.4608 42.0754 0.0000 0.0000 0.0000
# 2 24.4608 71.5863 42.0751 0.0000 0.0000 0.0000
# 3 42.0754 42.0751 94.4569 0.0000 0.0000 0.0000
# 4 0.0000 0.0000 0.0000 7.8454 0.0000 0.0000
# 5 0.0000 0.0000 0.0000 0.0000 7.8471 0.0000
# 6 0.0000 0.0000 0.0000 0.0000 0.0000 20.6521
#
#
#
# Elastic Compliance Matrix: (Units=1/GPa)
#
#
# Indices 1 2 3 4 5 6 
#
# 1 0.019148 -0.002072 -0.007606 0.000000 0.000000 0.000000
# 2 -0.002072 0.019148 -0.007606 0.000000 0.000000 0.000000
# 3 -0.007606 -0.007606 0.017363 0.000000 0.000000 0.000000
# 4 0.000000 0.000000 0.000000 0.127463 0.000000 0.000000
# 5 0.000000 0.000000 0.000000 0.000000 0.127435 0.000000
# 6 0.000000 0.000000 0.000000 0.000000 0.000000 0.048421
#
#
# Mechanical properties :
#
#
# Convention : Reuss Voigt Hill
#
# Bulk Modulus (GPa) = 47.41710 50.53920 48.97815
# Shear Modulus (GPa) = 12.48199 15.87019 14.17609
#
# Velocity S-wave (km/s) = 2.66183 3.00144 2.83672
# Velocity P-wave (km/s) = 6.03019 6.37964 6.20737
#
# Compressibility (1/GPa) = 0.02108944
#
# Stress axis : x y z
#
# Youngs Moduli (GPa) = 52.22577 52.22549 57.59332
#
# Poissons Ratio (x) = 0.10822 0.43807
# Poissons Ratio (y) = 0.10822 0.43807
# Poissons Ratio (z) = 0.39724 0.39724
#
# Static dielectric constant tensor:
#      x y z
#    x 1.614920 0.000000 0.000000 
#    y 0.000000 1.614920 0.000000 
#    z 0.000000 0.000000 1.643650 
# 
# From -- ./inp_files/6353.got.cif
#   From: 2010.05.17/outbox.cif.g08.bks.cpg/sg131_4_cif.got.tgz:6353.got - 2010.05.20 12:21:01.
