data_PCOD9566840
_publ_section_title
;
Structure prediction by ZEFSAII (Michael W. Deem and Ramdas Pophale) SiO2 
 PCOD9566840
Probable space group: P 42/M M C
;
_chemical_formula_sum "Si O2"
_cell_formula_units_Z 80
_cell_length_a 14.146595
_cell_length_b 14.146595
_cell_length_c 22.063571
_cell_angle_alpha 90.000000
_cell_angle_beta 90.000000
_cell_angle_gamma 90.000000
_cell_volume 4415.497522
_symmetry_space_group_name_H-M "P 42/M M C"
_symmetry_group_IT_number 131
_symmetry_cell_setting 'tetragonal'
loop_
_space_group_symop_operation_xyz
x,y,z
-x,-y,z
-y,x,1/2+z
y,-x,1/2+z
-x,y,-z
x,-y,-z
y,x,1/2-z
-y,-x,1/2-z
-x,-y,-z
x,y,-z
y,-x,1/2-z
-y,x,1/2-z
x,-y,z
-x,y,z
-y,-x,1/2+z
y,x,1/2+z
loop_
_atom_site_type_symbol
_atom_site_label
_atom_site_fract_x
_atom_site_fract_y
_atom_site_fract_z
Si Si1 0.890306 0.387499 0.610829
Si Si2 0.293458 0.298261 0.568537
Si Si3 0.105616 0.614101 0.753385
Si Si4 0.612028 0.302817 0.690256
Si Si5 0.606649 0.104975 0.572310
O O1 0.872537 0.500000 0.602741
O O2 0.815298 0.327180 0.573775
O O3 0.877428 0.364887 0.682349
O O4 0.000000 0.370479 0.595446
O O5 0.327625 0.322171 0.500000
O O6 0.343378 0.342253 0.628027
O O7 0.318356 0.188080 0.579026
O O8 0.102557 0.500000 0.757176
O O9 0.194885 0.644545 0.793332
O O10 0.000000 0.649183 0.768711
O O11 0.639266 0.360735 0.750000
O O12 0.500000 0.302617 0.683340
O O13 0.598010 0.096946 0.500000
O O14 0.500000 0.130081 0.594761
O O15 0.629723 0.000000 0.595547
#
# Coordination Sequence:
#
# PCOD9566840 Si02
#       5
#    16  16  16  16  16
#     4   9  18  35  58  82 109 141 182 234 287 335
#     4  11  22  34  54  85 116 145 184 231 277 332
#     4   8  15  31  56  81 102 130 176 231 278 322
#     4  11  22  36  54  76 107 146 185 224 276 336
#     4   8  15  30  51  75 107 146 184 223 270 324
#
# _framework density 18.118003000000002
#
# number of rings (size 3 to 8) (size 9 to 14) (size 15 to 20)
#    0.000    2.600    2.000    2.400    0.000    3.000 
#    0.000    3.000    0.000    2.400    0.000   11.200 
#    0.000    0.400    0.000    0.000    0.000    0.000 
#
# Total GULP energy -445472.883852 kJ/mol
# GULP energy per Si atom -5568.411048 kJ/mol
# Density = 1.807677 g / cm^3
# Si number density = 18.118003 Si / 1000 Ang^3
#
#
#
# Elastic Constant Matrix: (Units=GPa)
#
#
# Indices 1 2 3 4 5 6 
#
# 1 61.9660 40.0479 33.2108 0.0000 0.0000 0.0000
# 2 40.0479 61.9648 33.2093 0.0000 0.0000 0.0000
# 3 33.2108 33.2093 121.7550 0.0000 0.0000 0.0000
# 4 0.0000 0.0000 0.0000 15.5505 0.0000 0.0000
# 5 0.0000 0.0000 0.0000 0.0000 15.5510 0.0000
# 6 0.0000 0.0000 0.0000 0.0000 0.0000 9.7410
#
#
#
# Elastic Compliance Matrix: (Units=1/GPa)
#
#
# Indices 1 2 3 4 5 6 
#
# 1 0.028772 -0.016853 -0.003251 0.000000 0.000000 0.000000
# 2 -0.016853 0.028773 -0.003251 0.000000 0.000000 0.000000
# 3 -0.003251 -0.003251 0.009987 0.000000 0.000000 0.000000
# 4 0.000000 0.000000 0.000000 0.064307 0.000000 0.000000
# 5 0.000000 0.000000 0.000000 0.000000 0.064304 0.000000
# 6 0.000000 0.000000 0.000000 0.000000 0.000000 0.102659
#
#
# Mechanical properties :
#
#
# Convention : Reuss Voigt Hill
#
# Bulk Modulus (GPa) = 48.02833 50.95798 49.49315
# Shear Modulus (GPa) = 14.18628 17.44969 15.81799
#
# Velocity S-wave (km/s) = 2.80124 3.10677 2.95795
# Velocity P-wave (km/s) = 6.08513 6.40750 6.24839
#
# Compressibility (1/GPa) = 0.02082105
#
# Stress axis : x y z
#
# Youngs Moduli (GPa) = 34.75557 34.75532 100.13221
#
# Poissons Ratio (x) = 0.58573 0.32557
# Poissons Ratio (y) = 0.58574 0.32552
# Poissons Ratio (z) = 0.11300 0.11299
#
# Static dielectric constant tensor:
#      x y z
#    x 1.630540 0.000000 0.000000 
#    y 0.000000 1.630540 0.000000 
#    z 0.000000 0.000000 1.720220 
# 
# From -- ./inp_files/10971.got.cif
#   From: 2010.05.17/outbox.cif.g08.bks.cpg/sg131_6_cif.got.tgz:10971.got - 2010.05.20 12:21:01.
