data_PCOD9566596
_publ_section_title
;
Structure prediction by ZEFSAII (Michael W. Deem and Ramdas Pophale) SiO2 
 PCOD9566596
Probable space group: P 42/M M C
;
_chemical_formula_sum "Si O2"
_cell_formula_units_Z 96
_cell_length_a 15.582146
_cell_length_b 15.582146
_cell_length_c 19.936131
_cell_angle_alpha 90.000000
_cell_angle_beta 90.000000
_cell_angle_gamma 90.000000
_cell_volume 4840.557877
_symmetry_space_group_name_H-M "P 42/M M C"
_symmetry_group_IT_number 131
_symmetry_cell_setting 'tetragonal'
loop_
_space_group_symop_operation_xyz
x,y,z
-x,-y,z
-y,x,1/2+z
y,-x,1/2+z
-x,y,-z
x,-y,-z
y,x,1/2-z
-y,-x,1/2-z
-x,-y,-z
x,y,-z
y,-x,1/2-z
-y,x,1/2-z
x,-y,z
-x,y,z
-y,-x,1/2+z
y,x,1/2+z
loop_
_atom_site_type_symbol
_atom_site_label
_atom_site_fract_x
_atom_site_fract_y
_atom_site_fract_z
Si Si1 0.344816 0.268919 0.575318
Si Si2 0.098124 0.649810 0.707946
Si Si3 0.759734 0.096280 0.423715
Si Si4 0.404799 0.269850 0.720294
Si Si5 0.148054 0.905690 0.820338
Si Si6 0.402138 0.812990 0.924780
O O1 0.380191 0.282025 0.500000
O O2 0.309200 0.171900 0.580091
O O3 0.402469 0.280850 0.640255
O O4 0.263716 0.333652 0.582749
O O5 0.172444 0.617697 0.757708
O O6 0.107070 0.752190 0.698713
O O7 0.120056 0.611535 0.634801
O O8 0.000000 0.630485 0.727920
O O9 0.794410 0.099507 0.500000
O O10 0.833064 0.116263 0.370276
O O11 0.725716 0.000000 0.412189
O O12 0.332710 0.332710 0.750000
O O13 0.500000 0.289986 0.746377
O O14 0.099716 0.900284 0.750000
O O15 0.138107 0.000000 0.850749
O O16 0.500000 0.780168 0.920628
O O17 0.390046 0.849273 0.000000
#
# Coordination Sequence:
#
# PCOD9566596 Si02
#       6
#    16  16  16  16  16  16
#     4  10  21  40  64  89 120 159 206 254 305 364
#     4  11  23  39  62  91 124 162 205 256 312 370
#     4  10  20  35  57  83 114 157 205 252 304 358
#     4  12  25  42  65  93 128 164 204 255 310 370
#     4  11  22  35  53  78 113 157 204 252 301 358
#     4  10  20  36  61  90 121 156 194 246 310 374
#
# _framework density 19.832425000000001
#
# number of rings (size 3 to 8) (size 9 to 14) (size 15 to 20)
#    0.000    1.333    3.333    2.500    0.000    5.667 
#    0.000    3.333    0.000    0.000    0.000    7.000 
#    0.000    0.000    0.000    0.000    0.000    0.000 
#
# Total GULP energy -536114.780703 kJ/mol
# GULP energy per Si atom -5584.528966 kJ/mol
# Density = 1.978729 g / cm^3
# Si number density = 19.832425 Si / 1000 Ang^3
#
#
#
# Elastic Constant Matrix: (Units=GPa)
#
#
# Indices 1 2 3 4 5 6 
#
# 1 89.3833 32.2662 22.9392 0.0000 0.0000 0.0000
# 2 32.2662 89.3833 22.9392 0.0000 0.0000 0.0000
# 3 22.9392 22.9392 104.1265 0.0000 0.0000 0.0000
# 4 0.0000 0.0000 0.0000 5.6183 0.0000 0.0000
# 5 0.0000 0.0000 0.0000 0.0000 5.6183 0.0000
# 6 0.0000 0.0000 0.0000 0.0000 0.0000 1.5399
#
#
#
# Elastic Compliance Matrix: (Units=1/GPa)
#
#
# Indices 1 2 3 4 5 6 
#
# 1 0.013237 -0.004271 -0.001975 0.000000 0.000000 0.000000
# 2 -0.004271 0.013237 -0.001975 0.000000 0.000000 0.000000
# 3 -0.001975 -0.001975 0.010474 0.000000 0.000000 0.000000
# 4 0.000000 0.000000 0.000000 0.177989 0.000000 0.000000
# 5 0.000000 0.000000 0.000000 0.000000 0.177989 0.000000
# 6 0.000000 0.000000 0.000000 0.000000 0.000000 0.649394
#
#
# Mechanical properties :
#
#
# Convention : Reuss Voigt Hill
#
# Bulk Modulus (GPa) = 48.77065 48.79802 48.78434
# Shear Modulus (GPa) = 4.69221 16.20521 10.44871
#
# Velocity S-wave (km/s) = 1.53983 2.86161 2.29781
# Velocity P-wave (km/s) = 5.27316 5.96465 5.62953
#
# Compressibility (1/GPa) = 0.02050413
#
# Stress axis : x y z
#
# Youngs Moduli (GPa) = 75.54841 75.54841 95.47529
#
# Poissons Ratio (x) = 0.32269 0.18857
# Poissons Ratio (y) = 0.32269 0.18857
# Poissons Ratio (z) = 0.14921 0.14921
#
# Static dielectric constant tensor:
#      x y z
#    x 1.690880 0.000000 0.000000 
#    y 0.000000 1.690880 0.000000 
#    z 0.000000 0.000000 1.719330 
# 
# From -- ./inp_files/9723.got.cif
#   From: 2010.05.17/outbox.cif.g08.bks.cpg/sg131_5_cif.got.tgz:9723.got - 2010.05.20 12:21:01.
