data_PCOD9566029
_publ_section_title
;
Structure prediction by ZEFSAII (Michael W. Deem and Ramdas Pophale) SiO2 
 PCOD9566029
Probable space group: P 42/M M C
;
_chemical_formula_sum "Si O2"
_cell_formula_units_Z 112
_cell_length_a 28.429562
_cell_length_b 28.429562
_cell_length_c 9.199066
_cell_angle_alpha 90.000000
_cell_angle_beta 90.000000
_cell_angle_gamma 90.000000
_cell_volume 7435.053063
_symmetry_space_group_name_H-M "P 42/M M C"
_symmetry_group_IT_number 131
_symmetry_cell_setting 'tetragonal'
loop_
_space_group_symop_operation_xyz
x,y,z
-x,-y,z
-y,x,1/2+z
y,-x,1/2+z
-x,y,-z
x,-y,-z
y,x,1/2-z
-y,-x,1/2-z
-x,-y,-z
x,y,-z
y,-x,1/2-z
-y,x,1/2-z
x,-y,z
-x,y,z
-y,-x,1/2+z
y,x,1/2+z
loop_
_atom_site_type_symbol
_atom_site_label
_atom_site_fract_x
_atom_site_fract_y
_atom_site_fract_z
Si Si1 0.689704 0.877675 0.326066
Si Si2 0.223789 0.945073 0.327032
Si Si3 0.500000 0.229686 0.174504
Si Si4 0.125715 0.944491 0.172284
Si Si5 0.405832 0.877309 0.167942
Si Si6 0.767158 0.696744 0.172846
Si Si7 0.500000 0.871333 0.673512
Si Si8 0.397599 0.763029 0.834120
O O1 0.681637 0.880254 0.500000
O O2 0.733264 0.911056 0.288793
O O3 0.642463 0.892632 0.243261
O O4 0.700598 0.822915 0.291723
O O5 0.214602 0.940050 0.500000
O O6 0.176766 0.933399 0.239146
O O7 0.235457 0.000000 0.300195
O O8 0.500000 0.183230 0.273973
O O9 0.450198 0.255100 0.200762
O O10 0.500000 0.216620 0.000000
O O11 0.086749 0.913252 0.250000
O O12 0.117208 0.000000 0.197978
O O13 0.125541 0.936162 0.000000
O O14 0.452257 0.891604 0.256671
O O15 0.403312 0.819988 0.169989
O O16 0.409056 0.891678 0.000000
O O17 0.736743 0.736743 0.250000
O O18 0.751157 0.645332 0.229443
O O19 0.761999 0.699972 0.000000
O O20 0.500000 0.874498 0.500000
O O21 0.385535 0.750045 0.000000
#
# Coordination Sequence:
#
# PCOD9566029 Si02
#       8
#    16  16   8  16  16  16   8  16
#     4   9  18  31  46  66  88 112 147 185 219 260
#     4   9  18  34  54  73  95 121 147 180 222 265
#     4   8  14  24  38  56  78 105 137 175 219 264
#     4  10  21  36  54  76 100 124 150 180 215 259
#     4   9  16  26  40  59  84 113 143 177 219 264
#     4  10  19  29  40  56  82 114 147 181 214 251
#     4  10  16  22  36  58  85 113 140 176 219 262
#     4   8  14  25  39  55  77 105 138 174 212 254
#
# _framework density 15.063779
#
# number of rings (size 3 to 8) (size 9 to 14) (size 15 to 20)
#    0.000    2.857    0.000    2.786    0.000    6.143 
#    0.000    2.143    0.000    0.000    0.000    0.500 
#    0.000    4.000    0.000    0.000    0.000    0.357 
#
# Total GULP energy -623765.259877 kJ/mol
# GULP energy per Si atom -5569.332677 kJ/mol
# Density = 1.502949 g / cm^3
# Si number density = 15.063779 Si / 1000 Ang^3
#
#
#
# Elastic Constant Matrix: (Units=GPa)
#
#
# Indices 1 2 3 4 5 6 
#
# 1 81.0486 68.5715 62.9557 0.0000 0.0000 0.0000
# 2 68.5715 81.0361 62.9553 0.0000 0.0000 0.0000
# 3 62.9557 62.9553 84.5225 0.0000 0.0000 0.0000
# 4 0.0000 0.0000 0.0000 21.5888 0.0000 0.0000
# 5 0.0000 0.0000 0.0000 0.0000 21.5890 0.0000
# 6 0.0000 0.0000 0.0000 0.0000 0.0000 -2.2256
#
#
#
# Elastic Compliance Matrix: (Units=1/GPa)
#
#
# Indices 1 2 3 4 5 6 
#
# 1 0.049041 -0.031138 -0.013335 0.000000 0.000000 0.000000
# 2 -0.031138 0.049058 -0.013347 0.000000 0.000000 0.000000
# 3 -0.013335 -0.013347 0.031705 0.000000 0.000000 0.000000
# 4 0.000000 0.000000 0.000000 0.046320 0.000000 0.000000
# 5 0.000000 0.000000 0.000000 0.000000 0.046320 0.000000
# 6 0.000000 0.000000 0.000000 0.000000 0.000000 -0.449314
#
#
# Mechanical properties :
#
#
# Convention : Reuss Voigt Hill
#
# Bulk Modulus (GPa) = 70.60395 70.61911 70.61153
# Shear Modulus (GPa) = -46.94403 11.66541 -17.63931
#
# Velocity S-wave (km/s) = -5.58849 2.78583 -3.42566
# Velocity P-wave (km/s) = 2.30872 7.57163 5.59731
#
# Compressibility (1/GPa) = 0.01416351
#
# Stress axis : x y z
#
# Youngs Moduli (GPa) = 20.39122 20.38414 31.54088
#
# Poissons Ratio (x) = 0.63472 0.42059
# Poissons Ratio (y) = 0.63494 0.42098
# Poissons Ratio (z) = 0.27191 0.27207
#
# Static dielectric constant tensor:
#      x y z
#    x 1.495440 0.000000 0.000000 
#    y 0.000000 1.495440 0.000000 
#    z 0.000000 0.000000 1.501000 
# 
# From -- ./inp_files/2780.got.cif
#   From: 2010.05.17/outbox.cif.g08.bks.cpg/sg131_2_cif.got.tgz:2780.got - 2010.05.20 12:21:01.
