data_PCOD9566620
_publ_section_title
;
Structure prediction by ZEFSAII (Michael W. Deem and Ramdas Pophale) SiO2 
 PCOD9566620
Probable space group: P 42/M M C
;
_chemical_formula_sum "Si O2"
_cell_formula_units_Z 80
_cell_length_a 13.919148
_cell_length_b 13.919148
_cell_length_c 20.989474
_cell_angle_alpha 90.000000
_cell_angle_beta 90.000000
_cell_angle_gamma 90.000000
_cell_volume 4066.556967
_symmetry_space_group_name_H-M "P 42/M M C"
_symmetry_group_IT_number 131
_symmetry_cell_setting 'tetragonal'
loop_
_space_group_symop_operation_xyz
x,y,z
-x,-y,z
-y,x,1/2+z
y,-x,1/2+z
-x,y,-z
x,-y,-z
y,x,1/2-z
-y,-x,1/2-z
-x,-y,-z
x,y,-z
y,-x,1/2-z
-y,x,1/2-z
x,-y,z
-x,y,z
-y,-x,1/2+z
y,x,1/2+z
loop_
_atom_site_type_symbol
_atom_site_label
_atom_site_fract_x
_atom_site_fract_y
_atom_site_fract_z
Si Si1 0.609558 0.770398 0.751356
Si Si2 0.393737 0.110443 0.882132
Si Si3 0.886261 0.771144 0.805281
Si Si4 0.765575 0.232027 0.071680
Si Si5 0.610761 0.607460 0.422822
O O1 0.674829 0.674829 0.750000
O O2 0.500000 0.751490 0.733732
O O3 0.611244 0.820862 0.820630
O O4 0.663430 0.849063 0.708418
O O5 0.500000 0.120079 0.910944
O O6 0.310295 0.145011 0.927835
O O7 0.381214 0.000000 0.862285
O O8 0.835520 0.835520 0.750000
O O9 0.844143 0.792343 0.875219
O O10 0.000000 0.780522 0.801855
O O11 0.697945 0.322461 0.092688
O O12 0.801817 0.249135 0.000000
O O13 0.612732 0.603142 0.500000
O O14 0.641849 0.500000 0.400063
O O15 0.500000 0.620635 0.403314
#
# Coordination Sequence:
#
# PCOD9566620 Si02
#       5
#    16  16  16  16  16
#     4  10  20  38  64  94 126 161 204 251 299 357
#     4  10  20  36  59  88 123 161 201 246 301 368
#     4  11  24  44  67  89 117 161 213 257 306 369
#     4  11  22  37  60  92 127 157 196 256 315 367
#     4   8  15  30  53  82 120 167 210 243 286 357
#
# _framework density 19.672663
#
# number of rings (size 3 to 8) (size 9 to 14) (size 15 to 20)
#    0.000    2.000    4.000    1.800    0.000    4.400 
#    0.000    1.000    0.000    0.000    0.000    7.000 
#    0.000    0.000    0.000    0.000    0.000    0.000 
#
# Total GULP energy -446365.963373 kJ/mol
# GULP energy per Si atom -5579.574542 kJ/mol
# Density = 1.962789 g / cm^3
# Si number density = 19.672663 Si / 1000 Ang^3
#
#
#
# Elastic Constant Matrix: (Units=GPa)
#
#
# Indices 1 2 3 4 5 6 
#
# 1 136.4142 54.5568 39.0502 0.0000 0.0000 0.0000
# 2 54.5568 136.4142 39.0502 0.0000 0.0000 0.0000
# 3 39.0502 39.0502 100.8216 0.0000 0.0000 0.0000
# 4 0.0000 0.0000 0.0000 9.2527 0.0000 0.0000
# 5 0.0000 0.0000 0.0000 0.0000 9.2527 0.0000
# 6 0.0000 0.0000 0.0000 0.0000 0.0000 12.8985
#
#
#
# Elastic Compliance Matrix: (Units=1/GPa)
#
#
# Indices 1 2 3 4 5 6 
#
# 1 0.009219 -0.002997 -0.002410 0.000000 0.000000 0.000000
# 2 -0.002997 0.009219 -0.002410 0.000000 0.000000 0.000000
# 3 -0.002410 -0.002410 0.011785 0.000000 0.000000 0.000000
# 4 0.000000 0.000000 0.000000 0.108077 0.000000 0.000000
# 5 0.000000 0.000000 0.000000 0.000000 0.108077 0.000000
# 6 0.000000 0.000000 0.000000 0.000000 0.000000 0.077528
#
#
# Mechanical properties :
#
#
# Convention : Reuss Voigt Hill
#
# Bulk Modulus (GPa) = 68.54167 70.99606 69.76886
# Shear Modulus (GPa) = 14.51788 22.34696 18.43242
#
# Velocity S-wave (km/s) = 2.71951 3.37403 3.06429
# Velocity P-wave (km/s) = 6.69161 7.16560 6.93266
#
# Compressibility (1/GPa) = 0.01458966
#
# Stress axis : x y z
#
# Youngs Moduli (GPa) = 108.46975 108.46975 84.85146
#
# Poissons Ratio (x) = 0.32511 0.20448
# Poissons Ratio (y) = 0.32511 0.20448
# Poissons Ratio (z) = 0.26140 0.26140
#
# Static dielectric constant tensor:
#      x y z
#    x 1.696370 0.000000 0.000000 
#    y 0.000000 1.696370 0.000000 
#    z 0.000000 0.000000 1.740110 
# 
# From -- ./inp_files/9368.got.cif
#   From: 2010.05.17/outbox.cif.g08.bks.cpg/sg131_5_cif.got.tgz:9368.got - 2010.05.20 12:21:01.
