data_PCOD9566763
_publ_section_title
;
Structure prediction by ZEFSAII (Michael W. Deem and Ramdas Pophale) SiO2 
 PCOD9566763
Probable space group: P 42/M M C
;
_chemical_formula_sum "Si O2"
_cell_formula_units_Z 96
_cell_length_a 18.983633
_cell_length_b 18.983633
_cell_length_c 14.078817
_cell_angle_alpha 90.000000
_cell_angle_beta 90.000000
_cell_angle_gamma 90.000000
_cell_volume 5073.700444
_symmetry_space_group_name_H-M "P 42/M M C"
_symmetry_group_IT_number 131
_symmetry_cell_setting 'tetragonal'
loop_
_space_group_symop_operation_xyz
x,y,z
-x,-y,z
-y,x,1/2+z
y,-x,1/2+z
-x,y,-z
x,-y,-z
y,x,1/2-z
-y,-x,1/2-z
-x,-y,-z
x,y,-z
y,-x,1/2-z
-y,x,1/2-z
x,-y,z
-x,y,z
-y,-x,1/2+z
y,x,1/2+z
loop_
_atom_site_type_symbol
_atom_site_label
_atom_site_fract_x
_atom_site_fract_y
_atom_site_fract_z
Si Si1 0.217535 0.359892 0.888821
Si Si2 0.771421 0.921111 0.883844
Si Si3 0.308853 0.219894 0.887515
Si Si4 0.700934 0.077581 0.384340
Si Si5 0.864784 0.078456 0.616150
Si Si6 0.579727 0.304363 0.766657
O O1 0.250885 0.281715 0.874211
O O2 0.138342 0.351214 0.852876
O O3 0.263331 0.415304 0.832652
O O4 0.218712 0.374609 0.000000
O O5 0.722724 0.855041 0.854261
O O6 0.852395 0.907051 0.853512
O O7 0.749568 0.000000 0.854838
O O8 0.771328 0.919555 0.000000
O O9 0.376776 0.252320 0.836120
O O10 0.321966 0.214051 0.000000
O O11 0.702334 0.080958 0.500000
O O12 0.782612 0.087269 0.356172
O O13 0.678147 0.000000 0.356261
O O14 0.866489 0.078453 0.500000
O O15 0.888714 0.000000 0.645632
O O16 0.624648 0.375353 0.750000
O O17 0.500000 0.316849 0.796888
#
# Coordination Sequence:
#
# PCOD9566763 Si02
#       6
#    16  16  16  16  16  16
#     4   9  16  30  53  77 104 136 168 206 247 293
#     4   9  15  23  39  65  99 140 184 228 267 295
#     4   9  17  32  52  73 101 138 180 217 244 282
#     4   8  12  20  39  67  98 133 171 209 249 291
#     4   8  12  18  31  57  96 137 175 218 266 306
#     4  10  22  38  58  84 106 126 154 191 242 310
#
# _framework density 18.921101
#
# number of rings (size 3 to 8) (size 9 to 14) (size 15 to 20)
#    0.000    3.167    1.667    1.000    0.000    1.167 
#    0.000    2.500    0.000    2.000    0.000    9.333 
#    0.000    0.000    0.000    0.000    0.000    0.000 
#
# Total GULP energy -535371.143086 kJ/mol
# GULP energy per Si atom -5576.782740 kJ/mol
# Density = 1.887804 g / cm^3
# Si number density = 18.921101 Si / 1000 Ang^3
#
#
#
# Elastic Constant Matrix: (Units=GPa)
#
#
# Indices 1 2 3 4 5 6 
#
# 1 110.5782 54.4170 20.6909 0.0000 0.0000 0.0000
# 2 54.4170 110.5771 20.6906 0.0000 0.0000 0.0000
# 3 20.6909 20.6906 42.6794 0.0000 0.0000 0.0000
# 4 0.0000 0.0000 0.0000 14.8354 0.0000 0.0000
# 5 0.0000 0.0000 0.0000 0.0000 14.8361 0.0000
# 6 0.0000 0.0000 0.0000 0.0000 0.0000 10.6823
#
#
#
# Elastic Compliance Matrix: (Units=1/GPa)
#
#
# Indices 1 2 3 4 5 6 
#
# 1 0.012353 -0.005453 -0.003345 0.000000 0.000000 0.000000
# 2 -0.005453 0.012353 -0.003345 0.000000 0.000000 0.000000
# 3 -0.003345 -0.003345 0.026674 0.000000 0.000000 0.000000
# 4 0.000000 0.000000 0.000000 0.067406 0.000000 0.000000
# 5 0.000000 0.000000 0.000000 0.000000 0.067403 0.000000
# 6 0.000000 0.000000 0.000000 0.000000 0.000000 0.093613
#
#
# Mechanical properties :
#
#
# Convention : Reuss Voigt Hill
#
# Bulk Modulus (GPa) = 36.90936 50.60352 43.75644
# Shear Modulus (GPa) = 15.96838 19.27318 17.62078
#
# Velocity S-wave (km/s) = 2.90823 3.19503 3.05499
# Velocity P-wave (km/s) = 5.55215 6.35716 5.96824
#
# Compressibility (1/GPa) = 0.02709340
#
# Stress axis : x y z
#
# Youngs Moduli (GPa) = 80.95302 80.95231 37.49004
#
# Poissons Ratio (x) = 0.44145 0.12540
# Poissons Ratio (y) = 0.44145 0.12540
# Poissons Ratio (z) = 0.27079 0.27078
#
# Static dielectric constant tensor:
#      x y z
#    x 1.640540 0.000000 0.000000 
#    y 0.000000 1.640540 0.000000 
#    z 0.000000 0.000000 1.751320 
# 
# From -- ./inp_files/7966.got.cif
#   From: 2010.05.17/outbox.cif.g08.bks.cpg/sg131_4_cif.got.tgz:7966.got - 2010.05.20 12:21:01.
