data_PCOD9566503
_publ_section_title
;
Structure prediction by ZEFSAII (Michael W. Deem and Ramdas Pophale) SiO2 
 PCOD9566503
Probable space group: P 42/M M C
;
_chemical_formula_sum "Si O2"
_cell_formula_units_Z 80
_cell_length_a 14.110669
_cell_length_b 14.110669
_cell_length_c 21.143524
_cell_angle_alpha 90.000000
_cell_angle_beta 90.000000
_cell_angle_gamma 90.000000
_cell_volume 4209.907776
_symmetry_space_group_name_H-M "P 42/M M C"
_symmetry_group_IT_number 131
_symmetry_cell_setting 'tetragonal'
loop_
_space_group_symop_operation_xyz
x,y,z
-x,-y,z
-y,x,1/2+z
y,-x,1/2+z
-x,y,-z
x,-y,-z
y,x,1/2-z
-y,-x,1/2-z
-x,-y,-z
x,y,-z
y,-x,1/2-z
-y,x,1/2-z
x,-y,z
-x,y,z
-y,-x,1/2+z
y,x,1/2+z
loop_
_atom_site_type_symbol
_atom_site_label
_atom_site_fract_x
_atom_site_fract_y
_atom_site_fract_z
Si Si1 0.214450 0.210966 0.932231
Si Si2 0.394768 0.284419 0.301311
Si Si3 0.608581 0.111858 0.385765
Si Si4 0.108830 0.886186 0.179822
Si Si5 0.387560 0.665023 0.072050
O O1 0.156847 0.310644 0.929389
O O2 0.176213 0.152215 0.874024
O O3 0.324568 0.239304 0.926856
O O4 0.196576 0.164795 0.000000
O O5 0.321031 0.321031 0.250000
O O6 0.500000 0.297363 0.274572
O O7 0.382000 0.175391 0.322388
O O8 0.388782 0.343844 0.367338
O O9 0.500000 0.126250 0.408535
O O10 0.622307 0.000000 0.376880
O O11 0.141368 0.858633 0.250000
O O12 0.000000 0.853356 0.169440
O O13 0.106806 0.000000 0.179290
O O14 0.500000 0.676800 0.079725
O O15 0.372600 0.625272 0.000000
#
# Coordination Sequence:
#
# PCOD9566503 Si02
#       5
#    16  16  16  16  16
#     4  10  20  33  53  81 107 133 172 221 265 303
#     4  10  20  33  52  79 107 134 171 222 270 307
#     4   9  19  35  52  72 103 141 174 206 255 322
#     4   9  19  36  56  78 106 140 174 209 259 323
#     4   9  19  35  52  71 101 143 182 212 252 312
#
# _framework density 19.002791999999999
#
# number of rings (size 3 to 8) (size 9 to 14) (size 15 to 20)
#    0.000    2.600    0.000    1.800    0.000    7.400 
#    0.000    7.000    0.000    0.600    0.000    2.800 
#    0.000    0.000    0.000    0.000    0.000    0.200 
#
# Total GULP energy -445738.533609 kJ/mol
# GULP energy per Si atom -5571.731670 kJ/mol
# Density = 1.895954 g / cm^3
# Si number density = 19.002792 Si / 1000 Ang^3
#
#
#
# Elastic Constant Matrix: (Units=GPa)
#
#
# Indices 1 2 3 4 5 6 
#
# 1 70.9429 6.9385 27.1075 0.0000 0.0000 0.0000
# 2 6.9385 70.9429 27.1077 0.0000 0.0000 0.0000
# 3 27.1075 27.1077 87.0875 0.0000 0.0000 0.0000
# 4 0.0000 0.0000 0.0000 15.1928 0.0000 0.0000
# 5 0.0000 0.0000 0.0000 0.0000 15.1931 0.0000
# 6 0.0000 0.0000 0.0000 0.0000 0.0000 17.6234
#
#
#
# Elastic Compliance Matrix: (Units=1/GPa)
#
#
# Indices 1 2 3 4 5 6 
#
# 1 0.016008 0.000384 -0.005102 0.000000 0.000000 0.000000
# 2 0.000384 0.016008 -0.005102 0.000000 0.000000 0.000000
# 3 -0.005102 -0.005102 0.014659 0.000000 0.000000 0.000000
# 4 0.000000 0.000000 0.000000 0.065820 0.000000 0.000000
# 5 0.000000 0.000000 0.000000 0.000000 0.065819 0.000000
# 6 0.000000 0.000000 0.000000 0.000000 0.000000 0.056743
#
#
# Mechanical properties :
#
#
# Convention : Reuss Voigt Hill
#
# Bulk Modulus (GPa) = 36.99088 39.03118 38.01103
# Shear Modulus (GPa) = 18.96025 20.78985 19.87505
#
# Velocity S-wave (km/s) = 3.16216 3.31122 3.23755
# Velocity P-wave (km/s) = 5.73068 5.93323 5.83283
#
# Compressibility (1/GPa) = 0.02703369
#
# Stress axis : x y z
#
# Youngs Moduli (GPa) = 62.46928 62.46916 68.21729
#
# Poissons Ratio (x) = -0.02399 0.34806
# Poissons Ratio (y) = -0.02399 0.34806
# Poissons Ratio (z) = 0.31873 0.31873
#
# Static dielectric constant tensor:
#      x y z
#    x 1.671120 0.000000 0.000000 
#    y 0.000000 1.671120 0.000000 
#    z 0.000000 0.000000 1.675930 
# 
# From -- ./inp_files/9419.got.cif
#   From: 2010.05.17/outbox.cif.g08.bks.cpg/sg131_5_cif.got.tgz:9419.got - 2010.05.20 12:21:01.
