data_PCOD9566394
_publ_section_title
;
Structure prediction by ZEFSAII (Michael W. Deem and Ramdas Pophale) SiO2 
 PCOD9566394
Probable space group: P 42/M M C
;
_chemical_formula_sum "Si O2"
_cell_formula_units_Z 44
_cell_length_a 11.399348
_cell_length_b 11.399348
_cell_length_c 14.707536
_cell_angle_alpha 90.000000
_cell_angle_beta 90.000000
_cell_angle_gamma 90.000000
_cell_volume 1911.172748
_symmetry_space_group_name_H-M "P 42/M M C"
_symmetry_group_IT_number 131
_symmetry_cell_setting 'tetragonal'
loop_
_space_group_symop_operation_xyz
x,y,z
-x,-y,z
-y,x,1/2+z
y,-x,1/2+z
-x,y,-z
x,-y,-z
y,x,1/2-z
-y,-x,1/2-z
-x,-y,-z
x,y,-z
y,-x,1/2-z
-y,x,1/2-z
x,-y,z
-x,y,z
-y,-x,1/2+z
y,x,1/2+z
loop_
_atom_site_type_symbol
_atom_site_label
_atom_site_fract_x
_atom_site_fract_y
_atom_site_fract_z
Si Si1 0.500000 0.000000 0.341968
Si Si2 0.741160 0.747139 0.890288
Si Si3 0.363308 0.500000 0.889333
Si Si4 0.000000 0.761308 0.102979
Si Si5 0.500000 0.872674 0.161027
O O1 0.381122 0.000000 0.398051
O O2 0.500000 0.895971 0.268528
O O3 0.705079 0.616211 0.861490
O O4 0.870368 0.788262 0.855888
O O5 0.623460 0.816134 0.865156
O O6 0.751853 0.747292 0.000000
O O7 0.500000 0.500000 0.859660
O O8 0.366395 0.500000 0.000000
O O9 0.000000 0.808667 0.000000
O O10 0.500000 0.000000 0.115788
#
# Coordination Sequence:
#
# PCOD9566394 Si02
#       5
#     4  16   8   8   8
#     4  10  23  40  57  88 122 166 196 248 311 390
#     4  10  19  35  60  90 123 158 207 256 307 365
#     4   9  15  25  50  85 117 149 186 241 300 356
#     4  10  21  38  63  89 117 162 214 268 305 357
#     4  10  23  38  56  89 122 170 195 246 320 381
#
# _framework density 23.022511999999999
#
# number of rings (size 3 to 8) (size 9 to 14) (size 15 to 20)
#    0.545    1.636    1.818    1.909    0.000    5.818 
#    0.000    0.909    0.000    3.273    4.727    0.000 
#    0.000    0.000    0.000    0.182    0.000    0.000 
#
# Total GULP energy -245266.739876 kJ/mol
# GULP energy per Si atom -5574.244088 kJ/mol
# Density = 2.297011 g / cm^3
# Si number density = 23.022512 Si / 1000 Ang^3
#
#
#
# Elastic Constant Matrix: (Units=GPa)
#
#
# Indices 1 2 3 4 5 6 
#
# 1 199.0020 86.1204 21.6355 0.0000 0.0000 0.0000
# 2 86.1204 199.0020 21.6355 0.0000 0.0000 0.0000
# 3 21.6355 21.6355 42.0392 0.0000 0.0000 0.0000
# 4 0.0000 0.0000 0.0000 17.7335 0.0000 0.0000
# 5 0.0000 0.0000 0.0000 0.0000 17.7335 0.0000
# 6 0.0000 0.0000 0.0000 0.0000 0.0000 -130.2599
#
#
#
# Elastic Compliance Matrix: (Units=1/GPa)
#
#
# Indices 1 2 3 4 5 6 
#
# 1 0.006332 -0.002527 -0.001958 0.000000 0.000000 0.000000
# 2 -0.002527 0.006332 -0.001958 0.000000 0.000000 0.000000
# 3 -0.001958 -0.001958 0.025803 0.000000 0.000000 0.000000
# 4 0.000000 0.000000 0.000000 0.056391 0.000000 0.000000
# 5 0.000000 0.000000 0.000000 0.000000 0.056391 0.000000
# 6 0.000000 0.000000 0.000000 0.000000 0.000000 -0.007677
#
#
# Mechanical properties :
#
#
# Convention : Reuss Voigt Hill
#
# Bulk Modulus (GPa) = 39.09351 77.64734 58.37043
# Shear Modulus (GPa) = 30.30617 1.75152 16.02884
#
# Velocity S-wave (km/s) = 3.63212 0.87318 2.64147
# Velocity P-wave (km/s) = 5.88278 5.90055 5.89167
#
# Compressibility (1/GPa) = 0.02557969
#
# Stress axis : x y z
#
# Youngs Moduli (GPa) = 157.93731 157.93731 38.75569
#
# Poissons Ratio (x) = 0.39914 0.07588
# Poissons Ratio (y) = 0.39914 0.07588
# Poissons Ratio (z) = 0.30923 0.30923
#
# Static dielectric constant tensor:
#      x y z
#    x 2.229950 0.000000 0.000000 
#    y 0.000000 2.229950 0.000000 
#    z 0.000000 0.000000 1.843820 
# 
# From -- ./inp_files/7112.got.cif
#   From: 2010.05.17/outbox.cif.g08.bks.cpg/sg131_4_cif.got.tgz:7112.got - 2010.05.20 12:21:01.
