data_PCOD9566821
_publ_section_title
;
Structure prediction by ZEFSAII (Michael W. Deem and Ramdas Pophale) SiO2 
 PCOD9566821
Probable space group: P 42/M M C
;
_chemical_formula_sum "Si O2"
_cell_formula_units_Z 104
_cell_length_a 27.395950
_cell_length_b 27.395950
_cell_length_c 8.715298
_cell_angle_alpha 90.000000
_cell_angle_beta 90.000000
_cell_angle_gamma 90.000000
_cell_volume 6541.162996
_symmetry_space_group_name_H-M "P 42/M M C"
_symmetry_group_IT_number 131
_symmetry_cell_setting 'tetragonal'
loop_
_space_group_symop_operation_xyz
x,y,z
-x,-y,z
-y,x,1/2+z
y,-x,1/2+z
-x,y,-z
x,-y,-z
y,x,1/2-z
-y,-x,1/2-z
-x,-y,-z
x,y,-z
y,-x,1/2-z
-y,x,1/2-z
x,-y,z
-x,y,z
-y,-x,1/2+z
y,x,1/2+z
loop_
_atom_site_type_symbol
_atom_site_label
_atom_site_fract_x
_atom_site_fract_y
_atom_site_fract_z
Si Si1 0.683138 0.162278 0.314460
Si Si2 0.554440 0.759078 0.315181
Si Si3 0.134339 0.209991 0.184950
Si Si4 0.871267 0.578364 0.183897
Si Si5 0.267721 0.343837 0.317186
Si Si6 0.055906 0.868346 0.185475
Si Si7 0.943901 0.500000 0.683271
O O1 0.682527 0.167793 0.500000
O O2 0.733895 0.137891 0.267296
O O3 0.635432 0.130814 0.273403
O O4 0.677463 0.216126 0.244096
O O5 0.559536 0.755588 0.500000
O O6 0.500000 0.742328 0.272358
O O7 0.558946 0.816866 0.276958
O O8 0.599919 0.732024 0.238446
O O9 0.180124 0.180124 0.250000
O O10 0.086245 0.179933 0.232231
O O11 0.136543 0.208678 0.000000
O O12 0.913341 0.546751 0.259790
O O13 0.876343 0.574043 0.000000
O O14 0.311496 0.311496 0.250000
O O15 0.268533 0.341547 0.500000
O O16 0.085834 0.914167 0.250000
O O17 0.000000 0.867475 0.236775
O O18 0.056536 0.870662 0.000000
O O19 0.944535 0.500000 0.500000
O O20 0.000000 0.500000 0.738925
#
# Coordination Sequence:
#
# PCOD9566821 Si02
#       7
#    16  16  16  16  16  16   8
#     4   9  18  32  49  70  95 121 153 194 239 286
#     4   9  17  32  52  72  96 125 158 200 247 292
#     4   9  17  30  48  69  93 121 151 184 223 274
#     4   9  17  32  51  70  90 117 154 195 239 287
#     4  11  21  31  45  69 101 134 166 199 237 282
#     4   9  18  32  49  69  92 117 146 182 225 273
#     4  11  23  35  47  65  91 121 155 201 248 285
#
# _framework density 15.899314
#
# number of rings (size 3 to 8) (size 9 to 14) (size 15 to 20)
#    0.000    2.538    0.769    3.000    0.000    5.692 
#    0.000    1.538    0.000    2.769    0.000    0.000 
#    0.000    0.308    0.000    3.231    0.000    1.385 
#
# Total GULP energy -579806.207784 kJ/mol
# GULP energy per Si atom -5575.059690 kJ/mol
# Density = 1.586313 g / cm^3
# Si number density = 15.899314 Si / 1000 Ang^3
#
#
#
# Elastic Constant Matrix: (Units=GPa)
#
#
# Indices 1 2 3 4 5 6 
#
# 1 146.6198 83.2280 37.5497 0.0000 0.0000 0.0000
# 2 83.2280 146.6181 37.5498 0.0000 0.0000 0.0000
# 3 37.5497 37.5498 29.7458 0.0000 0.0000 0.0000
# 4 0.0000 0.0000 0.0000 20.1220 0.0000 0.0000
# 5 0.0000 0.0000 0.0000 0.0000 20.1223 0.0000
# 6 0.0000 0.0000 0.0000 0.0000 0.0000 16.8294
#
#
#
# Elastic Compliance Matrix: (Units=1/GPa)
#
#
# Indices 1 2 3 4 5 6 
#
# 1 0.011590 -0.004185 -0.009348 0.000000 0.000000 0.000000
# 2 -0.004185 0.011590 -0.009348 0.000000 0.000000 0.000000
# 3 -0.009348 -0.009348 0.057219 0.000000 0.000000 0.000000
# 4 0.000000 0.000000 0.000000 0.049697 0.000000 0.000000
# 5 0.000000 0.000000 0.000000 0.000000 0.049696 0.000000
# 6 0.000000 0.000000 0.000000 0.000000 0.000000 0.059420
#
#
# Mechanical properties :
#
#
# Convention : Reuss Voigt Hill
#
# Bulk Modulus (GPa) = 28.87035 71.07099 49.97067
# Shear Modulus (GPa) = 16.86238 22.39182 19.62710
#
# Velocity S-wave (km/s) = 3.26018 3.75687 3.51730
# Velocity P-wave (km/s) = 5.68940 7.97599 6.92769
#
# Compressibility (1/GPa) = 0.03463761
#
# Stress axis : x y z
#
# Youngs Moduli (GPa) = 86.28177 86.28012 17.47686
#
# Poissons Ratio (x) = 0.36109 0.16337
# Poissons Ratio (y) = 0.36110 0.16337
# Poissons Ratio (z) = 0.80652 0.80654
#
# Static dielectric constant tensor:
#      x y z
#    x 1.525730 0.000000 0.000000 
#    y 0.000000 1.525730 0.000000 
#    z 0.000000 0.000000 1.538770 
# 
# From -- ./inp_files/2542.got.cif
#   From: 2010.05.17/outbox.cif.g08.bks.cpg/sg131_2_cif.got.tgz:2542.got - 2010.05.20 12:21:01.
