data_PCOD9566786
_publ_section_title
;
Structure prediction by ZEFSAII (Michael W. Deem and Ramdas Pophale) SiO2 
 PCOD9566786
Probable space group: P 42/M M C
;
_chemical_formula_sum "Si O2"
_cell_formula_units_Z 58
_cell_length_a 11.855663
_cell_length_b 11.855663
_cell_length_c 21.186009
_cell_angle_alpha 90.000000
_cell_angle_beta 90.000000
_cell_angle_gamma 90.000000
_cell_volume 2977.836468
_symmetry_space_group_name_H-M "P 42/M M C"
_symmetry_group_IT_number 131
_symmetry_cell_setting 'tetragonal'
loop_
_space_group_symop_operation_xyz
x,y,z
-x,-y,z
-y,x,1/2+z
y,-x,1/2+z
-x,y,-z
x,-y,-z
y,x,1/2-z
-y,-x,1/2-z
-x,-y,-z
x,y,-z
y,-x,1/2-z
-y,x,1/2-z
x,-y,z
-x,y,z
-y,-x,1/2+z
y,x,1/2+z
loop_
_atom_site_type_symbol
_atom_site_label
_atom_site_fract_x
_atom_site_fract_y
_atom_site_fract_z
Si Si1 0.875677 0.746218 0.605204
Si Si2 0.000000 0.828267 0.925198
Si Si3 0.000000 0.631640 0.161558
Si Si4 0.500000 0.500000 0.500000
Si Si5 0.264915 0.625968 0.500000
Si Si6 0.809010 0.634135 0.263948
O O1 0.779464 0.695017 0.560214
O O2 0.857050 0.697196 0.674814
O O3 0.000000 0.710058 0.582571
O O4 0.873536 0.882101 0.602150
O O5 0.000000 0.699303 0.902811
O O6 0.000000 0.845476 0.000000
O O7 0.108702 0.657969 0.204921
O O8 0.000000 0.500000 0.149510
O O9 0.397983 0.597258 0.500000
O O10 0.211236 0.500000 0.500000
O O11 0.687237 0.687237 0.250000
O O12 0.806621 0.500000 0.274368
#
# Coordination Sequence:
#
# PCOD9566786 Si02
#       6
#    16   8   8   2   8  16
#     4  12  24  41  69 103 138 177 230 288 350 413
#     4  12  25  43  66 101 140 188 230 282 360 417
#     4  10  22  44  67  93 131 178 234 292 336 429
#     4   8  24  52  62  94 138 184 236 282 324 412
#     4  10  23  45  66  93 133 182 223 282 338 393
#     4  11  23  42  67  98 133 176 231 287 352 417
#
# _framework density 19.477226000000002
#
# number of rings (size 3 to 8) (size 9 to 14) (size 15 to 20)
#    0.414    0.552    5.517    1.655    0.000    3.310 
#    4.966    0.000    0.000    0.000    0.000    0.000 
#    0.000    0.000    0.000    0.000    0.000    0.000 
#
# Total GULP energy -323171.725141 kJ/mol
# GULP energy per Si atom -5571.926296 kJ/mol
# Density = 1.943290 g / cm^3
# Si number density = 19.477226 Si / 1000 Ang^3
#
#
#
# Elastic Constant Matrix: (Units=GPa)
#
#
# Indices 1 2 3 4 5 6 
#
# 1 127.8981 38.4050 18.3381 0.0000 0.0000 0.0000
# 2 38.4050 127.8981 18.3381 0.0000 0.0000 0.0000
# 3 18.3381 18.3381 29.5716 0.0000 0.0000 0.0000
# 4 0.0000 0.0000 0.0000 13.6792 0.0000 0.0000
# 5 0.0000 0.0000 0.0000 0.0000 13.6792 0.0000
# 6 0.0000 0.0000 0.0000 0.0000 0.0000 27.3600
#
#
#
# Elastic Compliance Matrix: (Units=1/GPa)
#
#
# Indices 1 2 3 4 5 6 
#
# 1 0.009070 -0.002104 -0.004320 0.000000 0.000000 0.000000
# 2 -0.002104 0.009070 -0.004320 0.000000 0.000000 0.000000
# 3 -0.004320 -0.004320 0.039174 0.000000 0.000000 0.000000
# 4 0.000000 0.000000 0.000000 0.073104 0.000000 0.000000
# 5 0.000000 0.000000 0.000000 0.000000 0.073104 0.000000
# 6 0.000000 0.000000 0.000000 0.000000 0.000000 0.036550
#
#
# Mechanical properties :
#
#
# Convention : Reuss Voigt Hill
#
# Bulk Modulus (GPa) = 27.91224 48.39227 38.15225
# Shear Modulus (GPa) = 18.28153 24.96277 21.62215
#
# Velocity S-wave (km/s) = 3.06700 3.58388 3.33547
# Velocity P-wave (km/s) = 5.18689 6.48268 5.87064
#
# Compressibility (1/GPa) = 0.03582658
#
# Stress axis : x y z
#
# Youngs Moduli (GPa) = 110.25469 110.25469 25.52735
#
# Poissons Ratio (x) = 0.23199 0.11027
# Poissons Ratio (y) = 0.23199 0.11027
# Poissons Ratio (z) = 0.47626 0.47626
#
# Static dielectric constant tensor:
#      x y z
#    x 1.684090 0.000000 0.000000 
#    y 0.000000 1.684090 0.000000 
#    z 0.000000 0.000000 1.666910 
# 
# From -- ./inp_files/9207.got.cif
#   From: 2010.05.17/outbox.cif.g08.bks.cpg/sg131_5_cif.got.tgz:9207.got - 2010.05.20 12:21:01.
