data_PCOD9566787
_publ_section_title
;
Structure prediction by ZEFSAII (Michael W. Deem and Ramdas Pophale) SiO2 
 PCOD9566787
Probable space group: P 42/M M C
;
_chemical_formula_sum "Si O2"
_cell_formula_units_Z 50
_cell_length_a 9.430853
_cell_length_b 9.430853
_cell_length_c 28.518866
_cell_angle_alpha 90.000000
_cell_angle_beta 90.000000
_cell_angle_gamma 90.000000
_cell_volume 2536.496127
_symmetry_space_group_name_H-M "P 42/M M C"
_symmetry_group_IT_number 131
_symmetry_cell_setting 'tetragonal'
loop_
_space_group_symop_operation_xyz
x,y,z
-x,-y,z
-y,x,1/2+z
y,-x,1/2+z
-x,y,-z
x,-y,-z
y,x,1/2-z
-y,-x,1/2-z
-x,-y,-z
x,y,-z
y,-x,1/2-z
-y,x,1/2-z
x,-y,z
-x,y,z
-y,-x,1/2+z
y,x,1/2+z
loop_
_atom_site_type_symbol
_atom_site_label
_atom_site_fract_x
_atom_site_fract_y
_atom_site_fract_z
Si Si1 0.500000 0.000000 0.500000
Si Si2 0.329062 0.170654 0.292482
Si Si3 0.767436 0.337085 0.614497
Si Si4 0.704983 0.500000 0.948207
Si Si5 0.000000 0.829690 0.555928
O O1 0.500000 0.873998 0.459377
O O2 0.243622 0.243622 0.250000
O O3 0.500000 0.191799 0.287995
O O4 0.272844 0.251533 0.338664
O O5 0.304542 0.000000 0.294574
O O6 0.815613 0.500000 0.624149
O O7 0.631548 0.341809 0.581863
O O8 0.871627 0.243086 0.582992
O O9 0.644227 0.500000 0.000000
O O10 0.000000 0.799151 0.500000
O O11 0.000000 0.000000 0.560714
#
# Coordination Sequence:
#
# PCOD9566787 Si02
#       5
#     2  16  16   8   8
#     4   8  24  36  66  98 148 180 230 290 320 420
#     4  11  26  46  73 101 135 178 229 288 353 424
#     4  12  25  43  69 102 141 181 230 292 352 418
#     4  10  23  38  70 101 141 182 234 279 342 406
#     4  11  27  45  69  98 141 193 241 286 343 417
#
# _framework density 19.712232
#
# number of rings (size 3 to 8) (size 9 to 14) (size 15 to 20)
#    0.480    0.480    1.600    3.840    6.720    5.760 
#    0.000    0.000    0.000    0.000    0.000    0.000 
#    0.000    0.000    0.000    0.000    0.000    0.000 
#
# Total GULP energy -278493.031943 kJ/mol
# GULP energy per Si atom -5569.860639 kJ/mol
# Density = 1.966737 g / cm^3
# Si number density = 19.712232 Si / 1000 Ang^3
#
#
#
# Elastic Constant Matrix: (Units=GPa)
#
#
# Indices 1 2 3 4 5 6 
#
# 1 177.6903 69.3639 95.2091 0.0000 0.0000 0.0000
# 2 69.3639 177.6903 95.2091 0.0000 0.0000 0.0000
# 3 95.2091 95.2091 215.7612 0.0000 0.0000 0.0000
# 4 0.0000 0.0000 0.0000 33.7574 0.0000 0.0000
# 5 0.0000 0.0000 0.0000 0.0000 33.7574 0.0000
# 6 0.0000 0.0000 0.0000 0.0000 0.0000 30.8604
#
#
#
# Elastic Compliance Matrix: (Units=1/GPa)
#
#
# Indices 1 2 3 4 5 6 
#
# 1 0.007683 -0.001549 -0.002707 0.000000 0.000000 0.000000
# 2 -0.001549 0.007683 -0.002707 0.000000 0.000000 0.000000
# 3 -0.002707 -0.002707 0.007024 0.000000 0.000000 0.000000
# 4 0.000000 0.000000 0.000000 0.029623 0.000000 0.000000
# 5 0.000000 0.000000 0.000000 0.000000 0.029623 0.000000
# 6 0.000000 0.000000 0.000000 0.000000 0.000000 0.032404
#
#
# Mechanical properties :
#
#
# Convention : Reuss Voigt Hill
#
# Bulk Modulus (GPa) = 118.14046 121.18954 119.66500
# Shear Modulus (GPa) = 38.23074 40.43237 39.33156
#
# Velocity S-wave (km/s) = 4.40869 4.53385 4.47171
# Velocity P-wave (km/s) = 9.27243 9.43507 9.35411
#
# Compressibility (1/GPa) = 0.00846450
#
# Stress axis : x y z
#
# Youngs Moduli (GPa) = 130.16374 130.16374 142.37830
#
# Poissons Ratio (x) = 0.20159 0.38538
# Poissons Ratio (y) = 0.20159 0.38538
# Poissons Ratio (z) = 0.35232 0.35232
#
# Static dielectric constant tensor:
#      x y z
#    x 1.703790 0.000000 0.000000 
#    y 0.000000 1.703790 0.000000 
#    z 0.000000 0.000000 1.688340 
# 
# From -- ./inp_files/12989.got.cif
#   From: 2010.05.17/outbox.cif.g08.bks.cpg/sg131_7_cif.got.tgz:12989.got - 2010.05.20 12:21:01.
