data_PCOD9566435
_publ_section_title
;
Structure prediction by ZEFSAII (Michael W. Deem and Ramdas Pophale) SiO2 
 PCOD9566435
Probable space group: P 42/M M C
;
_chemical_formula_sum "Si O2"
_cell_formula_units_Z 58
_cell_length_a 18.083181
_cell_length_b 18.083181
_cell_length_c 7.945339
_cell_angle_alpha 90.000000
_cell_angle_beta 90.000000
_cell_angle_gamma 90.000000
_cell_volume 2598.137255
_symmetry_space_group_name_H-M "P 42/M M C"
_symmetry_group_IT_number 131
_symmetry_cell_setting 'tetragonal'
loop_
_space_group_symop_operation_xyz
x,y,z
-x,-y,z
-y,x,1/2+z
y,-x,1/2+z
-x,y,-z
x,-y,-z
y,x,1/2-z
-y,-x,1/2-z
-x,-y,-z
x,y,-z
y,-x,1/2-z
-y,x,1/2-z
x,-y,z
-x,y,z
-y,-x,1/2+z
y,x,1/2+z
loop_
_atom_site_type_symbol
_atom_site_label
_atom_site_fract_x
_atom_site_fract_y
_atom_site_fract_z
Si Si1 0.500000 0.329989 0.310397
Si Si2 0.200087 0.081494 0.196941
Si Si3 0.500000 0.500000 0.750000
Si Si4 0.640143 0.244155 0.296337
Si Si5 0.080834 0.365170 0.193941
O O1 0.500000 0.299291 0.500000
O O2 0.500000 0.417800 0.324883
O O3 0.575570 0.299178 0.233187
O O4 0.144520 0.144520 0.250000
O O5 0.275935 0.082541 0.299584
O O6 0.166028 0.000000 0.219623
O O7 0.219741 0.089629 0.000000
O O8 0.718831 0.281170 0.250000
O O9 0.641852 0.240103 0.500000
O O10 0.618470 0.162009 0.232563
O O11 0.000000 0.387180 0.268022
O O12 0.080499 0.390914 0.000000
#
# Coordination Sequence:
#
# PCOD9566435 Si02
#       5
#     8  16   2  16  16
#     4  10  21  35  54  82 114 146 179 220 270 324
#     4  10  20  32  47  68  95 129 169 215 268 323
#     4  12  18  36  60  78 116 152 178 220 270 324
#     4  10  20  35  54  79 110 142 181 225 270 322
#     4   9  18  33  53  75 101 135 175 220 269 319
#
# _framework density 22.323685000000001
#
# number of rings (size 3 to 8) (size 9 to 14) (size 15 to 20)
#    0.000    2.207    1.379    1.862    0.000    5.241 
#    0.000    2.759    0.000    4.138    0.000    0.000 
#    0.000    6.621    0.000    0.000    0.000    0.000 
#
# Total GULP energy -323020.457768 kJ/mol
# GULP energy per Si atom -5569.318237 kJ/mol
# Density = 2.227288 g / cm^3
# Si number density = 22.323685 Si / 1000 Ang^3
#
#
#
# Elastic Constant Matrix: (Units=GPa)
#
#
# Indices 1 2 3 4 5 6 
#
# 1 108.3338 37.3274 4.4723 0.0000 0.0000 0.0000
# 2 37.3274 108.3368 4.4717 0.0000 0.0000 0.0000
# 3 4.4723 4.4717 30.1911 0.0000 0.0000 0.0000
# 4 0.0000 0.0000 0.0000 11.4301 0.0000 0.0000
# 5 0.0000 0.0000 0.0000 0.0000 11.4296 0.0000
# 6 0.0000 0.0000 0.0000 0.0000 0.0000 35.7836
#
#
#
# Elastic Compliance Matrix: (Units=1/GPa)
#
#
# Indices 1 2 3 4 5 6 
#
# 1 0.010506 -0.003577 -0.001026 0.000000 0.000000 0.000000
# 2 -0.003577 0.010505 -0.001026 0.000000 0.000000 0.000000
# 3 -0.001026 -0.001026 0.033426 0.000000 0.000000 0.000000
# 4 0.000000 0.000000 0.000000 0.087489 0.000000 0.000000
# 5 0.000000 0.000000 0.000000 0.000000 0.087492 0.000000
# 6 0.000000 0.000000 0.000000 0.000000 0.000000 0.027946
#
#
# Mechanical properties :
#
#
# Convention : Reuss Voigt Hill
#
# Bulk Modulus (GPa) = 23.16003 37.71161 30.43582
# Shear Modulus (GPa) = 17.66685 25.10135 21.38410
#
# Velocity S-wave (km/s) = 2.81623 3.35689 3.09837
# Velocity P-wave (km/s) = 4.57952 5.65285 5.14425
#
# Compressibility (1/GPa) = 0.04317784
#
# Stress axis : x y z
#
# Youngs Moduli (GPa) = 95.18618 95.18906 29.91651
#
# Poissons Ratio (x) = 0.34053 0.03071
# Poissons Ratio (y) = 0.34052 0.03070
# Poissons Ratio (z) = 0.09770 0.09767
#
# Static dielectric constant tensor:
#      x y z
#    x 1.851910 0.000000 0.000000 
#    y 0.000000 1.851910 0.000000 
#    z 0.000000 0.000000 1.866360 
# 
# From -- ./inp_files/1296.got.cif
#   From: 2010.05.17/outbox.cif.g08.bks.cpg/sg131_1_cif.got.tgz:1296.got - 2010.05.20 12:21:01.
