data_PCOD9566957
_publ_section_title
;
Structure prediction by ZEFSAII (Michael W. Deem and Ramdas Pophale) SiO2 
 PCOD9566957
Probable space group: P 42/M C M
;
_chemical_formula_sum "Si O2"
_cell_formula_units_Z 112
_cell_length_a 20.400695
_cell_length_b 20.400695
_cell_length_c 16.842556
_cell_angle_alpha 90.000000
_cell_angle_beta 90.000000
_cell_angle_gamma 90.000000
_cell_volume 7009.675701
_symmetry_space_group_name_H-M "P 42/M C M"
_symmetry_group_IT_number 132
_symmetry_cell_setting 'tetragonal'
loop_
_space_group_symop_operation_xyz
x,y,z
-y,x,1/2+z
-x,-y,z
y,-x,1/2+z
x,-y,1/2-z
-x,y,1/2-z
y,x,-z
-y,-x,-z
-x,-y,-z
y,-x,1/2-z
x,y,-z
-y,x,1/2-z
-x,y,1/2+z
x,-y,1/2+z
-y,-x,z
y,x,z
loop_
_atom_site_type_symbol
_atom_site_label
_atom_site_fract_x
_atom_site_fract_y
_atom_site_fract_z
Si Si1 0.432910 0.856798 0.354128
Si Si2 0.808917 0.705629 0.134128
Si Si3 0.187137 0.917109 0.592825
Si Si4 0.737337 0.025480 0.163559
Si Si5 0.601733 0.002323 0.908540
Si Si6 0.717326 0.823030 0.674855
Si Si7 0.574535 0.141476 0.163115
O O1 0.370159 0.818244 0.388101
O O2 0.423597 0.932471 0.378887
O O3 0.428528 0.853439 0.258415
O O4 0.506417 0.833387 0.373911
O O5 0.742427 0.742427 0.108867
O O6 0.868924 0.750103 0.103174
O O7 0.813256 0.709940 0.230112
O O8 0.179202 0.931023 0.500000
O O9 0.125619 0.874382 0.621402
O O10 0.200020 0.982985 0.640709
O O11 0.745109 0.103424 0.163669
O O12 0.714456 0.000000 0.250000
O O13 0.680164 0.005654 0.102556
O O14 0.577751 0.064523 0.858396
O O15 0.583724 0.011315 0.000000
O O16 0.766798 0.766798 0.645529
O O17 0.643594 0.825447 0.639130
#
# Coordination Sequence:
#
# PCOD9566957 Si02
#       7
#    16  16  16  16  16  16  16
#     4  10  17  29  44  61  88 118 145 179 222 267
#     4   9  16  27  44  65  88 116 146 177 219 270
#     4  10  19  30  45  68  96 120 144 181 229 278
#     4  11  18  29  47  67  89 116 153 189 226 268
#     4  11  20  28  40  62  89 118 149 181 216 263
#     4   9  17  30  47  65  84 110 151 195 226 260
#     4   9  19  30  43  61  85 116 149 184 223 265
#
# _framework density 15.977914999999999
#
# number of rings (size 3 to 8) (size 9 to 14) (size 15 to 20)
#    0.000    2.143    2.857    3.000    0.000    2.286 
#    0.000    0.000    0.000   11.143    0.000    2.000 
#    0.000    0.571    0.000    8.000    0.000    0.000 
#
# Total GULP energy -624106.316369 kJ/mol
# GULP energy per Si atom -5572.377825 kJ/mol
# Density = 1.594155 g / cm^3
# Si number density = 15.977915 Si / 1000 Ang^3
#
#
#
# Elastic Constant Matrix: (Units=GPa)
#
#
# Indices 1 2 3 4 5 6 
#
# 1 98.9029 65.2417 6.2990 0.0000 0.0000 0.0000
# 2 65.2417 98.9029 6.2990 0.0000 0.0000 0.0000
# 3 6.2990 6.2990 14.5592 0.0000 0.0000 0.0000
# 4 0.0000 0.0000 0.0000 -7.3937 0.0000 0.0000
# 5 0.0000 0.0000 0.0000 0.0000 -7.3937 0.0000
# 6 0.0000 0.0000 0.0000 0.0000 0.0000 8.3626
#
#
#
# Elastic Compliance Matrix: (Units=1/GPa)
#
#
# Indices 1 2 3 4 5 6 
#
# 1 0.018005 -0.011703 -0.002726 0.000000 0.000000 0.000000
# 2 -0.011703 0.018005 -0.002726 0.000000 0.000000 0.000000
# 3 -0.002726 -0.002726 0.071044 0.000000 0.000000 0.000000
# 4 0.000000 0.000000 0.000000 -0.135249 0.000000 0.000000
# 5 0.000000 0.000000 0.000000 0.000000 -0.135249 0.000000
# 6 0.000000 0.000000 0.000000 0.000000 0.000000 0.119580
#
#
# Mechanical properties :
#
#
# Convention : Reuss Voigt Hill
#
# Bulk Modulus (GPa) = 13.74723 40.89385 27.32054
# Shear Modulus (GPa) = 340.29621 7.68338 173.98979
#
# Velocity S-wave (km/s) = 14.60964 2.19526 10.44655
# Velocity P-wave (km/s) = 17.12341 5.66349 12.75316
#
# Compressibility (1/GPa) = 0.07274194
#
# Stress axis : x y z
#
# Youngs Moduli (GPa) = 55.54133 55.54133 14.07571
#
# Poissons Ratio (x) = 0.65001 0.03837
# Poissons Ratio (y) = 0.65001 0.03837
# Poissons Ratio (z) = 0.15142 0.15142
#
# Static dielectric constant tensor:
#      x y z
#    x 1.559200 0.000000 0.000000 
#    y 0.000000 1.559200 0.000000 
#    z 0.000000 0.000000 1.550710 
# 
# From -- ./inp_files/6779.got.cif
#   From: 2010.05.17/outbox.cif.g08.bks.cpg/sg132_4_cif.got.tgz:6779.got - 2010.05.20 12:30:18.
