data_PCOD9566225
_publ_section_title
;
Structure prediction by ZEFSAII (Michael W. Deem and Ramdas Pophale) SiO2 
 PCOD9566225
Probable space group: P 42/M M C
;
_chemical_formula_sum "Si O2"
_cell_formula_units_Z 120
_cell_length_a 27.668262
_cell_length_b 27.668262
_cell_length_c 7.600888
_cell_angle_alpha 90.000000
_cell_angle_beta 90.000000
_cell_angle_gamma 90.000000
_cell_volume 5818.728481
_symmetry_space_group_name_H-M "P 42/M M C"
_symmetry_group_IT_number 131
_symmetry_cell_setting 'tetragonal'
loop_
_space_group_symop_operation_xyz
x,y,z
-x,-y,z
-y,x,1/2+z
y,-x,1/2+z
-x,y,-z
x,-y,-z
y,x,1/2-z
-y,-x,1/2-z
-x,-y,-z
x,y,-z
y,-x,1/2-z
-y,x,1/2-z
x,-y,z
-x,y,z
-y,-x,1/2+z
y,x,1/2+z
loop_
_atom_site_type_symbol
_atom_site_label
_atom_site_fract_x
_atom_site_fract_y
_atom_site_fract_z
Si Si1 0.445845 0.366064 0.788589
Si Si2 0.551979 0.159072 0.216142
Si Si3 0.372108 0.914341 0.795699
Si Si4 0.419514 0.739400 0.796954
Si Si5 0.844187 0.764224 0.788229
Si Si6 0.734226 0.946092 0.295212
Si Si7 0.000000 0.555846 0.787519
Si Si8 0.232434 0.687520 0.209583
O O1 0.407121 0.407121 0.750000
O O2 0.500000 0.376902 0.724644
O O3 0.429185 0.313370 0.720137
O O4 0.447654 0.363132 0.000000
O O5 0.500000 0.136951 0.266855
O O6 0.600382 0.132417 0.278466
O O7 0.553751 0.214146 0.278687
O O8 0.553855 0.157912 0.000000
O O9 0.322693 0.932396 0.710558
O O10 0.413831 0.954464 0.779646
O O11 0.360375 0.906603 0.000000
O O12 0.363443 0.754147 0.791617
O O13 0.435339 0.736762 0.000000
O O14 0.811022 0.811022 0.750000
O O15 0.899209 0.762179 0.720685
O O16 0.815038 0.716415 0.725800
O O17 0.846085 0.760496 0.000000
O O18 0.748114 0.949391 0.500000
O O19 0.740633 0.000000 0.217514
O O20 0.000000 0.500000 0.731083
O O21 0.000000 0.557144 0.000000
O O22 0.275926 0.724075 0.250000
O O23 0.228453 0.680786 0.000000
#
# Coordination Sequence:
#
# PCOD9566225 Si02
#       8
#    16  16  16  16  16  16   8  16
#     4  10  22  39  58  79 101 126 156 192 238 297
#     4   9  18  32  50  72  98 129 166 210 258 306
#     4  11  21  33  52  77 102 132 178 231 276 314
#     4  10  19  33  54  77 101 130 162 197 244 302
#     4   9  19  34  52  76 106 144 182 218 261 309
#     4  10  20  35  54  75 105 142 177 214 264 325
#     4  11  23  37  51  67  95 139 187 235 288 337
#     4  10  19  31  48  72 103 133 165 202 242 292
#
# _framework density 20.623063999999999
#
# number of rings (size 3 to 8) (size 9 to 14) (size 15 to 20)
#    0.000    2.067    0.667    3.000    0.000    5.733 
#    0.000    1.333    0.000    2.800    0.000    0.000 
#    0.000    0.267    0.000    3.333    0.000    0.000 
#
# Total GULP energy -670004.493025 kJ/mol
# GULP energy per Si atom -5583.370775 kJ/mol
# Density = 2.057612 g / cm^3
# Si number density = 20.623064 Si / 1000 Ang^3
#
#
#
# Elastic Constant Matrix: (Units=GPa)
#
#
# Indices 1 2 3 4 5 6 
#
# 1 146.8515 37.9863 -4.0131 0.0000 0.0000 0.0000
# 2 37.9863 146.8494 -4.0426 0.0000 0.0000 0.0000
# 3 -4.0131 -4.0426 52.3968 0.0000 0.0000 0.0000
# 4 0.0000 0.0000 0.0000 6.5720 0.0000 0.0000
# 5 0.0000 0.0000 0.0000 0.0000 6.5707 0.0000
# 6 0.0000 0.0000 0.0000 0.0000 0.0000 18.0443
#
#
#
# Elastic Compliance Matrix: (Units=1/GPa)
#
#
# Indices 1 2 3 4 5 6 
#
# 1 0.007307 -0.001879 0.000415 0.000000 0.000000 0.000000
# 2 -0.001879 0.007307 0.000420 0.000000 0.000000 0.000000
# 3 0.000415 0.000420 0.019149 0.000000 0.000000 0.000000
# 4 0.000000 0.000000 0.000000 0.152161 0.000000 0.000000
# 5 0.000000 0.000000 0.000000 0.000000 0.152190 0.000000
# 6 0.000000 0.000000 0.000000 0.000000 0.000000 0.055419
#
#
# Mechanical properties :
#
#
# Convention : Reuss Voigt Hill
#
# Bulk Modulus (GPa) = 31.57047 45.10655 38.33851
# Shear Modulus (GPa) = 12.30981 27.31522 19.81251
#
# Velocity S-wave (km/s) = 2.44579 3.64331 3.10287
# Velocity P-wave (km/s) = 4.82881 6.29426 5.60960
#
# Compressibility (1/GPa) = 0.03167517
#
# Stress axis : x y z
#
# Youngs Moduli (GPa) = 136.85701 136.85082 52.22129
#
# Poissons Ratio (x) = 0.25710 -0.02166
# Poissons Ratio (y) = 0.25711 -0.02193
# Poissons Ratio (z) = -0.05675 -0.05746
#
# Static dielectric constant tensor:
#      x y z
#    x 1.739120 0.000000 0.000000 
#    y 0.000000 1.739110 0.000000 
#    z 0.000000 0.000000 1.751590 
# 
# From -- ./inp_files/2660.got.cif
#   From: 2010.05.17/outbox.cif.g08.bks.cpg/sg131_2_cif.got.tgz:2660.got - 2010.05.20 12:21:01.
