data_PCOD9566087
_publ_section_title
;
Structure prediction by ZEFSAII (Michael W. Deem and Ramdas Pophale) SiO2 
 PCOD9566087
Probable space group: P 42/M M C
;
_chemical_formula_sum "Si O2"
_cell_formula_units_Z 112
_cell_length_a 14.405728
_cell_length_b 14.405728
_cell_length_c 32.307408
_cell_angle_alpha 90.000000
_cell_angle_beta 90.000000
_cell_angle_gamma 90.000000
_cell_volume 6704.594820
_symmetry_space_group_name_H-M "P 42/M M C"
_symmetry_group_IT_number 131
_symmetry_cell_setting 'tetragonal'
loop_
_space_group_symop_operation_xyz
x,y,z
-x,-y,z
-y,x,1/2+z
y,-x,1/2+z
-x,y,-z
x,-y,-z
y,x,1/2-z
-y,-x,1/2-z
-x,-y,-z
x,y,-z
y,-x,1/2-z
-y,x,1/2-z
x,-y,z
-x,y,z
-y,-x,1/2+z
y,x,1/2+z
loop_
_atom_site_type_symbol
_atom_site_label
_atom_site_fract_x
_atom_site_fract_y
_atom_site_fract_z
Si Si1 0.113207 0.105587 0.115206
Si Si2 0.705631 0.107949 0.578786
Si Si3 0.717902 0.388321 0.954718
Si Si4 0.389567 0.104645 0.331249
Si Si5 0.107329 0.886715 0.793937
Si Si6 0.387270 0.606045 0.626200
Si Si7 0.290143 0.612105 0.211616
O O1 0.135451 0.186327 0.083186
O O2 0.148753 0.133977 0.161148
O O3 0.000000 0.104338 0.118001
O O4 0.142136 0.000000 0.105845
O O5 0.651467 0.179095 0.550381
O O6 0.662232 0.115656 0.625067
O O7 0.698125 0.000000 0.566516
O O8 0.721684 0.500000 0.952641
O O9 0.659264 0.355499 0.915036
O O10 0.679401 0.363102 0.000000
O O11 0.500000 0.115277 0.339765
O O12 0.364858 0.182964 0.298173
O O13 0.372780 0.000000 0.316323
O O14 0.146862 0.853139 0.750000
O O15 0.000000 0.855463 0.795403
O O16 0.105577 0.000000 0.791985
O O17 0.355350 0.500000 0.626494
O O18 0.500000 0.605643 0.624767
O O19 0.363344 0.656912 0.668901
O O20 0.334843 0.665158 0.250000
O O21 0.298467 0.500000 0.217876
#
# Coordination Sequence:
#
# PCOD9566087 Si02
#       7
#    16  16  16  16  16  16  16
#     4   8  14  24  39  60  85 117 156 196 240 285
#     4  10  18  29  47  67  92 128 166 202 241 286
#     4  10  20  33  49  71  98 126 158 197 241 291
#     4   9  17  30  48  68  95 135 175 204 236 285
#     4   7   9  15  29  49  73 101 135 176 219 261
#     4   9  17  30  48  72 102 131 157 189 235 292
#     4  10  18  29  48  75 103 130 165 206 245 284
#
# _framework density 16.704961000000001
#
# number of rings (size 3 to 8) (size 9 to 14) (size 15 to 20)
#    0.000    3.000    1.429    2.143    0.000    2.143 
#    0.000    2.857    0.000    3.000    0.000    3.000 
#    0.000    0.571    0.000    1.286    0.000    0.143 
#
# Total GULP energy -623662.098923 kJ/mol
# GULP energy per Si atom -5568.411598 kJ/mol
# Density = 1.666694 g / cm^3
# Si number density = 16.704961 Si / 1000 Ang^3
#
#
#
# Elastic Constant Matrix: (Units=GPa)
#
#
# Indices 1 2 3 4 5 6 
#
# 1 53.8923 19.4721 34.4897 0.0000 0.0000 0.0000
# 2 19.4721 53.8926 34.4893 0.0000 0.0000 0.0000
# 3 34.4897 34.4893 90.1840 0.0000 0.0000 0.0000
# 4 0.0000 0.0000 0.0000 15.2909 0.0000 0.0000
# 5 0.0000 0.0000 0.0000 0.0000 15.2907 0.0000
# 6 0.0000 0.0000 0.0000 0.0000 0.0000 7.4472
#
#
#
# Elastic Compliance Matrix: (Units=1/GPa)
#
#
# Indices 1 2 3 4 5 6 
#
# 1 0.025168 -0.003884 -0.008140 0.000000 0.000000 0.000000
# 2 -0.003884 0.025168 -0.008139 0.000000 0.000000 0.000000
# 3 -0.008140 -0.008139 0.017314 0.000000 0.000000 0.000000
# 4 0.000000 0.000000 0.000000 0.065399 0.000000 0.000000
# 5 0.000000 0.000000 0.000000 0.000000 0.065399 0.000000
# 6 0.000000 0.000000 0.000000 0.000000 0.000000 0.134279
#
#
# Mechanical properties :
#
#
# Convention : Reuss Voigt Hill
#
# Bulk Modulus (GPa) = 36.59920 41.65235 39.12578
# Shear Modulus (GPa) = 13.08344 14.90693 13.99519
#
# Velocity S-wave (km/s) = 2.80162 2.99049 2.89759
# Velocity P-wave (km/s) = 5.69405 6.07555 5.88789
#
# Compressibility (1/GPa) = 0.02732300
#
# Stress axis : x y z
#
# Youngs Moduli (GPa) = 39.73258 39.73316 57.75616
#
# Poissons Ratio (x) = 0.15434 0.47012
# Poissons Ratio (y) = 0.15434 0.47010
# Poissons Ratio (z) = 0.32341 0.32341
#
# Static dielectric constant tensor:
#      x y z
#    x 1.582940 0.000000 0.000000 
#    y 0.000000 1.582940 0.000000 
#    z 0.000000 0.000000 1.586770 
# 
# From -- ./inp_files/12461.got.cif
#   From: 2010.05.17/outbox.cif.g08.bks.cpg/sg131_7_cif.got.tgz:12461.got - 2010.05.20 12:21:01.
