data_PCOD9566529
_publ_section_title
;
Structure prediction by ZEFSAII (Michael W. Deem and Ramdas Pophale) SiO2 
 PCOD9566529
Probable space group: P 42/M M C
;
_chemical_formula_sum "Si O2"
_cell_formula_units_Z 96
_cell_length_a 24.361149
_cell_length_b 24.361149
_cell_length_c 8.353347
_cell_angle_alpha 90.000000
_cell_angle_beta 90.000000
_cell_angle_gamma 90.000000
_cell_volume 4957.423927
_symmetry_space_group_name_H-M "P 42/M M C"
_symmetry_group_IT_number 131
_symmetry_cell_setting 'tetragonal'
loop_
_space_group_symop_operation_xyz
x,y,z
-x,-y,z
-y,x,1/2+z
y,-x,1/2+z
-x,y,-z
x,-y,-z
y,x,1/2-z
-y,-x,1/2-z
-x,-y,-z
x,y,-z
y,-x,1/2-z
-y,x,1/2-z
x,-y,z
-x,y,z
-y,-x,1/2+z
y,x,1/2+z
loop_
_atom_site_type_symbol
_atom_site_label
_atom_site_fract_x
_atom_site_fract_y
_atom_site_fract_z
Si Si1 0.325482 0.938974 0.676561
Si Si2 0.063802 0.149211 0.191147
Si Si3 0.860593 0.751730 0.319894
Si Si4 0.202035 0.439104 0.189929
Si Si5 0.080083 0.560920 0.313424
Si Si6 0.322471 0.759942 0.192659
O O1 0.314087 0.915132 0.500000
O O2 0.298279 0.903399 0.812987
O O3 0.389931 0.941316 0.706550
O O4 0.302171 0.000000 0.679781
O O5 0.093398 0.093398 0.250000
O O6 0.105605 0.198641 0.239772
O O7 0.000000 0.155549 0.249062
O O8 0.061747 0.148701 0.000000
O O9 0.847380 0.769629 0.500000
O O10 0.806952 0.721230 0.249149
O O11 0.227499 0.500000 0.218216
O O12 0.145511 0.437913 0.288458
O O13 0.232427 0.383522 0.239338
O O14 0.189528 0.436113 0.000000
O O15 0.066671 0.569592 0.500000
O O16 0.061831 0.500000 0.266951
O O17 0.296832 0.703169 0.250000
O O18 0.324436 0.764289 0.000000
#
# Coordination Sequence:
#
# PCOD9566529 Si02
#       6
#    16  16  16  16  16  16
#     4  11  23  36  52  75 105 143 188 238 287 338
#     4  11  25  44  66  91 117 146 182 227 282 346
#     4  11  23  39  60  86 115 150 188 230 283 340
#     4  10  20  35  57  83 113 152 194 238 288 340
#     4  10  20  34  52  74 102 139 186 237 286 336
#     4  11  23  37  57  87 120 155 195 239 285 336
#
# _framework density 19.364895000000001
#
# number of rings (size 3 to 8) (size 9 to 14) (size 15 to 20)
#    0.000    1.333    1.667    4.000    0.000   10.500 
#    0.000    2.500    0.000    0.000    0.000    0.000 
#    0.000    0.333    0.000    3.500    0.000    1.500 
#
# Total GULP energy -535679.872110 kJ/mol
# GULP energy per Si atom -5579.998668 kJ/mol
# Density = 1.932082 g / cm^3
# Si number density = 19.364895 Si / 1000 Ang^3
#
#
#
# Elastic Constant Matrix: (Units=GPa)
#
#
# Indices 1 2 3 4 5 6 
#
# 1 99.1122 65.3750 18.6570 0.0000 0.0000 0.0000
# 2 65.3750 99.1165 18.6577 0.0000 0.0000 0.0000
# 3 18.6570 18.6577 52.6273 0.0000 0.0000 0.0000
# 4 0.0000 0.0000 0.0000 27.1530 0.0000 0.0000
# 5 0.0000 0.0000 0.0000 0.0000 27.1536 0.0000
# 6 0.0000 0.0000 0.0000 0.0000 0.0000 -15.4222
#
#
#
# Elastic Compliance Matrix: (Units=1/GPa)
#
#
# Indices 1 2 3 4 5 6 
#
# 1 0.018125 -0.011514 -0.002344 0.000000 0.000000 0.000000
# 2 -0.011514 0.018125 -0.002344 0.000000 0.000000 0.000000
# 3 -0.002344 -0.002344 0.020663 0.000000 0.000000 0.000000
# 4 0.000000 0.000000 0.000000 0.036828 0.000000 0.000000
# 5 0.000000 0.000000 0.000000 0.000000 0.036828 0.000000
# 6 0.000000 0.000000 0.000000 0.000000 0.000000 -0.064841
#
#
# Mechanical properties :
#
#
# Convention : Reuss Voigt Hill
#
# Bulk Modulus (GPa) = 40.79877 50.69281 45.74579
# Shear Modulus (GPa) = 47.03629 17.65463 32.34546
#
# Velocity S-wave (km/s) = 4.93378 3.02268 4.09138
# Velocity P-wave (km/s) = 7.31918 6.19812 6.78185
#
# Compressibility (1/GPa) = 0.02451054
#
# Stress axis : x y z
#
# Youngs Moduli (GPa) = 55.17117 55.17343 48.39484
#
# Poissons Ratio (x) = 0.63526 0.11342
# Poissons Ratio (y) = 0.63524 0.11343
# Poissons Ratio (z) = 0.12930 0.12932
#
# Static dielectric constant tensor:
#      x y z
#    x 1.699930 0.000000 0.000000 
#    y 0.000000 1.699920 0.000000 
#    z 0.000000 0.000000 1.684290 
# 
# From -- ./inp_files/2190.got.cif
#   From: 2010.05.17/outbox.cif.g08.bks.cpg/sg131_2_cif.got.tgz:2190.got - 2010.05.20 12:21:01.
