data_PCOD9566734
_publ_section_title
;
Structure prediction by ZEFSAII (Michael W. Deem and Ramdas Pophale) SiO2 
 PCOD9566734
Probable space group: P 42/M M C
;
_chemical_formula_sum "Si O2"
_cell_formula_units_Z 96
_cell_length_a 24.849119
_cell_length_b 24.849119
_cell_length_c 8.539880
_cell_angle_alpha 90.000000
_cell_angle_beta 90.000000
_cell_angle_gamma 90.000000
_cell_volume 5273.194129
_symmetry_space_group_name_H-M "P 42/M M C"
_symmetry_group_IT_number 131
_symmetry_cell_setting 'tetragonal'
loop_
_space_group_symop_operation_xyz
x,y,z
-x,-y,z
-y,x,1/2+z
y,-x,1/2+z
-x,y,-z
x,-y,-z
y,x,1/2-z
-y,-x,1/2-z
-x,-y,-z
x,y,-z
y,-x,1/2-z
-y,x,1/2-z
x,-y,z
-x,y,z
-y,-x,1/2+z
y,x,1/2+z
loop_
_atom_site_type_symbol
_atom_site_label
_atom_site_fract_x
_atom_site_fract_y
_atom_site_fract_z
Si Si1 0.354320 0.855438 0.813328
Si Si2 0.560134 0.644511 0.188513
Si Si3 0.560422 0.768021 0.190846
Si Si4 0.149606 0.766490 0.187393
Si Si5 0.938056 0.854143 0.810716
Si Si6 0.064076 0.439946 0.813326
O O1 0.391602 0.806024 0.754896
O O2 0.294751 0.855054 0.743184
O O3 0.390754 0.906666 0.769558
O O4 0.349133 0.851652 0.000000
O O5 0.604801 0.604801 0.250000
O O6 0.500000 0.628456 0.239988
O O7 0.569008 0.706247 0.237909
O O8 0.560802 0.644035 0.000000
O O9 0.500000 0.784364 0.241699
O O10 0.560137 0.769800 0.000000
O O11 0.202302 0.797699 0.250000
O O12 0.098255 0.802837 0.238697
O O13 0.151288 0.767297 0.000000
O O14 0.906663 0.906663 0.750000
O O15 0.000000 0.851215 0.758004
O O16 0.937950 0.855343 0.000000
O O17 0.081401 0.500000 0.758617
O O18 0.000000 0.436757 0.791149
O O19 0.074383 0.436956 0.000000
#
# Coordination Sequence:
#
# PCOD9566734 Si02
#       6
#    16  16  16  16  16  16
#     4  11  21  33  54  82 107 135 175 220 267 322
#     4   9  18  33  51  70  95 127 161 198 244 299
#     4   8  16  32  51  71  98 131 165 206 257 307
#     4  10  21  38  56  75 105 143 180 219 262 310
#     4   9  19  36  57  80 106 138 173 208 250 299
#     4   9  19  36  55  76 107 145 181 220 267 315
#
# _framework density 18.205285
#
# number of rings (size 3 to 8) (size 9 to 14) (size 15 to 20)
#    0.000    2.667    0.000    3.000    0.000    4.333 
#    0.000    7.500    0.000    2.000    0.000    0.000 
#    0.000    0.000    0.000    0.000    0.000    0.000 
#
# Total GULP energy -535361.827767 kJ/mol
# GULP energy per Si atom -5576.685706 kJ/mol
# Density = 1.816385 g / cm^3
# Si number density = 18.205285 Si / 1000 Ang^3
#
#
#
# Elastic Constant Matrix: (Units=GPa)
#
#
# Indices 1 2 3 4 5 6 
#
# 1 144.5127 83.5562 29.2904 0.0000 0.0000 0.0000
# 2 83.5562 144.5178 29.2906 0.0000 0.0000 0.0000
# 3 29.2904 29.2906 21.7826 0.0000 0.0000 0.0000
# 4 0.0000 0.0000 0.0000 21.6341 0.0000 0.0000
# 5 0.0000 0.0000 0.0000 0.0000 21.6330 0.0000
# 6 0.0000 0.0000 0.0000 0.0000 0.0000 31.0862
#
#
#
# Elastic Compliance Matrix: (Units=1/GPa)
#
#
# Indices 1 2 3 4 5 6 
#
# 1 0.011551 -0.004853 -0.009007 0.000000 0.000000 0.000000
# 2 -0.004853 0.011551 -0.009006 0.000000 0.000000 0.000000
# 3 -0.009007 -0.009006 0.070130 0.000000 0.000000 0.000000
# 4 0.000000 0.000000 0.000000 0.046223 0.000000 0.000000
# 5 0.000000 0.000000 0.000000 0.000000 0.046226 0.000000
# 6 0.000000 0.000000 0.000000 0.000000 0.000000 0.032169
#
#
# Mechanical properties :
#
#
# Convention : Reuss Voigt Hill
#
# Bulk Modulus (GPa) = 21.05278 66.12085 43.58681
# Shear Modulus (GPa) = 17.89445 26.11572 22.00509
#
# Velocity S-wave (km/s) = 3.13857 3.79161 3.48044
# Velocity P-wave (km/s) = 4.97226 7.45431 6.33601
#
# Compressibility (1/GPa) = 0.04749967
#
# Stress axis : x y z
#
# Youngs Moduli (GPa) = 86.56911 86.57276 14.25921
#
# Poissons Ratio (x) = 0.42016 0.12843
# Poissons Ratio (y) = 0.42014 0.12842
# Poissons Ratio (z) = 0.77971 0.77971
#
# Static dielectric constant tensor:
#      x y z
#    x 1.617980 0.000000 0.000000 
#    y 0.000000 1.617980 0.000000 
#    z 0.000000 0.000000 1.631150 
# 
# From -- ./inp_files/2288.got.cif
#   From: 2010.05.17/outbox.cif.g08.bks.cpg/sg131_2_cif.got.tgz:2288.got - 2010.05.20 12:21:01.
