data_PCOD9566791
_publ_section_title
;
Structure prediction by ZEFSAII (Michael W. Deem and Ramdas Pophale) SiO2 
 PCOD9566791
Probable space group: P 42/M M C
;
_chemical_formula_sum "Si O2"
_cell_formula_units_Z 56
_cell_length_a 18.476426
_cell_length_b 18.476426
_cell_length_c 7.911665
_cell_angle_alpha 90.000000
_cell_angle_beta 90.000000
_cell_angle_gamma 90.000000
_cell_volume 2700.870888
_symmetry_space_group_name_H-M "P 42/M M C"
_symmetry_group_IT_number 131
_symmetry_cell_setting 'tetragonal'
loop_
_space_group_symop_operation_xyz
x,y,z
-x,-y,z
-y,x,1/2+z
y,-x,1/2+z
-x,y,-z
x,-y,-z
y,x,1/2-z
-y,-x,1/2-z
-x,-y,-z
x,y,-z
y,-x,1/2-z
-y,x,1/2-z
x,-y,z
-x,y,z
-y,-x,1/2+z
y,x,1/2+z
loop_
_atom_site_type_symbol
_atom_site_label
_atom_site_fract_x
_atom_site_fract_y
_atom_site_fract_z
Si Si1 0.917958 0.805109 0.297828
Si Si2 0.694960 0.416041 0.797534
Si Si3 0.919726 0.585558 0.000000
Si Si4 0.161057 0.658635 0.696256
O O1 0.879980 0.879980 0.250000
O O2 0.922341 0.802801 0.500000
O O3 0.864109 0.739263 0.250307
O O4 0.000000 0.796531 0.231058
O O5 0.617572 0.382429 0.750000
O O6 0.703277 0.500000 0.744809
O O7 0.755478 0.364166 0.714880
O O8 0.704483 0.413175 0.000000
O O9 0.879566 0.608705 0.830250
O O10 0.923714 0.500000 0.000000
O O11 0.000000 0.617733 0.000000
O O12 0.139876 0.648390 0.500000
#
# Coordination Sequence:
#
# PCOD9566791 Si02
#       4
#    16  16   8  16
#     4  10  23  41  62  93 128 167 217 268 324 388
#     4  11  24  42  65  96 133 172 220 275 328 391
#     4  11  24  40  62  96 132 170 218 267 326 396
#     4  11  23  42  68  94 130 172 220 270 328 388
#
# _framework density 20.734051999999998
#
# number of rings (size 3 to 8) (size 9 to 14) (size 15 to 20)
#    0.000    1.286    1.429    3.429    2.000    9.143 
#    0.000    4.286    0.000    0.000    0.000    0.000 
#    0.000    0.000    0.000    0.000    0.000    0.000 
#
# Total GULP energy -312766.966226 kJ/mol
# GULP energy per Si atom -5585.124397 kJ/mol
# Density = 2.068686 g / cm^3
# Si number density = 20.734052 Si / 1000 Ang^3
#
#
#
# Elastic Constant Matrix: (Units=GPa)
#
#
# Indices 1 2 3 4 5 6 
#
# 1 112.0215 74.6701 19.0543 0.0000 0.0000 0.0000
# 2 74.6701 112.0099 19.0541 0.0000 0.0000 0.0000
# 3 19.0543 19.0541 76.1769 0.0000 0.0000 0.0000
# 4 0.0000 0.0000 0.0000 25.5678 0.0000 0.0000
# 5 0.0000 0.0000 0.0000 0.0000 25.5683 0.0000
# 6 0.0000 0.0000 0.0000 0.0000 0.0000 32.1312
#
#
#
# Elastic Compliance Matrix: (Units=1/GPa)
#
#
# Indices 1 2 3 4 5 6 
#
# 1 0.016210 -0.010566 -0.001412 0.000000 0.000000 0.000000
# 2 -0.010566 0.016212 -0.001412 0.000000 0.000000 0.000000
# 3 -0.001412 -0.001412 0.013834 0.000000 0.000000 0.000000
# 4 0.000000 0.000000 0.000000 0.039112 0.000000 0.000000
# 5 0.000000 0.000000 0.000000 0.000000 0.039111 0.000000
# 6 0.000000 0.000000 0.000000 0.000000 0.000000 0.031122
#
#
# Mechanical properties :
#
#
# Convention : Reuss Voigt Hill
#
# Bulk Modulus (GPa) = 51.34645 58.41835 54.88240
# Shear Modulus (GPa) = 26.47295 29.14879 27.81087
#
# Velocity S-wave (km/s) = 3.57709 3.75352 3.66637
# Velocity P-wave (km/s) = 6.47139 6.85722 6.66710
#
# Compressibility (1/GPa) = 0.01947554
#
# Stress axis : x y z
#
# Youngs Moduli (GPa) = 61.69038 61.68379 72.28737
#
# Poissons Ratio (x) = 0.65175 0.10205
# Poissons Ratio (y) = 0.65182 0.10208
# Poissons Ratio (z) = 0.08709 0.08711
#
# Static dielectric constant tensor:
#      x y z
#    x 1.753700 0.000000 0.000000 
#    y 0.000000 1.753700 0.000000 
#    z 0.000000 0.000000 1.722440 
# 
# From -- ./inp_files/1218.got.cif
#   From: 2010.05.17/outbox.cif.g08.bks.cpg/sg131_1_cif.got.tgz:1218.got - 2010.05.20 12:21:01.
