data_PCOD9566153
_publ_section_title
;
Structure prediction by ZEFSAII (Michael W. Deem and Ramdas Pophale) SiO2 
 PCOD9566153
Probable space group: P 42/M M C
;
_chemical_formula_sum "Si O2"
_cell_formula_units_Z 40
_cell_length_a 7.500616
_cell_length_b 7.500616
_cell_length_c 34.063574
_cell_angle_alpha 90.000000
_cell_angle_beta 90.000000
_cell_angle_gamma 90.000000
_cell_volume 1916.390798
_symmetry_space_group_name_H-M "P 42/M M C"
_symmetry_group_IT_number 131
_symmetry_cell_setting 'tetragonal'
loop_
_space_group_symop_operation_xyz
x,y,z
-x,-y,z
-y,x,1/2+z
y,-x,1/2+z
-x,y,-z
x,-y,-z
y,x,1/2-z
-y,-x,1/2-z
-x,-y,-z
x,y,-z
y,-x,1/2-z
-y,x,1/2-z
x,-y,z
-x,y,z
-y,-x,1/2+z
y,x,1/2+z
loop_
_atom_site_type_symbol
_atom_site_label
_atom_site_fract_x
_atom_site_fract_y
_atom_site_fract_z
Si Si1 0.216428 0.301143 0.586062
Si Si2 0.291240 0.000000 0.736774
Si Si3 0.782457 0.000000 0.645935
Si Si4 0.205649 0.786960 0.500000
O O1 0.258191 0.500000 0.597948
O O2 0.274527 0.166057 0.619279
O O3 0.284348 0.269571 0.541746
O O4 0.000000 0.279933 0.583518
O O5 0.173297 0.173297 0.750000
O O6 0.290299 0.000000 0.689549
O O7 0.500000 0.000000 0.750364
O O8 0.000000 0.000000 0.649309
O O9 0.000000 0.720381 0.500000
O O10 0.201853 0.000000 0.500000
#
# Coordination Sequence:
#
# PCOD9566153 Si02
#       4
#    16   8   8   8
#     4   9  16  24  41  71 111 158 205 256 315 372
#     4  11  25  48  74 102 135 172 216 273 341 414
#     4  10  18  34  55  84 117 154 205 261 319 388
#     4   9  13  21  35  60 107 158 206 260 310 360
#
# _framework density 20.872572000000002
#
# number of rings (size 3 to 8) (size 9 to 14) (size 15 to 20)
#    0.000    2.400    4.000    0.600    0.000    4.400 
#    0.000    0.000    0.000    0.000    0.000    2.800 
#    0.000    3.200    0.000    0.000    0.000    0.000 
#
# Total GULP energy -223191.646309 kJ/mol
# GULP energy per Si atom -5579.791158 kJ/mol
# Density = 2.082506 g / cm^3
# Si number density = 20.872572 Si / 1000 Ang^3
#
#
#
# Elastic Constant Matrix: (Units=GPa)
#
#
# Indices 1 2 3 4 5 6 
#
# 1 116.1671 37.6552 50.1524 0.0000 0.0000 0.0000
# 2 37.6552 116.1671 50.1524 0.0000 0.0000 0.0000
# 3 50.1524 50.1524 169.6680 0.0000 0.0000 0.0000
# 4 0.0000 0.0000 0.0000 -18.6799 0.0000 0.0000
# 5 0.0000 0.0000 0.0000 0.0000 -18.6799 0.0000
# 6 0.0000 0.0000 0.0000 0.0000 0.0000 -4.8791
#
#
#
# Elastic Compliance Matrix: (Units=1/GPa)
#
#
# Indices 1 2 3 4 5 6 
#
# 1 0.010395 -0.002342 -0.002380 0.000000 0.000000 0.000000
# 2 -0.002342 0.010395 -0.002380 0.000000 0.000000 0.000000
# 3 -0.002380 -0.002380 0.007301 0.000000 0.000000 0.000000
# 4 0.000000 0.000000 0.000000 -0.053533 0.000000 0.000000
# 5 0.000000 0.000000 0.000000 0.000000 -0.053533 0.000000
# 6 0.000000 0.000000 0.000000 0.000000 0.000000 -0.204957
#
#
# Mechanical properties :
#
#
# Convention : Reuss Voigt Hill
#
# Bulk Modulus (GPa) = 72.01604 75.32469 73.67037
# Shear Modulus (GPa) = -18.86092 9.15503 -4.85294
#
# Velocity S-wave (km/s) = -3.00929 2.09659 -1.52646
# Velocity P-wave (km/s) = 4.74375 6.48283 5.68024
#
# Compressibility (1/GPa) = 0.01388579
#
# Stress axis : x y z
#
# Youngs Moduli (GPa) = 96.19918 96.19918 136.96453
#
# Poissons Ratio (x) = 0.22528 0.32604
# Poissons Ratio (y) = 0.22528 0.32604
# Poissons Ratio (z) = 0.22900 0.22900
#
# Static dielectric constant tensor:
#      x y z
#    x 1.789150 0.000000 0.000000 
#    y 0.000000 1.789150 0.000000 
#    z 0.000000 0.000000 1.714730 
# 
# From -- ./inp_files/11738.got.cif
#   From: 2010.05.17/outbox.cif.g08.bks.cpg/sg131_6_cif.got.tgz:11738.got - 2010.05.20 12:21:01.
