data_PCOD9566069
_publ_section_title
;
Structure prediction by ZEFSAII (Michael W. Deem and Ramdas Pophale) SiO2 
 PCOD9566069
Probable space group: P 42/M M C
;
_chemical_formula_sum "Si O2"
_cell_formula_units_Z 56
_cell_length_a 14.061662
_cell_length_b 14.061662
_cell_length_c 18.825371
_cell_angle_alpha 90.000000
_cell_angle_beta 90.000000
_cell_angle_gamma 90.000000
_cell_volume 3722.346975
_symmetry_space_group_name_H-M "P 42/M M C"
_symmetry_group_IT_number 131
_symmetry_cell_setting 'tetragonal'
loop_
_space_group_symop_operation_xyz
x,y,z
-x,-y,z
-y,x,1/2+z
y,-x,1/2+z
-x,y,-z
x,-y,-z
y,x,1/2-z
-y,-x,1/2-z
-x,-y,-z
x,y,-z
y,-x,1/2-z
-y,x,1/2-z
x,-y,z
-x,y,z
-y,-x,1/2+z
y,x,1/2+z
loop_
_atom_site_type_symbol
_atom_site_label
_atom_site_fract_x
_atom_site_fract_y
_atom_site_fract_z
Si Si1 0.611657 0.754470 0.212181
Si Si2 0.110992 0.611646 0.155330
Si Si3 0.715374 0.304211 0.083373
Si Si4 0.393739 0.500000 0.085218
O O1 0.668205 0.668205 0.250000
O O2 0.500000 0.733802 0.202853
O O3 0.620412 0.842755 0.266330
O O4 0.663736 0.768261 0.136705
O O5 0.121056 0.500000 0.134376
O O6 0.175615 0.676570 0.104514
O O7 0.000000 0.635167 0.154488
O O8 0.663280 0.404664 0.101619
O O9 0.704017 0.284555 0.000000
O O10 0.500000 0.500000 0.115984
O O11 0.402072 0.500000 0.000000
#
# Coordination Sequence:
#
# PCOD9566069 Si02
#       4
#    16  16  16   8
#     4   9  18  29  41  60  86 118 154 184 215 258
#     4   9  17  30  45  59  81 116 157 196 226 256
#     4  10  18  28  41  62  89 115 149 185 221 264
#     4   9  16  24  35  55  87 123 149 170 202 248
#
# _framework density 15.044271999999999
#
# number of rings (size 3 to 8) (size 9 to 14) (size 15 to 20)
#    0.000    2.714    1.429    0.857    2.000    2.571 
#    0.000    1.429    0.000    0.857    0.000    4.000 
#    0.000   46.286    0.000   23.143    0.000    0.000 
#
# Total GULP energy -311875.322795 kJ/mol
# GULP energy per Si atom -5569.202193 kJ/mol
# Density = 1.501003 g / cm^3
# Si number density = 15.044272 Si / 1000 Ang^3
#
#
#
# Elastic Constant Matrix: (Units=GPa)
#
#
# Indices 1 2 3 4 5 6 
#
# 1 64.1240 7.7617 13.2585 0.0000 0.0000 0.0000
# 2 7.7617 64.1240 13.2585 0.0000 0.0000 0.0000
# 3 13.2585 13.2585 92.5099 0.0000 0.0000 0.0000
# 4 0.0000 0.0000 0.0000 12.0234 0.0000 0.0000
# 5 0.0000 0.0000 0.0000 0.0000 12.0234 0.0000
# 6 0.0000 0.0000 0.0000 0.0000 0.0000 9.3479
#
#
#
# Elastic Compliance Matrix: (Units=1/GPa)
#
#
# Indices 1 2 3 4 5 6 
#
# 1 0.016215 -0.001527 -0.002105 0.000000 0.000000 0.000000
# 2 -0.001527 0.016215 -0.002105 0.000000 0.000000 0.000000
# 3 -0.002105 -0.002105 0.011413 0.000000 0.000000 0.000000
# 4 0.000000 0.000000 0.000000 0.083171 0.000000 0.000000
# 5 0.000000 0.000000 0.000000 0.000000 0.083171 0.000000
# 6 0.000000 0.000000 0.000000 0.000000 0.000000 0.106976
#
#
# Mechanical properties :
#
#
# Convention : Reuss Voigt Hill
#
# Bulk Modulus (GPa) = 30.89478 32.14616 31.52047
# Shear Modulus (GPa) = 14.73078 19.11087 16.92083
#
# Velocity S-wave (km/s) = 3.13255 3.56801 3.35735
# Velocity P-wave (km/s) = 5.80210 6.19583 6.00219
#
# Compressibility (1/GPa) = 0.03236793
#
# Stress axis : x y z
#
# Youngs Moduli (GPa) = 61.67163 61.67163 87.61913
#
# Poissons Ratio (x) = 0.09420 0.18444
# Poissons Ratio (y) = 0.09420 0.18444
# Poissons Ratio (z) = 0.12982 0.12982
#
# Static dielectric constant tensor:
#      x y z
#    x 1.495590 0.000000 0.000000 
#    y 0.000000 1.495590 0.000000 
#    z 0.000000 0.000000 1.537650 
# 
# From -- ./inp_files/7190.got.cif
#   From: 2010.05.17/outbox.cif.g08.bks.cpg/sg131_4_cif.got.tgz:7190.got - 2010.05.20 12:21:01.
