data_PCOD9566246
_publ_section_title
;
Structure prediction by ZEFSAII (Michael W. Deem and Ramdas Pophale) SiO2 
 PCOD9566246
Probable space group: P 42/M M C
;
_chemical_formula_sum "Si O2"
_cell_formula_units_Z 96
_cell_length_a 24.959748
_cell_length_b 24.959748
_cell_length_c 7.874437
_cell_angle_alpha 90.000000
_cell_angle_beta 90.000000
_cell_angle_gamma 90.000000
_cell_volume 4905.687791
_symmetry_space_group_name_H-M "P 42/M M C"
_symmetry_group_IT_number 131
_symmetry_cell_setting 'tetragonal'
loop_
_space_group_symop_operation_xyz
x,y,z
-x,-y,z
-y,x,1/2+z
y,-x,1/2+z
-x,y,-z
x,-y,-z
y,x,1/2-z
-y,-x,1/2-z
-x,-y,-z
x,y,-z
y,-x,1/2-z
-y,x,1/2-z
x,-y,z
-x,y,z
-y,-x,1/2+z
y,x,1/2+z
loop_
_atom_site_type_symbol
_atom_site_label
_atom_site_fract_x
_atom_site_fract_y
_atom_site_fract_z
Si Si1 0.647086 0.559861 0.797645
Si Si2 0.854343 0.355289 0.200591
Si Si3 0.234102 0.852244 0.295071
Si Si4 0.560173 0.231221 0.801374
Si Si5 0.440658 0.061967 0.292489
Si Si6 0.061209 0.147890 0.795200
O O1 0.604231 0.604231 0.750000
O O2 0.629330 0.500000 0.745200
O O3 0.705458 0.569210 0.719003
O O4 0.654014 0.560158 0.000000
O O5 0.851150 0.295055 0.270140
O O6 0.801674 0.391657 0.219841
O O7 0.901640 0.392586 0.272152
O O8 0.864838 0.349235 0.000000
O O9 0.200858 0.799143 0.250000
O O10 0.235475 0.855181 0.500000
O O11 0.198304 0.902789 0.234414
O O12 0.500000 0.219661 0.731162
O O13 0.559688 0.217828 0.000000
O O14 0.440461 0.063939 0.500000
O O15 0.500000 0.080646 0.238230
O O16 0.434639 0.000000 0.244655
O O17 0.094626 0.094626 0.750000
O O18 0.000000 0.147933 0.732502
O O19 0.059364 0.150979 0.000000
#
# Coordination Sequence:
#
# PCOD9566246 Si02
#       6
#    16  16  16  16  16  16
#     4  10  21  37  57  80 106 136 170 209 254 305
#     4  10  19  31  51  76  99 128 169 212 253 303
#     4   9  19  34  50  70  97 130 165 202 247 294
#     4  10  21  36  53  74 102 135 171 213 259 304
#     4   8  14  25  43  70 101 127 153 193 245 296
#     4   9  18  33  52  74 102 134 167 206 251 298
#
# _framework density 19.569120999999999
#
# number of rings (size 3 to 8) (size 9 to 14) (size 15 to 20)
#    0.000    2.667    0.000    2.000    0.000    5.333 
#    0.000    6.667    0.000    0.500    0.000    4.667 
#    0.000    0.000    0.000    0.000    0.000    0.000 
#
# Total GULP energy -535464.382141 kJ/mol
# GULP energy per Si atom -5577.753981 kJ/mol
# Density = 1.952458 g / cm^3
# Si number density = 19.569121 Si / 1000 Ang^3
#
#
#
# Elastic Constant Matrix: (Units=GPa)
#
#
# Indices 1 2 3 4 5 6 
#
# 1 169.7295 105.9548 2.1337 0.0000 0.0000 0.0000
# 2 105.9548 169.7308 2.1331 0.0000 0.0000 0.0000
# 3 2.1337 2.1331 23.3677 0.0000 0.0000 0.0000
# 4 0.0000 0.0000 0.0000 4.6939 0.0000 0.0000
# 5 0.0000 0.0000 0.0000 0.0000 4.6970 0.0000
# 6 0.0000 0.0000 0.0000 0.0000 0.0000 60.0884
#
#
#
# Elastic Compliance Matrix: (Units=1/GPa)
#
#
# Indices 1 2 3 4 5 6 
#
# 1 0.009656 -0.006024 -0.000332 0.000000 0.000000 0.000000
# 2 -0.006024 0.009656 -0.000331 0.000000 0.000000 0.000000
# 3 -0.000332 -0.000331 0.042855 0.000000 0.000000 0.000000
# 4 0.000000 0.000000 0.000000 0.213041 0.000000 0.000000
# 5 0.000000 0.000000 0.000000 0.000000 0.212901 0.000000
# 6 0.000000 0.000000 0.000000 0.000000 0.000000 0.016642
#
#
# Mechanical properties :
#
#
# Convention : Reuss Voigt Hill
#
# Bulk Modulus (GPa) = 20.49471 64.80793 42.65132
# Shear Modulus (GPa) = 9.35646 30.73630 20.04638
#
# Velocity S-wave (km/s) = 2.18898 3.96745 3.20408
# Velocity P-wave (km/s) = 4.10908 7.36049 5.96076
#
# Compressibility (1/GPa) = 0.04879308
#
# Stress axis : x y z
#
# Youngs Moduli (GPa) = 103.55938 103.56025 23.33466
#
# Poissons Ratio (x) = 0.62383 0.00774
# Poissons Ratio (y) = 0.62382 0.00773
# Poissons Ratio (z) = 0.03437 0.03432
#
# Static dielectric constant tensor:
#      x y z
#    x 1.681240 0.000000 0.000000 
#    y 0.000000 1.681240 0.000000 
#    z 0.000000 0.000000 1.729780 
# 
# From -- ./inp_files/2208.got.cif
#   From: 2010.05.17/outbox.cif.g08.bks.cpg/sg131_2_cif.got.tgz:2208.got - 2010.05.20 12:21:01.
