data_PCOD9566731
_publ_section_title
;
Structure prediction by ZEFSAII (Michael W. Deem and Ramdas Pophale) SiO2 
 PCOD9566731
Probable space group: P 42/M M C
;
_chemical_formula_sum "Si O2"
_cell_formula_units_Z 42
_cell_length_a 7.924818
_cell_length_b 7.924818
_cell_length_c 33.177644
_cell_angle_alpha 90.000000
_cell_angle_beta 90.000000
_cell_angle_gamma 90.000000
_cell_volume 2083.646961
_symmetry_space_group_name_H-M "P 42/M M C"
_symmetry_group_IT_number 131
_symmetry_cell_setting 'tetragonal'
loop_
_space_group_symop_operation_xyz
x,y,z
-x,-y,z
-y,x,1/2+z
y,-x,1/2+z
-x,y,-z
x,-y,-z
y,x,1/2-z
-y,-x,1/2-z
-x,-y,-z
x,y,-z
y,-x,1/2-z
-y,x,1/2-z
x,-y,z
-x,y,z
-y,-x,1/2+z
y,x,1/2+z
loop_
_atom_site_type_symbol
_atom_site_label
_atom_site_fract_x
_atom_site_fract_y
_atom_site_fract_z
Si Si1 0.181319 0.200760 0.368960
Si Si2 0.500000 0.500000 0.250000
Si Si3 0.302248 0.296489 0.455897
Si Si4 0.500000 0.792594 0.684929
O O1 0.211299 0.233867 0.416154
O O2 0.337603 0.256244 0.342000
O O3 0.000000 0.273497 0.356889
O O4 0.175936 0.000000 0.363776
O O5 0.328182 0.500000 0.223541
O O6 0.239224 0.239484 0.500000
O O7 0.294435 0.500000 0.455572
O O8 0.500000 0.248486 0.453006
O O9 0.500000 0.000000 0.691737
#
# Coordination Sequence:
#
# PCOD9566731 Si02
#       4
#    16   2  16   8
#     4  10  21  37  59  86 119 161 201 243 298 354
#     4  12  28  44  76 100 114 156 200 232 308 392
#     4   9  18  32  52  81 119 161 206 254 296 340
#     4  10  24  46  65  93 129 151 190 251 302 363
#
# _framework density 20.156963999999999
#
# number of rings (size 3 to 8) (size 9 to 14) (size 15 to 20)
#    0.000    2.286    1.905    1.143    2.667    3.810 
#    0.000    5.714    0.000    0.000    0.000    0.000 
#    0.000    0.000    0.000    0.000    0.000    0.000 
#
# Total GULP energy -234283.477549 kJ/mol
# GULP energy per Si atom -5578.178037 kJ/mol
# Density = 2.011109 g / cm^3
# Si number density = 20.156964 Si / 1000 Ang^3
#
#
#
# Elastic Constant Matrix: (Units=GPa)
#
#
# Indices 1 2 3 4 5 6 
#
# 1 86.3794 36.1441 56.8050 0.0000 0.0000 0.0000
# 2 36.1441 86.3794 56.8050 0.0000 0.0000 0.0000
# 3 56.8050 56.8050 131.5360 0.0000 0.0000 0.0000
# 4 0.0000 0.0000 0.0000 -52.3595 0.0000 0.0000
# 5 0.0000 0.0000 0.0000 0.0000 -52.3595 0.0000
# 6 0.0000 0.0000 0.0000 0.0000 0.0000 1.3188
#
#
#
# Elastic Compliance Matrix: (Units=1/GPa)
#
#
# Indices 1 2 3 4 5 6 
#
# 1 0.016760 -0.003147 -0.005879 0.000000 0.000000 0.000000
# 2 -0.003147 0.016760 -0.005879 0.000000 0.000000 0.000000
# 3 -0.005879 -0.005879 0.012680 0.000000 0.000000 0.000000
# 4 0.000000 0.000000 0.000000 -0.019099 0.000000 0.000000
# 5 0.000000 0.000000 0.000000 0.000000 -0.019099 0.000000
# 6 0.000000 0.000000 0.000000 0.000000 0.000000 0.758281
#
#
# Mechanical properties :
#
#
# Convention : Reuss Voigt Hill
#
# Bulk Modulus (GPa) = 61.01094 67.08924 64.05009
# Shear Modulus (GPa) = 6.23787 -10.37733 -2.06973
#
# Velocity S-wave (km/s) = 1.76107 -2.27144 -1.01441
# Velocity P-wave (km/s) = 5.87101 5.14552 5.52020
#
# Compressibility (1/GPa) = 0.01639050
#
# Stress axis : x y z
#
# Youngs Moduli (GPa) = 59.66736 59.66736 78.86344
#
# Poissons Ratio (x) = 0.18776 0.46363
# Poissons Ratio (y) = 0.18776 0.46363
# Poissons Ratio (z) = 0.35077 0.35077
#
# Static dielectric constant tensor:
#      x y z
#    x 1.741620 0.000000 0.000000 
#    y 0.000000 1.741620 0.000000 
#    z 0.000000 0.000000 1.683790 
# 
# From -- ./inp_files/11742.got.cif
#   From: 2010.05.17/outbox.cif.g08.bks.cpg/sg131_6_cif.got.tgz:11742.got - 2010.05.20 12:21:01.
