data_PCOD9566512
_publ_section_title
;
Structure prediction by ZEFSAII (Michael W. Deem and Ramdas Pophale) SiO2 
 PCOD9566512
Probable space group: P 42/M M C
;
_chemical_formula_sum "Si O2"
_cell_formula_units_Z 104
_cell_length_a 18.865835
_cell_length_b 18.865835
_cell_length_c 16.060426
_cell_angle_alpha 90.000000
_cell_angle_beta 90.000000
_cell_angle_gamma 90.000000
_cell_volume 5716.222490
_symmetry_space_group_name_H-M "P 42/M M C"
_symmetry_group_IT_number 131
_symmetry_cell_setting 'tetragonal'
loop_
_space_group_symop_operation_xyz
x,y,z
-x,-y,z
-y,x,1/2+z
y,-x,1/2+z
-x,y,-z
x,-y,-z
y,x,1/2-z
-y,-x,1/2-z
-x,-y,-z
x,y,-z
y,-x,1/2-z
-y,x,1/2-z
x,-y,z
-x,y,z
-y,-x,1/2+z
y,x,1/2+z
loop_
_atom_site_type_symbol
_atom_site_label
_atom_site_fract_x
_atom_site_fract_y
_atom_site_fract_z
Si Si1 0.208478 0.579671 0.903352
Si Si2 0.581248 0.078371 0.827464
Si Si3 0.086096 0.085887 0.000000
Si Si4 0.275010 0.275313 0.346340
Si Si5 0.850549 0.819346 0.848467
Si Si6 0.664284 0.919139 0.341929
Si Si7 0.576644 0.773065 0.096793
O O1 0.215336 0.500000 0.867347
O O2 0.252799 0.644966 0.866534
O O3 0.129532 0.610592 0.893333
O O4 0.226775 0.575469 0.000000
O O5 0.500000 0.080316 0.793840
O O6 0.636648 0.088682 0.753008
O O7 0.586800 0.142981 0.890148
O O8 0.591627 0.000000 0.863870
O O9 0.118125 0.124700 0.916240
O O10 0.000000 0.094916 0.000000
O O11 0.100242 0.000000 0.000000
O O12 0.263761 0.263761 0.250000
O O13 0.212515 0.224993 0.382472
O O14 0.264894 0.356754 0.365176
O O15 0.845524 0.845524 0.750000
O O16 0.895743 0.746032 0.847927
O O17 0.657701 0.000000 0.366913
O O18 0.500000 0.754467 0.134138
O O19 0.575343 0.756810 0.000000
#
# Coordination Sequence:
#
# PCOD9566512 Si02
#       7
#    16  16   8  16  16  16  16
#     4  10  21  35  53  81 114 149 183 221 278 342
#     4   9  17  30  48  74 112 151 184 222 271 334
#     4  11  26  44  62  86 112 148 196 241 298 358
#     4  10  21  37  59  84 110 146 190 235 281 334
#     4  10  22  40  62  86 114 150 193 247 296 345
#     4  10  20  33  54  82 110 144 186 229 281 340
#     4  10  20  33  53  80 111 146 185 228 277 335
#
# _framework density 18.193833000000001
#
# number of rings (size 3 to 8) (size 9 to 14) (size 15 to 20)
#    0.000    2.077    0.000    4.154    5.385    4.615 
#    0.000    3.846    0.000    0.462    0.000    3.231 
#    0.000    0.000    0.000    0.000    0.000    0.000 
#
# Total GULP energy -579051.634386 kJ/mol
# GULP energy per Si atom -5567.804177 kJ/mol
# Density = 1.815242 g / cm^3
# Si number density = 18.193833 Si / 1000 Ang^3
#
#
#
# Elastic Constant Matrix: (Units=GPa)
#
#
# Indices 1 2 3 4 5 6 
#
# 1 104.0504 70.0697 29.5262 0.0000 0.0000 0.0000
# 2 70.0697 104.0504 29.5262 0.0000 0.0000 0.0000
# 3 29.5262 29.5262 49.7393 0.0000 0.0000 0.0000
# 4 0.0000 0.0000 0.0000 28.0577 0.0000 0.0000
# 5 0.0000 0.0000 0.0000 0.0000 28.0577 0.0000
# 6 0.0000 0.0000 0.0000 0.0000 0.0000 16.3483
#
#
#
# Elastic Compliance Matrix: (Units=1/GPa)
#
#
# Indices 1 2 3 4 5 6 
#
# 1 0.018310 -0.011119 -0.004269 0.000000 0.000000 0.000000
# 2 -0.011119 0.018310 -0.004269 0.000000 0.000000 0.000000
# 3 -0.004269 -0.004269 0.025173 0.000000 0.000000 0.000000
# 4 0.000000 0.000000 0.000000 0.035641 0.000000 0.000000
# 5 0.000000 0.000000 0.000000 0.000000 0.035641 0.000000
# 6 0.000000 0.000000 0.000000 0.000000 0.000000 0.061168
#
#
# Mechanical properties :
#
#
# Convention : Reuss Voigt Hill
#
# Bulk Modulus (GPa) = 44.48416 57.34270 50.91343
# Shear Modulus (GPa) = 20.74278 23.07393 21.90836
#
# Velocity S-wave (km/s) = 3.38020 3.56508 3.47387
# Velocity P-wave (km/s) = 6.30377 6.96653 6.64342
#
# Compressibility (1/GPa) = 0.02247991
#
# Stress axis : x y z
#
# Youngs Moduli (GPa) = 54.61593 54.61593 39.72552
#
# Poissons Ratio (x) = 0.60726 0.16957
# Poissons Ratio (y) = 0.60726 0.16957
# Poissons Ratio (z) = 0.23314 0.23314
#
# Static dielectric constant tensor:
#      x y z
#    x 1.574000 0.000000 0.000000 
#    y 0.000000 1.574000 0.000000 
#    z 0.000000 0.000000 1.646710 
# 
# From -- ./inp_files/8122.got.cif
#   From: 2010.05.17/outbox.cif.g08.bks.cpg/sg131_5_cif.got.tgz:8122.got - 2010.05.20 12:21:01.
