data_PCOD9566425
_publ_section_title
;
Structure prediction by ZEFSAII (Michael W. Deem and Ramdas Pophale) SiO2 
 PCOD9566425
Probable space group: P 42/M M C
;
_chemical_formula_sum "Si O2"
_cell_formula_units_Z 72
_cell_length_a 15.243450
_cell_length_b 15.243450
_cell_length_c 19.367085
_cell_angle_alpha 90.000000
_cell_angle_beta 90.000000
_cell_angle_gamma 90.000000
_cell_volume 4500.189477
_symmetry_space_group_name_H-M "P 42/M M C"
_symmetry_group_IT_number 131
_symmetry_cell_setting 'tetragonal'
loop_
_space_group_symop_operation_xyz
x,y,z
-x,-y,z
-y,x,1/2+z
y,-x,1/2+z
-x,y,-z
x,-y,-z
y,x,1/2-z
-y,-x,1/2-z
-x,-y,-z
x,y,-z
y,-x,1/2-z
-y,x,1/2-z
x,-y,z
-x,y,z
-y,-x,1/2+z
y,x,1/2+z
loop_
_atom_site_type_symbol
_atom_site_label
_atom_site_fract_x
_atom_site_fract_y
_atom_site_fract_z
Si Si1 0.896180 0.102309 0.917347
Si Si2 0.212359 0.758166 0.829237
Si Si3 0.600205 0.898226 0.712793
Si Si4 0.196781 0.398760 0.358931
Si Si5 0.096637 0.605380 0.500000
O O1 0.833324 0.169110 0.877186
O O2 0.000000 0.118646 0.902162
O O3 0.878053 0.000000 0.899878
O O4 0.884842 0.111868 0.000000
O O5 0.208795 0.791206 0.750000
O O6 0.158881 0.668212 0.830049
O O7 0.315013 0.741603 0.845998
O O8 0.500000 0.886194 0.689717
O O9 0.603081 0.868200 0.793072
O O10 0.623406 0.000000 0.708579
O O11 0.230496 0.500000 0.363380
O O12 0.147258 0.375942 0.429725
O O13 0.087801 0.500000 0.500000
O O14 0.000000 0.646055 0.500000
#
# Coordination Sequence:
#
# PCOD9566425 Si02
#       5
#    16  16  16  16   8
#     4   9  19  34  48  65  94 130 162 194 237 287
#     4  10  20  31  48  72  95 125 165 203 238 287
#     4   9  17  31  50  70  95 125 159 204 252 289
#     4   9  18  30  44  68 100 129 156 192 242 294
#     4   9  16  26  42  66  96 127 156 184 224 287
#
# _framework density 15.999326
#
# number of rings (size 3 to 8) (size 9 to 14) (size 15 to 20)
#    0.000    2.778    0.000    2.000    1.556    8.000 
#    0.000    1.111    0.000    1.333    0.000    7.778 
#    0.000    2.667    0.000    0.222    0.000    0.000 
#
# Total GULP energy -400856.575225 kJ/mol
# GULP energy per Si atom -5567.452434 kJ/mol
# Density = 1.596291 g / cm^3
# Si number density = 15.999326 Si / 1000 Ang^3
#
#
#
# Elastic Constant Matrix: (Units=GPa)
#
#
# Indices 1 2 3 4 5 6 
#
# 1 87.6382 69.7295 28.9910 0.0000 0.0000 0.0000
# 2 69.7295 87.6381 28.9909 0.0000 0.0000 0.0000
# 3 28.9910 28.9909 47.9840 0.0000 0.0000 0.0000
# 4 0.0000 0.0000 0.0000 19.6458 0.0000 0.0000
# 5 0.0000 0.0000 0.0000 0.0000 19.6458 0.0000
# 6 0.0000 0.0000 0.0000 0.0000 0.0000 22.6181
#
#
#
# Elastic Compliance Matrix: (Units=1/GPa)
#
#
# Indices 1 2 3 4 5 6 
#
# 1 0.032007 -0.023832 -0.004939 0.000000 0.000000 0.000000
# 2 -0.023832 0.032007 -0.004939 0.000000 0.000000 0.000000
# 3 -0.004939 -0.004939 0.026808 0.000000 0.000000 0.000000
# 4 0.000000 0.000000 0.000000 0.050901 0.000000 0.000000
# 5 0.000000 0.000000 0.000000 0.000000 0.050902 0.000000
# 6 0.000000 0.000000 0.000000 0.000000 0.000000 0.044212
#
#
# Mechanical properties :
#
#
# Convention : Reuss Voigt Hill
#
# Bulk Modulus (GPa) = 42.73206 53.18702 47.95954
# Shear Modulus (GPa) = 16.02274 18.75186 17.38730
#
# Velocity S-wave (km/s) = 3.16802 3.42722 3.30017
# Velocity P-wave (km/s) = 6.33628 6.99833 6.67552
#
# Compressibility (1/GPa) = 0.02340163
#
# Stress axis : x y z
#
# Youngs Moduli (GPa) = 31.24359 31.24357 37.30234
#
# Poissons Ratio (x) = 0.74461 0.18423
# Poissons Ratio (y) = 0.74461 0.18422
# Poissons Ratio (z) = 0.15430 0.15430
#
# Static dielectric constant tensor:
#      x y z
#    x 1.542650 0.000000 0.000000 
#    y 0.000000 1.542650 0.000000 
#    z 0.000000 0.000000 1.535660 
# 
# From -- ./inp_files/7523.got.cif
#   From: 2010.05.17/outbox.cif.g08.bks.cpg/sg131_4_cif.got.tgz:7523.got - 2010.05.20 12:21:01.
