data_PCOD9566451
_publ_section_title
;
Structure prediction by ZEFSAII (Michael W. Deem and Ramdas Pophale) SiO2 
 PCOD9566451
Probable space group: P 42/M M C
;
_chemical_formula_sum "Si O2"
_cell_formula_units_Z 112
_cell_length_a 14.945096
_cell_length_b 14.945096
_cell_length_c 30.410629
_cell_angle_alpha 90.000000
_cell_angle_beta 90.000000
_cell_angle_gamma 90.000000
_cell_volume 6792.393241
_symmetry_space_group_name_H-M "P 42/M M C"
_symmetry_group_IT_number 131
_symmetry_cell_setting 'tetragonal'
loop_
_space_group_symop_operation_xyz
x,y,z
-x,-y,z
-y,x,1/2+z
y,-x,1/2+z
-x,y,-z
x,-y,-z
y,x,1/2-z
-y,-x,1/2-z
-x,-y,-z
x,y,-z
y,-x,1/2-z
-y,x,1/2-z
x,-y,z
-x,y,z
-y,-x,1/2+z
y,x,1/2+z
loop_
_atom_site_type_symbol
_atom_site_label
_atom_site_fract_x
_atom_site_fract_y
_atom_site_fract_z
Si Si1 0.278316 0.106979 0.048218
Si Si2 0.604833 0.245470 0.304279
Si Si3 0.393222 0.104072 0.130847
Si Si4 0.216616 0.102126 0.549509
Si Si5 0.894144 0.276693 0.854796
Si Si6 0.897814 0.108485 0.300331
Si Si7 0.604320 0.747473 0.799519
O O1 0.339728 0.137198 0.088256
O O2 0.177184 0.140887 0.052692
O O3 0.279763 0.000000 0.048707
O O4 0.311084 0.137131 0.000000
O O5 0.500000 0.256891 0.314167
O O6 0.648950 0.164870 0.331153
O O7 0.664256 0.333699 0.312246
O O8 0.614060 0.229833 0.251892
O O9 0.500000 0.108725 0.122981
O O10 0.371074 0.166564 0.171754
O O11 0.371142 0.000000 0.139147
O O12 0.256452 0.110101 0.500000
O O13 0.277388 0.116846 0.592405
O O14 0.182246 0.000000 0.553368
O O15 0.865874 0.179220 0.834862
O O16 0.000000 0.287315 0.845289
O O17 0.869471 0.130530 0.250000
O O18 0.000000 0.141139 0.308776
O O19 0.902639 0.000000 0.301274
O O20 0.500000 0.726212 0.807180
#
# Coordination Sequence:
#
# PCOD9566451 Si02
#       7
#    16  16  16  16  16  16  16
#     4   9  17  28  42  64  95 130 167 202 234 273
#     4  10  21  35  52  73  97 125 159 202 245 289
#     4   9  17  30  49  73 101 131 158 187 229 283
#     4   9  18  32  48  65  89 124 165 209 252 289
#     4  10  20  32  49  73  99 130 165 203 248 295
#     4   8  15  28  44  65  96 131 165 199 233 276
#     4   9  19  35  53  73  98 127 161 198 235 285
#
# _framework density 16.489032999999999
#
# number of rings (size 3 to 8) (size 9 to 14) (size 15 to 20)
#    0.000    2.857    0.000    1.286    2.000    2.286 
#    0.000    7.857    0.000    0.429    0.000    2.000 
#    0.000    0.000    0.000   12.286    0.000    0.429 
#
# Total GULP energy -623902.203049 kJ/mol
# GULP energy per Si atom -5570.555384 kJ/mol
# Density = 1.645150 g / cm^3
# Si number density = 16.489033 Si / 1000 Ang^3
#
#
#
# Elastic Constant Matrix: (Units=GPa)
#
#
# Indices 1 2 3 4 5 6 
#
# 1 59.7466 33.8908 55.8928 0.0000 0.0000 0.0000
# 2 33.8908 59.7465 55.8928 0.0000 0.0000 0.0000
# 3 55.8928 55.8928 92.9616 0.0000 0.0000 0.0000
# 4 0.0000 0.0000 0.0000 19.8455 0.0000 0.0000
# 5 0.0000 0.0000 0.0000 0.0000 19.8455 0.0000
# 6 0.0000 0.0000 0.0000 0.0000 0.0000 23.6874
#
#
#
# Elastic Compliance Matrix: (Units=1/GPa)
#
#
# Indices 1 2 3 4 5 6 
#
# 1 0.038258 -0.000418 -0.022751 0.000000 0.000000 0.000000
# 2 -0.000418 0.038258 -0.022752 0.000000 0.000000 0.000000
# 3 -0.022751 -0.022752 0.038116 0.000000 0.000000 0.000000
# 4 0.000000 0.000000 0.000000 0.050389 0.000000 0.000000
# 5 0.000000 0.000000 0.000000 0.000000 0.050389 0.000000
# 6 0.000000 0.000000 0.000000 0.000000 0.000000 0.042217
#
#
# Mechanical properties :
#
#
# Convention : Reuss Voigt Hill
#
# Bulk Modulus (GPa) = 43.87738 55.97860 49.92799
# Shear Modulus (GPa) = 14.00303 17.12758 15.56530
#
# Velocity S-wave (km/s) = 2.91732 3.22642 3.07576
# Velocity P-wave (km/s) = 6.16567 6.92116 6.55431
#
# Compressibility (1/GPa) = 0.02279079
#
# Stress axis : x y z
#
# Youngs Moduli (GPa) = 26.13814 26.13808 26.23593
#
# Poissons Ratio (x) = 0.01092 0.59691
# Poissons Ratio (y) = 0.01092 0.59691
# Poissons Ratio (z) = 0.59468 0.59468
#
# Static dielectric constant tensor:
#      x y z
#    x 1.546290 0.000000 0.000000 
#    y 0.000000 1.546280 0.000000 
#    z 0.000000 0.000000 1.581960 
# 
# From -- ./inp_files/13902.got.cif
#   From: 2010.05.17/outbox.cif.g08.bks.cpg/sg131_7_cif.got.tgz:13902.got - 2010.05.20 12:21:01.
