data_PCOD9566419
_publ_section_title
;
Structure prediction by ZEFSAII (Michael W. Deem and Ramdas Pophale) SiO2 
 PCOD9566419
Probable space group: P 42/M M C
;
_chemical_formula_sum "Si O2"
_cell_formula_units_Z 96
_cell_length_a 24.738604
_cell_length_b 24.738604
_cell_length_c 7.357630
_cell_angle_alpha 90.000000
_cell_angle_beta 90.000000
_cell_angle_gamma 90.000000
_cell_volume 4502.858729
_symmetry_space_group_name_H-M "P 42/M M C"
_symmetry_group_IT_number 131
_symmetry_cell_setting 'tetragonal'
loop_
_space_group_symop_operation_xyz
x,y,z
-x,-y,z
-y,x,1/2+z
y,-x,1/2+z
-x,y,-z
x,-y,-z
y,x,1/2-z
-y,-x,1/2-z
-x,-y,-z
x,y,-z
y,-x,1/2-z
-y,x,1/2-z
x,-y,z
-x,y,z
-y,-x,1/2+z
y,x,1/2+z
loop_
_atom_site_type_symbol
_atom_site_label
_atom_site_fract_x
_atom_site_fract_y
_atom_site_fract_z
Si Si1 0.080504 0.442553 0.214329
Si Si2 0.057592 0.674866 0.780830
Si Si3 0.237184 0.320515 0.283330
Si Si4 0.855251 0.757519 0.702588
Si Si5 0.791382 0.440355 0.718460
Si Si6 0.850140 0.937093 0.782997
O O1 0.062753 0.500000 0.291621
O O2 0.058183 0.386584 0.284269
O O3 0.145036 0.439562 0.236323
O O4 0.067625 0.443411 0.000000
O O5 0.103612 0.708322 0.690569
O O6 0.000000 0.700759 0.743180
O O7 0.065753 0.674880 0.000000
O O8 0.296159 0.296159 0.250000
O O9 0.226677 0.322322 0.500000
O O10 0.195298 0.274687 0.209566
O O11 0.230470 0.382099 0.215613
O O12 0.838757 0.776628 0.500000
O O13 0.892982 0.805182 0.785758
O O14 0.785304 0.440559 0.500000
O O15 0.770977 0.500000 0.782219
O O16 0.907991 0.907991 0.750000
O O17 0.846722 0.000000 0.717443
O O18 0.841471 0.939624 0.000000
#
# Coordination Sequence:
#
# PCOD9566419 Si02
#       6
#    16  16  16  16  16  16
#     4   9  17  29  45  65  91 126 167 208 250 291
#     4  10  20  31  45  68  96 128 168 210 250 292
#     4  10  20  32  50  77 104 133 167 203 245 289
#     4  10  20  36  54  74 100 130 163 198 244 297
#     4   9  17  31  50  71  98 132 169 206 245 291
#     4  10  22  39  58  79 101 126 157 197 247 303
#
# _framework density 21.319789
#
# number of rings (size 3 to 8) (size 9 to 14) (size 15 to 20)
#    0.000    2.333    1.667    1.000    0.000    3.833 
#    0.000    2.500    0.000    0.000    0.000    3.500 
#    0.000    0.333    0.000    4.167    0.000    0.000 
#
# Total GULP energy -535135.454387 kJ/mol
# GULP energy per Si atom -5574.327650 kJ/mol
# Density = 2.127126 g / cm^3
# Si number density = 21.319789 Si / 1000 Ang^3
#
#
#
# Elastic Constant Matrix: (Units=GPa)
#
#
# Indices 1 2 3 4 5 6 
#
# 1 135.0321 85.7588 6.4731 0.0000 0.0000 0.0000
# 2 85.7588 135.0321 6.4731 0.0000 0.0000 0.0000
# 3 6.4731 6.4731 80.2539 0.0000 0.0000 0.0000
# 4 0.0000 0.0000 0.0000 12.9312 0.0000 0.0000
# 5 0.0000 0.0000 0.0000 0.0000 12.9312 0.0000
# 6 0.0000 0.0000 0.0000 0.0000 0.0000 10.6962
#
#
#
# Elastic Compliance Matrix: (Units=1/GPa)
#
#
# Indices 1 2 3 4 5 6 
#
# 1 0.012423 -0.007872 -0.000367 0.000000 0.000000 0.000000
# 2 -0.007872 0.012423 -0.000367 0.000000 0.000000 0.000000
# 3 -0.000367 -0.000367 0.012520 0.000000 0.000000 0.000000
# 4 0.000000 0.000000 0.000000 0.077333 0.000000 0.000000
# 5 0.000000 0.000000 0.000000 0.000000 0.077333 0.000000
# 6 0.000000 0.000000 0.000000 0.000000 0.000000 0.093492
#
#
# Mechanical properties :
#
#
# Convention : Reuss Voigt Hill
#
# Bulk Modulus (GPa) = 49.62073 60.85866 55.23970
# Shear Modulus (GPa) = 16.15760 24.08592 20.12176
#
# Velocity S-wave (km/s) = 2.75593 3.36481 3.07548
# Velocity P-wave (km/s) = 5.78376 6.61087 6.21110
#
# Compressibility (1/GPa) = 0.02015287
#
# Stress axis : x y z
#
# Youngs Moduli (GPa) = 80.49704 80.49704 79.87435
#
# Poissons Ratio (x) = 0.63368 0.02932
# Poissons Ratio (y) = 0.63368 0.02932
# Poissons Ratio (z) = 0.02955 0.02955
#
# Static dielectric constant tensor:
#      x y z
#    x 1.784810 0.000000 0.000000 
#    y 0.000000 1.784810 0.000000 
#    z 0.000000 0.000000 1.840780 
# 
# From -- ./inp_files/2170.got.cif
#   From: 2010.05.17/outbox.cif.g08.bks.cpg/sg131_2_cif.got.tgz:2170.got - 2010.05.20 12:21:01.
