data_PCOD9566815
_publ_section_title
;
Structure prediction by ZEFSAII (Michael W. Deem and Ramdas Pophale) SiO2 
 PCOD9566815
Probable space group: P 42/M M C
;
_chemical_formula_sum "Si O2"
_cell_formula_units_Z 48
_cell_length_a 10.273685
_cell_length_b 10.273685
_cell_length_c 25.808629
_cell_angle_alpha 90.000000
_cell_angle_beta 90.000000
_cell_angle_gamma 90.000000
_cell_volume 2724.064749
_symmetry_space_group_name_H-M "P 42/M M C"
_symmetry_group_IT_number 131
_symmetry_cell_setting 'tetragonal'
loop_
_space_group_symop_operation_xyz
x,y,z
-x,-y,z
-y,x,1/2+z
y,-x,1/2+z
-x,y,-z
x,-y,-z
y,x,1/2-z
-y,-x,1/2-z
-x,-y,-z
x,y,-z
y,-x,1/2-z
-y,x,1/2-z
x,-y,z
-x,y,z
-y,-x,1/2+z
y,x,1/2+z
loop_
_atom_site_type_symbol
_atom_site_label
_atom_site_fract_x
_atom_site_fract_y
_atom_site_fract_z
Si Si1 0.500000 0.740388 0.674113
Si Si2 0.000000 0.000000 0.750000
Si Si3 0.740413 0.000000 0.179132
Si Si4 0.500000 0.500000 0.750000
Si Si5 0.347840 0.657208 0.500000
Si Si6 0.000000 0.500000 0.758969
Si Si7 0.658612 0.246676 0.887762
O O1 0.500000 0.627816 0.716265
O O2 0.373675 0.715093 0.639890
O O3 0.500000 0.875291 0.704092
O O4 0.000000 0.126071 0.712053
O O5 0.625131 0.000000 0.221641
O O6 0.719504 0.124122 0.141816
O O7 0.500000 0.703869 0.500000
O O8 0.357438 0.500000 0.500000
O O9 0.268226 0.691451 0.551766
O O10 0.500000 0.241954 0.882626
#
# Coordination Sequence:
#
# PCOD9566815 Si02
#       7
#     8   2   8   2   8   4  16
#     4  12  22  35  59  84 123 162 204 251 318 360
#     4  12  28  48  64  82 128 180 204 244 328 378
#     4  12  24  43  61  86 121 160 214 257 300 374
#     4  12  20  32  56  86 104 156 216 268 296 362
#     4   9  18  33  61  96 129 157 193 252 323 365
#     4  12  24  40  56  92 126 162 210 264 304 362
#     4  11  20  38  62  93 125 157 204 259 305 370
#
# _framework density 17.620728
#
# number of rings (size 3 to 8) (size 9 to 14) (size 15 to 20)
#    0.000    0.833    5.000    4.000    0.000    0.667 
#    0.000    2.500    0.000    6.000    0.000    0.000 
#    0.000    0.000    0.000    0.000    0.000    0.000 
#
# Total GULP energy -268006.259221 kJ/mol
# GULP energy per Si atom -5583.463734 kJ/mol
# Density = 1.758062 g / cm^3
# Si number density = 17.620728 Si / 1000 Ang^3
#
#
#
# Elastic Constant Matrix: (Units=GPa)
#
#
# Indices 1 2 3 4 5 6 
#
# 1 150.5501 55.4917 96.6769 0.0000 0.0000 0.0000
# 2 55.4917 150.5501 96.6769 0.0000 0.0000 0.0000
# 3 96.6769 96.6769 199.3066 0.0000 0.0000 0.0000
# 4 0.0000 0.0000 0.0000 39.1803 0.0000 0.0000
# 5 0.0000 0.0000 0.0000 0.0000 39.1803 0.0000
# 6 0.0000 0.0000 0.0000 0.0000 0.0000 -35.3853
#
#
#
# Elastic Compliance Matrix: (Units=1/GPa)
#
#
# Indices 1 2 3 4 5 6 
#
# 1 0.009714 -0.000806 -0.004321 0.000000 0.000000 0.000000
# 2 -0.000806 0.009714 -0.004321 0.000000 0.000000 0.000000
# 3 -0.004321 -0.004321 0.009210 0.000000 0.000000 0.000000
# 4 0.000000 0.000000 0.000000 0.025523 0.000000 0.000000
# 5 0.000000 0.000000 0.000000 0.000000 0.025523 0.000000
# 6 0.000000 0.000000 0.000000 0.000000 0.000000 -0.028260
#
#
# Mechanical properties :
#
#
# Convention : Reuss Voigt Hill
#
# Bulk Modulus (GPa) = 102.65156 110.89973 106.77564
# Shear Modulus (GPa) = 67.96523 25.36582 46.66552
#
# Velocity S-wave (km/s) = 6.21731 3.79825 5.15178
# Velocity P-wave (km/s) = 10.48439 9.07245 9.80387
#
# Compressibility (1/GPa) = 0.00974169
#
# Stress axis : x y z
#
# Youngs Moduli (GPa) = 102.94238 102.94238 108.58316
#
# Poissons Ratio (x) = 0.08294 0.46921
# Poissons Ratio (y) = 0.08294 0.46921
# Poissons Ratio (z) = 0.44484 0.44484
#
# Static dielectric constant tensor:
#      x y z
#    x 1.601150 0.000000 0.000000 
#    y 0.000000 1.601150 0.000000 
#    z 0.000000 0.000000 1.456080 
# 
# From -- ./inp_files/13076.got.cif
#   From: 2010.05.17/outbox.cif.g08.bks.cpg/sg131_7_cif.got.tgz:13076.got - 2010.05.20 12:21:01.
