data_PCOD9566701
_publ_section_title
;
Structure prediction by ZEFSAII (Michael W. Deem and Ramdas Pophale) SiO2 
 PCOD9566701
Probable space group: P 42/M M C
;
_chemical_formula_sum "Si O2"
_cell_formula_units_Z 96
_cell_length_a 15.395990
_cell_length_b 15.395990
_cell_length_c 19.992929
_cell_angle_alpha 90.000000
_cell_angle_beta 90.000000
_cell_angle_gamma 90.000000
_cell_volume 4739.054076
_symmetry_space_group_name_H-M "P 42/M M C"
_symmetry_group_IT_number 131
_symmetry_cell_setting 'tetragonal'
loop_
_space_group_symop_operation_xyz
x,y,z
-x,-y,z
-y,x,1/2+z
y,-x,1/2+z
-x,y,-z
x,-y,-z
y,x,1/2-z
-y,-x,1/2-z
-x,-y,-z
x,y,-z
y,-x,1/2-z
-y,x,1/2-z
x,-y,z
-x,y,z
-y,-x,1/2+z
y,x,1/2+z
loop_
_atom_site_type_symbol
_atom_site_label
_atom_site_fract_x
_atom_site_fract_y
_atom_site_fract_z
Si Si1 0.688776 0.097969 0.199222
Si Si2 0.823091 0.898759 0.920601
Si Si3 0.406135 0.596537 0.898560
Si Si4 0.595218 0.728351 0.219197
Si Si5 0.097945 0.739382 0.152786
Si Si6 0.794243 0.599912 0.074563
O O1 0.740830 0.109808 0.129804
O O2 0.618274 0.172361 0.207762
O O3 0.747846 0.106121 0.266657
O O4 0.653719 0.000000 0.199698
O O5 0.887075 0.827785 0.888492
O O6 0.851691 0.000000 0.915577
O O7 0.806802 0.881570 0.000000
O O8 0.405421 0.500000 0.866060
O O9 0.500000 0.597976 0.934065
O O10 0.411140 0.676652 0.849407
O O11 0.310638 0.603862 0.929459
O O12 0.676574 0.676574 0.250000
O O13 0.500000 0.720736 0.252938
O O14 0.166785 0.668361 0.126433
O O15 0.000000 0.707668 0.139883
O O16 0.816754 0.500000 0.091350
O O17 0.828261 0.619709 0.000000
#
# Coordination Sequence:
#
# PCOD9566701 Si02
#       6
#    16  16  16  16  16  16
#     4  10  22  40  61  86 117 154 197 243 292 348
#     4  10  21  38  62  89 115 148 192 242 297 353
#     4   9  18  32  51  78 110 145 189 239 292 349
#     4  11  21  33  54  83 116 154 195 242 292 343
#     4  11  23  38  58  84 117 157 197 238 285 341
#     4  10  21  36  55  81 114 154 199 244 290 343
#
# _framework density 20.257207999999999
#
# number of rings (size 3 to 8) (size 9 to 14) (size 15 to 20)
#    0.000    1.833    0.000    4.500    0.000    5.500 
#    0.000    5.000    0.000    4.500    0.000    2.333 
#    0.000    0.000    0.000    0.000    0.000    1.000 
#
# Total GULP energy -534500.937501 kJ/mol
# GULP energy per Si atom -5567.718099 kJ/mol
# Density = 2.021110 g / cm^3
# Si number density = 20.257208 Si / 1000 Ang^3
#
#
#
# Elastic Constant Matrix: (Units=GPa)
#
#
# Indices 1 2 3 4 5 6 
#
# 1 102.6114 54.8803 36.5057 0.0000 0.0000 0.0000
# 2 54.8803 102.6114 36.5057 0.0000 0.0000 0.0000
# 3 36.5057 36.5057 122.4983 0.0000 0.0000 0.0000
# 4 0.0000 0.0000 0.0000 169.4721 0.0000 0.0000
# 5 0.0000 0.0000 0.0000 0.0000 169.4721 0.0000
# 6 0.0000 0.0000 0.0000 0.0000 0.0000 22.2282
#
#
#
# Elastic Compliance Matrix: (Units=1/GPa)
#
#
# Indices 1 2 3 4 5 6 
#
# 1 0.014159 -0.006792 -0.002196 0.000000 0.000000 0.000000
# 2 -0.006792 0.014159 -0.002196 0.000000 0.000000 0.000000
# 3 -0.002196 -0.002196 0.009472 0.000000 0.000000 0.000000
# 4 0.000000 0.000000 0.000000 0.005901 0.000000 0.000000
# 5 0.000000 0.000000 0.000000 0.000000 0.005901 0.000000
# 6 0.000000 0.000000 0.000000 0.000000 0.000000 0.044988
#
#
# Mechanical properties :
#
#
# Convention : Reuss Voigt Hill
#
# Bulk Modulus (GPa) = 64.83185 64.83383 64.83284
# Shear Modulus (GPa) = 40.95463 85.55644 63.25553
#
# Velocity S-wave (km/s) = 4.50124 6.50590 5.59410
# Velocity P-wave (km/s) = 7.68692 9.40800 8.59067
#
# Compressibility (1/GPa) = 0.01542452
#
# Stress axis : x y z
#
# Youngs Moduli (GPa) = 70.62625 70.62625 105.57467
#
# Poissons Ratio (x) = 0.47967 0.23179
# Poissons Ratio (y) = 0.47967 0.23179
# Poissons Ratio (z) = 0.15506 0.15506
#
# Static dielectric constant tensor:
#      x y z
#    x 1.729210 0.000000 0.000000 
#    y 0.000000 1.729210 0.000000 
#    z 0.000000 0.000000 1.754830 
# 
# From -- ./inp_files/9743.got.cif
#   From: 2010.05.17/outbox.cif.g08.bks.cpg/sg131_5_cif.got.tgz:9743.got - 2010.05.20 12:21:01.
