data_PCOD9566150
_publ_section_title
;
Structure prediction by ZEFSAII (Michael W. Deem and Ramdas Pophale) SiO2 
 PCOD9566150
Probable space group: P 42/M M C
;
_chemical_formula_sum "Si O2"
_cell_formula_units_Z 96
_cell_length_a 14.402612
_cell_length_b 14.402612
_cell_length_c 23.817122
_cell_angle_alpha 90.000000
_cell_angle_beta 90.000000
_cell_angle_gamma 90.000000
_cell_volume 4940.510238
_symmetry_space_group_name_H-M "P 42/M M C"
_symmetry_group_IT_number 131
_symmetry_cell_setting 'tetragonal'
loop_
_space_group_symop_operation_xyz
x,y,z
-x,-y,z
-y,x,1/2+z
y,-x,1/2+z
-x,y,-z
x,-y,-z
y,x,1/2-z
-y,-x,1/2-z
-x,-y,-z
x,y,-z
y,-x,1/2-z
-y,x,1/2-z
x,-y,z
-x,y,z
-y,-x,1/2+z
y,x,1/2+z
loop_
_atom_site_type_symbol
_atom_site_label
_atom_site_fract_x
_atom_site_fract_y
_atom_site_fract_z
Si Si1 0.889300 0.325649 0.866955
Si Si2 0.500000 0.605017 0.397585
Si Si3 0.000000 0.306047 0.561438
Si Si4 0.236252 0.795114 0.065203
Si Si5 0.609293 0.000000 0.180754
Si Si6 0.606699 0.295423 0.855868
Si Si7 0.500000 0.187672 0.564052
Si Si8 0.821270 0.611520 0.249975
O O1 0.854994 0.236952 0.901686
O O2 0.853726 0.411488 0.904270
O O3 0.833951 0.335831 0.808395
O O4 0.000000 0.329879 0.857742
O O5 0.500000 0.500000 0.423952
O O6 0.593986 0.611200 0.361841
O O7 0.500000 0.699580 0.433562
O O8 0.094389 0.247804 0.565056
O O9 0.000000 0.371218 0.615220
O O10 0.000000 0.353261 0.500000
O O11 0.322541 0.750227 0.099714
O O12 0.236700 0.763145 0.000000
O O13 0.643292 0.091699 0.211755
O O14 0.500000 0.000000 0.189135
O O15 0.500000 0.265620 0.868778
O O16 0.625131 0.263554 0.792413
O O17 0.500000 0.157737 0.500000
O O18 0.827248 0.500000 0.237737
#
# Coordination Sequence:
#
# PCOD9566150 Si02
#       8
#    16   8   8  16   8  16   8  16
#     4  12  25  42  65  92 125 166 215 275 337 390
#     4  10  22  42  63  94 134 181 220 252 303 375
#     4  10  22  41  61  90 130 165 209 273 333 388
#     4  11  24  42  64  92 126 166 216 269 330 395
#     4  10  18  33  62  95 125 162 209 262 321 384
#     4  10  21  39  65  93 129 176 219 258 311 377
#     4  12  25  41  64  95 131 170 218 270 320 378
#     4  10  20  37  62  93 130 166 211 265 318 381
#
# _framework density 19.431191999999999
#
# number of rings (size 3 to 8) (size 9 to 14) (size 15 to 20)
#    0.000    1.333    5.000    0.750    0.000    3.000 
#    0.000    3.750    1.833    1.500    0.000    0.000 
#    0.000    0.000    0.000    0.000    0.000    0.000 
#
# Total GULP energy -535973.818374 kJ/mol
# GULP energy per Si atom -5583.060608 kJ/mol
# Density = 1.938697 g / cm^3
# Si number density = 19.431192 Si / 1000 Ang^3
#
#
#
# Elastic Constant Matrix: (Units=GPa)
#
#
# Indices 1 2 3 4 5 6 
#
# 1 84.7276 21.2541 35.7422 0.0000 0.0000 0.0000
# 2 21.2541 84.7276 35.7422 0.0000 0.0000 0.0000
# 3 35.7422 35.7422 154.2173 0.0000 0.0000 0.0000
# 4 0.0000 0.0000 0.0000 25.9436 0.0000 0.0000
# 5 0.0000 0.0000 0.0000 0.0000 25.9436 0.0000
# 6 0.0000 0.0000 0.0000 0.0000 0.0000 8.7105
#
#
#
# Elastic Compliance Matrix: (Units=1/GPa)
#
#
# Indices 1 2 3 4 5 6 
#
# 1 0.013469 -0.002285 -0.002592 0.000000 0.000000 0.000000
# 2 -0.002285 0.013469 -0.002592 0.000000 0.000000 0.000000
# 3 -0.002592 -0.002592 0.007686 0.000000 0.000000 0.000000
# 4 0.000000 0.000000 0.000000 0.038545 0.000000 0.000000
# 5 0.000000 0.000000 0.000000 0.000000 0.038545 0.000000
# 6 0.000000 0.000000 0.000000 0.000000 0.000000 0.114804
#
#
# Mechanical properties :
#
#
# Convention : Reuss Voigt Hill
#
# Bulk Modulus (GPa) = 50.79876 56.57216 53.68546
# Shear Modulus (GPa) = 20.15973 27.51515 23.83744
#
# Velocity S-wave (km/s) = 3.22451 3.76710 3.50632
# Velocity P-wave (km/s) = 6.32953 6.93532 6.63934
#
# Compressibility (1/GPa) = 0.01968552
#
# Stress axis : x y z
#
# Youngs Moduli (GPa) = 74.24308 74.24308 130.10919
#
# Poissons Ratio (x) = 0.16967 0.33725
# Poissons Ratio (y) = 0.16967 0.33725
# Poissons Ratio (z) = 0.19244 0.19244
#
# Static dielectric constant tensor:
#      x y z
#    x 1.711020 0.000000 0.000000 
#    y 0.000000 1.711020 0.000000 
#    z 0.000000 0.000000 1.669520 
# 
# From -- ./inp_files/9832.got.cif
#   From: 2010.05.17/outbox.cif.g08.bks.cpg/sg131_5_cif.got.tgz:9832.got - 2010.05.20 12:21:01.
