data_PCOD9566271
_publ_section_title
;
Structure prediction by ZEFSAII (Michael W. Deem and Ramdas Pophale) SiO2 
 PCOD9566271
Probable space group: P 42/M M C
;
_chemical_formula_sum "Si O2"
_cell_formula_units_Z 50
_cell_length_a 20.369329
_cell_length_b 20.369329
_cell_length_c 8.669593
_cell_angle_alpha 90.000000
_cell_angle_beta 90.000000
_cell_angle_gamma 90.000000
_cell_volume 3597.097051
_symmetry_space_group_name_H-M "P 42/M M C"
_symmetry_group_IT_number 131
_symmetry_cell_setting 'tetragonal'
loop_
_space_group_symop_operation_xyz
x,y,z
-x,-y,z
-y,x,1/2+z
y,-x,1/2+z
-x,y,-z
x,-y,-z
y,x,1/2-z
-y,-x,1/2-z
-x,-y,-z
x,y,-z
y,-x,1/2-z
-y,x,1/2-z
x,-y,z
-x,y,z
-y,-x,1/2+z
y,x,1/2+z
loop_
_atom_site_type_symbol
_atom_site_label
_atom_site_fract_x
_atom_site_fract_y
_atom_site_fract_z
Si Si1 0.500000 0.654224 0.685754
Si Si2 0.728088 0.372135 0.683943
Si Si3 0.579602 0.000000 0.177754
Si Si4 0.139743 0.422222 0.815774
Si Si5 0.500000 0.500000 0.250000
O O1 0.500000 0.652362 0.500000
O O2 0.435337 0.691011 0.745036
O O3 0.500000 0.580514 0.747711
O O4 0.691948 0.308053 0.750000
O O5 0.722074 0.373528 0.500000
O O6 0.803300 0.380978 0.734787
O O7 0.598718 0.067259 0.261926
O O8 0.500000 0.000000 0.178857
O O9 0.601110 0.000000 0.000000
O O10 0.148227 0.500000 0.775340
O O11 0.145727 0.417224 0.000000
#
# Coordination Sequence:
#
# PCOD9566271 Si02
#       5
#     8  16   8  16   2
#     4  12  24  37  50  64  82 108 147 193 239 283
#     4  12  24  36  50  66  88 116 150 189 234 280
#     4   9  17  29  47  71  95 115 143 178 222 273
#     4  10  19  32  50  69  92 117 147 184 228 276
#     4  12  26  36  56  62  82 104 154 196 246 284
#
# _framework density 13.900097000000001
#
# number of rings (size 3 to 8) (size 9 to 14) (size 15 to 20)
#    0.000    1.120    3.200    5.040    0.000    4.480 
#    0.000    0.000    0.000    0.000    0.000    0.000 
#    0.000    0.000    0.000    0.000    0.000    0.800 
#
# Total GULP energy -278786.221243 kJ/mol
# GULP energy per Si atom -5575.724425 kJ/mol
# Density = 1.386846 g / cm^3
# Si number density = 13.900097 Si / 1000 Ang^3
#
#
#
# Elastic Constant Matrix: (Units=GPa)
#
#
# Indices 1 2 3 4 5 6 
#
# 1 99.6737 42.1860 50.6285 0.0000 0.0000 0.0000
# 2 42.1860 99.6771 50.6281 0.0000 0.0000 0.0000
# 3 50.6285 50.6281 142.0859 0.0000 0.0000 0.0000
# 4 0.0000 0.0000 0.0000 17.2176 0.0000 0.0000
# 5 0.0000 0.0000 0.0000 0.0000 17.2190 0.0000
# 6 0.0000 0.0000 0.0000 0.0000 0.0000 7.9645
#
#
#
# Elastic Compliance Matrix: (Units=1/GPa)
#
#
# Indices 1 2 3 4 5 6 
#
# 1 0.013424 -0.003971 -0.003369 0.000000 0.000000 0.000000
# 2 -0.003971 0.013424 -0.003368 0.000000 0.000000 0.000000
# 3 -0.003369 -0.003368 0.009439 0.000000 0.000000 0.000000
# 4 0.000000 0.000000 0.000000 0.058080 0.000000 0.000000
# 5 0.000000 0.000000 0.000000 0.000000 0.058075 0.000000
# 6 0.000000 0.000000 0.000000 0.000000 0.000000 0.125557
#
#
# Mechanical properties :
#
#
# Convention : Reuss Voigt Hill
#
# Bulk Modulus (GPa) = 67.24255 69.81354 68.52805
# Shear Modulus (GPa) = 16.42734 21.67985 19.05360
#
# Velocity S-wave (km/s) = 3.44148 3.95358 3.70638
# Velocity P-wave (km/s) = 8.01700 8.43654 8.22945
#
# Compressibility (1/GPa) = 0.01487154
#
# Stress axis : x y z
#
# Youngs Moduli (GPa) = 74.49194 74.49530 105.94891
#
# Poissons Ratio (x) = 0.29578 0.35690
# Poissons Ratio (y) = 0.29577 0.35687
# Poissons Ratio (z) = 0.25093 0.25093
#
# Static dielectric constant tensor:
#      x y z
#    x 1.442160 0.000000 0.000000 
#    y 0.000000 1.442160 0.000000 
#    z 0.000000 0.000000 1.475700 
# 
# From -- ./inp_files/1133.got.cif
#   From: 2010.05.17/outbox.cif.g08.bks.cpg/sg131_1_cif.got.tgz:1133.got - 2010.05.20 12:21:01.
