data_PCOD9566775
_publ_section_title
;
Structure prediction by ZEFSAII (Michael W. Deem and Ramdas Pophale) SiO2 
 PCOD9566775
Probable space group: P 42/M M C
;
_chemical_formula_sum "Si O2"
_cell_formula_units_Z 56
_cell_length_a 12.197384
_cell_length_b 12.197384
_cell_length_c 22.274097
_cell_angle_alpha 90.000000
_cell_angle_beta 90.000000
_cell_angle_gamma 90.000000
_cell_volume 3313.854985
_symmetry_space_group_name_H-M "P 42/M M C"
_symmetry_group_IT_number 131
_symmetry_cell_setting 'tetragonal'
loop_
_space_group_symop_operation_xyz
x,y,z
-x,-y,z
-y,x,1/2+z
y,-x,1/2+z
-x,y,-z
x,-y,-z
y,x,1/2-z
-y,-x,1/2-z
-x,-y,-z
x,y,-z
y,-x,1/2-z
-y,x,1/2-z
x,-y,z
-x,y,z
-y,-x,1/2+z
y,x,1/2+z
loop_
_atom_site_type_symbol
_atom_site_label
_atom_site_fract_x
_atom_site_fract_y
_atom_site_fract_z
Si Si1 0.500000 0.870590 0.181615
Si Si2 0.263637 0.369550 0.113459
Si Si3 0.703636 0.868087 0.730730
Si Si4 0.283894 0.500000 0.426819
Si Si5 0.633733 0.125088 0.500000
O O1 0.390747 0.840723 0.219689
O O2 0.500000 0.824764 0.114260
O O3 0.500000 0.000000 0.178417
O O4 0.255423 0.500000 0.117190
O O5 0.205574 0.325205 0.172966
O O6 0.389022 0.342498 0.096415
O O7 0.189875 0.328990 0.058267
O O8 0.822325 0.822325 0.750000
O O9 0.700556 0.000000 0.720311
O O10 0.275101 0.500000 0.500000
O O11 0.500000 0.125749 0.500000
O O12 0.669594 0.000000 0.500000
#
# Coordination Sequence:
#
# PCOD9566775 Si02
#       5
#     8  16  16   8   8
#     4  10  22  40  61  83 109 146 198 251 291 345
#     4  11  21  34  54  84 119 153 193 234 286 346
#     4  11  22  38  61  86 113 149 196 247 299 354
#     4  12  23  37  58  85 118 160 197 238 294 356
#     4   9  18  31  49  75 111 153 194 230 275 332
#
# _framework density 16.898748000000001
#
# number of rings (size 3 to 8) (size 9 to 14) (size 15 to 20)
#    0.000    1.286    5.714    1.286    0.000    2.286 
#    0.000    0.000    0.000    0.000    0.000    0.000 
#    0.000    9.143    0.000    0.000    0.000    0.000 
#
# Total GULP energy -311855.702864 kJ/mol
# GULP energy per Si atom -5568.851837 kJ/mol
# Density = 1.686029 g / cm^3
# Si number density = 16.898748 Si / 1000 Ang^3
#
#
#
# Elastic Constant Matrix: (Units=GPa)
#
#
# Indices 1 2 3 4 5 6 
#
# 1 91.2639 44.6045 47.1957 0.0000 0.0000 0.0000
# 2 44.6045 91.2639 47.1957 0.0000 0.0000 0.0000
# 3 47.1957 47.1957 121.4912 0.0000 0.0000 0.0000
# 4 0.0000 0.0000 0.0000 21.0830 0.0000 0.0000
# 5 0.0000 0.0000 0.0000 0.0000 21.0830 0.0000
# 6 0.0000 0.0000 0.0000 0.0000 0.0000 24.3716
#
#
#
# Elastic Compliance Matrix: (Units=1/GPa)
#
#
# Indices 1 2 3 4 5 6 
#
# 1 0.015756 -0.005676 -0.003916 0.000000 0.000000 0.000000
# 2 -0.005676 0.015756 -0.003916 0.000000 0.000000 0.000000
# 3 -0.003916 -0.003916 0.011274 0.000000 0.000000 0.000000
# 4 0.000000 0.000000 0.000000 0.047431 0.000000 0.000000
# 5 0.000000 0.000000 0.000000 0.000000 0.047431 0.000000
# 6 0.000000 0.000000 0.000000 0.000000 0.000000 0.041031
#
#
# Mechanical properties :
#
#
# Convention : Reuss Voigt Hill
#
# Bulk Modulus (GPa) = 63.40858 64.66785 64.03821
# Shear Modulus (GPa) = 23.70200 24.30908 24.00554
#
# Velocity S-wave (km/s) = 3.74918 3.79689 3.77311
# Velocity P-wave (km/s) = 7.50639 7.58767 7.54714
#
# Compressibility (1/GPa) = 0.01577074
#
# Stress axis : x y z
#
# Youngs Moduli (GPa) = 63.46678 63.46678 88.70300
#
# Poissons Ratio (x) = 0.36021 0.34736
# Poissons Ratio (y) = 0.36021 0.34736
# Poissons Ratio (z) = 0.24854 0.24854
#
# Static dielectric constant tensor:
#      x y z
#    x 1.574080 0.000000 0.000000 
#    y 0.000000 1.574080 0.000000 
#    z 0.000000 0.000000 1.590560 
# 
# From -- ./inp_files/9039.got.cif
#   From: 2010.05.17/outbox.cif.g08.bks.cpg/sg131_5_cif.got.tgz:9039.got - 2010.05.20 12:21:01.
