data_PCOD9566281
_publ_section_title
;
Structure prediction by ZEFSAII (Michael W. Deem and Ramdas Pophale) SiO2 
 PCOD9566281
Probable space group: P 42/M M C
;
_chemical_formula_sum "Si O2"
_cell_formula_units_Z 104
_cell_length_a 19.255048
_cell_length_b 19.255048
_cell_length_c 16.853155
_cell_angle_alpha 90.000000
_cell_angle_beta 90.000000
_cell_angle_gamma 90.000000
_cell_volume 6248.423056
_symmetry_space_group_name_H-M "P 42/M M C"
_symmetry_group_IT_number 131
_symmetry_cell_setting 'tetragonal'
loop_
_space_group_symop_operation_xyz
x,y,z
-x,-y,z
-y,x,1/2+z
y,-x,1/2+z
-x,y,-z
x,-y,-z
y,x,1/2-z
-y,-x,1/2-z
-x,-y,-z
x,y,-z
y,-x,1/2-z
-y,x,1/2-z
x,-y,z
-x,y,z
-y,-x,1/2+z
y,x,1/2+z
loop_
_atom_site_type_symbol
_atom_site_label
_atom_site_fract_x
_atom_site_fract_y
_atom_site_fract_z
Si Si1 0.418723 0.822859 0.811116
Si Si2 0.682503 0.579798 0.222676
Si Si3 0.263841 0.686465 0.909743
Si Si4 0.330480 0.879775 0.336929
Si Si5 0.917288 0.199667 0.731099
Si Si6 0.000000 0.577875 0.906196
Si Si7 0.708270 0.151421 0.092997
O O1 0.500000 0.841237 0.814407
O O2 0.415254 0.739620 0.793854
O O3 0.377830 0.852266 0.735244
O O4 0.372996 0.853606 0.882854
O O5 0.608372 0.608372 0.250000
O O6 0.682330 0.500000 0.196718
O O7 0.705300 0.632028 0.152746
O O8 0.181635 0.681844 0.898310
O O9 0.279475 0.766680 0.890907
O O10 0.285468 0.671991 0.000000
O O11 0.257978 0.905874 0.299670
O O12 0.377170 0.935979 0.378367
O O13 0.866006 0.133995 0.750000
O O14 0.891473 0.240385 0.651060
O O15 0.000000 0.182742 0.726252
O O16 0.000000 0.500000 0.871985
O O17 0.000000 0.572272 0.000000
O O18 0.719844 0.136790 0.000000
#
# Coordination Sequence:
#
# PCOD9566281 Si02
#       7
#    16  16  16  16  16   8  16
#     4   9  18  31  52  78 107 143 186 235 277 324
#     4  10  19  32  50  74 106 144 190 237 280 330
#     4  10  19  33  55  80 106 137 180 234 281 329
#     4  10  19  34  55  81 108 148 185 220 270 333
#     4  11  22  39  63  88 113 145 187 230 275 333
#     4  11  22  34  50  80 122 154 180 217 270 340
#     4  10  20  34  58  85 111 145 184 233 283 328
#
# _framework density 16.644200000000001
#
# number of rings (size 3 to 8) (size 9 to 14) (size 15 to 20)
#    0.000    1.923    3.846    0.923    0.000    1.846 
#    0.000    0.000    0.000    0.462    0.000    4.308 
#    0.000    0.000    0.000    0.000    0.000    0.000 
#
# Total GULP energy -578991.581759 kJ/mol
# GULP energy per Si atom -5567.226748 kJ/mol
# Density = 1.660632 g / cm^3
# Si number density = 16.644200 Si / 1000 Ang^3
#
#
#
# Elastic Constant Matrix: (Units=GPa)
#
#
# Indices 1 2 3 4 5 6 
#
# 1 103.8199 43.8122 25.8498 0.0000 0.0000 0.0000
# 2 43.8122 103.8194 25.8503 0.0000 0.0000 0.0000
# 3 25.8498 25.8503 38.9659 0.0000 0.0000 0.0000
# 4 0.0000 0.0000 0.0000 11.2984 0.0000 0.0000
# 5 0.0000 0.0000 0.0000 0.0000 11.2991 0.0000
# 6 0.0000 0.0000 0.0000 0.0000 0.0000 24.0115
#
#
#
# Elastic Compliance Matrix: (Units=1/GPa)
#
#
# Indices 1 2 3 4 5 6 
#
# 1 0.012744 -0.003921 -0.005853 0.000000 0.000000 0.000000
# 2 -0.003921 0.012744 -0.005854 0.000000 0.000000 0.000000
# 3 -0.005853 -0.005854 0.033430 0.000000 0.000000 0.000000
# 4 0.000000 0.000000 0.000000 0.088508 0.000000 0.000000
# 5 0.000000 0.000000 0.000000 0.000000 0.088502 0.000000
# 6 0.000000 0.000000 0.000000 0.000000 0.000000 0.041647
#
#
# Mechanical properties :
#
#
# Convention : Reuss Voigt Hill
#
# Bulk Modulus (GPa) = 36.14959 48.62553 42.38756
# Shear Modulus (GPa) = 15.72074 19.39467 17.55770
#
# Velocity S-wave (km/s) = 3.07663 3.41728 3.25142
# Velocity P-wave (km/s) = 5.86405 6.69690 6.29427
#
# Compressibility (1/GPa) = 0.02766283
#
# Stress axis : x y z
#
# Youngs Moduli (GPa) = 78.46864 78.46747 29.91335
#
# Poissons Ratio (x) = 0.30764 0.17509
# Poissons Ratio (y) = 0.30764 0.17510
# Poissons Ratio (z) = 0.45930 0.45932
#
# Static dielectric constant tensor:
#      x y z
#    x 1.448150 0.000000 0.000000 
#    y 0.000000 1.448160 0.000000 
#    z 0.000000 0.000000 1.565800 
# 
# From -- ./inp_files/8092.got.cif
#   From: 2010.05.17/outbox.cif.g08.bks.cpg/sg131_5_cif.got.tgz:8092.got - 2010.05.20 12:21:01.
