data_PCOD9566887
_publ_section_title
;
Structure prediction by ZEFSAII (Michael W. Deem and Ramdas Pophale) SiO2 
 PCOD9566887
Probable space group: P 42/M M C
;
_chemical_formula_sum "Si O2"
_cell_formula_units_Z 128
_cell_length_a 19.396994
_cell_length_b 19.396994
_cell_length_c 13.951177
_cell_angle_alpha 90.000000
_cell_angle_beta 90.000000
_cell_angle_gamma 90.000000
_cell_volume 5249.037937
_symmetry_space_group_name_H-M "P 42/M M C"
_symmetry_group_IT_number 131
_symmetry_cell_setting 'tetragonal'
loop_
_space_group_symop_operation_xyz
x,y,z
-x,-y,z
-y,x,1/2+z
y,-x,1/2+z
-x,y,-z
x,-y,-z
y,x,1/2-z
-y,-x,1/2-z
-x,-y,-z
x,y,-z
y,-x,1/2-z
-y,x,1/2-z
x,-y,z
-x,y,z
-y,-x,1/2+z
y,x,1/2+z
loop_
_atom_site_type_symbol
_atom_site_label
_atom_site_fract_x
_atom_site_fract_y
_atom_site_fract_z
Si Si1 0.927091 0.919890 0.864379
Si Si2 0.789049 0.799194 0.384349
Si Si3 0.923712 0.771548 0.607047
Si Si4 0.923762 0.580876 0.384007
Si Si5 0.336229 0.301516 0.615156
Si Si6 0.821570 0.422821 0.882916
Si Si7 0.419081 0.233321 0.116847
Si Si8 0.921614 0.701558 0.883590
O O1 0.919567 0.919567 0.750000
O O2 0.852541 0.903032 0.902969
O O3 0.000000 0.885660 0.890939
O O4 0.933379 0.000000 0.891518
O O5 0.793736 0.795015 0.500000
O O6 0.852651 0.754272 0.342861
O O7 0.721498 0.755610 0.364055
O O8 0.769574 0.877610 0.357106
O O9 0.927730 0.741357 0.500000
O O10 0.000000 0.768561 0.648902
O O11 0.923896 0.586033 0.500000
O O12 0.926699 0.500000 0.360520
O O13 0.845595 0.602211 0.354059
O O14 0.000000 0.611122 0.353487
O O15 0.344664 0.310464 0.500000
O O16 0.403037 0.256922 0.646732
O O17 0.297959 0.371345 0.649492
O O18 0.839262 0.500000 0.852156
O O19 0.879654 0.366929 0.854502
O O20 0.821764 0.421143 0.000000
O O21 0.500000 0.242452 0.139914
O O22 0.413669 0.232634 0.000000
O O23 0.000000 0.702349 0.849868
O O24 0.922769 0.701450 0.000000
#
# Coordination Sequence:
#
# PCOD9566887 Si02
#       8
#    16  16  16  16  16  16  16  16
#     4   8  14  24  35  46  62  84 110 143 184 223
#     4   8  14  23  31  40  58  82 104 128 163 205
#     4   9  16  24  34  48  65  86 116 152 180 207
#     4   7   9  13  20  30  44  58  73 100 137 172
#     4   8  13  21  30  38  52  74  97 122 155 196
#     4   8  13  20  29  39  49  64  88 117 150 190
#     4   8  12  17  26  38  49  65  93 126 156 189
#     4   8  13  20  29  40  53  69  89 117 155 194
#
# _framework density 24.38542
#
# number of rings (size 3 to 8) (size 9 to 14) (size 15 to 20)
#    0.000    4.000    0.000    3.000    0.000    1.000 
#    0.000    4.375    0.000    4.125    0.000    2.625 
#    0.000    0.000    0.000    0.000    0.000    5.000 
#
# Total GULP energy -712691.888642 kJ/mol
# GULP energy per Si atom -5567.905380 kJ/mol
# Density = 2.432992 g / cm^3
# Si number density = 24.385420 Si / 1000 Ang^3
#
#
#
# Elastic Constant Matrix: (Units=GPa)
#
#
# Indices 1 2 3 4 5 6 
#
# 1 165.3034 47.6897 -2.2495 0.0000 0.0000 0.0000
# 2 47.6897 165.3034 -2.2495 0.0000 0.0000 0.0000
# 3 -2.2495 -2.2495 95.9219 0.0000 0.0000 0.0000
# 4 0.0000 0.0000 0.0000 -24.4911 0.0000 0.0000
# 5 0.0000 0.0000 0.0000 0.0000 -24.4911 0.0000
# 6 0.0000 0.0000 0.0000 0.0000 0.0000 42.7327
#
#
#
# Elastic Compliance Matrix: (Units=1/GPa)
#
#
# Indices 1 2 3 4 5 6 
#
# 1 0.006600 -0.001903 0.000110 0.000000 0.000000 0.000000
# 2 -0.001903 0.006600 0.000110 0.000000 0.000000 0.000000
# 3 0.000110 0.000110 0.010430 0.000000 0.000000 0.000000
# 4 0.000000 0.000000 0.000000 -0.040831 0.000000 0.000000
# 5 0.000000 0.000000 0.000000 0.000000 -0.040831 0.000000
# 6 0.000000 0.000000 0.000000 0.000000 0.000000 0.023401
#
#
# Mechanical properties :
#
#
# Convention : Reuss Voigt Hill
#
# Bulk Modulus (GPa) = 49.34478 56.99003 53.16741
# Shear Modulus (GPa) = -203.98733 24.30597 -89.84068
#
# Velocity S-wave (km/s) = -9.15603 3.16055 -6.07634
# Velocity P-wave (km/s) = 9.56546 6.06135 5.23249
#
# Compressibility (1/GPa) = 0.02026557
#
# Stress axis : x y z
#
# Youngs Moduli (GPa) = 151.51833 151.51833 95.87440
#
# Poissons Ratio (x) = 0.28827 -0.01056
# Poissons Ratio (y) = 0.28827 -0.01056
# Poissons Ratio (z) = -0.01669 -0.01669
#
# Static dielectric constant tensor:
#      x y z
#    x 1.970330 0.000000 0.000000 
#    y 0.000000 1.970330 0.000000 
#    z 0.000000 0.000000 1.992490 
# 
# From -- ./inp_files/11583.got.cif
#   From: 2010.05.17/outbox.cif.g08.bks.cpg/sg131_6_cif.got.tgz:11583.got - 2010.05.20 12:21:01.
