data_PCOD9566155
_publ_section_title
;
Structure prediction by ZEFSAII (Michael W. Deem and Ramdas Pophale) SiO2 
 PCOD9566155
Probable space group: P 42/M M C
;
_chemical_formula_sum "Si O2"
_cell_formula_units_Z 96
_cell_length_a 14.499898
_cell_length_b 14.499898
_cell_length_c 22.725159
_cell_angle_alpha 90.000000
_cell_angle_beta 90.000000
_cell_angle_gamma 90.000000
_cell_volume 4777.897459
_symmetry_space_group_name_H-M "P 42/M M C"
_symmetry_group_IT_number 131
_symmetry_cell_setting 'tetragonal'
loop_
_space_group_symop_operation_xyz
x,y,z
-x,-y,z
-y,x,1/2+z
y,-x,1/2+z
-x,y,-z
x,-y,-z
y,x,1/2-z
-y,-x,1/2-z
-x,-y,-z
x,y,-z
y,-x,1/2-z
-y,x,1/2-z
x,-y,z
-x,y,z
-y,-x,1/2+z
y,x,1/2+z
loop_
_atom_site_type_symbol
_atom_site_label
_atom_site_fract_x
_atom_site_fract_y
_atom_site_fract_z
Si Si1 0.894997 0.322103 0.853502
Si Si2 0.500000 0.639905 0.430530
Si Si3 0.000000 0.298535 0.565346
Si Si4 0.221942 0.800054 0.067766
Si Si5 0.606605 0.000000 0.182132
Si Si6 0.605068 0.301844 0.875374
Si Si7 0.500000 0.138342 0.567912
Si Si8 0.808320 0.610077 0.260928
O O1 0.858720 0.236456 0.890790
O O2 0.892870 0.410005 0.896776
O O3 0.821633 0.341323 0.801616
O O4 0.000000 0.312113 0.831398
O O5 0.500000 0.610021 0.500000
O O6 0.591656 0.609886 0.395302
O O7 0.500000 0.750643 0.431597
O O8 0.908618 0.238033 0.572583
O O9 0.000000 0.337727 0.500000
O O10 0.000000 0.377763 0.613177
O O11 0.317014 0.750658 0.087513
O O12 0.203363 0.775086 0.000000
O O13 0.642000 0.097848 0.205720
O O14 0.500000 0.000000 0.198675
O O15 0.500000 0.268580 0.887144
O O16 0.622818 0.275608 0.806718
O O17 0.500000 0.108508 0.500000
O O18 0.811968 0.500000 0.249173
#
# Coordination Sequence:
#
# PCOD9566155 Si02
#       8
#    16   8   8  16   8  16   8  16
#     4  12  24  41  67  95 127 169 216 274 345 410
#     4  11  23  43  63  94 141 187 229 269 319 385
#     4  10  22  41  61  88 130 171 213 275 339 388
#     4  11  24  42  64  94 129 168 220 278 338 402
#     4  10  18  35  62  93 127 162 211 272 331 390
#     4  11  23  40  65  94 131 181 227 269 319 385
#     4  11  23  39  63  96 135 169 212 275 336 399
#     4  10  21  38  62  95 132 168 217 272 331 391
#
# _framework density 20.092521000000001
#
# number of rings (size 3 to 8) (size 9 to 14) (size 15 to 20)
#    0.000    1.167    5.000    1.500    0.000    4.167 
#    0.000    2.083    0.000    1.500    0.000    0.000 
#    0.000    0.000    0.000    0.000    0.000    0.000 
#
# Total GULP energy -536076.484082 kJ/mol
# GULP energy per Si atom -5584.130043 kJ/mol
# Density = 2.004679 g / cm^3
# Si number density = 20.092521 Si / 1000 Ang^3
#
#
#
# Elastic Constant Matrix: (Units=GPa)
#
#
# Indices 1 2 3 4 5 6 
#
# 1 92.9124 15.0925 34.7378 0.0000 0.0000 0.0000
# 2 15.0925 92.9124 34.7378 0.0000 0.0000 0.0000
# 3 34.7378 34.7378 130.0908 0.0000 0.0000 0.0000
# 4 0.0000 0.0000 0.0000 32.7667 0.0000 0.0000
# 5 0.0000 0.0000 0.0000 0.0000 32.7667 0.0000
# 6 0.0000 0.0000 0.0000 0.0000 0.0000 1.4456
#
#
#
# Elastic Compliance Matrix: (Units=1/GPa)
#
#
# Indices 1 2 3 4 5 6 
#
# 1 0.012015 -0.000836 -0.002985 0.000000 0.000000 0.000000
# 2 -0.000836 0.012015 -0.002985 0.000000 0.000000 0.000000
# 3 -0.002985 -0.002985 0.009281 0.000000 0.000000 0.000000
# 4 0.000000 0.000000 0.000000 0.030519 0.000000 0.000000
# 5 0.000000 0.000000 0.000000 0.000000 0.030519 0.000000
# 6 0.000000 0.000000 0.000000 0.000000 0.000000 0.691734
#
#
# Mechanical properties :
#
#
# Convention : Reuss Voigt Hill
#
# Bulk Modulus (GPa) = 50.76450 53.89464 52.32957
# Shear Modulus (GPa) = 6.20148 28.81898 17.51023
#
# Velocity S-wave (km/s) = 1.75874 3.79134 2.95529
# Velocity P-wave (km/s) = 5.42627 6.78581 6.14376
#
# Compressibility (1/GPa) = 0.01969880
#
# Stress axis : x y z
#
# Youngs Moduli (GPa) = 83.23199 83.23199 107.74532
#
# Poissons Ratio (x) = 0.06955 0.32163
# Poissons Ratio (y) = 0.06955 0.32163
# Poissons Ratio (z) = 0.24846 0.24846
#
# Static dielectric constant tensor:
#      x y z
#    x 1.722660 0.000000 0.000000 
#    y 0.000000 1.722660 0.000000 
#    z 0.000000 0.000000 1.731830 
# 
# From -- ./inp_files/9833.got.cif
#   From: 2010.05.17/outbox.cif.g08.bks.cpg/sg131_5_cif.got.tgz:9833.got - 2010.05.20 12:21:01.
