data_PCOD9566177
_publ_section_title
;
Structure prediction by ZEFSAII (Michael W. Deem and Ramdas Pophale) SiO2 
 PCOD9566177
Probable space group: P 42/M M C
;
_chemical_formula_sum "Si O2"
_cell_formula_units_Z 80
_cell_length_a 19.968444
_cell_length_b 19.968444
_cell_length_c 15.157823
_cell_angle_alpha 90.000000
_cell_angle_beta 90.000000
_cell_angle_gamma 90.000000
_cell_volume 6044.011483
_symmetry_space_group_name_H-M "P 42/M M C"
_symmetry_group_IT_number 131
_symmetry_cell_setting 'tetragonal'
loop_
_space_group_symop_operation_xyz
x,y,z
-x,-y,z
-y,x,1/2+z
y,-x,1/2+z
-x,y,-z
x,-y,-z
y,x,1/2-z
-y,-x,1/2-z
-x,-y,-z
x,y,-z
y,-x,1/2-z
-y,x,1/2-z
x,-y,z
-x,y,z
-y,-x,1/2+z
y,x,1/2+z
loop_
_atom_site_type_symbol
_atom_site_label
_atom_site_fract_x
_atom_site_fract_y
_atom_site_fract_z
Si Si1 0.423107 0.248324 0.403318
Si Si2 0.190362 0.418978 0.600883
Si Si3 0.500000 0.578252 0.106685
Si Si4 0.125818 0.419369 0.778381
Si Si5 0.662202 0.630997 0.349418
Si Si6 0.418098 0.000000 0.396416
O O1 0.422706 0.215409 0.500000
O O2 0.500000 0.271303 0.386659
O O3 0.404948 0.194506 0.329941
O O4 0.373850 0.310554 0.403303
O O5 0.170645 0.403784 0.500000
O O6 0.198655 0.500000 0.607394
O O7 0.137670 0.398026 0.677005
O O8 0.262759 0.386716 0.621242
O O9 0.500000 0.500000 0.131657
O O10 0.564790 0.617177 0.141051
O O11 0.500000 0.582047 0.000000
O O12 0.118767 0.500000 0.775940
O O13 0.064384 0.395608 0.838908
O O14 0.657256 0.657256 0.250000
O O15 0.500000 0.000000 0.398409
O O16 0.397290 0.000000 0.500000
#
# Coordination Sequence:
#
# PCOD9566177 Si02
#       6
#    16  16   8  16  16   8
#     4  10  19  30  42  57  76  98 129 170 210 248
#     4  10  19  32  45  56  75 104 134 164 200 242
#     4  11  24  34  40  52  70  97 136 181 223 258
#     4   9  17  29  44  63  78  96 119 149 191 253
#     4  12  22  30  43  55  73 102 137 174 211 248
#     4   9  16  28  47  67  85  97 108 138 191 250
#
# _framework density 13.236242000000001
#
# number of rings (size 3 to 8) (size 9 to 14) (size 15 to 20)
#    0.000    1.800    3.000    3.000    2.800    4.000 
#    0.000    0.500    0.000    3.000    0.000    0.000 
#    0.000    0.000    0.000    0.000    0.000    0.000 
#
# Total GULP energy -445756.506421 kJ/mol
# GULP energy per Si atom -5571.956330 kJ/mol
# Density = 1.320612 g / cm^3
# Si number density = 13.236242 Si / 1000 Ang^3
#
#
#
# Elastic Constant Matrix: (Units=GPa)
#
#
# Indices 1 2 3 4 5 6 
#
# 1 45.1095 12.9177 29.7666 0.0000 0.0000 0.0000
# 2 12.9177 45.1095 29.7666 0.0000 0.0000 0.0000
# 3 29.7666 29.7666 123.9750 0.0000 0.0000 0.0000
# 4 0.0000 0.0000 0.0000 11.2342 0.0000 0.0000
# 5 0.0000 0.0000 0.0000 0.0000 11.2342 0.0000
# 6 0.0000 0.0000 0.0000 0.0000 0.0000 6.7910
#
#
#
# Elastic Compliance Matrix: (Units=1/GPa)
#
#
# Indices 1 2 3 4 5 6 
#
# 1 0.026965 -0.004099 -0.005490 0.000000 0.000000 0.000000
# 2 -0.004099 0.026965 -0.005490 0.000000 0.000000 0.000000
# 3 -0.005490 -0.005490 0.010703 0.000000 0.000000 0.000000
# 4 0.000000 0.000000 0.000000 0.089014 0.000000 0.000000
# 5 0.000000 0.000000 0.000000 0.000000 0.089014 0.000000
# 6 0.000000 0.000000 0.000000 0.000000 0.000000 0.147254
#
#
# Mechanical properties :
#
#
# Convention : Reuss Voigt Hill
#
# Bulk Modulus (GPa) = 29.00755 39.89952 34.45354
# Shear Modulus (GPa) = 11.58577 15.30142 13.44360
#
# Velocity S-wave (km/s) = 2.96177 3.40372 3.19041
# Velocity P-wave (km/s) = 5.80163 6.75697 6.29744
#
# Compressibility (1/GPa) = 0.03447378
#
# Stress axis : x y z
#
# Youngs Moduli (GPa) = 37.08532 37.08532 93.43597
#
# Poissons Ratio (x) = 0.15201 0.51298
# Poissons Ratio (y) = 0.15201 0.51298
# Poissons Ratio (z) = 0.20360 0.20360
#
# Static dielectric constant tensor:
#      x y z
#    x 1.442770 0.000000 0.000000 
#    y 0.000000 1.442770 0.000000 
#    z 0.000000 0.000000 1.512470 
# 
# From -- ./inp_files/6044.got.cif
#   From: 2010.05.17/outbox.cif.g08.bks.cpg/sg131_4_cif.got.tgz:6044.got - 2010.05.20 12:21:01.
