data_PCOD9566337
_publ_section_title
;
Structure prediction by ZEFSAII (Michael W. Deem and Ramdas Pophale) SiO2 
 PCOD9566337
Probable space group: P 42/M M C
;
_chemical_formula_sum "Si O2"
_cell_formula_units_Z 104
_cell_length_a 18.265472
_cell_length_b 18.265472
_cell_length_c 17.866875
_cell_angle_alpha 90.000000
_cell_angle_beta 90.000000
_cell_angle_gamma 90.000000
_cell_volume 5960.880256
_symmetry_space_group_name_H-M "P 42/M M C"
_symmetry_group_IT_number 131
_symmetry_cell_setting 'tetragonal'
loop_
_space_group_symop_operation_xyz
x,y,z
-x,-y,z
-y,x,1/2+z
y,-x,1/2+z
-x,y,-z
x,-y,-z
y,x,1/2-z
-y,-x,1/2-z
-x,-y,-z
x,y,-z
y,-x,1/2-z
-y,x,1/2-z
x,-y,z
-x,y,z
-y,-x,1/2+z
y,x,1/2+z
loop_
_atom_site_type_symbol
_atom_site_label
_atom_site_fract_x
_atom_site_fract_y
_atom_site_fract_z
Si Si1 0.086343 0.712789 0.385223
Si Si2 0.585205 0.911571 0.000000
Si Si3 0.587065 0.321277 0.808641
Si Si4 0.646239 0.709622 0.584218
Si Si5 0.711737 0.085613 0.705316
Si Si6 0.181100 0.215699 0.083044
Si Si7 0.808613 0.582599 0.205465
O O1 0.107405 0.636223 0.427461
O O2 0.094410 0.715992 0.295231
O O3 0.138968 0.776757 0.413769
O O4 0.000000 0.723975 0.401965
O O5 0.500000 0.884169 0.000000
O O6 0.579594 0.000000 0.000000
O O7 0.620280 0.379721 0.750000
O O8 0.500000 0.325767 0.812884
O O9 0.629601 0.336200 0.884697
O O10 0.607491 0.240917 0.776062
O O11 0.620434 0.708322 0.500000
O O12 0.720853 0.757179 0.589203
O O13 0.589659 0.750971 0.637831
O O14 0.770530 0.127495 0.653243
O O15 0.634821 0.124390 0.687464
O O16 0.712931 0.000000 0.688430
O O17 0.146524 0.224088 0.000000
O O18 0.832263 0.500000 0.217684
#
# Coordination Sequence:
#
# PCOD9566337 Si02
#       7
#    16   8  16  16  16  16  16
#     4  10  19  33  54  79 109 147 187 216 259 327
#     4   9  18  32  50  78 117 153 182 215 259 319
#     4   9  17  30  48  69  96 130 165 203 250 307
#     4   9  18  31  49  71  95 127 167 211 258 303
#     4  10  21  34  53  81 107 137 178 227 275 320
#     4  10  19  34  55  75 104 141 181 225 268 320
#     4   9  18  33  51  70  96 132 170 206 252 317
#
# _framework density 17.447088000000001
#
# number of rings (size 3 to 8) (size 9 to 14) (size 15 to 20)
#    0.000    2.538    0.769    1.385    0.000    4.462 
#    0.000    2.308    0.000    0.462    0.000   11.846 
#    0.000    0.000    0.000    0.000    0.000    0.000 
#
# Total GULP energy -579208.636568 kJ/mol
# GULP energy per Si atom -5569.313813 kJ/mol
# Density = 1.740738 g / cm^3
# Si number density = 17.447088 Si / 1000 Ang^3
#
#
#
# Elastic Constant Matrix: (Units=GPa)
#
#
# Indices 1 2 3 4 5 6 
#
# 1 68.3064 29.2116 24.3050 0.0000 0.0000 0.0000
# 2 29.2116 68.3057 24.3050 0.0000 0.0000 0.0000
# 3 24.3050 24.3050 82.2291 0.0000 0.0000 0.0000
# 4 0.0000 0.0000 0.0000 13.6410 0.0000 0.0000
# 5 0.0000 0.0000 0.0000 0.0000 13.6407 0.0000
# 6 0.0000 0.0000 0.0000 0.0000 0.0000 16.2375
#
#
#
# Elastic Compliance Matrix: (Units=1/GPa)
#
#
# Indices 1 2 3 4 5 6 
#
# 1 0.018803 -0.006776 -0.003555 0.000000 0.000000 0.000000
# 2 -0.006776 0.018803 -0.003555 0.000000 0.000000 0.000000
# 3 -0.003555 -0.003555 0.014263 0.000000 0.000000 0.000000
# 4 0.000000 0.000000 0.000000 0.073308 0.000000 0.000000
# 5 0.000000 0.000000 0.000000 0.000000 0.073310 0.000000
# 6 0.000000 0.000000 0.000000 0.000000 0.000000 0.061586
#
#
# Mechanical properties :
#
#
# Convention : Reuss Voigt Hill
#
# Bulk Modulus (GPa) = 41.49972 41.60937 41.55454
# Shear Modulus (GPa) = 16.89900 18.10517 17.50208
#
# Velocity S-wave (km/s) = 3.11559 3.22486 3.17069
# Velocity P-wave (km/s) = 6.06467 6.14548 6.10521
#
# Compressibility (1/GPa) = 0.02409655
#
# Stress axis : x y z
#
# Youngs Moduli (GPa) = 53.18395 53.18329 70.11366
#
# Poissons Ratio (x) = 0.36038 0.24923
# Poissons Ratio (y) = 0.36039 0.24924
# Poissons Ratio (z) = 0.18905 0.18906
#
# Static dielectric constant tensor:
#      x y z
#    x 1.583910 0.000000 0.000000 
#    y 0.000000 1.583910 0.000000 
#    z 0.000000 0.000000 1.645140 
# 
# From -- ./inp_files/8093.got.cif
#   From: 2010.05.17/outbox.cif.g08.bks.cpg/sg131_5_cif.got.tgz:8093.got - 2010.05.20 12:21:01.
