data_PCOD9566819
_publ_section_title
;
Structure prediction by ZEFSAII (Michael W. Deem and Ramdas Pophale) SiO2 
 PCOD9566819
Probable space group: P 42/M M C
;
_chemical_formula_sum "Si O2"
_cell_formula_units_Z 64
_cell_length_a 17.385998
_cell_length_b 17.385998
_cell_length_c 13.426056
_cell_angle_alpha 90.000000
_cell_angle_beta 90.000000
_cell_angle_gamma 90.000000
_cell_volume 4058.333238
_symmetry_space_group_name_H-M "P 42/M M C"
_symmetry_group_IT_number 131
_symmetry_cell_setting 'tetragonal'
loop_
_space_group_symop_operation_xyz
x,y,z
-x,-y,z
-y,x,1/2+z
y,-x,1/2+z
-x,y,-z
x,-y,-z
y,x,1/2-z
-y,-x,1/2-z
-x,-y,-z
x,y,-z
y,-x,1/2-z
-y,x,1/2-z
x,-y,z
-x,y,z
-y,-x,1/2+z
y,x,1/2+z
loop_
_atom_site_type_symbol
_atom_site_label
_atom_site_fract_x
_atom_site_fract_y
_atom_site_fract_z
Si Si1 0.414858 0.313268 0.815644
Si Si2 0.198173 0.593457 0.000000
Si Si3 0.623036 0.590974 0.000000
Si Si4 0.085748 0.406394 0.175922
Si Si5 0.408371 0.860441 0.888977
O O1 0.345052 0.345052 0.750000
O O2 0.500000 0.310563 0.764709
O O3 0.401330 0.229957 0.863275
O O4 0.416728 0.374136 0.904039
O O5 0.151538 0.618590 0.098651
O O6 0.197277 0.500000 0.000000
O O7 0.287078 0.616446 0.000000
O O8 0.620001 0.500000 0.000000
O O9 0.090002 0.500000 0.178547
O O10 0.097765 0.378867 0.289497
O O11 0.000000 0.386297 0.140717
O O12 0.500000 0.877088 0.893646
O O13 0.377268 0.877320 0.000000
#
# Coordination Sequence:
#
# PCOD9566819 Si02
#       5
#    16   8   8  16  16
#     4  11  21  32  43  56  75 103 139 183 228 260
#     4   9  17  29  41  59  83 100 123 163 208 254
#     4  11  21  31  43  57  74 103 141 175 219 265
#     4   9  16  26  43  63  80  99 121 151 200 260
#     4   9  17  30  43  56  78 103 127 162 210 258
#
# _framework density 15.770020000000001
#
# number of rings (size 3 to 8) (size 9 to 14) (size 15 to 20)
#    0.000    2.250    1.250    3.000    0.000    8.250 
#    0.000    2.500    0.000    0.000    0.000    0.000 
#    0.000    0.000    0.000    0.000    0.000    0.000 
#
# Total GULP energy -356546.816268 kJ/mol
# GULP energy per Si atom -5571.044004 kJ/mol
# Density = 1.573413 g / cm^3
# Si number density = 15.770020 Si / 1000 Ang^3
#
#
#
# Elastic Constant Matrix: (Units=GPa)
#
#
# Indices 1 2 3 4 5 6 
#
# 1 44.3273 3.8137 8.5240 0.0000 0.0000 0.0000
# 2 3.8137 44.3273 8.5240 0.0000 0.0000 0.0000
# 3 8.5240 8.5240 75.2168 0.0000 0.0000 0.0000
# 4 0.0000 0.0000 0.0000 16.2452 0.0000 0.0000
# 5 0.0000 0.0000 0.0000 0.0000 16.2452 0.0000
# 6 0.0000 0.0000 0.0000 0.0000 0.0000 -1.0289
#
#
#
# Elastic Compliance Matrix: (Units=1/GPa)
#
#
# Indices 1 2 3 4 5 6 
#
# 1 0.023162 -0.001521 -0.002452 0.000000 0.000000 0.000000
# 2 -0.001521 0.023162 -0.002452 0.000000 0.000000 0.000000
# 3 -0.002452 -0.002452 0.013851 0.000000 0.000000 0.000000
# 4 0.000000 0.000000 0.000000 0.061557 0.000000 0.000000
# 5 0.000000 0.000000 0.000000 0.000000 0.061557 0.000000
# 6 0.000000 0.000000 0.000000 0.000000 0.000000 -0.971889
#
#
# Mechanical properties :
#
#
# Convention : Reuss Voigt Hill
#
# Bulk Modulus (GPa) = 21.13158 22.84385 21.98772
# Shear Modulus (GPa) = -6.57917 15.82627 4.62355
#
# Velocity S-wave (km/s) = -2.04475 3.17135 1.71413
# Velocity P-wave (km/s) = 2.80255 5.28460 4.22973
#
# Compressibility (1/GPa) = 0.04732253
#
# Stress axis : x y z
#
# Youngs Moduli (GPa) = 43.17432 43.17432 72.19825
#
# Poissons Ratio (x) = 0.06567 0.17706
# Poissons Ratio (y) = 0.06567 0.17706
# Poissons Ratio (z) = 0.10588 0.10588
#
# Static dielectric constant tensor:
#      x y z
#    x 1.514370 0.000000 0.000000 
#    y 0.000000 1.514370 0.000000 
#    z 0.000000 0.000000 1.604490 
# 
# From -- ./inp_files/3832.got.cif
#   From: 2010.05.17/outbox.cif.g08.bks.cpg/sg131_2_cif.got.tgz:3832.got - 2010.05.20 12:21:01.
