data_PCOD9566937
_publ_section_title
;
Structure prediction by ZEFSAII (Michael W. Deem and Ramdas Pophale) SiO2 
 PCOD9566937
Probable space group: P 42/M C M
;
_chemical_formula_sum "Si O2"
_cell_formula_units_Z 96
_cell_length_a 18.306008
_cell_length_b 18.306008
_cell_length_c 19.612940
_cell_angle_alpha 90.000000
_cell_angle_beta 90.000000
_cell_angle_gamma 90.000000
_cell_volume 6572.490929
_symmetry_space_group_name_H-M "P 42/M C M"
_symmetry_group_IT_number 132
_symmetry_cell_setting 'tetragonal'
loop_
_space_group_symop_operation_xyz
x,y,z
-y,x,1/2+z
-x,-y,z
y,-x,1/2+z
x,-y,1/2-z
-x,y,1/2-z
y,x,-z
-y,-x,-z
-x,-y,-z
y,-x,1/2-z
x,y,-z
-y,x,1/2-z
-x,y,1/2+z
x,-y,1/2+z
-y,-x,z
y,x,z
loop_
_atom_site_type_symbol
_atom_site_label
_atom_site_fract_x
_atom_site_fract_y
_atom_site_fract_z
Si Si1 0.087262 0.517786 0.422842
Si Si2 0.642305 0.921872 0.824869
Si Si3 0.856821 0.736149 0.576692
Si Si4 0.138294 0.980282 0.078124
Si Si5 0.188638 0.071545 0.798778
Si Si6 0.903069 0.387417 0.175996
O O1 0.114756 0.509737 0.500000
O O2 0.101769 0.598045 0.391875
O O3 0.114193 0.458863 0.367920
O O4 0.000000 0.500000 0.425395
O O5 0.728105 0.906481 0.815578
O O6 0.605824 0.889553 0.756357
O O7 0.631262 0.009969 0.826288
O O8 0.862340 0.703015 0.500000
O O9 0.783268 0.783268 0.580406
O O10 0.922767 0.794532 0.582040
O O11 0.864306 0.679022 0.637194
O O12 0.065740 0.934261 0.094653
O O13 0.154192 0.042460 0.131376
O O14 0.133302 0.004886 0.000000
O O15 0.137375 0.137375 0.771504
O O16 0.189943 0.000000 0.750000
#
# Coordination Sequence:
#
# PCOD9566937 Si02
#       6
#    16  16  16  16  16  16
#     4   9  18  29  46  68  85 105 134 173 221 275
#     4  10  19  31  43  63  84 111 138 181 226 271
#     4   9  16  26  44  66  87 112 142 179 224 273
#     4   9  18  32  46  58  75 103 140 186 235 274
#     4  12  23  35  47  62  82 113 152 190 236 273
#     4  10  16  29  46  63  87 111 138 173 221 270
#
# _framework density 14.606334
#
# number of rings (size 3 to 8) (size 9 to 14) (size 15 to 20)
#    0.000    2.167    3.333    2.500    0.000    6.833 
#    0.000    0.833    0.000    0.000    0.000    0.000 
#    0.000    0.000    0.000    0.000    0.000    0.833 
#
# Total GULP energy -534876.949954 kJ/mol
# GULP energy per Si atom -5571.634895 kJ/mol
# Density = 1.457309 g / cm^3
# Si number density = 14.606334 Si / 1000 Ang^3
#
#
#
# Elastic Constant Matrix: (Units=GPa)
#
#
# Indices 1 2 3 4 5 6 
#
# 1 39.5182 32.8603 29.5521 0.0000 0.0000 0.0000
# 2 32.8603 39.5182 29.5521 0.0000 0.0000 0.0000
# 3 29.5521 29.5521 90.0060 0.0000 0.0000 0.0000
# 4 0.0000 0.0000 0.0000 13.8566 0.0000 0.0000
# 5 0.0000 0.0000 0.0000 0.0000 13.8566 0.0000
# 6 0.0000 0.0000 0.0000 0.0000 0.0000 4.6188
#
#
#
# Elastic Compliance Matrix: (Units=1/GPa)
#
#
# Indices 1 2 3 4 5 6 
#
# 1 0.084538 -0.065660 -0.006198 0.000000 0.000000 0.000000
# 2 -0.065660 0.084538 -0.006198 0.000000 0.000000 0.000000
# 3 -0.006198 -0.006198 0.015181 0.000000 0.000000 0.000000
# 4 0.000000 0.000000 0.000000 0.072168 0.000000 0.000000
# 5 0.000000 0.000000 0.000000 0.000000 0.072168 0.000000
# 6 0.000000 0.000000 0.000000 0.000000 0.000000 0.216508
#
#
# Mechanical properties :
#
#
# Convention : Reuss Voigt Hill
#
# Bulk Modulus (GPa) = 35.53266 39.21905 37.37585
# Shear Modulus (GPa) = 7.03638 11.60491 9.32065
#
# Velocity S-wave (km/s) = 2.19723 2.82177 2.52885
# Velocity P-wave (km/s) = 5.55129 6.12581 5.84561
#
# Compressibility (1/GPa) = 0.02814312
#
# Stress axis : x y z
#
# Youngs Moduli (GPa) = 11.82906 11.82906 65.87382
#
# Poissons Ratio (x) = 0.77669 0.40830
# Poissons Ratio (y) = 0.77669 0.40830
# Poissons Ratio (z) = 0.07332 0.07332
#
# Static dielectric constant tensor:
#      x y z
#    x 1.487470 0.000000 0.000000 
#    y 0.000000 1.487470 0.000000 
#    z 0.000000 0.000000 1.522810 
# 
# From -- ./inp_files/6450.got.cif
#   From: 2010.05.17/outbox.cif.g08.bks.cpg/sg132_4_cif.got.tgz:6450.got - 2010.05.20 12:30:18.
