data_PCOD9566021
_publ_section_title
;
Structure prediction by ZEFSAII (Michael W. Deem and Ramdas Pophale) SiO2 
 PCOD9566021
Probable space group: P 4/N C C
;
_chemical_formula_sum "Si O2"
_cell_formula_units_Z 96
_cell_length_a 24.000000
_cell_length_b 24.000000
_cell_length_c 9.000000
_cell_angle_alpha 90.000000
_cell_angle_beta 90.000000
_cell_angle_gamma 90.000000
_cell_volume 5184.000000
_symmetry_space_group_name_H-M "P 4/N C C"
_symmetry_group_IT_number 130
_symmetry_cell_setting 'tetragonal'
loop_
_space_group_symop_operation_xyz
x,y,z
1/2-y,x,z
1/2-x,1/2-y,z
y,1/2-x,z
1/2+x,-y,1/2-z
-x,1/2+y,1/2-z
1/2+y,1/2+x,1/2-z
-y,-x,1/2-z
-x,-y,-z
1/2+y,-x,-z
1/2+x,1/2+y,-z
-y,1/2+x,-z
1/2-x,y,1/2+z
x,1/2-y,1/2+z
1/2-y,1/2-x,1/2+z
y,x,1/2+z
loop_
_atom_site_type_symbol
_atom_site_label
_atom_site_fract_x
_atom_site_fract_y
_atom_site_fract_z
Si Si1 0.103977 0.310871 0.878442
Si Si2 0.104709 0.309181 0.236061
Si Si3 0.474291 0.688673 0.619111
Si Si4 0.371265 0.628736 0.750000
Si Si5 0.128648 0.871353 0.250000
Si Si6 0.190239 0.684204 0.003511
Si Si7 0.191918 0.975728 0.237214
O O1 0.117755 0.251164 0.805644
O O2 0.144321 0.356473 0.808095
O O3 0.038905 0.323414 0.843104
O O4 0.110338 0.308135 0.057124
O O5 0.039898 0.320065 0.274177
O O6 0.430644 0.642333 0.676401
O O7 0.472053 0.694417 0.441333
O O8 0.460240 0.748667 0.691156
O O9 0.359920 0.677103 0.870218
O O10 0.145899 0.829209 0.378801
O O11 0.144035 0.933853 0.292513
O O12 0.181270 0.747269 0.057550
#
# Coordination Sequence:
#
# PCOD9566021 Si02
#       7
#    16  16  16   8   8  16  16
#     4  10  21  40  64  93 122 152 188 232 286 345
#     4  10  21  40  64  93 122 152 188 232 286 345
#     4  10  22  38  58  82 113 154 199 242 289 345
#     4  12  22  35  53  78 112 152 198 242 296 347
#     4  12  22  35  53  78 112 152 198 242 296 347
#     4  11  22  34  50  74 107 146 192 250 305 352
#     4  10  22  38  58  82 113 154 199 242 289 345
#
# _framework density 18.518519000000001
#
# number of rings (size 3 to 8) (size 9 to 14) (size 15 to 20)
#    0.000    1.500    1.667    4.000    2.333    3.000 
#    0.000    2.500    0.000    4.000    0.000    0.000 
#    0.000    0.000    0.000    0.000    0.000    0.000 
#
# Total GULP energy -535779.131202 kJ/mol
# GULP energy per Si atom -5581.032617 kJ/mol
# Density = 1.847637 g / cm^3
# Si number density = 18.518519 Si / 1000 Ang^3
#
#
#
# Elastic Constant Matrix: (Units=GPa)
#
#
# Indices 1 2 3 4 5 6 
#
# 1 109.2664 83.3749 21.4642 0.0000 0.0000 0.0000
# 2 83.3749 109.2675 21.4634 0.0000 0.0000 0.0000
# 3 21.4642 21.4634 21.7899 0.0000 0.0000 0.0000
# 4 0.0000 0.0000 0.0000 24.1489 0.0000 0.0000
# 5 0.0000 0.0000 0.0000 0.0000 24.1487 0.0000
# 6 0.0000 0.0000 0.0000 0.0000 0.0000 34.9645
#
#
#
# Elastic Compliance Matrix: (Units=1/GPa)
#
#
# Indices 1 2 3 4 5 6 
#
# 1 0.022637 -0.015986 -0.006552 0.000000 0.000000 0.000000
# 2 -0.015986 0.022636 -0.006550 0.000000 0.000000 0.000000
# 3 -0.006552 -0.006550 0.058799 0.000000 0.000000 0.000000
# 4 0.000000 0.000000 0.000000 0.041410 0.000000 0.000000
# 5 0.000000 0.000000 0.000000 0.000000 0.041410 0.000000
# 6 0.000000 0.000000 0.000000 0.000000 0.000000 0.028600
#
#
# Mechanical properties :
#
#
# Convention : Reuss Voigt Hill
#
# Bulk Modulus (GPa) = 21.78852 54.76987 38.27919
# Shear Modulus (GPa) = 17.30301 24.25384 20.77842
#
# Velocity S-wave (km/s) = 3.06005 3.62291 3.35331
# Velocity P-wave (km/s) = 4.92712 6.86590 5.97567
#
# Compressibility (1/GPa) = 0.04589573
#
# Stress axis : x y z
#
# Youngs Moduli (GPa) = 44.17602 44.17739 17.00703
#
# Poissons Ratio (x) = 0.70620 0.11144
# Poissons Ratio (y) = 0.70618 0.11140
# Poissons Ratio (z) = 0.28946 0.28937
#
# Static dielectric constant tensor:
#      x y z
#    x 1.632610 0.000000 0.000000 
#    y 0.000000 1.632600 0.000000 
#    z 0.000000 0.000000 1.701300 
# 
# From -- ./inp_files/897.got.cif
#   From: 2010.05.17/outbox.ucp.g08.bks.cvg/sg130_1_cif.got.tgz:897.got - 2010.06.11 11:38:29.
