data_PCOD9566508
_publ_section_title
;
Structure prediction by ZEFSAII (Michael W. Deem and Ramdas Pophale) SiO2 
 PCOD9566508
Probable space group: P 42/M M C
;
_chemical_formula_sum "Si O2"
_cell_formula_units_Z 104
_cell_length_a 17.942602
_cell_length_b 17.942602
_cell_length_c 17.540055
_cell_angle_alpha 90.000000
_cell_angle_beta 90.000000
_cell_angle_gamma 90.000000
_cell_volume 5646.792099
_symmetry_space_group_name_H-M "P 42/M M C"
_symmetry_group_IT_number 131
_symmetry_cell_setting 'tetragonal'
loop_
_space_group_symop_operation_xyz
x,y,z
-x,-y,z
-y,x,1/2+z
y,-x,1/2+z
-x,y,-z
x,-y,-z
y,x,1/2-z
-y,-x,1/2-z
-x,-y,-z
x,y,-z
y,-x,1/2-z
-y,x,1/2-z
x,-y,z
-x,y,z
-y,-x,1/2+z
y,x,1/2+z
loop_
_atom_site_type_symbol
_atom_site_label
_atom_site_fract_x
_atom_site_fract_y
_atom_site_fract_z
Si Si1 0.736707 0.177920 0.085734
Si Si2 0.914253 0.208868 0.731937
Si Si3 0.580798 0.260596 0.887103
Si Si4 0.580900 0.368471 0.418289
Si Si5 0.419435 0.243982 0.709675
Si Si6 0.302467 0.855082 0.634075
Si Si7 0.089432 0.412136 0.000000
O O1 0.750899 0.122962 0.157629
O O2 0.654141 0.214689 0.090109
O O3 0.798296 0.243617 0.095541
O O4 0.745354 0.145660 0.000000
O O5 0.862846 0.137155 0.750000
O O6 0.910176 0.257883 0.809858
O O7 0.000000 0.190949 0.715535
O O8 0.500000 0.226825 0.907349
O O9 0.584408 0.344682 0.917064
O O10 0.583458 0.269099 0.796112
O O11 0.581745 0.326893 0.500000
O O12 0.500000 0.407032 0.413414
O O13 0.584994 0.311551 0.349082
O O14 0.500000 0.206318 0.697052
O O15 0.350820 0.192304 0.693125
O O16 0.361936 0.885576 0.572719
O O17 0.115902 0.500000 0.000000
O O18 0.000000 0.415301 0.000000
#
# Coordination Sequence:
#
# PCOD9566508 Si02
#       7
#    16  16  16  16  16  16   8
#     4  11  22  38  62  90 120 159 207 253 296 349
#     4  10  23  42  69  97 124 157 192 237 293 360
#     4  11  22  36  54  78 112 157 211 264 308 346
#     4  10  21  33  48  74 109 149 196 254 318 367
#     4  10  20  33  53  78 108 149 197 250 296 349
#     4  11  20  38  61  88 122 157 202 240 294 355
#     4  11  24  38  58  92 130 162 194 241 306 376
#
# _framework density 18.417536999999999
#
# number of rings (size 3 to 8) (size 9 to 14) (size 15 to 20)
#    0.000    1.462    3.846    1.846    1.077    2.000 
#    0.000    0.769    0.000    4.154    0.000    3.231 
#    0.000    0.000    0.000    0.000    0.000    0.000 
#
# Total GULP energy -579563.813907 kJ/mol
# GULP energy per Si atom -5572.728980 kJ/mol
# Density = 1.837562 g / cm^3
# Si number density = 18.417537 Si / 1000 Ang^3
#
#
#
# Elastic Constant Matrix: (Units=GPa)
#
#
# Indices 1 2 3 4 5 6 
#
# 1 95.0071 36.9032 39.7383 0.0000 0.0000 0.0000
# 2 36.9032 95.0060 39.7384 0.0000 0.0000 0.0000
# 3 39.7383 39.7384 138.5415 0.0000 0.0000 0.0000
# 4 0.0000 0.0000 0.0000 75.4097 0.0000 0.0000
# 5 0.0000 0.0000 0.0000 0.0000 75.4229 0.0000
# 6 0.0000 0.0000 0.0000 0.0000 0.0000 8.1415
#
#
#
# Elastic Compliance Matrix: (Units=1/GPa)
#
#
# Indices 1 2 3 4 5 6 
#
# 1 0.013188 -0.004023 -0.002629 0.000000 0.000000 0.000000
# 2 -0.004023 0.013188 -0.002629 0.000000 0.000000 0.000000
# 3 -0.002629 -0.002629 0.008726 0.000000 0.000000 0.000000
# 4 0.000000 0.000000 0.000000 0.013261 0.000000 0.000000
# 5 0.000000 0.000000 0.000000 0.000000 0.013259 0.000000
# 6 0.000000 0.000000 0.000000 0.000000 0.000000 0.122827
#
#
# Mechanical properties :
#
#
# Convention : Reuss Voigt Hill
#
# Bulk Modulus (GPa) = 60.45729 62.36826 61.41278
# Shear Modulus (GPa) = 23.97823 45.93979 34.95901
#
# Velocity S-wave (km/s) = 3.61213 4.99977 4.36149
# Velocity P-wave (km/s) = 7.09182 8.20166 7.66685
#
# Compressibility (1/GPa) = 0.01654060
#
# Stress axis : x y z
#
# Youngs Moduli (GPa) = 75.82841 75.82736 114.59876
#
# Poissons Ratio (x) = 0.30505 0.30125
# Poissons Ratio (y) = 0.30505 0.30126
# Poissons Ratio (z) = 0.19933 0.19934
#
# Static dielectric constant tensor:
#      x y z
#    x 1.643000 0.000000 0.000000 
#    y 0.000000 1.643000 0.000000 
#    z 0.000000 0.000000 1.676180 
# 
# From -- ./inp_files/8099.got.cif
#   From: 2010.05.17/outbox.cif.g08.bks.cpg/sg131_5_cif.got.tgz:8099.got - 2010.05.20 12:21:01.
