data_PCOD9566259
_publ_section_title
;
Structure prediction by ZEFSAII (Michael W. Deem and Ramdas Pophale) SiO2 
 PCOD9566259
Probable space group: P 42/M M C
;
_chemical_formula_sum "Si O2"
_cell_formula_units_Z 72
_cell_length_a 16.555936
_cell_length_b 16.555936
_cell_length_c 17.644506
_cell_angle_alpha 90.000000
_cell_angle_beta 90.000000
_cell_angle_gamma 90.000000
_cell_volume 4836.341747
_symmetry_space_group_name_H-M "P 42/M M C"
_symmetry_group_IT_number 131
_symmetry_cell_setting 'tetragonal'
loop_
_space_group_symop_operation_xyz
x,y,z
-x,-y,z
-y,x,1/2+z
y,-x,1/2+z
-x,y,-z
x,-y,-z
y,x,1/2-z
-y,-x,1/2-z
-x,-y,-z
x,y,-z
y,-x,1/2-z
-y,x,1/2-z
x,-y,z
-x,y,z
-y,-x,1/2+z
y,x,1/2+z
loop_
_atom_site_type_symbol
_atom_site_label
_atom_site_fract_x
_atom_site_fract_y
_atom_site_fract_z
Si Si1 0.092445 0.000000 0.092063
Si Si2 0.902139 0.500000 0.911266
Si Si3 0.832688 0.822954 0.408951
Si Si4 0.902336 0.500000 0.413720
Si Si5 0.672299 0.095379 0.657484
Si Si6 0.904462 0.668075 0.338665
O O1 0.131448 0.915240 0.116752
O O2 0.000000 0.000000 0.115544
O O3 0.096800 0.000000 0.000000
O O4 0.875701 0.415182 0.873553
O O5 0.000000 0.500000 0.904546
O O6 0.881329 0.500000 0.000000
O O7 0.829361 0.826063 0.500000
O O8 0.750412 0.860279 0.376469
O O9 0.848843 0.733260 0.379382
O O10 0.872079 0.500000 0.500000
O O11 0.880699 0.580199 0.368601
O O12 0.000000 0.500000 0.417373
O O13 0.672963 0.102505 0.748292
O O14 0.679326 0.000000 0.638037
O O15 0.000000 0.681899 0.358271
#
# Coordination Sequence:
#
# PCOD9566259 Si02
#       6
#     8   8  16   8  16  16
#     4   9  18  30  44  61  85 121 165 205 239 271
#     4   9  17  31  49  69  89 114 153 200 243 289
#     4  11  20  31  47  66  92 125 163 204 239 280
#     4   9  17  29  49  71  89 116 153 192 239 297
#     4  10  20  32  48  67  93 124 159 198 247 293
#     4  10  19  32  47  66  95 122 155 194 245 291
#
# _framework density 14.887286
#
# number of rings (size 3 to 8) (size 9 to 14) (size 15 to 20)
#    0.000    2.111    1.111    3.333    0.000    5.778 
#    0.000    0.000    0.000    0.000    0.000    0.000 
#    0.000    0.889    0.000    8.889    0.000    5.333 
#
# Total GULP energy -401371.650856 kJ/mol
# GULP energy per Si atom -5574.606262 kJ/mol
# Density = 1.485340 g / cm^3
# Si number density = 14.887286 Si / 1000 Ang^3
#
#
#
# Elastic Constant Matrix: (Units=GPa)
#
#
# Indices 1 2 3 4 5 6 
#
# 1 112.4959 65.4826 44.8922 0.0000 0.0000 0.0000
# 2 65.4826 112.4959 44.8922 0.0000 0.0000 0.0000
# 3 44.8922 44.8922 61.5433 0.0000 0.0000 0.0000
# 4 0.0000 0.0000 0.0000 23.4116 0.0000 0.0000
# 5 0.0000 0.0000 0.0000 0.0000 23.4116 0.0000
# 6 0.0000 0.0000 0.0000 0.0000 0.0000 8.6767
#
#
#
# Elastic Compliance Matrix: (Units=1/GPa)
#
#
# Indices 1 2 3 4 5 6 
#
# 1 0.015080 -0.006190 -0.006485 0.000000 0.000000 0.000000
# 2 -0.006190 0.015080 -0.006485 0.000000 0.000000 0.000000
# 3 -0.006485 -0.006485 0.025709 0.000000 0.000000 0.000000
# 4 0.000000 0.000000 0.000000 0.042714 0.000000 0.000000
# 5 0.000000 0.000000 0.000000 0.000000 0.042714 0.000000
# 6 0.000000 0.000000 0.000000 0.000000 0.000000 0.115252
#
#
# Mechanical properties :
#
#
# Convention : Reuss Voigt Hill
#
# Bulk Modulus (GPa) = 56.97925 66.34103 61.66014
# Shear Modulus (GPa) = 16.62682 19.85116 18.23899
#
# Velocity S-wave (km/s) = 3.34555 3.65558 3.50400
# Velocity P-wave (km/s) = 7.29935 7.90422 7.60780
#
# Compressibility (1/GPa) = 0.01755025
#
# Stress axis : x y z
#
# Youngs Moduli (GPa) = 66.31171 66.31171 38.89663
#
# Poissons Ratio (x) = 0.41049 0.25223
# Poissons Ratio (y) = 0.41049 0.25223
# Poissons Ratio (z) = 0.43001 0.43001
#
# Static dielectric constant tensor:
#      x y z
#    x 1.492710 0.000000 0.000000 
#    y 0.000000 1.492710 0.000000 
#    z 0.000000 0.000000 1.496790 
# 
# From -- ./inp_files/7656.got.cif
#   From: 2010.05.17/outbox.cif.g08.bks.cpg/sg131_4_cif.got.tgz:7656.got - 2010.05.20 12:21:01.
