data_PCOD9566272
_publ_section_title
;
Structure prediction by ZEFSAII (Michael W. Deem and Ramdas Pophale) SiO2 
 PCOD9566272
Probable space group: P 42/M M C
;
_chemical_formula_sum "Si O2"
_cell_formula_units_Z 104
_cell_length_a 28.361463
_cell_length_b 28.361463
_cell_length_c 8.599184
_cell_angle_alpha 90.000000
_cell_angle_beta 90.000000
_cell_angle_gamma 90.000000
_cell_volume 6916.947850
_symmetry_space_group_name_H-M "P 42/M M C"
_symmetry_group_IT_number 131
_symmetry_cell_setting 'tetragonal'
loop_
_space_group_symop_operation_xyz
x,y,z
-x,-y,z
-y,x,1/2+z
y,-x,1/2+z
-x,y,-z
x,-y,-z
y,x,1/2-z
-y,-x,1/2-z
-x,-y,-z
x,y,-z
y,-x,1/2-z
-y,x,1/2-z
x,-y,z
-x,y,z
-y,-x,1/2+z
y,x,1/2+z
loop_
_atom_site_type_symbol
_atom_site_label
_atom_site_fract_x
_atom_site_fract_y
_atom_site_fract_z
Si Si1 0.218533 0.101137 0.312329
Si Si2 0.053747 0.123487 0.187416
Si Si3 0.897920 0.445170 0.185710
Si Si4 0.852670 0.357914 0.686294
Si Si5 0.197606 0.269706 0.186471
Si Si6 0.306569 0.051554 0.812633
Si Si7 0.000000 0.557169 0.323904
O O1 0.219776 0.100683 0.500000
O O2 0.166601 0.086940 0.259170
O O3 0.237965 0.152278 0.261165
O O4 0.254427 0.061949 0.249346
O O5 0.075462 0.075462 0.250000
O O6 0.000000 0.131089 0.237542
O O7 0.054524 0.123050 0.000000
O O8 0.891210 0.500000 0.231007
O O9 0.857870 0.411222 0.254964
O O10 0.950351 0.430670 0.244658
O O11 0.897518 0.442102 0.000000
O O12 0.850204 0.356992 0.500000
O O13 0.813437 0.322466 0.753263
O O14 0.902992 0.335830 0.739484
O O15 0.244148 0.244148 0.250000
O O16 0.198635 0.270095 0.000000
O O17 0.323411 0.000000 0.760685
O O18 0.306425 0.052051 0.000000
O O19 0.000000 0.500000 0.328942
O O20 0.000000 0.576030 0.500000
#
# Coordination Sequence:
#
# PCOD9566272 Si02
#       7
#    16  16  16  16  16  16   8
#     4   9  18  32  49  67  84 103 127 156 192 240
#     4  10  21  35  49  64  80  97 119 147 180 223
#     4  10  20  33  47  65  90 118 152 193 231 267
#     4  10  20  32  47  66  89 117 150 182 219 265
#     4  10  19  32  50  70  92 114 139 171 212 259
#     4   9  18  30  43  62  87 111 134 166 204 244
#     4   9  17  29  45  63  83 113 151 187 225 267
#
# _framework density 15.035534
#
# number of rings (size 3 to 8) (size 9 to 14) (size 15 to 20)
#    0.000    2.385    0.000    2.538    1.077    5.077 
#    0.000    0.769    0.000    0.000    0.000    0.000 
#    0.000    0.000    0.000    0.000    0.000    0.000 
#
# Total GULP energy -580079.247928 kJ/mol
# GULP energy per Si atom -5577.685076 kJ/mol
# Density = 1.500131 g / cm^3
# Si number density = 15.035534 Si / 1000 Ang^3
#
#
#
# Elastic Constant Matrix: (Units=GPa)
#
#
# Indices 1 2 3 4 5 6 
#
# 1 70.4443 38.5217 22.7993 0.0000 0.0000 0.0000
# 2 38.5217 70.4443 22.7993 0.0000 0.0000 0.0000
# 3 22.7993 22.7993 26.3884 0.0000 0.0000 0.0000
# 4 0.0000 0.0000 0.0000 19.0828 0.0000 0.0000
# 5 0.0000 0.0000 0.0000 0.0000 19.0828 0.0000
# 6 0.0000 0.0000 0.0000 0.0000 0.0000 22.0745
#
#
#
# Elastic Compliance Matrix: (Units=1/GPa)
#
#
# Indices 1 2 3 4 5 6 
#
# 1 0.022850 -0.008476 -0.012419 0.000000 0.000000 0.000000
# 2 -0.008476 0.022850 -0.012419 0.000000 0.000000 0.000000
# 3 -0.012419 -0.012419 0.059355 0.000000 0.000000 0.000000
# 4 0.000000 0.000000 0.000000 0.052403 0.000000 0.000000
# 5 0.000000 0.000000 0.000000 0.000000 0.052403 0.000000
# 6 0.000000 0.000000 0.000000 0.000000 0.000000 0.045301
#
#
# Mechanical properties :
#
#
# Convention : Reuss Voigt Hill
#
# Bulk Modulus (GPa) = 26.02320 37.27974 31.65147
# Shear Modulus (GPa) = 14.94322 17.59181 16.26752
#
# Velocity S-wave (km/s) = 3.15598 3.42426 3.29285
# Velocity P-wave (km/s) = 5.53404 6.36257 5.96272
#
# Compressibility (1/GPa) = 0.03842725
#
# Stress axis : x y z
#
# Youngs Moduli (GPa) = 43.76381 43.76381 16.84766
#
# Poissons Ratio (x) = 0.37093 0.20923
# Poissons Ratio (y) = 0.37093 0.20923
# Poissons Ratio (z) = 0.54351 0.54351
#
# Static dielectric constant tensor:
#      x y z
#    x 1.514210 0.000000 0.000000 
#    y 0.000000 1.514210 0.000000 
#    z 0.000000 0.000000 1.508510 
# 
# From -- ./inp_files/2571.got.cif
#   From: 2010.05.17/outbox.cif.g08.bks.cpg/sg131_2_cif.got.tgz:2571.got - 2010.05.20 12:21:01.
