data_PCOD9566025
_publ_section_title
;
Structure prediction by ZEFSAII (Michael W. Deem and Ramdas Pophale) SiO2 
 PCOD9566025
Probable space group: P 4/N C C
;
_chemical_formula_sum "Si O2"
_cell_formula_units_Z 112
_cell_length_a 15.000000
_cell_length_b 15.000000
_cell_length_c 27.000000
_cell_angle_alpha 90.000000
_cell_angle_beta 90.000000
_cell_angle_gamma 90.000000
_cell_volume 6075.000000
_symmetry_space_group_name_H-M "P 4/N C C"
_symmetry_group_IT_number 130
_symmetry_cell_setting 'tetragonal'
loop_
_space_group_symop_operation_xyz
x,y,z
1/2-y,x,z
1/2-x,1/2-y,z
y,1/2-x,z
1/2+x,-y,1/2-z
-x,1/2+y,1/2-z
1/2+y,1/2+x,1/2-z
-y,-x,1/2-z
-x,-y,-z
1/2+y,-x,-z
1/2+x,1/2+y,-z
-y,1/2+x,-z
1/2-x,y,1/2+z
x,1/2-y,1/2+z
1/2-y,1/2-x,1/2+z
y,x,1/2+z
loop_
_atom_site_type_symbol
_atom_site_label
_atom_site_fract_x
_atom_site_fract_y
_atom_site_fract_z
Si Si1 0.689234 0.493289 0.255940
Si Si2 0.205005 0.651939 0.440680
Si Si3 0.612079 0.982915 0.280200
Si Si4 0.604072 0.379187 0.338658
Si Si5 0.972432 0.554267 0.889347
Si Si6 0.551384 0.374041 0.974608
Si Si7 0.835964 0.874977 0.464584
O O1 0.607756 0.559623 0.267182
O O2 0.787654 0.528824 0.262396
O O3 0.675012 0.421459 0.300243
O O4 0.675709 0.455929 0.200380
O O5 0.250000 0.750000 0.448851
O O6 0.171928 0.648099 0.384256
O O7 0.123814 0.627470 0.479273
O O8 0.281998 0.578646 0.448112
O O9 0.608304 0.998658 0.339663
O O10 0.561262 0.061262 0.250000
O O11 0.546181 0.456228 0.366365
O O12 0.879534 0.589942 0.913097
O O13 0.045323 0.558856 0.934271
O O14 0.450888 0.369275 0.996546
O O15 0.727832 0.870104 0.468800
#
# Coordination Sequence:
#
# PCOD9566025 Si02
#       7
#    16  16  16  16  16  16  16
#     4  10  23  45  69  95 138 168 220 280 330 396
#     4  12  25  40  63 100 135 169 221 267 329 403
#     4  11  24  44  68 100 132 173 221 274 335 398
#     4  10  23  43  64  99 131 173 220 276 326 397
#     4  11  24  41  70  93 129 180 218 268 335 386
#     4  12  24  42  65  94 134 176 213 274 329 387
#     4  11  26  43  64  94 130 172 225 272 319 390
#
# _framework density 18.436214
#
# number of rings (size 3 to 8) (size 9 to 14) (size 15 to 20)
#    0.000    1.000    5.714    1.286   10.000    0.286 
#    0.000    1.429    0.000    0.000    0.000    0.000 
#    0.000    0.000    0.000    0.000    0.000    0.000 
#
# Total GULP energy -624641.447330 kJ/mol
# GULP energy per Si atom -5577.155780 kJ/mol
# Density = 1.839425 g / cm^3
# Si number density = 18.436214 Si / 1000 Ang^3
#
#
#
# Elastic Constant Matrix: (Units=GPa)
#
#
# Indices 1 2 3 4 5 6 
#
# 1 90.2491 18.0294 52.6519 0.0000 0.0000 0.0000
# 2 18.0294 90.2491 52.6519 0.0000 0.0000 0.0000
# 3 52.6519 52.6519 159.1489 0.0000 0.0000 0.0000
# 4 0.0000 0.0000 0.0000 32.8510 0.0000 0.0000
# 5 0.0000 0.0000 0.0000 0.0000 32.8510 0.0000
# 6 0.0000 0.0000 0.0000 0.0000 0.0000 14.6786
#
#
#
# Elastic Compliance Matrix: (Units=1/GPa)
#
#
# Indices 1 2 3 4 5 6 
#
# 1 0.013732 -0.000115 -0.004505 0.000000 0.000000 0.000000
# 2 -0.000115 0.013732 -0.004505 0.000000 0.000000 0.000000
# 3 -0.004505 -0.004505 0.009264 0.000000 0.000000 0.000000
# 4 0.000000 0.000000 0.000000 0.030440 0.000000 0.000000
# 5 0.000000 0.000000 0.000000 0.000000 0.030440 0.000000
# 6 0.000000 0.000000 0.000000 0.000000 0.000000 0.068126
#
#
# Mechanical properties :
#
#
# Convention : Reuss Voigt Hill
#
# Bulk Modulus (GPa) = 54.11874 65.14595 59.63235
# Shear Modulus (GPa) = 26.29597 30.49706 28.39651
#
# Velocity S-wave (km/s) = 3.78076 4.07159 3.92887
# Velocity P-wave (km/s) = 6.96256 7.58395 7.27989
#
# Compressibility (1/GPa) = 0.01847789
#
# Stress axis : x y z
#
# Youngs Moduli (GPa) = 72.82491 72.82491 107.94340
#
# Poissons Ratio (x) = 0.00838 0.48626
# Poissons Ratio (y) = 0.00838 0.48626
# Poissons Ratio (z) = 0.32806 0.32806
#
# Static dielectric constant tensor:
#      x y z
#    x 1.657540 0.000000 0.000000 
#    y 0.000000 1.657540 0.000000 
#    z 0.000000 0.000000 1.639000 
# 
# From -- ./inp_files/4601.got.cif
#   From: 2010.05.17/outbox.ucp.g08.bks.cvg/sg130_3_cif.got.tgz:4601.got - 2010.06.11 11:38:29.
