data_PCOD9566902
_publ_section_title
;
Structure prediction by ZEFSAII (Michael W. Deem and Ramdas Pophale) SiO2 
 PCOD9566902
Probable space group: P 42/M M C
;
_chemical_formula_sum "Si O2"
_cell_formula_units_Z 48
_cell_length_a 13.171744
_cell_length_b 13.171744
_cell_length_c 16.558578
_cell_angle_alpha 90.000000
_cell_angle_beta 90.000000
_cell_angle_gamma 90.000000
_cell_volume 2872.827841
_symmetry_space_group_name_H-M "P 42/M M C"
_symmetry_group_IT_number 131
_symmetry_cell_setting 'tetragonal'
loop_
_space_group_symop_operation_xyz
x,y,z
-x,-y,z
-y,x,1/2+z
y,-x,1/2+z
-x,y,-z
x,-y,-z
y,x,1/2-z
-y,-x,1/2-z
-x,-y,-z
x,y,-z
y,-x,1/2-z
-y,x,1/2-z
x,-y,z
-x,y,z
-y,-x,1/2+z
y,x,1/2+z
loop_
_atom_site_type_symbol
_atom_site_label
_atom_site_fract_x
_atom_site_fract_y
_atom_site_fract_z
Si Si1 0.883617 0.803578 0.833671
Si Si2 0.384269 0.780557 0.746706
Si Si3 0.878909 0.316130 0.409892
O O1 0.865521 0.865521 0.750000
O O2 0.849754 0.689196 0.809082
O O3 0.801272 0.847111 0.895621
O O4 0.000000 0.809028 0.858558
O O5 0.328217 0.671784 0.750000
O O6 0.500000 0.776777 0.720200
O O7 0.375745 0.826798 0.836763
O O8 0.849584 0.348874 0.500000
O O9 0.000000 0.324915 0.402031
#
# Coordination Sequence:
#
# PCOD9566902 Si02
#       3
#    16  16  16
#     4   9  17  28  43  64  91 123 156 188 219 256
#     4   9  18  32  49  68  89 114 148 191 232 269
#     4   9  18  30  44  68  99 124 147 178 218 264
#
# _framework density 16.708276999999999
#
# number of rings (size 3 to 8) (size 9 to 14) (size 15 to 20)
#    0.000    3.667    0.000    4.000    0.000    6.667 
#    0.000    3.333    0.000   16.000    0.000   18.667 
#    0.000    0.000    0.000    0.000    0.000    0.000 
#
# Total GULP energy -267315.830970 kJ/mol
# GULP energy per Si atom -5569.079812 kJ/mol
# Density = 1.667025 g / cm^3
# Si number density = 16.708277 Si / 1000 Ang^3
#
#
#
# Elastic Constant Matrix: (Units=GPa)
#
#
# Indices 1 2 3 4 5 6 
#
# 1 61.2752 10.3905 -4.4694 0.0000 0.0000 0.0000
# 2 10.3905 61.2792 -4.4691 0.0000 0.0000 0.0000
# 3 -4.4694 -4.4691 51.3724 0.0000 0.0000 0.0000
# 4 0.0000 0.0000 0.0000 1.0186 0.0000 0.0000
# 5 0.0000 0.0000 0.0000 0.0000 1.0184 0.0000
# 6 0.0000 0.0000 0.0000 0.0000 0.0000 -0.6209
#
#
#
# Elastic Compliance Matrix: (Units=1/GPa)
#
#
# Indices 1 2 3 4 5 6 
#
# 1 0.016879 -0.002773 0.001227 0.000000 0.000000 0.000000
# 2 -0.002773 0.016878 0.001227 0.000000 0.000000 0.000000
# 3 0.001227 0.001227 0.019679 0.000000 0.000000 0.000000
# 4 0.000000 0.000000 0.000000 0.981736 0.000000 0.000000
# 5 0.000000 0.000000 0.000000 0.000000 0.981901 0.000000
# 6 0.000000 0.000000 0.000000 0.000000 0.000000 -1.610516
#
#
# Mechanical properties :
#
#
# Convention : Reuss Voigt Hill
#
# Bulk Modulus (GPa) = 18.93911 19.64786 19.29349
# Shear Modulus (GPa) = 11.77038 11.78154 11.77596
#
# Velocity S-wave (km/s) = 2.65705 2.65831 2.65768
# Velocity P-wave (km/s) = 4.55774 4.60511 4.58149
#
# Compressibility (1/GPa) = 0.05280078
#
# Stress axis : x y z
#
# Youngs Moduli (GPa) = 59.24349 59.24745 50.81502
#
# Poissons Ratio (x) = 0.16427 -0.06237
# Poissons Ratio (y) = 0.16426 -0.06236
# Poissons Ratio (z) = -0.07271 -0.07270
#
# Static dielectric constant tensor:
#      x y z
#    x 1.562500 0.000000 0.000000 
#    y 0.000000 1.562490 0.000000 
#    z 0.000000 0.000000 2.232940 
# 
# From -- ./inp_files/5111.got.cif
#   From: 2010.05.17/outbox.cif.g08.bks.cpg/sg131_3_cif.got.tgz:5111.got - 2010.05.20 12:21:01.
