data_PCOD9566138
_publ_section_title
;
Structure prediction by ZEFSAII (Michael W. Deem and Ramdas Pophale) SiO2 
 PCOD9566138
Probable space group: P 42/M M C
;
_chemical_formula_sum "Si O2"
_cell_formula_units_Z 88
_cell_length_a 11.925689
_cell_length_b 11.925689
_cell_length_c 33.372646
_cell_angle_alpha 90.000000
_cell_angle_beta 90.000000
_cell_angle_gamma 90.000000
_cell_volume 4746.326399
_symmetry_space_group_name_H-M "P 42/M M C"
_symmetry_group_IT_number 131
_symmetry_cell_setting 'tetragonal'
loop_
_space_group_symop_operation_xyz
x,y,z
-x,-y,z
-y,x,1/2+z
y,-x,1/2+z
-x,y,-z
x,-y,-z
y,x,1/2-z
-y,-x,1/2-z
-x,-y,-z
x,y,-z
y,-x,1/2-z
-y,x,1/2-z
x,-y,z
-x,y,z
-y,-x,1/2+z
y,x,1/2+z
loop_
_atom_site_type_symbol
_atom_site_label
_atom_site_fract_x
_atom_site_fract_y
_atom_site_fract_z
Si Si1 0.302703 0.739360 0.906955
Si Si2 0.873279 0.311772 0.753970
Si Si3 0.636900 0.500000 0.121188
Si Si4 0.873442 0.865662 0.546755
Si Si5 0.136482 0.500000 0.179111
Si Si6 0.867407 0.500000 0.452240
Si Si7 0.874458 0.371786 0.663359
O O1 0.342811 0.612064 0.904464
O O2 0.186678 0.774106 0.927334
O O3 0.392033 0.811052 0.932262
O O4 0.302831 0.784499 0.861333
O O5 0.788149 0.211852 0.750000
O O6 0.853282 0.393455 0.791235
O O7 0.862654 0.372709 0.711041
O O8 0.000000 0.270203 0.757269
O O9 0.500000 0.500000 0.134541
O O10 0.749407 0.500000 0.151197
O O11 0.861592 0.833339 0.500000
O O12 0.000000 0.829320 0.559579
O O13 0.871044 0.000000 0.548822
O O14 0.000000 0.500000 0.164863
O O15 0.849969 0.500000 0.500000
O O16 0.000000 0.500000 0.444587
O O17 0.864353 0.500000 0.649499
O O18 0.000000 0.331119 0.654123
#
# Coordination Sequence:
#
# PCOD9566138 Si02
#       7
#    16  16   8  16   8   8  16
#     4  12  22  37  59  84 124 159 199 246 311 369
#     4  10  20  36  58  85 116 155 199 252 309 371
#     4  12  26  44  59  86 133 176 213 264 317 371
#     4   9  19  38  64  93 123 155 200 262 320 373
#     4  10  22  43  68  86 115 165 227 269 312 377
#     4  11  22  36  60  90 115 147 195 245 302 373
#     4  10  18  32  56  83 109 142 189 245 308 363
#
# _framework density 18.540654
#
# number of rings (size 3 to 8) (size 9 to 14) (size 15 to 20)
#    0.000    1.545    2.727    3.818    0.000    2.364 
#    1.636    3.182    0.000    2.182    0.000    0.000 
#    0.000    0.000    0.000    0.000    0.000    0.000 
#
# Total GULP energy -490191.590058 kJ/mol
# GULP energy per Si atom -5570.358978 kJ/mol
# Density = 1.849846 g / cm^3
# Si number density = 18.540654 Si / 1000 Ang^3
#
#
#
# Elastic Constant Matrix: (Units=GPa)
#
#
# Indices 1 2 3 4 5 6 
#
# 1 106.0405 51.8432 35.9410 0.0000 0.0000 0.0000
# 2 51.8432 106.0393 35.9375 0.0000 0.0000 0.0000
# 3 35.9410 35.9375 57.6746 0.0000 0.0000 0.0000
# 4 0.0000 0.0000 0.0000 25.3374 0.0000 0.0000
# 5 0.0000 0.0000 0.0000 0.0000 25.3401 0.0000
# 6 0.0000 0.0000 0.0000 0.0000 0.0000 23.8373
#
#
#
# Elastic Compliance Matrix: (Units=1/GPa)
#
#
# Indices 1 2 3 4 5 6 
#
# 1 0.013647 -0.004805 -0.005511 0.000000 0.000000 0.000000
# 2 -0.004805 0.013647 -0.005509 0.000000 0.000000 0.000000
# 3 -0.005511 -0.005509 0.024206 0.000000 0.000000 0.000000
# 4 0.000000 0.000000 0.000000 0.039467 0.000000 0.000000
# 5 0.000000 0.000000 0.000000 0.000000 0.039463 0.000000
# 6 0.000000 0.000000 0.000000 0.000000 0.000000 0.041951
#
#
# Mechanical properties :
#
#
# Convention : Reuss Voigt Hill
#
# Bulk Modulus (GPa) = 50.37705 57.46642 53.92174
# Shear Modulus (GPa) = 23.73645 24.63847 24.18746
#
# Velocity S-wave (km/s) = 3.58192 3.64935 3.61579
# Velocity P-wave (km/s) = 6.65860 6.98707 6.82481
#
# Compressibility (1/GPa) = 0.01985031
#
# Stress axis : x y z
#
# Youngs Moduli (GPa) = 73.27585 73.27858 41.31272
#
# Poissons Ratio (x) = 0.35207 0.22766
# Poissons Ratio (y) = 0.35205 0.22760
# Poissons Ratio (z) = 0.40380 0.40371
#
# Static dielectric constant tensor:
#      x y z
#    x 1.702860 0.000000 0.000000 
#    y 0.000000 1.702870 0.000000 
#    z 0.000000 0.000000 1.653620 
# 
# From -- ./inp_files/13594.got.cif
#   From: 2010.05.17/outbox.cif.g08.bks.cpg/sg131_7_cif.got.tgz:13594.got - 2010.05.20 12:21:01.
