data_PCOD9566220
_publ_section_title
;
Structure prediction by ZEFSAII (Michael W. Deem and Ramdas Pophale) SiO2 
 PCOD9566220
Probable space group: P 42/M M C
;
_chemical_formula_sum "Si O2"
_cell_formula_units_Z 104
_cell_length_a 28.985417
_cell_length_b 28.985417
_cell_length_c 7.971280
_cell_angle_alpha 90.000000
_cell_angle_beta 90.000000
_cell_angle_gamma 90.000000
_cell_volume 6697.105955
_symmetry_space_group_name_H-M "P 42/M M C"
_symmetry_group_IT_number 131
_symmetry_cell_setting 'tetragonal'
loop_
_space_group_symop_operation_xyz
x,y,z
-x,-y,z
-y,x,1/2+z
y,-x,1/2+z
-x,y,-z
x,-y,-z
y,x,1/2-z
-y,-x,1/2-z
-x,-y,-z
x,y,-z
y,-x,1/2-z
-y,x,1/2-z
x,-y,z
-x,y,z
-y,-x,1/2+z
y,x,1/2+z
loop_
_atom_site_type_symbol
_atom_site_label
_atom_site_fract_x
_atom_site_fract_y
_atom_site_fract_z
Si Si1 0.191932 0.264577 0.800207
Si Si2 0.096672 0.780102 0.796904
Si Si3 0.116933 0.553369 0.190869
Si Si4 0.949179 0.555223 0.500000
Si Si5 0.052410 0.874713 0.202157
Si Si6 0.852493 0.643079 0.700126
Si Si7 0.051016 0.687163 0.701210
O O1 0.238232 0.238232 0.750000
O O2 0.147435 0.235324 0.736215
O O3 0.183713 0.316641 0.738944
O O4 0.189389 0.265366 0.000000
O O5 0.080682 0.830027 0.736444
O O6 0.060970 0.740685 0.741017
O O7 0.097486 0.780391 0.000000
O O8 0.131347 0.500000 0.220576
O O9 0.078793 0.565501 0.331359
O O10 0.154801 0.593084 0.218015
O O11 0.099534 0.555700 0.000000
O O12 0.953543 0.500000 0.500000
O O13 0.000000 0.576324 0.500000
O O14 0.079471 0.920530 0.250000
O O15 0.000000 0.873739 0.264233
O O16 0.051084 0.871815 0.000000
O O17 0.854670 0.637764 0.500000
O O18 0.902779 0.661453 0.764755
O O19 0.050995 0.681163 0.500000
O O20 0.000000 0.673713 0.764759
#
# Coordination Sequence:
#
# PCOD9566220 Si02
#       7
#    16  16  16   8  16  16  16
#     4  10  19  31  48  70  94 117 144 176 217 267
#     4   9  18  32  49  66  84 105 130 161 197 245
#     4  10  20  34  51  70  92 121 160 201 240 281
#     4   9  18  32  48  66  90 120 154 196 242 282
#     4  10  21  35  49  64  80  98 121 150 186 231
#     4  10  19  32  48  68  92 122 152 187 230 274
#     4   9  18  30  44  64  88 112 138 170 208 254
#
# _framework density 15.529095
#
# number of rings (size 3 to 8) (size 9 to 14) (size 15 to 20)
#    0.000    2.385    0.769    1.846    0.000    4.154 
#    0.000    2.308    0.000    0.000    0.000    0.000 
#    0.000    0.000    0.000    0.000    0.000    0.000 
#
# Total GULP energy -580017.583707 kJ/mol
# GULP energy per Si atom -5577.092151 kJ/mol
# Density = 1.549375 g / cm^3
# Si number density = 15.529095 Si / 1000 Ang^3
#
#
#
# Elastic Constant Matrix: (Units=GPa)
#
#
# Indices 1 2 3 4 5 6 
#
# 1 79.4272 39.8572 19.1180 0.0000 0.0000 0.0000
# 2 39.8572 79.4176 19.1185 0.0000 0.0000 0.0000
# 3 19.1180 19.1185 48.7386 0.0000 0.0000 0.0000
# 4 0.0000 0.0000 0.0000 17.6458 0.0000 0.0000
# 5 0.0000 0.0000 0.0000 0.0000 17.6460 0.0000
# 6 0.0000 0.0000 0.0000 0.0000 0.0000 9.1043
#
#
#
# Elastic Compliance Matrix: (Units=1/GPa)
#
#
# Indices 1 2 3 4 5 6 
#
# 1 0.017431 -0.007843 -0.003761 0.000000 0.000000 0.000000
# 2 -0.007843 0.017433 -0.003762 0.000000 0.000000 0.000000
# 3 -0.003761 -0.003762 0.023469 0.000000 0.000000 0.000000
# 4 0.000000 0.000000 0.000000 0.056671 0.000000 0.000000
# 5 0.000000 0.000000 0.000000 0.000000 0.056670 0.000000
# 6 0.000000 0.000000 0.000000 0.000000 0.000000 0.109838
#
#
# Mechanical properties :
#
#
# Convention : Reuss Voigt Hill
#
# Bulk Modulus (GPa) = 36.23019 40.41899 38.32459
# Shear Modulus (GPa) = 15.55482 17.51188 16.53335
#
# Velocity S-wave (km/s) = 3.16833 3.36174 3.26647
# Velocity P-wave (km/s) = 6.06346 6.41505 6.24173
#
# Compressibility (1/GPa) = 0.02760129
#
# Stress axis : x y z
#
# Youngs Moduli (GPa) = 57.36940 57.36144 42.61005
#
# Poissons Ratio (x) = 0.44986 0.16026
# Poissons Ratio (y) = 0.44993 0.16031
# Poissons Ratio (z) = 0.21577 0.21580
#
# Static dielectric constant tensor:
#      x y z
#    x 1.532340 0.000000 0.000000 
#    y 0.000000 1.532340 0.000000 
#    z 0.000000 0.000000 1.550130 
# 
# From -- ./inp_files/2573.got.cif
#   From: 2010.05.17/outbox.cif.g08.bks.cpg/sg131_2_cif.got.tgz:2573.got - 2010.05.20 12:21:01.
