data_PCOD9566997
_publ_section_title
;
Structure prediction by ZEFSAII (Michael W. Deem and Ramdas Pophale) SiO2 
 PCOD9566997
Probable space group: P 42/M C M
;
_chemical_formula_sum "Si O2"
_cell_formula_units_Z 72
_cell_length_a 14.171645
_cell_length_b 14.171645
_cell_length_c 17.632098
_cell_angle_alpha 90.000000
_cell_angle_beta 90.000000
_cell_angle_gamma 90.000000
_cell_volume 3541.151606
_symmetry_space_group_name_H-M "P 42/M C M"
_symmetry_group_IT_number 132
_symmetry_cell_setting 'tetragonal'
loop_
_space_group_symop_operation_xyz
x,y,z
-y,x,1/2+z
-x,-y,z
y,-x,1/2+z
x,-y,1/2-z
-x,y,1/2-z
y,x,-z
-y,-x,-z
-x,-y,-z
y,-x,1/2-z
x,y,-z
-y,x,1/2-z
-x,y,1/2+z
x,-y,1/2+z
-y,-x,z
y,x,z
loop_
_atom_site_type_symbol
_atom_site_label
_atom_site_fract_x
_atom_site_fract_y
_atom_site_fract_z
Si Si1 0.808848 0.339378 0.381833
Si Si2 0.534741 0.106602 0.914142
Si Si3 0.951001 0.791054 0.824590
Si Si4 0.919099 0.919099 0.583833
Si Si5 0.242059 0.603767 0.215507
O O1 0.716748 0.283253 0.408661
O O2 0.829828 0.439799 0.416182
O O3 0.899936 0.274225 0.386188
O O4 0.800807 0.348603 0.290497
O O5 0.593826 0.162712 0.849965
O O6 0.500000 0.000000 0.892636
O O7 0.574560 0.102059 0.000000
O O8 0.873729 0.873729 0.804368
O O9 0.000000 0.748240 0.750000
O O10 0.036403 0.836518 0.869046
O O11 0.891351 0.891351 0.500000
O O12 0.000000 0.000000 0.579484
O O13 0.269316 0.500000 0.250000
O O14 0.332290 0.667711 0.192196
#
# Coordination Sequence:
#
# PCOD9566997 Si02
#       5
#    16  16  16   8  16
#     4   9  20  35  56  81 104 143 192 238 280 343
#     4  10  22  38  57  84 119 158 196 240 298 363
#     4  10  18  29  48  71  97 135 183 232 278 326
#     4   9  18  30  44  66 100 138 176 224 283 332
#     4   9  19  37  61  89 117 147 192 247 305 364
#
# _framework density 20.332367000000001
#
# number of rings (size 3 to 8) (size 9 to 14) (size 15 to 20)
#    0.000    2.556    1.111    0.000    3.111    5.111 
#    0.000    2.222    0.000    0.000    0.000    6.222 
#    0.000    0.000    0.000    0.000    0.000    0.000 
#
# Total GULP energy -400979.414734 kJ/mol
# GULP energy per Si atom -5569.158538 kJ/mol
# Density = 2.028609 g / cm^3
# Si number density = 20.332367 Si / 1000 Ang^3
#
#
#
# Elastic Constant Matrix: (Units=GPa)
#
#
# Indices 1 2 3 4 5 6 
#
# 1 48.1516 19.9454 15.1213 0.0000 0.0000 0.0000
# 2 19.9454 48.1516 15.1213 0.0000 0.0000 0.0000
# 3 15.1213 15.1213 94.0976 0.0000 0.0000 0.0000
# 4 0.0000 0.0000 0.0000 -2.7941 0.0000 0.0000
# 5 0.0000 0.0000 0.0000 0.0000 -2.7941 0.0000
# 6 0.0000 0.0000 0.0000 0.0000 0.0000 27.3112
#
#
#
# Elastic Compliance Matrix: (Units=1/GPa)
#
#
# Indices 1 2 3 4 5 6 
#
# 1 0.025633 -0.009820 -0.002541 0.000000 0.000000 0.000000
# 2 -0.009820 0.025633 -0.002541 0.000000 0.000000 0.000000
# 3 -0.002541 -0.002541 0.011444 0.000000 0.000000 0.000000
# 4 0.000000 0.000000 0.000000 -0.357899 0.000000 0.000000
# 5 0.000000 0.000000 0.000000 0.000000 -0.357899 0.000000
# 6 0.000000 0.000000 0.000000 0.000000 0.000000 0.036615
#
#
# Mechanical properties :
#
#
# Convention : Reuss Voigt Hill
#
# Bulk Modulus (GPa) = 30.38942 32.30856 31.34899
# Shear Modulus (GPa) = -8.68508 13.69213 2.50353
#
# Velocity S-wave (km/s) = -2.06902 2.59784 1.11084
# Velocity P-wave (km/s) = 3.04483 4.99230 4.13486
#
# Compressibility (1/GPa) = 0.03290619
#
# Stress axis : x y z
#
# Youngs Moduli (GPa) = 39.01169 39.01169 87.38201
#
# Poissons Ratio (x) = 0.38309 0.22206
# Poissons Ratio (y) = 0.38309 0.22206
# Poissons Ratio (z) = 0.09914 0.09914
#
# Static dielectric constant tensor:
#      x y z
#    x 1.768290 0.000000 0.000000 
#    y 0.000000 1.768290 0.000000 
#    z 0.000000 0.000000 1.885500 
# 
# From -- ./inp_files/6137.got.cif
#   From: 2010.05.17/outbox.cif.g08.bks.cpg/sg132_4_cif.got.tgz:6137.got - 2010.05.20 12:30:18.
