data_PCOD9566275
_publ_section_title
;
Structure prediction by ZEFSAII (Michael W. Deem and Ramdas Pophale) SiO2 
 PCOD9566275
Probable space group: P 42/M M C
;
_chemical_formula_sum "Si O2"
_cell_formula_units_Z 64
_cell_length_a 21.611188
_cell_length_b 21.611188
_cell_length_c 8.628613
_cell_angle_alpha 90.000000
_cell_angle_beta 90.000000
_cell_angle_gamma 90.000000
_cell_volume 4029.937156
_symmetry_space_group_name_H-M "P 42/M M C"
_symmetry_group_IT_number 131
_symmetry_cell_setting 'tetragonal'
loop_
_space_group_symop_operation_xyz
x,y,z
-x,-y,z
-y,x,1/2+z
y,-x,1/2+z
-x,y,-z
x,-y,-z
y,x,1/2-z
-y,-x,1/2-z
-x,-y,-z
x,y,-z
y,-x,1/2-z
-y,x,1/2-z
x,-y,z
-x,y,z
-y,-x,1/2+z
y,x,1/2+z
loop_
_atom_site_type_symbol
_atom_site_label
_atom_site_fract_x
_atom_site_fract_y
_atom_site_fract_z
Si Si1 0.000000 0.389625 0.312464
Si Si2 0.429629 0.141483 0.813628
Si Si3 0.745825 0.000000 0.317360
Si Si4 0.683003 0.222583 0.684343
Si Si5 0.128321 0.784325 0.316711
O O1 0.067644 0.419674 0.277202
O O2 0.000000 0.379035 0.500000
O O3 0.000000 0.326972 0.216109
O O4 0.500000 0.157118 0.769232
O O5 0.380749 0.190764 0.743952
O O6 0.423452 0.145451 0.000000
O O7 0.772158 0.059468 0.233293
O O8 0.758104 0.000000 0.500000
O O9 0.712808 0.287193 0.750000
O O10 0.680326 0.228271 0.500000
O O11 0.733152 0.171129 0.734666
O O12 0.150988 0.849013 0.250000
O O13 0.137221 0.779774 0.500000
#
# Coordination Sequence:
#
# PCOD9566275 Si02
#       5
#     8  16   8  16  16
#     4  10  19  32  50  72 102 142 179 212 249 299
#     4  10  20  34  52  75 106 143 179 213 256 309
#     4  12  22  33  51  76 102 131 167 212 257 307
#     4  11  21  34  52  74 101 133 172 218 260 303
#     4  11  21  35  53  74  98 128 165 212 262 311
#
# _framework density 15.881141
#
# number of rings (size 3 to 8) (size 9 to 14) (size 15 to 20)
#    0.000    1.250    2.500    7.500    0.000    2.000 
#    0.000    0.000    0.000    2.625    0.000    2.625 
#    0.000    0.500    0.000    5.250    0.000    2.250 
#
# Total GULP energy -356689.941590 kJ/mol
# GULP energy per Si atom -5573.280337 kJ/mol
# Density = 1.584499 g / cm^3
# Si number density = 15.881141 Si / 1000 Ang^3
#
#
#
# Elastic Constant Matrix: (Units=GPa)
#
#
# Indices 1 2 3 4 5 6 
#
# 1 102.7870 64.2557 39.3074 0.0000 0.0000 0.0000
# 2 64.2557 102.7771 39.3073 0.0000 0.0000 0.0000
# 3 39.3074 39.3073 76.0465 0.0000 0.0000 0.0000
# 4 0.0000 0.0000 0.0000 20.0753 0.0000 0.0000
# 5 0.0000 0.0000 0.0000 0.0000 20.0767 0.0000
# 6 0.0000 0.0000 0.0000 0.0000 0.0000 -42.7847
#
#
#
# Elastic Compliance Matrix: (Units=1/GPa)
#
#
# Indices 1 2 3 4 5 6 
#
# 1 0.016933 -0.009023 -0.004089 0.000000 0.000000 0.000000
# 2 -0.009023 0.016935 -0.004090 0.000000 0.000000 0.000000
# 3 -0.004089 -0.004090 0.017377 0.000000 0.000000 0.000000
# 4 0.000000 0.000000 0.000000 0.049813 0.000000 0.000000
# 5 0.000000 0.000000 0.000000 0.000000 0.049809 0.000000
# 6 0.000000 0.000000 0.000000 0.000000 0.000000 -0.023373
#
#
# Mechanical properties :
#
#
# Convention : Reuss Voigt Hill
#
# Bulk Modulus (GPa) = 59.37259 63.03905 61.20582
# Shear Modulus (GPa) = 29.84910 8.72281 19.28596
#
# Velocity S-wave (km/s) = 4.34006 2.34616 3.48860
# Velocity P-wave (km/s) = 7.91085 6.86438 7.40612
#
# Compressibility (1/GPa) = 0.01684279
#
# Stress axis : x y z
#
# Youngs Moduli (GPa) = 59.05725 59.05029 57.54691
#
# Poissons Ratio (x) = 0.53278 0.23529
# Poissons Ratio (y) = 0.53284 0.23535
# Poissons Ratio (z) = 0.24147 0.24150
#
# Static dielectric constant tensor:
#      x y z
#    x 1.540250 0.000000 0.000000 
#    y 0.000000 1.540260 0.000000 
#    z 0.000000 0.000000 1.530240 
# 
# From -- ./inp_files/1641.got.cif
#   From: 2010.05.17/outbox.cif.g08.bks.cpg/sg131_1_cif.got.tgz:1641.got - 2010.05.20 12:21:01.
