data_PCOD9566853
_publ_section_title
;
Structure prediction by ZEFSAII (Michael W. Deem and Ramdas Pophale) SiO2 
 PCOD9566853
Probable space group: P 42/M M C
;
_chemical_formula_sum "Si O2"
_cell_formula_units_Z 88
_cell_length_a 14.642988
_cell_length_b 14.642988
_cell_length_c 22.226787
_cell_angle_alpha 90.000000
_cell_angle_beta 90.000000
_cell_angle_gamma 90.000000
_cell_volume 4765.803157
_symmetry_space_group_name_H-M "P 42/M M C"
_symmetry_group_IT_number 131
_symmetry_cell_setting 'tetragonal'
loop_
_space_group_symop_operation_xyz
x,y,z
-x,-y,z
-y,x,1/2+z
y,-x,1/2+z
-x,y,-z
x,-y,-z
y,x,1/2-z
-y,-x,1/2-z
-x,-y,-z
x,y,-z
y,-x,1/2-z
-y,x,1/2-z
x,-y,z
-x,y,z
-y,-x,1/2+z
y,x,1/2+z
loop_
_atom_site_type_symbol
_atom_site_label
_atom_site_fract_x
_atom_site_fract_y
_atom_site_fract_z
Si Si1 0.766828 0.332261 0.829915
Si Si2 0.606465 0.393536 0.750000
Si Si3 0.000000 0.110402 0.427134
Si Si4 0.606173 0.899481 0.225835
Si Si5 0.391306 0.888938 0.000000
Si Si6 0.101548 0.391780 0.067034
Si Si7 0.732553 0.136682 0.884676
O O1 0.668457 0.366703 0.807326
O O2 0.828678 0.349069 0.771320
O O3 0.819583 0.379238 0.884654
O O4 0.760204 0.230362 0.853560
O O5 0.500000 0.378338 0.763036
O O6 0.083492 0.174184 0.402783
O O7 0.000000 0.113875 0.500000
O O8 0.000000 0.000000 0.411051
O O9 0.500000 0.874744 0.213399
O O10 0.666062 0.905354 0.165937
O O11 0.605195 0.000000 0.254633
O O12 0.333320 0.855519 0.942564
O O13 0.500000 0.864648 0.000000
O O14 0.386879 0.000000 0.000000
O O15 0.092422 0.500000 0.061554
O O16 0.000000 0.355762 0.084559
O O17 0.123122 0.354512 0.000000
#
# Coordination Sequence:
#
# PCOD9566853 Si02
#       7
#    16   8   8  16   8  16  16
#     4  12  24  37  62  90 128 159 208 262 315 379
#     4  11  24  42  62  86 123 174 220 258 319 398
#     4  11  24  44  66  90 136 188 221 252 307 391
#     4  11  22  39  66  94 125 159 203 274 338 379
#     4  11  22  40  68  96 125 158 207 285 342 379
#     4   9  19  37  61  89 120 153 196 251 311 371
#     4  12  22  40  61  95 127 165 218 262 312 399
#
# _framework density 18.464883
#
# number of rings (size 3 to 8) (size 9 to 14) (size 15 to 20)
#    0.000    1.000    4.545    3.273    1.273    5.091 
#    0.000    1.818    0.000    0.000    0.000    2.545 
#    0.000    0.000    0.000    0.000    0.000    0.000 
#
# Total GULP energy -490268.656820 kJ/mol
# GULP energy per Si atom -5571.234737 kJ/mol
# Density = 1.842286 g / cm^3
# Si number density = 18.464883 Si / 1000 Ang^3
#
#
#
# Elastic Constant Matrix: (Units=GPa)
#
#
# Indices 1 2 3 4 5 6 
#
# 1 140.4285 63.7591 65.9651 0.0000 0.0000 0.0000
# 2 63.7591 140.4301 65.9658 0.0000 0.0000 0.0000
# 3 65.9651 65.9658 123.2311 0.0000 0.0000 0.0000
# 4 0.0000 0.0000 0.0000 34.1654 0.0000 0.0000
# 5 0.0000 0.0000 0.0000 0.0000 34.1656 0.0000
# 6 0.0000 0.0000 0.0000 0.0000 0.0000 20.2798
#
#
#
# Elastic Compliance Matrix: (Units=1/GPa)
#
#
# Indices 1 2 3 4 5 6 
#
# 1 0.010265 -0.002778 -0.004008 0.000000 0.000000 0.000000
# 2 -0.002778 0.010265 -0.004008 0.000000 0.000000 0.000000
# 3 -0.004008 -0.004008 0.012406 0.000000 0.000000 0.000000
# 4 0.000000 0.000000 0.000000 0.029269 0.000000 0.000000
# 5 0.000000 0.000000 0.000000 0.000000 0.029269 0.000000
# 6 0.000000 0.000000 0.000000 0.000000 0.000000 0.049310
#
#
# Mechanical properties :
#
#
# Convention : Reuss Voigt Hill
#
# Bulk Modulus (GPa) = 88.11812 88.38551 88.25182
# Shear Modulus (GPa) = 30.09263 31.61549 30.85406
#
# Velocity S-wave (km/s) = 4.04136 4.14236 4.09217
# Velocity P-wave (km/s) = 8.34281 8.41722 8.38009
#
# Compressibility (1/GPa) = 0.01134840
#
# Stress axis : x y z
#
# Youngs Moduli (GPa) = 97.41890 97.41970 80.60926
#
# Poissons Ratio (x) = 0.27063 0.32306
# Poissons Ratio (y) = 0.27063 0.32306
# Poissons Ratio (z) = 0.39043 0.39043
#
# Static dielectric constant tensor:
#      x y z
#    x 1.679150 0.000000 0.000000 
#    y 0.000000 1.679150 0.000000 
#    z 0.000000 0.000000 1.633590 
# 
# From -- ./inp_files/9652.got.cif
#   From: 2010.05.17/outbox.cif.g08.bks.cpg/sg131_5_cif.got.tgz:9652.got - 2010.05.20 12:21:01.
