data_PCOD9566653
_publ_section_title
;
Structure prediction by ZEFSAII (Michael W. Deem and Ramdas Pophale) SiO2 
 PCOD9566653
Probable space group: P 42/M M C
;
_chemical_formula_sum "Si O2"
_cell_formula_units_Z 36
_cell_length_a 7.567449
_cell_length_b 7.567449
_cell_length_c 35.992229
_cell_angle_alpha 90.000000
_cell_angle_beta 90.000000
_cell_angle_gamma 90.000000
_cell_volume 2061.141221
_symmetry_space_group_name_H-M "P 42/M M C"
_symmetry_group_IT_number 131
_symmetry_cell_setting 'tetragonal'
loop_
_space_group_symop_operation_xyz
x,y,z
-x,-y,z
-y,x,1/2+z
y,-x,1/2+z
-x,y,-z
x,-y,-z
y,x,1/2-z
-y,-x,1/2-z
-x,-y,-z
x,y,-z
y,-x,1/2-z
-y,x,1/2-z
x,-y,z
-x,y,z
-y,-x,1/2+z
y,x,1/2+z
loop_
_atom_site_type_symbol
_atom_site_label
_atom_site_fract_x
_atom_site_fract_y
_atom_site_fract_z
Si Si1 0.000000 0.000000 0.250000
Si Si2 0.000000 0.703019 0.311864
Si Si3 0.500000 0.290307 0.066222
Si Si4 0.205826 0.293339 0.127933
Si Si5 0.500000 0.000000 0.000000
O O1 0.000000 0.168206 0.276969
O O2 0.831599 0.741040 0.338145
O O3 0.000000 0.500000 0.300409
O O4 0.500000 0.500000 0.055831
O O5 0.330405 0.258155 0.092702
O O6 0.500000 0.155964 0.032414
O O7 0.228693 0.500000 0.137706
O O8 0.000000 0.262824 0.119034
#
# Coordination Sequence:
#
# PCOD9566653 Si02
#       5
#     2   8   8  16   2
#     4  12  28  40  52  92 132 158 188 240 308 372
#     4  12  23  39  61  86 118 156 194 241 299 359
#     4  10  21  37  59  92 119 159 206 251 297 358
#     4  10  20  38  66  90 113 151 207 253 293 349
#     4  12  22  36  58  82 136 170 190 248 310 362
#
# _framework density 17.466052000000001
#
# number of rings (size 3 to 8) (size 9 to 14) (size 15 to 20)
#    0.000    1.333    4.444    1.667    0.000    1.778 
#    0.000    2.222    0.000    5.333    0.000    0.000 
#    0.000    0.000    0.000    0.000    0.000    0.000 
#
# Total GULP energy -200557.236223 kJ/mol
# GULP energy per Si atom -5571.034340 kJ/mol
# Density = 1.742630 g / cm^3
# Si number density = 17.466052 Si / 1000 Ang^3
#
#
#
# Elastic Constant Matrix: (Units=GPa)
#
#
# Indices 1 2 3 4 5 6 
#
# 1 143.2737 71.8612 99.5942 0.0000 0.0000 0.0000
# 2 71.8612 143.2737 99.5942 0.0000 0.0000 0.0000
# 3 99.5942 99.5942 165.7858 0.0000 0.0000 0.0000
# 4 0.0000 0.0000 0.0000 -3.7221 0.0000 0.0000
# 5 0.0000 0.0000 0.0000 0.0000 -3.7221 0.0000
# 6 0.0000 0.0000 0.0000 0.0000 0.0000 19.2677
#
#
#
# Elastic Compliance Matrix: (Units=1/GPa)
#
#
# Indices 1 2 3 4 5 6 
#
# 1 0.012239 -0.001765 -0.006292 0.000000 0.000000 0.000000
# 2 -0.001765 0.012239 -0.006292 0.000000 0.000000 0.000000
# 3 -0.006292 -0.006292 0.013592 0.000000 0.000000 0.000000
# 4 0.000000 0.000000 0.000000 -0.268665 0.000000 0.000000
# 5 0.000000 0.000000 0.000000 0.000000 -0.268665 0.000000
# 6 0.000000 0.000000 0.000000 0.000000 0.000000 0.051900
#
#
# Mechanical properties :
#
#
# Convention : Reuss Voigt Hill
#
# Bulk Modulus (GPa) = 106.71024 110.49246 108.60135
# Shear Modulus (GPa) = -12.03256 14.45027 1.20886
#
# Velocity S-wave (km/s) = -2.62756 2.87946 0.83284
# Velocity P-wave (km/s) = 7.21270 8.62865 7.95225
#
# Compressibility (1/GPa) = 0.00937117
#
# Stress axis : x y z
#
# Youngs Moduli (GPa) = 81.70885 81.70885 73.57393
#
# Poissons Ratio (x) = 0.14418 0.46294
# Poissons Ratio (y) = 0.14418 0.46294
# Poissons Ratio (z) = 0.51412 0.51412
#
# Static dielectric constant tensor:
#      x y z
#    x 1.604770 0.000000 0.000000 
#    y 0.000000 1.604770 0.000000 
#    z 0.000000 0.000000 1.532860 
# 
# From -- ./inp_files/12652.got.cif
#   From: 2010.05.17/outbox.cif.g08.bks.cpg/sg131_7_cif.got.tgz:12652.got - 2010.05.20 12:21:01.
