data_PCOD9566231
_publ_section_title
;
Structure prediction by ZEFSAII (Michael W. Deem and Ramdas Pophale) SiO2 
 PCOD9566231
Probable space group: P 42/M M C
;
_chemical_formula_sum "Si O2"
_cell_formula_units_Z 104
_cell_length_a 25.087487
_cell_length_b 25.087487
_cell_length_c 9.516254
_cell_angle_alpha 90.000000
_cell_angle_beta 90.000000
_cell_angle_gamma 90.000000
_cell_volume 5989.359013
_symmetry_space_group_name_H-M "P 42/M M C"
_symmetry_group_IT_number 131
_symmetry_cell_setting 'tetragonal'
loop_
_space_group_symop_operation_xyz
x,y,z
-x,-y,z
-y,x,1/2+z
y,-x,1/2+z
-x,y,-z
x,-y,-z
y,x,1/2-z
-y,-x,1/2-z
-x,-y,-z
x,y,-z
y,-x,1/2-z
-y,x,1/2-z
x,-y,z
-x,y,z
-y,-x,1/2+z
y,x,1/2+z
loop_
_atom_site_type_symbol
_atom_site_label
_atom_site_fract_x
_atom_site_fract_y
_atom_site_fract_z
Si Si1 0.742626 0.939130 0.663069
Si Si2 0.899820 0.435341 0.159117
Si Si3 0.000000 0.434515 0.661250
Si Si4 0.830813 0.751239 0.331114
Si Si5 0.794920 0.561620 0.334194
Si Si6 0.941949 0.870771 0.839040
Si Si7 0.737398 0.334849 0.663652
O O1 0.725462 0.929878 0.500000
O O2 0.733778 0.887547 0.762400
O O3 0.807060 0.941373 0.661693
O O4 0.724752 0.000000 0.703723
O O5 0.904486 0.500000 0.152683
O O6 0.948487 0.416124 0.253661
O O7 0.845273 0.424515 0.238599
O O8 0.901592 0.415224 0.000000
O O9 0.000000 0.500000 0.660063
O O10 0.000000 0.417410 0.500000
O O11 0.800985 0.800985 0.250000
O O12 0.835977 0.762451 0.500000
O O13 0.789947 0.701749 0.313338
O O14 0.809195 0.567190 0.500000
O O15 0.780589 0.500000 0.310745
O O16 0.749978 0.604288 0.301747
O O17 0.895194 0.895194 0.750000
O O18 0.000000 0.888319 0.784558
O O19 0.936917 0.888158 0.000000
O O20 0.690185 0.309816 0.750000
O O21 0.725045 0.330895 0.500000
#
# Coordination Sequence:
#
# PCOD9566231 Si02
#       7
#    16  16   8  16  16  16  16
#     4   9  18  32  48  66  89 115 146 189 240 291
#     4   9  16  25  39  62  91 122 159 206 254 296
#     4   9  15  23  37  57  83 119 163 207 251 299
#     4  10  19  31  49  72  96 122 156 196 240 291
#     4   9  17  31  51  73  99 132 169 205 244 296
#     4   9  18  30  41  55  76 101 130 167 211 262
#     4   9  19  34  52  76 104 133 166 203 246 292
#
# _framework density 17.364128000000001
#
# number of rings (size 3 to 8) (size 9 to 14) (size 15 to 20)
#    0.000    2.846    0.000    2.538    0.000    6.615 
#    0.000    2.308    1.692    0.000    0.000    0.000 
#    0.000    0.308    0.000    3.846    0.000    0.000 
#
# Total GULP energy -579507.845799 kJ/mol
# GULP energy per Si atom -5572.190825 kJ/mol
# Density = 1.732461 g / cm^3
# Si number density = 17.364128 Si / 1000 Ang^3
#
#
#
# Elastic Constant Matrix: (Units=GPa)
#
#
# Indices 1 2 3 4 5 6 
#
# 1 64.8193 36.4277 53.0773 0.0000 0.0000 0.0000
# 2 36.4277 64.8135 53.0813 0.0000 0.0000 0.0000
# 3 53.0773 53.0813 87.0401 0.0000 0.0000 0.0000
# 4 0.0000 0.0000 0.0000 19.6886 0.0000 0.0000
# 5 0.0000 0.0000 0.0000 0.0000 19.6871 0.0000
# 6 0.0000 0.0000 0.0000 0.0000 0.0000 11.9902
#
#
#
# Elastic Compliance Matrix: (Units=1/GPa)
#
#
# Indices 1 2 3 4 5 6 
#
# 1 0.031304 -0.003916 -0.016701 0.000000 0.000000 0.000000
# 2 -0.003916 0.031314 -0.016709 0.000000 0.000000 0.000000
# 3 -0.016701 -0.016709 0.031863 0.000000 0.000000 0.000000
# 4 0.000000 0.000000 0.000000 0.050791 0.000000 0.000000
# 5 0.000000 0.000000 0.000000 0.000000 0.050795 0.000000
# 6 0.000000 0.000000 0.000000 0.000000 0.000000 0.083401
#
#
# Mechanical properties :
#
#
# Convention : Reuss Voigt Hill
#
# Bulk Modulus (GPa) = 50.43040 55.76061 53.09550
# Shear Modulus (GPa) = 13.86078 15.21228 14.53653
#
# Velocity S-wave (km/s) = 2.82838 2.96307 2.89651
# Velocity P-wave (km/s) = 6.30652 6.62485 6.46764
#
# Compressibility (1/GPa) = 0.01982931
#
# Stress axis : x y z
#
# Youngs Moduli (GPa) = 31.94490 31.93436 31.38425
#
# Poissons Ratio (x) = 0.12506 0.52415
# Poissons Ratio (y) = 0.12510 0.52439
# Poissons Ratio (z) = 0.53351 0.53359
#
# Static dielectric constant tensor:
#      x y z
#    x 1.601060 0.000000 0.000000 
#    y 0.000000 1.601060 0.000000 
#    z 0.000000 0.000000 1.598980 
# 
# From -- ./inp_files/2557.got.cif
#   From: 2010.05.17/outbox.cif.g08.bks.cpg/sg131_2_cif.got.tgz:2557.got - 2010.05.20 12:21:01.
