data_PCOD9566797
_publ_section_title
;
Structure prediction by ZEFSAII (Michael W. Deem and Ramdas Pophale) SiO2 
 PCOD9566797
Probable space group: P 42/M M C
;
_chemical_formula_sum "Si O2"
_cell_formula_units_Z 34
_cell_length_a 7.597778
_cell_length_b 7.597778
_cell_length_c 28.977975
_cell_angle_alpha 90.000000
_cell_angle_beta 90.000000
_cell_angle_gamma 90.000000
_cell_volume 1672.789265
_symmetry_space_group_name_H-M "P 42/M M C"
_symmetry_group_IT_number 131
_symmetry_cell_setting 'tetragonal'
loop_
_space_group_symop_operation_xyz
x,y,z
-x,-y,z
-y,x,1/2+z
y,-x,1/2+z
-x,y,-z
x,-y,-z
y,x,1/2-z
-y,-x,1/2-z
-x,-y,-z
x,y,-z
y,-x,1/2-z
-y,x,1/2-z
x,-y,z
-x,y,z
-y,-x,1/2+z
y,x,1/2+z
loop_
_atom_site_type_symbol
_atom_site_label
_atom_site_fract_x
_atom_site_fract_y
_atom_site_fract_z
Si Si1 0.208775 0.199723 0.600767
Si Si2 0.500000 0.500000 0.750000
Si Si3 0.214925 0.500000 0.671414
Si Si4 0.200916 0.290841 0.000000
O O1 0.268014 0.330500 0.640666
O O2 0.238180 0.276565 0.549394
O O3 0.000000 0.185842 0.606372
O O4 0.283036 0.000000 0.602602
O O5 0.326606 0.500000 0.717916
O O6 0.000000 0.500000 0.677594
O O7 0.193918 0.500000 0.000000
O O8 0.000000 0.218104 0.000000
#
# Coordination Sequence:
#
# PCOD9566797 Si02
#       4
#    16   2   8   8
#     4   9  18  35  58  83 117 156 189 228 277 334
#     4  12  28  44  64  86 108 144 188 252 312 346
#     4  10  24  43  61  87 113 144 195 241 293 354
#     4   9  17  28  49  86 123 156 191 223 265 326
#
# _framework density 20.325334999999999
#
# number of rings (size 3 to 8) (size 9 to 14) (size 15 to 20)
#    0.000    2.588    0.000    0.706    3.294    5.647 
#    0.000    4.706    0.000    0.000    0.000    0.000 
#    0.000    0.000    0.000    0.000    0.000    0.000 
#
# Total GULP energy -189593.727746 kJ/mol
# GULP energy per Si atom -5576.286110 kJ/mol
# Density = 2.027907 g / cm^3
# Si number density = 20.325335 Si / 1000 Ang^3
#
#
#
# Elastic Constant Matrix: (Units=GPa)
#
#
# Indices 1 2 3 4 5 6 
#
# 1 81.8315 28.8314 59.9231 0.0000 0.0000 0.0000
# 2 28.8314 81.8315 59.9231 0.0000 0.0000 0.0000
# 3 59.9231 59.9231 186.2301 0.0000 0.0000 0.0000
# 4 0.0000 0.0000 0.0000 86.1806 0.0000 0.0000
# 5 0.0000 0.0000 0.0000 0.0000 86.1806 0.0000
# 6 0.0000 0.0000 0.0000 0.0000 0.0000 7.1976
#
#
#
# Elastic Compliance Matrix: (Units=1/GPa)
#
#
# Indices 1 2 3 4 5 6 
#
# 1 0.016369 -0.002499 -0.004463 0.000000 0.000000 0.000000
# 2 -0.002499 0.016369 -0.004463 0.000000 0.000000 0.000000
# 3 -0.004463 -0.004463 0.008242 0.000000 0.000000 0.000000
# 4 0.000000 0.000000 0.000000 0.011604 0.000000 0.000000
# 5 0.000000 0.000000 0.000000 0.000000 0.011604 0.000000
# 6 0.000000 0.000000 0.000000 0.000000 0.000000 0.138936
#
#
# Mechanical properties :
#
#
# Convention : Reuss Voigt Hill
#
# Bulk Modulus (GPa) = 55.15823 71.91646 63.53735
# Shear Modulus (GPa) = 21.55036 49.32612 35.43824
#
# Velocity S-wave (km/s) = 3.25971 4.93163 4.18011
# Velocity P-wave (km/s) = 6.43150 8.23938 7.39093
#
# Compressibility (1/GPa) = 0.01812966
#
# Stress axis : x y z
#
# Youngs Moduli (GPa) = 61.09199 61.09199 121.33438
#
# Poissons Ratio (x) = 0.15268 0.54149
# Poissons Ratio (y) = 0.15268 0.54149
# Poissons Ratio (z) = 0.27264 0.27264
#
# Static dielectric constant tensor:
#      x y z
#    x 1.752350 0.000000 0.000000 
#    y 0.000000 1.752350 0.000000 
#    z 0.000000 0.000000 1.702490 
# 
# From -- ./inp_files/8656.got.cif
#   From: 2010.05.17/outbox.cif.g08.bks.cpg/sg131_5_cif.got.tgz:8656.got - 2010.05.20 12:21:01.
