data_PCOD9566659
_publ_section_title
;
Structure prediction by ZEFSAII (Michael W. Deem and Ramdas Pophale) SiO2 
 PCOD9566659
Probable space group: P 42/M M C
;
_chemical_formula_sum "Si O2"
_cell_formula_units_Z 48
_cell_length_a 7.667406
_cell_length_b 7.667406
_cell_length_c 38.983326
_cell_angle_alpha 90.000000
_cell_angle_beta 90.000000
_cell_angle_gamma 90.000000
_cell_volume 2291.795226
_symmetry_space_group_name_H-M "P 42/M M C"
_symmetry_group_IT_number 131
_symmetry_cell_setting 'tetragonal'
loop_
_space_group_symop_operation_xyz
x,y,z
-x,-y,z
-y,x,1/2+z
y,-x,1/2+z
-x,y,-z
x,-y,-z
y,x,1/2-z
-y,-x,1/2-z
-x,-y,-z
x,y,-z
y,-x,1/2-z
-y,x,1/2-z
x,-y,z
-x,y,z
-y,-x,1/2+z
y,x,1/2+z
loop_
_atom_site_type_symbol
_atom_site_label
_atom_site_fract_x
_atom_site_fract_y
_atom_site_fract_z
Si Si1 0.294948 0.790080 0.462870
Si Si2 0.285616 0.500000 0.159470
Si Si3 0.293425 0.815014 0.112949
Si Si4 0.210051 0.500000 0.761138
O O1 0.225807 0.728887 0.500000
O O2 0.500000 0.744569 0.461670
O O3 0.213936 0.727381 0.427646
O O4 0.281727 0.000000 0.462788
O O5 0.500000 0.500000 0.161674
O O6 0.225574 0.663105 0.136796
O O7 0.214890 0.500000 0.197639
O O8 0.500000 0.818806 0.119203
O O9 0.214853 0.000000 0.122139
O O10 0.328769 0.328769 0.750000
O O11 0.000000 0.500000 0.750403
#
# Coordination Sequence:
#
# PCOD9566659 Si02
#       4
#    16   8  16   8
#     4   9  18  33  52  74 107 155 207 258 315 378
#     4  10  20  41  64  91 125 170 208 255 328 398
#     4  10  21  35  56  87 118 155 206 260 313 377
#     4  11  25  48  77 110 145 187 229 279 343 415
#
# _framework density 20.944279999999999
#
# number of rings (size 3 to 8) (size 9 to 14) (size 15 to 20)
#    0.000    2.167    3.333    1.000    0.000    5.000 
#    0.000    5.000    0.000    0.000    0.000    0.000 
#    0.000    0.000    0.000    0.000    0.000    0.000 
#
# Total GULP energy -267611.170481 kJ/mol
# GULP energy per Si atom -5575.232718 kJ/mol
# Density = 2.089661 g / cm^3
# Si number density = 20.944280 Si / 1000 Ang^3
#
#
#
# Elastic Constant Matrix: (Units=GPa)
#
#
# Indices 1 2 3 4 5 6 
#
# 1 108.3692 42.9979 46.2408 0.0000 0.0000 0.0000
# 2 42.9979 108.3692 46.2408 0.0000 0.0000 0.0000
# 3 46.2408 46.2408 147.4373 0.0000 0.0000 0.0000
# 4 0.0000 0.0000 0.0000 -212.7558 0.0000 0.0000
# 5 0.0000 0.0000 0.0000 0.0000 -212.7558 0.0000
# 6 0.0000 0.0000 0.0000 0.0000 0.0000 -26.3950
#
#
#
# Elastic Compliance Matrix: (Units=1/GPa)
#
#
# Indices 1 2 3 4 5 6 
#
# 1 0.011735 -0.003562 -0.002563 0.000000 0.000000 0.000000
# 2 -0.003562 0.011735 -0.002563 0.000000 0.000000 0.000000
# 3 -0.002563 -0.002563 0.008390 0.000000 0.000000 0.000000
# 4 0.000000 0.000000 0.000000 -0.004700 0.000000 0.000000
# 5 0.000000 0.000000 0.000000 0.000000 -0.004700 0.000000
# 6 0.000000 0.000000 0.000000 0.000000 0.000000 -0.037886
#
#
# Mechanical properties :
#
#
# Convention : Reuss Voigt Hill
#
# Bulk Modulus (GPa) = 69.04790 70.57052 69.80921
# Shear Modulus (GPa) = 737.62758 -75.13491 331.24633
#
# Velocity S-wave (km/s) = 18.78697 -5.99596 12.58965
# Velocity P-wave (km/s) = 22.44191 3.76403 15.64403
#
# Compressibility (1/GPa) = 0.01448270
#
# Stress axis : x y z
#
# Youngs Moduli (GPa) = 85.21620 85.21620 119.18523
#
# Poissons Ratio (x) = 0.30357 0.30549
# Poissons Ratio (y) = 0.30357 0.30549
# Poissons Ratio (z) = 0.21842 0.21842
#
# Static dielectric constant tensor:
#      x y z
#    x 1.794730 0.000000 0.000000 
#    y 0.000000 1.794730 0.000000 
#    z 0.000000 0.000000 1.709770 
# 
# From -- ./inp_files/12931.got.cif
#   From: 2010.05.17/outbox.cif.g08.bks.cpg/sg131_7_cif.got.tgz:12931.got - 2010.05.20 12:21:01.
