data_PCOD9566407
_publ_section_title
;
Structure prediction by ZEFSAII (Michael W. Deem and Ramdas Pophale) SiO2 
 PCOD9566407
Probable space group: P 42/M M C
;
_chemical_formula_sum "Si O2"
_cell_formula_units_Z 50
_cell_length_a 7.745836
_cell_length_b 7.745836
_cell_length_c 42.276449
_cell_angle_alpha 90.000000
_cell_angle_beta 90.000000
_cell_angle_gamma 90.000000
_cell_volume 2536.501345
_symmetry_space_group_name_H-M "P 42/M M C"
_symmetry_group_IT_number 131
_symmetry_cell_setting 'tetragonal'
loop_
_space_group_symop_operation_xyz
x,y,z
-x,-y,z
-y,x,1/2+z
y,-x,1/2+z
-x,y,-z
x,-y,-z
y,x,1/2-z
-y,-x,1/2-z
-x,-y,-z
x,y,-z
y,-x,1/2-z
-y,x,1/2-z
x,-y,z
-x,y,z
-y,-x,1/2+z
y,x,1/2+z
loop_
_atom_site_type_symbol
_atom_site_label
_atom_site_fract_x
_atom_site_fract_y
_atom_site_fract_z
Si Si1 0.307166 0.710290 0.418574
Si Si2 0.000000 0.288268 0.463713
Si Si3 0.308372 0.000000 0.700427
Si Si4 0.000000 0.000000 0.750000
Si Si5 0.700593 0.207474 0.152913
O O1 0.304846 0.500000 0.419218
O O2 0.500000 0.768708 0.425937
O O3 0.259099 0.755735 0.382588
O O4 0.166671 0.768599 0.443860
O O5 0.000000 0.500000 0.463847
O O6 0.000000 0.232042 0.500000
O O7 0.283026 0.832334 0.678239
O O8 0.500000 0.000000 0.714000
O O9 0.165685 0.000000 0.727453
O O10 0.500000 0.261443 0.157428
O O11 0.706564 0.000000 0.155057
#
# Coordination Sequence:
#
# PCOD9566407 Si02
#       5
#    16   8   8   2  16
#     4   9  16  27  46  74 107 145 192 246 302 356
#     4   9  16  25  38  63 104 153 200 245 299 362
#     4  12  26  44  68  95 124 160 201 241 289 351
#     4  12  28  48  60  92 128 160 194 232 280 344
#     4  10  19  37  65  92 122 156 195 251 308 353
#
# _framework density 19.712192000000002
#
# number of rings (size 3 to 8) (size 9 to 14) (size 15 to 20)
#    0.000    2.080    3.200    0.960    0.000    3.840 
#    0.000    3.200    0.000    0.000    0.000    2.240 
#    0.000    3.840    0.000    0.320    0.000    0.000 
#
# Total GULP energy -279378.164225 kJ/mol
# GULP energy per Si atom -5587.563285 kJ/mol
# Density = 1.966733 g / cm^3
# Si number density = 19.712192 Si / 1000 Ang^3
#
#
#
# Elastic Constant Matrix: (Units=GPa)
#
#
# Indices 1 2 3 4 5 6 
#
# 1 113.9226 34.9573 67.7759 0.0000 0.0000 0.0000
# 2 34.9573 113.9226 67.7759 0.0000 0.0000 0.0000
# 3 67.7759 67.7759 155.4653 0.0000 0.0000 0.0000
# 4 0.0000 0.0000 0.0000 -22.2199 0.0000 0.0000
# 5 0.0000 0.0000 0.0000 0.0000 -22.2199 0.0000
# 6 0.0000 0.0000 0.0000 0.0000 0.0000 2.6414
#
#
#
# Elastic Compliance Matrix: (Units=1/GPa)
#
#
# Indices 1 2 3 4 5 6 
#
# 1 0.011901 -0.000763 -0.004856 0.000000 0.000000 0.000000
# 2 -0.000763 0.011901 -0.004856 0.000000 0.000000 0.000000
# 3 -0.004856 -0.004856 0.010666 0.000000 0.000000 0.000000
# 4 0.000000 0.000000 0.000000 -0.045005 0.000000 0.000000
# 5 0.000000 0.000000 0.000000 0.000000 -0.045005 0.000000
# 6 0.000000 0.000000 0.000000 0.000000 0.000000 0.378589
#
#
# Mechanical properties :
#
#
# Convention : Reuss Voigt Hill
#
# Bulk Modulus (GPa) = 73.96926 80.48097 77.22511
# Shear Modulus (GPa) = 14.34714 5.82706 10.08710
#
# Velocity S-wave (km/s) = 2.70076 1.72119 2.26457
# Velocity P-wave (km/s) = 6.87979 6.69826 6.78963
#
# Compressibility (1/GPa) = 0.01351913
#
# Stress axis : x y z
#
# Youngs Moduli (GPa) = 84.02840 84.02840 93.75680
#
# Poissons Ratio (x) = 0.06412 0.45524
# Poissons Ratio (y) = 0.06412 0.45524
# Poissons Ratio (z) = 0.40800 0.40800
#
# Static dielectric constant tensor:
#      x y z
#    x 1.697270 0.000000 0.000000 
#    y 0.000000 1.697270 0.000000 
#    z 0.000000 0.000000 1.636210 
# 
# From -- ./inp_files/12972.got.cif
#   From: 2010.05.17/outbox.cif.g08.bks.cpg/sg131_7_cif.got.tgz:12972.got - 2010.05.20 12:21:01.
