data_PCOD9566483
_publ_section_title
;
Structure prediction by ZEFSAII (Michael W. Deem and Ramdas Pophale) SiO2 
 PCOD9566483
Probable space group: P 42/M M C
;
_chemical_formula_sum "Si O2"
_cell_formula_units_Z 96
_cell_length_a 25.772175
_cell_length_b 25.772175
_cell_length_c 9.200902
_cell_angle_alpha 90.000000
_cell_angle_beta 90.000000
_cell_angle_gamma 90.000000
_cell_volume 6111.285152
_symmetry_space_group_name_H-M "P 42/M M C"
_symmetry_group_IT_number 131
_symmetry_cell_setting 'tetragonal'
loop_
_space_group_symop_operation_xyz
x,y,z
-x,-y,z
-y,x,1/2+z
y,-x,1/2+z
-x,y,-z
x,-y,-z
y,x,1/2-z
-y,-x,1/2-z
-x,-y,-z
x,y,-z
y,-x,1/2-z
-y,x,1/2-z
x,-y,z
-x,y,z
-y,-x,1/2+z
y,x,1/2+z
loop_
_atom_site_type_symbol
_atom_site_label
_atom_site_fract_x
_atom_site_fract_y
_atom_site_fract_z
Si Si1 0.561967 0.639209 0.827329
Si Si2 0.436989 0.745348 0.332796
Si Si3 0.851110 0.560990 0.674411
Si Si4 0.940208 0.640601 0.674700
Si Si5 0.861036 0.939190 0.324420
Si Si6 0.937048 0.254724 0.833387
O O1 0.593838 0.593838 0.750000
O O2 0.500000 0.632846 0.804345
O O3 0.578051 0.694201 0.756694
O O4 0.571309 0.639450 0.000000
O O5 0.419546 0.742716 0.500000
O O6 0.500000 0.745737 0.333178
O O7 0.421417 0.798835 0.255338
O O8 0.843752 0.565504 0.500000
O O9 0.859865 0.500000 0.706025
O O10 0.900463 0.595469 0.717521
O O11 0.940426 0.643353 0.500000
O O12 0.922481 0.695860 0.738287
O O13 0.000000 0.630958 0.721706
O O14 0.903928 0.903928 0.250000
O O15 0.863879 0.935748 0.500000
O O16 0.802686 0.921598 0.281703
O O17 0.867471 0.000000 0.286108
O O18 0.000000 0.253224 0.834975
O O19 0.919849 0.261821 0.000000
#
# Coordination Sequence:
#
# PCOD9566483 Si02
#       6
#    16  16  16  16  16  16
#     4  10  20  33  50  72  98 127 157 190 230 275
#     4   9  17  30  48  68  90 119 158 198 231 269
#     4   9  17  29  45  66  94 125 153 185 229 278
#     4   9  17  28  44  68  94 120 153 190 226 268
#     4   9  18  31  46  66  91 118 148 181 220 266
#     4   8  15  29  46  62  84 116 151 185 222 265
#
# _framework density 15.708643
#
# number of rings (size 3 to 8) (size 9 to 14) (size 15 to 20)
#    0.000    3.000    0.000    2.000    0.000    5.333 
#    0.000    5.000    0.000    1.000    0.000    7.000 
#    0.000    0.000    0.000    0.000    0.000    0.000 
#
# Total GULP energy -534574.709516 kJ/mol
# GULP energy per Si atom -5568.486557 kJ/mol
# Density = 1.567289 g / cm^3
# Si number density = 15.708643 Si / 1000 Ang^3
#
#
#
# Elastic Constant Matrix: (Units=GPa)
#
#
# Indices 1 2 3 4 5 6 
#
# 1 96.1917 68.1779 52.4367 0.0000 0.0000 0.0000
# 2 68.1779 96.1917 52.4367 0.0000 0.0000 0.0000
# 3 52.4367 52.4367 55.2359 0.0000 0.0000 0.0000
# 4 0.0000 0.0000 0.0000 24.8000 0.0000 0.0000
# 5 0.0000 0.0000 0.0000 0.0000 24.8000 0.0000
# 6 0.0000 0.0000 0.0000 0.0000 0.0000 -2.5876
#
#
#
# Elastic Compliance Matrix: (Units=1/GPa)
#
#
# Indices 1 2 3 4 5 6 
#
# 1 0.025563 -0.010134 -0.014648 0.000000 0.000000 0.000000
# 2 -0.010134 0.025563 -0.014648 0.000000 0.000000 0.000000
# 3 -0.014648 -0.014648 0.045915 0.000000 0.000000 0.000000
# 4 0.000000 0.000000 0.000000 0.040323 0.000000 0.000000
# 5 0.000000 0.000000 0.000000 0.000000 0.040323 0.000000
# 6 0.000000 0.000000 0.000000 0.000000 0.000000 -0.386464
#
#
# Mechanical properties :
#
#
# Convention : Reuss Voigt Hill
#
# Bulk Modulus (GPa) = 54.99517 65.96909 60.48213
# Shear Modulus (GPa) = -40.36837 14.37370 -12.99734
#
# Velocity S-wave (km/s) = -5.07484 3.02821 -2.87958
# Velocity P-wave (km/s) = 0.86421 7.36976 5.24691
#
# Compressibility (1/GPa) = 0.01818342
#
# Stress axis : x y z
#
# Youngs Moduli (GPa) = 39.11893 39.11893 21.77952
#
# Poissons Ratio (x) = 0.39641 0.31902
# Poissons Ratio (y) = 0.39641 0.31902
# Poissons Ratio (z) = 0.57300 0.57300
#
# Static dielectric constant tensor:
#      x y z
#    x 1.513500 0.000000 0.000000 
#    y 0.000000 1.513500 0.000000 
#    z 0.000000 0.000000 1.527860 
# 
# From -- ./inp_files/2254.got.cif
#   From: 2010.05.17/outbox.cif.g08.bks.cpg/sg131_2_cif.got.tgz:2254.got - 2010.05.20 12:21:01.
