data_PCOD9566572
_publ_section_title
;
Structure prediction by ZEFSAII (Michael W. Deem and Ramdas Pophale) SiO2 
 PCOD9566572
Probable space group: P 42/M M C
;
_chemical_formula_sum "Si O2"
_cell_formula_units_Z 120
_cell_length_a 20.768828
_cell_length_b 20.768828
_cell_length_c 16.401722
_cell_angle_alpha 90.000000
_cell_angle_beta 90.000000
_cell_angle_gamma 90.000000
_cell_volume 7074.787925
_symmetry_space_group_name_H-M "P 42/M M C"
_symmetry_group_IT_number 131
_symmetry_cell_setting 'tetragonal'
loop_
_space_group_symop_operation_xyz
x,y,z
-x,-y,z
-y,x,1/2+z
y,-x,1/2+z
-x,y,-z
x,-y,-z
y,x,1/2-z
-y,-x,1/2-z
-x,-y,-z
x,y,-z
y,-x,1/2-z
-y,x,1/2-z
x,-y,z
-x,y,z
-y,-x,1/2+z
y,x,1/2+z
loop_
_atom_site_type_symbol
_atom_site_label
_atom_site_fract_x
_atom_site_fract_y
_atom_site_fract_z
Si Si1 0.656084 0.761574 0.740829
Si Si2 0.174042 0.926745 0.592057
Si Si3 0.853220 0.422889 0.663398
Si Si4 0.577602 0.928761 0.330079
Si Si5 0.924243 0.807299 0.591821
Si Si6 0.763400 0.870789 0.255862
Si Si7 0.577479 0.798523 0.409380
Si Si8 0.421252 0.926054 0.000000
O O1 0.697442 0.697442 0.750000
O O2 0.612619 0.786551 0.815850
O O3 0.706551 0.820329 0.730347
O O4 0.611177 0.759057 0.661729
O O5 0.201405 0.920057 0.500000
O O6 0.117704 0.873052 0.597861
O O7 0.224674 0.914332 0.664798
O O8 0.149409 0.000000 0.600062
O O9 0.843419 0.500000 0.661258
O O10 0.901077 0.409689 0.739671
O O11 0.887597 0.401969 0.580718
O O12 0.500000 0.933316 0.336150
O O13 0.596420 0.873074 0.392875
O O14 0.604776 0.000000 0.342082
O O15 0.911932 0.780666 0.500000
O O16 0.905470 0.761620 0.667941
O O17 0.000000 0.821702 0.597884
O O18 0.826889 0.826889 0.250000
O O19 0.595970 0.778809 0.500000
O O20 0.500000 0.794812 0.401471
O O21 0.500000 0.928320 0.000000
O O22 0.398647 0.000000 0.000000
#
# Coordination Sequence:
#
# PCOD9566572 Si02
#       8
#    16  16  16  16  16  16  16   8
#     4  10  20  35  51  71  95 131 174 204 236 286
#     4   9  17  29  46  66  86 111 146 194 255 313
#     4   9  17  31  50  72 100 131 163 203 252 297
#     4   8  13  23  42  66  93 127 162 195 238 292
#     4   9  17  30  47  64  84 113 150 197 253 306
#     4   9  18  32  46  60  85 120 156 192 232 283
#     4   9  18  33  53  77 105 133 162 203 254 296
#     4   9  16  28  48  72 100 134 167 201 252 313
#
# _framework density 16.961638000000001
#
# number of rings (size 3 to 8) (size 9 to 14) (size 15 to 20)
#    0.000    3.000    0.000    2.000    0.000    2.667 
#    2.400   10.667    0.000    2.400    0.000    0.000 
#    0.000    4.267    0.000    5.867    0.000    0.000 
#
# Total GULP energy -668114.839615 kJ/mol
# GULP energy per Si atom -5567.623663 kJ/mol
# Density = 1.692303 g / cm^3
# Si number density = 16.961638 Si / 1000 Ang^3
#
#
#
# Elastic Constant Matrix: (Units=GPa)
#
#
# Indices 1 2 3 4 5 6 
#
# 1 41.9888 17.2543 34.3639 0.0000 0.0000 0.0000
# 2 17.2543 41.9888 34.3639 0.0000 0.0000 0.0000
# 3 34.3639 34.3639 125.0912 0.0000 0.0000 0.0000
# 4 0.0000 0.0000 0.0000 7.6957 0.0000 0.0000
# 5 0.0000 0.0000 0.0000 0.0000 7.6957 0.0000
# 6 0.0000 0.0000 0.0000 0.0000 0.0000 23.2911
#
#
#
# Elastic Compliance Matrix: (Units=1/GPa)
#
#
# Indices 1 2 3 4 5 6 
#
# 1 0.032602 -0.007827 -0.006806 0.000000 0.000000 0.000000
# 2 -0.007827 0.032602 -0.006806 0.000000 0.000000 0.000000
# 3 -0.006806 -0.006806 0.011734 0.000000 0.000000 0.000000
# 4 0.000000 0.000000 0.000000 0.129942 0.000000 0.000000
# 5 0.000000 0.000000 0.000000 0.000000 0.129942 0.000000
# 6 0.000000 0.000000 0.000000 0.000000 0.000000 0.042935
#
#
# Mechanical properties :
#
#
# Convention : Reuss Voigt Hill
#
# Bulk Modulus (GPa) = 29.35999 42.33700 35.84849
# Shear Modulus (GPa) = 11.52103 15.94229 13.73166
#
# Velocity S-wave (km/s) = 2.60905 3.06911 2.84838
# Velocity P-wave (km/s) = 5.14037 6.12975 5.65673
#
# Compressibility (1/GPa) = 0.03405996
#
# Stress axis : x y z
#
# Youngs Moduli (GPa) = 30.67270 30.67270 85.22576
#
# Poissons Ratio (x) = 0.24008 0.58005
# Poissons Ratio (y) = 0.24008 0.58005
# Poissons Ratio (z) = 0.20876 0.20876
#
# Static dielectric constant tensor:
#      x y z
#    x 1.577050 0.000000 0.000000 
#    y 0.000000 1.577050 0.000000 
#    z 0.000000 0.000000 1.607230 
# 
# From -- ./inp_files/6342.got.cif
#   From: 2010.05.17/outbox.cif.g08.bks.cpg/sg131_4_cif.got.tgz:6342.got - 2010.05.20 12:21:01.
