data_PCOD9566900
_publ_section_title
;
Structure prediction by ZEFSAII (Michael W. Deem and Ramdas Pophale) SiO2 
 PCOD9566900
Probable space group: P 42/M M C
;
_chemical_formula_sum "Si O2"
_cell_formula_units_Z 72
_cell_length_a 18.586791
_cell_length_b 18.586791
_cell_length_c 14.302310
_cell_angle_alpha 90.000000
_cell_angle_beta 90.000000
_cell_angle_gamma 90.000000
_cell_volume 4941.001868
_symmetry_space_group_name_H-M "P 42/M M C"
_symmetry_group_IT_number 131
_symmetry_cell_setting 'tetragonal'
loop_
_space_group_symop_operation_xyz
x,y,z
-x,-y,z
-y,x,1/2+z
y,-x,1/2+z
-x,y,-z
x,-y,-z
y,x,1/2-z
-y,-x,1/2-z
-x,-y,-z
x,y,-z
y,-x,1/2-z
-y,x,1/2-z
x,-y,z
-x,y,z
-y,-x,1/2+z
y,x,1/2+z
loop_
_atom_site_type_symbol
_atom_site_label
_atom_site_fract_x
_atom_site_fract_y
_atom_site_fract_z
Si Si1 0.083530 0.723491 0.387342
Si Si2 0.173245 0.861470 0.614011
Si Si3 0.916910 0.000000 0.385748
Si Si4 0.579847 0.913091 0.783362
Si Si5 0.086208 0.670486 0.891716
O O1 0.083491 0.722585 0.500000
O O2 0.134999 0.788120 0.355575
O O3 0.108144 0.646072 0.349502
O O4 0.000000 0.735877 0.357455
O O5 0.171972 0.861934 0.500000
O O6 0.125578 0.929211 0.644837
O O7 0.256314 0.874216 0.638529
O O8 0.916127 0.000000 0.500000
O O9 0.000000 0.000000 0.357752
O O10 0.500000 0.885053 0.804305
O O11 0.605925 0.896539 0.678274
O O12 0.576377 0.000000 0.790874
O O13 0.000000 0.684431 0.885791
O O14 0.102506 0.654985 0.000000
#
# Coordination Sequence:
#
# PCOD9566900 Si02
#       5
#    16  16   8  16  16
#     4   9  17  28  41  58  80 106 136 171 205 240
#     4   9  15  24  38  58  81 107 139 167 201 244
#     4   9  14  20  34  56  81 109 140 173 201 235
#     4   9  18  30  42  57  73  95 132 175 218 255
#     4   9  16  27  42  59  79 103 130 165 206 245
#
# _framework density 14.571944
#
# number of rings (size 3 to 8) (size 9 to 14) (size 15 to 20)
#    0.000    3.000    1.111    0.667    0.000    4.444 
#    0.000    4.444    0.000    0.000    0.000    0.000 
#    0.000    0.000    0.000    0.000    0.000    8.889 
#
# Total GULP energy -401354.427130 kJ/mol
# GULP energy per Si atom -5574.367043 kJ/mol
# Density = 1.453878 g / cm^3
# Si number density = 14.571944 Si / 1000 Ang^3
#
#
#
# Elastic Constant Matrix: (Units=GPa)
#
#
# Indices 1 2 3 4 5 6 
#
# 1 77.6107 24.5746 2.5553 0.0000 0.0000 0.0000
# 2 24.5746 77.6107 2.5553 0.0000 0.0000 0.0000
# 3 2.5553 2.5553 26.5284 0.0000 0.0000 0.0000
# 4 0.0000 0.0000 0.0000 11.2034 0.0000 0.0000
# 5 0.0000 0.0000 0.0000 0.0000 11.2034 0.0000
# 6 0.0000 0.0000 0.0000 0.0000 0.0000 6.3576
#
#
#
# Elastic Compliance Matrix: (Units=1/GPa)
#
#
# Indices 1 2 3 4 5 6 
#
# 1 0.014344 -0.004511 -0.000947 0.000000 0.000000 0.000000
# 2 -0.004511 0.014344 -0.000947 0.000000 0.000000 0.000000
# 3 -0.000947 -0.000947 0.037878 0.000000 0.000000 0.000000
# 4 0.000000 0.000000 0.000000 0.089259 0.000000 0.000000
# 5 0.000000 0.000000 0.000000 0.000000 0.089259 0.000000
# 6 0.000000 0.000000 0.000000 0.000000 0.000000 0.157293
#
#
# Mechanical properties :
#
#
# Convention : Reuss Voigt Hill
#
# Bulk Modulus (GPa) = 18.60252 26.79113 22.69683
# Shear Modulus (GPa) = 11.54450 15.89050 13.71750
#
# Velocity S-wave (km/s) = 2.81773 3.30583 3.07149
# Velocity P-wave (km/s) = 4.83527 5.74428 5.30926
#
# Compressibility (1/GPa) = 0.05375616
#
# Stress axis : x y z
#
# Youngs Moduli (GPa) = 69.71414 69.71414 26.40060
#
# Poissons Ratio (x) = 0.31446 0.02501
# Poissons Ratio (y) = 0.31446 0.02501
# Poissons Ratio (z) = 0.06603 0.06603
#
# Static dielectric constant tensor:
#      x y z
#    x 1.465380 0.000000 0.000000 
#    y 0.000000 1.465380 0.000000 
#    z 0.000000 0.000000 1.553380 
# 
# From -- ./inp_files/7718.got.cif
#   From: 2010.05.17/outbox.cif.g08.bks.cpg/sg131_4_cif.got.tgz:7718.got - 2010.05.20 12:21:01.
