data_PCOD9566799
_publ_section_title
;
Structure prediction by ZEFSAII (Michael W. Deem and Ramdas Pophale) SiO2 
 PCOD9566799
Probable space group: P 42/M M C
;
_chemical_formula_sum "Si O2"
_cell_formula_units_Z 48
_cell_length_a 13.857563
_cell_length_b 13.857563
_cell_length_c 13.700656
_cell_angle_alpha 90.000000
_cell_angle_beta 90.000000
_cell_angle_gamma 90.000000
_cell_volume 2630.965090
_symmetry_space_group_name_H-M "P 42/M M C"
_symmetry_group_IT_number 131
_symmetry_cell_setting 'tetragonal'
loop_
_space_group_symop_operation_xyz
x,y,z
-x,-y,z
-y,x,1/2+z
y,-x,1/2+z
-x,y,-z
x,-y,-z
y,x,1/2-z
-y,-x,1/2-z
-x,-y,-z
x,y,-z
y,-x,1/2-z
-y,x,1/2-z
x,-y,z
-x,y,z
-y,-x,1/2+z
y,x,1/2+z
loop_
_atom_site_type_symbol
_atom_site_label
_atom_site_fract_x
_atom_site_fract_y
_atom_site_fract_z
Si Si1 0.812414 0.309229 0.675180
Si Si2 0.500000 0.500000 0.000000
Si Si3 0.331514 0.336994 0.000000
Si Si4 0.000000 0.000000 0.250000
Si Si5 0.828847 0.500000 0.000000
Si Si6 0.000000 0.190091 0.387488
Si Si7 0.500000 0.889050 0.279071
O O1 0.764696 0.235305 0.750000
O O2 0.733350 0.333558 0.593080
O O3 0.840144 0.405417 0.733854
O O4 0.906487 0.256982 0.631427
O O5 0.583404 0.414850 0.000000
O O6 0.235803 0.402980 0.000000
O O7 0.000000 0.903223 0.316706
O O8 0.883143 0.500000 0.103372
O O9 0.000000 0.157781 0.500000
O O10 0.500000 0.000000 0.248688
#
# Coordination Sequence:
#
# PCOD9566799 Si02
#       7
#    16   2   8   2   4   8   8
#     4  12  24  43  69  97 137 181 224 278 344 408
#     4  10  24  44  64  98 130 166 222 292 330 404
#     4  11  23  44  67  94 133 173 224 279 338 404
#     4  12  26  44  72 106 136 176 242 280 344 422
#     4  11  23  41  65  94 130 172 223 271 329 399
#     4  12  25  44  69 102 141 180 229 287 344 413
#     4  12  25  41  66 101 129 173 223 281 334 405
#
# _framework density 18.244254999999999
#
# number of rings (size 3 to 8) (size 9 to 14) (size 15 to 20)
#    0.000    0.333    8.333    1.500    0.000    0.000 
#    0.000    2.500    0.000    0.000    0.000    0.000 
#    0.000    0.000    0.000    0.000    0.000    0.000 
#
# Total GULP energy -267685.790816 kJ/mol
# GULP energy per Si atom -5576.787309 kJ/mol
# Density = 1.820273 g / cm^3
# Si number density = 18.244255 Si / 1000 Ang^3
#
#
#
# Elastic Constant Matrix: (Units=GPa)
#
#
# Indices 1 2 3 4 5 6 
#
# 1 139.7954 63.1880 56.7513 0.0000 0.0000 0.0000
# 2 63.1880 139.7984 56.7520 0.0000 0.0000 0.0000
# 3 56.7513 56.7520 134.3158 0.0000 0.0000 0.0000
# 4 0.0000 0.0000 0.0000 35.4498 0.0000 0.0000
# 5 0.0000 0.0000 0.0000 0.0000 35.4467 0.0000
# 6 0.0000 0.0000 0.0000 0.0000 0.0000 28.7887
#
#
#
# Elastic Compliance Matrix: (Units=1/GPa)
#
#
# Indices 1 2 3 4 5 6 
#
# 1 0.009752 -0.003301 -0.002725 0.000000 0.000000 0.000000
# 2 -0.003301 0.009752 -0.002725 0.000000 0.000000 0.000000
# 3 -0.002725 -0.002725 0.009748 0.000000 0.000000 0.000000
# 4 0.000000 0.000000 0.000000 0.028209 0.000000 0.000000
# 5 0.000000 0.000000 0.000000 0.000000 0.028211 0.000000
# 6 0.000000 0.000000 0.000000 0.000000 0.000000 0.034736
#
#
# Mechanical properties :
#
#
# Convention : Reuss Voigt Hill
#
# Bulk Modulus (GPa) = 85.12566 85.25469 85.19017
# Shear Modulus (GPa) = 35.25378 35.75159 35.50269
#
# Velocity S-wave (km/s) = 4.40059 4.43155 4.41610
# Velocity P-wave (km/s) = 8.51941 8.54493 8.53218
#
# Compressibility (1/GPa) = 0.01174734
#
# Stress axis : x y z
#
# Youngs Moduli (GPa) = 102.54300 102.54520 102.58185
#
# Poissons Ratio (x) = 0.33854 0.27959
# Poissons Ratio (y) = 0.33854 0.27958
# Poissons Ratio (z) = 0.27948 0.27948
#
# Static dielectric constant tensor:
#      x y z
#    x 1.597000 0.000000 0.000000 
#    y 0.000000 1.597000 0.000000 
#    z 0.000000 0.000000 1.617630 
# 
# From -- ./inp_files/3581.got.cif
#   From: 2010.05.17/outbox.cif.g08.bks.cpg/sg131_2_cif.got.tgz:3581.got - 2010.05.20 12:21:01.
