data_PCOD9566117
_publ_section_title
;
Structure prediction by ZEFSAII (Michael W. Deem and Ramdas Pophale) SiO2 
 PCOD9566117
Probable space group: P 42/M M C
;
_chemical_formula_sum "Si O2"
_cell_formula_units_Z 112
_cell_length_a 15.200190
_cell_length_b 15.200190
_cell_length_c 26.989574
_cell_angle_alpha 90.000000
_cell_angle_beta 90.000000
_cell_angle_gamma 90.000000
_cell_volume 6235.827070
_symmetry_space_group_name_H-M "P 42/M M C"
_symmetry_group_IT_number 131
_symmetry_cell_setting 'tetragonal'
loop_
_space_group_symop_operation_xyz
x,y,z
-x,-y,z
-y,x,1/2+z
y,-x,1/2+z
-x,y,-z
x,-y,-z
y,x,1/2-z
-y,-x,1/2-z
-x,-y,-z
x,y,-z
y,-x,1/2-z
-y,x,1/2-z
x,-y,z
-x,y,z
-y,-x,1/2+z
y,x,1/2+z
loop_
_atom_site_type_symbol
_atom_site_label
_atom_site_fract_x
_atom_site_fract_y
_atom_site_fract_z
Si Si1 0.900039 0.291289 0.941208
Si Si2 0.251260 0.395429 0.885873
Si Si3 0.904315 0.860866 0.441530
Si Si4 0.399137 0.709960 0.943170
Si Si5 0.900959 0.394881 0.696841
Si Si6 0.741806 0.396308 0.768524
Si Si7 0.901706 0.655697 0.584420
O O1 0.832623 0.352706 0.912605
O O2 0.894932 0.189607 0.922887
O O3 0.000000 0.322137 0.936023
O O4 0.877571 0.290433 0.000000
O O5 0.258783 0.500000 0.895977
O O6 0.334348 0.341429 0.906859
O O7 0.244059 0.383132 0.826898
O O8 0.905847 0.882094 0.500000
O O9 0.900725 0.755685 0.434554
O O10 0.000000 0.890135 0.420977
O O11 0.500000 0.685532 0.933716
O O12 0.390213 0.815463 0.937091
O O13 0.376213 0.688044 0.000000
O O14 0.893508 0.500000 0.687089
O O15 0.827092 0.370537 0.736267
O O16 0.891309 0.347967 0.643924
O O17 0.000000 0.378502 0.715441
O O18 0.660415 0.339586 0.750000
O O19 0.726445 0.500000 0.760352
O O20 0.000000 0.619176 0.573077
#
# Coordination Sequence:
#
# PCOD9566117 Si02
#       7
#    16  16  16  16  16  16  16
#     4  10  21  37  58  84 113 147 189 234 280 330
#     4  11  24  41  59  79 108 145 186 238 290 331
#     4   9  17  30  51  80 114 150 184 220 267 325
#     4  11  23  37  55  80 112 150 188 225 268 328
#     4   9  18  33  53  78 108 140 176 219 265 320
#     4  10  22  38  58  83 108 138 178 226 281 337
#     4  10  18  30  53  83 115 149 179 213 265 326
#
# _framework density 17.960729000000001
#
# number of rings (size 3 to 8) (size 9 to 14) (size 15 to 20)
#    0.000    2.000    1.429    2.143    0.000    6.143 
#    0.000    6.429    0.000    0.000    0.000    0.000 
#    0.000    0.286    0.000    0.000    0.000    0.000 
#
# Total GULP energy -624820.510879 kJ/mol
# GULP energy per Si atom -5578.754561 kJ/mol
# Density = 1.791985 g / cm^3
# Si number density = 17.960729 Si / 1000 Ang^3
#
#
#
# Elastic Constant Matrix: (Units=GPa)
#
#
# Indices 1 2 3 4 5 6 
#
# 1 66.1221 31.1038 30.5497 0.0000 0.0000 0.0000
# 2 31.1038 66.1180 30.5513 0.0000 0.0000 0.0000
# 3 30.5497 30.5513 51.2252 0.0000 0.0000 0.0000
# 4 0.0000 0.0000 0.0000 40.2316 0.0000 0.0000
# 5 0.0000 0.0000 0.0000 0.0000 40.2331 0.0000
# 6 0.0000 0.0000 0.0000 0.0000 0.0000 7.2045
#
#
#
# Elastic Compliance Matrix: (Units=1/GPa)
#
#
# Indices 1 2 3 4 5 6 
#
# 1 0.022504 -0.006053 -0.009811 0.000000 0.000000 0.000000
# 2 -0.006053 0.022506 -0.009813 0.000000 0.000000 0.000000
# 3 -0.009811 -0.009813 0.031225 0.000000 0.000000 0.000000
# 4 0.000000 0.000000 0.000000 0.024856 0.000000 0.000000
# 5 0.000000 0.000000 0.000000 0.000000 0.024855 0.000000
# 6 0.000000 0.000000 0.000000 0.000000 0.000000 0.138803
#
#
# Mechanical properties :
#
#
# Convention : Reuss Voigt Hill
#
# Bulk Modulus (GPa) = 40.19043 40.87497 40.53270
# Shear Modulus (GPa) = 15.41324 23.61787 19.51555
#
# Velocity S-wave (km/s) = 2.93262 3.63019 3.29989
# Velocity P-wave (km/s) = 5.82172 6.35440 6.09388
#
# Compressibility (1/GPa) = 0.02488154
#
# Stress axis : x y z
#
# Youngs Moduli (GPa) = 44.43732 44.43181 32.02550
#
# Poissons Ratio (x) = 0.26895 0.31419
# Poissons Ratio (y) = 0.26899 0.31427
# Poissons Ratio (z) = 0.43595 0.43601
#
# Static dielectric constant tensor:
#      x y z
#    x 1.621820 0.000000 0.000000 
#    y 0.000000 1.621820 0.000000 
#    z 0.000000 0.000000 1.595620 
# 
# From -- ./inp_files/11293.got.cif
#   From: 2010.05.17/outbox.cif.g08.bks.cpg/sg131_6_cif.got.tgz:11293.got - 2010.05.20 12:21:01.
