data_PCOD9566962
_publ_section_title
;
Structure prediction by ZEFSAII (Michael W. Deem and Ramdas Pophale) SiO2 
 PCOD9566962
Probable space group: P 42/M C M
;
_chemical_formula_sum "Si O2"
_cell_formula_units_Z 80
_cell_length_a 11.796078
_cell_length_b 11.796078
_cell_length_c 29.850776
_cell_angle_alpha 90.000000
_cell_angle_beta 90.000000
_cell_angle_gamma 90.000000
_cell_volume 4153.659545
_symmetry_space_group_name_H-M "P 42/M C M"
_symmetry_group_IT_number 132
_symmetry_cell_setting 'tetragonal'
loop_
_space_group_symop_operation_xyz
x,y,z
-y,x,1/2+z
-x,-y,z
y,-x,1/2+z
x,-y,1/2-z
-x,y,1/2-z
y,x,-z
-y,-x,-z
-x,-y,-z
y,-x,1/2-z
x,y,-z
-y,x,1/2-z
-x,y,1/2+z
x,-y,1/2+z
-y,-x,z
y,x,z
loop_
_atom_site_type_symbol
_atom_site_label
_atom_site_fract_x
_atom_site_fract_y
_atom_site_fract_z
Si Si1 0.659442 0.340559 0.548585
Si Si2 0.911192 0.585011 0.927975
Si Si3 0.406582 0.593419 0.350610
Si Si4 0.307723 0.980603 0.200554
Si Si5 0.838424 0.509319 0.170126
Si Si6 0.815770 0.994329 0.390697
O O1 0.616770 0.383231 0.500000
O O2 0.793514 0.371956 0.550641
O O3 0.612126 0.387875 0.595751
O O4 0.874997 0.518754 0.882168
O O5 0.978598 0.698892 0.915147
O O6 0.000000 0.500000 0.950982
O O7 0.500000 0.500000 0.344234
O O8 0.290145 0.549511 0.329138
O O9 0.396896 0.083412 0.193746
O O10 0.215476 0.986141 0.161723
O O11 0.261193 0.000000 0.250000
O O12 0.387628 0.870683 0.190963
O O13 0.901566 0.098435 0.397599
O O14 0.880734 0.880734 0.404957
#
# Coordination Sequence:
#
# PCOD9566962 Si02
#       6
#     8  16   8  16  16  16
#     4  10  22  37  59  90 118 147 185 232 292 351
#     4  10  17  35  60  83 108 147 194 230 267 335
#     4  10  22  37  58  81 113 148 184 233 275 346
#     4  10  19  33  56  76 108 145 188 243 284 333
#     4   9  17  33  55  77  99 144 194 225 270 322
#     4  10  20  34  53  80 111 145 187 234 281 334
#
# _framework density 19.260123
#
# number of rings (size 3 to 8) (size 9 to 14) (size 15 to 20)
#    0.000    2.200    5.000    1.200    4.200    2.200 
#    0.000    1.000    6.600    1.200    0.000    0.000 
#    0.000    0.000    0.000    0.000    0.000    0.000 
#
# Total GULP energy -445807.901216 kJ/mol
# GULP energy per Si atom -5572.598765 kJ/mol
# Density = 1.921629 g / cm^3
# Si number density = 19.260123 Si / 1000 Ang^3
#
#
#
# Elastic Constant Matrix: (Units=GPa)
#
#
# Indices 1 2 3 4 5 6 
#
# 1 95.4941 49.7253 2.4581 0.0000 0.0000 0.0000
# 2 49.7253 95.4940 2.4580 0.0000 0.0000 0.0000
# 3 2.4581 2.4580 46.5227 0.0000 0.0000 0.0000
# 4 0.0000 0.0000 0.0000 5.3405 0.0000 0.0000
# 5 0.0000 0.0000 0.0000 0.0000 5.3406 0.0000
# 6 0.0000 0.0000 0.0000 0.0000 0.0000 23.3982
#
#
#
# Elastic Compliance Matrix: (Units=1/GPa)
#
#
# Indices 1 2 3 4 5 6 
#
# 1 0.014374 -0.007475 -0.000364 0.000000 0.000000 0.000000
# 2 -0.007475 0.014374 -0.000364 0.000000 0.000000 0.000000
# 3 -0.000364 -0.000364 0.021533 0.000000 0.000000 0.000000
# 4 0.000000 0.000000 0.000000 0.187249 0.000000 0.000000
# 5 0.000000 0.000000 0.000000 0.000000 0.187245 0.000000
# 6 0.000000 0.000000 0.000000 0.000000 0.000000 0.042738
#
#
# Mechanical properties :
#
#
# Convention : Reuss Voigt Hill
#
# Bulk Modulus (GPa) = 29.52255 38.53263 34.02759
# Shear Modulus (GPa) = 10.09667 19.00715 14.55191
#
# Velocity S-wave (km/s) = 2.29208 3.14485 2.75170
# Velocity P-wave (km/s) = 4.72932 5.76512 5.27272
#
# Compressibility (1/GPa) = 0.03387242
#
# Stress axis : x y z
#
# Youngs Moduli (GPa) = 69.57144 69.57137 46.43948
#
# Poissons Ratio (x) = 0.52006 0.01693
# Poissons Ratio (y) = 0.52006 0.01693
# Poissons Ratio (z) = 0.02536 0.02536
#
# Static dielectric constant tensor:
#      x y z
#    x 1.687700 0.000000 0.000000 
#    y 0.000000 1.687700 0.000000 
#    z 0.000000 0.000000 1.693010 
# 
# From -- ./inp_files/10694.got.cif
#   From: 2010.05.17/outbox.cif.g08.bks.cpg/sg132_6_cif.got.tgz:10694.got - 2010.05.20 12:30:18.
