data_PCOD9566328
_publ_section_title
;
Structure prediction by ZEFSAII (Michael W. Deem and Ramdas Pophale) SiO2 
 PCOD9566328
Probable space group: P 42/M M C
;
_chemical_formula_sum "Si O2"
_cell_formula_units_Z 104
_cell_length_a 28.333904
_cell_length_b 28.333904
_cell_length_c 8.875134
_cell_angle_alpha 90.000000
_cell_angle_beta 90.000000
_cell_angle_gamma 90.000000
_cell_volume 7125.047355
_symmetry_space_group_name_H-M "P 42/M M C"
_symmetry_group_IT_number 131
_symmetry_cell_setting 'tetragonal'
loop_
_space_group_symop_operation_xyz
x,y,z
-x,-y,z
-y,x,1/2+z
y,-x,1/2+z
-x,y,-z
x,-y,-z
y,x,1/2-z
-y,-x,1/2-z
-x,-y,-z
x,y,-z
y,-x,1/2-z
-y,x,1/2-z
x,-y,z
-x,y,z
-y,-x,1/2+z
y,x,1/2+z
loop_
_atom_site_type_symbol
_atom_site_label
_atom_site_fract_x
_atom_site_fract_y
_atom_site_fract_z
Si Si1 0.195041 0.264297 0.680960
Si Si2 0.105293 0.787973 0.823839
Si Si3 0.104402 0.554407 0.182137
Si Si4 0.000000 0.557167 0.171802
Si Si5 0.054698 0.876954 0.320074
Si Si6 0.856830 0.642599 0.678389
Si Si7 0.054028 0.691327 0.823948
O O1 0.242387 0.242387 0.750000
O O2 0.195778 0.261184 0.500000
O O3 0.151804 0.232772 0.744509
O O4 0.182187 0.318342 0.723792
O O5 0.085580 0.834323 0.745935
O O6 0.065718 0.746923 0.814434
O O7 0.115568 0.796577 0.000000
O O8 0.113082 0.500000 0.226513
O O9 0.141783 0.592020 0.241599
O O10 0.051312 0.568702 0.237919
O O11 0.102742 0.555615 0.000000
O O12 0.000000 0.500000 0.163400
O O13 0.000000 0.575546 0.000000
O O14 0.075432 0.924569 0.250000
O O15 0.059133 0.877900 0.500000
O O16 0.000000 0.870038 0.280419
O O17 0.854144 0.636330 0.500000
O O18 0.906683 0.666318 0.724140
O O19 0.000000 0.681288 0.782720
O O20 0.061065 0.677718 0.000000
#
# Coordination Sequence:
#
# PCOD9566328 Si02
#       7
#    16  16  16   8  16  16  16
#     4  10  20  34  50  68  91 116 141 171 209 252
#     4  10  19  33  53  73  90 108 132 160 193 238
#     4   9  17  30  47  64  84 114 151 185 214 250
#     4   7  12  24  41  59  77 103 141 179 209 237
#     4  11  24  39  54  70  86 104 124 149 184 227
#     4  10  21  32  43  64  90 113 139 175 220 260
#     4   9  18  31  46  63  84 112 141 167 197 239
#
# _framework density 14.596394999999999
#
# number of rings (size 3 to 8) (size 9 to 14) (size 15 to 20)
#    0.000    2.385    0.000    3.692    1.077    5.077 
#    0.000    0.769    0.000    1.385    0.000    0.000 
#    0.000    0.000    0.000    0.000    0.000    0.000 
#
# Total GULP energy -580174.814975 kJ/mol
# GULP energy per Si atom -5578.603990 kJ/mol
# Density = 1.456317 g / cm^3
# Si number density = 14.596395 Si / 1000 Ang^3
#
#
#
# Elastic Constant Matrix: (Units=GPa)
#
#
# Indices 1 2 3 4 5 6 
#
# 1 69.9468 42.7662 25.4388 0.0000 0.0000 0.0000
# 2 42.7662 69.9406 25.4401 0.0000 0.0000 0.0000
# 3 25.4388 25.4401 34.5956 0.0000 0.0000 0.0000
# 4 0.0000 0.0000 0.0000 17.6054 0.0000 0.0000
# 5 0.0000 0.0000 0.0000 0.0000 17.6055 0.0000
# 6 0.0000 0.0000 0.0000 0.0000 0.0000 18.7072
#
#
#
# Elastic Compliance Matrix: (Units=1/GPa)
#
#
# Indices 1 2 3 4 5 6 
#
# 1 0.025036 -0.011757 -0.009764 0.000000 0.000000 0.000000
# 2 -0.011757 0.025040 -0.009768 0.000000 0.000000 0.000000
# 3 -0.009764 -0.009768 0.043268 0.000000 0.000000 0.000000
# 4 0.000000 0.000000 0.000000 0.056801 0.000000 0.000000
# 5 0.000000 0.000000 0.000000 0.000000 0.056800 0.000000
# 6 0.000000 0.000000 0.000000 0.000000 0.000000 0.053455
#
#
# Mechanical properties :
#
#
# Convention : Reuss Voigt Hill
#
# Bulk Modulus (GPa) = 32.50350 40.19703 36.35027
# Shear Modulus (GPa) = 15.00451 16.17282 15.58866
#
# Velocity S-wave (km/s) = 3.20966 3.33228 3.27154
# Velocity P-wave (km/s) = 6.00436 6.51185 6.26325
#
# Compressibility (1/GPa) = 0.03076592
#
# Stress axis : x y z
#
# Youngs Moduli (GPa) = 39.94253 39.93621 23.11188
#
# Poissons Ratio (x) = 0.46954 0.22566
# Poissons Ratio (y) = 0.46961 0.22576
# Poissons Ratio (z) = 0.38999 0.39010
#
# Static dielectric constant tensor:
#      x y z
#    x 1.496400 0.000000 0.000000 
#    y 0.000000 1.496410 0.000000 
#    z 0.000000 0.000000 1.492040 
# 
# From -- ./inp_files/2574.got.cif
#   From: 2010.05.17/outbox.cif.g08.bks.cpg/sg131_2_cif.got.tgz:2574.got - 2010.05.20 12:21:01.
