data_PCOD9566874
_publ_section_title
;
Structure prediction by ZEFSAII (Michael W. Deem and Ramdas Pophale) SiO2 
 PCOD9566874
Probable space group: P 42/M M C
;
_chemical_formula_sum "Si O2"
_cell_formula_units_Z 48
_cell_length_a 12.299659
_cell_length_b 12.299659
_cell_length_c 16.762484
_cell_angle_alpha 90.000000
_cell_angle_beta 90.000000
_cell_angle_gamma 90.000000
_cell_volume 2535.855593
_symmetry_space_group_name_H-M "P 42/M M C"
_symmetry_group_IT_number 131
_symmetry_cell_setting 'tetragonal'
loop_
_space_group_symop_operation_xyz
x,y,z
-x,-y,z
-y,x,1/2+z
y,-x,1/2+z
-x,y,-z
x,-y,-z
y,x,1/2-z
-y,-x,1/2-z
-x,-y,-z
x,y,-z
y,-x,1/2-z
-y,x,1/2-z
x,-y,z
-x,y,z
-y,-x,1/2+z
y,x,1/2+z
loop_
_atom_site_type_symbol
_atom_site_label
_atom_site_fract_x
_atom_site_fract_y
_atom_site_fract_z
Si Si1 0.000000 0.129054 0.403616
Si Si2 0.500000 0.868794 0.095897
Si Si3 0.882316 0.621925 0.094929
Si Si4 0.266132 0.203856 0.159866
O O1 0.896339 0.190640 0.367683
O O2 0.000000 0.141232 0.500000
O O3 0.000000 0.000000 0.386071
O O4 0.609585 0.824294 0.138086
O O5 0.500000 0.000000 0.102802
O O6 0.500000 0.843895 0.000000
O O7 0.872619 0.500000 0.127690
O O8 0.778884 0.693326 0.112266
O O9 0.000000 0.667650 0.124011
O O10 0.890330 0.615136 0.000000
O O11 0.237397 0.237397 0.250000
#
# Coordination Sequence:
#
# PCOD9566874 Si02
#       4
#     8   8  16  16
#     4  11  24  41  65  97 139 179 215 265 342 428
#     4  11  24  46  71  95 135 190 239 272 334 430
#     4   9  19  38  65  92 123 163 209 262 330 405
#     4  12  26  39  65  98 134 174 223 285 333 391
#
# _framework density 18.928521
#
# number of rings (size 3 to 8) (size 9 to 14) (size 15 to 20)
#    0.000    1.333    1.667    5.000    7.000    2.667 
#    0.000    0.833    0.000    3.000    0.000    0.000 
#    0.000    0.000    0.000    0.000    0.000    0.000 
#
# Total GULP energy -267792.353243 kJ/mol
# GULP energy per Si atom -5579.007359 kJ/mol
# Density = 1.888544 g / cm^3
# Si number density = 18.928521 Si / 1000 Ang^3
#
#
#
# Elastic Constant Matrix: (Units=GPa)
#
#
# Indices 1 2 3 4 5 6 
#
# 1 150.3810 92.3692 59.9522 0.0000 0.0000 0.0000
# 2 92.3692 150.3810 59.9522 0.0000 0.0000 0.0000
# 3 59.9522 59.9522 101.4610 0.0000 0.0000 0.0000
# 4 0.0000 0.0000 0.0000 29.2380 0.0000 0.0000
# 5 0.0000 0.0000 0.0000 0.0000 29.2380 0.0000
# 6 0.0000 0.0000 0.0000 0.0000 0.0000 39.4504
#
#
#
# Elastic Compliance Matrix: (Units=1/GPa)
#
#
# Indices 1 2 3 4 5 6 
#
# 1 0.011528 -0.005710 -0.003437 0.000000 0.000000 0.000000
# 2 -0.005710 0.011528 -0.003437 0.000000 0.000000 0.000000
# 3 -0.003437 -0.003437 0.013918 0.000000 0.000000 0.000000
# 4 0.000000 0.000000 0.000000 0.034202 0.000000 0.000000
# 5 0.000000 0.000000 0.000000 0.000000 0.034202 0.000000
# 6 0.000000 0.000000 0.000000 0.000000 0.000000 0.025348
#
#
# Mechanical properties :
#
#
# Convention : Reuss Voigt Hill
#
# Bulk Modulus (GPa) = 84.72195 91.86336 88.29265
# Shear Modulus (GPa) = 31.28316 32.24858 31.76587
#
# Velocity S-wave (km/s) = 4.06975 4.13207 4.10103
# Velocity P-wave (km/s) = 8.18168 8.45000 8.31692
#
# Compressibility (1/GPa) = 0.01180332
#
# Stress axis : x y z
#
# Youngs Moduli (GPa) = 86.74825 86.74825 71.84806
#
# Poissons Ratio (x) = 0.49536 0.24697
# Poissons Ratio (y) = 0.49536 0.24697
# Poissons Ratio (z) = 0.29819 0.29819
#
# Static dielectric constant tensor:
#      x y z
#    x 1.660420 0.000000 0.000000 
#    y 0.000000 1.660420 0.000000 
#    z 0.000000 0.000000 1.544940 
# 
# From -- ./inp_files/7085.got.cif
#   From: 2010.05.17/outbox.cif.g08.bks.cpg/sg131_4_cif.got.tgz:7085.got - 2010.05.20 12:21:01.
