data_PCOD9566470
_publ_section_title
;
Structure prediction by ZEFSAII (Michael W. Deem and Ramdas Pophale) SiO2 
 PCOD9566470
Probable space group: P 42/M M C
;
_chemical_formula_sum "Si O2"
_cell_formula_units_Z 96
_cell_length_a 25.999609
_cell_length_b 25.999609
_cell_length_c 8.904875
_cell_angle_alpha 90.000000
_cell_angle_beta 90.000000
_cell_angle_gamma 90.000000
_cell_volume 6019.514447
_symmetry_space_group_name_H-M "P 42/M M C"
_symmetry_group_IT_number 131
_symmetry_cell_setting 'tetragonal'
loop_
_space_group_symop_operation_xyz
x,y,z
-x,-y,z
-y,x,1/2+z
y,-x,1/2+z
-x,y,-z
x,-y,-z
y,x,1/2-z
-y,-x,1/2-z
-x,-y,-z
x,y,-z
y,-x,1/2-z
-y,x,1/2-z
x,-y,z
-x,y,z
-y,-x,1/2+z
y,x,1/2+z
loop_
_atom_site_type_symbol
_atom_site_label
_atom_site_fract_x
_atom_site_fract_y
_atom_site_fract_z
Si Si1 0.860782 0.060254 0.678873
Si Si2 0.668524 0.252614 0.679672
Si Si3 0.444414 0.248071 0.319694
Si Si4 0.134442 0.556407 0.679532
Si Si5 0.250282 0.060273 0.820621
Si Si6 0.337302 0.868415 0.320020
O O1 0.903943 0.096058 0.750000
O O2 0.858201 0.067762 0.500000
O O3 0.805541 0.072098 0.751715
O O4 0.871684 0.000000 0.708100
O O5 0.712681 0.287320 0.750000
O O6 0.673635 0.254869 0.500000
O O7 0.610708 0.272307 0.719942
O O8 0.670625 0.192015 0.722426
O O9 0.442423 0.238228 0.500000
O O10 0.500000 0.273834 0.288938
O O11 0.445289 0.193560 0.235317
O O12 0.132547 0.562059 0.500000
O O13 0.111949 0.500000 0.718622
O O14 0.113194 0.607345 0.757971
O O15 0.292765 0.096842 0.748649
O O16 0.261233 0.000000 0.788196
O O17 0.249027 0.066740 0.000000
O O18 0.337265 0.870986 0.500000
#
# Coordination Sequence:
#
# PCOD9566470 Si02
#       6
#    16  16  16  16  16  16
#     4  10  21  37  57  80 105 132 162 197 238 285
#     4   9  18  29  42  64  93 124 153 185 228 274
#     4   8  14  26  42  59  83 117 156 193 230 277
#     4   9  16  26  43  68  94 119 152 195 240 282
#     4  10  21  37  56  76  98 125 159 200 243 284
#     4  10  20  33  49  69  94 127 164 195 232 285
#
# _framework density 15.948130000000001
#
# number of rings (size 3 to 8) (size 9 to 14) (size 15 to 20)
#    0.000    2.667    0.000    3.000    0.000    7.167 
#    0.000    2.500    0.000    0.500    0.000    3.500 
#    0.000    0.333    0.000    4.167    0.000    0.167 
#
# Total GULP energy -534564.794029 kJ/mol
# GULP energy per Si atom -5568.383271 kJ/mol
# Density = 1.591183 g / cm^3
# Si number density = 15.948130 Si / 1000 Ang^3
#
#
#
# Elastic Constant Matrix: (Units=GPa)
#
#
# Indices 1 2 3 4 5 6 
#
# 1 100.5959 85.5404 51.5321 0.0000 0.0000 0.0000
# 2 85.5404 100.6109 51.5322 0.0000 0.0000 0.0000
# 3 51.5321 51.5322 49.0381 0.0000 0.0000 0.0000
# 4 0.0000 0.0000 0.0000 26.0659 0.0000 0.0000
# 5 0.0000 0.0000 0.0000 0.0000 26.0657 0.0000
# 6 0.0000 0.0000 0.0000 0.0000 0.0000 -5.3268
#
#
#
# Elastic Compliance Matrix: (Units=1/GPa)
#
#
# Indices 1 2 3 4 5 6 
#
# 1 0.039624 -0.026770 -0.013507 0.000000 0.000000 0.000000
# 2 -0.026770 0.039611 -0.013494 0.000000 0.000000 0.000000
# 3 -0.013507 -0.013494 0.048767 0.000000 0.000000 0.000000
# 4 0.000000 0.000000 0.000000 0.038364 0.000000 0.000000
# 5 0.000000 0.000000 0.000000 0.000000 0.038365 0.000000
# 6 0.000000 0.000000 0.000000 0.000000 0.000000 -0.187730
#
#
# Mechanical properties :
#
#
# Convention : Reuss Voigt Hill
#
# Bulk Modulus (GPa) = 48.87884 69.71715 59.29800
# Shear Modulus (GPa) = 38.06235 13.47030 25.76632
#
# Velocity S-wave (km/s) = 4.89062 2.90941 4.02385
# Velocity P-wave (km/s) = 7.91240 7.42267 7.67144
#
# Compressibility (1/GPa) = 0.02045875
#
# Stress axis : x y z
#
# Youngs Moduli (GPa) = 25.23731 25.24539 20.50576
#
# Poissons Ratio (x) = 0.67583 0.27698
# Poissons Ratio (y) = 0.67561 0.27670
# Poissons Ratio (z) = 0.34089 0.34066
#
# Static dielectric constant tensor:
#      x y z
#    x 1.538900 0.000000 0.000000 
#    y 0.000000 1.538900 0.000000 
#    z 0.000000 0.000000 1.529600 
# 
# From -- ./inp_files/2241.got.cif
#   From: 2010.05.17/outbox.cif.g08.bks.cpg/sg131_2_cif.got.tgz:2241.got - 2010.05.20 12:21:01.
