data_PCOD9566269
_publ_section_title
;
Structure prediction by ZEFSAII (Michael W. Deem and Ramdas Pophale) SiO2 
 PCOD9566269
Probable space group: P 42/M M C
;
_chemical_formula_sum "Si O2"
_cell_formula_units_Z 104
_cell_length_a 28.732888
_cell_length_b 28.732888
_cell_length_c 8.117184
_cell_angle_alpha 90.000000
_cell_angle_beta 90.000000
_cell_angle_gamma 90.000000
_cell_volume 6701.375455
_symmetry_space_group_name_H-M "P 42/M M C"
_symmetry_group_IT_number 131
_symmetry_cell_setting 'tetragonal'
loop_
_space_group_symop_operation_xyz
x,y,z
-x,-y,z
-y,x,1/2+z
y,-x,1/2+z
-x,y,-z
x,-y,-z
y,x,1/2-z
-y,-x,1/2-z
-x,-y,-z
x,y,-z
y,-x,1/2-z
-y,x,1/2-z
x,-y,z
-x,y,z
-y,-x,1/2+z
y,x,1/2+z
loop_
_atom_site_type_symbol
_atom_site_label
_atom_site_fract_x
_atom_site_fract_y
_atom_site_fract_z
Si Si1 0.500000 0.943328 0.189452
Si Si2 0.142719 0.644326 0.198935
Si Si3 0.397957 0.716722 0.196958
Si Si4 0.806467 0.448998 0.801138
Si Si5 0.053084 0.398143 0.698630
Si Si6 0.552881 0.624348 0.801296
Si Si7 0.695680 0.231900 0.695172
O O1 0.449621 0.931569 0.265203
O O2 0.500000 0.000000 0.183640
O O3 0.500000 0.926524 0.000000
O O4 0.163918 0.594904 0.258507
O O5 0.089519 0.641582 0.253880
O O6 0.179894 0.682934 0.258372
O O7 0.143301 0.644872 0.000000
O O8 0.437047 0.754090 0.247990
O O9 0.414460 0.666590 0.259400
O O10 0.348679 0.735550 0.261829
O O11 0.394531 0.715503 0.000000
O O12 0.821214 0.500000 0.741942
O O13 0.808407 0.448843 0.000000
O O14 0.052335 0.402101 0.500000
O O15 0.000000 0.389521 0.753166
O O16 0.576291 0.576291 0.750000
O O17 0.500000 0.629473 0.742329
O O18 0.552155 0.626984 0.000000
O O19 0.742353 0.257648 0.750000
O O20 0.697477 0.228613 0.500000
#
# Coordination Sequence:
#
# PCOD9566269 Si02
#       7
#     8  16  16  16  16  16  16
#     4   7  12  24  39  55  77 105 137 175 213 241
#     4   9  19  31  43  62  86 111 139 172 212 255
#     4  10  19  32  50  69  86 104 128 156 189 235
#     4   9  18  31  44  60  86 114 136 165 204 243
#     4   9  17  29  44  61  83 112 147 184 216 248
#     4  10  22  37  50  65  82  97 116 144 176 216
#     4  10  20  34  50  68  90 112 135 166 204 247
#
# _framework density 15.519201000000001
#
# number of rings (size 3 to 8) (size 9 to 14) (size 15 to 20)
#    0.000    2.692    0.000    3.692    1.077    7.231 
#    0.000    0.769    0.000    1.385    0.000    0.000 
#    0.000    0.000    0.000    0.000    0.000    0.000 
#
# Total GULP energy -579694.200194 kJ/mol
# GULP energy per Si atom -5573.982694 kJ/mol
# Density = 1.548388 g / cm^3
# Si number density = 15.519201 Si / 1000 Ang^3
#
#
#
# Elastic Constant Matrix: (Units=GPa)
#
#
# Indices 1 2 3 4 5 6 
#
# 1 79.1513 38.3219 7.7954 0.0000 0.0000 0.0000
# 2 38.3219 79.1523 7.7938 0.0000 0.0000 0.0000
# 3 7.7954 7.7938 11.7060 0.0000 0.0000 0.0000
# 4 0.0000 0.0000 0.0000 16.7684 0.0000 0.0000
# 5 0.0000 0.0000 0.0000 0.0000 16.7682 0.0000
# 6 0.0000 0.0000 0.0000 0.0000 0.0000 17.7430
#
#
#
# Elastic Compliance Matrix: (Units=1/GPa)
#
#
# Indices 1 2 3 4 5 6 
#
# 1 0.016915 -0.007577 -0.006219 0.000000 0.000000 0.000000
# 2 -0.007577 0.016914 -0.006216 0.000000 0.000000 0.000000
# 3 -0.006219 -0.006216 0.093707 0.000000 0.000000 0.000000
# 4 0.000000 0.000000 0.000000 0.059636 0.000000 0.000000
# 5 0.000000 0.000000 0.000000 0.000000 0.059637 0.000000
# 6 0.000000 0.000000 0.000000 0.000000 0.000000 0.056360
#
#
# Mechanical properties :
#
#
# Convention : Reuss Voigt Hill
#
# Bulk Modulus (GPa) = 11.42706 30.87021 21.14863
# Shear Modulus (GPa) = 13.42771 17.99582 15.71176
#
# Velocity S-wave (km/s) = 2.94467 3.40896 3.18529
# Velocity P-wave (km/s) = 4.35208 5.95227 5.21393
#
# Compressibility (1/GPa) = 0.08751159
#
# Stress axis : x y z
#
# Youngs Moduli (GPa) = 59.11877 59.12118 10.67159
#
# Poissons Ratio (x) = 0.44797 0.06637
# Poissons Ratio (y) = 0.44795 0.06633
# Poissons Ratio (z) = 0.36769 0.36749
#
# Static dielectric constant tensor:
#      x y z
#    x 1.543460 0.000000 0.000000 
#    y 0.000000 1.543460 0.000000 
#    z 0.000000 0.000000 1.555180 
# 
# From -- ./inp_files/2583.got.cif
#   From: 2010.05.17/outbox.cif.g08.bks.cpg/sg131_2_cif.got.tgz:2583.got - 2010.05.20 12:21:01.
