data_PCOD9566993
_publ_section_title
;
Structure prediction by ZEFSAII (Michael W. Deem and Ramdas Pophale) SiO2 
 PCOD9566993
Probable space group: P 42/M C M
;
_chemical_formula_sum "Si O2"
_cell_formula_units_Z 80
_cell_length_a 17.713865
_cell_length_b 17.713865
_cell_length_c 18.533118
_cell_angle_alpha 90.000000
_cell_angle_beta 90.000000
_cell_angle_gamma 90.000000
_cell_volume 5815.340545
_symmetry_space_group_name_H-M "P 42/M C M"
_symmetry_group_IT_number 132
_symmetry_cell_setting 'tetragonal'
loop_
_space_group_symop_operation_xyz
x,y,z
-y,x,1/2+z
-x,-y,z
y,-x,1/2+z
x,-y,1/2-z
-x,y,1/2-z
y,x,-z
-y,-x,-z
-x,-y,-z
y,-x,1/2-z
x,y,-z
-y,x,1/2-z
-x,y,1/2+z
x,-y,1/2+z
-y,-x,z
y,x,z
loop_
_atom_site_type_symbol
_atom_site_label
_atom_site_fract_x
_atom_site_fract_y
_atom_site_fract_z
Si Si1 0.630697 0.128483 0.913318
Si Si2 0.391668 0.608333 0.085833
Si Si3 0.409720 0.983967 0.666884
Si Si4 0.267874 0.267874 0.412482
Si Si5 0.474846 0.832906 0.666355
Si Si6 0.463745 0.339494 0.829410
O O1 0.697932 0.186220 0.890675
O O2 0.550879 0.158397 0.881220
O O3 0.634669 0.043348 0.882391
O O4 0.627174 0.127697 0.000000
O O5 0.329906 0.670095 0.110795
O O6 0.367965 0.527410 0.115794
O O7 0.391752 0.608249 0.000000
O O8 0.411064 0.895213 0.649389
O O9 0.500000 0.000000 0.659586
O O10 0.389287 0.000000 0.750000
O O11 0.266774 0.266774 0.500000
O O12 0.500000 0.845627 0.750000
O O13 0.446863 0.748117 0.658840
O O14 0.500000 0.347564 0.750000
O O15 0.390895 0.390895 0.834501
#
# Coordination Sequence:
#
# PCOD9566993 Si02
#       6
#    16   8  16   8  16  16
#     4  10  18  29  47  66  86 115 147 181 227 274
#     4  11  21  34  47  58  80 114 152 197 242 267
#     4   9  15  28  43  62  85 112 140 180 225 267
#     4   9  18  31  44  67  94 112 141 188 228 262
#     4  10  18  30  43  61  87 116 146 188 233 271
#     4  11  22  33  45  62  84 116 158 200 233 268
#
# _framework density 13.756717999999999
#
# number of rings (size 3 to 8) (size 9 to 14) (size 15 to 20)
#    0.000    2.000    7.000    0.300    0.000    4.400 
#    0.000    0.000    0.000    0.000    0.000    0.000 
#    0.000    0.000    0.000    0.900    0.400    5.600 
#
# Total GULP energy -445444.239421 kJ/mol
# GULP energy per Si atom -5568.052993 kJ/mol
# Density = 1.372541 g / cm^3
# Si number density = 13.756718 Si / 1000 Ang^3
#
#
#
# Elastic Constant Matrix: (Units=GPa)
#
#
# Indices 1 2 3 4 5 6 
#
# 1 89.3975 68.3387 28.3312 0.0000 0.0000 0.0000
# 2 68.3387 89.3970 28.3307 0.0000 0.0000 0.0000
# 3 28.3312 28.3307 60.1465 0.0000 0.0000 0.0000
# 4 0.0000 0.0000 0.0000 14.8535 0.0000 0.0000
# 5 0.0000 0.0000 0.0000 0.0000 14.8536 0.0000
# 6 0.0000 0.0000 0.0000 0.0000 0.0000 15.2093
#
#
#
# Elastic Compliance Matrix: (Units=1/GPa)
#
#
# Indices 1 2 3 4 5 6 
#
# 1 0.027559 -0.019928 -0.003595 0.000000 0.000000 0.000000
# 2 -0.019928 0.027559 -0.003594 0.000000 0.000000 0.000000
# 3 -0.003595 -0.003594 0.020012 0.000000 0.000000 0.000000
# 4 0.000000 0.000000 0.000000 0.067324 0.000000 0.000000
# 5 0.000000 0.000000 0.000000 0.000000 0.067324 0.000000
# 6 0.000000 0.000000 0.000000 0.000000 0.000000 0.065749
#
#
# Mechanical properties :
#
#
# Convention : Reuss Voigt Hill
#
# Bulk Modulus (GPa) = 47.85511 54.32692 51.09101
# Shear Modulus (GPa) = 14.84888 16.57930 15.71409
#
# Velocity S-wave (km/s) = 3.28897 3.47533 3.38344
# Velocity P-wave (km/s) = 7.02035 7.46196 7.24452
#
# Compressibility (1/GPa) = 0.02089641
#
# Stress axis : x y z
#
# Youngs Moduli (GPa) = 36.28618 36.28618 49.96950
#
# Poissons Ratio (x) = 0.72310 0.17962
# Poissons Ratio (y) = 0.72310 0.17960
# Poissons Ratio (z) = 0.13043 0.13042
#
# Static dielectric constant tensor:
#      x y z
#    x 1.466070 0.000000 0.000000 
#    y 0.000000 1.466070 0.000000 
#    z 0.000000 0.000000 1.462440 
# 
# From -- ./inp_files/8000.got.cif
#   From: 2010.05.17/outbox.cif.g08.bks.cpg/sg132_4_cif.got.tgz:8000.got - 2010.05.20 12:30:18.
