data_PCOD9566193
_publ_section_title
;
Structure prediction by ZEFSAII (Michael W. Deem and Ramdas Pophale) SiO2 
 PCOD9566193
Probable space group: P 42/M M C
;
_chemical_formula_sum "Si O2"
_cell_formula_units_Z 120
_cell_length_a 29.094071
_cell_length_b 29.094071
_cell_length_c 8.543074
_cell_angle_alpha 90.000000
_cell_angle_beta 90.000000
_cell_angle_gamma 90.000000
_cell_volume 7231.412855
_symmetry_space_group_name_H-M "P 42/M M C"
_symmetry_group_IT_number 131
_symmetry_cell_setting 'tetragonal'
loop_
_space_group_symop_operation_xyz
x,y,z
-x,-y,z
-y,x,1/2+z
y,-x,1/2+z
-x,y,-z
x,-y,-z
y,x,1/2-z
-y,-x,1/2-z
-x,-y,-z
x,y,-z
y,-x,1/2-z
-y,x,1/2-z
x,-y,z
-x,y,z
-y,-x,1/2+z
y,x,1/2+z
loop_
_atom_site_type_symbol
_atom_site_label
_atom_site_fract_x
_atom_site_fract_y
_atom_site_fract_z
Si Si1 0.674051 0.049514 0.308458
Si Si2 0.000000 0.443666 0.682889
Si Si3 0.637869 0.149821 0.313240
Si Si4 0.780333 0.845586 0.176711
Si Si5 0.935636 0.775041 0.179133
Si Si6 0.050982 0.876344 0.313586
Si Si7 0.102492 0.553686 0.310858
Si Si8 0.299206 0.769917 0.176065
O O1 0.672248 0.050718 0.500000
O O2 0.658461 0.100293 0.253093
O O3 0.727316 0.045214 0.259399
O O4 0.652116 0.000000 0.259983
O O5 0.949072 0.432399 0.749549
O O6 0.000000 0.500000 0.682064
O O7 0.000000 0.429516 0.500000
O O8 0.641740 0.149847 0.500000
O O9 0.585367 0.142160 0.260151
O O10 0.662432 0.196587 0.254145
O O11 0.826947 0.826947 0.250000
O O12 0.764539 0.881935 0.302768
O O13 0.743975 0.804850 0.167976
O O14 0.786013 0.863984 0.000000
O O15 0.944228 0.822932 0.264670
O O16 0.948882 0.781044 0.000000
O O17 0.091196 0.908805 0.250000
O O18 0.052438 0.878686 0.500000
O O19 0.000000 0.891682 0.259269
O O20 0.101900 0.558558 0.500000
O O21 0.108996 0.500000 0.275014
O O22 0.276413 0.723587 0.250000
O O23 0.314347 0.759077 0.000000
#
# Coordination Sequence:
#
# PCOD9566193 Si02
#       8
#    16   8  16  16  16  16  16  16
#     4   9  19  33  47  66  94 126 155 187 229 276
#     4   7  12  26  47  67  89 121 161 205 249 295
#     4  11  21  33  51  73 100 128 163 204 249 298
#     4  10  19  30  46  67  91 115 142 173 207 249
#     4  11  20  34  55  73  94 119 145 171 205 254
#     4  11  25  43  61  80  98 114 137 169 206 255
#     4   9  18  33  51  70  95 129 170 212 255 302
#     4  10  20  34  52  72  98 126 159 195 237 287
#
# _framework density 16.594268
#
# number of rings (size 3 to 8) (size 9 to 14) (size 15 to 20)
#    0.000    2.067    1.333    3.600    0.933    3.067 
#    0.000    0.667    0.000    3.600    0.000    0.000 
#    0.000    0.000    0.000    0.000    0.000    0.000 
#
# Total GULP energy -668031.725867 kJ/mol
# GULP energy per Si atom -5566.931049 kJ/mol
# Density = 1.655650 g / cm^3
# Si number density = 16.594268 Si / 1000 Ang^3
#
#
#
# Elastic Constant Matrix: (Units=GPa)
#
#
# Indices 1 2 3 4 5 6 
#
# 1 52.5791 48.2619 22.3570 0.0000 0.0000 0.0000
# 2 48.2619 52.5822 22.3580 0.0000 0.0000 0.0000
# 3 22.3570 22.3580 44.5256 0.0000 0.0000 0.0000
# 4 0.0000 0.0000 0.0000 78.2362 0.0000 0.0000
# 5 0.0000 0.0000 0.0000 0.0000 78.2138 0.0000
# 6 0.0000 0.0000 0.0000 0.0000 0.0000 29.7630
#
#
#
# Elastic Compliance Matrix: (Units=1/GPa)
#
#
# Indices 1 2 3 4 5 6 
#
# 1 0.122154 -0.109395 -0.006405 0.000000 0.000000 0.000000
# 2 -0.109395 0.122148 -0.006406 0.000000 0.000000 0.000000
# 3 -0.006405 -0.006406 0.028892 0.000000 0.000000 0.000000
# 4 0.000000 0.000000 0.000000 0.012782 0.000000 0.000000
# 5 0.000000 0.000000 0.000000 0.000000 0.012785 0.000000
# 6 0.000000 0.000000 0.000000 0.000000 0.000000 0.033599
#
#
# Mechanical properties :
#
#
# Convention : Reuss Voigt Hill
#
# Bulk Modulus (GPa) = 34.74247 37.29340 36.01793
# Shear Modulus (GPa) = 8.52710 41.02329 24.77520
#
# Velocity S-wave (km/s) = 2.26930 4.97745 3.86812
# Velocity P-wave (km/s) = 5.27714 7.45358 6.45771
#
# Compressibility (1/GPa) = 0.02878322
#
# Stress axis : x y z
#
# Youngs Moduli (GPa) = 8.18636 8.18677 34.61199
#
# Poissons Ratio (x) = 0.89559 0.22167
# Poissons Ratio (y) = 0.89554 0.22174
# Poissons Ratio (z) = 0.05243 0.05245
#
# Static dielectric constant tensor:
#      x y z
#    x 1.526100 0.000000 0.000000 
#    y 0.000000 1.526100 0.000000 
#    z 0.000000 0.000000 1.591050 
# 
# From -- ./inp_files/2659.got.cif
#   From: 2010.05.17/outbox.cif.g08.bks.cpg/sg131_2_cif.got.tgz:2659.got - 2010.05.20 12:21:01.
