data_PCOD9566991
_publ_section_title
;
Structure prediction by ZEFSAII (Michael W. Deem and Ramdas Pophale) SiO2 
 PCOD9566991
Probable space group: P 42/M C M
;
_chemical_formula_sum "Si O2"
_cell_formula_units_Z 96
_cell_length_a 21.251566
_cell_length_b 21.251566
_cell_length_c 16.011844
_cell_angle_alpha 90.000000
_cell_angle_beta 90.000000
_cell_angle_gamma 90.000000
_cell_volume 7231.414014
_symmetry_space_group_name_H-M "P 42/M C M"
_symmetry_group_IT_number 132
_symmetry_cell_setting 'tetragonal'
loop_
_space_group_symop_operation_xyz
x,y,z
-y,x,1/2+z
-x,-y,z
y,-x,1/2+z
x,-y,1/2-z
-x,y,1/2-z
y,x,-z
-y,-x,-z
-x,-y,-z
y,-x,1/2-z
x,y,-z
-y,x,1/2-z
-x,y,1/2+z
x,-y,1/2+z
-y,-x,z
y,x,z
loop_
_atom_site_type_symbol
_atom_site_label
_atom_site_fract_x
_atom_site_fract_y
_atom_site_fract_z
Si Si1 0.081243 0.647493 0.908641
Si Si2 0.884281 0.015527 0.095886
Si Si3 0.802441 0.903303 0.834586
Si Si4 0.783262 0.882616 0.360753
Si Si5 0.069870 0.664783 0.594906
Si Si6 0.076538 0.427448 0.754088
O O1 0.113141 0.714835 0.898174
O O2 0.099428 0.605578 0.830248
O O3 0.006131 0.659944 0.903205
O O4 0.094206 0.619846 0.000000
O O5 0.946891 0.053110 0.126476
O O6 0.829724 0.067897 0.096116
O O7 0.853657 0.958156 0.146729
O O8 0.895243 0.995927 0.000000
O O9 0.838393 0.838393 0.855024
O O10 0.784745 0.902244 0.736810
O O11 0.737118 0.913571 0.882999
O O12 0.814861 0.814861 0.368198
O O13 0.090181 0.650152 0.500000
O O14 0.093269 0.615017 0.664917
O O15 0.096821 0.500000 0.750000
O O16 0.000000 0.427614 0.750000
#
# Coordination Sequence:
#
# PCOD9566991 Si02
#       6
#    16  16  16  16  16  16
#     4  10  18  29  47  64  80 102 129 160 200 248
#     4  10  20  31  42  57  75  98 133 174 214 253
#     4  11  21  31  44  59  77 105 140 171 206 253
#     4  10  19  30  44  59  77 101 132 170 206 247
#     4  10  19  30  45  62  82 105 129 160 199 245
#     4   9  18  31  46  63  83 101 121 153 195 247
#
# _framework density 13.275411
#
# number of rings (size 3 to 8) (size 9 to 14) (size 15 to 20)
#    0.000    2.000    3.333    1.500    0.000    3.333 
#    0.000    4.167    0.000    3.000    0.000    0.000 
#    0.000    0.000    0.000    0.000    0.000    0.000 
#
# Total GULP energy -535108.759089 kJ/mol
# GULP energy per Si atom -5574.049574 kJ/mol
# Density = 1.324520 g / cm^3
# Si number density = 13.275411 Si / 1000 Ang^3
#
#
#
# Elastic Constant Matrix: (Units=GPa)
#
#
# Indices 1 2 3 4 5 6 
#
# 1 50.3027 20.8028 36.4904 0.0000 0.0000 0.0000
# 2 20.8028 50.3027 36.4904 0.0000 0.0000 0.0000
# 3 36.4904 36.4904 105.1031 0.0000 0.0000 0.0000
# 4 0.0000 0.0000 0.0000 -3.6369 0.0000 0.0000
# 5 0.0000 0.0000 0.0000 0.0000 -3.6369 0.0000
# 6 0.0000 0.0000 0.0000 0.0000 0.0000 5.5418
#
#
#
# Elastic Compliance Matrix: (Units=1/GPa)
#
#
# Indices 1 2 3 4 5 6 
#
# 1 0.027874 -0.006024 -0.007586 0.000000 0.000000 0.000000
# 2 -0.006024 0.027874 -0.007586 0.000000 0.000000 0.000000
# 3 -0.007586 -0.007586 0.014782 0.000000 0.000000 0.000000
# 4 0.000000 0.000000 0.000000 -0.274960 0.000000 0.000000
# 5 0.000000 0.000000 0.000000 0.000000 -0.274960 0.000000
# 6 0.000000 0.000000 0.000000 0.000000 0.000000 0.180448
#
#
# Mechanical properties :
#
#
# Convention : Reuss Voigt Hill
#
# Bulk Modulus (GPa) = 35.53974 43.69730 39.61852
# Shear Modulus (GPa) = -20.22897 7.11524 -6.55686
#
# Velocity S-wave (km/s) = -3.90781 2.31762 -2.22482
# Velocity P-wave (km/s) = 2.54320 6.33634 4.82789
#
# Compressibility (1/GPa) = 0.02813752
#
# Stress axis : x y z
#
# Youngs Moduli (GPa) = 35.87569 35.87569 67.65021
#
# Poissons Ratio (x) = 0.21613 0.51319
# Poissons Ratio (y) = 0.21613 0.51319
# Poissons Ratio (z) = 0.27215 0.27215
#
# Static dielectric constant tensor:
#      x y z
#    x 1.418710 0.000000 0.000000 
#    y 0.000000 1.418710 0.000000 
#    z 0.000000 0.000000 1.484710 
# 
# From -- ./inp_files/4976.got.cif
#   From: 2010.05.17/outbox.cif.g08.bks.cpg/sg132_3_cif.got.tgz:4976.got - 2010.05.20 12:30:18.
