data_PCOD9566859
_publ_section_title
;
Structure prediction by ZEFSAII (Michael W. Deem and Ramdas Pophale) SiO2 
 PCOD9566859
Probable space group: P 42/M M C
;
_chemical_formula_sum "Si O2"
_cell_formula_units_Z 58
_cell_length_a 11.675423
_cell_length_b 11.675423
_cell_length_c 25.788130
_cell_angle_alpha 90.000000
_cell_angle_beta 90.000000
_cell_angle_gamma 90.000000
_cell_volume 3515.321892
_symmetry_space_group_name_H-M "P 42/M M C"
_symmetry_group_IT_number 131
_symmetry_cell_setting 'tetragonal'
loop_
_space_group_symop_operation_xyz
x,y,z
-x,-y,z
-y,x,1/2+z
y,-x,1/2+z
-x,y,-z
x,-y,-z
y,x,1/2-z
-y,-x,1/2-z
-x,-y,-z
x,y,-z
y,-x,1/2-z
-y,x,1/2-z
x,-y,z
-x,y,z
-y,-x,1/2+z
y,x,1/2+z
loop_
_atom_site_type_symbol
_atom_site_label
_atom_site_fract_x
_atom_site_fract_y
_atom_site_fract_z
Si Si1 0.000000 0.000000 0.750000
Si Si2 0.233761 0.000000 0.315036
Si Si3 0.365476 0.365476 0.750000
Si Si4 0.743736 0.226522 0.841129
Si Si5 0.362337 0.866817 0.940355
Si Si6 0.363162 0.000000 0.211305
O O1 0.000000 0.885708 0.783754
O O2 0.234648 0.119576 0.344944
O O3 0.334490 0.000000 0.272234
O O4 0.344807 0.500000 0.742100
O O5 0.322964 0.300076 0.698637
O O6 0.690207 0.217614 0.898098
O O7 0.698255 0.110702 0.813043
O O8 0.500000 0.862712 0.936506
O O9 0.328990 0.000000 0.929442
O O10 0.331063 0.841975 0.000000
O O11 0.500000 0.000000 0.201240
#
# Coordination Sequence:
#
# PCOD9566859 Si02
#       6
#     2   8   8  16  16   8
#     4  12  16  36  40  60 114 148 168 216 256 310
#     4  12  22  32  49  76 110 148 181 212 269 327
#     4  11  23  36  53  81 114 142 176 227 277 318
#     4  12  21  34  53  78 109 144 178 223 269 329
#     4   9  18  33  53  77 103 136 183 233 274 317
#     4  12  20  32  53  76 104 143 185 215 261 327
#
# _framework density 16.499199000000001
#
# number of rings (size 3 to 8) (size 9 to 14) (size 15 to 20)
#    0.000    0.966    6.897    3.310    0.000    0.000 
#    0.000    0.690    0.000    2.483    0.000    3.862 
#    0.000    3.310    0.000    0.000    0.000    0.000 
#
# Total GULP energy -323659.009918 kJ/mol
# GULP energy per Si atom -5580.327757 kJ/mol
# Density = 1.646165 g / cm^3
# Si number density = 16.499199 Si / 1000 Ang^3
#
#
#
# Elastic Constant Matrix: (Units=GPa)
#
#
# Indices 1 2 3 4 5 6 
#
# 1 68.2580 34.7441 28.7760 0.0000 0.0000 0.0000
# 2 34.7441 68.2580 28.7760 0.0000 0.0000 0.0000
# 3 28.7760 28.7760 110.4138 0.0000 0.0000 0.0000
# 4 0.0000 0.0000 0.0000 11.3623 0.0000 0.0000
# 5 0.0000 0.0000 0.0000 0.0000 11.3623 0.0000
# 6 0.0000 0.0000 0.0000 0.0000 0.0000 13.3790
#
#
#
# Elastic Compliance Matrix: (Units=1/GPa)
#
#
# Indices 1 2 3 4 5 6 
#
# 1 0.020601 -0.009238 -0.002961 0.000000 0.000000 0.000000
# 2 -0.009238 0.020601 -0.002961 0.000000 0.000000 0.000000
# 3 -0.002961 -0.002961 0.010600 0.000000 0.000000 0.000000
# 4 0.000000 0.000000 0.000000 0.088011 0.000000 0.000000
# 5 0.000000 0.000000 0.000000 0.000000 0.088011 0.000000
# 6 0.000000 0.000000 0.000000 0.000000 0.000000 0.074744
#
#
# Mechanical properties :
#
#
# Convention : Reuss Voigt Hill
#
# Bulk Modulus (GPa) = 46.55267 47.94690 47.24978
# Shear Modulus (GPa) = 14.70377 17.52961 16.11669
#
# Velocity S-wave (km/s) = 2.98850 3.26306 3.12880
# Velocity P-wave (km/s) = 6.33913 6.58179 6.46160
#
# Compressibility (1/GPa) = 0.02148105
#
# Stress axis : x y z
#
# Youngs Moduli (GPa) = 48.54173 48.54173 94.33525
#
# Poissons Ratio (x) = 0.44841 0.27937
# Poissons Ratio (y) = 0.44841 0.27937
# Poissons Ratio (z) = 0.14376 0.14376
#
# Static dielectric constant tensor:
#      x y z
#    x 1.923660 0.000000 0.000000 
#    y 0.000000 1.923660 0.000000 
#    z 0.000000 0.000000 1.562180 
# 
# From -- ./inp_files/10730.got.cif
#   From: 2010.05.17/outbox.cif.g08.bks.cpg/sg131_6_cif.got.tgz:10730.got - 2010.05.20 12:21:01.
