data_PCOD9566430
_publ_section_title
;
Structure prediction by ZEFSAII (Michael W. Deem and Ramdas Pophale) SiO2 
 PCOD9566430
Probable space group: P 42/M M C
;
_chemical_formula_sum "Si O2"
_cell_formula_units_Z 64
_cell_length_a 20.189340
_cell_length_b 20.189340
_cell_length_c 8.639463
_cell_angle_alpha 90.000000
_cell_angle_beta 90.000000
_cell_angle_gamma 90.000000
_cell_volume 3521.526759
_symmetry_space_group_name_H-M "P 42/M M C"
_symmetry_group_IT_number 131
_symmetry_cell_setting 'tetragonal'
loop_
_space_group_symop_operation_xyz
x,y,z
-x,-y,z
-y,x,1/2+z
y,-x,1/2+z
-x,y,-z
x,-y,-z
y,x,1/2-z
-y,-x,1/2-z
-x,-y,-z
x,y,-z
y,-x,1/2-z
-y,x,1/2-z
x,-y,z
-x,y,z
-y,-x,1/2+z
y,x,1/2+z
loop_
_atom_site_type_symbol
_atom_site_label
_atom_site_fract_x
_atom_site_fract_y
_atom_site_fract_z
Si Si1 0.675712 0.576961 0.185631
Si Si2 0.680959 0.073731 0.683102
Si Si3 0.319757 0.217996 0.184313
Si Si4 0.926111 0.824957 0.321378
O O1 0.607785 0.607785 0.250000
O O2 0.683196 0.500000 0.225313
O O3 0.733427 0.622341 0.257015
O O4 0.677321 0.583991 0.000000
O O5 0.668651 0.078196 0.500000
O O6 0.662126 0.143547 0.761286
O O7 0.758944 0.072501 0.720276
O O8 0.655763 0.000000 0.735848
O O9 0.251115 0.251115 0.250000
O O10 0.314893 0.219603 0.000000
O O11 0.874857 0.874857 0.250000
O O12 0.909925 0.807654 0.500000
O O13 0.000000 0.853838 0.320086
#
# Coordination Sequence:
#
# PCOD9566430 Si02
#       4
#    16  16  16  16
#     4  10  21  37  58  85 117 151 186 222 260 307
#     4  10  20  34  52  73  99 131 169 216 269 322
#     4  11  21  34  55  80 109 143 181 225 270 321
#     4  10  20  32  45  62  86 117 156 203 255 313
#
# _framework density 18.173936000000001
#
# number of rings (size 3 to 8) (size 9 to 14) (size 15 to 20)
#    0.000    1.750    0.000    6.750    0.000    5.500 
#    0.000    2.500    0.000    0.750    0.000    5.250 
#    0.000    0.000    0.000    0.000    0.000    0.000 
#
# Total GULP energy -356861.189300 kJ/mol
# GULP energy per Si atom -5575.956083 kJ/mol
# Density = 1.813257 g / cm^3
# Si number density = 18.173936 Si / 1000 Ang^3
#
#
#
# Elastic Constant Matrix: (Units=GPa)
#
#
# Indices 1 2 3 4 5 6 
#
# 1 97.5440 35.0968 34.3744 0.0000 0.0000 0.0000
# 2 35.0968 97.5440 34.3744 0.0000 0.0000 0.0000
# 3 34.3744 34.3744 87.4879 0.0000 0.0000 0.0000
# 4 0.0000 0.0000 0.0000 16.7356 0.0000 0.0000
# 5 0.0000 0.0000 0.0000 0.0000 16.7356 0.0000
# 6 0.0000 0.0000 0.0000 0.0000 0.0000 15.4576
#
#
#
# Elastic Compliance Matrix: (Units=1/GPa)
#
#
# Indices 1 2 3 4 5 6 
#
# 1 0.012740 -0.003273 -0.003720 0.000000 0.000000 0.000000
# 2 -0.003273 0.012740 -0.003720 0.000000 0.000000 0.000000
# 3 -0.003720 -0.003720 0.014353 0.000000 0.000000 0.000000
# 4 0.000000 0.000000 0.000000 0.059753 0.000000 0.000000
# 5 0.000000 0.000000 0.000000 0.000000 0.059753 0.000000
# 6 0.000000 0.000000 0.000000 0.000000 0.000000 0.064693
#
#
# Mechanical properties :
#
#
# Convention : Reuss Voigt Hill
#
# Bulk Modulus (GPa) = 54.32239 54.47415 54.39827
# Shear Modulus (GPa) = 19.87333 21.70114 20.78723
#
# Velocity S-wave (km/s) = 3.31041 3.45930 3.38567
# Velocity P-wave (km/s) = 6.67585 6.78192 6.72909
#
# Compressibility (1/GPa) = 0.01840862
#
# Stress axis : x y z
#
# Youngs Moduli (GPa) = 78.49107 78.49107 69.67133
#
# Poissons Ratio (x) = 0.25692 0.25915
# Poissons Ratio (y) = 0.25692 0.25915
# Poissons Ratio (z) = 0.29196 0.29196
#
# Static dielectric constant tensor:
#      x y z
#    x 1.773830 0.000000 0.000000 
#    y 0.000000 1.773830 0.000000 
#    z 0.000000 0.000000 1.646370 
# 
# From -- ./inp_files/1607.got.cif
#   From: 2010.05.17/outbox.cif.g08.bks.cpg/sg131_1_cif.got.tgz:1607.got - 2010.05.20 12:21:01.
