data_PCOD9566318
_publ_section_title
;
Structure prediction by ZEFSAII (Michael W. Deem and Ramdas Pophale) SiO2 
 PCOD9566318
Probable space group: P 42/M M C
;
_chemical_formula_sum "Si O2"
_cell_formula_units_Z 96
_cell_length_a 14.950603
_cell_length_b 14.950603
_cell_length_c 23.347518
_cell_angle_alpha 90.000000
_cell_angle_beta 90.000000
_cell_angle_gamma 90.000000
_cell_volume 5218.649599
_symmetry_space_group_name_H-M "P 42/M M C"
_symmetry_group_IT_number 131
_symmetry_cell_setting 'tetragonal'
loop_
_space_group_symop_operation_xyz
x,y,z
-x,-y,z
-y,x,1/2+z
y,-x,1/2+z
-x,y,-z
x,-y,-z
y,x,1/2-z
-y,-x,1/2-z
-x,-y,-z
x,y,-z
y,-x,1/2-z
-y,x,1/2-z
x,-y,z
-x,y,z
-y,-x,1/2+z
y,x,1/2+z
loop_
_atom_site_type_symbol
_atom_site_label
_atom_site_fract_x
_atom_site_fract_y
_atom_site_fract_z
Si Si1 0.397744 0.500000 0.069369
Si Si2 0.893033 0.599333 0.721237
Si Si3 0.144251 0.101402 0.683316
Si Si4 0.395877 0.000000 0.068184
Si Si5 0.740559 0.345339 0.931263
Si Si6 0.101581 0.355746 0.847707
Si Si7 0.721161 0.152253 0.874356
O O1 0.500000 0.500000 0.090754
O O2 0.340393 0.411993 0.084833
O O3 0.402019 0.500000 0.000000
O O4 0.878646 0.500000 0.697784
O O5 0.872155 0.598961 0.788166
O O6 0.837464 0.672317 0.686922
O O7 0.000000 0.620713 0.716319
O O8 0.123889 0.123889 0.750000
O O9 0.250505 0.101850 0.669864
O O10 0.112314 0.181362 0.641793
O O11 0.111931 0.000000 0.672234
O O12 0.342356 0.915300 0.091951
O O13 0.500000 0.000000 0.085724
O O14 0.393354 0.000000 0.000000
O O15 0.830230 0.375102 0.898398
O O16 0.725694 0.244711 0.908504
O O17 0.750545 0.346415 0.000000
O O18 0.000000 0.380440 0.862549
#
# Coordination Sequence:
#
# PCOD9566318 Si02
#       7
#     8  16  16   8  16  16  16
#     4   9  20  40  61  81 109 147 200 256 291 340
#     4  10  19  32  54  86 118 149 181 228 300 358
#     4  10  20  34  53  81 115 156 199 241 284 333
#     4  11  24  40  61  89 119 151 187 239 305 366
#     4  10  22  38  59  84 113 156 202 243 298 354
#     4   9  19  35  57  85 119 151 192 244 297 358
#     4  11  21  37  59  84 123 152 193 243 295 352
#
# _framework density 18.395562999999999
#
# number of rings (size 3 to 8) (size 9 to 14) (size 15 to 20)
#    0.000    2.000    2.500    1.000    2.333    1.833 
#    0.000    1.667    0.000    3.500    0.000    0.000 
#    0.000    0.000    0.000    0.000    0.000    0.000 
#
# Total GULP energy -535369.655674 kJ/mol
# GULP energy per Si atom -5576.767247 kJ/mol
# Density = 1.835369 g / cm^3
# Si number density = 18.395563 Si / 1000 Ang^3
#
#
#
# Elastic Constant Matrix: (Units=GPa)
#
#
# Indices 1 2 3 4 5 6 
#
# 1 104.8508 49.6296 56.0491 0.0000 0.0000 0.0000
# 2 49.6296 104.8508 56.0491 0.0000 0.0000 0.0000
# 3 56.0491 56.0491 99.8408 0.0000 0.0000 0.0000
# 4 0.0000 0.0000 0.0000 22.0457 0.0000 0.0000
# 5 0.0000 0.0000 0.0000 0.0000 22.0457 0.0000
# 6 0.0000 0.0000 0.0000 0.0000 0.0000 4.5931
#
#
#
# Elastic Compliance Matrix: (Units=1/GPa)
#
#
# Indices 1 2 3 4 5 6 
#
# 1 0.014516 -0.003593 -0.006132 0.000000 0.000000 0.000000
# 2 -0.003593 0.014516 -0.006132 0.000000 0.000000 0.000000
# 3 -0.006132 -0.006132 0.016901 0.000000 0.000000 0.000000
# 4 0.000000 0.000000 0.000000 0.045360 0.000000 0.000000
# 5 0.000000 0.000000 0.000000 0.000000 0.045360 0.000000
# 6 0.000000 0.000000 0.000000 0.000000 0.000000 0.217718
#
#
# Mechanical properties :
#
#
# Convention : Reuss Voigt Hill
#
# Bulk Modulus (GPa) = 70.32970 70.33310 70.33140
# Shear Modulus (GPa) = 12.79345 19.59123 16.19234
#
# Velocity S-wave (km/s) = 2.64003 3.26697 2.97009
# Velocity P-wave (km/s) = 6.89985 7.24897 7.07656
#
# Compressibility (1/GPa) = 0.01421874
#
# Stress axis : x y z
#
# Youngs Moduli (GPa) = 68.88962 68.88962 59.16896
#
# Poissons Ratio (x) = 0.24752 0.36282
# Poissons Ratio (y) = 0.24752 0.36282
# Poissons Ratio (z) = 0.42243 0.42243
#
# Static dielectric constant tensor:
#      x y z
#    x 1.654580 0.000000 0.000000 
#    y 0.000000 1.654580 0.000000 
#    z 0.000000 0.000000 1.624050 
# 
# From -- ./inp_files/11190.got.cif
#   From: 2010.05.17/outbox.cif.g08.bks.cpg/sg131_6_cif.got.tgz:11190.got - 2010.05.20 12:21:01.
