data_PCOD9566103
_publ_section_title
;
Structure prediction by ZEFSAII (Michael W. Deem and Ramdas Pophale) SiO2 
 PCOD9566103
Probable space group: P 42/M M C
;
_chemical_formula_sum "Si O2"
_cell_formula_units_Z 112
_cell_length_a 14.863690
_cell_length_b 14.863690
_cell_length_c 30.621189
_cell_angle_alpha 90.000000
_cell_angle_beta 90.000000
_cell_angle_gamma 90.000000
_cell_volume 6765.117251
_symmetry_space_group_name_H-M "P 42/M M C"
_symmetry_group_IT_number 131
_symmetry_cell_setting 'tetragonal'
loop_
_space_group_symop_operation_xyz
x,y,z
-x,-y,z
-y,x,1/2+z
y,-x,1/2+z
-x,y,-z
x,-y,-z
y,x,1/2-z
-y,-x,1/2-z
-x,-y,-z
x,y,-z
y,-x,1/2-z
-y,x,1/2-z
x,-y,z
-x,y,z
-y,-x,1/2+z
y,x,1/2+z
loop_
_atom_site_type_symbol
_atom_site_label
_atom_site_fract_x
_atom_site_fract_y
_atom_site_fract_z
Si Si1 0.898745 0.779108 0.119009
Si Si2 0.394610 0.105787 0.667696
Si Si3 0.147678 0.897428 0.200161
Si Si4 0.107380 0.788694 0.549432
Si Si5 0.892568 0.597343 0.421051
Si Si6 0.639616 0.102196 0.818976
Si Si7 0.754990 0.602061 0.246390
O O1 0.872138 0.676576 0.129791
O O2 0.896070 0.830476 0.165530
O O3 0.839570 0.834493 0.085235
O O4 0.000000 0.778655 0.102201
O O5 0.500000 0.113170 0.655766
O O6 0.377292 0.175365 0.706969
O O7 0.379074 0.000000 0.680249
O O8 0.131956 0.868045 0.250000
O O9 0.253377 0.896917 0.188800
O O10 0.114901 0.000000 0.194903
O O11 0.119119 0.821897 0.500000
O O12 0.136254 0.684436 0.552526
O O13 0.000000 0.794461 0.560088
O O14 0.853585 0.500000 0.432517
O O15 0.880695 0.616539 0.369477
O O16 0.000000 0.592367 0.427933
O O17 0.602587 0.180819 0.788749
O O18 0.608264 0.000000 0.808077
O O19 0.676952 0.676952 0.250000
O O20 0.719710 0.500000 0.240160
#
# Coordination Sequence:
#
# PCOD9566103 Si02
#       7
#    16  16  16  16  16  16  16
#     4  11  21  34  53  74 101 138 174 210 253 300
#     4   9  19  36  56  77  99 127 170 222 270 310
#     4  11  21  31  45  70 106 142 175 209 245 291
#     4  10  21  36  52  74 106 141 174 207 246 301
#     4   9  17  30  49  73  99 129 166 208 254 298
#     4  10  18  30  49  72  99 129 165 211 256 295
#     4  11  22  33  48  71 101 138 174 207 246 298
#
# _framework density 16.555513999999999
#
# number of rings (size 3 to 8) (size 9 to 14) (size 15 to 20)
#    0.000    1.857    1.429    3.857    0.000    6.286 
#    0.000    2.143    0.000    0.429    0.000    2.000 
#    0.000    0.000    0.000    1.286    0.000    0.143 
#
# Total GULP energy -624758.359014 kJ/mol
# GULP energy per Si atom -5578.199634 kJ/mol
# Density = 1.651783 g / cm^3
# Si number density = 16.555514 Si / 1000 Ang^3
#
#
#
# Elastic Constant Matrix: (Units=GPa)
#
#
# Indices 1 2 3 4 5 6 
#
# 1 84.2049 44.1692 36.3501 0.0000 0.0000 0.0000
# 2 44.1692 84.2053 36.3501 0.0000 0.0000 0.0000
# 3 36.3501 36.3501 64.9558 0.0000 0.0000 0.0000
# 4 0.0000 0.0000 0.0000 -8.6698 0.0000 0.0000
# 5 0.0000 0.0000 0.0000 0.0000 -8.6702 0.0000
# 6 0.0000 0.0000 0.0000 0.0000 0.0000 19.2492
#
#
#
# Elastic Compliance Matrix: (Units=1/GPa)
#
#
# Indices 1 2 3 4 5 6 
#
# 1 0.018191 -0.006787 -0.006382 0.000000 0.000000 0.000000
# 2 -0.006787 0.018191 -0.006382 0.000000 0.000000 0.000000
# 3 -0.006382 -0.006382 0.022538 0.000000 0.000000 0.000000
# 4 0.000000 0.000000 0.000000 -0.115343 0.000000 0.000000
# 5 0.000000 0.000000 0.000000 0.000000 -0.115338 0.000000
# 6 0.000000 0.000000 0.000000 0.000000 0.000000 0.051950
#
#
# Mechanical properties :
#
#
# Convention : Reuss Voigt Hill
#
# Bulk Modulus (GPa) = 50.45817 51.90053 51.17935
# Shear Modulus (GPa) = -67.47217 8.14828 -29.66194
#
# Velocity S-wave (km/s) = -6.39090 2.22092 -4.23740
# Velocity P-wave (km/s) = 4.89017 6.16393 2.65333
#
# Compressibility (1/GPa) = 0.01981839
#
# Stress axis : x y z
#
# Youngs Moduli (GPa) = 54.97312 54.97343 44.37024
#
# Poissons Ratio (x) = 0.37310 0.28316
# Poissons Ratio (y) = 0.37310 0.28316
# Poissons Ratio (z) = 0.35082 0.35082
#
# Static dielectric constant tensor:
#      x y z
#    x 1.580740 0.000000 0.000000 
#    y 0.000000 1.580740 0.000000 
#    z 0.000000 0.000000 1.548170 
# 
# From -- ./inp_files/12481.got.cif
#   From: 2010.05.17/outbox.cif.g08.bks.cpg/sg131_7_cif.got.tgz:12481.got - 2010.05.20 12:21:01.
