data_PCOD9566558
_publ_section_title
;
Structure prediction by ZEFSAII (Michael W. Deem and Ramdas Pophale) SiO2 
 PCOD9566558
Probable space group: P 42/M M C
;
_chemical_formula_sum "Si O2"
_cell_formula_units_Z 104
_cell_length_a 17.802923
_cell_length_b 17.802923
_cell_length_c 18.045252
_cell_angle_alpha 90.000000
_cell_angle_beta 90.000000
_cell_angle_gamma 90.000000
_cell_volume 5719.335565
_symmetry_space_group_name_H-M "P 42/M M C"
_symmetry_group_IT_number 131
_symmetry_cell_setting 'tetragonal'
loop_
_space_group_symop_operation_xyz
x,y,z
-x,-y,z
-y,x,1/2+z
y,-x,1/2+z
-x,y,-z
x,-y,-z
y,x,1/2-z
-y,-x,1/2-z
-x,-y,-z
x,y,-z
y,-x,1/2-z
-y,x,1/2-z
x,-y,z
-x,y,z
-y,-x,1/2+z
y,x,1/2+z
loop_
_atom_site_type_symbol
_atom_site_label
_atom_site_fract_x
_atom_site_fract_y
_atom_site_fract_z
Si Si1 0.747964 0.194113 0.085472
Si Si2 0.914801 0.199595 0.718589
Si Si3 0.582618 0.263751 0.883037
Si Si4 0.582195 0.363273 0.419893
Si Si5 0.417994 0.245006 0.712176
Si Si6 0.306147 0.869684 0.651264
Si Si7 0.000000 0.412401 0.088381
O O1 0.766147 0.133754 0.150304
O O2 0.661322 0.223518 0.094976
O O3 0.811968 0.258479 0.099630
O O4 0.755283 0.168036 0.000000
O O5 0.874753 0.125247 0.750000
O O6 0.912209 0.253056 0.790795
O O7 0.000000 0.187688 0.694747
O O8 0.500000 0.228122 0.899611
O O9 0.584587 0.346199 0.917436
O O10 0.585802 0.276067 0.794646
O O11 0.584235 0.322801 0.500000
O O12 0.500000 0.399814 0.414046
O O13 0.589273 0.306402 0.351843
O O14 0.500000 0.209123 0.702524
O O15 0.354040 0.185367 0.702476
O O16 0.363479 0.927260 0.612741
O O17 0.000000 0.500000 0.115803
O O18 0.000000 0.416102 0.000000
#
# Coordination Sequence:
#
# PCOD9566558 Si02
#       7
#    16  16  16  16  16  16   8
#     4  11  23  38  62  92 123 159 201 252 303 354
#     4  10  22  41  68  96 121 156 195 234 288 354
#     4  11  22  36  56  81 112 157 213 263 304 349
#     4  10  21  34  50  75 108 149 197 254 319 368
#     4  10  20  34  55  79 109 151 197 249 299 354
#     4  11  20  38  62  87 121 158 200 241 295 360
#     4  11  24  38  58  92 130 162 196 245 306 372
#
# _framework density 18.183931000000001
#
# number of rings (size 3 to 8) (size 9 to 14) (size 15 to 20)
#    0.000    1.462    3.846    1.846    0.000    2.615 
#    0.000    2.308    0.000    2.769    0.000    3.231 
#    0.000    0.000    0.000    0.000    0.000    0.000 
#
# Total GULP energy -579258.812185 kJ/mol
# GULP energy per Si atom -5569.796271 kJ/mol
# Density = 1.814254 g / cm^3
# Si number density = 18.183931 Si / 1000 Ang^3
#
#
#
# Elastic Constant Matrix: (Units=GPa)
#
#
# Indices 1 2 3 4 5 6 
#
# 1 107.6768 53.0925 32.5301 0.0000 0.0000 0.0000
# 2 53.0925 107.6782 32.5308 0.0000 0.0000 0.0000
# 3 32.5301 32.5308 104.5758 0.0000 0.0000 0.0000
# 4 0.0000 0.0000 0.0000 19.5594 0.0000 0.0000
# 5 0.0000 0.0000 0.0000 0.0000 19.5596 0.0000
# 6 0.0000 0.0000 0.0000 0.0000 0.0000 61.2315
#
#
#
# Elastic Compliance Matrix: (Units=1/GPa)
#
#
# Indices 1 2 3 4 5 6 
#
# 1 0.012718 -0.005602 -0.002213 0.000000 0.000000 0.000000
# 2 -0.005602 0.012718 -0.002214 0.000000 0.000000 0.000000
# 3 -0.002213 -0.002214 0.010940 0.000000 0.000000 0.000000
# 4 0.000000 0.000000 0.000000 0.051126 0.000000 0.000000
# 5 0.000000 0.000000 0.000000 0.000000 0.051126 0.000000
# 6 0.000000 0.000000 0.000000 0.000000 0.000000 0.016331
#
#
# Mechanical properties :
#
#
# Convention : Reuss Voigt Hill
#
# Bulk Modulus (GPa) = 61.28526 61.80418 61.54472
# Shear Modulus (GPa) = 27.70753 33.52193 30.61473
#
# Velocity S-wave (km/s) = 3.90774 4.29825 4.10764
# Velocity P-wave (km/s) = 7.35777 7.66129 7.51106
#
# Compressibility (1/GPa) = 0.01631714
#
# Stress axis : x y z
#
# Youngs Moduli (GPa) = 78.62856 78.62933 91.41120
#
# Poissons Ratio (x) = 0.44049 0.20234
# Poissons Ratio (y) = 0.44049 0.20235
# Poissons Ratio (z) = 0.17404 0.17405
#
# Static dielectric constant tensor:
#      x y z
#    x 1.644120 0.000000 0.000000 
#    y 0.000000 1.644120 0.000000 
#    z 0.000000 0.000000 1.626750 
# 
# From -- ./inp_files/8098.got.cif
#   From: 2010.05.17/outbox.cif.g08.bks.cpg/sg131_5_cif.got.tgz:8098.got - 2010.05.20 12:21:01.
