data_PCOD9566981
_publ_section_title
;
Structure prediction by ZEFSAII (Michael W. Deem and Ramdas Pophale) SiO2 
 PCOD9566981
Probable space group: P 42/M C M
;
_chemical_formula_sum "Si O2"
_cell_formula_units_Z 80
_cell_length_a 23.205355
_cell_length_b 23.205355
_cell_length_c 10.299268
_cell_angle_alpha 90.000000
_cell_angle_beta 90.000000
_cell_angle_gamma 90.000000
_cell_volume 5546.037383
_symmetry_space_group_name_H-M "P 42/M C M"
_symmetry_group_IT_number 132
_symmetry_cell_setting 'tetragonal'
loop_
_space_group_symop_operation_xyz
x,y,z
-y,x,1/2+z
-x,-y,z
y,-x,1/2+z
x,-y,1/2-z
-x,y,1/2-z
y,x,-z
-y,-x,-z
-x,-y,-z
y,-x,1/2-z
x,y,-z
-y,x,1/2-z
-x,y,1/2+z
x,-y,1/2+z
-y,-x,z
y,x,z
loop_
_atom_site_type_symbol
_atom_site_label
_atom_site_fract_x
_atom_site_fract_y
_atom_site_fract_z
Si Si1 0.077513 0.828103 0.500000
Si Si2 0.950848 0.854308 0.500000
Si Si3 0.236756 0.064329 0.732570
Si Si4 0.717319 0.814249 0.652748
Si Si5 0.744729 0.646152 0.853933
Si Si6 0.447319 0.349681 0.152044
O O1 0.131859 0.868142 0.500000
O O2 0.077989 0.789598 0.372214
O O3 0.018963 0.865890 0.500000
O O4 0.908786 0.908786 0.500000
O O5 0.940022 0.814566 0.373641
O O6 0.273620 0.118761 0.686497
O O7 0.263201 0.000000 0.750000
O O8 0.704496 0.807869 0.500000
O O9 0.776131 0.776131 0.676457
O O10 0.667923 0.788043 0.744371
O O11 0.695010 0.695010 0.857884
O O12 0.709978 0.587555 0.826309
O O13 0.769895 0.643323 0.000000
O O14 0.500000 0.355051 0.250000
O O15 0.401627 0.401627 0.171130
O O16 0.464884 0.351086 0.000000
#
# Coordination Sequence:
#
# PCOD9566981 Si02
#       6
#     8   8  16  16  16  16
#     4  10  20  29  40  58  74  98 139 175 212 268
#     4  10  18  31  44  52  74 104 131 175 224 260
#     4  10  20  31  42  58  81 107 136 177 225 274
#     4  10  18  28  45  64  83 109 142 181 227 279
#     4   8  16  30  45  65  91 117 148 188 229 264
#     4   9  18  32  48  68  99 135 168 201 229 251
#
# _framework density 14.424714
#
# number of rings (size 3 to 8) (size 9 to 14) (size 15 to 20)
#    0.000    2.600    1.000    3.000    1.400    1.600 
#    0.000    3.000    0.000    3.600    0.000    0.000 
#    0.000    0.800    0.000    6.200    0.000    2.600 
#
# Total GULP energy -445420.746173 kJ/mol
# GULP energy per Si atom -5567.759327 kJ/mol
# Density = 1.439188 g / cm^3
# Si number density = 14.424714 Si / 1000 Ang^3
#
#
#
# Elastic Constant Matrix: (Units=GPa)
#
#
# Indices 1 2 3 4 5 6 
#
# 1 56.3022 37.9055 48.4882 0.0000 0.0000 0.0000
# 2 37.9055 56.3010 48.4875 0.0000 0.0000 0.0000
# 3 48.4882 48.4875 117.0221 0.0000 0.0000 0.0000
# 4 0.0000 0.0000 0.0000 22.6909 0.0000 0.0000
# 5 0.0000 0.0000 0.0000 0.0000 22.6903 0.0000
# 6 0.0000 0.0000 0.0000 0.0000 0.0000 15.0468
#
#
#
# Elastic Compliance Matrix: (Units=1/GPa)
#
#
# Indices 1 2 3 4 5 6 
#
# 1 0.036434 -0.017925 -0.007670 0.000000 0.000000 0.000000
# 2 -0.017925 0.036435 -0.007669 0.000000 0.000000 0.000000
# 3 -0.007670 -0.007669 0.014901 0.000000 0.000000 0.000000
# 4 0.000000 0.000000 0.000000 0.044070 0.000000 0.000000
# 5 0.000000 0.000000 0.000000 0.000000 0.044072 0.000000
# 6 0.000000 0.000000 0.000000 0.000000 0.000000 0.066459
#
#
# Mechanical properties :
#
#
# Convention : Reuss Voigt Hill
#
# Bulk Modulus (GPa) = 47.07502 55.48754 51.28128
# Shear Modulus (GPa) = 15.82378 18.40187 17.11283
#
# Velocity S-wave (km/s) = 3.31568 3.57559 3.44809
# Velocity P-wave (km/s) = 6.88216 7.45634 7.17500
#
# Compressibility (1/GPa) = 0.02124269
#
# Stress axis : x y z
#
# Youngs Moduli (GPa) = 27.44674 27.44628 67.10922
#
# Poissons Ratio (x) = 0.49197 0.51470
# Poissons Ratio (y) = 0.49197 0.51469
# Poissons Ratio (z) = 0.21050 0.21050
#
# Static dielectric constant tensor:
#      x y z
#    x 1.467030 0.000000 0.000000 
#    y 0.000000 1.467030 0.000000 
#    z 0.000000 0.000000 1.482280 
# 
# From -- ./inp_files/1657.got.cif
#   From: 2010.05.17/outbox.cif.g08.bks.cpg/sg132_1_cif.got.tgz:1657.got - 2010.05.20 12:30:18.
