data_PCOD9566159
_publ_section_title
;
Structure prediction by ZEFSAII (Michael W. Deem and Ramdas Pophale) SiO2 
 PCOD9566159
Probable space group: P 42/M M C
;
_chemical_formula_sum "Si O2"
_cell_formula_units_Z 96
_cell_length_a 14.314195
_cell_length_b 14.314195
_cell_length_c 33.104380
_cell_angle_alpha 90.000000
_cell_angle_beta 90.000000
_cell_angle_gamma 90.000000
_cell_volume 6782.960954
_symmetry_space_group_name_H-M "P 42/M M C"
_symmetry_group_IT_number 131
_symmetry_cell_setting 'tetragonal'
loop_
_space_group_symop_operation_xyz
x,y,z
-x,-y,z
-y,x,1/2+z
y,-x,1/2+z
-x,y,-z
x,-y,-z
y,x,1/2-z
-y,-x,1/2-z
-x,-y,-z
x,y,-z
y,-x,1/2-z
-y,x,1/2-z
x,-y,z
-x,y,z
-y,-x,1/2+z
y,x,1/2+z
loop_
_atom_site_type_symbol
_atom_site_label
_atom_site_fract_x
_atom_site_fract_y
_atom_site_fract_z
Si Si1 0.105910 0.275577 0.689842
Si Si2 0.613199 0.110885 0.410694
Si Si3 0.113182 0.607637 0.000000
Si Si4 0.898316 0.898316 0.750000
Si Si5 0.606409 0.387544 0.795109
Si Si6 0.112233 0.608177 0.232857
Si Si7 0.772761 0.700773 0.161597
O O1 0.104693 0.184710 0.718570
O O2 0.130483 0.358816 0.721247
O O3 0.190213 0.254231 0.659759
O O4 0.000000 0.289713 0.674270
O O5 0.500000 0.121326 0.408489
O O6 0.646038 0.138877 0.455991
O O7 0.662016 0.172544 0.376803
O O8 0.631705 0.000000 0.404614
O O9 0.145013 0.500000 0.000000
O O10 0.000000 0.605726 0.000000
O O11 0.000000 0.892633 0.770689
O O12 0.640391 0.359610 0.750000
O O13 0.605152 0.500000 0.794543
O O14 0.500000 0.354948 0.800623
O O15 0.676487 0.352196 0.828752
O O16 0.140289 0.500000 0.226395
O O17 0.163173 0.674542 0.200683
O O18 0.000000 0.614944 0.227108
#
# Coordination Sequence:
#
# PCOD9566159 Si02
#       7
#    16  16   8   8  16  16  16
#     4  10  20  31  39  53  78 111 144 173 208 243
#     4   9  17  28  44  67  91 109 126 156 201 252
#     4   7  12  26  44  62  88 114 126 141 188 258
#     4   9  16  28  42  50  64  99 142 172 196 233
#     4   9  18  30  41  55  80 114 148 176 202 238
#     4  10  19  29  41  58  81 106 133 170 216 256
#     4  12  19  26  42  63  80 105 138 180 210 236
#
# _framework density 14.153112
#
# number of rings (size 3 to 8) (size 9 to 14) (size 15 to 20)
#    0.000    2.333    1.667    4.500    0.000    4.000 
#    0.000    0.000    0.000    0.000    0.000    1.167 
#    0.000    5.333    0.000    0.000    0.000    9.583 
#
# Total GULP energy -534725.636634 kJ/mol
# GULP energy per Si atom -5570.058715 kJ/mol
# Density = 1.412090 g / cm^3
# Si number density = 14.153112 Si / 1000 Ang^3
#
#
#
# Elastic Constant Matrix: (Units=GPa)
#
#
# Indices 1 2 3 4 5 6 
#
# 1 62.4506 16.0567 35.0711 0.0000 0.0000 0.0000
# 2 16.0567 62.4503 35.0712 0.0000 0.0000 0.0000
# 3 35.0711 35.0712 86.3086 0.0000 0.0000 0.0000
# 4 0.0000 0.0000 0.0000 15.6889 0.0000 0.0000
# 5 0.0000 0.0000 0.0000 0.0000 15.6889 0.0000
# 6 0.0000 0.0000 0.0000 0.0000 0.0000 16.6280
#
#
#
# Elastic Compliance Matrix: (Units=1/GPa)
#
#
# Indices 1 2 3 4 5 6 
#
# 1 0.020776 -0.000778 -0.008126 0.000000 0.000000 0.000000
# 2 -0.000778 0.020776 -0.008126 0.000000 0.000000 0.000000
# 3 -0.008126 -0.008126 0.018190 0.000000 0.000000 0.000000
# 4 0.000000 0.000000 0.000000 0.063739 0.000000 0.000000
# 5 0.000000 0.000000 0.000000 0.000000 0.063739 0.000000
# 6 0.000000 0.000000 0.000000 0.000000 0.000000 0.060140
#
#
# Mechanical properties :
#
#
# Convention : Reuss Voigt Hill
#
# Bulk Modulus (GPa) = 38.93794 42.62306 40.78050
# Shear Modulus (GPa) = 17.24239 17.93518 17.58879
#
# Velocity S-wave (km/s) = 3.49417 3.56367 3.52909
# Velocity P-wave (km/s) = 6.62198 6.86397 6.74406
#
# Compressibility (1/GPa) = 0.02568189
#
# Stress axis : x y z
#
# Youngs Moduli (GPa) = 48.13195 48.13162 54.97426
#
# Poissons Ratio (x) = 0.03746 0.44672
# Poissons Ratio (y) = 0.03746 0.44673
# Poissons Ratio (z) = 0.39112 0.39112
#
# Static dielectric constant tensor:
#      x y z
#    x 1.497500 0.000000 0.000000 
#    y 0.000000 1.497500 0.000000 
#    z 0.000000 0.000000 1.453150 
# 
# From -- ./inp_files/13769.got.cif
#   From: 2010.05.17/outbox.cif.g08.bks.cpg/sg131_7_cif.got.tgz:13769.got - 2010.05.20 12:21:01.
