data_PCOD9566095
_publ_section_title
;
Structure prediction by ZEFSAII (Michael W. Deem and Ramdas Pophale) SiO2 
 PCOD9566095
Probable space group: P 42/M M C
;
_chemical_formula_sum "Si O2"
_cell_formula_units_Z 104
_cell_length_a 23.376739
_cell_length_b 23.376739
_cell_length_c 16.011201
_cell_angle_alpha 90.000000
_cell_angle_beta 90.000000
_cell_angle_gamma 90.000000
_cell_volume 8749.671852
_symmetry_space_group_name_H-M "P 42/M M C"
_symmetry_group_IT_number 131
_symmetry_cell_setting 'tetragonal'
loop_
_space_group_symop_operation_xyz
x,y,z
-x,-y,z
-y,x,1/2+z
y,-x,1/2+z
-x,y,-z
x,-y,-z
y,x,1/2-z
-y,-x,1/2-z
-x,-y,-z
x,y,-z
y,-x,1/2-z
-y,x,1/2-z
x,-y,z
-x,y,z
-y,-x,1/2+z
y,x,1/2+z
loop_
_atom_site_type_symbol
_atom_site_label
_atom_site_fract_x
_atom_site_fract_y
_atom_site_fract_z
Si Si1 0.933628 0.755447 0.366155
Si Si2 0.565560 0.930189 0.261870
Si Si3 0.883284 0.874084 0.596830
Si Si4 0.933569 0.225933 0.831898
Si Si5 0.066129 0.000000 0.898251
Si Si6 0.374517 0.069439 0.908142
Si Si7 0.347146 0.069569 0.593957
O O1 0.894654 0.806537 0.398930
O O2 0.932333 0.758277 0.265723
O O3 0.916530 0.692323 0.395213
O O4 0.000000 0.765257 0.392570
O O5 0.500000 0.912802 0.274842
O O6 0.589248 0.911180 0.171652
O O7 0.607953 0.911319 0.335777
O O8 0.566723 0.000000 0.261729
O O9 0.875306 0.891420 0.500000
O O10 0.828988 0.895712 0.647793
O O11 0.942042 0.902861 0.629601
O O12 0.914536 0.282357 0.881954
O O13 0.000000 0.213210 0.853997
O O14 0.000000 0.000000 0.873527
O O15 0.068989 0.000000 0.000000
O O16 0.377231 0.000000 0.907532
O O17 0.393903 0.088747 0.000000
O O18 0.361492 0.087932 0.500000
O O19 0.348000 0.000000 0.595488
#
# Coordination Sequence:
#
# PCOD9566095 Si02
#       7
#    16  16  16  16   8  16  16
#     4  10  18  30  43  53  70  90 115 145 178 214
#     4   9  16  26  39  57  78  95 110 132 159 192
#     4  11  20  29  41  56  69  86 116 148 183 228
#     4  10  19  30  43  54  70  91 116 146 182 220
#     4   9  18  30  40  50  68  86 106 148 195 230
#     4   9  16  26  41  57  73  95 115 134 163 200
#     4   9  16  27  41  56  73  94 116 137 164 203
#
# _framework density 11.88616
#
# number of rings (size 3 to 8) (size 9 to 14) (size 15 to 20)
#    0.000    2.385    2.308    1.846    0.000    2.769 
#    0.000    3.077    0.000    0.000    0.000    0.000 
#    0.000    0.000    0.000    0.000    0.000    0.000 
#
# Total GULP energy -579709.649956 kJ/mol
# GULP energy per Si atom -5574.131250 kJ/mol
# Density = 1.185911 g / cm^3
# Si number density = 11.886160 Si / 1000 Ang^3
#
#
#
# Elastic Constant Matrix: (Units=GPa)
#
#
# Indices 1 2 3 4 5 6 
#
# 1 47.6497 11.7644 20.7243 0.0000 0.0000 0.0000
# 2 11.7644 47.6497 20.7243 0.0000 0.0000 0.0000
# 3 20.7243 20.7243 73.8322 0.0000 0.0000 0.0000
# 4 0.0000 0.0000 0.0000 9.1219 0.0000 0.0000
# 5 0.0000 0.0000 0.0000 0.0000 9.1219 0.0000
# 6 0.0000 0.0000 0.0000 0.0000 0.0000 2.6660
#
#
#
# Elastic Compliance Matrix: (Units=1/GPa)
#
#
# Indices 1 2 3 4 5 6 
#
# 1 0.024398 -0.003469 -0.005875 0.000000 0.000000 0.000000
# 2 -0.003469 0.024398 -0.005875 0.000000 0.000000 0.000000
# 3 -0.005875 -0.005875 0.016842 0.000000 0.000000 0.000000
# 4 0.000000 0.000000 0.000000 0.109626 0.000000 0.000000
# 5 0.000000 0.000000 0.000000 0.000000 0.109626 0.000000
# 6 0.000000 0.000000 0.000000 0.000000 0.000000 0.375098
#
#
# Mechanical properties :
#
#
# Convention : Reuss Voigt Hill
#
# Bulk Modulus (GPa) = 28.40752 30.61753 29.51252
# Shear Modulus (GPa) = 7.12090 11.90987 9.51538
#
# Velocity S-wave (km/s) = 2.45029 3.16886 2.83246
# Velocity P-wave (km/s) = 5.65303 6.26130 5.96492
#
# Compressibility (1/GPa) = 0.03520195
#
# Stress axis : x y z
#
# Youngs Moduli (GPa) = 40.98701 40.98701 59.37448
#
# Poissons Ratio (x) = 0.14217 0.34881
# Poissons Ratio (y) = 0.14217 0.34881
# Poissons Ratio (z) = 0.24079 0.24079
#
# Static dielectric constant tensor:
#      x y z
#    x 1.362760 0.000000 0.000000 
#    y 0.000000 1.362760 0.000000 
#    z 0.000000 0.000000 1.428780 
# 
# From -- ./inp_files/6401.got.cif
#   From: 2010.05.17/outbox.cif.g08.bks.cpg/sg131_4_cif.got.tgz:6401.got - 2010.05.20 12:21:01.
