data_PCOD9566263
_publ_section_title
;
Structure prediction by ZEFSAII (Michael W. Deem and Ramdas Pophale) SiO2 
 PCOD9566263
Probable space group: P 42/M M C
;
_chemical_formula_sum "Si O2"
_cell_formula_units_Z 120
_cell_length_a 28.541722
_cell_length_b 28.541722
_cell_length_c 8.638518
_cell_angle_alpha 90.000000
_cell_angle_beta 90.000000
_cell_angle_gamma 90.000000
_cell_volume 7037.195009
_symmetry_space_group_name_H-M "P 42/M M C"
_symmetry_group_IT_number 131
_symmetry_cell_setting 'tetragonal'
loop_
_space_group_symop_operation_xyz
x,y,z
-x,-y,z
-y,x,1/2+z
y,-x,1/2+z
-x,y,-z
x,-y,-z
y,x,1/2-z
-y,-x,1/2-z
-x,-y,-z
x,y,-z
y,-x,1/2-z
-y,x,1/2-z
x,-y,z
-x,y,z
-y,-x,1/2+z
y,x,1/2+z
loop_
_atom_site_type_symbol
_atom_site_label
_atom_site_fract_x
_atom_site_fract_y
_atom_site_fract_z
Si Si1 0.767280 0.053932 0.688403
Si Si2 0.121507 0.580426 0.685090
Si Si3 0.784691 0.715016 0.679679
Si Si4 0.682394 0.118845 0.684039
Si Si5 0.445969 0.227883 0.189016
Si Si6 0.295111 0.634766 0.320980
Si Si7 0.945676 0.872157 0.813266
Si Si8 0.945400 0.500000 0.185668
O O1 0.767341 0.055278 0.500000
O O2 0.724376 0.085572 0.740532
O O3 0.819555 0.068703 0.737518
O O4 0.760670 0.000000 0.734248
O O5 0.120858 0.575381 0.500000
O O6 0.109945 0.633207 0.733490
O O7 0.175213 0.569241 0.737049
O O8 0.084047 0.544643 0.755447
O O9 0.761213 0.761213 0.750000
O O10 0.797727 0.721418 0.500000
O O11 0.828621 0.698195 0.777345
O O12 0.745277 0.674542 0.685329
O O13 0.676408 0.112799 0.500000
O O14 0.500000 0.235408 0.232041
O O15 0.411125 0.268893 0.245831
O O16 0.442976 0.228016 0.000000
O O17 0.341260 0.658741 0.250000
O O18 0.305725 0.625067 0.500000
O O19 0.911383 0.911383 0.750000
O O20 0.000000 0.879412 0.766759
O O21 0.944513 0.873134 0.000000
O O22 0.000000 0.500000 0.237581
O O23 0.945451 0.500000 0.000000
#
# Coordination Sequence:
#
# PCOD9566263 Si02
#       8
#    16  16  16  16  16  16  16   8
#     4   8  17  35  54  70  93 129 168 204 248 303
#     4  11  21  37  58  79 105 136 177 226 274 329
#     4  10  19  32  48  70 102 137 173 212 257 310
#     4  11  21  33  53  79 105 136 175 219 268 319
#     4   9  16  30  53  77 101 137 179 219 261 311
#     4   9  17  30  48  71 101 137 173 209 255 307
#     4   9  18  34  55  77 102 132 165 202 249 308
#     4  11  25  43  59  79 107 137 175 227 288 347
#
# _framework density 17.052249
#
# number of rings (size 3 to 8) (size 9 to 14) (size 15 to 20)
#    0.000    2.333    2.000    2.200    0.000    2.533 
#    0.000    4.667    0.000    2.800    0.000    0.000 
#    0.000    0.267    0.000    3.333    0.000    0.000 
#
# Total GULP energy -669017.440748 kJ/mol
# GULP energy per Si atom -5575.145340 kJ/mol
# Density = 1.701344 g / cm^3
# Si number density = 17.052249 Si / 1000 Ang^3
#
#
#
# Elastic Constant Matrix: (Units=GPa)
#
#
# Indices 1 2 3 4 5 6 
#
# 1 111.1976 90.6491 23.6375 0.0000 0.0000 0.0000
# 2 90.6491 111.1990 23.6376 0.0000 0.0000 0.0000
# 3 23.6375 23.6376 21.5567 0.0000 0.0000 0.0000
# 4 0.0000 0.0000 0.0000 23.6559 0.0000 0.0000
# 5 0.0000 0.0000 0.0000 0.0000 23.6557 0.0000
# 6 0.0000 0.0000 0.0000 0.0000 0.0000 21.9910
#
#
#
# Elastic Compliance Matrix: (Units=1/GPa)
#
#
# Indices 1 2 3 4 5 6 
#
# 1 0.027665 -0.020999 -0.007310 0.000000 0.000000 0.000000
# 2 -0.020999 0.027665 -0.007310 0.000000 0.000000 0.000000
# 3 -0.007310 -0.007310 0.062420 0.000000 0.000000 0.000000
# 4 0.000000 0.000000 0.000000 0.042273 0.000000 0.000000
# 5 0.000000 0.000000 0.000000 0.000000 0.042273 0.000000
# 6 0.000000 0.000000 0.000000 0.000000 0.000000 0.045473
#
#
# Mechanical properties :
#
#
# Convention : Reuss Voigt Hill
#
# Bulk Modulus (GPa) = 21.49917 57.75573 39.62745
# Shear Modulus (GPa) = 14.94725 20.92912 17.93818
#
# Velocity S-wave (km/s) = 2.96388 3.50716 3.24690
# Velocity P-wave (km/s) = 4.93437 7.09532 6.11112
#
# Compressibility (1/GPa) = 0.04651342
#
# Stress axis : x y z
#
# Youngs Moduli (GPa) = 36.14651 36.14702 16.02056
#
# Poissons Ratio (x) = 0.75904 0.11711
# Poissons Ratio (y) = 0.75903 0.11710
# Poissons Ratio (z) = 0.26422 0.26422
#
# Static dielectric constant tensor:
#      x y z
#    x 1.572870 0.000000 0.000000 
#    y 0.000000 1.572870 0.000000 
#    z 0.000000 0.000000 1.589330 
# 
# From -- ./inp_files/2634.got.cif
#   From: 2010.05.17/outbox.cif.g08.bks.cpg/sg131_2_cif.got.tgz:2634.got - 2010.05.20 12:21:01.
