data_PCOD9566224
_publ_section_title
;
Structure prediction by ZEFSAII (Michael W. Deem and Ramdas Pophale) SiO2 
 PCOD9566224
Probable space group: P 42/M M C
;
_chemical_formula_sum "Si O2"
_cell_formula_units_Z 112
_cell_length_a 14.505833
_cell_length_b 14.505833
_cell_length_c 32.816560
_cell_angle_alpha 90.000000
_cell_angle_beta 90.000000
_cell_angle_gamma 90.000000
_cell_volume 6905.234007
_symmetry_space_group_name_H-M "P 42/M M C"
_symmetry_group_IT_number 131
_symmetry_cell_setting 'tetragonal'
loop_
_space_group_symop_operation_xyz
x,y,z
-x,-y,z
-y,x,1/2+z
y,-x,1/2+z
-x,y,-z
x,-y,-z
y,x,1/2-z
-y,-x,1/2-z
-x,-y,-z
x,y,-z
y,-x,1/2-z
-y,x,1/2-z
x,-y,z
-x,y,z
-y,-x,1/2+z
y,x,1/2+z
loop_
_atom_site_type_symbol
_atom_site_label
_atom_site_fract_x
_atom_site_fract_y
_atom_site_fract_z
Si Si1 0.893062 0.398775 0.925550
Si Si2 0.266204 0.394491 0.859808
Si Si3 0.805668 0.898183 0.452722
Si Si4 0.390271 0.776835 0.882656
Si Si5 0.104820 0.388123 0.697177
Si Si6 0.752059 0.390464 0.765399
Si Si7 0.890829 0.707086 0.451098
O O1 0.877239 0.500000 0.945600
O O2 0.824068 0.392580 0.887877
O O3 0.880075 0.304454 0.950406
O O4 0.000000 0.398178 0.912753
O O5 0.302682 0.500000 0.860630
O O6 0.337725 0.319707 0.876694
O O7 0.238643 0.372635 0.813366
O O8 0.831696 0.903958 0.500000
O O9 0.860718 0.810012 0.436862
O O10 0.823104 0.000000 0.434269
O O11 0.500000 0.763349 0.881639
O O12 0.363221 0.840819 0.843986
O O13 0.360846 0.829604 0.923784
O O14 0.101240 0.500000 0.697722
O O15 0.162993 0.359780 0.736928
O O16 0.000000 0.353979 0.697207
O O17 0.662325 0.337676 0.750000
O O18 0.741815 0.500000 0.759805
O O19 0.872839 0.698673 0.500000
O O20 0.000000 0.692788 0.444894
#
# Coordination Sequence:
#
# PCOD9566224 Si02
#       7
#    16  16  16  16  16  16  16
#     4   9  17  30  49  73 100 129 161 198 244 302
#     4  10  20  33  51  76 105 135 168 206 252 303
#     4   9  17  30  50  76 103 129 159 200 252 307
#     4  11  21  35  54  74 101 136 175 218 258 302
#     4   9  18  32  50  73  99 130 169 211 255 298
#     4  10  19  31  48  72 101 130 162 203 246 294
#     4  10  21  36  54  77 102 130 169 215 263 312
#
# _framework density 16.219580000000001
#
# number of rings (size 3 to 8) (size 9 to 14) (size 15 to 20)
#    0.000    2.286    2.857    0.429    0.000    2.714 
#    0.000    7.857    0.000    0.429    0.000    1.000 
#    0.000    1.429    0.000    0.000    0.000    0.000 
#
# Total GULP energy -623533.444888 kJ/mol
# GULP energy per Si atom -5567.262901 kJ/mol
# Density = 1.618266 g / cm^3
# Si number density = 16.219580 Si / 1000 Ang^3
#
#
#
# Elastic Constant Matrix: (Units=GPa)
#
#
# Indices 1 2 3 4 5 6 
#
# 1 64.4110 39.9230 35.8579 0.0000 0.0000 0.0000
# 2 39.9230 64.4054 35.8586 0.0000 0.0000 0.0000
# 3 35.8579 35.8586 66.8610 0.0000 0.0000 0.0000
# 4 0.0000 0.0000 0.0000 20.4121 0.0000 0.0000
# 5 0.0000 0.0000 0.0000 0.0000 20.4124 0.0000
# 6 0.0000 0.0000 0.0000 0.0000 0.0000 18.9699
#
#
#
# Elastic Compliance Matrix: (Units=1/GPa)
#
#
# Indices 1 2 3 4 5 6 
#
# 1 0.028009 -0.012830 -0.008141 0.000000 0.000000 0.000000
# 2 -0.012830 0.028013 -0.008143 0.000000 0.000000 0.000000
# 3 -0.008141 -0.008143 0.023690 0.000000 0.000000 0.000000
# 4 0.000000 0.000000 0.000000 0.048990 0.000000 0.000000
# 5 0.000000 0.000000 0.000000 0.000000 0.048990 0.000000
# 6 0.000000 0.000000 0.000000 0.000000 0.000000 0.052715
#
#
# Mechanical properties :
#
#
# Convention : Reuss Voigt Hill
#
# Bulk Modulus (GPa) = 46.54460 46.55070 46.54765
# Shear Modulus (GPa) = 16.90346 17.56139 17.23243
#
# Velocity S-wave (km/s) = 3.23176 3.29405 3.26305
# Velocity P-wave (km/s) = 6.53334 6.57498 6.55419
#
# Compressibility (1/GPa) = 0.02148477
#
# Stress axis : x y z
#
# Youngs Moduli (GPa) = 35.70230 35.69736 42.21226
#
# Poissons Ratio (x) = 0.45798 0.34364
# Poissons Ratio (y) = 0.45805 0.34375
# Poissons Ratio (z) = 0.29065 0.29070
#
# Static dielectric constant tensor:
#      x y z
#    x 1.552830 0.000000 0.000000 
#    y 0.000000 1.552830 0.000000 
#    z 0.000000 0.000000 1.542080 
# 
# From -- ./inp_files/12492.got.cif
#   From: 2010.05.17/outbox.cif.g08.bks.cpg/sg131_7_cif.got.tgz:12492.got - 2010.05.20 12:21:01.
