data_PCOD9566776
_publ_section_title
;
Structure prediction by ZEFSAII (Michael W. Deem and Ramdas Pophale) SiO2 
 PCOD9566776
Probable space group: P 42/M M C
;
_chemical_formula_sum "Si O2"
_cell_formula_units_Z 50
_cell_length_a 7.511739
_cell_length_b 7.511739
_cell_length_c 40.753431
_cell_angle_alpha 90.000000
_cell_angle_beta 90.000000
_cell_angle_gamma 90.000000
_cell_volume 2299.562178
_symmetry_space_group_name_H-M "P 42/M M C"
_symmetry_group_IT_number 131
_symmetry_cell_setting 'tetragonal'
loop_
_space_group_symop_operation_xyz
x,y,z
-x,-y,z
-y,x,1/2+z
y,-x,1/2+z
-x,y,-z
x,-y,-z
y,x,1/2-z
-y,-x,1/2-z
-x,-y,-z
x,y,-z
y,-x,1/2-z
-y,x,1/2-z
x,-y,z
-x,y,z
-y,-x,1/2+z
y,x,1/2+z
loop_
_atom_site_type_symbol
_atom_site_label
_atom_site_fract_x
_atom_site_fract_y
_atom_site_fract_z
Si Si1 0.287867 0.703053 0.429473
Si Si2 0.789700 0.702629 0.500000
Si Si3 0.000000 0.714558 0.693687
Si Si4 0.000000 0.000000 0.750000
Si Si5 0.717209 0.295792 0.141101
O O1 0.215763 0.500000 0.432022
O O2 0.500000 0.692291 0.425463
O O3 0.257692 0.787562 0.465044
O O4 0.226503 0.780160 0.394673
O O5 0.710259 0.500000 0.500000
O O6 0.000000 0.688637 0.500000
O O7 0.169717 0.762796 0.671140
O O8 0.000000 0.500000 0.699015
O O9 0.000000 0.827497 0.726634
O O10 0.774125 0.500000 0.146052
O O11 0.500000 0.295646 0.138867
#
# Coordination Sequence:
#
# PCOD9566776 Si02
#       5
#    16   8   8   2  16
#     4   8  13  21  33  53  87 131 179 227 271 317
#     4   9  15  17  23  47  87 135 180 225 276 323
#     4  10  22  40  62  83 114 148 173 220 275 322
#     4  12  28  44  60  96 120 138 184 216 264 352
#     4   8  15  29  51  77 103 141 190 230 272 328
#
# _framework density 21.743272000000001
#
# number of rings (size 3 to 8) (size 9 to 14) (size 15 to 20)
#    0.000    3.360    0.000    2.400    2.240    3.200 
#    0.000    0.000    0.000    0.000    0.000    0.000 
#    0.000    2.560    0.000    7.520    0.000   15.680 
#
# Total GULP energy -278708.126763 kJ/mol
# GULP energy per Si atom -5574.162535 kJ/mol
# Density = 2.169378 g / cm^3
# Si number density = 21.743272 Si / 1000 Ang^3
#
#
#
# Elastic Constant Matrix: (Units=GPa)
#
#
# Indices 1 2 3 4 5 6 
#
# 1 83.4236 14.3088 61.3710 0.0000 0.0000 0.0000
# 2 14.3088 83.4236 61.3710 0.0000 0.0000 0.0000
# 3 61.3710 61.3710 244.6560 0.0000 0.0000 0.0000
# 4 0.0000 0.0000 0.0000 107.7133 0.0000 0.0000
# 5 0.0000 0.0000 0.0000 0.0000 107.7133 0.0000
# 6 0.0000 0.0000 0.0000 0.0000 0.0000 -5.3189
#
#
#
# Elastic Compliance Matrix: (Units=1/GPa)
#
#
# Indices 1 2 3 4 5 6 
#
# 1 0.014703 0.000235 -0.003747 0.000000 0.000000 0.000000
# 2 0.000235 0.014703 -0.003747 0.000000 0.000000 0.000000
# 3 -0.003747 -0.003747 0.005967 0.000000 0.000000 0.000000
# 4 0.000000 0.000000 0.000000 0.009284 0.000000 0.000000
# 5 0.000000 0.000000 0.000000 0.000000 0.009284 0.000000
# 6 0.000000 0.000000 0.000000 0.000000 0.000000 -0.188009
#
#
# Mechanical properties :
#
#
# Convention : Reuss Voigt Hill
#
# Bulk Modulus (GPa) = 47.95057 76.17832 62.06444
# Shear Modulus (GPa) = -44.40646 60.31837 7.95596
#
# Velocity S-wave (km/s) = -4.52409 5.27270 1.91494
# Velocity P-wave (km/s) = 2.27793 8.49588 5.78753
#
# Compressibility (1/GPa) = 0.02085481
#
# Stress axis : x y z
#
# Youngs Moduli (GPa) = 68.01157 68.01157 167.58021
#
# Poissons Ratio (x) = -0.01596 0.62795
# Poissons Ratio (y) = -0.01596 0.62795
# Poissons Ratio (z) = 0.25485 0.25485
#
# Static dielectric constant tensor:
#      x y z
#    x 1.842330 0.000000 0.000000 
#    y 0.000000 1.842330 0.000000 
#    z 0.000000 0.000000 1.817020 
# 
# From -- ./inp_files/12969.got.cif
#   From: 2010.05.17/outbox.cif.g08.bks.cpg/sg131_7_cif.got.tgz:12969.got - 2010.05.20 12:21:01.
