data_PCOD9566292
_publ_section_title
;
Structure prediction by ZEFSAII (Michael W. Deem and Ramdas Pophale) SiO2 
 PCOD9566292
Probable space group: P 42/M M C
;
_chemical_formula_sum "Si O2"
_cell_formula_units_Z 104
_cell_length_a 25.632261
_cell_length_b 25.632261
_cell_length_c 8.828016
_cell_angle_alpha 90.000000
_cell_angle_beta 90.000000
_cell_angle_gamma 90.000000
_cell_volume 5800.119546
_symmetry_space_group_name_H-M "P 42/M M C"
_symmetry_group_IT_number 131
_symmetry_cell_setting 'tetragonal'
loop_
_space_group_symop_operation_xyz
x,y,z
-x,-y,z
-y,x,1/2+z
y,-x,1/2+z
-x,y,-z
x,-y,-z
y,x,1/2-z
-y,-x,1/2-z
-x,-y,-z
x,y,-z
y,-x,1/2-z
-y,x,1/2-z
x,-y,z
-x,y,z
-y,-x,1/2+z
y,x,1/2+z
loop_
_atom_site_type_symbol
_atom_site_label
_atom_site_fract_x
_atom_site_fract_y
_atom_site_fract_z
Si Si1 0.748347 0.941417 0.680935
Si Si2 0.894496 0.436663 0.170638
Si Si3 0.000000 0.435981 0.674452
Si Si4 0.828627 0.747865 0.317879
Si Si5 0.786115 0.558457 0.318236
Si Si6 0.941421 0.862159 0.676144
Si Si7 0.740007 0.336782 0.681906
O O1 0.742035 0.937659 0.500000
O O2 0.732395 0.886090 0.756126
O O3 0.809057 0.942171 0.728985
O O4 0.727764 0.000000 0.727321
O O5 0.898367 0.500000 0.164912
O O6 0.844601 0.425795 0.272154
O O7 0.948140 0.417486 0.242026
O O8 0.887511 0.417485 0.000000
O O9 0.000000 0.500000 0.677929
O O10 0.000000 0.420607 0.500000
O O11 0.800637 0.800637 0.250000
O O12 0.830966 0.753605 0.500000
O O13 0.788705 0.700939 0.278616
O O14 0.783407 0.556538 0.500000
O O15 0.775866 0.500000 0.259381
O O16 0.749412 0.604591 0.263145
O O17 0.901191 0.901191 0.750000
O O18 0.928525 0.850715 0.500000
O O19 0.000000 0.884235 0.679640
O O20 0.689247 0.310754 0.750000
O O21 0.736946 0.337018 0.500000
#
# Coordination Sequence:
#
# PCOD9566292 Si02
#       7
#    16  16   8  16  16  16  16
#     4  10  20  33  49  68  90 116 149 191 239 290
#     4   9  16  25  39  62  91 123 162 208 255 300
#     4   9  15  23  37  57  83 119 163 209 255 301
#     4  10  19  32  51  73  97 124 158 198 242 294
#     4   9  17  31  51  74 102 135 171 208 248 299
#     4  10  20  32  45  61  82 109 141 178 224 279
#     4   9  19  34  53  78 105 135 170 206 249 295
#
# _framework density 17.930665000000001
#
# number of rings (size 3 to 8) (size 9 to 14) (size 15 to 20)
#    0.000    2.538    0.000    2.538    0.000    6.000 
#    0.000    0.769    1.692    0.000    0.000    0.000 
#    0.000    0.308    0.000    3.846    0.000    0.000 
#
# Total GULP energy -579653.990236 kJ/mol
# GULP energy per Si atom -5573.596060 kJ/mol
# Density = 1.788985 g / cm^3
# Si number density = 17.930665 Si / 1000 Ang^3
#
#
#
# Elastic Constant Matrix: (Units=GPa)
#
#
# Indices 1 2 3 4 5 6 
#
# 1 81.5578 45.4691 13.4475 0.0000 0.0000 0.0000
# 2 45.4691 81.5562 13.4494 0.0000 0.0000 0.0000
# 3 13.4475 13.4494 26.8025 0.0000 0.0000 0.0000
# 4 0.0000 0.0000 0.0000 8.4282 0.0000 0.0000
# 5 0.0000 0.0000 0.0000 0.0000 8.4306 0.0000
# 6 0.0000 0.0000 0.0000 0.0000 0.0000 -0.5861
#
#
#
# Elastic Compliance Matrix: (Units=1/GPa)
#
#
# Indices 1 2 3 4 5 6 
#
# 1 0.018259 -0.009451 -0.004418 0.000000 0.000000 0.000000
# 2 -0.009451 0.018260 -0.004421 0.000000 0.000000 0.000000
# 3 -0.004418 -0.004421 0.041745 0.000000 0.000000 0.000000
# 4 0.000000 0.000000 0.000000 0.118649 0.000000 0.000000
# 5 0.000000 0.000000 0.000000 0.000000 0.118616 0.000000
# 6 0.000000 0.000000 0.000000 0.000000 0.000000 -1.706102
#
#
# Mechanical properties :
#
#
# Convention : Reuss Voigt Hill
#
# Bulk Modulus (GPa) = 23.99053 37.18317 30.58685
# Shear Modulus (GPa) = -3.73107 11.09123 3.68008
#
# Velocity S-wave (km/s) = -1.44407 2.48979 1.43417
# Velocity P-wave (km/s) = 3.26009 5.38958 4.45398
#
# Compressibility (1/GPa) = 0.04168311
#
# Stress axis : x y z
#
# Youngs Moduli (GPa) = 54.76832 54.76578 23.95486
#
# Poissons Ratio (x) = 0.51759 0.10584
# Poissons Ratio (y) = 0.51761 0.10590
# Poissons Ratio (z) = 0.24199 0.24211
#
# Static dielectric constant tensor:
#      x y z
#    x 1.636080 0.000000 0.000000 
#    y 0.000000 1.636080 0.000000 
#    z 0.000000 0.000000 1.610150 
# 
# From -- ./inp_files/2558.got.cif
#   From: 2010.05.17/outbox.cif.g08.bks.cpg/sg131_2_cif.got.tgz:2558.got - 2010.05.20 12:21:01.
