data_PCOD9566622
_publ_section_title
;
Structure prediction by ZEFSAII (Michael W. Deem and Ramdas Pophale) SiO2 
 PCOD9566622
Probable space group: P 42/M M C
;
_chemical_formula_sum "Si O2"
_cell_formula_units_Z 112
_cell_length_a 15.358952
_cell_length_b 15.358952
_cell_length_c 23.455526
_cell_angle_alpha 90.000000
_cell_angle_beta 90.000000
_cell_angle_gamma 90.000000
_cell_volume 5533.097752
_symmetry_space_group_name_H-M "P 42/M M C"
_symmetry_group_IT_number 131
_symmetry_cell_setting 'tetragonal'
loop_
_space_group_symop_operation_xyz
x,y,z
-x,-y,z
-y,x,1/2+z
y,-x,1/2+z
-x,y,-z
x,-y,-z
y,x,1/2-z
-y,-x,1/2-z
-x,-y,-z
x,y,-z
y,-x,1/2-z
-y,x,1/2-z
x,-y,z
-x,y,z
-y,-x,1/2+z
y,x,1/2+z
loop_
_atom_site_type_symbol
_atom_site_label
_atom_site_fract_x
_atom_site_fract_y
_atom_site_fract_z
Si Si1 0.400119 0.254894 0.404872
Si Si2 0.737538 0.401335 0.565530
Si Si3 0.902915 0.680620 0.620996
Si Si4 0.721504 0.902891 0.375833
Si Si5 0.273564 0.409182 0.769656
Si Si6 0.902918 0.133831 0.567062
Si Si7 0.668906 0.901689 0.248819
O O1 0.500000 0.247012 0.426974
O O2 0.341527 0.333151 0.428970
O O3 0.340748 0.167632 0.406324
O O4 0.408482 0.273551 0.337634
O O5 0.768532 0.397859 0.500000
O O6 0.708742 0.500000 0.577935
O O7 0.819188 0.376289 0.605325
O O8 0.900997 0.762885 0.579170
O O9 0.895077 0.713138 0.686741
O O10 0.000000 0.639521 0.616135
O O11 0.818954 0.900093 0.399901
O O12 0.722567 0.886800 0.307240
O O13 0.685755 0.000000 0.384485
O O14 0.326536 0.326536 0.750000
O O15 0.312266 0.500000 0.748235
O O16 0.174303 0.401293 0.749997
O O17 0.893919 0.115776 0.500000
O O18 0.000000 0.103889 0.585102
O O19 0.633789 0.000000 0.252675
#
# Coordination Sequence:
#
# PCOD9566622 Si02
#       7
#    16  16  16  16  16  16  16
#     4  10  22  40  60  84 117 157 201 252 309 364
#     4  11  24  41  62  89 121 159 205 255 306 362
#     4  10  20  36  60  89 122 162 204 247 298 359
#     4  10  21  38  62  92 124 160 205 255 307 362
#     4  10  21  35  55  83 116 155 196 243 297 355
#     4  10  21  37  59  88 123 163 205 249 300 360
#     4   9  20  36  57  87 120 157 200 248 298 352
#
# _framework density 20.241826
#
# number of rings (size 3 to 8) (size 9 to 14) (size 15 to 20)
#    0.000    2.000    1.429    1.286    2.000    5.286 
#    0.000    7.857    0.000    0.000    0.000    6.000 
#    0.000    0.000    0.000    0.000    0.000    0.000 
#
# Total GULP energy -624293.685746 kJ/mol
# GULP energy per Si atom -5574.050766 kJ/mol
# Density = 2.019575 g / cm^3
# Si number density = 20.241826 Si / 1000 Ang^3
#
#
#
# Elastic Constant Matrix: (Units=GPa)
#
#
# Indices 1 2 3 4 5 6 
#
# 1 129.6554 65.3291 36.5940 0.0000 0.0000 0.0000
# 2 65.3291 129.6554 36.5940 0.0000 0.0000 0.0000
# 3 36.5940 36.5940 64.4552 0.0000 0.0000 0.0000
# 4 0.0000 0.0000 0.0000 64.0098 0.0000 0.0000
# 5 0.0000 0.0000 0.0000 0.0000 64.0098 0.0000
# 6 0.0000 0.0000 0.0000 0.0000 0.0000 10.2954
#
#
#
# Elastic Compliance Matrix: (Units=1/GPa)
#
#
# Indices 1 2 3 4 5 6 
#
# 1 0.011032 -0.004514 -0.003700 0.000000 0.000000 0.000000
# 2 -0.004514 0.011032 -0.003700 0.000000 0.000000 0.000000
# 3 -0.003700 -0.003700 0.019716 0.000000 0.000000 0.000000
# 4 0.000000 0.000000 0.000000 0.015623 0.000000 0.000000
# 5 0.000000 0.000000 0.000000 0.000000 0.015623 0.000000
# 6 0.000000 0.000000 0.000000 0.000000 0.000000 0.097131
#
#
# Mechanical properties :
#
#
# Convention : Reuss Voigt Hill
#
# Bulk Modulus (GPa) = 55.70972 66.75559 61.23265
# Shear Modulus (GPa) = 25.00398 40.01294 32.50846
#
# Velocity S-wave (km/s) = 3.51844 4.45088 4.01185
# Velocity P-wave (km/s) = 6.63986 7.71132 7.19556
#
# Compressibility (1/GPa) = 0.01795019
#
# Stress axis : x y z
#
# Youngs Moduli (GPa) = 90.64842 90.64842 50.71955
#
# Poissons Ratio (x) = 0.40920 0.18768
# Poissons Ratio (y) = 0.40920 0.18768
# Poissons Ratio (z) = 0.33542 0.33542
#
# Static dielectric constant tensor:
#      x y z
#    x 1.760200 0.000000 0.000000 
#    y 0.000000 1.760200 0.000000 
#    z 0.000000 0.000000 1.737190 
# 
# From -- ./inp_files/11252.got.cif
#   From: 2010.05.17/outbox.cif.g08.bks.cpg/sg131_6_cif.got.tgz:11252.got - 2010.05.20 12:21:01.
