data_PCOD9566054
_publ_section_title
;
Structure prediction by ZEFSAII (Michael W. Deem and Ramdas Pophale) SiO2 
 PCOD9566054
Probable space group: P 42/M M C
;
_chemical_formula_sum "Si O2"
_cell_formula_units_Z 96
_cell_length_a 17.347712
_cell_length_b 17.347712
_cell_length_c 19.003670
_cell_angle_alpha 90.000000
_cell_angle_beta 90.000000
_cell_angle_gamma 90.000000
_cell_volume 5719.023582
_symmetry_space_group_name_H-M "P 42/M M C"
_symmetry_group_IT_number 131
_symmetry_cell_setting 'tetragonal'
loop_
_space_group_symop_operation_xyz
x,y,z
-x,-y,z
-y,x,1/2+z
y,-x,1/2+z
-x,y,-z
x,-y,-z
y,x,1/2-z
-y,-x,1/2-z
-x,-y,-z
x,y,-z
y,-x,1/2-z
-y,x,1/2-z
x,-y,z
-x,y,z
-y,-x,1/2+z
y,x,1/2+z
loop_
_atom_site_type_symbol
_atom_site_label
_atom_site_fract_x
_atom_site_fract_y
_atom_site_fract_z
Si Si1 0.342623 0.328202 0.582061
Si Si2 0.091975 0.000000 0.417884
Si Si3 0.410218 0.840965 0.422007
Si Si4 0.657022 0.086816 0.286989
Si Si5 0.784902 0.301171 0.687018
Si Si6 0.168621 0.129643 0.674214
Si Si7 0.500000 0.589611 0.585444
O O1 0.330606 0.348538 0.500000
O O2 0.360514 0.236722 0.585457
O O3 0.267947 0.341897 0.629522
O O4 0.420434 0.370184 0.608246
O O5 0.126596 0.076016 0.381193
O O6 0.111629 0.000000 0.500000
O O7 0.000000 0.000000 0.410050
O O8 0.394152 0.874742 0.500000
O O9 0.500000 0.818358 0.421388
O O10 0.392923 0.894171 0.355775
O O11 0.648874 0.149377 0.224953
O O12 0.745399 0.097728 0.312781
O O13 0.644273 0.000000 0.262966
O O14 0.729363 0.270638 0.750000
O O15 0.822180 0.221029 0.657649
O O16 0.126774 0.126774 0.750000
O O17 0.500000 0.500000 0.604469
O O18 0.500000 0.596034 0.500000
#
# Coordination Sequence:
#
# PCOD9566054 Si02
#       7
#    16   8  16  16  16  16   8
#     4  10  17  30  55  80 106 142 178 213 265 319
#     4  11  24  34  44  72 103 127 161 221 288 331
#     4  10  19  31  50  79 108 139 174 212 262 320
#     4  10  19  34  51  72  97 136 182 220 259 312
#     4   9  18  33  51  74  98 132 178 224 254 305
#     4   9  19  32  50  68  87 128 173 212 259 316
#     4   9  18  32  54  84 115 145 176 212 254 323
#
# _framework density 16.786083000000001
#
# number of rings (size 3 to 8) (size 9 to 14) (size 15 to 20)
#    0.000    2.667    5.000    0.000    1.167    2.667 
#    0.000    1.667    1.833    0.500    0.000    0.000 
#    0.000    0.000    0.000    5.667    0.000    0.000 
#
# Total GULP energy -534791.548446 kJ/mol
# GULP energy per Si atom -5570.745296 kJ/mol
# Density = 1.674788 g / cm^3
# Si number density = 16.786083 Si / 1000 Ang^3
#
#
#
# Elastic Constant Matrix: (Units=GPa)
#
#
# Indices 1 2 3 4 5 6 
#
# 1 58.4116 20.0670 47.4151 0.0000 0.0000 0.0000
# 2 20.0670 58.4120 47.4154 0.0000 0.0000 0.0000
# 3 47.4151 47.4154 84.1782 0.0000 0.0000 0.0000
# 4 0.0000 0.0000 0.0000 20.9332 0.0000 0.0000
# 5 0.0000 0.0000 0.0000 0.0000 20.9332 0.0000
# 6 0.0000 0.0000 0.0000 0.0000 0.0000 15.0850
#
#
#
# Elastic Compliance Matrix: (Units=1/GPa)
#
#
# Indices 1 2 3 4 5 6 
#
# 1 0.032989 0.006910 -0.022474 0.000000 0.000000 0.000000
# 2 0.006910 0.032989 -0.022474 0.000000 0.000000 0.000000
# 3 -0.022474 -0.022474 0.037197 0.000000 0.000000 0.000000
# 4 0.000000 0.000000 0.000000 0.047771 0.000000 0.000000
# 5 0.000000 0.000000 0.000000 0.000000 0.047771 0.000000
# 6 0.000000 0.000000 0.000000 0.000000 0.000000 0.066291
#
#
# Mechanical properties :
#
#
# Convention : Reuss Voigt Hill
#
# Bulk Modulus (GPa) = 36.90115 47.86629 42.38372
# Shear Modulus (GPa) = 14.28093 17.13056 15.70575
#
# Velocity S-wave (km/s) = 2.91994 3.19803 3.06214
# Velocity P-wave (km/s) = 5.77919 6.49722 6.14869
#
# Compressibility (1/GPa) = 0.02709943
#
# Stress axis : x y z
#
# Youngs Moduli (GPa) = 30.31314 30.31322 26.88363
#
# Poissons Ratio (x) = -0.20946 0.60418
# Poissons Ratio (y) = -0.20946 0.60418
# Poissons Ratio (z) = 0.68125 0.68126
#
# Static dielectric constant tensor:
#      x y z
#    x 1.569520 0.000000 0.000000 
#    y 0.000000 1.569520 0.000000 
#    z 0.000000 0.000000 1.574270 
# 
# From -- ./inp_files/8015.got.cif
#   From: 2010.05.17/outbox.cif.g08.bks.cpg/sg131_5_cif.got.tgz:8015.got - 2010.05.20 12:21:01.
