data_PCOD9566509
_publ_section_title
;
Structure prediction by ZEFSAII (Michael W. Deem and Ramdas Pophale) SiO2 
 PCOD9566509
Probable space group: P 42/M M C
;
_chemical_formula_sum "Si O2"
_cell_formula_units_Z 96
_cell_length_a 24.963546
_cell_length_b 24.963546
_cell_length_c 8.265279
_cell_angle_alpha 90.000000
_cell_angle_beta 90.000000
_cell_angle_gamma 90.000000
_cell_volume 5150.745235
_symmetry_space_group_name_H-M "P 42/M M C"
_symmetry_group_IT_number 131
_symmetry_cell_setting 'tetragonal'
loop_
_space_group_symop_operation_xyz
x,y,z
-x,-y,z
-y,x,1/2+z
y,-x,1/2+z
-x,y,-z
x,-y,-z
y,x,1/2-z
-y,-x,1/2-z
-x,-y,-z
x,y,-z
y,-x,1/2-z
-y,x,1/2-z
x,-y,z
-x,y,z
-y,-x,1/2+z
y,x,1/2+z
loop_
_atom_site_type_symbol
_atom_site_label
_atom_site_fract_x
_atom_site_fract_y
_atom_site_fract_z
Si Si1 0.355126 0.853639 0.805863
Si Si2 0.559408 0.644625 0.194635
Si Si3 0.560220 0.767252 0.197577
Si Si4 0.232574 0.852926 0.194129
Si Si5 0.938548 0.853198 0.806080
Si Si6 0.062889 0.440586 0.805295
O O1 0.392101 0.804896 0.743825
O O2 0.293971 0.854150 0.745438
O O3 0.390769 0.905333 0.765907
O O4 0.351748 0.848739 0.000000
O O5 0.604648 0.604648 0.250000
O O6 0.500000 0.628097 0.250911
O O7 0.568502 0.705822 0.247480
O O8 0.558738 0.645293 0.000000
O O9 0.500000 0.783757 0.248629
O O10 0.560317 0.768807 0.000000
O O11 0.199227 0.800774 0.250000
O O12 0.198218 0.904337 0.249763
O O13 0.232952 0.852904 0.000000
O O14 0.905181 0.905181 0.750000
O O15 0.000000 0.852783 0.747669
O O16 0.938982 0.853100 0.000000
O O17 0.081648 0.500000 0.749105
O O18 0.000000 0.436820 0.767113
O O19 0.068241 0.439459 0.000000
#
# Coordination Sequence:
#
# PCOD9566509 Si02
#       6
#    16  16  16  16  16  16
#     4  10  20  33  53  79 101 129 173 216 254 301
#     4   9  18  32  49  69  94 125 159 196 243 297
#     4   8  15  30  50  70  95 126 159 200 250 298
#     4  10  21  36  53  75 105 138 172 212 256 301
#     4  10  21  37  58  82 107 138 173 207 248 297
#     4   9  19  35  52  73 105 140 170 206 255 306
#
# _framework density 18.638078
#
# number of rings (size 3 to 8) (size 9 to 14) (size 15 to 20)
#    0.000    2.667    0.000    4.000    0.000    6.000 
#    0.000    6.667    0.000    1.000    0.000    0.000 
#    0.000    0.000    0.000    0.000    0.000    0.000 
#
# Total GULP energy -535334.016457 kJ/mol
# GULP energy per Si atom -5576.396005 kJ/mol
# Density = 1.859566 g / cm^3
# Si number density = 18.638078 Si / 1000 Ang^3
#
#
#
# Elastic Constant Matrix: (Units=GPa)
#
#
# Indices 1 2 3 4 5 6 
#
# 1 172.0516 105.6675 18.6561 0.0000 0.0000 0.0000
# 2 105.6675 172.0531 18.6554 0.0000 0.0000 0.0000
# 3 18.6561 18.6554 17.9439 0.0000 0.0000 0.0000
# 4 0.0000 0.0000 0.0000 20.0211 0.0000 0.0000
# 5 0.0000 0.0000 0.0000 0.0000 20.0225 0.0000
# 6 0.0000 0.0000 0.0000 0.0000 0.0000 30.0110
#
#
#
# Elastic Compliance Matrix: (Units=1/GPa)
#
#
# Indices 1 2 3 4 5 6 
#
# 1 0.009625 -0.005439 -0.004352 0.000000 0.000000 0.000000
# 2 -0.005439 0.009624 -0.004351 0.000000 0.000000 0.000000
# 3 -0.004352 -0.004351 0.064777 0.000000 0.000000 0.000000
# 4 0.000000 0.000000 0.000000 0.049947 0.000000 0.000000
# 5 0.000000 0.000000 0.000000 0.000000 0.049944 0.000000
# 6 0.000000 0.000000 0.000000 0.000000 0.000000 0.033321
#
#
# Mechanical properties :
#
#
# Convention : Reuss Voigt Hill
#
# Bulk Modulus (GPa) = 17.93971 72.00073 44.97022
# Shear Modulus (GPa) = 18.93202 28.61558 23.77380
#
# Velocity S-wave (km/s) = 3.19057 3.92258 3.57536
# Velocity P-wave (km/s) = 4.81863 7.69613 6.42065
#
# Compressibility (1/GPa) = 0.05574227
#
# Stress axis : x y z
#
# Youngs Moduli (GPa) = 103.90033 103.90223 15.43757
#
# Poissons Ratio (x) = 0.56514 0.06718
# Poissons Ratio (y) = 0.56513 0.06717
# Poissons Ratio (z) = 0.45215 0.45208
#
# Static dielectric constant tensor:
#      x y z
#    x 1.641770 0.000000 0.000000 
#    y 0.000000 1.641770 0.000000 
#    z 0.000000 0.000000 1.656940 
# 
# From -- ./inp_files/2287.got.cif
#   From: 2010.05.17/outbox.cif.g08.bks.cpg/sg131_2_cif.got.tgz:2287.got - 2010.05.20 12:21:01.
