data_PCOD9566602
_publ_section_title
;
Structure prediction by ZEFSAII (Michael W. Deem and Ramdas Pophale) SiO2 
 PCOD9566602
Probable space group: P 42/M M C
;
_chemical_formula_sum "Si O2"
_cell_formula_units_Z 104
_cell_length_a 18.444882
_cell_length_b 18.444882
_cell_length_c 15.489013
_cell_angle_alpha 90.000000
_cell_angle_beta 90.000000
_cell_angle_gamma 90.000000
_cell_volume 5269.573988
_symmetry_space_group_name_H-M "P 42/M M C"
_symmetry_group_IT_number 131
_symmetry_cell_setting 'tetragonal'
loop_
_space_group_symop_operation_xyz
x,y,z
-x,-y,z
-y,x,1/2+z
y,-x,1/2+z
-x,y,-z
x,-y,-z
y,x,1/2-z
-y,-x,1/2-z
-x,-y,-z
x,y,-z
y,-x,1/2-z
-y,x,1/2-z
x,-y,z
-x,y,z
-y,-x,1/2+z
y,x,1/2+z
loop_
_atom_site_type_symbol
_atom_site_label
_atom_site_fract_x
_atom_site_fract_y
_atom_site_fract_z
Si Si1 0.085169 0.000000 0.895218
Si Si2 0.082079 0.301393 0.190690
Si Si3 0.644848 0.580851 0.105401
Si Si4 0.278439 0.806226 0.826323
Si Si5 0.188188 0.583197 0.896105
Si Si6 0.728771 0.420462 0.395393
Si Si7 0.841491 0.129967 0.599086
O O1 0.118805 0.923215 0.865783
O O2 0.000000 0.000000 0.874011
O O3 0.092475 0.000000 0.000000
O O4 0.116063 0.295498 0.285141
O O5 0.134307 0.357373 0.141012
O O6 0.088167 0.221042 0.150213
O O7 0.000000 0.326450 0.188172
O O8 0.625402 0.500000 0.134312
O O9 0.728292 0.596793 0.131099
O O10 0.593091 0.645615 0.132435
O O11 0.644679 0.579818 0.000000
O O12 0.243415 0.756585 0.750000
O O13 0.351751 0.772541 0.861718
O O14 0.213853 0.817682 0.893884
O O15 0.170116 0.500000 0.871727
O O16 0.186509 0.587167 0.000000
O O17 0.730916 0.419425 0.500000
O O18 0.753764 0.500000 0.365986
O O19 0.840663 0.105634 0.500000
#
# Coordination Sequence:
#
# PCOD9566602 Si02
#       7
#     8  16  16  16  16  16  16
#     4   9  18  32  54  86 115 137 168 215 273 331
#     4  11  23  36  54  80 112 146 183 230 282 338
#     4   8  14  27  50  80 111 138 168 214 272 328
#     4  10  22  38  55  78 111 148 188 227 275 341
#     4   9  18  33  54  80 109 144 186 229 277 336
#     4  10  20  35  58  84 109 144 193 244 284 321
#     4  10  20  36  60  84 110 146 185 226 274 331
#
# _framework density 19.735939999999999
#
# number of rings (size 3 to 8) (size 9 to 14) (size 15 to 20)
#    0.000    2.385    0.000    4.154    1.077    4.308 
#    0.000    3.077    0.000    0.000    0.000    1.077 
#    0.000    0.000    0.000    0.000    0.000    0.000 
#
# Total GULP energy -580621.287444 kJ/mol
# GULP energy per Si atom -5582.896995 kJ/mol
# Density = 1.969102 g / cm^3
# Si number density = 19.735940 Si / 1000 Ang^3
#
#
#
# Elastic Constant Matrix: (Units=GPa)
#
#
# Indices 1 2 3 4 5 6 
#
# 1 96.7531 33.2766 8.2184 0.0000 0.0000 0.0000
# 2 33.2766 96.7530 8.2181 0.0000 0.0000 0.0000
# 3 8.2184 8.2181 19.4194 0.0000 0.0000 0.0000
# 4 0.0000 0.0000 0.0000 11.8324 0.0000 0.0000
# 5 0.0000 0.0000 0.0000 0.0000 11.8327 0.0000
# 6 0.0000 0.0000 0.0000 0.0000 0.0000 23.6174
#
#
#
# Elastic Compliance Matrix: (Units=1/GPa)
#
#
# Indices 1 2 3 4 5 6 
#
# 1 0.011940 -0.003814 -0.003439 0.000000 0.000000 0.000000
# 2 -0.003814 0.011940 -0.003438 0.000000 0.000000 0.000000
# 3 -0.003439 -0.003438 0.054405 0.000000 0.000000 0.000000
# 4 0.000000 0.000000 0.000000 0.084514 0.000000 0.000000
# 5 0.000000 0.000000 0.000000 0.000000 0.084512 0.000000
# 6 0.000000 0.000000 0.000000 0.000000 0.000000 0.042342
#
#
# Mechanical properties :
#
#
# Convention : Reuss Voigt Hill
#
# Bulk Modulus (GPa) = 17.57429 34.70576 26.14003
# Shear Modulus (GPa) = 15.15147 20.33733 17.74440
#
# Velocity S-wave (km/s) = 2.77376 3.21358 3.00174
# Velocity P-wave (km/s) = 4.37977 5.60292 5.02867
#
# Compressibility (1/GPa) = 0.05690130
#
# Stress axis : x y z
#
# Youngs Moduli (GPa) = 83.75524 83.75533 18.38061
#
# Poissons Ratio (x) = 0.31947 0.06320
# Poissons Ratio (y) = 0.31947 0.06320
# Poissons Ratio (z) = 0.28801 0.28799
#
# Static dielectric constant tensor:
#      x y z
#    x 1.690690 0.000000 0.000000 
#    y 0.000000 1.690690 0.000000 
#    z 0.000000 0.000000 1.719640 
# 
# From -- ./inp_files/8113.got.cif
#   From: 2010.05.17/outbox.cif.g08.bks.cpg/sg131_5_cif.got.tgz:8113.got - 2010.05.20 12:21:01.
