data_PCOD9566192
_publ_section_title
;
Structure prediction by ZEFSAII (Michael W. Deem and Ramdas Pophale) SiO2 
 PCOD9566192
Probable space group: P 42/M M C
;
_chemical_formula_sum "Si O2"
_cell_formula_units_Z 120
_cell_length_a 18.354157
_cell_length_b 18.354157
_cell_length_c 24.250597
_cell_angle_alpha 90.000000
_cell_angle_beta 90.000000
_cell_angle_gamma 90.000000
_cell_volume 8169.421785
_symmetry_space_group_name_H-M "P 42/M M C"
_symmetry_group_IT_number 131
_symmetry_cell_setting 'tetragonal'
loop_
_space_group_symop_operation_xyz
x,y,z
-x,-y,z
-y,x,1/2+z
y,-x,1/2+z
-x,y,-z
x,-y,-z
y,x,1/2-z
-y,-x,1/2-z
-x,-y,-z
x,y,-z
y,-x,1/2-z
-y,x,1/2-z
x,-y,z
-x,y,z
-y,-x,1/2+z
y,x,1/2+z
loop_
_atom_site_type_symbol
_atom_site_label
_atom_site_fract_x
_atom_site_fract_y
_atom_site_fract_z
Si Si1 0.415243 0.793630 0.245444
Si Si2 0.583090 0.362158 0.807621
Si Si3 0.085088 0.772395 0.137204
Si Si4 0.414868 0.278190 0.366026
Si Si5 0.838137 0.651135 0.065749
Si Si6 0.139891 0.915524 0.808978
Si Si7 0.500000 0.082988 0.566909
Si Si8 0.702635 0.916619 0.759050
O O1 0.500000 0.814679 0.239386
O O2 0.401812 0.722093 0.208204
O O3 0.405194 0.766893 0.308746
O O4 0.359871 0.857804 0.231958
O O5 0.595255 0.404746 0.750000
O O6 0.500000 0.369308 0.825162
O O7 0.640282 0.392584 0.850831
O O8 0.127682 0.722011 0.094123
O O9 0.113568 0.854264 0.148256
O O10 0.091342 0.732323 0.196547
O O11 0.000000 0.774960 0.122315
O O12 0.500000 0.274434 0.381415
O O13 0.364122 0.242505 0.411872
O O14 0.879795 0.576063 0.083683
O O15 0.842057 0.656381 0.000000
O O16 0.100703 0.899298 0.750000
O O17 0.226009 0.905696 0.796898
O O18 0.126606 0.000000 0.824059
O O19 0.500000 0.083798 0.500000
O O20 0.500000 0.000000 0.586256
O O21 0.677296 0.000000 0.765916
#
# Coordination Sequence:
#
# PCOD9566192 Si02
#       8
#    16  16  16  16  16  16   8  16
#     4   9  17  28  42  65  95 126 156 181 217 271
#     4   9  18  29  46  70  95 122 151 186 223 266
#     4  10  20  31  46  68  91 120 156 190 229 274
#     4  10  19  30  46  67  89 120 157 188 226 271
#     4  11  21  33  47  66  90 117 157 199 232 271
#     4   9  18  30  48  72  96 123 153 188 226 271
#     4   9  18  32  48  62  83 115 145 187 238 270
#     4   9  17  28  42  65  96 126 154 181 218 270
#
# _framework density 14.688922
#
# number of rings (size 3 to 8) (size 9 to 14) (size 15 to 20)
#    0.000    2.467    2.000    2.800    1.867    4.533 
#    0.000    0.000    0.000    0.800    0.000    1.867 
#    0.000    0.000    0.000    0.000    0.000   11.733 
#
# Total GULP energy -668818.634036 kJ/mol
# GULP energy per Si atom -5573.488617 kJ/mol
# Density = 1.465549 g / cm^3
# Si number density = 14.688922 Si / 1000 Ang^3
#
#
#
# Elastic Constant Matrix: (Units=GPa)
#
#
# Indices 1 2 3 4 5 6 
#
# 1 97.0733 70.6106 32.0418 0.0000 0.0000 0.0000
# 2 70.6106 97.0713 32.0420 0.0000 0.0000 0.0000
# 3 32.0418 32.0420 43.5454 0.0000 0.0000 0.0000
# 4 0.0000 0.0000 0.0000 11.4395 0.0000 0.0000
# 5 0.0000 0.0000 0.0000 0.0000 11.4398 0.0000
# 6 0.0000 0.0000 0.0000 0.0000 0.0000 28.0423
#
#
#
# Elastic Compliance Matrix: (Units=1/GPa)
#
#
# Indices 1 2 3 4 5 6 
#
# 1 0.023043 -0.014747 -0.006105 0.000000 0.000000 0.000000
# 2 -0.014747 0.023044 -0.006105 0.000000 0.000000 0.000000
# 3 -0.006105 -0.006105 0.031949 0.000000 0.000000 0.000000
# 4 0.000000 0.000000 0.000000 0.087416 0.000000 0.000000
# 5 0.000000 0.000000 0.000000 0.000000 0.087414 0.000000
# 6 0.000000 0.000000 0.000000 0.000000 0.000000 0.035660
#
#
# Mechanical properties :
#
#
# Convention : Reuss Voigt Hill
#
# Bulk Modulus (GPa) = 41.45497 56.34207 48.89852
# Shear Modulus (GPa) = 14.26608 17.05071 15.65840
#
# Velocity S-wave (km/s) = 3.11981 3.41073 3.26851
# Velocity P-wave (km/s) = 6.42346 7.34513 6.89970
#
# Compressibility (1/GPa) = 0.02412256
#
# Stress axis : x y z
#
# Youngs Moduli (GPa) = 43.39672 43.39534 31.29989
#
# Poissons Ratio (x) = 0.63994 0.19107
# Poissons Ratio (y) = 0.63996 0.19110
# Poissons Ratio (z) = 0.26492 0.26495
#
# Static dielectric constant tensor:
#      x y z
#    x 1.495460 0.000000 0.000000 
#    y 0.000000 1.495460 0.000000 
#    z 0.000000 0.000000 1.462070 
# 
# From -- ./inp_files/11531.got.cif
#   From: 2010.05.17/outbox.cif.g08.bks.cpg/sg131_6_cif.got.tgz:11531.got - 2010.05.20 12:21:01.
