data_PCOD9566064
_publ_section_title
;
Structure prediction by ZEFSAII (Michael W. Deem and Ramdas Pophale) SiO2 
 PCOD9566064
Probable space group: P 42/M M C
;
_chemical_formula_sum "Si O2"
_cell_formula_units_Z 112
_cell_length_a 15.593591
_cell_length_b 15.593591
_cell_length_c 26.695755
_cell_angle_alpha 90.000000
_cell_angle_beta 90.000000
_cell_angle_gamma 90.000000
_cell_volume 6491.341929
_symmetry_space_group_name_H-M "P 42/M M C"
_symmetry_group_IT_number 131
_symmetry_cell_setting 'tetragonal'
loop_
_space_group_symop_operation_xyz
x,y,z
-x,-y,z
-y,x,1/2+z
y,-x,1/2+z
-x,y,-z
x,-y,-z
y,x,1/2-z
-y,-x,1/2-z
-x,-y,-z
x,y,-z
y,-x,1/2-z
-y,x,1/2-z
x,-y,z
-x,y,z
-y,-x,1/2+z
y,x,1/2+z
loop_
_atom_site_type_symbol
_atom_site_label
_atom_site_fract_x
_atom_site_fract_y
_atom_site_fract_z
Si Si1 0.598540 0.101233 0.583451
Si Si2 0.097442 0.850593 0.304866
Si Si3 0.288194 0.761452 0.836528
Si Si4 0.600297 0.811917 0.692073
Si Si5 0.904930 0.098494 0.083312
Si Si6 0.751204 0.220898 0.554191
Si Si7 0.097250 0.601828 0.706605
O O1 0.500000 0.115355 0.566775
O O2 0.604152 0.133342 0.640990
O O3 0.669334 0.157792 0.556121
O O4 0.616483 0.000000 0.579875
O O5 0.108762 0.891239 0.250000
O O6 0.173425 0.783176 0.313925
O O7 0.104562 0.905680 0.355849
O O8 0.000000 0.816440 0.306081
O O9 0.265810 0.668793 0.812371
O O10 0.278103 0.748387 0.895996
O O11 0.370313 0.820072 0.825647
O O12 0.500000 0.785821 0.699122
O O13 0.627315 0.874852 0.737073
O O14 0.837223 0.164524 0.061727
O O15 0.000000 0.118338 0.064777
O O16 0.883893 0.000000 0.070964
O O17 0.753682 0.264454 0.500000
O O18 0.092904 0.500000 0.705844
O O19 0.000000 0.631567 0.693713
#
# Coordination Sequence:
#
# PCOD9566064 Si02
#       7
#    16  16  16  16  16  16  16
#     4   9  17  29  46  70 100 129 156 190 232 281
#     4  10  18  27  42  63  89 121 153 186 228 279
#     4  10  20  33  48  68  94 123 158 199 238 282
#     4   9  17  30  49  74 104 135 162 187 226 285
#     4   9  18  30  41  56  80 111 150 192 229 269
#     4  10  21  34  46  61  83 116 158 201 244 283
#     4  10  19  31  51  77 103 130 158 192 237 290
#
# _framework density 17.253751999999999
#
# number of rings (size 3 to 8) (size 9 to 14) (size 15 to 20)
#    0.000    2.429    0.000    3.000    0.000    4.714 
#    0.000    5.714    0.000    0.857    0.000    3.000 
#    0.000    0.000    0.000    7.143    0.000    0.286 
#
# Total GULP energy -623493.818710 kJ/mol
# GULP energy per Si atom -5566.909096 kJ/mol
# Density = 1.721448 g / cm^3
# Si number density = 17.253752 Si / 1000 Ang^3
#
#
#
# Elastic Constant Matrix: (Units=GPa)
#
#
# Indices 1 2 3 4 5 6 
#
# 1 45.8126 12.9323 21.3670 0.0000 0.0000 0.0000
# 2 12.9323 45.8125 21.3668 0.0000 0.0000 0.0000
# 3 21.3670 21.3668 82.7890 0.0000 0.0000 0.0000
# 4 0.0000 0.0000 0.0000 -0.4805 0.0000 0.0000
# 5 0.0000 0.0000 0.0000 0.0000 -0.4810 0.0000
# 6 0.0000 0.0000 0.0000 0.0000 0.0000 24.1384
#
#
#
# Elastic Compliance Matrix: (Units=1/GPa)
#
#
# Indices 1 2 3 4 5 6 
#
# 1 0.025685 -0.004728 -0.005409 0.000000 0.000000 0.000000
# 2 -0.004728 0.025685 -0.005409 0.000000 0.000000 0.000000
# 3 -0.005409 -0.005409 0.014871 0.000000 0.000000 0.000000
# 4 0.000000 0.000000 0.000000 -2.081113 0.000000 0.000000
# 5 0.000000 0.000000 0.000000 0.000000 -2.078975 0.000000
# 6 0.000000 0.000000 0.000000 0.000000 0.000000 0.041428
#
#
# Mechanical properties :
#
#
# Convention : Reuss Voigt Hill
#
# Bulk Modulus (GPa) = 28.44932 31.74958 30.09945
# Shear Modulus (GPa) = -1.24700 12.55191 5.65246
#
# Velocity S-wave (km/s) = -0.85107 2.70013 1.81196
# Velocity P-wave (km/s) = 3.94447 5.30683 4.67553
#
# Compressibility (1/GPa) = 0.03515023
#
# Stress axis : x y z
#
# Youngs Moduli (GPa) = 38.93263 38.93263 67.24568
#
# Poissons Ratio (x) = 0.18407 0.36373
# Poissons Ratio (y) = 0.18407 0.36372
# Poissons Ratio (z) = 0.21058 0.21058
#
# Static dielectric constant tensor:
#      x y z
#    x 1.600130 0.000000 0.000000 
#    y 0.000000 1.600130 0.000000 
#    z 0.000000 0.000000 1.624380 
# 
# From -- ./inp_files/12497.got.cif
#   From: 2010.05.17/outbox.cif.g08.bks.cpg/sg131_7_cif.got.tgz:12497.got - 2010.05.20 12:21:01.
