data_PCOD9566966
_publ_section_title
;
Structure prediction by ZEFSAII (Michael W. Deem and Ramdas Pophale) SiO2 
 PCOD9566966
Probable space group: P 42/M C M
;
_chemical_formula_sum "Si O2"
_cell_formula_units_Z 96
_cell_length_a 30.079568
_cell_length_b 30.079568
_cell_length_c 8.183666
_cell_angle_alpha 90.000000
_cell_angle_beta 90.000000
_cell_angle_gamma 90.000000
_cell_volume 7404.420688
_symmetry_space_group_name_H-M "P 42/M C M"
_symmetry_group_IT_number 132
_symmetry_cell_setting 'tetragonal'
loop_
_space_group_symop_operation_xyz
x,y,z
-y,x,1/2+z
-x,-y,z
y,-x,1/2+z
x,-y,1/2-z
-x,y,1/2-z
y,x,-z
-y,-x,-z
-x,-y,-z
y,-x,1/2-z
x,y,-z
-y,x,1/2-z
-x,y,1/2+z
x,-y,1/2+z
-y,-x,z
y,x,z
loop_
_atom_site_type_symbol
_atom_site_label
_atom_site_fract_x
_atom_site_fract_y
_atom_site_fract_z
Si Si1 0.825328 0.248530 0.000000
Si Si2 0.132884 0.294218 0.192874
Si Si3 0.352546 0.048114 0.192606
Si Si4 0.165286 0.545228 0.690323
Si Si5 0.784596 0.363063 0.317348
Si Si6 0.323823 0.747619 0.000000
Si Si7 0.066729 0.548807 0.186339
O O1 0.853401 0.258330 0.832821
O O2 0.786831 0.286482 0.000000
O O3 0.798329 0.201672 0.000000
O O4 0.089467 0.322252 0.250704
O O5 0.173393 0.329485 0.187667
O O6 0.127377 0.279156 0.000000
O O7 0.405000 0.051863 0.233456
O O8 0.336460 0.000000 0.250000
O O9 0.349323 0.050463 0.000000
O O10 0.187738 0.500000 0.750000
O O11 0.151758 0.541535 0.500000
O O12 0.195612 0.587986 0.705690
O O13 0.120169 0.549731 0.793173
O O14 0.764917 0.359335 0.500000
O O15 0.753890 0.351043 0.165922
O O16 0.298249 0.701752 0.000000
O O17 0.052693 0.500000 0.250000
O O18 0.052819 0.551353 0.000000
#
# Coordination Sequence:
#
# PCOD9566966 Si02
#       7
#     8  16  16  16  16   8  16
#     4   9  18  30  48  68  84 100 130 162 203 256
#     4   9  18  31  46  61  85 107 130 164 203 252
#     4  11  22  34  46  61  79 105 140 172 210 259
#     4  10  18  27  40  59  77  98 130 167 205 249
#     4   9  17  28  43  58  77 103 126 156 202 245
#     4   9  18  28  42  62  80  99 125 155 194 250
#     4  11  21  31  45  58  74  99 132 178 218 258
#
# _framework density 12.965227000000001
#
# number of rings (size 3 to 8) (size 9 to 14) (size 15 to 20)
#    0.000    2.167    1.667    3.500    4.667    1.000 
#    0.000    5.000    0.000    0.000    0.000    0.000 
#    0.000    0.000    0.000    0.000    0.000    0.000 
#
# Total GULP energy -534592.026751 kJ/mol
# GULP energy per Si atom -5568.666945 kJ/mol
# Density = 1.293572 g / cm^3
# Si number density = 12.965227 Si / 1000 Ang^3
#
#
#
# Elastic Constant Matrix: (Units=GPa)
#
#
# Indices 1 2 3 4 5 6 
#
# 1 43.3807 30.3917 35.5523 0.0000 0.0000 0.0000
# 2 30.3917 43.3802 35.5524 0.0000 0.0000 0.0000
# 3 35.5523 35.5524 73.2344 0.0000 0.0000 0.0000
# 4 0.0000 0.0000 0.0000 -2.7041 0.0000 0.0000
# 5 0.0000 0.0000 0.0000 0.0000 -2.6684 0.0000
# 6 0.0000 0.0000 0.0000 0.0000 0.0000 10.7069
#
#
#
# Elastic Compliance Matrix: (Units=1/GPa)
#
#
# Indices 1 2 3 4 5 6 
#
# 1 0.051232 -0.025757 -0.012367 0.000000 0.000000 0.000000
# 2 -0.025757 0.051233 -0.012368 0.000000 0.000000 0.000000
# 3 -0.012367 -0.012368 0.025662 0.000000 0.000000 0.000000
# 4 0.000000 0.000000 0.000000 -0.369804 0.000000 0.000000
# 5 0.000000 0.000000 0.000000 0.000000 -0.374752 0.000000
# 6 0.000000 0.000000 0.000000 0.000000 0.000000 0.093397
#
#
# Mechanical properties :
#
#
# Convention : Reuss Voigt Hill
#
# Bulk Modulus (GPa) = 36.84051 40.33203 38.58627
# Shear Modulus (GPa) = -12.10653 4.96681 -3.56986
#
# Velocity S-wave (km/s) = -3.05908 1.95938 -1.66114
# Velocity P-wave (km/s) = 3.99991 6.02447 5.11339
#
# Compressibility (1/GPa) = 0.02714403
#
# Stress axis : x y z
#
# Youngs Moduli (GPa) = 19.51913 19.51864 38.96763
#
# Poissons Ratio (x) = 0.50274 0.48190
# Poissons Ratio (y) = 0.50276 0.48194
# Poissons Ratio (z) = 0.24139 0.24140
#
# Static dielectric constant tensor:
#      x y z
#    x 1.421150 0.000000 0.000000 
#    y 0.000000 1.421150 0.000000 
#    z 0.000000 0.000000 1.468100 
# 
# From -- ./inp_files/2138.got.cif
#   From: 2010.05.17/outbox.cif.g08.bks.cpg/sg132_2_cif.got.tgz:2138.got - 2010.05.20 12:30:18.
