data_PCOD9566536
_publ_section_title
;
Structure prediction by ZEFSAII (Michael W. Deem and Ramdas Pophale) SiO2 
 PCOD9566536
Probable space group: P 42/M M C
;
_chemical_formula_sum "Si O2"
_cell_formula_units_Z 88
_cell_length_a 14.032870
_cell_length_b 14.032870
_cell_length_c 26.601897
_cell_angle_alpha 90.000000
_cell_angle_beta 90.000000
_cell_angle_gamma 90.000000
_cell_volume 5238.483876
_symmetry_space_group_name_H-M "P 42/M M C"
_symmetry_group_IT_number 131
_symmetry_cell_setting 'tetragonal'
loop_
_space_group_symop_operation_xyz
x,y,z
-x,-y,z
-y,x,1/2+z
y,-x,1/2+z
-x,y,-z
x,-y,-z
y,x,1/2-z
-y,-x,1/2-z
-x,-y,-z
x,y,-z
y,-x,1/2-z
-y,x,1/2-z
x,-y,z
-x,y,z
-y,-x,1/2+z
y,x,1/2+z
loop_
_atom_site_type_symbol
_atom_site_label
_atom_site_fract_x
_atom_site_fract_y
_atom_site_fract_z
Si Si1 0.732934 0.111875 0.745013
Si Si2 0.391639 0.384392 0.500000
Si Si3 0.893451 0.611801 0.346856
Si Si4 0.613522 0.213842 0.342208
Si Si5 0.384710 0.888233 0.444964
Si Si6 0.387220 0.305856 0.107525
O O1 0.832250 0.167751 0.750000
O O2 0.676614 0.118506 0.797779
O O3 0.670049 0.165552 0.703084
O O4 0.743516 0.000000 0.732787
O O5 0.500000 0.347407 0.500000
O O6 0.395634 0.500000 0.500000
O O7 0.341101 0.358771 0.447971
O O8 0.887934 0.500000 0.332057
O O9 0.806551 0.629357 0.384546
O O10 0.000000 0.628010 0.367578
O O11 0.500000 0.201538 0.335941
O O12 0.645789 0.164478 0.394569
O O13 0.639537 0.324144 0.351256
O O14 0.351794 0.852830 0.500000
O O15 0.500000 0.882357 0.445296
O O16 0.360184 0.000000 0.441454
O O17 0.500000 0.324537 0.113839
#
# Coordination Sequence:
#
# PCOD9566536 Si02
#       6
#    16   8  16  16  16  16
#     4  11  22  38  57  80 106 133 173 224 278 332
#     4   9  18  32  49  73 110 154 186 213 255 309
#     4   9  18  35  58  78 101 135 175 225 280 325
#     4  11  21  32  52  79 107 143 184 219 261 315
#     4   8  15  28  45  69 102 136 172 215 258 299
#     4  10  20  34  52  77 110 145 185 222 261 318
#
# _framework density 16.798753999999999
#
# number of rings (size 3 to 8) (size 9 to 14) (size 15 to 20)
#    0.000    2.273    1.818    2.182    1.273    3.091 
#    0.000    0.455    0.000    2.727    0.000    0.000 
#    0.000    0.000    0.000    9.818    0.000    0.545 
#
# Total GULP energy -490625.610219 kJ/mol
# GULP energy per Si atom -5575.291025 kJ/mol
# Density = 1.676052 g / cm^3
# Si number density = 16.798754 Si / 1000 Ang^3
#
#
#
# Elastic Constant Matrix: (Units=GPa)
#
#
# Indices 1 2 3 4 5 6 
#
# 1 92.4738 45.8605 52.3963 0.0000 0.0000 0.0000
# 2 45.8605 92.4756 52.3969 0.0000 0.0000 0.0000
# 3 52.3963 52.3969 78.2969 0.0000 0.0000 0.0000
# 4 0.0000 0.0000 0.0000 22.4075 0.0000 0.0000
# 5 0.0000 0.0000 0.0000 0.0000 22.4078 0.0000
# 6 0.0000 0.0000 0.0000 0.0000 0.0000 20.0866
#
#
#
# Elastic Compliance Matrix: (Units=1/GPa)
#
#
# Indices 1 2 3 4 5 6 
#
# 1 0.018057 -0.003396 -0.009811 0.000000 0.000000 0.000000
# 2 -0.003396 0.018057 -0.009811 0.000000 0.000000 0.000000
# 3 -0.009811 -0.009811 0.025903 0.000000 0.000000 0.000000
# 4 0.000000 0.000000 0.000000 0.044628 0.000000 0.000000
# 5 0.000000 0.000000 0.000000 0.000000 0.044627 0.000000
# 6 0.000000 0.000000 0.000000 0.000000 0.000000 0.049784
#
#
# Mechanical properties :
#
#
# Convention : Reuss Voigt Hill
#
# Bulk Modulus (GPa) = 62.57613 62.72819 62.65216
# Shear Modulus (GPa) = 19.80821 20.48656 20.14738
#
# Velocity S-wave (km/s) = 3.43760 3.49596 3.46690
# Velocity P-wave (km/s) = 7.28611 7.32924 7.30771
#
# Compressibility (1/GPa) = 0.01598053
#
# Stress axis : x y z
#
# Youngs Moduli (GPa) = 55.37990 55.38082 38.60489
#
# Poissons Ratio (x) = 0.18806 0.37877
# Poissons Ratio (y) = 0.18806 0.37876
# Poissons Ratio (z) = 0.54335 0.54336
#
# Static dielectric constant tensor:
#      x y z
#    x 1.579300 0.000000 0.000000 
#    y 0.000000 1.579300 0.000000 
#    z 0.000000 0.000000 1.557160 
# 
# From -- ./inp_files/11075.got.cif
#   From: 2010.05.17/outbox.cif.g08.bks.cpg/sg131_6_cif.got.tgz:11075.got - 2010.05.20 12:21:01.
