data_PCOD9566056
_publ_section_title
;
Structure prediction by ZEFSAII (Michael W. Deem and Ramdas Pophale) SiO2 
 PCOD9566056
Probable space group: P 42/M M C
;
_chemical_formula_sum "Si O2"
_cell_formula_units_Z 96
_cell_length_a 17.145161
_cell_length_b 17.145161
_cell_length_c 18.212859
_cell_angle_alpha 90.000000
_cell_angle_beta 90.000000
_cell_angle_gamma 90.000000
_cell_volume 5353.789119
_symmetry_space_group_name_H-M "P 42/M M C"
_symmetry_group_IT_number 131
_symmetry_cell_setting 'tetragonal'
loop_
_space_group_symop_operation_xyz
x,y,z
-x,-y,z
-y,x,1/2+z
y,-x,1/2+z
-x,y,-z
x,-y,-z
y,x,1/2-z
-y,-x,1/2-z
-x,-y,-z
x,y,-z
y,-x,1/2-z
-y,x,1/2-z
x,-y,z
-x,y,z
-y,-x,1/2+z
y,x,1/2+z
loop_
_atom_site_type_symbol
_atom_site_label
_atom_site_fract_x
_atom_site_fract_y
_atom_site_fract_z
Si Si1 0.586888 0.908976 0.638607
Si Si2 0.335214 0.409161 0.185058
Si Si3 0.158693 0.740553 0.080827
Si Si4 0.177986 0.638610 0.727873
Si Si5 0.655262 0.736479 0.084864
Si Si6 0.792974 0.909424 0.729210
O O1 0.500000 0.894175 0.612369
O O2 0.649436 0.858755 0.594905
O O3 0.592581 0.886327 0.724862
O O4 0.605511 0.000000 0.630109
O O5 0.398254 0.398254 0.250000
O O6 0.325525 0.500000 0.165646
O O7 0.255936 0.376033 0.223476
O O8 0.355180 0.350540 0.118555
O O9 0.251410 0.752221 0.087054
O O10 0.109505 0.781732 0.143658
O O11 0.133547 0.763617 0.000000
O O12 0.203811 0.619229 0.645020
O O13 0.144934 0.726894 0.732255
O O14 0.629698 0.742761 0.000000
O O15 0.877129 0.877129 0.750000
O O16 0.780502 0.000000 0.745157
#
# Coordination Sequence:
#
# PCOD9566056 Si02
#       6
#    16  16  16  16  16  16
#     4  10  20  31  48  77 109 139 167 201 250 305
#     4  10  19  32  53  77 105 138 173 209 250 304
#     4  10  19  32  51  76 106 139 166 201 255 309
#     4  10  17  34  53  73  97 134 177 216 249 293
#     4  10  19  31  53  78 102 130 169 214 259 300
#     4  11  20  34  54  75 102 136 176 219 258 304
#
# _framework density 17.931225000000001
#
# number of rings (size 3 to 8) (size 9 to 14) (size 15 to 20)
#    0.000    1.833    5.000    3.000    0.000    2.333 
#    0.000    2.500    0.000   16.000    0.000    7.000 
#    0.000    0.000    0.000    0.000    0.000    0.000 
#
# Total GULP energy -534755.352362 kJ/mol
# GULP energy per Si atom -5570.368254 kJ/mol
# Density = 1.789041 g / cm^3
# Si number density = 17.931225 Si / 1000 Ang^3
#
#
#
# Elastic Constant Matrix: (Units=GPa)
#
#
# Indices 1 2 3 4 5 6 
#
# 1 31.3615 5.0733 -2.4928 0.0000 0.0000 0.0000
# 2 5.0733 31.3615 -2.4928 0.0000 0.0000 0.0000
# 3 -2.4928 -2.4928 102.5170 0.0000 0.0000 0.0000
# 4 0.0000 0.0000 0.0000 9.0400 0.0000 0.0000
# 5 0.0000 0.0000 0.0000 0.0000 9.0400 0.0000
# 6 0.0000 0.0000 0.0000 0.0000 0.0000 19.2835
#
#
#
# Elastic Compliance Matrix: (Units=1/GPa)
#
#
# Indices 1 2 3 4 5 6 
#
# 1 0.032789 -0.005251 0.000670 0.000000 0.000000 0.000000
# 2 -0.005251 0.032789 0.000670 0.000000 0.000000 0.000000
# 3 0.000670 0.000670 0.009787 0.000000 0.000000 0.000000
# 4 0.000000 0.000000 0.000000 0.110620 0.000000 0.000000
# 5 0.000000 0.000000 0.000000 0.000000 0.110620 0.000000
# 6 0.000000 0.000000 0.000000 0.000000 0.000000 0.051858
#
#
# Mechanical properties :
#
#
# Convention : Reuss Voigt Hill
#
# Bulk Modulus (GPa) = 14.80577 18.37951 16.59264
# Shear Modulus (GPa) = 13.19960 18.48286 15.84123
#
# Velocity S-wave (km/s) = 2.71610 3.21403 2.97550
# Velocity P-wave (km/s) = 4.25572 4.90363 4.59112
#
# Compressibility (1/GPa) = 0.06754124
#
# Stress axis : x y z
#
# Youngs Moduli (GPa) = 30.49817 30.49817 102.17593
#
# Poissons Ratio (x) = 0.16015 -0.06842
# Poissons Ratio (y) = 0.16015 -0.06842
# Poissons Ratio (z) = -0.02042 -0.02042
#
# Static dielectric constant tensor:
#      x y z
#    x 1.641490 0.000000 0.000000 
#    y 0.000000 1.641490 0.000000 
#    z 0.000000 0.000000 1.643230 
# 
# From -- ./inp_files/7990.got.cif
#   From: 2010.05.17/outbox.cif.g08.bks.cpg/sg131_4_cif.got.tgz:7990.got - 2010.05.20 12:21:01.
