data_PCOD9566098
_publ_section_title
;
Structure prediction by ZEFSAII (Michael W. Deem and Ramdas Pophale) SiO2 
 PCOD9566098
Probable space group: P 42/M M C
;
_chemical_formula_sum "Si O2"
_cell_formula_units_Z 104
_cell_length_a 18.926466
_cell_length_b 18.926466
_cell_length_c 17.711783
_cell_angle_alpha 90.000000
_cell_angle_beta 90.000000
_cell_angle_gamma 90.000000
_cell_volume 6344.557541
_symmetry_space_group_name_H-M "P 42/M M C"
_symmetry_group_IT_number 131
_symmetry_cell_setting 'tetragonal'
loop_
_space_group_symop_operation_xyz
x,y,z
-x,-y,z
-y,x,1/2+z
y,-x,1/2+z
-x,y,-z
x,-y,-z
y,x,1/2-z
-y,-x,1/2-z
-x,-y,-z
x,y,-z
y,-x,1/2-z
-y,x,1/2-z
x,-y,z
-x,y,z
-y,-x,1/2+z
y,x,1/2+z
loop_
_atom_site_type_symbol
_atom_site_label
_atom_site_fract_x
_atom_site_fract_y
_atom_site_fract_z
Si Si1 0.421794 0.207406 0.090679
Si Si2 0.584711 0.642652 0.326771
Si Si3 0.500000 0.415576 0.918324
Si Si4 0.919257 0.078962 0.158064
Si Si5 0.286764 0.301995 0.909740
Si Si6 0.797325 0.820081 0.839359
Si Si7 0.916535 0.677171 0.590309
O O1 0.500000 0.222331 0.121749
O O2 0.358460 0.259404 0.113715
O O3 0.394237 0.127920 0.105922
O O4 0.425508 0.213703 0.000000
O O5 0.624688 0.624688 0.250000
O O6 0.500000 0.650056 0.316666
O O7 0.598565 0.572323 0.376224
O O8 0.622543 0.706900 0.369380
O O9 0.500000 0.500000 0.926238
O O10 0.500000 0.380299 0.000000
O O11 0.919787 0.080214 0.250000
O O12 0.868941 0.142071 0.133670
O O13 0.000000 0.086943 0.133021
O O14 0.894197 0.000000 0.135698
O O15 0.224148 0.251800 0.881319
O O16 0.285813 0.308823 0.000000
O O17 0.804204 0.804204 0.750000
O O18 0.737140 0.877712 0.860573
O O19 0.906706 0.692727 0.500000
O O20 0.000000 0.672240 0.604679
#
# Coordination Sequence:
#
# PCOD9566098 Si02
#       7
#    16  16   8  16  16  16  16
#     4   8  15  27  42  63  90 121 159 199 232 270
#     4  11  21  34  50  71  98 123 155 207 261 306
#     4   9  18  30  46  66  90 122 155 187 235 298
#     4   8  14  25  44  72 102 130 161 199 243 291
#     4  10  21  34  48  66  93 133 174 206 243 296
#     4  10  18  30  47  69  98 130 167 206 246 290
#     4   9  17  29  46  68  95 128 161 194 238 291
#
# _framework density 16.392002000000002
#
# number of rings (size 3 to 8) (size 9 to 14) (size 15 to 20)
#    0.000    2.692    0.769    3.231    1.077    1.846 
#    0.000    1.538    0.000    1.846    0.000    5.385 
#    0.000    0.615    0.000    1.385    0.000    0.000 
#
# Total GULP energy -579208.756329 kJ/mol
# GULP energy per Si atom -5569.314965 kJ/mol
# Density = 1.635469 g / cm^3
# Si number density = 16.392002 Si / 1000 Ang^3
#
#
#
# Elastic Constant Matrix: (Units=GPa)
#
#
# Indices 1 2 3 4 5 6 
#
# 1 71.5811 37.2570 23.5796 0.0000 0.0000 0.0000
# 2 37.2570 71.5811 23.5796 0.0000 0.0000 0.0000
# 3 23.5796 23.5796 60.5406 0.0000 0.0000 0.0000
# 4 0.0000 0.0000 0.0000 19.3486 0.0000 0.0000
# 5 0.0000 0.0000 0.0000 0.0000 19.3486 0.0000
# 6 0.0000 0.0000 0.0000 0.0000 0.0000 31.9265
#
#
#
# Elastic Compliance Matrix: (Units=1/GPa)
#
#
# Indices 1 2 3 4 5 6 
#
# 1 0.020094 -0.009040 -0.004305 0.000000 0.000000 0.000000
# 2 -0.009040 0.020094 -0.004305 0.000000 0.000000 0.000000
# 3 -0.004305 -0.004305 0.019871 0.000000 0.000000 0.000000
# 4 0.000000 0.000000 0.000000 0.051683 0.000000 0.000000
# 5 0.000000 0.000000 0.000000 0.000000 0.051683 0.000000
# 6 0.000000 0.000000 0.000000 0.000000 0.000000 0.031322
#
#
# Mechanical properties :
#
#
# Convention : Reuss Voigt Hill
#
# Bulk Modulus (GPa) = 40.39153 41.39280 40.89217
# Shear Modulus (GPa) = 20.98187 22.07718 21.52953
#
# Velocity S-wave (km/s) = 3.58160 3.67390 3.62804
# Velocity P-wave (km/s) = 6.46516 6.58053 6.52310
#
# Compressibility (1/GPa) = 0.02475766
#
# Stress axis : x y z
#
# Youngs Moduli (GPa) = 49.76686 49.76685 50.32359
#
# Poissons Ratio (x) = 0.44991 0.21665
# Poissons Ratio (y) = 0.44991 0.21665
# Poissons Ratio (z) = 0.21425 0.21425
#
# Static dielectric constant tensor:
#      x y z
#    x 1.574140 0.000000 0.000000 
#    y 0.000000 1.574140 0.000000 
#    z 0.000000 0.000000 1.564350 
# 
# From -- ./inp_files/8090.got.cif
#   From: 2010.05.17/outbox.cif.g08.bks.cpg/sg131_5_cif.got.tgz:8090.got - 2010.05.20 12:21:01.
