data_PCOD9566750
_publ_section_title
;
Structure prediction by ZEFSAII (Michael W. Deem and Ramdas Pophale) SiO2 
 PCOD9566750
Probable space group: P 42/M M C
;
_chemical_formula_sum "Si O2"
_cell_formula_units_Z 96
_cell_length_a 14.823731
_cell_length_b 14.823731
_cell_length_c 20.617070
_cell_angle_alpha 90.000000
_cell_angle_beta 90.000000
_cell_angle_gamma 90.000000
_cell_volume 4530.456829
_symmetry_space_group_name_H-M "P 42/M M C"
_symmetry_group_IT_number 131
_symmetry_cell_setting 'tetragonal'
loop_
_space_group_symop_operation_xyz
x,y,z
-x,-y,z
-y,x,1/2+z
y,-x,1/2+z
-x,y,-z
x,-y,-z
y,x,1/2-z
-y,-x,1/2-z
-x,-y,-z
x,y,-z
y,-x,1/2-z
-y,x,1/2-z
x,-y,z
-x,y,z
-y,-x,1/2+z
y,x,1/2+z
loop_
_atom_site_type_symbol
_atom_site_label
_atom_site_fract_x
_atom_site_fract_y
_atom_site_fract_z
Si Si1 0.891476 0.736664 0.133275
Si Si2 0.402193 0.102267 0.264201
Si Si3 0.603223 0.639368 0.173902
Si Si4 0.599261 0.843425 0.878138
Si Si5 0.399920 0.758257 0.428108
Si Si6 0.789970 0.894105 0.926084
O O1 0.863256 0.687079 0.200614
O O2 0.837012 0.672109 0.083856
O O3 0.848780 0.834401 0.122643
O O4 0.000000 0.739732 0.125498
O O5 0.500000 0.147805 0.277876
O O6 0.392691 0.099193 0.187453
O O7 0.409255 0.000000 0.288667
O O8 0.626922 0.626922 0.250000
O O9 0.500000 0.605488 0.164612
O O10 0.602018 0.743296 0.151661
O O11 0.680407 0.601780 0.126401
O O12 0.500000 0.858518 0.907869
O O13 0.685843 0.862886 0.921019
O O14 0.384049 0.718148 0.500000
O O15 0.500000 0.798722 0.427310
O O16 0.794675 0.000000 0.911777
O O17 0.821723 0.879418 0.000000
#
# Coordination Sequence:
#
# PCOD9566750 Si02
#       6
#    16  16  16  16  16  16
#     4  11  23  41  66  91 122 164 208 263 326 380
#     4   9  18  34  60  95 127 154 195 253 314 376
#     4  11  23  39  63  95 132 172 213 255 303 371
#     4  10  21  38  64  95 127 165 206 254 313 373
#     4  11  24  41  62  91 128 167 211 263 317 376
#     4  11  25  43  63  90 125 166 214 263 313 378
#
# _framework density 21.189917000000001
#
# number of rings (size 3 to 8) (size 9 to 14) (size 15 to 20)
#    0.000    1.500    1.667    3.000    0.000    6.833 
#    0.000    5.000    0.000    0.000    0.000    2.333 
#    0.000    0.000    0.000    0.000    0.000    0.000 
#
# Total GULP energy -535480.393497 kJ/mol
# GULP energy per Si atom -5577.920766 kJ/mol
# Density = 2.114169 g / cm^3
# Si number density = 21.189917 Si / 1000 Ang^3
#
#
#
# Elastic Constant Matrix: (Units=GPa)
#
#
# Indices 1 2 3 4 5 6 
#
# 1 111.4480 26.5421 12.7358 0.0000 0.0000 0.0000
# 2 26.5421 111.4480 12.7358 0.0000 0.0000 0.0000
# 3 12.7358 12.7358 63.0880 0.0000 0.0000 0.0000
# 4 0.0000 0.0000 0.0000 26.5358 0.0000 0.0000
# 5 0.0000 0.0000 0.0000 0.0000 26.5358 0.0000
# 6 0.0000 0.0000 0.0000 0.0000 0.0000 7.0807
#
#
#
# Elastic Compliance Matrix: (Units=1/GPa)
#
#
# Indices 1 2 3 4 5 6 
#
# 1 0.009653 -0.002125 -0.001520 0.000000 0.000000 0.000000
# 2 -0.002125 0.009653 -0.001520 0.000000 0.000000 0.000000
# 3 -0.001520 -0.001520 0.016464 0.000000 0.000000 0.000000
# 4 0.000000 0.000000 0.000000 0.037685 0.000000 0.000000
# 5 0.000000 0.000000 0.000000 0.000000 0.037685 0.000000
# 6 0.000000 0.000000 0.000000 0.000000 0.000000 0.141230
#
#
# Mechanical properties :
#
#
# Convention : Reuss Voigt Hill
#
# Bulk Modulus (GPa) = 39.30684 43.33461 41.32072
# Shear Modulus (GPa) = 18.43806 27.62845 23.03326
#
# Velocity S-wave (km/s) = 2.95300 3.61480 3.30053
# Velocity P-wave (km/s) = 5.49700 6.15771 5.83671
#
# Compressibility (1/GPa) = 0.02544086
#
# Stress axis : x y z
#
# Youngs Moduli (GPa) = 103.59933 103.59933 60.73708
#
# Poissons Ratio (x) = 0.22017 0.09230
# Poissons Ratio (y) = 0.22017 0.09230
# Poissons Ratio (z) = 0.15743 0.15743
#
# Static dielectric constant tensor:
#      x y z
#    x 1.841530 0.000000 0.000000 
#    y 0.000000 1.841530 0.000000 
#    z 0.000000 0.000000 1.776100 
# 
# From -- ./inp_files/9731.got.cif
#   From: 2010.05.17/outbox.cif.g08.bks.cpg/sg131_5_cif.got.tgz:9731.got - 2010.05.20 12:21:01.
