data_PCOD9566251
_publ_section_title
;
Structure prediction by ZEFSAII (Michael W. Deem and Ramdas Pophale) SiO2 
 PCOD9566251
Probable space group: P 42/M M C
;
_chemical_formula_sum "Si O2"
_cell_formula_units_Z 96
_cell_length_a 24.631158
_cell_length_b 24.631158
_cell_length_c 7.557874
_cell_angle_alpha 90.000000
_cell_angle_beta 90.000000
_cell_angle_gamma 90.000000
_cell_volume 4585.316388
_symmetry_space_group_name_H-M "P 42/M M C"
_symmetry_group_IT_number 131
_symmetry_cell_setting 'tetragonal'
loop_
_space_group_symop_operation_xyz
x,y,z
-x,-y,z
-y,x,1/2+z
y,-x,1/2+z
-x,y,-z
x,-y,-z
y,x,1/2-z
-y,-x,1/2-z
-x,-y,-z
x,y,-z
y,-x,1/2-z
-y,x,1/2-z
x,-y,z
-x,y,z
-y,-x,1/2+z
y,x,1/2+z
loop_
_atom_site_type_symbol
_atom_site_label
_atom_site_fract_x
_atom_site_fract_y
_atom_site_fract_z
Si Si1 0.738183 0.821039 0.712299
Si Si2 0.557760 0.822420 0.202451
Si Si3 0.349142 0.436734 0.787739
Si Si4 0.059325 0.710914 0.212408
Si Si5 0.745612 0.644234 0.197107
Si Si6 0.418628 0.941361 0.289086
O O1 0.797067 0.797067 0.750000
O O2 0.728516 0.822666 0.500000
O O3 0.731382 0.882449 0.780236
O O4 0.695635 0.775696 0.785355
O O5 0.500000 0.801836 0.267354
O O6 0.604564 0.796925 0.315031
O O7 0.558441 0.887073 0.208129
O O8 0.565331 0.805308 0.000000
O O9 0.406332 0.406332 0.750000
O O10 0.345964 0.500000 0.723981
O O11 0.302152 0.393978 0.723526
O O12 0.342184 0.439346 0.000000
O O13 0.060277 0.646073 0.238398
O O14 0.000000 0.730455 0.279547
O O15 0.058931 0.720325 0.000000
O O16 0.726273 0.660271 0.000000
O O17 0.428715 0.938998 0.500000
O O18 0.437961 0.000000 0.224615
#
# Coordination Sequence:
#
# PCOD9566251 Si02
#       6
#    16  16  16  16  16  16
#     4  10  19  31  51  79 107 135 168 208 253 297
#     4  11  23  34  46  69 101 134 168 212 264 309
#     4  10  22  39  59  82 105 131 164 206 257 313
#     4   8  14  28  50  73  98 131 172 212 247 289
#     4  10  20  37  57  76 100 133 171 207 248 303
#     4   9  17  32  53  71  90 125 175 220 253 295
#
# _framework density 20.936395999999998
#
# number of rings (size 3 to 8) (size 9 to 14) (size 15 to 20)
#    0.000    2.333    1.667    2.500    0.000    4.500 
#    0.000    2.500    0.000    0.500    0.000    0.000 
#    0.000    0.333    0.000    4.167    0.000    0.000 
#
# Total GULP energy -535213.635357 kJ/mol
# GULP energy per Si atom -5575.142035 kJ/mol
# Density = 2.088874 g / cm^3
# Si number density = 20.936396 Si / 1000 Ang^3
#
#
#
# Elastic Constant Matrix: (Units=GPa)
#
#
# Indices 1 2 3 4 5 6 
#
# 1 124.9083 75.3610 10.3349 0.0000 0.0000 0.0000
# 2 75.3610 124.9083 10.3349 0.0000 0.0000 0.0000
# 3 10.3349 10.3349 46.4441 0.0000 0.0000 0.0000
# 4 0.0000 0.0000 0.0000 30.1481 0.0000 0.0000
# 5 0.0000 0.0000 0.0000 0.0000 30.1481 0.0000
# 6 0.0000 0.0000 0.0000 0.0000 0.0000 15.9461
#
#
#
# Elastic Compliance Matrix: (Units=1/GPa)
#
#
# Indices 1 2 3 4 5 6 
#
# 1 0.012647 -0.007536 -0.001137 0.000000 0.000000 0.000000
# 2 -0.007536 0.012647 -0.001137 0.000000 0.000000 0.000000
# 3 -0.001137 -0.001137 0.022037 0.000000 0.000000 0.000000
# 4 0.000000 0.000000 0.000000 0.033170 0.000000 0.000000
# 5 0.000000 0.000000 0.000000 0.000000 0.033170 0.000000
# 6 0.000000 0.000000 0.000000 0.000000 0.000000 0.062711
#
#
# Mechanical properties :
#
#
# Convention : Reuss Voigt Hill
#
# Bulk Modulus (GPa) = 36.08840 54.25803 45.17321
# Shear Modulus (GPa) = 24.36184 28.59711 26.47948
#
# Velocity S-wave (km/s) = 3.41488 3.69982 3.56020
# Velocity P-wave (km/s) = 5.72914 6.65008 6.20671
#
# Compressibility (1/GPa) = 0.02770974
#
# Stress axis : x y z
#
# Youngs Moduli (GPa) = 79.07204 79.07204 45.37743
#
# Poissons Ratio (x) = 0.59589 0.05160
# Poissons Ratio (y) = 0.59589 0.05160
# Poissons Ratio (z) = 0.08992 0.08992
#
# Static dielectric constant tensor:
#      x y z
#    x 1.804800 0.000000 0.000000 
#    y 0.000000 1.804800 0.000000 
#    z 0.000000 0.000000 1.835760 
# 
# From -- ./inp_files/2171.got.cif
#   From: 2010.05.17/outbox.cif.g08.bks.cpg/sg131_2_cif.got.tgz:2171.got - 2010.05.20 12:21:01.
