data_PCOD9566742
_publ_section_title
;
Structure prediction by ZEFSAII (Michael W. Deem and Ramdas Pophale) SiO2 
 PCOD9566742
Probable space group: P 42/M M C
;
_chemical_formula_sum "Si O2"
_cell_formula_units_Z 104
_cell_length_a 17.786543
_cell_length_b 17.786543
_cell_length_c 17.757867
_cell_angle_alpha 90.000000
_cell_angle_beta 90.000000
_cell_angle_gamma 90.000000
_cell_volume 5617.898549
_symmetry_space_group_name_H-M "P 42/M M C"
_symmetry_group_IT_number 131
_symmetry_cell_setting 'tetragonal'
loop_
_space_group_symop_operation_xyz
x,y,z
-x,-y,z
-y,x,1/2+z
y,-x,1/2+z
-x,y,-z
x,-y,-z
y,x,1/2-z
-y,-x,1/2-z
-x,-y,-z
x,y,-z
y,-x,1/2-z
-y,x,1/2-z
x,-y,z
-x,y,z
-y,-x,1/2+z
y,x,1/2+z
loop_
_atom_site_type_symbol
_atom_site_label
_atom_site_fract_x
_atom_site_fract_y
_atom_site_fract_z
Si Si1 0.705906 0.911905 0.585359
Si Si2 0.587651 0.794539 0.647450
Si Si3 0.409992 0.914570 0.083005
Si Si4 0.796352 0.911340 0.264738
Si Si5 0.656267 0.665269 0.911609
Si Si6 0.500000 0.587050 0.091423
Si Si7 0.331205 0.805852 0.804962
O O1 0.729566 0.893447 0.500000
O O2 0.635664 0.860741 0.608887
O O3 0.770045 0.901632 0.648427
O O4 0.684873 0.000000 0.587846
O O5 0.500000 0.812344 0.653229
O O6 0.601663 0.718922 0.600279
O O7 0.624546 0.783067 0.729714
O O8 0.500000 0.915616 0.081878
O O9 0.382926 0.861111 0.147426
O O10 0.383938 0.000000 0.094797
O O11 0.384172 0.889465 0.000000
O O12 0.879208 0.879208 0.250000
O O13 0.741038 0.855538 0.218276
O O14 0.787845 0.000000 0.246120
O O15 0.575185 0.632582 0.887278
O O16 0.681715 0.734479 0.858792
O O17 0.652285 0.686500 0.000000
O O18 0.500000 0.500000 0.118005
O O19 0.500000 0.584103 0.000000
#
# Coordination Sequence:
#
# PCOD9566742 Si02
#       7
#    16  16  16  16  16   8  16
#     4   9  19  37  60  85 114 150 190 230 276 334
#     4  11  23  36  54  80 113 148 183 233 293 347
#     4   9  18  32  52  79 111 148 188 231 279 335
#     4  10  21  38  61  87 116 150 187 232 285 342
#     4  11  23  38  59  81 106 147 197 245 293 346
#     4   9  20  38  58  80 105 139 192 253 299 339
#     4  11  21  37  55  81 113 148 185 232 284 351
#
# _framework density 18.512260999999999
#
# number of rings (size 3 to 8) (size 9 to 14) (size 15 to 20)
#    0.000    1.923    0.000    5.077    2.154    2.923 
#    0.000    1.538    0.000    2.308    0.000    2.154 
#    0.000    0.000    0.000    0.000    0.000    0.000 
#
# Total GULP energy -580333.352282 kJ/mol
# GULP energy per Si atom -5580.128387 kJ/mol
# Density = 1.847013 g / cm^3
# Si number density = 18.512261 Si / 1000 Ang^3
#
#
#
# Elastic Constant Matrix: (Units=GPa)
#
#
# Indices 1 2 3 4 5 6 
#
# 1 84.2804 45.3642 43.2258 0.0000 0.0000 0.0000
# 2 45.3642 84.2804 43.2258 0.0000 0.0000 0.0000
# 3 43.2258 43.2258 94.4376 0.0000 0.0000 0.0000
# 4 0.0000 0.0000 0.0000 26.4707 0.0000 0.0000
# 5 0.0000 0.0000 0.0000 0.0000 26.4707 0.0000
# 6 0.0000 0.0000 0.0000 0.0000 0.0000 24.8050
#
#
#
# Elastic Compliance Matrix: (Units=1/GPa)
#
#
# Indices 1 2 3 4 5 6 
#
# 1 0.018399 -0.007297 -0.005082 0.000000 0.000000 0.000000
# 2 -0.007297 0.018399 -0.005082 0.000000 0.000000 0.000000
# 3 -0.005082 -0.005082 0.015241 0.000000 0.000000 0.000000
# 4 0.000000 0.000000 0.000000 0.037778 0.000000 0.000000
# 5 0.000000 0.000000 0.000000 0.000000 0.037778 0.000000
# 6 0.000000 0.000000 0.000000 0.000000 0.000000 0.040315
#
#
# Mechanical properties :
#
#
# Convention : Reuss Voigt Hill
#
# Bulk Modulus (GPa) = 58.41632 58.51445 58.46538
# Shear Modulus (GPa) = 23.97673 24.29478 24.13576
#
# Velocity S-wave (km/s) = 3.60277 3.62658 3.61469
# Velocity P-wave (km/s) = 6.99504 7.01522 7.00513
#
# Compressibility (1/GPa) = 0.01711850
#
# Stress axis : x y z
#
# Youngs Moduli (GPa) = 54.35050 54.35050 65.61307
#
# Poissons Ratio (x) = 0.39660 0.33342
# Poissons Ratio (y) = 0.39660 0.33342
# Poissons Ratio (z) = 0.27619 0.27619
#
# Static dielectric constant tensor:
#      x y z
#    x 1.641180 0.000000 0.000000 
#    y 0.000000 1.641180 0.000000 
#    z 0.000000 0.000000 1.647140 
# 
# From -- ./inp_files/8074.got.cif
#   From: 2010.05.17/outbox.cif.g08.bks.cpg/sg131_5_cif.got.tgz:8074.got - 2010.05.20 12:21:01.
