data_PCOD9566316
_publ_section_title
;
Structure prediction by ZEFSAII (Michael W. Deem and Ramdas Pophale) SiO2 
 PCOD9566316
Probable space group: P 42/M M C
;
_chemical_formula_sum "Si O2"
_cell_formula_units_Z 112
_cell_length_a 18.582783
_cell_length_b 18.582783
_cell_length_c 19.275444
_cell_angle_alpha 90.000000
_cell_angle_beta 90.000000
_cell_angle_gamma 90.000000
_cell_volume 6656.192930
_symmetry_space_group_name_H-M "P 42/M M C"
_symmetry_group_IT_number 131
_symmetry_cell_setting 'tetragonal'
loop_
_space_group_symop_operation_xyz
x,y,z
-x,-y,z
-y,x,1/2+z
y,-x,1/2+z
-x,y,-z
x,-y,-z
y,x,1/2-z
-y,-x,1/2-z
-x,-y,-z
x,y,-z
y,-x,1/2-z
-y,x,1/2-z
x,-y,z
-x,y,z
-y,-x,1/2+z
y,x,1/2+z
loop_
_atom_site_type_symbol
_atom_site_label
_atom_site_fract_x
_atom_site_fract_y
_atom_site_fract_z
Si Si1 0.209613 0.156136 0.079844
Si Si2 0.713762 0.692846 0.917330
Si Si3 0.681126 0.920674 0.706671
Si Si4 0.582263 0.230044 0.149547
Si Si5 0.919560 0.648703 0.370629
Si Si6 0.148741 0.916660 0.318031
Si Si7 0.213968 0.586194 0.186271
O O1 0.235419 0.237474 0.098800
O O2 0.278704 0.105361 0.091190
O O3 0.142502 0.130856 0.124661
O O4 0.189557 0.157391 0.000000
O O5 0.635687 0.720837 0.894230
O O6 0.735147 0.625821 0.869069
O O7 0.717881 0.678940 0.000000
O O8 0.668144 0.922065 0.789133
O O9 0.765707 0.906535 0.696337
O O10 0.626976 0.861996 0.676810
O O11 0.665539 0.000000 0.678084
O O12 0.500000 0.250631 0.140523
O O13 0.593984 0.147234 0.124842
O O14 0.599634 0.234385 0.232418
O O15 0.000000 0.625222 0.391647
O O16 0.104117 0.895884 0.250000
O O17 0.137268 0.000000 0.336941
O O18 0.209842 0.500000 0.177192
#
# Coordination Sequence:
#
# PCOD9566316 Si02
#       7
#    16  16  16  16  16  16  16
#     4  10  20  33  51  74 101 138 181 221 263 314
#     4  10  20  34  53  76 105 142 180 214 251 311
#     4   9  17  30  51  76 101 138 175 210 262 316
#     4   9  19  33  53  81 108 138 175 218 266 313
#     4   9  17  30  50  76 106 136 172 216 265 322
#     4  11  21  34  54  76 101 136 182 230 271 313
#     4  10  19  32  54  82 109 136 170 217 265 312
#
# _framework density 16.826436000000001
#
# number of rings (size 3 to 8) (size 9 to 14) (size 15 to 20)
#    0.000    2.286    2.857    0.429    0.000    1.857 
#    0.000    2.857    0.000    0.857    0.000   10.000 
#    0.000    0.000    0.000    0.000    0.000    0.000 
#
# Total GULP energy -624053.835331 kJ/mol
# GULP energy per Si atom -5571.909244 kJ/mol
# Density = 1.678814 g / cm^3
# Si number density = 16.826436 Si / 1000 Ang^3
#
#
#
# Elastic Constant Matrix: (Units=GPa)
#
#
# Indices 1 2 3 4 5 6 
#
# 1 53.8847 14.5832 23.7422 0.0000 0.0000 0.0000
# 2 14.5832 53.8836 23.7388 0.0000 0.0000 0.0000
# 3 23.7422 23.7388 37.5298 0.0000 0.0000 0.0000
# 4 0.0000 0.0000 0.0000 -0.0001 0.0000 0.0000
# 5 0.0000 0.0000 0.0000 0.0000 0.0028 0.0000
# 6 0.0000 0.0000 0.0000 0.0000 0.0000 14.4851
#
#
#
# Elastic Compliance Matrix: (Units=1/GPa)
#
#
# Indices 1 2 3 4 5 6 
#
# 1 0.025733 0.000288 -0.016461 0.000000 0.000000 0.000000
# 2 0.000288 0.025731 -0.016458 0.000000 0.000000 0.000000
# 3 -0.016461 -0.016458 0.047469 0.000000 0.000000 0.000000
# 4 0.000000 0.000000 0.000000********** -0.000001 0.000000
# 5 0.000000 0.000000 0.000000 -0.000002362.108712 0.000000
# 6 0.000000 0.000000 0.000000 0.000000 0.000000 0.069037
#
#
# Mechanical properties :
#
#
# Convention : Reuss Voigt Hill
#
# Bulk Modulus (GPa) = 29.69925 29.93626 29.81775
# Shear Modulus (GPa) = -0.00042 8.44648 4.22303
#
# Velocity S-wave (km/s) = -0.01581 2.24292 1.58594
# Velocity P-wave (km/s) = 4.20575 4.95352 4.59487
#
# Compressibility (1/GPa) = 0.03367089
#
# Stress axis : x y z
#
# Youngs Moduli (GPa) = 38.86002 38.86318 21.06619
#
# Poissons Ratio (x) = -0.01118 0.34678
# Poissons Ratio (y) = -0.01118 0.34670
# Poissons Ratio (z) = 0.63969 0.63960
#
# Static dielectric constant tensor:
#      x y z
#    x 1.570690 0.000000 0.000000 
#    y 0.000000 1.570700 0.000000 
#    z 0.000000 0.000000 1.562000 
# 
# From -- ./inp_files/10035.got.cif
#   From: 2010.05.17/outbox.cif.g08.bks.cpg/sg131_6_cif.got.tgz:10035.got - 2010.05.20 12:21:01.
