data_PCOD9566661
_publ_section_title
;
Structure prediction by ZEFSAII (Michael W. Deem and Ramdas Pophale) SiO2 
 PCOD9566661
Probable space group: P 42/M M C
;
_chemical_formula_sum "Si O2"
_cell_formula_units_Z 96
_cell_length_a 16.154387
_cell_length_b 16.154387
_cell_length_c 19.550934
_cell_angle_alpha 90.000000
_cell_angle_beta 90.000000
_cell_angle_gamma 90.000000
_cell_volume 5102.094229
_symmetry_space_group_name_H-M "P 42/M M C"
_symmetry_group_IT_number 131
_symmetry_cell_setting 'tetragonal'
loop_
_space_group_symop_operation_xyz
x,y,z
-x,-y,z
-y,x,1/2+z
y,-x,1/2+z
-x,y,-z
x,-y,-z
y,x,1/2-z
-y,-x,1/2-z
-x,-y,-z
x,y,-z
y,-x,1/2-z
-y,x,1/2-z
x,-y,z
-x,y,z
-y,-x,1/2+z
y,x,1/2+z
loop_
_atom_site_type_symbol
_atom_site_label
_atom_site_fract_x
_atom_site_fract_y
_atom_site_fract_z
Si Si1 0.343833 0.234680 0.921936
Si Si2 0.589018 0.599393 0.419451
Si Si3 0.400497 0.094381 0.818928
Si Si4 0.905646 0.900884 0.673945
Si Si5 0.900176 0.405327 0.836730
Si Si6 0.852818 0.754879 0.077043
O O1 0.371373 0.323339 0.891242
O O2 0.369383 0.158478 0.874853
O O3 0.245688 0.238228 0.926437
O O4 0.377787 0.226574 0.000000
O O5 0.589685 0.623428 0.500000
O O6 0.588754 0.500000 0.416691
O O7 0.500000 0.628550 0.390554
O O8 0.500000 0.091230 0.822846
O O9 0.381704 0.122486 0.741339
O O10 0.369321 0.000000 0.828864
O O11 0.875812 0.875812 0.750000
O O12 0.835164 0.880938 0.619497
O O13 0.000000 0.869217 0.660431
O O14 0.912167 0.000000 0.677423
O O15 0.871035 0.500000 0.851898
O O16 0.873544 0.332251 0.886922
O O17 0.000000 0.408570 0.837575
O O18 0.887141 0.756183 0.000000
#
# Coordination Sequence:
#
# PCOD9566661 Si02
#       6
#    16  16  16  16  16  16
#     4  10  21  33  48  78 117 150 183 229 284 343
#     4   8  14  27  48  71  98 139 188 231 270 317
#     4   9  19  36  57  80 107 145 192 237 284 340
#     4   9  20  39  61  84 109 144 191 235 279 337
#     4   9  20  39  60  82 108 143 192 242 284 335
#     4  11  24  37  54  85 118 150 187 231 290 348
#
# _framework density 18.815802000000001
#
# number of rings (size 3 to 8) (size 9 to 14) (size 15 to 20)
#    0.000    2.667    0.000    3.000    2.333    4.667 
#    0.000    5.833    0.000    0.000    0.000    0.000 
#    0.000    4.000    0.000    0.167    0.000    0.000 
#
# Total GULP energy -534865.271551 kJ/mol
# GULP energy per Si atom -5571.513245 kJ/mol
# Density = 1.877298 g / cm^3
# Si number density = 18.815802 Si / 1000 Ang^3
#
#
#
# Elastic Constant Matrix: (Units=GPa)
#
#
# Indices 1 2 3 4 5 6 
#
# 1 75.5059 30.6088 62.4724 0.0000 0.0000 0.0000
# 2 30.6088 75.5059 62.4724 0.0000 0.0000 0.0000
# 3 62.4724 62.4724 128.0402 0.0000 0.0000 0.0000
# 4 0.0000 0.0000 0.0000 27.8297 0.0000 0.0000
# 5 0.0000 0.0000 0.0000 0.0000 27.8297 0.0000
# 6 0.0000 0.0000 0.0000 0.0000 0.0000 101.2287
#
#
#
# Elastic Compliance Matrix: (Units=1/GPa)
#
#
# Indices 1 2 3 4 5 6 
#
# 1 0.022210 -0.000063 -0.010806 0.000000 0.000000 0.000000
# 2 -0.000063 0.022210 -0.010806 0.000000 0.000000 0.000000
# 3 -0.010806 -0.010806 0.018355 0.000000 0.000000 0.000000
# 4 0.000000 0.000000 0.000000 0.035933 0.000000 0.000000
# 5 0.000000 0.000000 0.000000 0.000000 0.035933 0.000000
# 6 0.000000 0.000000 0.000000 0.000000 0.000000 0.009879
#
#
# Mechanical properties :
#
#
# Convention : Reuss Voigt Hill
#
# Bulk Modulus (GPa) = 51.47873 65.57324 58.52598
# Shear Modulus (GPa) = 25.72759 39.61083 32.66921
#
# Velocity S-wave (km/s) = 3.70177 4.59321 4.17137
# Velocity P-wave (km/s) = 6.75940 7.94077 7.37378
#
# Compressibility (1/GPa) = 0.01942550
#
# Stress axis : x y z
#
# Youngs Moduli (GPa) = 45.02448 45.02448 54.48210
#
# Poissons Ratio (x) = 0.00284 0.58873
# Poissons Ratio (y) = 0.00284 0.58873
# Poissons Ratio (z) = 0.48653 0.48653
#
# Static dielectric constant tensor:
#      x y z
#    x 1.668710 0.000000 0.000000 
#    y 0.000000 1.668710 0.000000 
#    z 0.000000 0.000000 1.677040 
# 
# From -- ./inp_files/9712.got.cif
#   From: 2010.05.17/outbox.cif.g08.bks.cpg/sg131_5_cif.got.tgz:9712.got - 2010.05.20 12:21:01.
