data_PCOD9566968
_publ_section_title
;
Structure prediction by ZEFSAII (Michael W. Deem and Ramdas Pophale) SiO2 
 PCOD9566968
Probable space group: P 42/M C M
;
_chemical_formula_sum "Si O2"
_cell_formula_units_Z 112
_cell_length_a 22.408435
_cell_length_b 22.408435
_cell_length_c 17.970107
_cell_angle_alpha 90.000000
_cell_angle_beta 90.000000
_cell_angle_gamma 90.000000
_cell_volume 9023.472855
_symmetry_space_group_name_H-M "P 42/M C M"
_symmetry_group_IT_number 132
_symmetry_cell_setting 'tetragonal'
loop_
_space_group_symop_operation_xyz
x,y,z
-y,x,1/2+z
-x,-y,z
y,-x,1/2+z
x,-y,1/2-z
-x,y,1/2-z
y,x,-z
-y,-x,-z
-x,-y,-z
y,-x,1/2-z
x,y,-z
-y,x,1/2-z
-x,y,1/2+z
x,-y,1/2+z
-y,-x,z
y,x,z
loop_
_atom_site_type_symbol
_atom_site_label
_atom_site_fract_x
_atom_site_fract_y
_atom_site_fract_z
Si Si1 0.573432 0.939068 0.839502
Si Si2 0.928749 0.571090 0.666343
Si Si3 0.562390 0.807083 0.413266
Si Si4 0.295626 0.609019 0.336181
Si Si5 0.317821 0.413610 0.666735
Si Si6 0.479302 0.383095 0.087641
Si Si7 0.581650 0.819477 0.084865
O O1 0.501057 0.934417 0.839629
O O2 0.588571 0.926308 0.753213
O O3 0.595964 0.886932 0.892298
O O4 0.592274 0.006098 0.861350
O O5 0.867731 0.586889 0.624479
O O6 0.578525 0.805114 0.500000
O O7 0.580966 0.745925 0.373215
O O8 0.490122 0.810891 0.408792
O O9 0.327000 0.673001 0.335786
O O10 0.307317 0.580433 0.255195
O O11 0.330886 0.568639 0.396080
O O12 0.227272 0.609950 0.358500
O O13 0.350664 0.350664 0.653879
O O14 0.362823 0.463903 0.635127
O O15 0.444576 0.444576 0.107822
O O16 0.494040 0.385510 0.000000
O O17 0.598700 0.806884 0.000000
#
# Coordination Sequence:
#
# PCOD9566968 Si02
#       7
#    16  16  16  16  16  16  16
#     4   8  14  24  39  58  76  97 120 141 166 202
#     4   8  14  25  39  55  77 100 119 139 167 205
#     4  10  19  28  40  57  75  97 117 142 181 217
#     4  10  20  32  45  58  72  93 119 148 182 224
#     4  11  22  33  45  58  71  92 122 152 184 225
#     4  10  20  33  47  60  72  86 108 143 190 236
#     4  10  18  27  42  60  76  95 117 145 182 218
#
# _framework density 12.412072
#
# number of rings (size 3 to 8) (size 9 to 14) (size 15 to 20)
#    0.000    2.429    1.429    3.000    0.000    4.000 
#    0.000    3.571    0.000    2.571    0.000    0.000 
#    0.000    0.000    0.000    0.000    0.000    0.000 
#
# Total GULP energy -623832.102832 kJ/mol
# GULP energy per Si atom -5569.929490 kJ/mol
# Density = 1.238382 g / cm^3
# Si number density = 12.412072 Si / 1000 Ang^3
#
#
#
# Elastic Constant Matrix: (Units=GPa)
#
#
# Indices 1 2 3 4 5 6 
#
# 1 55.5565 28.2272 32.3883 0.0000 0.0000 0.0000
# 2 28.2272 55.5565 32.3883 0.0000 0.0000 0.0000
# 3 32.3883 32.3883 61.6236 0.0000 0.0000 0.0000
# 4 0.0000 0.0000 0.0000 11.6696 0.0000 0.0000
# 5 0.0000 0.0000 0.0000 0.0000 11.6696 0.0000
# 6 0.0000 0.0000 0.0000 0.0000 0.0000 5.3922
#
#
#
# Elastic Compliance Matrix: (Units=1/GPa)
#
#
# Indices 1 2 3 4 5 6 
#
# 1 0.028348 -0.008243 -0.010567 0.000000 0.000000 0.000000
# 2 -0.008243 0.028348 -0.010567 0.000000 0.000000 0.000000
# 3 -0.010567 -0.010567 0.027335 0.000000 0.000000 0.000000
# 4 0.000000 0.000000 0.000000 0.085693 0.000000 0.000000
# 5 0.000000 0.000000 0.000000 0.000000 0.085693 0.000000
# 6 0.000000 0.000000 0.000000 0.000000 0.000000 0.185453
#
#
# Mechanical properties :
#
#
# Convention : Reuss Voigt Hill
#
# Bulk Modulus (GPa) = 39.56041 39.86047 39.71044
# Shear Modulus (GPa) = 9.84159 11.06182 10.45170
#
# Velocity S-wave (km/s) = 2.81891 2.98856 2.90497
# Velocity P-wave (km/s) = 6.52202 6.64023 6.58139
#
# Compressibility (1/GPa) = 0.02527780
#
# Stress axis : x y z
#
# Youngs Moduli (GPa) = 35.27592 35.27592 36.58296
#
# Poissons Ratio (x) = 0.29077 0.38657
# Poissons Ratio (y) = 0.29077 0.38657
# Poissons Ratio (z) = 0.37276 0.37276
#
# Static dielectric constant tensor:
#      x y z
#    x 1.399980 0.000000 0.000000 
#    y 0.000000 1.399980 0.000000 
#    z 0.000000 0.000000 1.426110 
# 
# From -- ./inp_files/6759.got.cif
#   From: 2010.05.17/outbox.cif.g08.bks.cpg/sg132_4_cif.got.tgz:6759.got - 2010.05.20 12:30:18.
