data_PCOD9566869
_publ_section_title
;
Structure prediction by ZEFSAII (Michael W. Deem and Ramdas Pophale) SiO2 
 PCOD9566869
Probable space group: P 42/M M C
;
_chemical_formula_sum "Si O2"
_cell_formula_units_Z 42
_cell_length_a 10.586649
_cell_length_b 10.586649
_cell_length_c 16.326868
_cell_angle_alpha 90.000000
_cell_angle_beta 90.000000
_cell_angle_gamma 90.000000
_cell_volume 1829.868622
_symmetry_space_group_name_H-M "P 42/M M C"
_symmetry_group_IT_number 131
_symmetry_cell_setting 'tetragonal'
loop_
_space_group_symop_operation_xyz
x,y,z
-x,-y,z
-y,x,1/2+z
y,-x,1/2+z
-x,y,-z
x,-y,-z
y,x,1/2-z
-y,-x,1/2-z
-x,-y,-z
x,y,-z
y,-x,1/2-z
-y,x,1/2-z
x,-y,z
-x,y,z
-y,-x,1/2+z
y,x,1/2+z
loop_
_atom_site_type_symbol
_atom_site_label
_atom_site_fract_x
_atom_site_fract_y
_atom_site_fract_z
Si Si1 0.720147 0.222310 0.094124
Si Si2 0.361068 0.000000 0.208619
Si Si3 0.000000 0.254078 0.882310
Si Si4 0.500000 0.347493 0.595142
Si Si5 0.000000 0.500000 0.000000
O O1 0.868360 0.191299 0.093579
O O2 0.701333 0.365870 0.127581
O O3 0.654435 0.121980 0.151619
O O4 0.672197 0.220094 0.000000
O O5 0.500000 0.000000 0.245100
O O6 0.267053 0.000000 0.284447
O O7 0.000000 0.388245 0.929316
O O8 0.500000 0.500000 0.597246
O O9 0.500000 0.301393 0.500000
#
# Coordination Sequence:
#
# PCOD9566869 Si02
#       5
#    16   8   8   8   2
#     4  11  23  42  70 100 137 186 236 287 349 427
#     4  12  27  43  66 102 150 185 222 288 367 429
#     4  12  24  44  71 102 132 177 244 297 344 401
#     4   9  19  36  65 101 135 174 229 283 336 416
#     4  12  20  44  80  98 124 188 244 302 324 422
#
# _framework density 22.952466000000001
#
# number of rings (size 3 to 8) (size 9 to 14) (size 15 to 20)
#    0.000    0.952    2.857    4.000    2.667    3.810 
#    0.000    3.810    0.000    0.000    0.000    0.000 
#    0.000    0.000    0.000    0.000    0.000    0.000 
#
# Total GULP energy -234447.723460 kJ/mol
# GULP energy per Si atom -5582.088654 kJ/mol
# Density = 2.290023 g / cm^3
# Si number density = 22.952466 Si / 1000 Ang^3
#
#
#
# Elastic Constant Matrix: (Units=GPa)
#
#
# Indices 1 2 3 4 5 6 
#
# 1 84.2128 9.9760 16.7044 0.0000 0.0000 0.0000
# 2 9.9760 84.2128 16.7044 0.0000 0.0000 0.0000
# 3 16.7044 16.7044 117.4727 0.0000 0.0000 0.0000
# 4 0.0000 0.0000 0.0000 20.7668 0.0000 0.0000
# 5 0.0000 0.0000 0.0000 0.0000 20.7668 0.0000
# 6 0.0000 0.0000 0.0000 0.0000 0.0000 10.6431
#
#
#
# Elastic Compliance Matrix: (Units=1/GPa)
#
#
# Indices 1 2 3 4 5 6 
#
# 1 0.012326 -0.001145 -0.001590 0.000000 0.000000 0.000000
# 2 -0.001145 0.012326 -0.001590 0.000000 0.000000 0.000000
# 3 -0.001590 -0.001590 0.008965 0.000000 0.000000 0.000000
# 4 0.000000 0.000000 0.000000 0.048154 0.000000 0.000000
# 5 0.000000 0.000000 0.000000 0.000000 0.048154 0.000000
# 6 0.000000 0.000000 0.000000 0.000000 0.000000 0.093958
#
#
# Mechanical properties :
#
#
# Convention : Reuss Voigt Hill
#
# Bulk Modulus (GPa) = 40.05290 41.40754 40.73022
# Shear Modulus (GPa) = 20.75953 26.60289 23.68121
#
# Velocity S-wave (km/s) = 3.01068 3.40817 3.21557
# Velocity P-wave (km/s) = 5.43819 5.79372 5.61877
#
# Compressibility (1/GPa) = 0.02496698
#
# Stress axis : x y z
#
# Youngs Moduli (GPa) = 81.13157 81.13157 111.54768
#
# Poissons Ratio (x) = 0.09288 0.17735
# Poissons Ratio (y) = 0.09288 0.17735
# Poissons Ratio (z) = 0.12899 0.12899
#
# Static dielectric constant tensor:
#      x y z
#    x 1.869830 0.000000 0.000000 
#    y 0.000000 1.869830 0.000000 
#    z 0.000000 0.000000 1.819940 
# 
# From -- ./inp_files/6950.got.cif
#   From: 2010.05.17/outbox.cif.g08.bks.cpg/sg131_4_cif.got.tgz:6950.got - 2010.05.20 12:21:01.
