data_PCOD9566170
_publ_section_title
;
Structure prediction by ZEFSAII (Michael W. Deem and Ramdas Pophale) SiO2 
 PCOD9566170
Probable space group: P 42/M M C
;
_chemical_formula_sum "Si O2"
_cell_formula_units_Z 112
_cell_length_a 15.543701
_cell_length_b 15.543701
_cell_length_c 27.340176
_cell_angle_alpha 90.000000
_cell_angle_beta 90.000000
_cell_angle_gamma 90.000000
_cell_volume 6605.568082
_symmetry_space_group_name_H-M "P 42/M M C"
_symmetry_group_IT_number 131
_symmetry_cell_setting 'tetragonal'
loop_
_space_group_symop_operation_xyz
x,y,z
-x,-y,z
-y,x,1/2+z
y,-x,1/2+z
-x,y,-z
x,-y,-z
y,x,1/2-z
-y,-x,1/2-z
-x,-y,-z
x,y,-z
y,-x,1/2-z
-y,x,1/2-z
x,-y,z
-x,y,z
-y,-x,1/2+z
y,x,1/2+z
loop_
_atom_site_type_symbol
_atom_site_label
_atom_site_fract_x
_atom_site_fract_y
_atom_site_fract_z
Si Si1 0.593451 0.271719 0.811153
Si Si2 0.901302 0.242429 0.444816
Si Si3 0.266806 0.404773 0.806142
Si Si4 0.852595 0.900000 0.805639
Si Si5 0.096111 0.660049 0.345646
Si Si6 0.212213 0.097611 0.398731
Si Si7 0.597416 0.901604 0.634364
O O1 0.500000 0.307766 0.824744
O O2 0.598524 0.269366 0.752329
O O3 0.672401 0.331073 0.827646
O O4 0.602736 0.175270 0.829913
O O5 0.889290 0.274112 0.500000
O O6 0.893447 0.313115 0.402396
O O7 0.835482 0.166783 0.432127
O O8 0.000000 0.209432 0.440454
O O9 0.297527 0.500000 0.821117
O O10 0.169376 0.395789 0.823683
O O11 0.875522 0.875522 0.750000
O O12 0.750042 0.897135 0.815558
O O13 0.891470 0.832670 0.844925
O O14 0.879475 0.000000 0.814785
O O15 0.000000 0.625070 0.338081
O O16 0.315441 0.111368 0.396762
O O17 0.196779 0.000000 0.414900
O O18 0.500000 0.891716 0.612467
O O19 0.602295 0.000000 0.652378
#
# Coordination Sequence:
#
# PCOD9566170 Si02
#       7
#    16  16  16  16  16  16  16
#     4  10  20  31  47  70  96 128 162 203 248 288
#     4   9  18  33  51  70  93 124 163 206 252 299
#     4   9  18  31  47  68  96 132 168 200 236 283
#     4  10  20  30  42  63  94 133 167 196 235 285
#     4   9  19  32  47  68  93 125 164 204 242 286
#     4  10  19  29  45  68  94 126 162 205 248 291
#     4   9  18  32  49  70  97 130 167 201 234 278
#
# _framework density 16.955393999999998
#
# number of rings (size 3 to 8) (size 9 to 14) (size 15 to 20)
#    0.000    2.571    0.000    3.429    4.000    3.286 
#    0.000    3.571    0.000    0.857    0.000    4.000 
#    0.000    0.000    0.000    5.143    0.000    0.143 
#
# Total GULP energy -623704.693957 kJ/mol
# GULP energy per Si atom -5568.791910 kJ/mol
# Density = 1.691680 g / cm^3
# Si number density = 16.955394 Si / 1000 Ang^3
#
#
#
# Elastic Constant Matrix: (Units=GPa)
#
#
# Indices 1 2 3 4 5 6 
#
# 1 68.0468 52.9960 15.9337 0.0000 0.0000 0.0000
# 2 52.9960 68.0468 15.9337 0.0000 0.0000 0.0000
# 3 15.9337 15.9337 43.1718 0.0000 0.0000 0.0000
# 4 0.0000 0.0000 0.0000 7.9883 0.0000 0.0000
# 5 0.0000 0.0000 0.0000 0.0000 7.9883 0.0000
# 6 0.0000 0.0000 0.0000 0.0000 0.0000 14.9370
#
#
#
# Elastic Compliance Matrix: (Units=1/GPa)
#
#
# Indices 1 2 3 4 5 6 
#
# 1 0.037796 -0.028646 -0.003377 0.000000 0.000000 0.000000
# 2 -0.028646 0.037796 -0.003377 0.000000 0.000000 0.000000
# 3 -0.003377 -0.003377 0.025656 0.000000 0.000000 0.000000
# 4 0.000000 0.000000 0.000000 0.125183 0.000000 0.000000
# 5 0.000000 0.000000 0.000000 0.000000 0.125183 0.000000
# 6 0.000000 0.000000 0.000000 0.000000 0.000000 0.066948
#
#
# Mechanical properties :
#
#
# Convention : Reuss Voigt Hill
#
# Bulk Modulus (GPa) = 32.84243 38.77689 35.80966
# Shear Modulus (GPa) = 10.00976 12.47619 11.24297
#
# Velocity S-wave (km/s) = 2.43237 2.71555 2.57785
# Velocity P-wave (km/s) = 5.22499 5.72293 5.47962
#
# Compressibility (1/GPa) = 0.03044842
#
# Stress axis : x y z
#
# Youngs Moduli (GPa) = 26.45767 26.45767 38.97689
#
# Poissons Ratio (x) = 0.75789 0.13164
# Poissons Ratio (y) = 0.75789 0.13164
# Poissons Ratio (z) = 0.08936 0.08936
#
# Static dielectric constant tensor:
#      x y z
#    x 1.592590 0.000000 0.000000 
#    y 0.000000 1.592590 0.000000 
#    z 0.000000 0.000000 1.551950 
# 
# From -- ./inp_files/12441.got.cif
#   From: 2010.05.17/outbox.cif.g08.bks.cpg/sg131_7_cif.got.tgz:12441.got - 2010.05.20 12:21:01.
