data_PCOD9566173
_publ_section_title
;
Structure prediction by ZEFSAII (Michael W. Deem and Ramdas Pophale) SiO2 
 PCOD9566173
Probable space group: P 42/M M C
;
_chemical_formula_sum "Si O2"
_cell_formula_units_Z 96
_cell_length_a 15.333975
_cell_length_b 15.333975
_cell_length_c 20.704827
_cell_angle_alpha 90.000000
_cell_angle_beta 90.000000
_cell_angle_gamma 90.000000
_cell_volume 4868.342315
_symmetry_space_group_name_H-M "P 42/M M C"
_symmetry_group_IT_number 131
_symmetry_cell_setting 'tetragonal'
loop_
_space_group_symop_operation_xyz
x,y,z
-x,-y,z
-y,x,1/2+z
y,-x,1/2+z
-x,y,-z
x,-y,-z
y,x,1/2-z
-y,-x,1/2-z
-x,-y,-z
x,y,-z
y,-x,1/2-z
-y,x,1/2-z
x,-y,z
-x,y,z
-y,-x,1/2+z
y,x,1/2+z
loop_
_atom_site_type_symbol
_atom_site_label
_atom_site_fract_x
_atom_site_fract_y
_atom_site_fract_z
Si Si1 0.267392 0.400208 0.377443
Si Si2 0.767515 0.141797 0.571931
Si Si3 0.745279 0.398885 0.902558
Si Si4 0.193178 0.597005 0.755535
Si Si5 0.303773 0.099897 0.924342
Si Si6 0.230592 0.904615 0.280106
O O1 0.281426 0.500000 0.393028
O O2 0.342737 0.342864 0.409897
O O3 0.264283 0.386892 0.300080
O O4 0.168906 0.371937 0.395619
O O5 0.780499 0.101876 0.500000
O O6 0.670076 0.183884 0.570663
O O7 0.844483 0.213983 0.579597
O O8 0.770838 0.095507 0.641556
O O9 0.745236 0.500000 0.925267
O O10 0.764616 0.402739 0.826132
O O11 0.156581 0.500000 0.743595
O O12 0.122326 0.673138 0.756802
O O13 0.299986 0.000000 0.898833
O O14 0.323792 0.092972 0.000000
O O15 0.166830 0.833171 0.250000
O O16 0.206068 0.000000 0.256669
#
# Coordination Sequence:
#
# PCOD9566173 Si02
#       6
#    16  16  16  16  16  16
#     4  10  19  29  45  72 104 137 177 226 277 334
#     4   9  19  36  57  81 106 136 183 234 272 318
#     4   9  17  31  51  73 102 141 181 224 278 335
#     4   9  18  34  55  77 102 135 180 234 285 326
#     4   9  18  33  52  71  93 127 171 219 271 321
#     4  11  23  38  58  84 117 154 186 223 276 337
#
# _framework density 19.719237
#
# number of rings (size 3 to 8) (size 9 to 14) (size 15 to 20)
#    0.000    2.500    0.000    3.500    0.000    4.833 
#    0.000    2.500    0.000    3.000    0.000   12.833 
#    0.000    0.000    0.000    0.000    0.000    0.000 
#
# Total GULP energy -534452.599037 kJ/mol
# GULP energy per Si atom -5567.214573 kJ/mol
# Density = 1.967436 g / cm^3
# Si number density = 19.719237 Si / 1000 Ang^3
#
#
#
# Elastic Constant Matrix: (Units=GPa)
#
#
# Indices 1 2 3 4 5 6 
#
# 1 94.6315 47.3468 24.0366 0.0000 0.0000 0.0000
# 2 47.3468 94.6418 24.0342 0.0000 0.0000 0.0000
# 3 24.0366 24.0342 63.3067 0.0000 0.0000 0.0000
# 4 0.0000 0.0000 0.0000 4.8315 0.0000 0.0000
# 5 0.0000 0.0000 0.0000 0.0000 4.8311 0.0000
# 6 0.0000 0.0000 0.0000 0.0000 0.0000 -22.4091
#
#
#
# Elastic Compliance Matrix: (Units=1/GPa)
#
#
# Indices 1 2 3 4 5 6 
#
# 1 0.014615 -0.006532 -0.003069 0.000000 0.000000 0.000000
# 2 -0.006532 0.014613 -0.003068 0.000000 0.000000 0.000000
# 3 -0.003069 -0.003068 0.018126 0.000000 0.000000 0.000000
# 4 0.000000 0.000000 0.000000 0.206975 0.000000 0.000000
# 5 0.000000 0.000000 0.000000 0.000000 0.206993 0.000000
# 6 0.000000 0.000000 0.000000 0.000000 0.000000 -0.044625
#
#
# Mechanical properties :
#
#
# Convention : Reuss Voigt Hill
#
# Bulk Modulus (GPa) = 45.42105 49.26834 47.34470
# Shear Modulus (GPa) = 11.12659 7.92819 9.52739
#
# Velocity S-wave (km/s) = 2.37797 2.00730 2.20046
# Velocity P-wave (km/s) = 5.53386 5.51466 5.52427
#
# Compressibility (1/GPa) = 0.02201622
#
# Stress axis : x y z
#
# Youngs Moduli (GPa) = 68.42242 68.43214 55.16914
#
# Poissons Ratio (x) = 0.44701 0.16933
# Poissons Ratio (y) = 0.44694 0.16924
# Poissons Ratio (z) = 0.21000 0.20993
#
# Static dielectric constant tensor:
#      x y z
#    x 1.688710 0.000000 0.000000 
#    y 0.000000 1.688710 0.000000 
#    z 0.000000 0.000000 1.759620 
# 
# From -- ./inp_files/9694.got.cif
#   From: 2010.05.17/outbox.cif.g08.bks.cpg/sg131_5_cif.got.tgz:9694.got - 2010.05.20 12:21:01.
