data_PCOD9566088
_publ_section_title
;
Structure prediction by ZEFSAII (Michael W. Deem and Ramdas Pophale) SiO2 
 PCOD9566088
Probable space group: P 42/M M C
;
_chemical_formula_sum "Si O2"
_cell_formula_units_Z 128
_cell_length_a 20.767911
_cell_length_b 20.767911
_cell_length_c 15.458976
_cell_angle_alpha 90.000000
_cell_angle_beta 90.000000
_cell_angle_gamma 90.000000
_cell_volume 6667.551071
_symmetry_space_group_name_H-M "P 42/M M C"
_symmetry_group_IT_number 131
_symmetry_cell_setting 'tetragonal'
loop_
_space_group_symop_operation_xyz
x,y,z
-x,-y,z
-y,x,1/2+z
y,-x,1/2+z
-x,y,-z
x,-y,-z
y,x,1/2-z
-y,-x,1/2-z
-x,-y,-z
x,y,-z
y,-x,1/2-z
-y,x,1/2-z
x,-y,z
-x,y,z
-y,-x,1/2+z
y,x,1/2+z
loop_
_atom_site_type_symbol
_atom_site_label
_atom_site_fract_x
_atom_site_fract_y
_atom_site_fract_z
Si Si1 0.429461 0.346230 0.395657
Si Si2 0.398889 0.930117 0.354082
Si Si3 0.205798 0.623310 0.864244
Si Si4 0.927211 0.572732 0.650788
Si Si5 0.344482 0.809425 0.162603
Si Si6 0.572357 0.309770 0.896812
Si Si7 0.248918 0.929980 0.395235
Si Si8 0.773042 0.791100 0.401380
O O1 0.429786 0.352589 0.500000
O O2 0.500000 0.363580 0.362651
O O3 0.414354 0.271588 0.377500
O O4 0.372929 0.391868 0.361428
O O5 0.412204 0.859888 0.394563
O O6 0.424281 0.929940 0.255905
O O7 0.320613 0.929974 0.355367
O O8 0.418067 0.000000 0.392588
O O9 0.195509 0.636438 0.762760
O O10 0.213713 0.694930 0.903039
O O11 0.907527 0.500000 0.625882
O O12 0.875245 0.625927 0.625339
O O13 0.000000 0.584313 0.619757
O O14 0.381240 0.750179 0.119054
O O15 0.268316 0.801169 0.151624
O O16 0.500000 0.300216 0.861879
O O17 0.567065 0.317332 0.000000
O O18 0.256904 0.926311 0.500000
O O19 0.214217 0.863914 0.369129
O O20 0.219401 0.000000 0.375328
O O21 0.796212 0.784705 0.500000
#
# Coordination Sequence:
#
# PCOD9566088 Si02
#       8
#    16  16  16  16  16  16  16  16
#     4  10  21  36  52  69  92 124 159 197 246 301
#     4   8  15  27  44  65  90 123 160 193 228 278
#     4  10  19  30  48  72  99 125 159 197 243 284
#     4   9  18  32  48  66  92 127 163 200 246 296
#     4  11  20  31  51  76  98 124 161 205 245 286
#     4  10  21  36  53  71  92 121 157 199 248 299
#     4   8  14  25  42  66  96 128 158 190 231 280
#     4  10  18  29  47  70  98 129 159 196 239 286
#
# _framework density 19.197454
#
# number of rings (size 3 to 8) (size 9 to 14) (size 15 to 20)
#    0.000    2.500    1.250    1.500    0.000    3.250 
#    0.000    1.250    0.000    1.875    0.000    9.625 
#    0.000    0.500    0.000    3.125    0.000   47.500 
#
# Total GULP energy -713487.779336 kJ/mol
# GULP energy per Si atom -5574.123276 kJ/mol
# Density = 1.915376 g / cm^3
# Si number density = 19.197454 Si / 1000 Ang^3
#
#
#
# Elastic Constant Matrix: (Units=GPa)
#
#
# Indices 1 2 3 4 5 6 
#
# 1 118.9410 52.1749 4.5307 0.0000 0.0000 0.0000
# 2 52.1749 118.9410 4.5307 0.0000 0.0000 0.0000
# 3 4.5307 4.5307 23.8782 0.0000 0.0000 0.0000
# 4 0.0000 0.0000 0.0000 9.0346 0.0000 0.0000
# 5 0.0000 0.0000 0.0000 0.0000 9.0346 0.0000
# 6 0.0000 0.0000 0.0000 0.0000 0.0000 -20.7236
#
#
#
# Elastic Compliance Matrix: (Units=1/GPa)
#
#
# Indices 1 2 3 4 5 6 
#
# 1 0.010440 -0.004537 -0.001120 0.000000 0.000000 0.000000
# 2 -0.004537 0.010440 -0.001120 0.000000 0.000000 0.000000
# 3 -0.001120 -0.001120 0.042304 0.000000 0.000000 0.000000
# 4 0.000000 0.000000 0.000000 0.110686 0.000000 0.000000
# 5 0.000000 0.000000 0.000000 0.000000 0.110686 0.000000
# 6 0.000000 0.000000 0.000000 0.000000 0.000000 -0.048254
#
#
# Mechanical properties :
#
#
# Convention : Reuss Voigt Hill
#
# Bulk Modulus (GPa) = 20.14890 42.69254 31.42072
# Shear Modulus (GPa) = 18.76872 12.83738 15.80305
#
# Velocity S-wave (km/s) = 3.13016 2.58873 2.87223
# Velocity P-wave (km/s) = 4.85616 5.58769 5.23472
#
# Compressibility (1/GPa) = 0.04963049
#
# Stress axis : x y z
#
# Youngs Moduli (GPa) = 95.78097 95.78097 23.63826
#
# Poissons Ratio (x) = 0.43458 0.02648
# Poissons Ratio (y) = 0.43458 0.02648
# Poissons Ratio (z) = 0.10728 0.10728
#
# Static dielectric constant tensor:
#      x y z
#    x 1.694040 0.000000 0.000000 
#    y 0.000000 1.694040 0.000000 
#    z 0.000000 0.000000 1.724080 
# 
# From -- ./inp_files/8453.got.cif
#   From: 2010.05.17/outbox.cif.g08.bks.cpg/sg131_5_cif.got.tgz:8453.got - 2010.05.20 12:21:01.
