data_PCOD9566910
_publ_section_title
;
Structure prediction by ZEFSAII (Michael W. Deem and Ramdas Pophale) SiO2 
 PCOD9566910
Probable space group: P 42/M M C
;
_chemical_formula_sum "Si O2"
_cell_formula_units_Z 112
_cell_length_a 15.000000
_cell_length_b 15.000000
_cell_length_c 27.000000
_cell_angle_alpha 90.000000
_cell_angle_beta 90.000000
_cell_angle_gamma 90.000000
_cell_volume 6075.000000
_symmetry_space_group_name_H-M "P 42/M M C"
_symmetry_group_IT_number 131
_symmetry_cell_setting 'tetragonal'
loop_
_space_group_symop_operation_xyz
x,y,z
-x,-y,z
-y,x,1/2+z
y,-x,1/2+z
-x,y,-z
x,-y,-z
y,x,1/2-z
-y,-x,1/2-z
-x,-y,-z
x,y,-z
y,-x,1/2-z
-y,x,1/2-z
x,-y,z
-x,y,z
-y,-x,1/2+z
y,x,1/2+z
loop_
_atom_site_type_symbol
_atom_site_label
_atom_site_fract_x
_atom_site_fract_y
_atom_site_fract_z
Si Si1 0.240657 0.897805 0.000000
Si Si2 0.718448 0.396340 0.712662
Si Si3 0.397119 0.898352 0.732471
Si Si4 0.397984 0.891448 0.556688
Si Si5 0.739023 0.893606 0.641822
Si Si6 0.757581 0.603061 0.500000
Si Si7 0.894089 0.773098 0.390317
Si Si8 0.605756 0.233177 0.892624
O O1 0.192428 0.883927 0.052458
O O2 0.327774 0.837718 0.000000
O O3 0.269961 0.000000 0.000000
O O4 0.663287 0.336714 0.750000
O O5 0.694812 0.500000 0.719574
O O6 0.823028 0.386704 0.726212
O O7 0.707687 0.372274 0.655208
O O8 0.500000 0.891335 0.713339
O O9 0.324487 0.882830 0.689668
O O10 0.386369 0.000000 0.750682
O O11 0.378901 0.863721 0.500000
O O12 0.500000 0.864209 0.569207
O O13 0.322546 0.863427 0.595335
O O14 0.398180 0.000000 0.557637
O O15 0.829315 0.835797 0.642148
O O16 0.757905 0.000000 0.637109
O O17 0.787382 0.500000 0.500000
O O18 0.716519 0.616837 0.445431
O O19 0.850574 0.673775 0.390678
O O20 0.000000 0.773017 0.378166
O O21 0.500000 0.208406 0.888059
#
# Coordination Sequence:
#
# PCOD9566910 Si02
#       8
#     8  16  16  16  16   8  16  16
#     4   8  16  29  41  58  89 127 166 208 253 302
#     4  10  20  34  54  81 112 143 174 210 255 312
#     4   9  18  33  52  74  98 126 164 212 264 313
#     4   8  14  25  42  65  90 116 155 211 268 316
#     4  10  19  30  47  67  94 134 174 210 257 315
#     4   8  14  27  48  73  98 124 160 210 262 310
#     4  10  20  32  46  67  98 135 174 216 259 309
#     4   9  18  33  54  78 102 131 173 219 268 313
#
# _framework density 18.436214
#
# number of rings (size 3 to 8) (size 9 to 14) (size 15 to 20)
#    0.000    2.857    0.000    1.714    1.000    3.143 
#    0.000    4.286    0.000    1.286    0.000    0.500 
#    0.000    6.286    0.000    0.143    0.000    0.857 
#
# Total GULP energy -623613.269539 kJ/mol
# GULP energy per Si atom -5567.975621 kJ/mol
# Density = 1.839425 g / cm^3
# Si number density = 18.436214 Si / 1000 Ang^3
#
#
#
# Elastic Constant Matrix: (Units=GPa)
#
#
# Indices 1 2 3 4 5 6 
#
# 1 48.0404 18.1031 34.4689 0.0000 0.0000 0.0000
# 2 18.1031 48.0405 34.4704 0.0000 0.0000 0.0000
# 3 34.4689 34.4704 107.2378 0.0000 0.0000 0.0000
# 4 0.0000 0.0000 0.0000 18.3382 0.0000 0.0000
# 5 0.0000 0.0000 0.0000 0.0000 18.3381 0.0000
# 6 0.0000 0.0000 0.0000 0.0000 0.0000 26.5177
#
#
#
# Elastic Compliance Matrix: (Units=1/GPa)
#
#
# Indices 1 2 3 4 5 6 
#
# 1 0.028069 -0.005334 -0.007308 0.000000 0.000000 0.000000
# 2 -0.005334 0.028070 -0.007308 0.000000 0.000000 0.000000
# 3 -0.007308 -0.007308 0.014023 0.000000 0.000000 0.000000
# 4 0.000000 0.000000 0.000000 0.054531 0.000000 0.000000
# 5 0.000000 0.000000 0.000000 0.000000 0.054531 0.000000
# 6 0.000000 0.000000 0.000000 0.000000 0.000000 0.037711
#
#
# Mechanical properties :
#
#
# Convention : Reuss Voigt Hill
#
# Bulk Modulus (GPa) = 33.04442 41.93371 37.48906
# Shear Modulus (GPa) = 18.73212 20.39055 19.56134
#
# Velocity S-wave (km/s) = 3.19101 3.32927 3.26088
# Velocity P-wave (km/s) = 5.61599 6.12972 5.87847
#
# Compressibility (1/GPa) = 0.03026230
#
# Stress axis : x y z
#
# Youngs Moduli (GPa) = 35.62662 35.62571 71.31123
#
# Poissons Ratio (x) = 0.19002 0.52111
# Poissons Ratio (y) = 0.19003 0.52116
# Poissons Ratio (z) = 0.26034 0.26036
#
# Static dielectric constant tensor:
#      x y z
#    x 1.624350 0.000000 0.000000 
#    y 0.000000 1.624350 0.000000 
#    z 0.000000 0.000000 1.704490 
# 
# From -- ./inp_files/12512.got.cif
#   From: 2010.05.17/outbox.ucp.g08.bks.cvg/sg131_7_cif.got.tgz:12512.got - 2010.06.11 11:38:44.
