data_PCOD9566135
_publ_section_title
;
Structure prediction by ZEFSAII (Michael W. Deem and Ramdas Pophale) SiO2 
 PCOD9566135
Probable space group: P 42/M M C
;
_chemical_formula_sum "Si O2"
_cell_formula_units_Z 112
_cell_length_a 14.476072
_cell_length_b 14.476072
_cell_length_c 29.200158
_cell_angle_alpha 90.000000
_cell_angle_beta 90.000000
_cell_angle_gamma 90.000000
_cell_volume 6119.087598
_symmetry_space_group_name_H-M "P 42/M M C"
_symmetry_group_IT_number 131
_symmetry_cell_setting 'tetragonal'
loop_
_space_group_symop_operation_xyz
x,y,z
-x,-y,z
-y,x,1/2+z
y,-x,1/2+z
-x,y,-z
x,-y,-z
y,x,1/2-z
-y,-x,1/2-z
-x,-y,-z
x,y,-z
y,-x,1/2-z
-y,x,1/2-z
x,-y,z
-x,y,z
-y,-x,1/2+z
y,x,1/2+z
loop_
_atom_site_type_symbol
_atom_site_label
_atom_site_fract_x
_atom_site_fract_y
_atom_site_fract_z
Si Si1 0.100788 0.294742 0.684076
Si Si2 0.840121 0.894776 0.650560
Si Si3 0.888348 0.107653 0.050425
Si Si4 0.602401 0.306495 0.291055
Si Si5 0.396073 0.612313 0.447189
Si Si6 0.273048 0.609855 0.365794
Si Si7 0.102103 0.346596 0.208656
O O1 0.104972 0.184872 0.676578
O O2 0.184014 0.339348 0.655214
O O3 0.109080 0.316895 0.737942
O O4 0.000000 0.329358 0.668763
O O5 0.838413 0.865938 0.596955
O O6 0.741303 0.896339 0.675102
O O7 0.877746 0.000000 0.652993
O O8 0.000000 0.108609 0.048156
O O9 0.860513 0.000000 0.056502
O O10 0.854764 0.138997 0.000000
O O11 0.672476 0.327525 0.250000
O O12 0.500000 0.335539 0.277280
O O13 0.641462 0.364751 0.332940
O O14 0.601810 0.197432 0.301295
O O15 0.384237 0.639827 0.500000
O O16 0.396886 0.500000 0.445662
O O17 0.500000 0.642029 0.432288
O O18 0.311225 0.641227 0.415161
O O19 0.256311 0.500000 0.365640
O O20 0.000000 0.390496 0.203309
#
# Coordination Sequence:
#
# PCOD9566135 Si02
#       7
#    16  16  16  16  16  16  16
#     4  11  22  36  54  76 108 149 191 233 278 332
#     4  10  18  32  55  77 102 138 181 231 282 331
#     4   8  14  25  43  71 105 136 170 219 281 342
#     4  12  23  37  57  83 114 143 178 230 285 334
#     4   8  15  31  57  87 115 143 180 228 283 343
#     4  11  22  37  57  82 113 148 186 232 284 336
#     4  10  21  38  57  76 108 151 190 225 269 333
#
# _framework density 18.303383
#
# number of rings (size 3 to 8) (size 9 to 14) (size 15 to 20)
#    0.000    2.000    2.857    2.571    0.000    3.000 
#    0.000    2.857    0.000    6.429    0.000    2.000 
#    0.000    0.000    0.000   10.143    0.000    0.429 
#
# Total GULP energy -623786.077362 kJ/mol
# GULP energy per Si atom -5569.518548 kJ/mol
# Density = 1.826172 g / cm^3
# Si number density = 18.303383 Si / 1000 Ang^3
#
#
#
# Elastic Constant Matrix: (Units=GPa)
#
#
# Indices 1 2 3 4 5 6 
#
# 1 76.5841 21.9371 22.0776 0.0000 0.0000 0.0000
# 2 21.9371 76.5852 22.0778 0.0000 0.0000 0.0000
# 3 22.0776 22.0778 79.7729 0.0000 0.0000 0.0000
# 4 0.0000 0.0000 0.0000 11.9104 0.0000 0.0000
# 5 0.0000 0.0000 0.0000 0.0000 11.9110 0.0000
# 6 0.0000 0.0000 0.0000 0.0000 0.0000 -3.5512
#
#
#
# Elastic Compliance Matrix: (Units=1/GPa)
#
#
# Indices 1 2 3 4 5 6 
#
# 1 0.014943 -0.003356 -0.003207 0.000000 0.000000 0.000000
# 2 -0.003356 0.014943 -0.003207 0.000000 0.000000 0.000000
# 3 -0.003207 -0.003207 0.014311 0.000000 0.000000 0.000000
# 4 0.000000 0.000000 0.000000 0.083960 0.000000 0.000000
# 5 0.000000 0.000000 0.000000 0.000000 0.083956 0.000000
# 6 0.000000 0.000000 0.000000 0.000000 0.000000 -0.281595
#
#
# Mechanical properties :
#
#
# Convention : Reuss Voigt Hill
#
# Bulk Modulus (GPa) = 40.55520 40.56971 40.56245
# Shear Modulus (GPa) = -119.83941 15.17735 -52.33103
#
# Velocity S-wave (km/s) = -8.10037 2.88272 -5.35285
# Velocity P-wave (km/s) = 8.07977 5.77004 3.99933
#
# Compressibility (1/GPa) = 0.02465775
#
# Stress axis : x y z
#
# Youngs Moduli (GPa) = 66.91969 66.92062 69.87818
#
# Poissons Ratio (x) = 0.22458 0.22409
# Poissons Ratio (y) = 0.22458 0.22409
# Poissons Ratio (z) = 0.21460 0.21460
#
# Static dielectric constant tensor:
#      x y z
#    x 1.686410 0.000000 0.000000 
#    y 0.000000 1.686410 0.000000 
#    z 0.000000 0.000000 1.661420 
# 
# From -- ./inp_files/12483.got.cif
#   From: 2010.05.17/outbox.cif.g08.bks.cpg/sg131_7_cif.got.tgz:12483.got - 2010.05.20 12:21:01.
