data_PCOD9566270
_publ_section_title
;
Structure prediction by ZEFSAII (Michael W. Deem and Ramdas Pophale) SiO2 
 PCOD9566270
Probable space group: P 42/M M C
;
_chemical_formula_sum "Si O2"
_cell_formula_units_Z 104
_cell_length_a 28.627440
_cell_length_b 28.627440
_cell_length_c 8.036807
_cell_angle_alpha 90.000000
_cell_angle_beta 90.000000
_cell_angle_gamma 90.000000
_cell_volume 6586.407020
_symmetry_space_group_name_H-M "P 42/M M C"
_symmetry_group_IT_number 131
_symmetry_cell_setting 'tetragonal'
loop_
_space_group_symop_operation_xyz
x,y,z
-x,-y,z
-y,x,1/2+z
y,-x,1/2+z
-x,y,-z
x,-y,-z
y,x,1/2-z
-y,-x,1/2-z
-x,-y,-z
x,y,-z
y,-x,1/2-z
-y,x,1/2-z
x,-y,z
-x,y,z
-y,-x,1/2+z
y,x,1/2+z
loop_
_atom_site_type_symbol
_atom_site_label
_atom_site_fract_x
_atom_site_fract_y
_atom_site_fract_z
Si Si1 0.500000 0.943044 0.192049
Si Si2 0.143097 0.645119 0.198051
Si Si3 0.399197 0.717960 0.201154
Si Si4 0.808605 0.449002 0.799757
Si Si5 0.053239 0.397899 0.700537
Si Si6 0.552911 0.624794 0.799531
Si Si7 0.695025 0.232261 0.802638
O O1 0.449419 0.930866 0.267803
O O2 0.500000 0.000000 0.188382
O O3 0.500000 0.926946 0.000000
O O4 0.164458 0.596276 0.267636
O O5 0.089511 0.642247 0.252264
O O6 0.178741 0.685482 0.251939
O O7 0.144577 0.643600 0.000000
O O8 0.438481 0.755056 0.254362
O O9 0.414367 0.667172 0.262009
O O10 0.349325 0.737438 0.264816
O O11 0.397139 0.717311 0.000000
O O12 0.823595 0.500000 0.737330
O O13 0.813110 0.449123 0.000000
O O14 0.052330 0.401907 0.500000
O O15 0.000000 0.389592 0.756315
O O16 0.576455 0.576455 0.750000
O O17 0.500000 0.629834 0.738702
O O18 0.551927 0.627717 0.000000
O O19 0.742530 0.257470 0.750000
O O20 0.692662 0.234115 0.000000
#
# Coordination Sequence:
#
# PCOD9566270 Si02
#       7
#     8  16  16  16  16  16  16
#     4   7  12  24  41  59  79 107 143 181 219 257
#     4  10  20  31  44  63  88 115 145 177 214 258
#     4   9  18  32  49  67  83 100 124 154 189 235
#     4   9  18  30  42  59  85 112 134 162 200 241
#     4   9  17  30  46  63  85 114 150 189 224 259
#     4  10  21  35  49  64  80  96 116 144 177 218
#     4  10  19  32  50  69  89 110 135 166 206 253
#
# _framework density 15.790096
#
# number of rings (size 3 to 8) (size 9 to 14) (size 15 to 20)
#    0.000    2.692    0.000    2.769    1.077    3.538 
#    0.000    0.769    0.000    1.385    0.000    0.000 
#    0.000    0.000    0.000    0.000    0.000    0.000 
#
# Total GULP energy -579843.000183 kJ/mol
# GULP energy per Si atom -5575.413463 kJ/mol
# Density = 1.575416 g / cm^3
# Si number density = 15.790096 Si / 1000 Ang^3
#
#
#
# Elastic Constant Matrix: (Units=GPa)
#
#
# Indices 1 2 3 4 5 6 
#
# 1 71.1726 43.0549 9.3247 0.0000 0.0000 0.0000
# 2 43.0549 71.1726 9.3247 0.0000 0.0000 0.0000
# 3 9.3247 9.3247 19.6090 0.0000 0.0000 0.0000
# 4 0.0000 0.0000 0.0000 13.6718 0.0000 0.0000
# 5 0.0000 0.0000 0.0000 0.0000 13.6718 0.0000
# 6 0.0000 0.0000 0.0000 0.0000 0.0000 19.8587
#
#
#
# Elastic Compliance Matrix: (Units=1/GPa)
#
#
# Indices 1 2 3 4 5 6 
#
# 1 0.022528 -0.013037 -0.004513 0.000000 0.000000 0.000000
# 2 -0.013037 0.022528 -0.004513 0.000000 0.000000 0.000000
# 3 -0.004513 -0.004513 0.055289 0.000000 0.000000 0.000000
# 4 0.000000 0.000000 0.000000 0.073144 0.000000 0.000000
# 5 0.000000 0.000000 0.000000 0.000000 0.073144 0.000000
# 6 0.000000 0.000000 0.000000 0.000000 0.000000 0.050356
#
#
# Mechanical properties :
#
#
# Convention : Reuss Voigt Hill
#
# Bulk Modulus (GPa) = 17.78778 31.70701 24.74739
# Shear Modulus (GPa) = 13.89449 16.12377 15.00913
#
# Velocity S-wave (km/s) = 2.96961 3.19898 3.08643
# Velocity P-wave (km/s) = 4.80081 5.81107 5.32993
#
# Compressibility (1/GPa) = 0.05621837
#
# Stress axis : x y z
#
# Youngs Moduli (GPa) = 44.38909 44.38909 18.08663
#
# Poissons Ratio (x) = 0.57869 0.08163
# Poissons Ratio (y) = 0.57869 0.08163
# Poissons Ratio (z) = 0.20035 0.20035
#
# Static dielectric constant tensor:
#      x y z
#    x 1.556090 0.000000 0.000000 
#    y 0.000000 1.556090 0.000000 
#    z 0.000000 0.000000 1.560470 
# 
# From -- ./inp_files/2572.got.cif
#   From: 2010.05.17/outbox.cif.g08.bks.cpg/sg131_2_cif.got.tgz:2572.got - 2010.05.20 12:21:01.
