data_PCOD9566288
_publ_section_title
;
Structure prediction by ZEFSAII (Michael W. Deem and Ramdas Pophale) SiO2 
 PCOD9566288
Probable space group: P 42/M M C
;
_chemical_formula_sum "Si O2"
_cell_formula_units_Z 64
_cell_length_a 21.575335
_cell_length_b 21.575335
_cell_length_c 8.327120
_cell_angle_alpha 90.000000
_cell_angle_beta 90.000000
_cell_angle_gamma 90.000000
_cell_volume 3876.233394
_symmetry_space_group_name_H-M "P 42/M M C"
_symmetry_group_IT_number 131
_symmetry_cell_setting 'tetragonal'
loop_
_space_group_symop_operation_xyz
x,y,z
-x,-y,z
-y,x,1/2+z
y,-x,1/2+z
-x,y,-z
x,-y,-z
y,x,1/2-z
-y,-x,1/2-z
-x,-y,-z
x,y,-z
y,-x,1/2-z
-y,x,1/2-z
x,-y,z
-x,y,z
-y,-x,1/2+z
y,x,1/2+z
loop_
_atom_site_type_symbol
_atom_site_label
_atom_site_fract_x
_atom_site_fract_y
_atom_site_fract_z
Si Si1 0.000000 0.400645 0.317434
Si Si2 0.431038 0.138450 0.693174
Si Si3 0.729478 0.000000 0.321314
Si Si4 0.689076 0.217343 0.694588
Si Si5 0.118144 0.789259 0.311524
O O1 0.933542 0.419693 0.242514
O O2 0.000000 0.326422 0.303677
O O3 0.000000 0.422065 0.500000
O O4 0.430372 0.138733 0.500000
O O5 0.500000 0.155932 0.749944
O O6 0.377959 0.188212 0.741352
O O7 0.770261 0.059668 0.291843
O O8 0.701806 0.000000 0.500000
O O9 0.715023 0.284978 0.750000
O O10 0.694187 0.214443 0.500000
O O11 0.736696 0.169355 0.775922
O O12 0.147341 0.852660 0.250000
O O13 0.104225 0.791016 0.500000
#
# Coordination Sequence:
#
# PCOD9566288 Si02
#       5
#     8  16   8  16  16
#     4  12  23  33  48  73 101 135 173 212 251 293
#     4  10  21  36  52  70  99 140 176 205 247 303
#     4  12  22  35  53  73  99 131 167 210 253 300
#     4  10  19  32  51  72  98 130 166 208 250 294
#     4  11  21  34  52  75  99 126 162 207 255 304
#
# _framework density 16.510874000000001
#
# number of rings (size 3 to 8) (size 9 to 14) (size 15 to 20)
#    0.000    1.250    2.500    7.125    0.000    3.000 
#    0.000    0.000    0.000    0.375    0.000    2.625 
#    0.000    0.500    0.000    6.250    0.000    0.000 
#
# Total GULP energy -356785.058109 kJ/mol
# GULP energy per Si atom -5574.766533 kJ/mol
# Density = 1.647329 g / cm^3
# Si number density = 16.510874 Si / 1000 Ang^3
#
#
#
# Elastic Constant Matrix: (Units=GPa)
#
#
# Indices 1 2 3 4 5 6 
#
# 1 84.3772 57.3367 1.1074 0.0000 0.0000 0.0000
# 2 57.3367 84.3702 1.1066 0.0000 0.0000 0.0000
# 3 1.1074 1.1066 47.1732 0.0000 0.0000 0.0000
# 4 0.0000 0.0000 0.0000 22.9557 0.0000 0.0000
# 5 0.0000 0.0000 0.0000 0.0000 22.9552 0.0000
# 6 0.0000 0.0000 0.0000 0.0000 0.0000 458.3955
#
#
#
# Elastic Compliance Matrix: (Units=1/GPa)
#
#
# Indices 1 2 3 4 5 6 
#
# 1 0.022022 -0.014964 -0.000166 0.000000 0.000000 0.000000
# 2 -0.014964 0.022024 -0.000165 0.000000 0.000000 0.000000
# 3 -0.000166 -0.000165 0.021206 0.000000 0.000000 0.000000
# 4 0.000000 0.000000 0.000000 0.043562 0.000000 0.000000
# 5 0.000000 0.000000 0.000000 0.000000 0.043563 0.000000
# 6 0.000000 0.000000 0.000000 0.000000 0.000000 0.002182
#
#
# Mechanical properties :
#
#
# Convention : Reuss Voigt Hill
#
# Bulk Modulus (GPa) = 28.84994 37.22465 33.03729
# Shear Modulus (GPa) = 25.41909 111.28594 68.35252
#
# Velocity S-wave (km/s) = 3.92795 8.21875 6.44115
# Velocity P-wave (km/s) = 6.17114 10.61407 8.68163
#
# Compressibility (1/GPa) = 0.03466212
#
# Stress axis : x y z
#
# Youngs Moduli (GPa) = 45.40932 45.40558 47.15586
#
# Poissons Ratio (x) = 0.67943 0.00783
# Poissons Ratio (y) = 0.67949 0.00780
# Poissons Ratio (z) = 0.00754 0.00751
#
# Static dielectric constant tensor:
#      x y z
#    x 1.405880 0.000000 0.000000 
#    y 0.000000 1.406310 0.000000 
#    z 0.000000 0.000000 1.565910 
# 
# From -- ./inp_files/1668.got.cif
#   From: 2010.05.17/outbox.cif.g08.bks.cpg/sg131_1_cif.got.tgz:1668.got - 2010.05.20 12:21:01.
