data_PCOD9566631
_publ_section_title
;
Structure prediction by ZEFSAII (Michael W. Deem and Ramdas Pophale) SiO2 
 PCOD9566631
Probable space group: P 42/M M C
;
_chemical_formula_sum "Si O2"
_cell_formula_units_Z 104
_cell_length_a 17.488612
_cell_length_b 17.488612
_cell_length_c 19.948500
_cell_angle_alpha 90.000000
_cell_angle_beta 90.000000
_cell_angle_gamma 90.000000
_cell_volume 6101.279639
_symmetry_space_group_name_H-M "P 42/M M C"
_symmetry_group_IT_number 131
_symmetry_cell_setting 'tetragonal'
loop_
_space_group_symop_operation_xyz
x,y,z
-x,-y,z
-y,x,1/2+z
y,-x,1/2+z
-x,y,-z
x,-y,-z
y,x,1/2-z
-y,-x,1/2-z
-x,-y,-z
x,y,-z
y,-x,1/2-z
-y,x,1/2-z
x,-y,z
-x,y,z
-y,-x,1/2+z
y,x,1/2+z
loop_
_atom_site_type_symbol
_atom_site_label
_atom_site_fract_x
_atom_site_fract_y
_atom_site_fract_z
Si Si1 0.824293 0.089085 0.811194
Si Si2 0.591425 0.328744 0.185375
Si Si3 0.311557 0.810363 0.778994
Si Si4 0.172041 0.091329 0.420120
Si Si5 0.850745 0.667420 0.868012
Si Si6 0.305130 0.590660 0.079683
Si Si7 0.584897 0.000000 0.579877
O O1 0.868657 0.131343 0.750000
O O2 0.741480 0.129961 0.818485
O O3 0.874582 0.102279 0.877676
O O4 0.815523 0.000000 0.795598
O O5 0.627371 0.372630 0.250000
O O6 0.500000 0.329700 0.188291
O O7 0.624682 0.241879 0.185960
O O8 0.625731 0.372281 0.121145
O O9 0.252175 0.747826 0.750000
O O10 0.342087 0.850309 0.711936
O O11 0.167055 0.103143 0.500000
O O12 0.244908 0.136306 0.389694
O O13 0.180870 0.000000 0.408715
O O14 0.772206 0.632922 0.896336
O O15 0.923413 0.625588 0.897965
O O16 0.299035 0.500000 0.094386
O O17 0.313861 0.599835 0.000000
O O18 0.500000 0.000000 0.607561
O O19 0.583056 0.000000 0.500000
#
# Coordination Sequence:
#
# PCOD9566631 Si02
#       7
#    16  16  16  16  16  16   8
#     4  11  22  37  58  80 109 148 190 236 285 339
#     4  11  22  39  61  83 111 150 194 237 285 343
#     4  10  20  37  58  81 106 137 193 241 272 324
#     4  11  22  35  54  81 112 149 190 230 278 336
#     4  12  20  36  58  80 114 156 195 233 278 336
#     4  11  23  37  56  85 119 152 187 233 286 340
#     4  11  24  36  52  84 121 157 192 229 281 349
#
# _framework density 17.045604000000001
#
# number of rings (size 3 to 8) (size 9 to 14) (size 15 to 20)
#    0.000    1.000    6.923    2.769    1.077    4.615 
#    0.000    1.538    0.000    0.000    0.000    0.000 
#    0.000    0.000    0.000    6.000    0.000    0.000 
#
# Total GULP energy -580419.302050 kJ/mol
# GULP energy per Si atom -5580.954827 kJ/mol
# Density = 1.700681 g / cm^3
# Si number density = 17.045604 Si / 1000 Ang^3
#
#
#
# Elastic Constant Matrix: (Units=GPa)
#
#
# Indices 1 2 3 4 5 6 
#
# 1 94.9622 59.6523 28.2670 0.0000 0.0000 0.0000
# 2 59.6523 94.9621 28.2670 0.0000 0.0000 0.0000
# 3 28.2670 28.2670 72.5157 0.0000 0.0000 0.0000
# 4 0.0000 0.0000 0.0000 30.6628 0.0000 0.0000
# 5 0.0000 0.0000 0.0000 0.0000 30.6632 0.0000
# 6 0.0000 0.0000 0.0000 0.0000 0.0000 6.7268
#
#
#
# Elastic Compliance Matrix: (Units=1/GPa)
#
#
# Indices 1 2 3 4 5 6 
#
# 1 0.017932 -0.010389 -0.002940 0.000000 0.000000 0.000000
# 2 -0.010389 0.017932 -0.002940 0.000000 0.000000 0.000000
# 3 -0.002940 -0.002940 0.016082 0.000000 0.000000 0.000000
# 4 0.000000 0.000000 0.000000 0.032613 0.000000 0.000000
# 5 0.000000 0.000000 0.000000 0.000000 0.032612 0.000000
# 6 0.000000 0.000000 0.000000 0.000000 0.000000 0.148660
#
#
# Mechanical properties :
#
#
# Convention : Reuss Voigt Hill
#
# Bulk Modulus (GPa) = 51.52769 54.97917 53.25343
# Shear Modulus (GPa) = 16.40211 23.36080 19.88145
#
# Velocity S-wave (km/s) = 3.10538 3.70603 3.41892
# Velocity P-wave (km/s) = 6.56908 7.11597 6.84799
#
# Compressibility (1/GPa) = 0.01940704
#
# Stress axis : x y z
#
# Youngs Moduli (GPa) = 55.76705 55.76696 62.18002
#
# Poissons Ratio (x) = 0.57936 0.18282
# Poissons Ratio (y) = 0.57936 0.18282
# Poissons Ratio (z) = 0.16397 0.16397
#
# Static dielectric constant tensor:
#      x y z
#    x 1.574580 0.000000 0.000000 
#    y 0.000000 1.574580 0.000000 
#    z 0.000000 0.000000 1.478540 
# 
# From -- ./inp_files/8086.got.cif
#   From: 2010.05.17/outbox.cif.g08.bks.cpg/sg131_5_cif.got.tgz:8086.got - 2010.05.20 12:21:01.
