data_PCOD9566676
_publ_section_title
;
Structure prediction by ZEFSAII (Michael W. Deem and Ramdas Pophale) SiO2 
 PCOD9566676
Probable space group: P 42/M M C
;
_chemical_formula_sum "Si O2"
_cell_formula_units_Z 96
_cell_length_a 24.835887
_cell_length_b 24.835887
_cell_length_c 8.581987
_cell_angle_alpha 90.000000
_cell_angle_beta 90.000000
_cell_angle_gamma 90.000000
_cell_volume 5293.552233
_symmetry_space_group_name_H-M "P 42/M M C"
_symmetry_group_IT_number 131
_symmetry_cell_setting 'tetragonal'
loop_
_space_group_symop_operation_xyz
x,y,z
-x,-y,z
-y,x,1/2+z
y,-x,1/2+z
-x,y,-z
x,-y,-z
y,x,1/2-z
-y,-x,1/2-z
-x,-y,-z
x,y,-z
y,-x,1/2-z
-y,x,1/2-z
x,-y,z
-x,y,z
-y,-x,1/2+z
y,x,1/2+z
loop_
_atom_site_type_symbol
_atom_site_label
_atom_site_fract_x
_atom_site_fract_y
_atom_site_fract_z
Si Si1 0.559699 0.936287 0.313469
Si Si2 0.145481 0.644090 0.312468
Si Si3 0.235204 0.439151 0.311883
Si Si4 0.852812 0.231725 0.312156
Si Si5 0.146991 0.062795 0.687386
Si Si6 0.438874 0.354456 0.686103
O O1 0.561575 0.928373 0.500000
O O2 0.500000 0.917753 0.258413
O O3 0.609410 0.905979 0.237374
O O4 0.562821 0.000000 0.284140
O O5 0.147621 0.645800 0.500000
O O6 0.195382 0.607500 0.255960
O O7 0.146264 0.706044 0.259203
O O8 0.234407 0.439091 0.500000
O O9 0.219827 0.500000 0.260223
O O10 0.295389 0.428802 0.254693
O O11 0.800986 0.199015 0.250000
O O12 0.852304 0.230008 0.500000
O O13 0.904532 0.198393 0.252259
O O14 0.094902 0.094902 0.750000
O O15 0.147449 0.066242 0.500000
O O16 0.147163 0.000000 0.732522
O O17 0.396822 0.396822 0.750000
O O18 0.435629 0.351806 0.500000
O O19 0.500000 0.369756 0.730119
#
# Coordination Sequence:
#
# PCOD9566676 Si02
#       6
#    16  16  16  16  16  16
#     4   9  19  35  53  76 108 143 178 218 262 307
#     4  10  21  35  54  81 107 136 177 220 263 313
#     4   9  18  34  54  75 103 136 170 214 265 313
#     4  10  21  37  55  76 106 141 177 218 262 308
#     4  10  21  37  58  83 110 141 176 214 258 307
#     4  10  21  36  54  77 104 134 170 211 257 312
#
# _framework density 18.135269999999998
#
# number of rings (size 3 to 8) (size 9 to 14) (size 15 to 20)
#    0.000    2.333    0.000    3.500    0.000    7.333 
#    0.000    9.167    0.000    0.000    0.000    0.000 
#    0.000    0.000    0.000    0.000    0.000    0.000 
#
# Total GULP energy -535655.223299 kJ/mol
# GULP energy per Si atom -5579.741909 kJ/mol
# Density = 1.809399 g / cm^3
# Si number density = 18.135270 Si / 1000 Ang^3
#
#
#
# Elastic Constant Matrix: (Units=GPa)
#
#
# Indices 1 2 3 4 5 6 
#
# 1 158.2868 99.0657 30.7557 0.0000 0.0000 0.0000
# 2 99.0657 158.2858 30.7559 0.0000 0.0000 0.0000
# 3 30.7557 30.7559 20.5744 0.0000 0.0000 0.0000
# 4 0.0000 0.0000 0.0000 20.8114 0.0000 0.0000
# 5 0.0000 0.0000 0.0000 0.0000 20.8107 0.0000
# 6 0.0000 0.0000 0.0000 0.0000 0.0000 30.7434
#
#
#
# Elastic Compliance Matrix: (Units=1/GPa)
#
#
# Indices 1 2 3 4 5 6 
#
# 1 0.011466 -0.005420 -0.009038 0.000000 0.000000 0.000000
# 2 -0.005420 0.011466 -0.009038 0.000000 0.000000 0.000000
# 3 -0.009038 -0.009038 0.075624 0.000000 0.000000 0.000000
# 4 0.000000 0.000000 0.000000 0.048051 0.000000 0.000000
# 5 0.000000 0.000000 0.000000 0.000000 0.048052 0.000000
# 6 0.000000 0.000000 0.000000 0.000000 0.000000 0.032527
#
#
# Mechanical properties :
#
#
# Convention : Reuss Voigt Hill
#
# Bulk Modulus (GPa) = 19.39292 73.14462 46.26877
# Shear Modulus (GPa) = 17.16054 26.24441 21.70248
#
# Velocity S-wave (km/s) = 3.07946 3.80827 3.46309
# Velocity P-wave (km/s) = 4.83330 7.73030 6.44664
#
# Compressibility (1/GPa) = 0.05156520
#
# Stress axis : x y z
#
# Youngs Moduli (GPa) = 87.21524 87.21396 13.22323
#
# Poissons Ratio (x) = 0.47270 0.11951
# Poissons Ratio (y) = 0.47271 0.11951
# Poissons Ratio (z) = 0.78821 0.78824
#
# Static dielectric constant tensor:
#      x y z
#    x 1.607780 0.000000 0.000000 
#    y 0.000000 1.607780 0.000000 
#    z 0.000000 0.000000 1.616980 
# 
# From -- ./inp_files/2276.got.cif
#   From: 2010.05.17/outbox.cif.g08.bks.cpg/sg131_2_cif.got.tgz:2276.got - 2010.05.20 12:21:01.
