data_PCOD9566751
_publ_section_title
;
Structure prediction by ZEFSAII (Michael W. Deem and Ramdas Pophale) SiO2 
 PCOD9566751
Probable space group: P 42/M M C
;
_chemical_formula_sum "Si O2"
_cell_formula_units_Z 40
_cell_length_a 9.707933
_cell_length_b 9.707933
_cell_length_c 19.393658
_cell_angle_alpha 90.000000
_cell_angle_beta 90.000000
_cell_angle_gamma 90.000000
_cell_volume 1827.735190
_symmetry_space_group_name_H-M "P 42/M M C"
_symmetry_group_IT_number 131
_symmetry_cell_setting 'tetragonal'
loop_
_space_group_symop_operation_xyz
x,y,z
-x,-y,z
-y,x,1/2+z
y,-x,1/2+z
-x,y,-z
x,-y,-z
y,x,1/2-z
-y,-x,1/2-z
-x,-y,-z
x,y,-z
y,-x,1/2-z
-y,x,1/2-z
x,-y,z
-x,y,z
-y,-x,1/2+z
y,x,1/2+z
loop_
_atom_site_type_symbol
_atom_site_label
_atom_site_fract_x
_atom_site_fract_y
_atom_site_fract_z
Si Si1 0.500000 0.657258 0.917998
Si Si2 0.338600 0.150254 0.295338
Si Si3 0.835020 0.771357 0.418881
O O1 0.500000 0.500000 0.888208
O O2 0.371287 0.755376 0.904135
O O3 0.500000 0.638103 0.000000
O O4 0.268298 0.268298 0.250000
O O5 0.500000 0.177436 0.309736
O O6 0.247750 0.138885 0.364339
O O7 0.330842 0.000000 0.259587
O O8 0.814844 0.806626 0.500000
O O9 0.000000 0.766851 0.407902
#
# Coordination Sequence:
#
# PCOD9566751 Si02
#       3
#     8  16  16
#     4   9  17  31  55  89 129 171 214 263 318 377
#     4  11  26  46  68  95 130 175 224 277 338 403
#     4  10  21  38  64  98 135 174 217 269 331 399
#
# _framework density 21.885006000000001
#
# number of rings (size 3 to 8) (size 9 to 14) (size 15 to 20)
#    0.000    1.800    0.000    3.000    2.800    8.800 
#    0.000    4.000    0.000    0.000    0.000    0.000 
#    0.000    0.000    0.000    0.000    0.000    0.000 
#
# Total GULP energy -222941.033919 kJ/mol
# GULP energy per Si atom -5573.525848 kJ/mol
# Density = 2.183519 g / cm^3
# Si number density = 21.885006 Si / 1000 Ang^3
#
#
#
# Elastic Constant Matrix: (Units=GPa)
#
#
# Indices 1 2 3 4 5 6 
#
# 1 189.0276 62.8200 59.4562 0.0000 0.0000 0.0000
# 2 62.8200 189.0276 59.4562 0.0000 0.0000 0.0000
# 3 59.4562 59.4562 113.8150 0.0000 0.0000 0.0000
# 4 0.0000 0.0000 0.0000 26.9529 0.0000 0.0000
# 5 0.0000 0.0000 0.0000 0.0000 26.9529 0.0000
# 6 0.0000 0.0000 0.0000 0.0000 0.0000 43.2364
#
#
#
# Elastic Compliance Matrix: (Units=1/GPa)
#
#
# Indices 1 2 3 4 5 6 
#
# 1 0.006597 -0.001326 -0.002753 0.000000 0.000000 0.000000
# 2 -0.001326 0.006597 -0.002753 0.000000 0.000000 0.000000
# 3 -0.002753 -0.002753 0.011663 0.000000 0.000000 0.000000
# 4 0.000000 0.000000 0.000000 0.037102 0.000000 0.000000
# 5 0.000000 0.000000 0.000000 0.000000 0.037102 0.000000
# 6 0.000000 0.000000 0.000000 0.000000 0.000000 0.023129
#
#
# Mechanical properties :
#
#
# Convention : Reuss Voigt Hill
#
# Bulk Modulus (GPa) = 89.35942 95.03722 92.19832
# Shear Modulus (GPa) = 35.82029 40.10430 37.96229
#
# Velocity S-wave (km/s) = 4.05007 4.28542 4.16940
# Velocity P-wave (km/s) = 7.92406 8.24660 8.08694
#
# Compressibility (1/GPa) = 0.01119076
#
# Stress axis : x y z
#
# Youngs Moduli (GPa) = 151.58246 151.58246 85.74216
#
# Poissons Ratio (x) = 0.20106 0.23608
# Poissons Ratio (y) = 0.20106 0.23608
# Poissons Ratio (z) = 0.41736 0.41736
#
# Static dielectric constant tensor:
#      x y z
#    x 1.852870 0.000000 0.000000 
#    y 0.000000 1.852870 0.000000 
#    z 0.000000 0.000000 1.847940 
# 
# From -- ./inp_files/10340.got.cif
#   From: 2010.05.17/outbox.cif.g08.bks.cpg/sg131_6_cif.got.tgz:10340.got - 2010.05.20 12:21:01.
