data_PCOD9566515
_publ_section_title
;
Structure prediction by ZEFSAII (Michael W. Deem and Ramdas Pophale) SiO2 
 PCOD9566515
Probable space group: P 42/M M C
;
_chemical_formula_sum "Si O2"
_cell_formula_units_Z 80
_cell_length_a 13.962832
_cell_length_b 13.962832
_cell_length_c 19.405850
_cell_angle_alpha 90.000000
_cell_angle_beta 90.000000
_cell_angle_gamma 90.000000
_cell_volume 3783.377663
_symmetry_space_group_name_H-M "P 42/M M C"
_symmetry_group_IT_number 131
_symmetry_cell_setting 'tetragonal'
loop_
_space_group_symop_operation_xyz
x,y,z
-x,-y,z
-y,x,1/2+z
y,-x,1/2+z
-x,y,-z
x,-y,-z
y,x,1/2-z
-y,-x,1/2-z
-x,-y,-z
x,y,-z
y,-x,1/2-z
-y,x,1/2-z
x,-y,z
-x,y,z
-y,-x,1/2+z
y,x,1/2+z
loop_
_atom_site_type_symbol
_atom_site_label
_atom_site_fract_x
_atom_site_fract_y
_atom_site_fract_z
Si Si1 0.395705 0.181184 0.919746
Si Si2 0.686542 0.391663 0.078578
Si Si3 0.254626 0.108143 0.186070
Si Si4 0.883853 0.112292 0.423470
Si Si5 0.611270 0.756477 0.725035
O O1 0.500000 0.159520 0.892255
O O2 0.376559 0.295709 0.912103
O O3 0.321371 0.115547 0.881181
O O4 0.392605 0.161544 0.000000
O O5 0.642490 0.500000 0.084916
O O6 0.759414 0.384416 0.142089
O O7 0.724122 0.386443 0.000000
O O8 0.159143 0.148970 0.149008
O O9 0.316417 0.168921 0.239905
O O10 0.239190 0.000000 0.209642
O O11 0.850623 0.149212 0.500000
O O12 0.000000 0.122563 0.423156
O O13 0.861879 0.000000 0.422221
O O14 0.653827 0.653827 0.750000
O O15 0.500000 0.767419 0.744362
#
# Coordination Sequence:
#
# PCOD9566515 Si02
#       5
#    16  16  16  16  16
#     4  10  20  33  53  85 123 159 196 239 294 375
#     4   9  19  37  61  83 109 153 204 257 312 366
#     4  11  22  36  57  87 125 165 203 252 318 381
#     4   8  15  31  57  88 122 163 210 255 300 359
#     4  11  23  40  62  89 122 158 204 257 316 387
#
# _framework density 21.145126000000001
#
# number of rings (size 3 to 8) (size 9 to 14) (size 15 to 20)
#    0.000    2.200    2.000    1.800    0.000    3.400 
#    0.000    6.000    0.000    0.600    0.000    2.800 
#    0.000    0.000    0.000    5.000    0.000    0.400 
#
# Total GULP energy -445406.960243 kJ/mol
# GULP energy per Si atom -5567.587003 kJ/mol
# Density = 2.109700 g / cm^3
# Si number density = 21.145126 Si / 1000 Ang^3
#
#
#
# Elastic Constant Matrix: (Units=GPa)
#
#
# Indices 1 2 3 4 5 6 
#
# 1 63.6247 22.4273 21.6850 0.0000 0.0000 0.0000
# 2 22.4273 63.6247 21.6850 0.0000 0.0000 0.0000
# 3 21.6850 21.6850 89.4119 0.0000 0.0000 0.0000
# 4 0.0000 0.0000 0.0000 25.8433 0.0000 0.0000
# 5 0.0000 0.0000 0.0000 0.0000 25.8433 0.0000
# 6 0.0000 0.0000 0.0000 0.0000 0.0000 -14.2386
#
#
#
# Elastic Compliance Matrix: (Units=1/GPa)
#
#
# Indices 1 2 3 4 5 6 
#
# 1 0.018756 -0.005517 -0.003211 0.000000 0.000000 0.000000
# 2 -0.005517 0.018756 -0.003211 0.000000 0.000000 0.000000
# 3 -0.003211 -0.003211 0.012742 0.000000 0.000000 0.000000
# 4 0.000000 0.000000 0.000000 0.038695 0.000000 0.000000
# 5 0.000000 0.000000 0.000000 0.000000 0.038695 0.000000
# 6 0.000000 0.000000 0.000000 0.000000 0.000000 -0.070232
#
#
# Mechanical properties :
#
#
# Convention : Reuss Voigt Hill
#
# Bulk Modulus (GPa) = 37.91259 38.69507 38.30383
# Shear Modulus (GPa) = 55.50492 17.54719 36.52605
#
# Velocity S-wave (km/s) = 5.12899 2.88383 4.16071
# Velocity P-wave (km/s) = 7.28313 5.42477 6.42153
#
# Compressibility (1/GPa) = 0.02637646
#
# Stress axis : x y z
#
# Youngs Moduli (GPa) = 53.31548 53.31548 78.48276
#
# Poissons Ratio (x) = 0.29415 0.25200
# Poissons Ratio (y) = 0.29415 0.25200
# Poissons Ratio (z) = 0.17119 0.17119
#
# Static dielectric constant tensor:
#      x y z
#    x 1.786240 0.000000 0.000000 
#    y 0.000000 1.786240 0.000000 
#    z 0.000000 0.000000 1.845400 
# 
# From -- ./inp_files/9399.got.cif
#   From: 2010.05.17/outbox.cif.g08.bks.cpg/sg131_5_cif.got.tgz:9399.got - 2010.05.20 12:21:01.
