data_PCOD9566163
_publ_section_title
;
Structure prediction by ZEFSAII (Michael W. Deem and Ramdas Pophale) SiO2 
 PCOD9566163
Probable space group: P 42/M M C
;
_chemical_formula_sum "Si O2"
_cell_formula_units_Z 128
_cell_length_a 18.339762
_cell_length_b 18.339762
_cell_length_c 24.853510
_cell_angle_alpha 90.000000
_cell_angle_beta 90.000000
_cell_angle_gamma 90.000000
_cell_volume 8359.400302
_symmetry_space_group_name_H-M "P 42/M M C"
_symmetry_group_IT_number 131
_symmetry_cell_setting 'tetragonal'
loop_
_space_group_symop_operation_xyz
x,y,z
-x,-y,z
-y,x,1/2+z
y,-x,1/2+z
-x,y,-z
x,-y,-z
y,x,1/2-z
-y,-x,1/2-z
-x,-y,-z
x,y,-z
y,-x,1/2-z
-y,x,1/2-z
x,-y,z
-x,y,z
-y,-x,1/2+z
y,x,1/2+z
loop_
_atom_site_type_symbol
_atom_site_label
_atom_site_fract_x
_atom_site_fract_y
_atom_site_fract_z
Si Si1 0.584773 0.082233 0.773611
Si Si2 0.846672 0.729016 0.437577
Si Si3 0.198285 0.916443 0.656200
Si Si4 0.417515 0.083711 0.434576
Si Si5 0.197203 0.084058 0.837224
Si Si6 0.842413 0.271747 0.936096
Si Si7 0.170670 0.716025 0.245165
Si Si8 0.084255 0.584132 0.403790
O O1 0.500000 0.087073 0.758670
O O2 0.632434 0.147312 0.749454
O O3 0.588864 0.086190 0.838712
O O4 0.611212 0.000000 0.758389
O O5 0.862289 0.744633 0.500000
O O6 0.899895 0.769832 0.396034
O O7 0.766727 0.764066 0.425425
O O8 0.860655 0.643660 0.427226
O O9 0.118539 0.882993 0.665193
O O10 0.222200 0.900641 0.595224
O O11 0.251178 0.866126 0.691919
O O12 0.204330 0.000000 0.670866
O O13 0.419453 0.083443 0.500000
O O14 0.500000 0.100046 0.416075
O O15 0.354594 0.140286 0.418468
O O16 0.399318 0.000000 0.418088
O O17 0.246132 0.127991 0.794782
O O18 0.199215 0.000000 0.824382
O O19 0.853601 0.269107 0.000000
O O20 0.253023 0.746978 0.250000
O O21 0.099431 0.500000 0.418672
O O22 0.000000 0.600563 0.419947
#
# Coordination Sequence:
#
# PCOD9566163 Si02
#       8
#    16  16  16  16  16  16  16  16
#     4   9  16  28  48  69  90 118 146 174 218 272
#     4  10  19  29  43  63  87 117 150 181 216 261
#     4  10  20  30  43  63  80 105 148 186 219 262
#     4   8  13  23  42  64  82 105 139 177 218 264
#     4  10  19  31  45  58  80 113 144 183 228 258
#     4   9  18  31  44  60  86 117 145 178 220 264
#     4  10  19  31  47  65  86 112 143 181 219 260
#     4   9  17  28  44  66  89 115 146 180 219 260
#
# _framework density 15.312103
#
# number of rings (size 3 to 8) (size 9 to 14) (size 15 to 20)
#    0.000    2.625    1.250    3.000    0.000    2.250 
#    0.000    1.250    0.000    4.500    0.000    3.500 
#    0.000    0.750    0.000    7.625    0.000    1.000 
#
# Total GULP energy -712601.221082 kJ/mol
# GULP energy per Si atom -5567.197040 kJ/mol
# Density = 1.527725 g / cm^3
# Si number density = 15.312103 Si / 1000 Ang^3
#
#
#
# Elastic Constant Matrix: (Units=GPa)
#
#
# Indices 1 2 3 4 5 6 
#
# 1 70.5664 33.4453 9.0611 0.0000 0.0000 0.0000
# 2 33.4453 70.5675 9.0613 0.0000 0.0000 0.0000
# 3 9.0611 9.0613 25.0886 0.0000 0.0000 0.0000
# 4 0.0000 0.0000 0.0000 15.5002 0.0000 0.0000
# 5 0.0000 0.0000 0.0000 0.0000 15.4998 0.0000
# 6 0.0000 0.0000 0.0000 0.0000 0.0000 24.8722
#
#
#
# Elastic Compliance Matrix: (Units=1/GPa)
#
#
# Indices 1 2 3 4 5 6 
#
# 1 0.018599 -0.008339 -0.003705 0.000000 0.000000 0.000000
# 2 -0.008339 0.018599 -0.003706 0.000000 0.000000 0.000000
# 3 -0.003705 -0.003706 0.042535 0.000000 0.000000 0.000000
# 4 0.000000 0.000000 0.000000 0.064515 0.000000 0.000000
# 5 0.000000 0.000000 0.000000 0.000000 0.064517 0.000000
# 6 0.000000 0.000000 0.000000 0.000000 0.000000 0.040205
#
#
# Mechanical properties :
#
#
# Convention : Reuss Voigt Hill
#
# Bulk Modulus (GPa) = 20.73271 29.92864 25.33067
# Shear Modulus (GPa) = 16.86060 18.81812 17.83936
#
# Velocity S-wave (km/s) = 3.32193 3.50947 3.41699
# Velocity P-wave (km/s) = 5.31818 6.00083 5.66979
#
# Compressibility (1/GPa) = 0.04823297
#
# Stress axis : x y z
#
# Youngs Moduli (GPa) = 53.76549 53.76621 23.50987
#
# Poissons Ratio (x) = 0.44837 0.08712
# Poissons Ratio (y) = 0.44837 0.08712
# Poissons Ratio (z) = 0.19923 0.19924
#
# Static dielectric constant tensor:
#      x y z
#    x 1.522960 0.000000 0.000000 
#    y 0.000000 1.522960 0.000000 
#    z 0.000000 0.000000 1.552620 
# 
# From -- ./inp_files/11516.got.cif
#   From: 2010.05.17/outbox.cif.g08.bks.cpg/sg131_6_cif.got.tgz:11516.got - 2010.05.20 12:21:01.
