data_PCOD9566290
_publ_section_title
;
Structure prediction by ZEFSAII (Michael W. Deem and Ramdas Pophale) SiO2 
 PCOD9566290
Probable space group: P 42/M M C
;
_chemical_formula_sum "Si O2"
_cell_formula_units_Z 96
_cell_length_a 14.997587
_cell_length_b 14.997587
_cell_length_c 28.109187
_cell_angle_alpha 90.000000
_cell_angle_beta 90.000000
_cell_angle_gamma 90.000000
_cell_volume 6322.532415
_symmetry_space_group_name_H-M "P 42/M M C"
_symmetry_group_IT_number 131
_symmetry_cell_setting 'tetragonal'
loop_
_space_group_symop_operation_xyz
x,y,z
-x,-y,z
-y,x,1/2+z
y,-x,1/2+z
-x,y,-z
x,-y,-z
y,x,1/2-z
-y,-x,1/2-z
-x,-y,-z
x,y,-z
y,-x,1/2-z
-y,x,1/2-z
x,-y,z
-x,y,z
-y,-x,1/2+z
y,x,1/2+z
loop_
_atom_site_type_symbol
_atom_site_label
_atom_site_fract_x
_atom_site_fract_y
_atom_site_fract_z
Si Si1 0.500000 0.892294 0.053492
Si Si2 0.894073 0.229278 0.781922
Si Si3 0.397423 0.107057 0.443260
Si Si4 0.399954 0.892396 0.774812
Si Si5 0.000000 0.895025 0.942979
Si Si6 0.667797 0.892731 0.118434
Si Si7 0.217182 0.154174 0.392732
O O1 0.587583 0.869442 0.083079
O O2 0.500000 0.000000 0.050993
O O3 0.500000 0.856819 0.000000
O O4 0.842936 0.157065 0.750000
O O5 0.863744 0.326424 0.763217
O O6 0.874829 0.219771 0.837569
O O7 0.000000 0.221046 0.773890
O O8 0.386941 0.122535 0.500000
O O9 0.500000 0.131711 0.430355
O O10 0.316952 0.152192 0.414493
O O11 0.389224 0.000000 0.435698
O O12 0.500000 0.857222 0.768088
O O13 0.363967 0.873730 0.827731
O O14 0.405175 0.000000 0.771604
O O15 0.915491 0.843085 0.921937
O O16 0.000000 0.000000 0.929794
O O17 0.000000 0.888974 0.000000
O O18 0.752236 0.833519 0.105715
O O19 0.685974 0.000000 0.115330
#
# Coordination Sequence:
#
# PCOD9566290 Si02
#       7
#     8  16  16  16   8  16  16
#     4   9  18  32  50  74 101 131 175 223 262 304
#     4  11  22  34  47  73 103 137 178 216 249 303
#     4   9  18  34  55  75  98 133 175 219 270 316
#     4   9  17  32  53  71  95 133 173 212 263 308
#     4  11  24  38  51  71 107 151 190 218 254 307
#     4  10  19  32  51  73 104 141 175 210 258 313
#     4  12  21  34  53  77 107 138 177 222 265 309
#
# _framework density 15.183789000000001
#
# number of rings (size 3 to 8) (size 9 to 14) (size 15 to 20)
#    0.000    1.833    4.167    1.500    0.000    2.833 
#    0.000    3.333    0.000    0.000    0.000    0.583 
#    0.000    3.667    0.000    0.000    0.000    0.000 
#
# Total GULP energy -535270.052644 kJ/mol
# GULP energy per Si atom -5575.729715 kJ/mol
# Density = 1.514923 g / cm^3
# Si number density = 15.183789 Si / 1000 Ang^3
#
#
#
# Elastic Constant Matrix: (Units=GPa)
#
#
# Indices 1 2 3 4 5 6 
#
# 1 111.4483 58.4208 49.7136 0.0000 0.0000 0.0000
# 2 58.4208 111.4483 49.7132 0.0000 0.0000 0.0000
# 3 49.7136 49.7132 93.3837 0.0000 0.0000 0.0000
# 4 0.0000 0.0000 0.0000 18.5853 0.0000 0.0000
# 5 0.0000 0.0000 0.0000 0.0000 18.5852 0.0000
# 6 0.0000 0.0000 0.0000 0.0000 0.0000 5.0870
#
#
#
# Elastic Compliance Matrix: (Units=1/GPa)
#
#
# Indices 1 2 3 4 5 6 
#
# 1 0.013705 -0.005153 -0.004553 0.000000 0.000000 0.000000
# 2 -0.005153 0.013705 -0.004552 0.000000 0.000000 0.000000
# 3 -0.004553 -0.004552 0.015556 0.000000 0.000000 0.000000
# 4 0.000000 0.000000 0.000000 0.053806 0.000000 0.000000
# 5 0.000000 0.000000 0.000000 0.000000 0.053806 0.000000
# 6 0.000000 0.000000 0.000000 0.000000 0.000000 0.196581
#
#
# Mechanical properties :
#
#
# Convention : Reuss Voigt Hill
#
# Bulk Modulus (GPa) = 69.21006 70.21952 69.71479
# Shear Modulus (GPa) = 13.14091 19.01365 16.07728
#
# Velocity S-wave (km/s) = 2.94506 3.54253 3.25752
# Velocity P-wave (km/s) = 7.56604 7.94226 7.75643
#
# Compressibility (1/GPa) = 0.01444877
#
# Stress axis : x y z
#
# Youngs Moduli (GPa) = 72.96682 72.96716 64.28575
#
# Poissons Ratio (x) = 0.37602 0.29266
# Poissons Ratio (y) = 0.37602 0.29265
# Poissons Ratio (z) = 0.33218 0.33217
#
# Static dielectric constant tensor:
#      x y z
#    x 1.497140 0.000000 0.000000 
#    y 0.000000 1.497140 0.000000 
#    z 0.000000 0.000000 1.508990 
# 
# From -- ./inp_files/11149.got.cif
#   From: 2010.05.17/outbox.cif.g08.bks.cpg/sg131_6_cif.got.tgz:11149.got - 2010.05.20 12:21:01.
