data_PCOD9566790
_publ_section_title
;
Structure prediction by ZEFSAII (Michael W. Deem and Ramdas Pophale) SiO2 
 PCOD9566790
Probable space group: P 42/M M C
;
_chemical_formula_sum "Si O2"
_cell_formula_units_Z 112
_cell_length_a 14.636596
_cell_length_b 14.636596
_cell_length_c 27.546816
_cell_angle_alpha 90.000000
_cell_angle_beta 90.000000
_cell_angle_gamma 90.000000
_cell_volume 5901.352807
_symmetry_space_group_name_H-M "P 42/M M C"
_symmetry_group_IT_number 131
_symmetry_cell_setting 'tetragonal'
loop_
_space_group_symop_operation_xyz
x,y,z
-x,-y,z
-y,x,1/2+z
y,-x,1/2+z
-x,y,-z
x,-y,-z
y,x,1/2-z
-y,-x,1/2-z
-x,-y,-z
x,y,-z
y,-x,1/2-z
-y,x,1/2-z
x,-y,z
-x,y,z
-y,-x,1/2+z
y,x,1/2+z
loop_
_atom_site_type_symbol
_atom_site_label
_atom_site_fract_x
_atom_site_fract_y
_atom_site_fract_z
Si Si1 0.638948 0.898587 0.443725
Si Si2 0.601798 0.286291 0.390667
Si Si3 0.257745 0.389570 0.221630
Si Si4 0.897609 0.277056 0.620163
Si Si5 0.255155 0.890147 0.234548
Si Si6 0.758503 0.609076 0.556390
Si Si7 0.895679 0.859803 0.944241
O O1 0.611657 0.889376 0.500000
O O2 0.603184 0.815113 0.412945
O O3 0.749352 0.893892 0.442652
O O4 0.612195 0.000000 0.426793
O O5 0.500000 0.323665 0.390846
O O6 0.631251 0.275625 0.334978
O O7 0.665035 0.349418 0.423355
O O8 0.341302 0.341302 0.250000
O O9 0.252828 0.500000 0.228194
O O10 0.165594 0.337186 0.239042
O O11 0.874788 0.267102 0.676795
O O12 0.833000 0.343949 0.590460
O O13 0.893034 0.178832 0.593665
O O14 0.000000 0.312846 0.617124
O O15 0.161714 0.838287 0.250000
O O16 0.254665 0.000000 0.243813
O O17 0.771616 0.635372 0.500000
O O18 0.760464 0.500000 0.559869
O O19 0.000000 0.888189 0.933822
O O20 0.874136 0.886589 0.000000
#
# Coordination Sequence:
#
# PCOD9566790 Si02
#       7
#    16  16  16  16  16  16  16
#     4   9  18  33  55  85 120 156 189 220 267 337
#     4  11  23  39  61  89 119 151 190 239 294 353
#     4  10  23  42  63  89 117 148 195 252 307 364
#     4  11  23  39  60  87 117 154 201 247 294 345
#     4  10  23  41  61  87 120 159 201 249 302 356
#     4  11  24  41  61  86 119 158 198 242 291 344
#     4   9  18  33  55  84 117 153 190 229 279 338
#
# _framework density 18.978698999999999
#
# number of rings (size 3 to 8) (size 9 to 14) (size 15 to 20)
#    0.000    1.857    1.429    3.429    0.000    7.429 
#    0.000    8.571    0.000    0.000    0.000    0.000 
#    0.000    0.000    0.000    0.000    0.000    0.000 
#
# Total GULP energy -625407.780036 kJ/mol
# GULP energy per Si atom -5583.998036 kJ/mol
# Density = 1.893550 g / cm^3
# Si number density = 18.978699 Si / 1000 Ang^3
#
#
#
# Elastic Constant Matrix: (Units=GPa)
#
#
# Indices 1 2 3 4 5 6 
#
# 1 92.3822 34.4953 40.2644 0.0000 0.0000 0.0000
# 2 34.4953 92.3823 40.2661 0.0000 0.0000 0.0000
# 3 40.2644 40.2661 93.0389 0.0000 0.0000 0.0000
# 4 0.0000 0.0000 0.0000 -161.5345 0.0000 0.0000
# 5 0.0000 0.0000 0.0000 0.0000 -161.5437 0.0000
# 6 0.0000 0.0000 0.0000 0.0000 0.0000 -28.4700
#
#
#
# Elastic Compliance Matrix: (Units=1/GPa)
#
#
# Indices 1 2 3 4 5 6 
#
# 1 0.014071 -0.003204 -0.004703 0.000000 0.000000 0.000000
# 2 -0.003204 0.014071 -0.004703 0.000000 0.000000 0.000000
# 3 -0.004703 -0.004703 0.014819 0.000000 0.000000 0.000000
# 4 0.000000 0.000000 0.000000 -0.006191 0.000000 0.000000
# 5 0.000000 0.000000 0.000000 0.000000 -0.006190 0.000000
# 6 0.000000 0.000000 0.000000 0.000000 0.000000 -0.035125
#
#
# Mechanical properties :
#
#
# Convention : Reuss Voigt Hill
#
# Bulk Modulus (GPa) = 56.36791 56.42834 56.39813
# Shear Modulus (GPa) = 188.05457 -59.45781 64.29838
#
# Velocity S-wave (km/s) = 9.96505 -5.60328 5.82690
# Velocity P-wave (km/s) = 12.73453 3.47351 8.66322
#
# Compressibility (1/GPa) = 0.01774059
#
# Stress axis : x y z
#
# Youngs Moduli (GPa) = 71.06981 71.06850 67.48210
#
# Poissons Ratio (x) = 0.22772 0.31734
# Poissons Ratio (y) = 0.22773 0.31737
# Poissons Ratio (z) = 0.33421 0.33424
#
# Static dielectric constant tensor:
#      x y z
#    x 1.704700 0.000000 0.000000 
#    y 0.000000 1.704690 0.000000 
#    z 0.000000 0.000000 1.637110 
# 
# From -- ./inp_files/11272.got.cif
#   From: 2010.05.17/outbox.cif.g08.bks.cpg/sg131_6_cif.got.tgz:11272.got - 2010.05.20 12:21:01.
