data_PCOD9566478
_publ_section_title
;
Structure prediction by ZEFSAII (Michael W. Deem and Ramdas Pophale) SiO2 
 PCOD9566478
Probable space group: P 42/M M C
;
_chemical_formula_sum "Si O2"
_cell_formula_units_Z 112
_cell_length_a 14.581795
_cell_length_b 14.581795
_cell_length_c 30.439669
_cell_angle_alpha 90.000000
_cell_angle_beta 90.000000
_cell_angle_gamma 90.000000
_cell_volume 6472.348631
_symmetry_space_group_name_H-M "P 42/M M C"
_symmetry_group_IT_number 131
_symmetry_cell_setting 'tetragonal'
loop_
_space_group_symop_operation_xyz
x,y,z
-x,-y,z
-y,x,1/2+z
y,-x,1/2+z
-x,y,-z
x,-y,-z
y,x,1/2-z
-y,-x,1/2-z
-x,-y,-z
x,y,-z
y,-x,1/2-z
-y,x,1/2-z
x,-y,z
-x,y,z
-y,-x,1/2+z
y,x,1/2+z
loop_
_atom_site_type_symbol
_atom_site_label
_atom_site_fract_x
_atom_site_fract_y
_atom_site_fract_z
Si Si1 0.606457 0.101559 0.921341
Si Si2 0.824305 0.398340 0.799383
Si Si3 0.262749 0.894847 0.162790
Si Si4 0.661071 0.394530 0.861038
Si Si5 0.400165 0.242953 0.793998
Si Si6 0.303940 0.390979 0.547922
Si Si7 0.106269 0.804619 0.206243
O O1 0.500000 0.106499 0.904890
O O2 0.681789 0.105997 0.882821
O O3 0.619681 0.193645 0.949001
O O4 0.614890 0.000000 0.942304
O O5 0.868858 0.500000 0.796659
O O6 0.765470 0.393518 0.843746
O O7 0.751157 0.395847 0.758732
O O8 0.882039 0.305801 0.795057
O O9 0.323154 0.829094 0.193164
O O10 0.162615 0.849975 0.165934
O O11 0.259060 0.000000 0.178233
O O12 0.629041 0.500000 0.860890
O O13 0.610249 0.330954 0.825094
O O14 0.651306 0.350483 0.909032
O O15 0.500000 0.202488 0.804049
O O16 0.335651 0.357366 0.500000
O O17 0.322439 0.500000 0.550222
O O18 0.153243 0.846758 0.250000
O O19 0.000000 0.828371 0.205597
#
# Coordination Sequence:
#
# PCOD9566478 Si02
#       7
#    16  16  16  16  16  16  16
#     4   9  17  31  53  79 105 137 176 217 265 316
#     4  10  21  37  58  79 102 137 181 227 272 314
#     4  11  21  34  53  76 105 141 179 219 263 315
#     4  11  21  35  53  72 102 141 180 224 270 317
#     4  11  20  33  54  77 104 137 178 223 269 315
#     4  10  20  33  49  72 105 143 181 221 264 315
#     4  12  23  37  53  72 105 144 181 220 264 315
#
# _framework density 17.304383000000001
#
# number of rings (size 3 to 8) (size 9 to 14) (size 15 to 20)
#    0.000    1.429    4.286    1.714    0.000    3.857 
#    0.000    4.286    0.000    5.143    0.000    0.000 
#    0.000    9.143    0.000   25.143    0.000    0.571 
#
# Total GULP energy -623987.428185 kJ/mol
# GULP energy per Si atom -5571.316323 kJ/mol
# Density = 1.726500 g / cm^3
# Si number density = 17.304383 Si / 1000 Ang^3
#
#
#
# Elastic Constant Matrix: (Units=GPa)
#
#
# Indices 1 2 3 4 5 6 
#
# 1 104.0133 35.8543 30.7279 0.0000 0.0000 0.0000
# 2 35.8543 104.0138 30.7281 0.0000 0.0000 0.0000
# 3 30.7279 30.7281 98.9610 0.0000 0.0000 0.0000
# 4 0.0000 0.0000 0.0000 7.1833 0.0000 0.0000
# 5 0.0000 0.0000 0.0000 0.0000 7.1833 0.0000
# 6 0.0000 0.0000 0.0000 0.0000 0.0000 6.5332
#
#
#
# Elastic Compliance Matrix: (Units=1/GPa)
#
#
# Indices 1 2 3 4 5 6 
#
# 1 0.011475 -0.003196 -0.002571 0.000000 0.000000 0.000000
# 2 -0.003196 0.011475 -0.002571 0.000000 0.000000 0.000000
# 3 -0.002571 -0.002571 0.011701 0.000000 0.000000 0.000000
# 4 0.000000 0.000000 0.000000 0.139211 0.000000 0.000000
# 5 0.000000 0.000000 0.000000 0.000000 0.139211 0.000000
# 6 0.000000 0.000000 0.000000 0.000000 0.000000 0.153064
#
#
# Mechanical properties :
#
#
# Convention : Reuss Voigt Hill
#
# Bulk Modulus (GPa) = 55.62714 55.73429 55.68071
# Shear Modulus (GPa) = 10.22901 18.15849 14.19375
#
# Velocity S-wave (km/s) = 2.43394 3.24289 2.86709
# Velocity P-wave (km/s) = 6.33362 6.80440 6.57323
#
# Compressibility (1/GPa) = 0.01797684
#
# Stress axis : x y z
#
# Youngs Moduli (GPa) = 87.14318 87.14353 85.45949
#
# Poissons Ratio (x) = 0.27853 0.21969
# Poissons Ratio (y) = 0.27853 0.21969
# Poissons Ratio (z) = 0.22402 0.22402
#
# Static dielectric constant tensor:
#      x y z
#    x 1.612480 0.000000 0.000000 
#    y 0.000000 1.612480 0.000000 
#    z 0.000000 0.000000 1.609110 
# 
# From -- ./inp_files/12421.got.cif
#   From: 2010.05.17/outbox.cif.g08.bks.cpg/sg131_7_cif.got.tgz:12421.got - 2010.05.20 12:21:01.
