data_PCOD9566640
_publ_section_title
;
Structure prediction by ZEFSAII (Michael W. Deem and Ramdas Pophale) SiO2 
 PCOD9566640
Probable space group: P 42/M M C
;
_chemical_formula_sum "Si O2"
_cell_formula_units_Z 34
_cell_length_a 7.559534
_cell_length_b 7.559534
_cell_length_c 32.272541
_cell_angle_alpha 90.000000
_cell_angle_beta 90.000000
_cell_angle_gamma 90.000000
_cell_volume 1844.264517
_symmetry_space_group_name_H-M "P 42/M M C"
_symmetry_group_IT_number 131
_symmetry_cell_setting 'tetragonal'
loop_
_space_group_symop_operation_xyz
x,y,z
-x,-y,z
-y,x,1/2+z
y,-x,1/2+z
-x,y,-z
x,-y,-z
y,x,1/2-z
-y,-x,1/2-z
-x,-y,-z
x,y,-z
y,-x,1/2-z
-y,x,1/2-z
x,-y,z
-x,y,z
-y,-x,1/2+z
y,x,1/2+z
loop_
_atom_site_type_symbol
_atom_site_label
_atom_site_fract_x
_atom_site_fract_y
_atom_site_fract_z
Si Si1 0.500000 0.500000 0.750000
Si Si2 0.000000 0.214591 0.546952
Si Si3 0.209258 0.706940 0.887286
Si Si4 0.204531 0.500000 0.319364
O O1 0.500000 0.331230 0.780008
O O2 0.170636 0.264053 0.574138
O O3 0.000000 0.281222 0.500000
O O4 0.000000 0.000000 0.544761
O O5 0.232217 0.500000 0.896622
O O6 0.329886 0.755508 0.848196
O O7 0.000000 0.738461 0.879094
O O8 0.000000 0.500000 0.307558
#
# Coordination Sequence:
#
# PCOD9566640 Si02
#       4
#     2   8  16   8
#     4  12  28  44  60  96 118 144 196 268 312 380
#     4   9  18  33  57  95 132 167 211 254 295 353
#     4  10  20  37  63  89 122 166 205 247 300 365
#     4  12  24  42  66  89 119 154 198 249 317 370
#
# _framework density 18.435535999999999
#
# number of rings (size 3 to 8) (size 9 to 14) (size 15 to 20)
#    0.000    1.647    4.706    0.000    0.000    2.824 
#    0.000    7.059    0.000    2.824    0.000    0.000 
#    0.000    0.000    0.000    0.000    0.000    0.000 
#
# Total GULP energy -189908.728860 kJ/mol
# GULP energy per Si atom -5585.550849 kJ/mol
# Density = 1.839358 g / cm^3
# Si number density = 18.435536 Si / 1000 Ang^3
#
#
#
# Elastic Constant Matrix: (Units=GPa)
#
#
# Indices 1 2 3 4 5 6 
#
# 1 132.5565 60.2398 87.0577 0.0000 0.0000 0.0000
# 2 60.2398 132.5565 87.0577 0.0000 0.0000 0.0000
# 3 87.0577 87.0577 190.3457 0.0000 0.0000 0.0000
# 4 0.0000 0.0000 0.0000 40.0720 0.0000 0.0000
# 5 0.0000 0.0000 0.0000 0.0000 40.0720 0.0000
# 6 0.0000 0.0000 0.0000 0.0000 0.0000 21.4478
#
#
#
# Elastic Compliance Matrix: (Units=1/GPa)
#
#
# Indices 1 2 3 4 5 6 
#
# 1 0.011332 -0.002496 -0.004042 0.000000 0.000000 0.000000
# 2 -0.002496 0.011332 -0.004042 0.000000 0.000000 0.000000
# 3 -0.004042 -0.004042 0.008951 0.000000 0.000000 0.000000
# 4 0.000000 0.000000 0.000000 0.024955 0.000000 0.000000
# 5 0.000000 0.000000 0.000000 0.000000 0.024955 0.000000
# 6 0.000000 0.000000 0.000000 0.000000 0.000000 0.046625
#
#
# Mechanical properties :
#
#
# Convention : Reuss Voigt Hill
#
# Bulk Modulus (GPa) = 95.62351 102.68543 99.15447
# Shear Modulus (GPa) = 32.72367 35.05859 33.89113
#
# Velocity S-wave (km/s) = 4.21768 4.36556 4.29226
# Velocity P-wave (km/s) = 8.70059 9.01285 8.85810
#
# Compressibility (1/GPa) = 0.01045768
#
# Stress axis : x y z
#
# Youngs Moduli (GPa) = 88.24195 88.24195 111.72346
#
# Poissons Ratio (x) = 0.22021 0.45155
# Poissons Ratio (y) = 0.22021 0.45155
# Poissons Ratio (z) = 0.35665 0.35665
#
# Static dielectric constant tensor:
#      x y z
#    x 1.642270 0.000000 0.000000 
#    y 0.000000 1.642270 0.000000 
#    z 0.000000 0.000000 1.587310 
# 
# From -- ./inp_files/8649.got.cif
#   From: 2010.05.17/outbox.cif.g08.bks.cpg/sg131_5_cif.got.tgz:8649.got - 2010.05.20 12:21:01.
