data_PCOD9566041
_publ_section_title
;
Structure prediction by ZEFSAII (Michael W. Deem and Ramdas Pophale) SiO2 
 PCOD9566041
Probable space group: P 42/M M C
;
_chemical_formula_sum "Si O2"
_cell_formula_units_Z 80
_cell_length_a 17.245424
_cell_length_b 17.245424
_cell_length_c 19.756844
_cell_angle_alpha 90.000000
_cell_angle_beta 90.000000
_cell_angle_gamma 90.000000
_cell_volume 5875.777254
_symmetry_space_group_name_H-M "P 42/M M C"
_symmetry_group_IT_number 131
_symmetry_cell_setting 'tetragonal'
loop_
_space_group_symop_operation_xyz
x,y,z
-x,-y,z
-y,x,1/2+z
y,-x,1/2+z
-x,y,-z
x,-y,-z
y,x,1/2-z
-y,-x,1/2-z
-x,-y,-z
x,y,-z
y,-x,1/2-z
-y,x,1/2-z
x,-y,z
-x,y,z
-y,-x,1/2+z
y,x,1/2+z
loop_
_atom_site_type_symbol
_atom_site_label
_atom_site_fract_x
_atom_site_fract_y
_atom_site_fract_z
Si Si1 0.091720 0.300979 0.578666
Si Si2 0.906176 0.500000 0.923198
Si Si3 0.656625 0.905797 0.343465
Si Si4 0.912362 0.000000 0.582036
Si Si5 0.853453 0.191884 0.919233
Si Si6 0.588519 0.906205 0.799497
O O1 0.099887 0.324247 0.500000
O O2 0.145432 0.226300 0.590471
O O3 0.113272 0.368420 0.630931
O O4 0.000000 0.281461 0.588846
O O5 0.885204 0.421719 0.884095
O O6 0.000000 0.500000 0.925156
O O7 0.877287 0.500000 0.000000
O O8 0.729934 0.864188 0.376833
O O9 0.639563 0.884326 0.265694
O O10 0.667553 0.000000 0.348184
O O11 0.865135 0.923598 0.600966
O O12 0.916391 0.000000 0.500000
O O13 0.000000 0.000000 0.608059
O O14 0.861279 0.208867 0.000000
O O15 0.500000 0.877242 0.795137
O O16 0.583904 0.000000 0.796799
#
# Coordination Sequence:
#
# PCOD9566041 Si02
#       6
#    16   8  16   8  16  16
#     4   9  18  31  45  62  83 110 147 191 228 256
#     4   9  16  24  38  58  83 111 140 178 217 256
#     4  10  17  27  41  61  85 113 145 180 220 269
#     4   9  16  26  40  57  81 117 158 194 221 245
#     4  10  18  27  41  62  87 116 152 188 218 253
#     4   9  17  30  46  62  80 105 139 181 229 275
#
# _framework density 13.615220000000001
#
# number of rings (size 3 to 8) (size 9 to 14) (size 15 to 20)
#    0.000    2.600    2.000    1.200    0.000    4.400 
#    0.000    2.000    0.000    0.000    0.000    0.000 
#    0.000    0.000    0.000    0.900    2.600   10.000 
#
# Total GULP energy -445504.916367 kJ/mol
# GULP energy per Si atom -5568.811455 kJ/mol
# Density = 1.358423 g / cm^3
# Si number density = 13.615220 Si / 1000 Ang^3
#
#
#
# Elastic Constant Matrix: (Units=GPa)
#
#
# Indices 1 2 3 4 5 6 
#
# 1 74.3133 28.7773 46.5377 0.0000 0.0000 0.0000
# 2 28.7773 74.3133 46.5377 0.0000 0.0000 0.0000
# 3 46.5377 46.5377 87.9117 0.0000 0.0000 0.0000
# 4 0.0000 0.0000 0.0000 16.2114 0.0000 0.0000
# 5 0.0000 0.0000 0.0000 0.0000 16.2114 0.0000
# 6 0.0000 0.0000 0.0000 0.0000 0.0000 5.1869
#
#
#
# Elastic Compliance Matrix: (Units=1/GPa)
#
#
# Indices 1 2 3 4 5 6 
#
# 1 0.020271 -0.001690 -0.009836 0.000000 0.000000 0.000000
# 2 -0.001690 0.020271 -0.009836 0.000000 0.000000 0.000000
# 3 -0.009836 -0.009836 0.021789 0.000000 0.000000 0.000000
# 4 0.000000 0.000000 0.000000 0.061685 0.000000 0.000000
# 5 0.000000 0.000000 0.000000 0.000000 0.061685 0.000000
# 6 0.000000 0.000000 0.000000 0.000000 0.000000 0.192794
#
#
# Mechanical properties :
#
#
# Convention : Reuss Voigt Hill
#
# Bulk Modulus (GPa) = 51.00465 53.36040 52.18252
# Shear Modulus (GPa) = 11.68898 15.16765 13.42831
#
# Velocity S-wave (km/s) = 2.93323 3.34132 3.14390
# Velocity P-wave (km/s) = 7.00105 7.35953 7.18252
#
# Compressibility (1/GPa) = 0.01960606
#
# Stress axis : x y z
#
# Youngs Moduli (GPa) = 49.33239 49.33239 45.89512
#
# Poissons Ratio (x) = 0.08337 0.45143
# Poissons Ratio (y) = 0.08337 0.45143
# Poissons Ratio (z) = 0.48523 0.48523
#
# Static dielectric constant tensor:
#      x y z
#    x 1.427480 0.000000 0.000000 
#    y 0.000000 1.427480 0.000000 
#    z 0.000000 0.000000 1.465920 
# 
# From -- ./inp_files/7856.got.cif
#   From: 2010.05.17/outbox.cif.g08.bks.cpg/sg131_4_cif.got.tgz:7856.got - 2010.05.20 12:21:01.
