data_PCOD9566408
_publ_section_title
;
Structure prediction by ZEFSAII (Michael W. Deem and Ramdas Pophale) SiO2 
 PCOD9566408
Probable space group: P 42/M M C
;
_chemical_formula_sum "Si O2"
_cell_formula_units_Z 96
_cell_length_a 15.430849
_cell_length_b 15.430849
_cell_length_c 23.461444
_cell_angle_alpha 90.000000
_cell_angle_beta 90.000000
_cell_angle_gamma 90.000000
_cell_volume 5586.430259
_symmetry_space_group_name_H-M "P 42/M M C"
_symmetry_group_IT_number 131
_symmetry_cell_setting 'tetragonal'
loop_
_space_group_symop_operation_xyz
x,y,z
-x,-y,z
-y,x,1/2+z
y,-x,1/2+z
-x,y,-z
x,-y,-z
y,x,1/2-z
-y,-x,1/2-z
-x,-y,-z
x,y,-z
y,-x,1/2-z
-y,x,1/2-z
x,-y,z
-x,y,z
-y,-x,1/2+z
y,x,1/2+z
loop_
_atom_site_type_symbol
_atom_site_label
_atom_site_fract_x
_atom_site_fract_y
_atom_site_fract_z
Si Si1 0.401535 0.000000 0.567554
Si Si2 0.319744 0.643148 0.152564
Si Si3 0.101577 0.906386 0.931558
Si Si4 0.900578 0.244288 0.754313
Si Si5 0.275949 0.143318 0.616889
Si Si6 0.595835 0.221224 0.769545
Si Si7 0.500000 0.395761 0.567709
O O1 0.345667 0.083944 0.584773
O O2 0.500000 0.000000 0.591721
O O3 0.408355 0.000000 0.500000
O O4 0.240833 0.692450 0.122766
O O5 0.388016 0.709043 0.180659
O O6 0.272838 0.601740 0.208926
O O7 0.360993 0.580169 0.105825
O O8 0.143458 0.819368 0.909542
O O9 0.000000 0.902048 0.915514
O O10 0.135901 0.000000 0.911322
O O11 0.105249 0.906202 0.000000
O O12 0.843000 0.157001 0.750000
O O13 0.898779 0.267346 0.820938
O O14 0.846339 0.324240 0.727198
O O15 0.000000 0.235878 0.734696
O O16 0.500000 0.181878 0.773351
O O17 0.500000 0.500000 0.568136
O O18 0.500000 0.368949 0.500000
#
# Coordination Sequence:
#
# PCOD9566408 Si02
#       7
#     8  16  16  16  16  16   8
#     4  11  24  36  53  85 119 161 206 234 281 364
#     4  10  21  37  57  86 112 148 195 239 293 355
#     4   9  17  30  50  75 101 138 190 239 281 325
#     4  11  22  38  56  84 119 154 197 240 298 360
#     4  11  20  36  55  75 116 152 189 245 289 339
#     4  10  19  38  63  85 111 146 196 257 298 340
#     4  11  24  40  58  87 125 155 185 236 304 371
#
# _framework density 17.184498999999999
#
# number of rings (size 3 to 8) (size 9 to 14) (size 15 to 20)
#    0.000    1.667    5.833    1.500    1.167    3.167 
#    0.000    0.000    0.000    0.000    0.000    0.000 
#    0.000    0.000    0.000    8.833    0.000    0.000 
#
# Total GULP energy -534935.594148 kJ/mol
# GULP energy per Si atom -5572.245772 kJ/mol
# Density = 1.714539 g / cm^3
# Si number density = 17.184499 Si / 1000 Ang^3
#
#
#
# Elastic Constant Matrix: (Units=GPa)
#
#
# Indices 1 2 3 4 5 6 
#
# 1 128.4662 59.1739 41.8812 0.0000 0.0000 0.0000
# 2 59.1739 128.4669 41.8807 0.0000 0.0000 0.0000
# 3 41.8812 41.8807 76.8136 0.0000 0.0000 0.0000
# 4 0.0000 0.0000 0.0000 28.0096 0.0000 0.0000
# 5 0.0000 0.0000 0.0000 0.0000 28.0083 0.0000
# 6 0.0000 0.0000 0.0000 0.0000 0.0000 14.0121
#
#
#
# Elastic Compliance Matrix: (Units=1/GPa)
#
#
# Indices 1 2 3 4 5 6 
#
# 1 0.010738 -0.003694 -0.003840 0.000000 0.000000 0.000000
# 2 -0.003694 0.010738 -0.003840 0.000000 0.000000 0.000000
# 3 -0.003840 -0.003840 0.017206 0.000000 0.000000 0.000000
# 4 0.000000 0.000000 0.000000 0.035702 0.000000 0.000000
# 5 0.000000 0.000000 0.000000 0.000000 0.035704 0.000000
# 6 0.000000 0.000000 0.000000 0.000000 0.000000 0.071367
#
#
# Mechanical properties :
#
#
# Convention : Reuss Voigt Hill
#
# Bulk Modulus (GPa) = 62.76661 68.84649 65.80655
# Shear Modulus (GPa) = 23.86470 26.72672 25.29571
#
# Velocity S-wave (km/s) = 3.73062 3.94798 3.84084
# Velocity P-wave (km/s) = 7.42705 7.80591 7.61883
#
# Compressibility (1/GPa) = 0.01593204
#
# Stress axis : x y z
#
# Youngs Moduli (GPa) = 93.12999 93.13109 58.11818
#
# Poissons Ratio (x) = 0.34402 0.22320
# Poissons Ratio (y) = 0.34402 0.22319
# Poissons Ratio (z) = 0.35767 0.35765
#
# Static dielectric constant tensor:
#      x y z
#    x 1.642200 0.000000 0.000000 
#    y 0.000000 1.642230 0.000000 
#    z 0.000000 0.000000 1.589160 
# 
# From -- ./inp_files/11211.got.cif
#   From: 2010.05.17/outbox.cif.g08.bks.cpg/sg131_6_cif.got.tgz:11211.got - 2010.05.20 12:21:01.
