data_PCOD9566130
_publ_section_title
;
Structure prediction by ZEFSAII (Michael W. Deem and Ramdas Pophale) SiO2 
 PCOD9566130
Probable space group: P 42/M M C
;
_chemical_formula_sum "Si O2"
_cell_formula_units_Z 96
_cell_length_a 21.811158
_cell_length_b 21.811158
_cell_length_c 13.326310
_cell_angle_alpha 90.000000
_cell_angle_beta 90.000000
_cell_angle_gamma 90.000000
_cell_volume 6339.680324
_symmetry_space_group_name_H-M "P 42/M M C"
_symmetry_group_IT_number 131
_symmetry_cell_setting 'tetragonal'
loop_
_space_group_symop_operation_xyz
x,y,z
-x,-y,z
-y,x,1/2+z
y,-x,1/2+z
-x,y,-z
x,-y,-z
y,x,1/2-z
-y,-x,1/2-z
-x,-y,-z
x,y,-z
y,-x,1/2-z
-y,x,1/2-z
x,-y,z
-x,y,z
-y,-x,1/2+z
y,x,1/2+z
loop_
_atom_site_type_symbol
_atom_site_label
_atom_site_fract_x
_atom_site_fract_y
_atom_site_fract_z
Si Si1 0.681581 0.069625 0.118984
Si Si2 0.568243 0.302380 0.680914
Si Si3 0.194412 0.716548 0.290081
Si Si4 0.178405 0.618269 0.885899
Si Si5 0.431424 0.929802 0.266339
Si Si6 0.696461 0.635514 0.616529
O O1 0.719309 0.129268 0.154251
O O2 0.617066 0.077264 0.176651
O O3 0.704279 0.000000 0.143601
O O4 0.673475 0.072358 0.000000
O O5 0.500000 0.328225 0.663218
O O6 0.572995 0.234934 0.634147
O O7 0.582208 0.297466 0.800242
O O8 0.628018 0.336976 0.635598
O O9 0.219356 0.780645 0.250000
O O10 0.186744 0.673227 0.192905
O O11 0.249671 0.684411 0.354404
O O12 0.115672 0.585866 0.855181
O O13 0.179322 0.639343 0.000000
O O14 0.500000 0.916637 0.230430
O O15 0.428338 0.000000 0.300226
O O16 0.702717 0.618603 0.500000
#
# Coordination Sequence:
#
# PCOD9566130 Si02
#       6
#    16  16  16  16  16  16
#     4   9  18  31  48  70  96 126 159 200 245 284
#     4  10  20  32  46  69  93 113 145 196 243 286
#     4  10  18  32  49  71  94 123 157 201 237 283
#     4  10  19  30  44  63  88 118 154 194 238 282
#     4   9  18  30  42  60  89 125 165 200 229 271
#     4  10  19  33  50  69  90 119 155 191 238 294
#
# _framework density 15.142719
#
# number of rings (size 3 to 8) (size 9 to 14) (size 15 to 20)
#    0.000    2.333    3.333    1.500    0.000    4.000 
#    0.000    2.500    0.000   10.000    0.000    4.667 
#    0.000    0.333    0.000    1.833    0.000    0.000 
#
# Total GULP energy -534442.944012 kJ/mol
# GULP energy per Si atom -5567.114000 kJ/mol
# Density = 1.510825 g / cm^3
# Si number density = 15.142719 Si / 1000 Ang^3
#
#
#
# Elastic Constant Matrix: (Units=GPa)
#
#
# Indices 1 2 3 4 5 6 
#
# 1 75.6410 18.1787 17.8911 0.0000 0.0000 0.0000
# 2 18.1787 75.6408 17.8923 0.0000 0.0000 0.0000
# 3 17.8911 17.8923 81.0017 0.0000 0.0000 0.0000
# 4 0.0000 0.0000 0.0000 7.2190 0.0000 0.0000
# 5 0.0000 0.0000 0.0000 0.0000 7.2183 0.0000
# 6 0.0000 0.0000 0.0000 0.0000 0.0000 15.6927
#
#
#
# Elastic Compliance Matrix: (Units=1/GPa)
#
#
# Indices 1 2 3 4 5 6 
#
# 1 0.014521 -0.002882 -0.002571 0.000000 0.000000 0.000000
# 2 -0.002882 0.014521 -0.002571 0.000000 0.000000 0.000000
# 3 -0.002571 -0.002571 0.013481 0.000000 0.000000 0.000000
# 4 0.000000 0.000000 0.000000 0.138523 0.000000 0.000000
# 5 0.000000 0.000000 0.000000 0.000000 0.138537 0.000000
# 6 0.000000 0.000000 0.000000 0.000000 0.000000 0.063724
#
#
# Mechanical properties :
#
#
# Convention : Reuss Voigt Hill
#
# Bulk Modulus (GPa) = 37.76982 37.80086 37.78534
# Shear Modulus (GPa) = 12.24952 17.91410 15.08181
#
# Velocity S-wave (km/s) = 2.84727 3.44323 3.15934
# Velocity P-wave (km/s) = 5.98381 6.38945 6.18995
#
# Compressibility (1/GPa) = 0.02647617
#
# Stress axis : x y z
#
# Youngs Moduli (GPa) = 68.86601 68.86527 74.17765
#
# Poissons Ratio (x) = 0.19845 0.19069
# Poissons Ratio (y) = 0.19845 0.19071
# Poissons Ratio (z) = 0.17704 0.17706
#
# Static dielectric constant tensor:
#      x y z
#    x 1.521480 0.000000 0.000000 
#    y 0.000000 1.521490 0.000000 
#    z 0.000000 0.000000 1.501930 
# 
# From -- ./inp_files/4304.got.cif
#   From: 2010.05.17/outbox.cif.g08.bks.cpg/sg131_3_cif.got.tgz:4304.got - 2010.05.20 12:21:01.
