data_PCOD9566570
_publ_section_title
;
Structure prediction by ZEFSAII (Michael W. Deem and Ramdas Pophale) SiO2 
 PCOD9566570
Probable space group: P 42/M M C
;
_chemical_formula_sum "Si O2"
_cell_formula_units_Z 72
_cell_length_a 21.036456
_cell_length_b 21.036456
_cell_length_c 8.923605
_cell_angle_alpha 90.000000
_cell_angle_beta 90.000000
_cell_angle_gamma 90.000000
_cell_volume 3948.985060
_symmetry_space_group_name_H-M "P 42/M M C"
_symmetry_group_IT_number 131
_symmetry_cell_setting 'tetragonal'
loop_
_space_group_symop_operation_xyz
x,y,z
-x,-y,z
-y,x,1/2+z
y,-x,1/2+z
-x,y,-z
x,-y,-z
y,x,1/2-z
-y,-x,1/2-z
-x,-y,-z
x,y,-z
y,-x,1/2-z
-y,x,1/2-z
x,-y,z
-x,y,z
-y,-x,1/2+z
y,x,1/2+z
loop_
_atom_site_type_symbol
_atom_site_label
_atom_site_fract_x
_atom_site_fract_y
_atom_site_fract_z
Si Si1 0.500000 0.924424 0.320068
Si Si2 0.831284 0.072718 0.321018
Si Si3 0.427282 0.673142 0.819069
Si Si4 0.739848 0.168007 0.826143
Si Si5 0.178959 0.409842 0.675395
O O1 0.500000 0.925004 0.500000
O O2 0.442339 0.879917 0.260604
O O3 0.500000 0.000000 0.272155
O O4 0.890158 0.109843 0.250000
O O5 0.833681 0.076933 0.500000
O O6 0.769661 0.108625 0.259562
O O7 0.831273 0.000000 0.275321
O O8 0.373500 0.626501 0.750000
O O9 0.500000 0.652028 0.784260
O O10 0.422965 0.748116 0.772437
O O11 0.419446 0.672465 0.000000
O O12 0.770293 0.229708 0.750000
O O13 0.665101 0.169965 0.816395
O O14 0.759483 0.165777 0.000000
O O15 0.176117 0.428850 0.500000
#
# Coordination Sequence:
#
# PCOD9566570 Si02
#       5
#     8  16  16  16  16
#     4  11  25  41  59  87 118 149 190 241 291 342
#     4  10  21  36  54  77 108 145 183 230 285 340
#     4  10  21  38  60  86 120 158 199 247 295 349
#     4  10  20  34  57  85 112 145 185 232 282 335
#     4  10  21  40  62  84 115 154 195 238 287 347
#
# _framework density 18.232533
#
# number of rings (size 3 to 8) (size 9 to 14) (size 15 to 20)
#    0.000    1.889    1.111    3.667    0.000    7.111 
#    0.000    6.667    0.000    0.000    0.000    0.000 
#    0.000    0.000    0.000    0.000    0.000    0.000 
#
# Total GULP energy -401505.212277 kJ/mol
# GULP energy per Si atom -5576.461282 kJ/mol
# Density = 1.819104 g / cm^3
# Si number density = 18.232533 Si / 1000 Ang^3
#
#
#
# Elastic Constant Matrix: (Units=GPa)
#
#
# Indices 1 2 3 4 5 6 
#
# 1 153.1261 63.7234 40.5252 0.0000 0.0000 0.0000
# 2 63.7234 153.1182 40.5238 0.0000 0.0000 0.0000
# 3 40.5252 40.5238 56.9922 0.0000 0.0000 0.0000
# 4 0.0000 0.0000 0.0000 36.4875 0.0000 0.0000
# 5 0.0000 0.0000 0.0000 0.0000 36.4892 0.0000
# 6 0.0000 0.0000 0.0000 0.0000 0.0000 634.7238
#
#
#
# Elastic Compliance Matrix: (Units=1/GPa)
#
#
# Indices 1 2 3 4 5 6 
#
# 1 0.008733 -0.002453 -0.004466 0.000000 0.000000 0.000000
# 2 -0.002453 0.008734 -0.004466 0.000000 0.000000 0.000000
# 3 -0.004466 -0.004466 0.023897 0.000000 0.000000 0.000000
# 4 0.000000 0.000000 0.000000 0.027407 0.000000 0.000000
# 5 0.000000 0.000000 0.000000 0.000000 0.027405 0.000000
# 6 0.000000 0.000000 0.000000 0.000000 0.000000 0.001575
#
#
# Mechanical properties :
#
#
# Convention : Reuss Voigt Hill
#
# Bulk Modulus (GPa) = 53.77783 72.53124 63.15453
# Shear Modulus (GPa) = 39.45746 156.10439 97.78093
#
# Velocity S-wave (km/s) = 4.65706 9.26307 7.33119
# Velocity P-wave (km/s) = 7.64704 12.42069 10.31384
#
# Compressibility (1/GPa) = 0.01859502
#
# Stress axis : x y z
#
# Youngs Moduli (GPa) = 114.50675 114.50136 41.84567
#
# Poissons Ratio (x) = 0.28082 0.18688
# Poissons Ratio (y) = 0.28083 0.18688
# Poissons Ratio (z) = 0.51138 0.51136
#
# Static dielectric constant tensor:
#      x y z
#    x 1.622280 0.000000 0.000000 
#    y 0.000000 1.622280 0.000000 
#    z 0.000000 0.000000 1.625300 
# 
# From -- ./inp_files/1794.got.cif
#   From: 2010.05.17/outbox.cif.g08.bks.cpg/sg131_1_cif.got.tgz:1794.got - 2010.05.20 12:21:01.
