data_PCOD9566662
_publ_section_title
;
Structure prediction by ZEFSAII (Michael W. Deem and Ramdas Pophale) SiO2 
 PCOD9566662
Probable space group: P 42/M M C
;
_chemical_formula_sum "Si O2"
_cell_formula_units_Z 72
_cell_length_a 15.876396
_cell_length_b 15.876396
_cell_length_c 19.605797
_cell_angle_alpha 90.000000
_cell_angle_beta 90.000000
_cell_angle_gamma 90.000000
_cell_volume 4941.836211
_symmetry_space_group_name_H-M "P 42/M M C"
_symmetry_group_IT_number 131
_symmetry_cell_setting 'tetragonal'
loop_
_space_group_symop_operation_xyz
x,y,z
-x,-y,z
-y,x,1/2+z
y,-x,1/2+z
-x,y,-z
x,-y,-z
y,x,1/2-z
-y,-x,1/2-z
-x,-y,-z
x,y,-z
y,-x,1/2-z
-y,x,1/2-z
x,-y,z
-x,y,z
-y,-x,1/2+z
y,x,1/2+z
loop_
_atom_site_type_symbol
_atom_site_label
_atom_site_fract_x
_atom_site_fract_y
_atom_site_fract_z
Si Si1 0.897291 0.406717 0.161312
Si Si2 0.500000 0.897086 0.078567
Si Si3 0.898550 0.638013 0.313595
Si Si4 0.900439 0.836496 0.322796
Si Si5 0.898561 0.757179 0.922331
O O1 0.872426 0.500000 0.136927
O O2 0.869379 0.394438 0.239719
O O3 0.868989 0.327571 0.116266
O O4 0.000000 0.404663 0.161402
O O5 0.581169 0.869807 0.122990
O O6 0.500000 0.000000 0.076733
O O7 0.500000 0.868794 0.000000
O O8 0.881473 0.736816 0.319435
O O9 0.000000 0.629320 0.312492
O O10 0.877576 0.877576 0.250000
O O11 0.839626 0.874429 0.379800
O O12 0.000000 0.847898 0.336387
O O13 0.000000 0.753051 0.923798
O O14 0.867786 0.760628 0.000000
#
# Coordination Sequence:
#
# PCOD9566662 Si02
#       5
#    16   8  16  16  16
#     4   9  15  27  48  67  83 105 138 183 237 289
#     4   9  16  26  42  66  91 109 134 180 234 289
#     4   9  16  27  44  64  84 111 146 185 228 274
#     4  11  21  32  47  64  86 122 168 205 232 267
#     4  10  21  34  45  62  88 116 153 201 241 272
#
# _framework density 14.569482000000001
#
# number of rings (size 3 to 8) (size 9 to 14) (size 15 to 20)
#    0.000    2.333    3.333    0.667    0.000    3.333 
#    0.000    5.556    0.000    0.000    0.000    0.000 
#    0.000    0.000    0.000    1.000    7.333    4.444 
#
# Total GULP energy -400941.638110 kJ/mol
# GULP energy per Si atom -5568.633863 kJ/mol
# Density = 1.453632 g / cm^3
# Si number density = 14.569482 Si / 1000 Ang^3
#
#
#
# Elastic Constant Matrix: (Units=GPa)
#
#
# Indices 1 2 3 4 5 6 
#
# 1 64.3344 19.3670 43.9001 0.0000 0.0000 0.0000
# 2 19.3670 64.3344 43.9001 0.0000 0.0000 0.0000
# 3 43.9001 43.9001 131.3660 0.0000 0.0000 0.0000
# 4 0.0000 0.0000 0.0000 16.6445 0.0000 0.0000
# 5 0.0000 0.0000 0.0000 0.0000 16.6445 0.0000
# 6 0.0000 0.0000 0.0000 0.0000 0.0000 -1.8058
#
#
#
# Elastic Compliance Matrix: (Units=1/GPa)
#
#
# Indices 1 2 3 4 5 6 
#
# 1 0.020317 -0.001921 -0.006148 0.000000 0.000000 0.000000
# 2 -0.001921 0.020317 -0.006148 0.000000 0.000000 0.000000
# 3 -0.006148 -0.006148 0.011721 0.000000 0.000000 0.000000
# 4 0.000000 0.000000 0.000000 0.060080 0.000000 0.000000
# 5 0.000000 0.000000 0.000000 0.000000 0.060080 0.000000
# 6 0.000000 0.000000 0.000000 0.000000 0.000000 -0.553769
#
#
# Mechanical properties :
#
#
# Convention : Reuss Voigt Hill
#
# Bulk Modulus (GPa) = 41.80152 52.70771 47.25461
# Shear Modulus (GPa) = -14.49918 16.48782 0.99432
#
# Velocity S-wave (km/s) = -3.15806 3.36768 0.82701
# Velocity P-wave (km/s) = 3.93136 7.16777 5.78068
#
# Compressibility (1/GPa) = 0.02392258
#
# Stress axis : x y z
#
# Youngs Moduli (GPa) = 49.21969 49.21969 85.31608
#
# Poissons Ratio (x) = 0.09456 0.52449
# Poissons Ratio (y) = 0.09456 0.52449
# Poissons Ratio (z) = 0.30258 0.30258
#
# Static dielectric constant tensor:
#      x y z
#    x 1.481240 0.000000 0.000000 
#    y 0.000000 1.481240 0.000000 
#    z 0.000000 0.000000 1.496040 
# 
# From -- ./inp_files/7511.got.cif
#   From: 2010.05.17/outbox.cif.g08.bks.cpg/sg131_4_cif.got.tgz:7511.got - 2010.05.20 12:21:01.
