data_PCOD9566735
_publ_section_title
;
Structure prediction by ZEFSAII (Michael W. Deem and Ramdas Pophale) SiO2 
 PCOD9566735
Probable space group: P 42/M M C
;
_chemical_formula_sum "Si O2"
_cell_formula_units_Z 48
_cell_length_a 7.805331
_cell_length_b 7.805331
_cell_length_c 39.716959
_cell_angle_alpha 90.000000
_cell_angle_beta 90.000000
_cell_angle_gamma 90.000000
_cell_volume 2419.683920
_symmetry_space_group_name_H-M "P 42/M M C"
_symmetry_group_IT_number 131
_symmetry_cell_setting 'tetragonal'
loop_
_space_group_symop_operation_xyz
x,y,z
-x,-y,z
-y,x,1/2+z
y,-x,1/2+z
-x,y,-z
x,-y,-z
y,x,1/2-z
-y,-x,1/2-z
-x,-y,-z
x,y,-z
y,-x,1/2-z
-y,x,1/2-z
x,-y,z
-x,y,z
-y,-x,1/2+z
y,x,1/2+z
loop_
_atom_site_type_symbol
_atom_site_label
_atom_site_fract_x
_atom_site_fract_y
_atom_site_fract_z
Si Si1 0.796456 0.796456 0.750000
Si Si2 0.804653 0.702320 0.073262
Si Si3 0.500000 0.792398 0.801716
Si Si4 0.500000 0.797957 0.122660
Si Si5 0.203778 0.195464 0.500000
O O1 0.670903 0.747976 0.780711
O O2 0.000000 0.772411 0.757448
O O3 0.820382 0.500000 0.075385
O O4 0.670014 0.755281 0.101494
O O5 0.000000 0.776025 0.076143
O O6 0.731725 0.743187 0.035992
O O7 0.500000 0.722602 0.839659
O O8 0.500000 0.000000 0.803163
O O9 0.500000 0.000000 0.126589
O O10 0.000000 0.189609 0.500000
O O11 0.274302 0.000000 0.500000
#
# Coordination Sequence:
#
# PCOD9566735 Si02
#       5
#     8  16   8   8   8
#     4   9  18  37  62  86 116 149 186 237 290 346
#     4  10  21  38  57  81 117 157 195 241 295 349
#     4   9  20  38  59  87 113 145 191 229 280 347
#     4  11  23  38  58  85 119 151 190 242 289 347
#     4   9  17  32  57  84 108 145 201 250 291 344
#
# _framework density 19.837299999999999
#
# number of rings (size 3 to 8) (size 9 to 14) (size 15 to 20)
#    0.000    2.333    0.000    2.000    0.000    6.333 
#    6.000    6.667    0.000    0.000    0.000    0.000 
#    0.000    0.000    0.000    0.000    0.000    0.000 
#
# Total GULP energy -267615.458787 kJ/mol
# GULP energy per Si atom -5575.322058 kJ/mol
# Density = 1.979215 g / cm^3
# Si number density = 19.837300 Si / 1000 Ang^3
#
#
#
# Elastic Constant Matrix: (Units=GPa)
#
#
# Indices 1 2 3 4 5 6 
#
# 1 84.6815 31.1921 68.2459 0.0000 0.0000 0.0000
# 2 31.1921 84.6815 68.2459 0.0000 0.0000 0.0000
# 3 68.2459 68.2459 216.1780 0.0000 0.0000 0.0000
# 4 0.0000 0.0000 0.0000 261.3657 0.0000 0.0000
# 5 0.0000 0.0000 0.0000 0.0000 261.3657 0.0000
# 6 0.0000 0.0000 0.0000 0.0000 0.0000 22.0230
#
#
#
# Elastic Compliance Matrix: (Units=1/GPa)
#
#
# Indices 1 2 3 4 5 6 
#
# 1 0.016217 -0.002478 -0.004337 0.000000 0.000000 0.000000
# 2 -0.002478 0.016217 -0.004337 0.000000 0.000000 0.000000
# 3 -0.004337 -0.004337 0.007364 0.000000 0.000000 0.000000
# 4 0.000000 0.000000 0.000000 0.003826 0.000000 0.000000
# 5 0.000000 0.000000 0.000000 0.000000 0.003826 0.000000
# 6 0.000000 0.000000 0.000000 0.000000 0.000000 0.045407
#
#
# Mechanical properties :
#
#
# Convention : Reuss Voigt Hill
#
# Bulk Modulus (GPa) = 57.16453 80.10099 68.63276
# Shear Modulus (GPa) = 41.32407 123.47468 82.39937
#
# Velocity S-wave (km/s) = 4.56911 7.89803 6.45196
# Velocity P-wave (km/s) = 7.53093 11.11928 9.49614
#
# Compressibility (1/GPa) = 0.01749337
#
# Stress axis : x y z
#
# Youngs Moduli (GPa) = 61.66260 61.66260 135.78853
#
# Poissons Ratio (x) = 0.15280 0.58897
# Poissons Ratio (y) = 0.15280 0.58897
# Poissons Ratio (z) = 0.26746 0.26746
#
# Static dielectric constant tensor:
#      x y z
#    x 1.663030 0.000000 0.000000 
#    y 0.000000 1.663030 0.000000 
#    z 0.000000 0.000000 1.739300 
# 
# From -- ./inp_files/12983.got.cif
#   From: 2010.05.17/outbox.cif.g08.bks.cpg/sg131_7_cif.got.tgz:12983.got - 2010.05.20 12:21:01.
