data_PCOD9566495
_publ_section_title
;
Structure prediction by ZEFSAII (Michael W. Deem and Ramdas Pophale) SiO2 
 PCOD9566495
Probable space group: P 42/M M C
;
_chemical_formula_sum "Si O2"
_cell_formula_units_Z 88
_cell_length_a 18.587486
_cell_length_b 18.587486
_cell_length_c 14.436904
_cell_angle_alpha 90.000000
_cell_angle_beta 90.000000
_cell_angle_gamma 90.000000
_cell_volume 4987.872890
_symmetry_space_group_name_H-M "P 42/M M C"
_symmetry_group_IT_number 131
_symmetry_cell_setting 'tetragonal'
loop_
_space_group_symop_operation_xyz
x,y,z
-x,-y,z
-y,x,1/2+z
y,-x,1/2+z
-x,y,-z
x,-y,-z
y,x,1/2-z
-y,-x,1/2-z
-x,-y,-z
x,y,-z
y,-x,1/2-z
-y,x,1/2-z
x,-y,z
-x,y,z
-y,-x,1/2+z
y,x,1/2+z
loop_
_atom_site_type_symbol
_atom_site_label
_atom_site_fract_x
_atom_site_fract_y
_atom_site_fract_z
Si Si1 0.081328 0.713900 0.613304
Si Si2 0.143765 0.167369 0.113263
Si Si3 0.000000 0.915604 0.113218
Si Si4 0.580741 0.300871 0.268628
Si Si5 0.303323 0.775236 0.605616
Si Si6 0.626688 0.788290 0.895330
O O1 0.081597 0.714205 0.500000
O O2 0.116780 0.789556 0.641215
O O3 0.132681 0.647917 0.639997
O O4 0.000000 0.707831 0.645547
O O5 0.070426 0.129049 0.142560
O O6 0.162985 0.249200 0.142729
O O7 0.143544 0.170160 0.000000
O O8 0.000000 0.000000 0.141212
O O9 0.000000 0.916638 0.000000
O O10 0.626608 0.373393 0.250000
O O11 0.500000 0.314352 0.302787
O O12 0.628952 0.249711 0.334645
O O13 0.578898 0.257619 0.172604
O O14 0.324283 0.792303 0.500000
O O15 0.252804 0.704003 0.602636
O O16 0.599320 0.791685 0.000000
#
# Coordination Sequence:
#
# PCOD9566495 Si02
#       6
#    16  16   8  16  16  16
#     4   8  12  20  38  63  90 119 151 188 227 270
#     4   8  13  21  35  59  92 127 161 197 235 277
#     4   9  14  18  30  60 101 135 162 199 247 291
#     4  10  20  33  51  73  95 119 148 186 235 291
#     4   8  15  29  47  66  90 122 163 202 227 263
#     4   8  15  28  46  69  95 121 150 184 226 281
#
# _framework density 17.642790999999999
#
# number of rings (size 3 to 8) (size 9 to 14) (size 15 to 20)
#    0.000    3.545    0.000    2.727    0.000    3.091 
#    0.000    0.000    2.000    0.545    0.000    7.636 
#    0.000    3.636    0.000    0.000    0.000    0.182 
#
# Total GULP energy -490004.971901 kJ/mol
# GULP energy per Si atom -5568.238317 kJ/mol
# Density = 1.760264 g / cm^3
# Si number density = 17.642791 Si / 1000 Ang^3
#
#
#
# Elastic Constant Matrix: (Units=GPa)
#
#
# Indices 1 2 3 4 5 6 
#
# 1 111.9467 59.0052 27.7079 0.0000 0.0000 0.0000
# 2 59.0052 111.9463 27.7080 0.0000 0.0000 0.0000
# 3 27.7079 27.7080 45.5607 0.0000 0.0000 0.0000
# 4 0.0000 0.0000 0.0000 10.8446 0.0000 0.0000
# 5 0.0000 0.0000 0.0000 0.0000 10.8450 0.0000
# 6 0.0000 0.0000 0.0000 0.0000 0.0000 10.1374
#
#
#
# Elastic Compliance Matrix: (Units=1/GPa)
#
#
# Indices 1 2 3 4 5 6 
#
# 1 0.013087 -0.005801 -0.004431 0.000000 0.000000 0.000000
# 2 -0.005801 0.013087 -0.004431 0.000000 0.000000 0.000000
# 3 -0.004431 -0.004431 0.027338 0.000000 0.000000 0.000000
# 4 0.000000 0.000000 0.000000 0.092211 0.000000 0.000000
# 5 0.000000 0.000000 0.000000 0.000000 0.092208 0.000000
# 6 0.000000 0.000000 0.000000 0.000000 0.000000 0.098645
#
#
# Mechanical properties :
#
#
# Convention : Reuss Voigt Hill
#
# Bulk Modulus (GPa) = 41.34596 55.36619 48.35608
# Shear Modulus (GPa) = 13.37018 16.70092 15.03555
#
# Velocity S-wave (km/s) = 2.75585 3.08005 2.92245
# Velocity P-wave (km/s) = 5.79760 6.64069 6.23342
#
# Compressibility (1/GPa) = 0.02418616
#
# Stress axis : x y z
#
# Youngs Moduli (GPa) = 76.40963 76.40914 36.57891
#
# Poissons Ratio (x) = 0.44328 0.16208
# Poissons Ratio (y) = 0.44329 0.16208
# Poissons Ratio (z) = 0.33857 0.33857
#
# Static dielectric constant tensor:
#      x y z
#    x 1.605520 0.000000 0.000000 
#    y 0.000000 1.605520 0.000000 
#    z 0.000000 0.000000 1.669610 
# 
# From -- ./inp_files/5858.got.cif
#   From: 2010.05.17/outbox.cif.g08.bks.cpg/sg131_3_cif.got.tgz:5858.got - 2010.05.20 12:21:01.
