data_PCOD9566428
_publ_section_title
;
Structure prediction by ZEFSAII (Michael W. Deem and Ramdas Pophale) SiO2 
 PCOD9566428
Probable space group: P 42/M M C
;
_chemical_formula_sum "Si O2"
_cell_formula_units_Z 80
_cell_length_a 17.849931
_cell_length_b 17.849931
_cell_length_c 17.851435
_cell_angle_alpha 90.000000
_cell_angle_beta 90.000000
_cell_angle_gamma 90.000000
_cell_volume 5687.824875
_symmetry_space_group_name_H-M "P 42/M M C"
_symmetry_group_IT_number 131
_symmetry_cell_setting 'tetragonal'
loop_
_space_group_symop_operation_xyz
x,y,z
-x,-y,z
-y,x,1/2+z
y,-x,1/2+z
-x,y,-z
x,-y,-z
y,x,1/2-z
-y,-x,1/2-z
-x,-y,-z
x,y,-z
y,-x,1/2-z
-y,x,1/2-z
x,-y,z
-x,y,z
-y,-x,1/2+z
y,x,1/2+z
loop_
_atom_site_type_symbol
_atom_site_label
_atom_site_fract_x
_atom_site_fract_y
_atom_site_fract_z
Si Si1 0.410106 0.718986 0.416285
Si Si2 0.000000 0.408753 0.085771
Si Si3 0.410642 0.654220 0.827891
Si Si4 0.831560 0.409895 0.347726
Si Si5 0.408472 0.912132 0.000000
Si Si6 0.408498 0.857695 0.683273
O O1 0.383721 0.737734 0.500000
O O2 0.500000 0.722850 0.416465
O O3 0.386536 0.636209 0.392311
O O4 0.384136 0.779837 0.355098
O O5 0.073784 0.385728 0.130801
O O6 0.000000 0.500000 0.084335
O O7 0.000000 0.383335 0.000000
O O8 0.377192 0.622808 0.750000
O O9 0.500000 0.641634 0.829231
O O10 0.396884 0.742699 0.839778
O O11 0.841060 0.500000 0.349198
O O12 0.869690 0.382479 0.424340
O O13 0.866019 0.382921 0.268956
O O14 0.500000 0.909561 0.000000
O O15 0.387778 0.000000 0.000000
O O16 0.500000 0.856384 0.684939
#
# Coordination Sequence:
#
# PCOD9566428 Si02
#       6
#    16   8  16  16   8  16
#     4  10  20  32  44  59  80 106 140 186 232 268
#     4   9  16  24  40  63  81  97 119 154 202 260
#     4  11  21  33  46  59  78 110 153 195 235 270
#     4   9  18  30  43  59  79 104 134 171 218 268
#     4   9  18  30  46  66  85 103 129 174 232 283
#     4   9  16  28  43  59  79 102 128 161 211 267
#
# _framework density 14.065130999999999
#
# number of rings (size 3 to 8) (size 9 to 14) (size 15 to 20)
#    0.000    2.400    2.000    1.200    2.800    4.200 
#    0.000    1.000    0.000    0.000    0.000    0.000 
#    0.000    0.000    0.000    0.000    0.000    0.000 
#
# Total GULP energy -445414.157369 kJ/mol
# GULP energy per Si atom -5567.676967 kJ/mol
# Density = 1.403312 g / cm^3
# Si number density = 14.065131 Si / 1000 Ang^3
#
#
#
# Elastic Constant Matrix: (Units=GPa)
#
#
# Indices 1 2 3 4 5 6 
#
# 1 48.3005 15.4579 39.0268 0.0000 0.0000 0.0000
# 2 15.4579 48.3005 39.0268 0.0000 0.0000 0.0000
# 3 39.0268 39.0268 143.4161 0.0000 0.0000 0.0000
# 4 0.0000 0.0000 0.0000 16.6466 0.0000 0.0000
# 5 0.0000 0.0000 0.0000 0.0000 16.6466 0.0000
# 6 0.0000 0.0000 0.0000 0.0000 0.0000 -1.0854
#
#
#
# Elastic Compliance Matrix: (Units=1/GPa)
#
#
# Indices 1 2 3 4 5 6 
#
# 1 0.026984 -0.003464 -0.006400 0.000000 0.000000 0.000000
# 2 -0.003464 0.026984 -0.006400 0.000000 0.000000 0.000000
# 3 -0.006400 -0.006400 0.010456 0.000000 0.000000 0.000000
# 4 0.000000 0.000000 0.000000 0.060072 0.000000 0.000000
# 5 0.000000 0.000000 0.000000 0.000000 0.060072 0.000000
# 6 0.000000 0.000000 0.000000 0.000000 0.000000 -0.921325
#
#
# Mechanical properties :
#
#
# Convention : Reuss Voigt Hill
#
# Bulk Modulus (GPa) = 31.35382 47.44888 39.40135
# Shear Modulus (GPa) = -7.20881 16.20862 4.49991
#
# Velocity S-wave (km/s) = -2.26637 3.39838 1.79061
# Velocity P-wave (km/s) = 3.93595 7.01477 5.68765
#
# Compressibility (1/GPa) = 0.03189404
#
# Stress axis : x y z
#
# Youngs Moduli (GPa) = 37.05929 37.05929 95.63925
#
# Poissons Ratio (x) = 0.12839 0.61210
# Poissons Ratio (y) = 0.12839 0.61210
# Poissons Ratio (z) = 0.23718 0.23718
#
# Static dielectric constant tensor:
#      x y z
#    x 1.451580 0.000000 0.000000 
#    y 0.000000 1.451580 0.000000 
#    z 0.000000 0.000000 1.506660 
# 
# From -- ./inp_files/7824.got.cif
#   From: 2010.05.17/outbox.cif.g08.bks.cpg/sg131_4_cif.got.tgz:7824.got - 2010.05.20 12:21:01.
