data_PCOD9566037
_publ_section_title
;
Structure prediction by ZEFSAII (Michael W. Deem and Ramdas Pophale) SiO2 
 PCOD9566037
Probable space group: P 42/M M C
;
_chemical_formula_sum "Si O2"
_cell_formula_units_Z 128
_cell_length_a 22.050960
_cell_length_b 22.050960
_cell_length_c 17.900876
_cell_angle_alpha 90.000000
_cell_angle_beta 90.000000
_cell_angle_gamma 90.000000
_cell_volume 8704.208531
_symmetry_space_group_name_H-M "P 42/M M C"
_symmetry_group_IT_number 131
_symmetry_cell_setting 'tetragonal'
loop_
_space_group_symop_operation_xyz
x,y,z
-x,-y,z
-y,x,1/2+z
y,-x,1/2+z
-x,y,-z
x,-y,-z
y,x,1/2-z
-y,-x,1/2-z
-x,-y,-z
x,y,-z
y,-x,1/2-z
-y,x,1/2-z
x,-y,z
-x,y,z
-y,-x,1/2+z
y,x,1/2+z
loop_
_atom_site_type_symbol
_atom_site_label
_atom_site_fract_x
_atom_site_fract_y
_atom_site_fract_z
Si Si1 0.929618 0.844801 0.215891
Si Si2 0.571595 0.928274 0.660168
Si Si3 0.331400 0.232223 0.263412
Si Si4 0.845667 0.429554 0.307490
Si Si5 0.658112 0.167271 0.414876
Si Si6 0.070759 0.356877 0.411028
Si Si7 0.864892 0.251409 0.322121
Si Si8 0.199101 0.151591 0.414593
O O1 0.908425 0.908425 0.250000
O O2 0.902576 0.795882 0.273656
O O3 0.898485 0.831584 0.137020
O O4 0.000000 0.838642 0.210094
O O5 0.500000 0.923678 0.640288
O O6 0.579161 0.894777 0.740158
O O7 0.614094 0.888761 0.605903
O O8 0.586990 0.000000 0.663164
O O9 0.295318 0.295318 0.250000
O O10 0.390315 0.213832 0.214171
O O11 0.347387 0.218172 0.349899
O O12 0.285945 0.179210 0.235144
O O13 0.831042 0.500000 0.312523
O O14 0.881573 0.406180 0.380089
O O15 0.646211 0.187858 0.500000
O O16 0.728246 0.146680 0.411340
O O17 0.076369 0.348863 0.500000
O O18 0.091563 0.296903 0.366367
O O19 0.000000 0.371549 0.394853
O O20 0.822252 0.215396 0.379710
O O21 0.179802 0.147409 0.500000
#
# Coordination Sequence:
#
# PCOD9566037 Si02
#       8
#    16  16  16  16  16  16  16  16
#     4  10  20  33  49  65  82 108 140 175 223 280
#     4   9  18  32  47  62  86 126 166 187 207 253
#     4  10  16  31  50  68  87 117 152 184 218 263
#     4   9  19  32  47  66  92 122 156 192 228 266
#     4  10  19  29  43  66  92 114 141 183 225 257
#     4  10  20  30  44  67  91 119 157 198 235 271
#     4  10  17  32  49  67  85 113 148 187 228 272
#     4  10  19  31  47  68  93 112 133 177 235 284
#
# _framework density 14.70553
#
# number of rings (size 3 to 8) (size 9 to 14) (size 15 to 20)
#    0.000    2.250    2.500    1.500    0.000    2.375 
#    0.000    2.500    0.000    3.375    0.000    3.500 
#    0.000    0.250    0.000    0.000    0.000    0.000 
#
# Total GULP energy -713048.317834 kJ/mol
# GULP energy per Si atom -5570.689983 kJ/mol
# Density = 1.467206 g / cm^3
# Si number density = 14.705530 Si / 1000 Ang^3
#
#
#
# Elastic Constant Matrix: (Units=GPa)
#
#
# Indices 1 2 3 4 5 6 
#
# 1 56.2352 21.7305 17.6152 0.0000 0.0000 0.0000
# 2 21.7305 56.2352 17.6152 0.0000 0.0000 0.0000
# 3 17.6152 17.6152 85.7417 0.0000 0.0000 0.0000
# 4 0.0000 0.0000 0.0000 13.0542 0.0000 0.0000
# 5 0.0000 0.0000 0.0000 0.0000 13.0542 0.0000
# 6 0.0000 0.0000 0.0000 0.0000 0.0000 18.5870
#
#
#
# Elastic Compliance Matrix: (Units=1/GPa)
#
#
# Indices 1 2 3 4 5 6 
#
# 1 0.021560 -0.007421 -0.002905 0.000000 0.000000 0.000000
# 2 -0.007421 0.021560 -0.002905 0.000000 0.000000 0.000000
# 3 -0.002905 -0.002905 0.012856 0.000000 0.000000 0.000000
# 4 0.000000 0.000000 0.000000 0.076604 0.000000 0.000000
# 5 0.000000 0.000000 0.000000 0.000000 0.076604 0.000000
# 6 0.000000 0.000000 0.000000 0.000000 0.000000 0.053801
#
#
# Mechanical properties :
#
#
# Convention : Reuss Voigt Hill
#
# Bulk Modulus (GPa) = 33.88110 34.68154 34.28132
# Shear Modulus (GPa) = 16.70648 18.35585 17.53116
#
# Velocity S-wave (km/s) = 3.37422 3.53686 3.45650
# Velocity P-wave (km/s) = 6.18629 6.34936 6.26835
#
# Compressibility (1/GPa) = 0.02951498
#
# Stress axis : x y z
#
# Youngs Moduli (GPa) = 46.38189 46.38189 77.78198
#
# Poissons Ratio (x) = 0.34422 0.22593
# Poissons Ratio (y) = 0.34422 0.22593
# Poissons Ratio (z) = 0.13473 0.13473
#
# Static dielectric constant tensor:
#      x y z
#    x 1.482440 0.000000 0.000000 
#    y 0.000000 1.482440 0.000000 
#    z 0.000000 0.000000 1.502560 
# 
# From -- ./inp_files/8438.got.cif
#   From: 2010.05.17/outbox.cif.g08.bks.cpg/sg131_5_cif.got.tgz:8438.got - 2010.05.20 12:21:01.
