data_PCOD9566252
_publ_section_title
;
Structure prediction by ZEFSAII (Michael W. Deem and Ramdas Pophale) SiO2 
 PCOD9566252
Probable space group: P 42/M M C
;
_chemical_formula_sum "Si O2"
_cell_formula_units_Z 104
_cell_length_a 18.253136
_cell_length_b 18.253136
_cell_length_c 19.188094
_cell_angle_alpha 90.000000
_cell_angle_beta 90.000000
_cell_angle_gamma 90.000000
_cell_volume 6393.031093
_symmetry_space_group_name_H-M "P 42/M M C"
_symmetry_group_IT_number 131
_symmetry_cell_setting 'tetragonal'
loop_
_space_group_symop_operation_xyz
x,y,z
-x,-y,z
-y,x,1/2+z
y,-x,1/2+z
-x,y,-z
x,-y,-z
y,x,1/2-z
-y,-x,1/2-z
-x,-y,-z
x,y,-z
y,-x,1/2-z
-y,x,1/2-z
x,-y,z
-x,y,z
-y,-x,1/2+z
y,x,1/2+z
loop_
_atom_site_type_symbol
_atom_site_label
_atom_site_fract_x
_atom_site_fract_y
_atom_site_fract_z
Si Si1 0.583892 0.087640 0.831572
Si Si2 0.082524 0.819361 0.798929
Si Si3 0.139195 0.585404 0.171135
Si Si4 0.917448 0.873274 0.582154
Si Si5 0.721153 0.222392 0.680373
Si Si6 0.282138 0.846381 0.917229
Si Si7 0.000000 0.589052 0.920390
O O1 0.500000 0.104313 0.853882
O O2 0.591205 0.114520 0.751804
O O3 0.645525 0.123926 0.879541
O O4 0.592653 0.000000 0.832635
O O5 0.118045 0.881956 0.750000
O O6 0.084222 0.856592 0.874683
O O7 0.141937 0.754454 0.799532
O O8 0.000000 0.798892 0.778738
O O9 0.153712 0.500000 0.156776
O O10 0.207561 0.638267 0.159503
O O11 0.072238 0.610563 0.122007
O O12 0.911199 0.886997 0.500000
O O13 0.901538 0.786678 0.593782
O O14 0.000000 0.891541 0.604417
O O15 0.730049 0.269952 0.750000
O O16 0.771876 0.256178 0.620464
O O17 0.292336 0.837990 0.000000
O O18 0.000000 0.500000 0.921102
O O19 0.000000 0.615094 0.000000
#
# Coordination Sequence:
#
# PCOD9566252 Si02
#       7
#    16  16  16  16  16  16   8
#     4  10  19  31  51  79 108 140 176 214 253 304
#     4  10  21  32  44  64  87 116 157 206 249 292
#     4  10  19  33  54  78 103 132 171 213 256 310
#     4   9  18  32  47  62  83 118 161 202 249 293
#     4  10  20  35  52  72  95 132 168 205 254 311
#     4  10  20  34  50  71 101 134 169 209 253 308
#     4   9  18  32  50  76 107 135 166 210 262 305
#
# _framework density 16.267713000000001
#
# number of rings (size 3 to 8) (size 9 to 14) (size 15 to 20)
#    0.000    2.231    2.308    0.923    1.077    3.231 
#    0.000    1.538    0.000    0.000    0.000    0.000 
#    0.000    2.154    0.000    1.385    0.000    0.000 
#
# Total GULP energy -580310.816954 kJ/mol
# GULP energy per Si atom -5579.911701 kJ/mol
# Density = 1.623069 g / cm^3
# Si number density = 16.267713 Si / 1000 Ang^3
#
#
#
# Elastic Constant Matrix: (Units=GPa)
#
#
# Indices 1 2 3 4 5 6 
#
# 1 61.3171 15.1058 10.7922 0.0000 0.0000 0.0000
# 2 15.1058 61.3159 10.7913 0.0000 0.0000 0.0000
# 3 10.7922 10.7913 49.0226 0.0000 0.0000 0.0000
# 4 0.0000 0.0000 0.0000 17.8203 0.0000 0.0000
# 5 0.0000 0.0000 0.0000 0.0000 17.8200 0.0000
# 6 0.0000 0.0000 0.0000 0.0000 0.0000 19.3901
#
#
#
# Elastic Compliance Matrix: (Units=1/GPa)
#
#
# Indices 1 2 3 4 5 6 
#
# 1 0.017796 -0.003844 -0.003072 0.000000 0.000000 0.000000
# 2 -0.003844 0.017796 -0.003071 0.000000 0.000000 0.000000
# 3 -0.003072 -0.003071 0.021751 0.000000 0.000000 0.000000
# 4 0.000000 0.000000 0.000000 0.056116 0.000000 0.000000
# 5 0.000000 0.000000 0.000000 0.000000 0.056117 0.000000
# 6 0.000000 0.000000 0.000000 0.000000 0.000000 0.051573
#
#
# Mechanical properties :
#
#
# Convention : Reuss Voigt Hill
#
# Bulk Modulus (GPa) = 26.75919 27.22601 26.99260
# Shear Modulus (GPa) = 19.71771 20.00383 19.86077
#
# Velocity S-wave (km/s) = 3.48527 3.51046 3.49789
# Velocity P-wave (km/s) = 5.71674 5.76226 5.73954
#
# Compressibility (1/GPa) = 0.03737034
#
# Stress axis : x y z
#
# Youngs Moduli (GPa) = 56.19170 56.19097 45.97474
#
# Poissons Ratio (x) = 0.21598 0.14122
# Poissons Ratio (y) = 0.21598 0.14120
# Poissons Ratio (z) = 0.17260 0.17258
#
# Static dielectric constant tensor:
#      x y z
#    x 1.547120 0.000000 0.000000 
#    y 0.000000 1.547120 0.000000 
#    z 0.000000 0.000000 1.567880 
# 
# From -- ./inp_files/8079.got.cif
#   From: 2010.05.17/outbox.cif.g08.bks.cpg/sg131_5_cif.got.tgz:8079.got - 2010.05.20 12:21:01.
