data_PCOD9566809
_publ_section_title
;
Structure prediction by ZEFSAII (Michael W. Deem and Ramdas Pophale) SiO2 
 PCOD9566809
Probable space group: P 42/M M C
;
_chemical_formula_sum "Si O2"
_cell_formula_units_Z 80
_cell_length_a 23.310441
_cell_length_b 23.310441
_cell_length_c 7.819552
_cell_angle_alpha 90.000000
_cell_angle_beta 90.000000
_cell_angle_gamma 90.000000
_cell_volume 4248.962045
_symmetry_space_group_name_H-M "P 42/M M C"
_symmetry_group_IT_number 131
_symmetry_cell_setting 'tetragonal'
loop_
_space_group_symop_operation_xyz
x,y,z
-x,-y,z
-y,x,1/2+z
y,-x,1/2+z
-x,y,-z
x,-y,-z
y,x,1/2-z
-y,-x,1/2-z
-x,-y,-z
x,y,-z
y,-x,1/2-z
-y,x,1/2-z
x,-y,z
-x,y,z
-y,-x,1/2+z
y,x,1/2+z
loop_
_atom_site_type_symbol
_atom_site_label
_atom_site_fract_x
_atom_site_fract_y
_atom_site_fract_z
Si Si1 0.378943 0.286763 0.802515
Si Si2 0.751494 0.842699 0.706742
Si Si3 0.704674 0.500000 0.795643
Si Si4 0.158538 0.624190 0.803992
Si Si5 0.155196 0.064823 0.294191
Si Si6 0.500000 0.160849 0.290466
O O1 0.327557 0.327557 0.750000
O O2 0.439802 0.318047 0.772820
O O3 0.378923 0.227958 0.696372
O O4 0.373705 0.270448 0.000000
O O5 0.782136 0.782136 0.750000
O O6 0.748675 0.844482 0.500000
O O7 0.686975 0.852582 0.773755
O O8 0.794597 0.892528 0.768213
O O9 0.771938 0.500000 0.742067
O O10 0.701463 0.500000 0.000000
O O11 0.138129 0.562398 0.731234
O O12 0.137736 0.625646 0.000000
O O13 0.095538 0.095538 0.250000
O O14 0.159824 0.063226 0.500000
O O15 0.159497 0.000000 0.229491
O O16 0.500000 0.158332 0.500000
#
# Coordination Sequence:
#
# PCOD9566809 Si02
#       6
#    16  16   8  16  16   8
#     4  11  20  29  42  61  83 109 139 172 214 264
#     4   9  17  28  43  63  87 116 149 185 228 275
#     4   9  17  31  45  58  78 104 136 177 220 262
#     4   9  16  27  42  61  85 113 144 178 217 262
#     4   9  18  32  48  67  92 121 154 192 232 274
#     4   7  12  23  39  57  79 106 135 168 206 251
#
# _framework density 18.828126999999999
#
# number of rings (size 3 to 8) (size 9 to 14) (size 15 to 20)
#    0.000    2.800    0.000    3.900    0.000    3.000 
#    0.000    1.000    0.000    0.300    0.000    2.800 
#    0.000    5.600    0.000    0.000    0.000   32.300 
#
# Total GULP energy -445383.722043 kJ/mol
# GULP energy per Si atom -5567.296526 kJ/mol
# Density = 1.878527 g / cm^3
# Si number density = 18.828127 Si / 1000 Ang^3
#
#
#
# Elastic Constant Matrix: (Units=GPa)
#
#
# Indices 1 2 3 4 5 6 
#
# 1 102.6649 33.1922 -3.5296 0.0000 0.0000 0.0000
# 2 33.1922 102.6649 -3.5296 0.0000 0.0000 0.0000
# 3 -3.5296 -3.5296 41.4908 0.0000 0.0000 0.0000
# 4 0.0000 0.0000 0.0000 12.2756 0.0000 0.0000
# 5 0.0000 0.0000 0.0000 0.0000 12.2756 0.0000
# 6 0.0000 0.0000 0.0000 0.0000 0.0000 11.6427
#
#
#
# Elastic Compliance Matrix: (Units=1/GPa)
#
#
# Indices 1 2 3 4 5 6 
#
# 1 0.010894 -0.003500 0.000629 0.000000 0.000000 0.000000
# 2 -0.003500 0.010894 0.000629 0.000000 0.000000 0.000000
# 3 0.000629 0.000629 0.024209 0.000000 0.000000 0.000000
# 4 0.000000 0.000000 0.000000 0.081462 0.000000 0.000000
# 5 0.000000 0.000000 0.000000 0.000000 0.081462 0.000000
# 6 0.000000 0.000000 0.000000 0.000000 0.000000 0.085891
#
#
# Mechanical properties :
#
#
# Convention : Reuss Voigt Hill
#
# Bulk Modulus (GPa) = 24.08982 33.23181 28.66081
# Shear Modulus (GPa) = 15.96764 21.95130 18.95947
#
# Velocity S-wave (km/s) = 2.91533 3.41820 3.17673
# Velocity P-wave (km/s) = 4.91473 5.76777 5.35825
#
# Compressibility (1/GPa) = 0.04151131
#
# Stress axis : x y z
#
# Youngs Moduli (GPa) = 91.79571 91.79571 41.30736
#
# Poissons Ratio (x) = 0.32132 -0.02598
# Poissons Ratio (y) = 0.32132 -0.02598
# Poissons Ratio (z) = -0.05774 -0.05774
#
# Static dielectric constant tensor:
#      x y z
#    x 1.680950 0.000000 0.000000 
#    y 0.000000 1.680950 0.000000 
#    z 0.000000 0.000000 1.683630 
# 
# From -- ./inp_files/2091.got.cif
#   From: 2010.05.17/outbox.cif.g08.bks.cpg/sg131_2_cif.got.tgz:2091.got - 2010.05.20 12:21:01.
