data_PCOD9566531
_publ_section_title
;
Structure prediction by ZEFSAII (Michael W. Deem and Ramdas Pophale) SiO2 
 PCOD9566531
Probable space group: P 42/M M C
;
_chemical_formula_sum "Si O2"
_cell_formula_units_Z 96
_cell_length_a 15.933148
_cell_length_b 15.933148
_cell_length_c 20.220061
_cell_angle_alpha 90.000000
_cell_angle_beta 90.000000
_cell_angle_gamma 90.000000
_cell_volume 5133.169935
_symmetry_space_group_name_H-M "P 42/M M C"
_symmetry_group_IT_number 131
_symmetry_cell_setting 'tetragonal'
loop_
_space_group_symop_operation_xyz
x,y,z
-x,-y,z
-y,x,1/2+z
y,-x,1/2+z
-x,y,-z
x,-y,-z
y,x,1/2-z
-y,-x,1/2-z
-x,-y,-z
x,y,-z
y,-x,1/2-z
-y,x,1/2-z
x,-y,z
-x,y,z
-y,-x,1/2+z
y,x,1/2+z
loop_
_atom_site_type_symbol
_atom_site_label
_atom_site_fract_x
_atom_site_fract_y
_atom_site_fract_z
Si Si1 0.810691 0.720754 0.075823
Si Si2 0.404929 0.098267 0.326251
Si Si3 0.409274 0.677799 0.195337
Si Si4 0.595203 0.871194 0.828961
Si Si5 0.404764 0.653391 0.427894
Si Si6 0.748703 0.906954 0.921727
O O1 0.863145 0.667798 0.128845
O O2 0.724036 0.667563 0.074629
O O3 0.797237 0.819238 0.093307
O O4 0.844062 0.717174 0.000000
O O5 0.500000 0.133248 0.338047
O O6 0.387860 0.108998 0.248080
O O7 0.408352 0.000000 0.340551
O O8 0.339575 0.660426 0.250000
O O9 0.500000 0.669850 0.228822
O O10 0.402758 0.770524 0.166615
O O11 0.402387 0.613356 0.135415
O O12 0.500000 0.899300 0.843663
O O13 0.664985 0.905377 0.877810
O O14 0.397578 0.611409 0.500000
O O15 0.500000 0.687721 0.424109
O O16 0.789213 0.000000 0.911298
O O17 0.728930 0.901236 0.000000
#
# Coordination Sequence:
#
# PCOD9566531 Si02
#       6
#    16  16  16  16  16  16
#     4  10  20  36  57  80 109 145 185 231 284 344
#     4  10  21  36  56  85 118 149 184 230 287 351
#     4  11  22  34  50  73 104 144 189 234 277 328
#     4  10  21  36  55  80 111 146 187 237 290 342
#     4  10  20  34  52  74 103 143 189 234 281 331
#     4  10  21  37  58  83 110 145 191 239 287 343
#
# _framework density 18.701892999999998
#
# number of rings (size 3 to 8) (size 9 to 14) (size 15 to 20)
#    0.000    1.833    1.667    2.500    0.000    5.500 
#    0.000    4.167    0.000    0.500    0.000    2.333 
#    0.000    2.667    0.000    0.167    0.000    0.000 
#
# Total GULP energy -535001.412927 kJ/mol
# GULP energy per Si atom -5572.931385 kJ/mol
# Density = 1.865933 g / cm^3
# Si number density = 18.701893 Si / 1000 Ang^3
#
#
#
# Elastic Constant Matrix: (Units=GPa)
#
#
# Indices 1 2 3 4 5 6 
#
# 1 97.6563 27.6164 40.0447 0.0000 0.0000 0.0000
# 2 27.6164 97.6550 40.0447 0.0000 0.0000 0.0000
# 3 40.0447 40.0447 71.5293 0.0000 0.0000 0.0000
# 4 0.0000 0.0000 0.0000 1.6913 0.0000 0.0000
# 5 0.0000 0.0000 0.0000 0.0000 1.6911 0.0000
# 6 0.0000 0.0000 0.0000 0.0000 0.0000 15.7275
#
#
#
# Elastic Compliance Matrix: (Units=1/GPa)
#
#
# Indices 1 2 3 4 5 6 
#
# 1 0.013355 -0.000923 -0.006960 0.000000 0.000000 0.000000
# 2 -0.000923 0.013355 -0.006960 0.000000 0.000000 0.000000
# 3 -0.006960 -0.006960 0.021773 0.000000 0.000000 0.000000
# 4 0.000000 0.000000 0.000000 0.591264 0.000000 0.000000
# 5 0.000000 0.000000 0.000000 0.000000 0.591326 0.000000
# 6 0.000000 0.000000 0.000000 0.000000 0.000000 0.063583
#
#
# Mechanical properties :
#
#
# Convention : Reuss Voigt Hill
#
# Bulk Modulus (GPa) = 53.19803 53.58357 53.39080
# Shear Modulus (GPa) = 3.75768 14.43096 9.09432
#
# Velocity S-wave (km/s) = 1.41902 2.78084 2.20756
# Velocity P-wave (km/s) = 5.58497 6.24695 5.92521
#
# Compressibility (1/GPa) = 0.01879769
#
# Stress axis : x y z
#
# Youngs Moduli (GPa) = 74.87865 74.87741 45.92778
#
# Poissons Ratio (x) = 0.06909 0.31966
# Poissons Ratio (y) = 0.06909 0.31966
# Poissons Ratio (z) = 0.52116 0.52116
#
# Static dielectric constant tensor:
#      x y z
#    x 1.673130 0.000000 0.000000 
#    y 0.000000 1.673130 0.000000 
#    z 0.000000 0.000000 1.647810 
# 
# From -- ./inp_files/9732.got.cif
#   From: 2010.05.17/outbox.cif.g08.bks.cpg/sg131_5_cif.got.tgz:9732.got - 2010.05.20 12:21:01.
