data_PCOD9566089
_publ_section_title
;
Structure prediction by ZEFSAII (Michael W. Deem and Ramdas Pophale) SiO2 
 PCOD9566089
Probable space group: P 42/M M C
;
_chemical_formula_sum "Si O2"
_cell_formula_units_Z 120
_cell_length_a 27.884872
_cell_length_b 27.884872
_cell_length_c 7.670669
_cell_angle_alpha 90.000000
_cell_angle_beta 90.000000
_cell_angle_gamma 90.000000
_cell_volume 5964.452075
_symmetry_space_group_name_H-M "P 42/M M C"
_symmetry_group_IT_number 131
_symmetry_cell_setting 'tetragonal'
loop_
_space_group_symop_operation_xyz
x,y,z
-x,-y,z
-y,x,1/2+z
y,-x,1/2+z
-x,y,-z
x,-y,-z
y,x,1/2-z
-y,-x,1/2-z
-x,-y,-z
x,y,-z
y,-x,1/2-z
-y,x,1/2-z
x,-y,z
-x,y,z
-y,-x,1/2+z
y,x,1/2+z
loop_
_atom_site_type_symbol
_atom_site_label
_atom_site_fract_x
_atom_site_fract_y
_atom_site_fract_z
Si Si1 0.054015 0.730860 0.706743
Si Si2 0.623731 0.086541 0.289030
Si Si3 0.770531 0.150074 0.797415
Si Si4 0.000000 0.445500 0.212269
Si Si5 0.366572 0.445525 0.790325
Si Si6 0.694403 0.773526 0.292799
Si Si7 0.165111 0.448175 0.212402
Si Si8 0.591830 0.736338 0.287024
O O1 0.050556 0.740481 0.500000
O O2 0.071703 0.675904 0.724784
O O3 0.097104 0.763670 0.782758
O O4 0.000000 0.735757 0.779869
O O5 0.627165 0.087647 0.500000
O O6 0.598767 0.135942 0.230277
O O7 0.585201 0.046189 0.237500
O O8 0.813773 0.186228 0.750000
O O9 0.720359 0.178517 0.771816
O O10 0.777070 0.142527 0.000000
O O11 0.000000 0.500000 0.275406
O O12 0.000000 0.447408 0.000000
O O13 0.410379 0.410379 0.750000
O O14 0.373141 0.500000 0.726195
O O15 0.316123 0.423457 0.725292
O O16 0.362840 0.447868 0.000000
O O17 0.731969 0.731969 0.250000
O O18 0.689795 0.779626 0.500000
O O19 0.643570 0.755059 0.225494
O O20 0.145400 0.500000 0.269101
O O21 0.220749 0.443844 0.259795
O O22 0.162459 0.447700 0.000000
O O23 0.593482 0.734121 0.500000
#
# Coordination Sequence:
#
# PCOD9566089 Si02
#       8
#    16  16  16   8  16  16  16  16
#     4  10  21  36  52  71  99 134 169 203 245 297
#     4  10  18  29  47  72  97 127 169 216 259 295
#     4  10  20  34  52  74 102 136 170 206 246 290
#     4   9  16  26  41  65  97 129 169 223 272 303
#     4  10  21  37  56  75  95 119 147 183 229 285
#     4  10  18  29  47  72 101 129 159 195 234 284
#     4   9  16  26  43  67  93 121 157 203 251 292
#     4   9  17  29  46  70  97 124 155 192 234 284
#
# _framework density 20.119198000000001
#
# number of rings (size 3 to 8) (size 9 to 14) (size 15 to 20)
#    0.000    2.333    0.667    3.600    0.000    5.733 
#    0.000    1.333    0.000    2.800    0.000    0.000 
#    0.000    0.267    0.000    3.333    0.000    0.000 
#
# Total GULP energy -669521.978889 kJ/mol
# GULP energy per Si atom -5579.349824 kJ/mol
# Density = 2.007341 g / cm^3
# Si number density = 20.119198 Si / 1000 Ang^3
#
#
#
# Elastic Constant Matrix: (Units=GPa)
#
#
# Indices 1 2 3 4 5 6 
#
# 1 154.2544 73.8530 7.5822 0.0000 0.0000 0.0000
# 2 73.8530 154.2526 7.5809 0.0000 0.0000 0.0000
# 3 7.5822 7.5809 33.1995 0.0000 0.0000 0.0000
# 4 0.0000 0.0000 0.0000 11.2540 0.0000 0.0000
# 5 0.0000 0.0000 0.0000 0.0000 11.2550 0.0000
# 6 0.0000 0.0000 0.0000 0.0000 0.0000 14.4552
#
#
#
# Elastic Compliance Matrix: (Units=1/GPa)
#
#
# Indices 1 2 3 4 5 6 
#
# 1 0.008445 -0.003993 -0.001017 0.000000 0.000000 0.000000
# 2 -0.003993 0.008445 -0.001016 0.000000 0.000000 0.000000
# 3 -0.001017 -0.001016 0.030585 0.000000 0.000000 0.000000
# 4 0.000000 0.000000 0.000000 0.088857 0.000000 0.000000
# 5 0.000000 0.000000 0.000000 0.000000 0.088849 0.000000
# 6 0.000000 0.000000 0.000000 0.000000 0.000000 0.069179
#
#
# Mechanical properties :
#
#
# Convention : Reuss Voigt Hill
#
# Bulk Modulus (GPa) = 28.23107 57.74872 42.98990
# Shear Modulus (GPa) = 15.71241 24.23889 19.97565
#
# Velocity S-wave (km/s) = 2.79761 3.47474 3.15439
# Velocity P-wave (km/s) = 4.94953 6.69806 5.88905
#
# Compressibility (1/GPa) = 0.03542196
#
# Stress axis : x y z
#
# Youngs Moduli (GPa) = 118.41921 118.41824 32.69557
#
# Poissons Ratio (x) = 0.47286 0.03324
# Poissons Ratio (y) = 0.47286 0.03323
# Poissons Ratio (z) = 0.12041 0.12035
#
# Static dielectric constant tensor:
#      x y z
#    x 1.739970 0.000000 0.000000 
#    y 0.000000 1.739980 0.000000 
#    z 0.000000 0.000000 1.770010 
# 
# From -- ./inp_files/2628.got.cif
#   From: 2010.05.17/outbox.cif.g08.bks.cpg/sg131_2_cif.got.tgz:2628.got - 2010.05.20 12:21:01.
