data_PCOD9566877
_publ_section_title
;
Structure prediction by ZEFSAII (Michael W. Deem and Ramdas Pophale) SiO2 
 PCOD9566877
Probable space group: P 42/M M C
;
_chemical_formula_sum "Si O2"
_cell_formula_units_Z 40
_cell_length_a 7.598054
_cell_length_b 7.598054
_cell_length_c 31.626431
_cell_angle_alpha 90.000000
_cell_angle_beta 90.000000
_cell_angle_gamma 90.000000
_cell_volume 1825.807290
_symmetry_space_group_name_H-M "P 42/M M C"
_symmetry_group_IT_number 131
_symmetry_cell_setting 'tetragonal'
loop_
_space_group_symop_operation_xyz
x,y,z
-x,-y,z
-y,x,1/2+z
y,-x,1/2+z
-x,y,-z
x,-y,-z
y,x,1/2-z
-y,-x,1/2-z
-x,-y,-z
x,y,-z
y,-x,1/2-z
-y,x,1/2-z
x,-y,z
-x,y,z
-y,-x,1/2+z
y,x,1/2+z
loop_
_atom_site_type_symbol
_atom_site_label
_atom_site_fract_x
_atom_site_fract_y
_atom_site_fract_z
Si Si1 0.000000 0.791552 0.452610
Si Si2 0.288885 0.699265 0.113180
Si Si3 0.706319 0.284756 0.204647
O O1 0.170210 0.744230 0.425043
O O2 0.000000 0.715416 0.500000
O O3 0.000000 0.000000 0.456350
O O4 0.224279 0.500000 0.105655
O O5 0.500000 0.688823 0.118101
O O6 0.219682 0.766532 0.158876
O O7 0.777934 0.222067 0.250000
O O8 0.713060 0.500000 0.204712
O O9 0.500000 0.234607 0.205038
#
# Coordination Sequence:
#
# PCOD9566877 Si02
#       3
#     8  16  16
#     4  11  25  41  55  73 105 151 193 231 279 336
#     4   9  18  34  59  87 110 137 178 231 285 333
#     4   7  10  20  44  78 109 135 166 206 257 321
#
# _framework density 21.908118999999999
#
# number of rings (size 3 to 8) (size 9 to 14) (size 15 to 20)
#    0.000    3.400    0.000    4.200    0.000    3.200 
#    0.000    4.000    4.400    0.000    0.000    0.000 
#    0.000    0.000    0.000    0.000    0.000    0.000 
#
# Total GULP energy -222895.522015 kJ/mol
# GULP energy per Si atom -5572.388050 kJ/mol
# Density = 2.185826 g / cm^3
# Si number density = 21.908119 Si / 1000 Ang^3
#
#
#
# Elastic Constant Matrix: (Units=GPa)
#
#
# Indices 1 2 3 4 5 6 
#
# 1 67.8783 9.4106 55.5427 0.0000 0.0000 0.0000
# 2 9.4106 67.8782 55.5427 0.0000 0.0000 0.0000
# 3 55.5427 55.5427 279.7543 0.0000 0.0000 0.0000
# 4 0.0000 0.0000 0.0000 44.7335 0.0000 0.0000
# 5 0.0000 0.0000 0.0000 0.0000 44.7335 0.0000
# 6 0.0000 0.0000 0.0000 0.0000 0.0000 -55.6995
#
#
#
# Elastic Compliance Matrix: (Units=1/GPa)
#
#
# Indices 1 2 3 4 5 6 
#
# 1 0.017604 0.000501 -0.003595 0.000000 0.000000 0.000000
# 2 0.000501 0.017604 -0.003595 0.000000 0.000000 0.000000
# 3 -0.003595 -0.003595 0.005002 0.000000 0.000000 0.000000
# 4 0.000000 0.000000 0.000000 0.022355 0.000000 0.000000
# 5 0.000000 0.000000 0.000000 0.000000 0.022355 0.000000
# 6 0.000000 0.000000 0.000000 0.000000 0.000000 -0.017953
#
#
# Mechanical properties :
#
#
# Convention : Reuss Voigt Hill
#
# Bulk Modulus (GPa) = 37.26700 72.94473 55.10587
# Shear Modulus (GPa) = 55.99902 26.42115 41.21008
#
# Velocity S-wave (km/s) = 5.06126 3.47652 4.34180
# Velocity P-wave (km/s) = 7.15560 7.03441 7.09526
#
# Compressibility (1/GPa) = 0.02683339
#
# Stress axis : x y z
#
# Youngs Moduli (GPa) = 56.80480 56.80467 199.92406
#
# Poissons Ratio (x) = -0.02844 0.71864
# Poissons Ratio (y) = -0.02844 0.71864
# Poissons Ratio (z) = 0.20419 0.20419
#
# Static dielectric constant tensor:
#      x y z
#    x 1.839310 0.000000 0.000000 
#    y 0.000000 1.839310 0.000000 
#    z 0.000000 0.000000 1.868950 
# 
# From -- ./inp_files/11718.got.cif
#   From: 2010.05.17/outbox.cif.g08.bks.cpg/sg131_6_cif.got.tgz:11718.got - 2010.05.20 12:21:01.
