data_PCOD9566740
_publ_section_title
;
Structure prediction by ZEFSAII (Michael W. Deem and Ramdas Pophale) SiO2 
 PCOD9566740
Probable space group: P 42/M M C
;
_chemical_formula_sum "Si O2"
_cell_formula_units_Z 104
_cell_length_a 17.972510
_cell_length_b 17.972510
_cell_length_c 17.031306
_cell_angle_alpha 90.000000
_cell_angle_beta 90.000000
_cell_angle_gamma 90.000000
_cell_volume 5501.301153
_symmetry_space_group_name_H-M "P 42/M M C"
_symmetry_group_IT_number 131
_symmetry_cell_setting 'tetragonal'
loop_
_space_group_symop_operation_xyz
x,y,z
-x,-y,z
-y,x,1/2+z
y,-x,1/2+z
-x,y,-z
x,-y,-z
y,x,1/2-z
-y,-x,1/2-z
-x,-y,-z
x,y,-z
y,-x,1/2-z
-y,x,1/2-z
x,-y,z
-x,y,z
-y,-x,1/2+z
y,x,1/2+z
loop_
_atom_site_type_symbol
_atom_site_label
_atom_site_fract_x
_atom_site_fract_y
_atom_site_fract_z
Si Si1 0.710885 0.912298 0.586633
Si Si2 0.413560 0.823176 0.660195
Si Si3 0.415247 0.919053 0.093752
Si Si4 0.798262 0.910707 0.259416
Si Si5 0.679293 0.644054 0.908568
Si Si6 0.586025 0.500000 0.095382
Si Si7 0.322544 0.801484 0.818278
O O1 0.720342 0.877813 0.500000
O O2 0.632575 0.891542 0.625730
O O3 0.772195 0.893230 0.651505
O O4 0.714418 0.000000 0.578500
O O5 0.500000 0.837274 0.670890
O O6 0.397866 0.757676 0.598680
O O7 0.374820 0.798114 0.741334
O O8 0.500000 0.910043 0.122091
O O9 0.365926 0.851593 0.119902
O O10 0.387875 0.000000 0.122729
O O11 0.417363 0.921677 0.000000
O O12 0.882461 0.882461 0.250000
O O13 0.747556 0.853562 0.207429
O O14 0.787961 0.000000 0.244778
O O15 0.622867 0.578881 0.879673
O O16 0.686601 0.719430 0.856181
O O17 0.662761 0.662830 0.000000
O O18 0.500000 0.500000 0.117519
O O19 0.592470 0.500000 0.000000
#
# Coordination Sequence:
#
# PCOD9566740 Si02
#       7
#    16  16  16  16  16   8  16
#     4   9  19  36  58  84 114 150 191 235 283 338
#     4  11  22  35  53  78 112 146 182 228 287 353
#     4   9  18  33  53  79 111 147 188 235 293 360
#     4  10  21  38  60  87 118 153 193 243 297 359
#     4  11  22  38  59  80 107 146 194 243 295 348
#     4   9  20  38  58  80 105 139 190 251 299 343
#     4  11  21  36  56  82 113 149 192 241 295 360
#
# _framework density 18.904616999999998
#
# number of rings (size 3 to 8) (size 9 to 14) (size 15 to 20)
#    0.000    1.923    0.769    4.615    0.000    3.231 
#    0.000    3.077    0.000    2.308    0.000    2.154 
#    0.000    0.000    0.000    0.000    0.000    0.000 
#
# Total GULP energy -579276.394120 kJ/mol
# GULP energy per Si atom -5569.965328 kJ/mol
# Density = 1.886159 g / cm^3
# Si number density = 18.904617 Si / 1000 Ang^3
#
#
#
# Elastic Constant Matrix: (Units=GPa)
#
#
# Indices 1 2 3 4 5 6 
#
# 1 91.8911 45.6103 34.8488 0.0000 0.0000 0.0000
# 2 45.6103 91.8911 34.8488 0.0000 0.0000 0.0000
# 3 34.8488 34.8488 75.2067 0.0000 0.0000 0.0000
# 4 0.0000 0.0000 0.0000 -202.9195 0.0000 0.0000
# 5 0.0000 0.0000 0.0000 0.0000 -202.9195 0.0000
# 6 0.0000 0.0000 0.0000 0.0000 0.0000 29.0746
#
#
#
# Elastic Compliance Matrix: (Units=1/GPa)
#
#
# Indices 1 2 3 4 5 6 
#
# 1 0.015556 -0.006051 -0.004404 0.000000 0.000000 0.000000
# 2 -0.006051 0.015556 -0.004404 0.000000 0.000000 0.000000
# 3 -0.004404 -0.004404 0.017379 0.000000 0.000000 0.000000
# 4 0.000000 0.000000 0.000000 -0.004928 0.000000 0.000000
# 5 0.000000 0.000000 0.000000 0.000000 -0.004928 0.000000
# 6 0.000000 0.000000 0.000000 0.000000 0.000000 0.034394
#
#
# Mechanical properties :
#
#
# Convention : Reuss Voigt Hill
#
# Bulk Modulus (GPa) = 53.27342 54.40051 53.83697
# Shear Modulus (GPa) = 45.86902 -65.77415 -9.95257
#
# Velocity S-wave (km/s) = 4.93113 -5.90493 -2.29697
# Velocity P-wave (km/s) = 7.78863 4.20144 4.63738
#
# Compressibility (1/GPa) = 0.01877109
#
# Stress axis : x y z
#
# Youngs Moduli (GPa) = 64.28296 64.28296 57.54231
#
# Poissons Ratio (x) = 0.38898 0.25344
# Poissons Ratio (y) = 0.38898 0.25344
# Poissons Ratio (z) = 0.28313 0.28313
#
# Static dielectric constant tensor:
#      x y z
#    x 1.686120 0.000000 0.000000 
#    y 0.000000 1.686120 0.000000 
#    z 0.000000 0.000000 1.715120 
# 
# From -- ./inp_files/8075.got.cif
#   From: 2010.05.17/outbox.cif.g08.bks.cpg/sg131_5_cif.got.tgz:8075.got - 2010.05.20 12:21:01.
