data_PCOD9566565
_publ_section_title
;
Structure prediction by ZEFSAII (Michael W. Deem and Ramdas Pophale) SiO2 
 PCOD9566565
Probable space group: P 42/M M C
;
_chemical_formula_sum "Si O2"
_cell_formula_units_Z 42
_cell_length_a 7.868360
_cell_length_b 7.868360
_cell_length_c 33.220991
_cell_angle_alpha 90.000000
_cell_angle_beta 90.000000
_cell_angle_gamma 90.000000
_cell_volume 2056.747733
_symmetry_space_group_name_H-M "P 42/M M C"
_symmetry_group_IT_number 131
_symmetry_cell_setting 'tetragonal'
loop_
_space_group_symop_operation_xyz
x,y,z
-x,-y,z
-y,x,1/2+z
y,-x,1/2+z
-x,y,-z
x,-y,-z
y,x,1/2-z
-y,-x,1/2-z
-x,-y,-z
x,y,-z
y,-x,1/2-z
-y,x,1/2-z
x,-y,z
-x,y,z
-y,-x,1/2+z
y,x,1/2+z
loop_
_atom_site_type_symbol
_atom_site_label
_atom_site_fract_x
_atom_site_fract_y
_atom_site_fract_z
Si Si1 0.192589 0.000000 0.433799
Si Si2 0.310301 0.293883 0.878206
Si Si3 0.197514 0.304633 0.207043
Si Si4 0.500000 0.000000 0.500000
O O1 0.215251 0.165561 0.405668
O O2 0.347854 0.000000 0.465195
O O3 0.000000 0.000000 0.450496
O O4 0.286541 0.500000 0.877657
O O5 0.500000 0.258448 0.893245
O O6 0.294122 0.235040 0.831801
O O7 0.217796 0.217796 0.250000
O O8 0.252477 0.500000 0.213187
O O9 0.000000 0.303496 0.195554
#
# Coordination Sequence:
#
# PCOD9566565 Si02
#       4
#     8  16  16   2
#     4  12  25  45  75 106 137 179 224 281 349 420
#     4  10  20  40  69  96 134 184 227 278 344 407
#     4  10  20  34  55  85 128 178 230 281 333 394
#     4  12  26  52  78 102 148 170 230 292 350 422
#
# _framework density 20.420591000000002
#
# number of rings (size 3 to 8) (size 9 to 14) (size 15 to 20)
#    0.000    1.524    3.810    1.429    0.000    4.571 
#    0.000    1.905    0.000    2.286    0.000    0.000 
#    0.000    0.000    0.000    0.000    0.000    0.000 
#
# Total GULP energy -234025.990025 kJ/mol
# GULP energy per Si atom -5572.047382 kJ/mol
# Density = 2.037411 g / cm^3
# Si number density = 20.420591 Si / 1000 Ang^3
#
#
#
# Elastic Constant Matrix: (Units=GPa)
#
#
# Indices 1 2 3 4 5 6 
#
# 1 108.8735 34.6248 48.0019 0.0000 0.0000 0.0000
# 2 34.6248 108.8735 48.0019 0.0000 0.0000 0.0000
# 3 48.0019 48.0019 116.7043 0.0000 0.0000 0.0000
# 4 0.0000 0.0000 0.0000 -19.5000 0.0000 0.0000
# 5 0.0000 0.0000 0.0000 0.0000 -19.5000 0.0000
# 6 0.0000 0.0000 0.0000 0.0000 0.0000 12.3256
#
#
#
# Elastic Compliance Matrix: (Units=1/GPa)
#
#
# Indices 1 2 3 4 5 6 
#
# 1 0.011541 -0.001927 -0.003955 0.000000 0.000000 0.000000
# 2 -0.001927 0.011541 -0.003955 0.000000 0.000000 0.000000
# 3 -0.003955 -0.003955 0.011822 0.000000 0.000000 0.000000
# 4 0.000000 0.000000 0.000000 -0.051282 0.000000 0.000000
# 5 0.000000 0.000000 0.000000 0.000000 -0.051282 0.000000
# 6 0.000000 0.000000 0.000000 0.000000 0.000000 0.081132
#
#
# Mechanical properties :
#
#
# Convention : Reuss Voigt Hill
#
# Bulk Modulus (GPa) = 65.64928 66.18984 65.91956
# Shear Modulus (GPa) = 130.81521 8.25329 69.53425
#
# Velocity S-wave (km/s) = 8.01246 2.01257 5.84166
# Velocity P-wave (km/s) = 10.85439 6.15502 8.82332
#
# Compressibility (1/GPa) = 0.01523246
#
# Stress axis : x y z
#
# Youngs Moduli (GPa) = 86.64522 86.64522 84.58990
#
# Poissons Ratio (x) = 0.16696 0.33451
# Poissons Ratio (y) = 0.16696 0.33451
# Poissons Ratio (z) = 0.34264 0.34264
#
# Static dielectric constant tensor:
#      x y z
#    x 1.776950 0.000000 0.000000 
#    y 0.000000 1.776950 0.000000 
#    z 0.000000 0.000000 1.697020 
# 
# From -- ./inp_files/12724.got.cif
#   From: 2010.05.17/outbox.cif.g08.bks.cpg/sg131_7_cif.got.tgz:12724.got - 2010.05.20 12:21:01.
