data_PCOD9566729
_publ_section_title
;
Structure prediction by ZEFSAII (Michael W. Deem and Ramdas Pophale) SiO2 
 PCOD9566729
Probable space group: P 42/M M C
;
_chemical_formula_sum "Si O2"
_cell_formula_units_Z 120
_cell_length_a 13.632867
_cell_length_b 13.632867
_cell_length_c 33.932410
_cell_angle_alpha 90.000000
_cell_angle_beta 90.000000
_cell_angle_gamma 90.000000
_cell_volume 6306.510186
_symmetry_space_group_name_H-M "P 42/M M C"
_symmetry_group_IT_number 131
_symmetry_cell_setting 'tetragonal'
loop_
_space_group_symop_operation_xyz
x,y,z
-x,-y,z
-y,x,1/2+z
y,-x,1/2+z
-x,y,-z
x,-y,-z
y,x,1/2-z
-y,-x,1/2-z
-x,-y,-z
x,y,-z
y,-x,1/2-z
-y,x,1/2-z
x,-y,z
-x,y,z
-y,-x,1/2+z
y,x,1/2+z
loop_
_atom_site_type_symbol
_atom_site_label
_atom_site_fract_x
_atom_site_fract_y
_atom_site_fract_z
Si Si1 0.894379 0.116210 0.659477
Si Si2 0.310232 0.611215 0.830121
Si Si3 0.614987 0.214755 0.785019
Si Si4 0.113069 0.236309 0.226016
Si Si5 0.784298 0.388328 0.374469
Si Si6 0.117364 0.882770 0.500000
Si Si7 0.611726 0.113984 0.376353
Si Si8 0.195082 0.189246 0.582811
O O1 0.800573 0.154009 0.683810
O O2 0.874825 0.133491 0.613781
O O3 0.000000 0.159139 0.670848
O O4 0.897176 0.000000 0.666836
O O5 0.341430 0.500000 0.825855
O O6 0.341413 0.677073 0.793231
O O7 0.366393 0.669331 0.865041
O O8 0.194682 0.611495 0.841258
O O9 0.500000 0.217676 0.774837
O O10 0.678754 0.160088 0.752419
O O11 0.622493 0.170242 0.829968
O O12 0.136231 0.136231 0.250000
O O13 0.000000 0.259288 0.222287
O O14 0.799536 0.500000 0.387297
O O15 0.814828 0.303044 0.404183
O O16 0.164118 0.835351 0.461057
O O17 0.000000 0.867964 0.500000
O O18 0.135556 0.000000 0.500000
O O19 0.500000 0.117318 0.392409
O O20 0.695831 0.149591 0.406332
O O21 0.630736 0.000000 0.364693
#
# Coordination Sequence:
#
# PCOD9566729 Si02
#       8
#    16  16  16  16  16   8  16  16
#     4  10  21  37  59  84 109 145 196 249 303 366
#     4   8  15  30  56  88 120 157 200 248 301 352
#     4   9  19  37  59  85 117 154 202 250 301 362
#     4  11  23  38  55  78 111 150 196 250 301 352
#     4   8  17  32  56  86 116 154 204 249 292 351
#     4  11  24  40  62  94 126 155 196 248 304 372
#     4   9  17  30  52  86 124 159 198 243 295 363
#     4  11  20  37  62  88 122 160 195 244 309 365
#
# _framework density 19.027954999999999
#
# number of rings (size 3 to 8) (size 9 to 14) (size 15 to 20)
#    0.800    1.667    0.000    2.800    0.000    3.067 
#    0.000    3.333    0.000    6.400    0.000    0.000 
#    0.000    4.267    0.000    0.000    0.000    0.000 
#
# Total GULP energy -668505.536810 kJ/mol
# GULP energy per Si atom -5570.879473 kJ/mol
# Density = 1.898465 g / cm^3
# Si number density = 19.027955 Si / 1000 Ang^3
#
#
#
# Elastic Constant Matrix: (Units=GPa)
#
#
# Indices 1 2 3 4 5 6 
#
# 1 126.7400 36.6520 53.1925 0.0000 0.0000 0.0000
# 2 36.6520 126.7400 53.1925 0.0000 0.0000 0.0000
# 3 53.1925 53.1925 126.0425 0.0000 0.0000 0.0000
# 4 0.0000 0.0000 0.0000 20.4078 0.0000 0.0000
# 5 0.0000 0.0000 0.0000 0.0000 20.4078 0.0000
# 6 0.0000 0.0000 0.0000 0.0000 0.0000 18.0734
#
#
#
# Elastic Compliance Matrix: (Units=1/GPa)
#
#
# Indices 1 2 3 4 5 6 
#
# 1 0.009770 -0.001331 -0.003561 0.000000 0.000000 0.000000
# 2 -0.001331 0.009770 -0.003561 0.000000 0.000000 0.000000
# 3 -0.003561 -0.003561 0.010940 0.000000 0.000000 0.000000
# 4 0.000000 0.000000 0.000000 0.049001 0.000000 0.000000
# 5 0.000000 0.000000 0.000000 0.000000 0.049001 0.000000
# 6 0.000000 0.000000 0.000000 0.000000 0.000000 0.055330
#
#
# Mechanical properties :
#
#
# Convention : Reuss Voigt Hill
#
# Bulk Modulus (GPa) = 73.68002 73.95519 73.81761
# Shear Modulus (GPa) = 24.36151 27.54352 25.95252
#
# Velocity S-wave (km/s) = 3.58201 3.80877 3.69713
# Velocity P-wave (km/s) = 7.47755 7.63500 7.55669
#
# Compressibility (1/GPa) = 0.01357220
#
# Stress axis : x y z
#
# Youngs Moduli (GPa) = 102.35724 102.35724 91.40870
#
# Poissons Ratio (x) = 0.13619 0.32555
# Poissons Ratio (y) = 0.13619 0.32555
# Poissons Ratio (z) = 0.36454 0.36454
#
# Static dielectric constant tensor:
#      x y z
#    x 1.710630 0.000000 0.000000 
#    y 0.000000 1.710630 0.000000 
#    z 0.000000 0.000000 1.678450 
# 
# From -- ./inp_files/13945.got.cif
#   From: 2010.05.17/outbox.cif.g08.bks.cpg/sg131_7_cif.got.tgz:13945.got - 2010.05.20 12:21:01.
