data_PCOD9566210
_publ_section_title
;
Structure prediction by ZEFSAII (Michael W. Deem and Ramdas Pophale) SiO2 
 PCOD9566210
Probable space group: P 42/M M C
;
_chemical_formula_sum "Si O2"
_cell_formula_units_Z 80
_cell_length_a 23.091482
_cell_length_b 23.091482
_cell_length_c 7.675573
_cell_angle_alpha 90.000000
_cell_angle_beta 90.000000
_cell_angle_gamma 90.000000
_cell_volume 4092.742485
_symmetry_space_group_name_H-M "P 42/M M C"
_symmetry_group_IT_number 131
_symmetry_cell_setting 'tetragonal'
loop_
_space_group_symop_operation_xyz
x,y,z
-x,-y,z
-y,x,1/2+z
y,-x,1/2+z
-x,y,-z
x,-y,-z
y,x,1/2-z
-y,-x,1/2-z
-x,-y,-z
x,y,-z
y,-x,1/2-z
-y,x,1/2-z
x,-y,z
-x,y,z
-y,-x,1/2+z
y,x,1/2+z
loop_
_atom_site_type_symbol
_atom_site_label
_atom_site_fract_x
_atom_site_fract_y
_atom_site_fract_z
Si Si1 0.938252 0.430061 0.205549
Si Si2 0.000000 0.222422 0.303694
Si Si3 0.811401 0.564928 0.701597
Si Si4 0.224379 0.683975 0.290446
Si Si5 0.870665 0.776626 0.289855
Si Si6 0.094158 0.000000 0.295391
O O1 0.940816 0.500000 0.221779
O O2 0.878456 0.414386 0.293861
O O3 0.000000 0.406836 0.271745
O O4 0.934265 0.416975 0.000000
O O5 0.936268 0.233967 0.223070
O O6 0.000000 0.247206 0.500000
O O7 0.000000 0.152799 0.309843
O O8 0.794329 0.559494 0.500000
O O9 0.807671 0.500000 0.779337
O O10 0.777948 0.618969 0.781353
O O11 0.283296 0.716705 0.250000
O O12 0.217741 0.680938 0.500000
O O13 0.172604 0.726014 0.226779
O O14 0.837579 0.837579 0.250000
O O15 0.874302 0.774614 0.500000
O O16 0.055207 0.055207 0.250000
O O17 0.107554 0.000000 0.500000
#
# Coordination Sequence:
#
# PCOD9566210 Si02
#       6
#    16   8  16  16  16   8
#     4   8  14  25  40  59  87 123 158 190 228 272
#     4  10  19  31  46  64  84 108 140 181 228 269
#     4   9  17  29  46  70  97 122 153 193 234 276
#     4   9  18  33  50  69  92 124 159 190 228 272
#     4   9  18  32  48  64  84 113 148 184 224 272
#     4  11  21  32  45  62  84 107 133 170 222 283
#
# _framework density 19.546796000000001
#
# number of rings (size 3 to 8) (size 9 to 14) (size 15 to 20)
#    0.000    2.900    0.000    2.400    0.000    3.600 
#    1.800    2.000    0.000    0.000    0.000    0.000 
#    0.000    0.400    0.000    5.000    0.000    0.000 
#
# Total GULP energy -445668.647180 kJ/mol
# GULP energy per Si atom -5570.858090 kJ/mol
# Density = 1.950231 g / cm^3
# Si number density = 19.546796 Si / 1000 Ang^3
#
#
#
# Elastic Constant Matrix: (Units=GPa)
#
#
# Indices 1 2 3 4 5 6 
#
# 1 108.7889 59.4070 1.1375 0.0000 0.0000 0.0000
# 2 59.4070 108.7903 1.1353 0.0000 0.0000 0.0000
# 3 1.1375 1.1353 44.5183 0.0000 0.0000 0.0000
# 4 0.0000 0.0000 0.0000 7.6349 0.0000 0.0000
# 5 0.0000 0.0000 0.0000 0.0000 7.6351 0.0000
# 6 0.0000 0.0000 0.0000 0.0000 0.0000 13.6420
#
#
#
# Elastic Compliance Matrix: (Units=1/GPa)
#
#
# Indices 1 2 3 4 5 6 
#
# 1 0.013099 -0.007151 -0.000152 0.000000 0.000000 0.000000
# 2 -0.007151 0.013099 -0.000151 0.000000 0.000000 0.000000
# 3 -0.000152 -0.000151 0.022470 0.000000 0.000000 0.000000
# 4 0.000000 0.000000 0.000000 0.130977 0.000000 0.000000
# 5 0.000000 0.000000 0.000000 0.000000 0.130975 0.000000
# 6 0.000000 0.000000 0.000000 0.000000 0.000000 0.073303
#
#
# Mechanical properties :
#
#
# Convention : Reuss Voigt Hill
#
# Bulk Modulus (GPa) = 29.62253 42.82857 36.22555
# Shear Modulus (GPa) = 12.19260 19.14358 15.66809
#
# Velocity S-wave (km/s) = 2.50024 3.13289 2.83427
# Velocity P-wave (km/s) = 4.85000 5.91988 5.41145
#
# Compressibility (1/GPa) = 0.03375809
#
# Stress axis : x y z
#
# Youngs Moduli (GPa) = 76.34253 76.34359 44.50295
#
# Poissons Ratio (x) = 0.54596 0.00678
# Poissons Ratio (y) = 0.54595 0.00673
# Poissons Ratio (z) = 0.01163 0.01155
#
# Static dielectric constant tensor:
#      x y z
#    x 1.710060 0.000000 0.000000 
#    y 0.000000 1.710060 0.000000 
#    z 0.000000 0.000000 1.755940 
# 
# From -- ./inp_files/2085.got.cif
#   From: 2010.05.17/outbox.cif.g08.bks.cpg/sg131_2_cif.got.tgz:2085.got - 2010.05.20 12:21:01.
