data_PCOD9566291
_publ_section_title
;
Structure prediction by ZEFSAII (Michael W. Deem and Ramdas Pophale) SiO2 
 PCOD9566291
Probable space group: P 42/M M C
;
_chemical_formula_sum "Si O2"
_cell_formula_units_Z 96
_cell_length_a 26.052127
_cell_length_b 26.052127
_cell_length_c 8.700474
_cell_angle_alpha 90.000000
_cell_angle_beta 90.000000
_cell_angle_gamma 90.000000
_cell_volume 5905.127605
_symmetry_space_group_name_H-M "P 42/M M C"
_symmetry_group_IT_number 131
_symmetry_cell_setting 'tetragonal'
loop_
_space_group_symop_operation_xyz
x,y,z
-x,-y,z
-y,x,1/2+z
y,-x,1/2+z
-x,y,-z
x,-y,-z
y,x,1/2-z
-y,-x,1/2-z
-x,-y,-z
x,y,-z
y,-x,1/2-z
-y,x,1/2-z
x,-y,z
-x,y,z
-y,-x,1/2+z
y,x,1/2+z
loop_
_atom_site_type_symbol
_atom_site_label
_atom_site_fract_x
_atom_site_fract_y
_atom_site_fract_z
Si Si1 0.746328 0.334530 0.817131
Si Si2 0.940648 0.139388 0.316860
Si Si3 0.940795 0.252402 0.183950
Si Si4 0.861406 0.333724 0.314459
Si Si5 0.868026 0.445243 0.680727
Si Si6 0.556656 0.256365 0.819679
O O1 0.707461 0.292540 0.750000
O O2 0.803707 0.326775 0.749228
O O3 0.728465 0.392081 0.769607
O O4 0.748550 0.330428 0.000000
O O5 0.902608 0.097393 0.250000
O O6 0.934211 0.143837 0.500000
O O7 0.931059 0.194558 0.240369
O O8 0.000000 0.125559 0.285340
O O9 0.899924 0.290098 0.259975
O O10 0.000000 0.265161 0.226476
O O11 0.936459 0.254836 0.000000
O O12 0.858249 0.335115 0.500000
O O13 0.882492 0.389411 0.257572
O O14 0.882012 0.445991 0.500000
O O15 0.885455 0.500000 0.749050
O O16 0.805872 0.444849 0.687614
O O17 0.500000 0.274311 0.766289
O O18 0.562062 0.269736 0.000000
#
# Coordination Sequence:
#
# PCOD9566291 Si02
#       6
#    16  16  16  16  16  16
#     4  11  21  32  46  68 101 134 166 203 246 293
#     4  10  21  37  57  80 104 129 158 192 232 280
#     4  10  21  37  55  74  98 128 163 202 242 286
#     4  10  19  32  51  73  96 125 163 202 245 295
#     4   7  11  22  42  67  92 118 150 190 234 280
#     4   8  14  27  46  66  91 125 163 200 241 290
#
# _framework density 16.257057
#
# number of rings (size 3 to 8) (size 9 to 14) (size 15 to 20)
#    0.000    2.667    0.000    5.000    0.000    3.167 
#    0.000    4.167    0.000    2.000    0.000    3.500 
#    0.000    0.333    0.000    3.500    0.000    1.667 
#
# Total GULP energy -534659.991214 kJ/mol
# GULP energy per Si atom -5569.374908 kJ/mol
# Density = 1.622006 g / cm^3
# Si number density = 16.257057 Si / 1000 Ang^3
#
#
#
# Elastic Constant Matrix: (Units=GPa)
#
#
# Indices 1 2 3 4 5 6 
#
# 1 101.9473 85.2747 49.4160 0.0000 0.0000 0.0000
# 2 85.2747 101.9510 49.4152 0.0000 0.0000 0.0000
# 3 49.4160 49.4152 73.6885 0.0000 0.0000 0.0000
# 4 0.0000 0.0000 0.0000 17.2287 0.0000 0.0000
# 5 0.0000 0.0000 0.0000 0.0000 17.2291 0.0000
# 6 0.0000 0.0000 0.0000 0.0000 0.0000 -6.6815
#
#
#
# Elastic Compliance Matrix: (Units=1/GPa)
#
#
# Indices 1 2 3 4 5 6 
#
# 1 0.034121 -0.025852 -0.005546 0.000000 0.000000 0.000000
# 2 -0.025852 0.034119 -0.005543 0.000000 0.000000 0.000000
# 3 -0.005546 -0.005543 0.021007 0.000000 0.000000 0.000000
# 4 0.000000 0.000000 0.000000 0.058043 0.000000 0.000000
# 5 0.000000 0.000000 0.000000 0.000000 0.058041 0.000000
# 6 0.000000 0.000000 0.000000 0.000000 0.000000 -0.149667
#
#
# Mechanical properties :
#
#
# Convention : Reuss Voigt Hill
#
# Bulk Modulus (GPa) = 65.08354 71.75539 68.41947
# Shear Modulus (GPa) = 37.12839 11.78732 24.45786
#
# Velocity S-wave (km/s) = 4.78413 2.69561 3.88293
# Velocity P-wave (km/s) = 8.40465 7.34318 7.89178
#
# Compressibility (1/GPa) = 0.01536487
#
# Stress axis : x y z
#
# Youngs Moduli (GPa) = 29.30722 29.30926 47.60311
#
# Poissons Ratio (x) = 0.75770 0.26399
# Poissons Ratio (y) = 0.75765 0.26388
# Poissons Ratio (z) = 0.16253 0.16247
#
# Static dielectric constant tensor:
#      x y z
#    x 1.547410 0.000000 0.000000 
#    y 0.000000 1.547410 0.000000 
#    z 0.000000 0.000000 1.547350 
# 
# From -- ./inp_files/2174.got.cif
#   From: 2010.05.17/outbox.cif.g08.bks.cpg/sg131_2_cif.got.tgz:2174.got - 2010.05.20 12:21:01.
