data_PCOD9566644
_publ_section_title
;
Structure prediction by ZEFSAII (Michael W. Deem and Ramdas Pophale) SiO2 
 PCOD9566644
Probable space group: P 42/M M C
;
_chemical_formula_sum "Si O2"
_cell_formula_units_Z 72
_cell_length_a 21.413771
_cell_length_b 21.413771
_cell_length_c 7.900952
_cell_angle_alpha 90.000000
_cell_angle_beta 90.000000
_cell_angle_gamma 90.000000
_cell_volume 3622.978288
_symmetry_space_group_name_H-M "P 42/M M C"
_symmetry_group_IT_number 131
_symmetry_cell_setting 'tetragonal'
loop_
_space_group_symop_operation_xyz
x,y,z
-x,-y,z
-y,x,1/2+z
y,-x,1/2+z
-x,y,-z
x,-y,-z
y,x,1/2-z
-y,-x,1/2-z
-x,-y,-z
x,y,-z
y,-x,1/2-z
-y,x,1/2-z
x,-y,z
-x,y,z
-y,-x,1/2+z
y,x,1/2+z
loop_
_atom_site_type_symbol
_atom_site_label
_atom_site_fract_x
_atom_site_fract_y
_atom_site_fract_z
Si Si1 0.833259 0.069532 0.296041
Si Si2 0.570143 0.325454 0.295946
Si Si3 0.733778 0.830759 0.703516
Si Si4 0.500000 0.072853 0.798836
Si Si5 0.595124 0.818465 0.295550
O O1 0.897986 0.102015 0.250000
O O2 0.828845 0.068044 0.500000
O O3 0.778525 0.114548 0.230966
O O4 0.827956 0.000000 0.230135
O O5 0.626320 0.373681 0.250000
O O6 0.570270 0.323452 0.500000
O O7 0.500000 0.346333 0.241092
O O8 0.577363 0.252362 0.238017
O O9 0.766245 0.766245 0.750000
O O10 0.731702 0.835792 0.500000
O O11 0.664391 0.831569 0.768378
O O12 0.556272 0.119626 0.749325
O O13 0.500000 0.000000 0.732412
O O14 0.500000 0.067151 0.000000
O O15 0.593426 0.814857 0.500000
#
# Coordination Sequence:
#
# PCOD9566644 Si02
#       5
#    16  16  16   8  16
#     4   9  18  32  48  70 101 133 171 218 265 319
#     4  10  21  37  57  84 118 152 194 241 284 338
#     4   9  18  32  54  81 107 138 177 222 272 324
#     4  11  25  41  57  83 116 147 184 231 281 336
#     4  10  20  38  61  83 111 147 188 231 276 336
#
# _framework density 19.873152999999999
#
# number of rings (size 3 to 8) (size 9 to 14) (size 15 to 20)
#    0.000    2.333    1.111    1.000    0.000    4.889 
#    0.000    4.444    0.000    0.000    0.000    0.000 
#    0.000    0.000    0.000    0.000    0.000    0.000 
#
# Total GULP energy -401053.918307 kJ/mol
# GULP energy per Si atom -5570.193310 kJ/mol
# Density = 1.982792 g / cm^3
# Si number density = 19.873153 Si / 1000 Ang^3
#
#
#
# Elastic Constant Matrix: (Units=GPa)
#
#
# Indices 1 2 3 4 5 6 
#
# 1 193.9507 66.5468 6.1733 0.0000 0.0000 0.0000
# 2 66.5468 193.9857 6.1760 0.0000 0.0000 0.0000
# 3 6.1733 6.1760 19.4316 0.0000 0.0000 0.0000
# 4 0.0000 0.0000 0.0000 23.4607 0.0000 0.0000
# 5 0.0000 0.0000 0.0000 0.0000 23.4598 0.0000
# 6 0.0000 0.0000 0.0000 0.0000 0.0000 3.3561
#
#
#
# Elastic Compliance Matrix: (Units=1/GPa)
#
#
# Indices 1 2 3 4 5 6 
#
# 1 0.005873 -0.001975 -0.001238 0.000000 0.000000 0.000000
# 2 -0.001975 0.005872 -0.001239 0.000000 0.000000 0.000000
# 3 -0.001238 -0.001239 0.052250 0.000000 0.000000 0.000000
# 4 0.000000 0.000000 0.000000 0.042624 0.000000 0.000000
# 5 0.000000 0.000000 0.000000 0.000000 0.042626 0.000000
# 6 0.000000 0.000000 0.000000 0.000000 0.000000 0.297969
#
#
# Mechanical properties :
#
#
# Convention : Reuss Voigt Hill
#
# Bulk Modulus (GPa) = 18.15196 62.79557 40.47377
# Shear Modulus (GPa) = 10.53780 31.95345 21.24562
#
# Velocity S-wave (km/s) = 2.30522 4.01418 3.27320
# Velocity P-wave (km/s) = 4.02978 7.29051 5.89028
#
# Compressibility (1/GPa) = 0.05509047
#
# Stress axis : x y z
#
# Youngs Moduli (GPa) = 170.26719 170.29670 19.13891
#
# Poissons Ratio (x) = 0.33640 0.02369
# Poissons Ratio (y) = 0.33634 0.02371
# Poissons Ratio (z) = 0.21079 0.21096
#
# Static dielectric constant tensor:
#      x y z
#    x 1.703180 0.000000 0.000000 
#    y 0.000000 1.703180 0.000000 
#    z 0.000000 0.000000 1.711200 
# 
# From -- ./inp_files/1787.got.cif
#   From: 2010.05.17/outbox.cif.g08.bks.cpg/sg131_1_cif.got.tgz:1787.got - 2010.05.20 12:21:01.
