data_PCOD9566600
_publ_section_title
;
Structure prediction by ZEFSAII (Michael W. Deem and Ramdas Pophale) SiO2 
 PCOD9566600
Probable space group: P 42/M M C
;
_chemical_formula_sum "Si O2"
_cell_formula_units_Z 56
_cell_length_a 17.898925
_cell_length_b 17.898925
_cell_length_c 10.144941
_cell_angle_alpha 90.000000
_cell_angle_beta 90.000000
_cell_angle_gamma 90.000000
_cell_volume 3250.150129
_symmetry_space_group_name_H-M "P 42/M M C"
_symmetry_group_IT_number 131
_symmetry_cell_setting 'tetragonal'
loop_
_space_group_symop_operation_xyz
x,y,z
-x,-y,z
-y,x,1/2+z
y,-x,1/2+z
-x,y,-z
x,-y,-z
y,x,1/2-z
-y,-x,1/2-z
-x,-y,-z
x,y,-z
y,-x,1/2-z
-y,x,1/2-z
x,-y,z
-x,y,z
-y,-x,1/2+z
y,x,1/2+z
loop_
_atom_site_type_symbol
_atom_site_label
_atom_site_fract_x
_atom_site_fract_y
_atom_site_fract_z
Si Si1 0.151009 0.331069 0.341651
Si Si2 0.835812 0.164189 0.750000
Si Si3 0.000000 0.584621 0.339847
Si Si4 0.089575 0.912506 0.000000
Si Si5 0.589164 0.690478 0.843757
O O1 0.147567 0.317372 0.500000
O O2 0.152954 0.252341 0.268553
O O3 0.076160 0.374426 0.301610
O O4 0.226307 0.378415 0.317892
O O5 0.870572 0.122406 0.625568
O O6 0.000000 0.500000 0.291772
O O7 0.000000 0.582818 0.500000
O O8 0.000000 0.909898 0.000000
O O9 0.112230 0.000000 0.000000
O O10 0.632856 0.632856 0.750000
O O11 0.500000 0.688718 0.821533
O O12 0.602137 0.674543 0.000000
#
# Coordination Sequence:
#
# PCOD9566600 Si02
#       5
#    16   8   8   8  16
#     4  10  20  35  57  88 119 151 192 239 287 345
#     4  12  22  37  62  86 113 156 198 240 288 336
#     4   9  18  32  56  87 118 149 187 241 295 341
#     4  11  26  42  58  82 118 156 197 242 290 338
#     4  10  21  38  60  85 117 153 191 236 289 347
#
# _framework density 17.229972
#
# number of rings (size 3 to 8) (size 9 to 14) (size 15 to 20)
#    0.000    1.714    2.857    1.714    4.000    5.429 
#    0.000    1.429    0.000    0.000    0.000    1.000 
#    0.000    0.000    0.000    0.000    0.000    0.000 
#
# Total GULP energy -312602.797102 kJ/mol
# GULP energy per Si atom -5582.192805 kJ/mol
# Density = 1.719076 g / cm^3
# Si number density = 17.229972 Si / 1000 Ang^3
#
#
#
# Elastic Constant Matrix: (Units=GPa)
#
#
# Indices 1 2 3 4 5 6 
#
# 1 179.1658 108.5302 74.8654 0.0000 0.0000 0.0000
# 2 108.5302 179.1672 74.8656 0.0000 0.0000 0.0000
# 3 74.8654 74.8656 94.6509 0.0000 0.0000 0.0000
# 4 0.0000 0.0000 0.0000 29.3813 0.0000 0.0000
# 5 0.0000 0.0000 0.0000 0.0000 29.3809 0.0000
# 6 0.0000 0.0000 0.0000 0.0000 0.0000 24.6065
#
#
#
# Elastic Compliance Matrix: (Units=1/GPa)
#
#
# Indices 1 2 3 4 5 6 
#
# 1 0.010033 -0.004125 -0.004673 0.000000 0.000000 0.000000
# 2 -0.004125 0.010032 -0.004673 0.000000 0.000000 0.000000
# 3 -0.004673 -0.004673 0.017957 0.000000 0.000000 0.000000
# 4 0.000000 0.000000 0.000000 0.034035 0.000000 0.000000
# 5 0.000000 0.000000 0.000000 0.000000 0.034036 0.000000
# 6 0.000000 0.000000 0.000000 0.000000 0.000000 0.040640
#
#
# Mechanical properties :
#
#
# Convention : Reuss Voigt Hill
#
# Bulk Modulus (GPa) = 90.24094 107.72292 98.98193
# Shear Modulus (GPa) = 28.19002 29.65524 28.92263
#
# Velocity S-wave (km/s) = 4.04927 4.15317 4.10155
# Velocity P-wave (km/s) = 8.62265 9.25499 8.94441
#
# Compressibility (1/GPa) = 0.01108144
#
# Stress axis : x y z
#
# Youngs Moduli (GPa) = 99.67605 99.67683 55.68733
#
# Poissons Ratio (x) = 0.41112 0.26022
# Poissons Ratio (y) = 0.41112 0.26022
# Poissons Ratio (z) = 0.46578 0.46578
#
# Static dielectric constant tensor:
#      x y z
#    x 1.581070 0.000000 0.000000 
#    y 0.000000 1.581070 0.000000 
#    z 0.000000 0.000000 1.561610 
# 
# From -- ./inp_files/1282.got.cif
#   From: 2010.05.17/outbox.cif.g08.bks.cpg/sg131_1_cif.got.tgz:1282.got - 2010.05.20 12:21:01.
