data_PCOD9566649
_publ_section_title
;
Structure prediction by ZEFSAII (Michael W. Deem and Ramdas Pophale) SiO2 
 PCOD9566649
Probable space group: P 42/M M C
;
_chemical_formula_sum "Si O2"
_cell_formula_units_Z 88
_cell_length_a 14.587594
_cell_length_b 14.587594
_cell_length_c 21.463629
_cell_angle_alpha 90.000000
_cell_angle_beta 90.000000
_cell_angle_gamma 90.000000
_cell_volume 4567.415150
_symmetry_space_group_name_H-M "P 42/M M C"
_symmetry_group_IT_number 131
_symmetry_cell_setting 'tetragonal'
loop_
_space_group_symop_operation_xyz
x,y,z
-x,-y,z
-y,x,1/2+z
y,-x,1/2+z
-x,y,-z
x,-y,-z
y,x,1/2-z
-y,-x,1/2-z
-x,-y,-z
x,y,-z
y,-x,1/2-z
-y,x,1/2-z
x,-y,z
-x,y,z
-y,-x,1/2+z
y,x,1/2+z
loop_
_atom_site_type_symbol
_atom_site_label
_atom_site_fract_x
_atom_site_fract_y
_atom_site_fract_z
Si Si1 0.108126 0.606876 0.131046
Si Si2 0.389767 0.390368 0.322050
Si Si3 0.704742 0.267006 0.571045
Si Si4 0.500000 0.110649 0.931079
Si Si5 0.895598 0.696855 0.614976
Si Si6 0.254923 0.102607 0.742631
O O1 0.127190 0.500000 0.143144
O O2 0.174336 0.646292 0.078503
O O3 0.128082 0.668765 0.191987
O O4 0.000000 0.615569 0.116913
O O5 0.364772 0.364772 0.250000
O O6 0.373934 0.500000 0.328423
O O7 0.500000 0.375328 0.328517
O O8 0.336039 0.334387 0.375332
O O9 0.698113 0.302133 0.500000
O O10 0.811807 0.245864 0.586616
O O11 0.406351 0.134669 0.899214
O O12 0.500000 0.000000 0.934251
O O13 0.500000 0.149369 0.000000
O O14 0.900315 0.703673 0.688700
O O15 0.000000 0.713786 0.590631
O O16 0.172972 0.172972 0.750000
O O17 0.221977 0.000000 0.726359
#
# Coordination Sequence:
#
# PCOD9566649 Si02
#       6
#    16  16  16   8  16  16
#     4  10  23  42  63  88 122 161 206 258 308 359
#     4   9  21  42  64  87 120 163 205 248 305 371
#     4  12  25  39  62  93 123 159 206 256 308 367
#     4   9  18  34  54  80 119 163 202 238 290 363
#     4  10  22  38  59  87 123 162 199 248 306 370
#     4  10  20  38  63  93 123 153 198 251 307 368
#
# _framework density 19.266915999999998
#
# number of rings (size 3 to 8) (size 9 to 14) (size 15 to 20)
#    0.000    1.909    1.818    1.636    5.091    3.455 
#    0.000    1.818    0.000    0.545    0.000    1.273 
#    0.000    0.000    0.000    0.000    0.000    0.000 
#
# Total GULP energy -490861.327813 kJ/mol
# GULP energy per Si atom -5577.969634 kJ/mol
# Density = 1.922306 g / cm^3
# Si number density = 19.266916 Si / 1000 Ang^3
#
#
#
# Elastic Constant Matrix: (Units=GPa)
#
#
# Indices 1 2 3 4 5 6 
#
# 1 88.5173 51.1802 41.6650 0.0000 0.0000 0.0000
# 2 51.1802 88.5173 41.6650 0.0000 0.0000 0.0000
# 3 41.6650 41.6650 118.4297 0.0000 0.0000 0.0000
# 4 0.0000 0.0000 0.0000 28.0687 0.0000 0.0000
# 5 0.0000 0.0000 0.0000 0.0000 28.0687 0.0000
# 6 0.0000 0.0000 0.0000 0.0000 0.0000 30.6972
#
#
#
# Elastic Compliance Matrix: (Units=1/GPa)
#
#
# Indices 1 2 3 4 5 6 
#
# 1 0.017921 -0.008862 -0.003187 0.000000 0.000000 0.000000
# 2 -0.008862 0.017921 -0.003187 0.000000 0.000000 0.000000
# 3 -0.003187 -0.003187 0.010686 0.000000 0.000000 0.000000
# 4 0.000000 0.000000 0.000000 0.035627 0.000000 0.000000
# 5 0.000000 0.000000 0.000000 0.000000 0.035627 0.000000
# 6 0.000000 0.000000 0.000000 0.000000 0.000000 0.032576
#
#
# Mechanical properties :
#
#
# Convention : Reuss Voigt Hill
#
# Bulk Modulus (GPa) = 62.28003 62.72051 62.50027
# Shear Modulus (GPa) = 26.85518 28.09718 27.47618
#
# Velocity S-wave (km/s) = 3.73748 3.82293 3.78045
# Velocity P-wave (km/s) = 7.14283 7.21876 7.18090
#
# Compressibility (1/GPa) = 0.01605651
#
# Stress axis : x y z
#
# Youngs Moduli (GPa) = 55.79955 55.79955 93.57638
#
# Poissons Ratio (x) = 0.49448 0.29825
# Poissons Ratio (y) = 0.49448 0.29825
# Poissons Ratio (z) = 0.17785 0.17785
#
# Static dielectric constant tensor:
#      x y z
#    x 1.704880 0.000000 0.000000 
#    y 0.000000 1.704880 0.000000 
#    z 0.000000 0.000000 1.659260 
# 
# From -- ./inp_files/9585.got.cif
#   From: 2010.05.17/outbox.cif.g08.bks.cpg/sg131_5_cif.got.tgz:9585.got - 2010.05.20 12:21:01.
