data_PCOD9566743
_publ_section_title
;
Structure prediction by ZEFSAII (Michael W. Deem and Ramdas Pophale) SiO2 
 PCOD9566743
Probable space group: P 42/M M C
;
_chemical_formula_sum "Si O2"
_cell_formula_units_Z 88
_cell_length_a 14.795193
_cell_length_b 14.795193
_cell_length_c 19.804867
_cell_angle_alpha 90.000000
_cell_angle_beta 90.000000
_cell_angle_gamma 90.000000
_cell_volume 4335.240546
_symmetry_space_group_name_H-M "P 42/M M C"
_symmetry_group_IT_number 131
_symmetry_cell_setting 'tetragonal'
loop_
_space_group_symop_operation_xyz
x,y,z
-x,-y,z
-y,x,1/2+z
y,-x,1/2+z
-x,y,-z
x,-y,-z
y,x,1/2-z
-y,-x,1/2-z
-x,-y,-z
x,y,-z
y,-x,1/2-z
-y,x,1/2-z
x,-y,z
-x,y,z
-y,-x,1/2+z
y,x,1/2+z
loop_
_atom_site_type_symbol
_atom_site_label
_atom_site_fract_x
_atom_site_fract_y
_atom_site_fract_z
Si Si1 0.601749 0.238888 0.880159
Si Si2 0.899234 0.294834 0.122606
Si Si3 0.900839 0.650995 0.279032
Si Si4 0.273998 0.605110 0.077831
Si Si5 0.609691 0.895703 0.000000
Si Si6 0.143093 0.098404 0.826434
O O1 0.500000 0.263918 0.899606
O O2 0.601459 0.184299 0.810319
O O3 0.662692 0.327526 0.879916
O O4 0.635427 0.164632 0.935202
O O5 0.894180 0.333228 0.199297
O O6 0.823942 0.348370 0.082092
O O7 0.883481 0.186988 0.131601
O O8 0.000000 0.309722 0.096561
O O9 0.898588 0.749834 0.313134
O O10 0.000000 0.610435 0.294390
O O11 0.272151 0.500000 0.099092
O O12 0.305615 0.608086 0.000000
O O13 0.500000 0.901540 0.000000
O O14 0.643082 0.000000 0.000000
O O15 0.104456 0.104456 0.750000
O O16 0.118748 0.000000 0.855311
#
# Coordination Sequence:
#
# PCOD9566743 Si02
#       6
#    16  16  16  16   8  16
#     4  11  21  36  60  88 119 153 188 235 295 358
#     4  10  21  38  61  88 118 153 196 245 294 347
#     4   9  18  33  57  91 127 159 188 225 283 355
#     4  11  25  44  63  81 106 148 206 264 307 342
#     4   9  18  32  53  85 120 151 183 219 271 349
#     4   9  16  28  51  85 123 158 188 220 268 339
#
# _framework density 20.298759
#
# number of rings (size 3 to 8) (size 9 to 14) (size 15 to 20)
#    0.000    2.091    2.727    2.182    0.000    4.182 
#    0.000    3.636    0.000    0.000    0.000    3.818 
#    0.000    0.000    0.000    0.000    0.000    0.000 
#
# Total GULP energy -491019.213284 kJ/mol
# GULP energy per Si atom -5579.763787 kJ/mol
# Density = 2.025256 g / cm^3
# Si number density = 20.298759 Si / 1000 Ang^3
#
#
#
# Elastic Constant Matrix: (Units=GPa)
#
#
# Indices 1 2 3 4 5 6 
#
# 1 117.6327 50.1116 12.4369 0.0000 0.0000 0.0000
# 2 50.1116 117.6327 12.4369 0.0000 0.0000 0.0000
# 3 12.4369 12.4369 24.5418 0.0000 0.0000 0.0000
# 4 0.0000 0.0000 0.0000 19.5518 0.0000 0.0000
# 5 0.0000 0.0000 0.0000 0.0000 19.5518 0.0000
# 6 0.0000 0.0000 0.0000 0.0000 0.0000 2.3339
#
#
#
# Elastic Compliance Matrix: (Units=1/GPa)
#
#
# Indices 1 2 3 4 5 6 
#
# 1 0.010628 -0.004182 -0.003267 0.000000 0.000000 0.000000
# 2 -0.004182 0.010628 -0.003267 0.000000 0.000000 0.000000
# 3 -0.003267 -0.003267 0.044058 0.000000 0.000000 0.000000
# 4 0.000000 0.000000 0.000000 0.051146 0.000000 0.000000
# 5 0.000000 0.000000 0.000000 0.000000 0.051146 0.000000
# 6 0.000000 0.000000 0.000000 0.000000 0.000000 0.428460
#
#
# Mechanical properties :
#
#
# Convention : Reuss Voigt Hill
#
# Bulk Modulus (GPa) = 22.78776 45.53085 34.15931
# Shear Modulus (GPa) = 7.90983 20.60896 14.25940
#
# Velocity S-wave (km/s) = 1.97615 3.18981 2.65330
# Velocity P-wave (km/s) = 4.05678 6.00379 5.12362
#
# Compressibility (1/GPa) = 0.04388320
#
# Stress axis : x y z
#
# Youngs Moduli (GPa) = 94.09106 94.09106 22.69757
#
# Poissons Ratio (x) = 0.39351 0.07414
# Poissons Ratio (y) = 0.39351 0.07414
# Poissons Ratio (z) = 0.30735 0.30735
#
# Static dielectric constant tensor:
#      x y z
#    x 1.728590 0.000000 0.000000 
#    y 0.000000 1.728590 0.000000 
#    z 0.000000 0.000000 1.733300 
# 
# From -- ./inp_files/9562.got.cif
#   From: 2010.05.17/outbox.cif.g08.bks.cpg/sg131_5_cif.got.tgz:9562.got - 2010.05.20 12:21:01.
