data_PCOD9566364
_publ_section_title
;
Structure prediction by ZEFSAII (Michael W. Deem and Ramdas Pophale) SiO2 
 PCOD9566364
Probable space group: P 42/M M C
;
_chemical_formula_sum "Si O2"
_cell_formula_units_Z 120
_cell_length_a 27.841651
_cell_length_b 27.841651
_cell_length_c 9.310760
_cell_angle_alpha 90.000000
_cell_angle_beta 90.000000
_cell_angle_gamma 90.000000
_cell_volume 7217.305728
_symmetry_space_group_name_H-M "P 42/M M C"
_symmetry_group_IT_number 131
_symmetry_cell_setting 'tetragonal'
loop_
_space_group_symop_operation_xyz
x,y,z
-x,-y,z
-y,x,1/2+z
y,-x,1/2+z
-x,y,-z
x,-y,-z
y,x,1/2-z
-y,-x,1/2-z
-x,-y,-z
x,y,-z
y,-x,1/2-z
-y,x,1/2-z
x,-y,z
-x,y,z
-y,-x,1/2+z
y,x,1/2+z
loop_
_atom_site_type_symbol
_atom_site_label
_atom_site_fract_x
_atom_site_fract_y
_atom_site_fract_z
Si Si1 0.379537 0.811226 0.668155
Si Si2 0.782020 0.284605 0.665132
Si Si3 0.000000 0.556717 0.672380
Si Si4 0.943200 0.733345 0.828871
Si Si5 0.737192 0.442387 0.665734
Si Si6 0.134803 0.796466 0.333188
Si Si7 0.372256 0.556168 0.672562
Si Si8 0.378348 0.923259 0.669389
O O1 0.371784 0.802038 0.500000
O O2 0.331294 0.800602 0.755043
O O3 0.419616 0.776512 0.732131
O O4 0.390831 0.867400 0.684956
O O5 0.737249 0.262752 0.750000
O O6 0.769991 0.294503 0.500000
O O7 0.823820 0.244485 0.668406
O O8 0.045015 0.585331 0.738766
O O9 0.000000 0.500000 0.710340
O O10 0.000000 0.560308 0.500000
O O11 0.910445 0.771419 0.744443
O O12 0.931314 0.677750 0.788945
O O13 0.000000 0.740919 0.805394
O O14 0.933265 0.737618 0.000000
O O15 0.745225 0.427202 0.500000
O O16 0.739524 0.500000 0.668931
O O17 0.682619 0.429191 0.707419
O O18 0.158143 0.841858 0.250000
O O19 0.124674 0.807996 0.500000
O O20 0.410277 0.589724 0.750000
O O21 0.377093 0.559440 0.500000
O O22 0.378521 0.500000 0.711571
O O23 0.381748 0.936453 0.500000
#
# Coordination Sequence:
#
# PCOD9566364 Si02
#       8
#    16  16   8  16  16  16  16  16
#     4  11  22  35  55  80 106 135 176 225 270 323
#     4  10  20  33  50  74 105 140 177 214 261 314
#     4  11  25  41  57  79 105 135 177 233 292 345
#     4  10  19  34  56  80 110 147 187 228 277 332
#     4   9  20  39  57  72  98 136 173 212 261 316
#     4  10  20  33  52  78 110 147 184 224 269 318
#     4   9  19  36  57  81 108 138 170 206 254 312
#     4  10  21  38  57  78 105 140 179 224 280 341
#
# _framework density 16.626702999999999
#
# number of rings (size 3 to 8) (size 9 to 14) (size 15 to 20)
#    0.000    2.067    2.000    2.200    0.000    5.733 
#    0.000    6.000    0.000    0.000    0.000    0.000 
#    0.000    0.267    0.000    2.800    0.000    1.200 
#
# Total GULP energy -669616.379621 kJ/mol
# GULP energy per Si atom -5580.136497 kJ/mol
# Density = 1.658886 g / cm^3
# Si number density = 16.626703 Si / 1000 Ang^3
#
#
#
# Elastic Constant Matrix: (Units=GPa)
#
#
# Indices 1 2 3 4 5 6 
#
# 1 87.0448 61.5509 66.1764 0.0000 0.0000 0.0000
# 2 61.5509 87.0465 66.1790 0.0000 0.0000 0.0000
# 3 66.1764 66.1790 105.4099 0.0000 0.0000 0.0000
# 4 0.0000 0.0000 0.0000 17.2498 0.0000 0.0000
# 5 0.0000 0.0000 0.0000 0.0000 17.2410 0.0000
# 6 0.0000 0.0000 0.0000 0.0000 0.0000 2.9866
#
#
#
# Elastic Compliance Matrix: (Units=1/GPa)
#
#
# Indices 1 2 3 4 5 6 
#
# 1 0.027245 -0.011979 -0.009584 0.000000 0.000000 0.000000
# 2 -0.011979 0.027246 -0.009585 0.000000 0.000000 0.000000
# 3 -0.009584 -0.009585 0.021521 0.000000 0.000000 0.000000
# 4 0.000000 0.000000 0.000000 0.057972 0.000000 0.000000
# 5 0.000000 0.000000 0.000000 0.000000 0.058001 0.000000
# 6 0.000000 0.000000 0.000000 0.000000 0.000000 0.334824
#
#
# Mechanical properties :
#
#
# Convention : Reuss Voigt Hill
#
# Bulk Modulus (GPa) = 72.90567 74.14598 73.52582
# Shear Modulus (GPa) = 8.42209 13.20182 10.81195
#
# Velocity S-wave (km/s) = 2.25309 2.82088 2.55282
# Velocity P-wave (km/s) = 7.12125 7.43647 7.28057
#
# Compressibility (1/GPa) = 0.01371636
#
# Stress axis : x y z
#
# Youngs Moduli (GPa) = 36.70433 36.70304 46.46520
#
# Poissons Ratio (x) = 0.43965 0.44532
# Poissons Ratio (y) = 0.43966 0.44539
# Poissons Ratio (z) = 0.35177 0.35181
#
# Static dielectric constant tensor:
#      x y z
#    x 1.547550 0.000000 0.000000 
#    y 0.000000 1.547550 0.000000 
#    z 0.000000 0.000000 1.557670 
# 
# From -- ./inp_files/2622.got.cif
#   From: 2010.05.17/outbox.cif.g08.bks.cpg/sg131_2_cif.got.tgz:2622.got - 2010.05.20 12:21:01.
