data_PCOD9566549
_publ_section_title
;
Structure prediction by ZEFSAII (Michael W. Deem and Ramdas Pophale) SiO2 
 PCOD9566549
Probable space group: P 42/M M C
;
_chemical_formula_sum "Si O2"
_cell_formula_units_Z 88
_cell_length_a 18.435459
_cell_length_b 18.435459
_cell_length_c 14.357630
_cell_angle_alpha 90.000000
_cell_angle_beta 90.000000
_cell_angle_gamma 90.000000
_cell_volume 4879.672410
_symmetry_space_group_name_H-M "P 42/M M C"
_symmetry_group_IT_number 131
_symmetry_cell_setting 'tetragonal'
loop_
_space_group_symop_operation_xyz
x,y,z
-x,-y,z
-y,x,1/2+z
y,-x,1/2+z
-x,y,-z
x,-y,-z
y,x,1/2-z
-y,-x,1/2-z
-x,-y,-z
x,y,-z
y,-x,1/2-z
-y,x,1/2-z
x,-y,z
-x,y,z
-y,-x,1/2+z
y,x,1/2+z
loop_
_atom_site_type_symbol
_atom_site_label
_atom_site_fract_x
_atom_site_fract_y
_atom_site_fract_z
Si Si1 0.737383 0.578674 0.896493
Si Si2 0.583867 0.208972 0.110734
Si Si3 0.814062 0.693890 0.767934
Si Si4 0.914552 0.085449 0.750000
Si Si5 0.419464 0.382553 0.144261
Si Si6 0.913193 0.212053 0.892364
O O1 0.755218 0.500000 0.855732
O O2 0.767500 0.641039 0.832946
O O3 0.650957 0.585232 0.903424
O O4 0.768257 0.583936 0.000000
O O5 0.500000 0.185253 0.128063
O O6 0.645659 0.172509 0.175243
O O7 0.586031 0.295294 0.134314
O O8 0.598044 0.201028 0.000000
O O9 0.762943 0.762943 0.750000
O O10 0.880688 0.724246 0.828095
O O11 0.896245 0.136962 0.837608
O O12 0.000000 0.095961 0.728254
O O13 0.408446 0.408446 0.250000
O O14 0.500000 0.403347 0.112286
O O15 0.000000 0.218053 0.895405
O O16 0.886461 0.213344 0.000000
#
# Coordination Sequence:
#
# PCOD9566549 Si02
#       6
#    16  16  16   8  16  16
#     4  11  22  34  49  72 104 144 192 241 289 340
#     4  10  20  34  54  78 106 142 185 236 294 351
#     4  12  21  35  57  84 110 147 186 237 283 333
#     4   9  18  36  62  94 130 164 194 217 250 314
#     4  11  20  31  46  66  99 141 182 226 282 344
#     4  10  22  40  61  89 124 158 189 222 268 326
#
# _framework density 18.033995999999998
#
# number of rings (size 3 to 8) (size 9 to 14) (size 15 to 20)
#    0.000    1.364    4.545    2.182    0.000    3.455 
#    0.000    2.727    0.000    2.727    0.000    7.636 
#    0.000    0.000    0.000    0.000    0.000    0.000 
#
# Total GULP energy -490756.658426 kJ/mol
# GULP energy per Si atom -5576.780209 kJ/mol
# Density = 1.799295 g / cm^3
# Si number density = 18.033996 Si / 1000 Ang^3
#
#
#
# Elastic Constant Matrix: (Units=GPa)
#
#
# Indices 1 2 3 4 5 6 
#
# 1 51.6657 30.5408 43.6901 0.0000 0.0000 0.0000
# 2 30.5408 51.6649 43.6903 0.0000 0.0000 0.0000
# 3 43.6901 43.6903 135.9432 0.0000 0.0000 0.0000
# 4 0.0000 0.0000 0.0000 21.8069 0.0000 0.0000
# 5 0.0000 0.0000 0.0000 0.0000 21.8069 0.0000
# 6 0.0000 0.0000 0.0000 0.0000 0.0000 10.6417
#
#
#
# Elastic Compliance Matrix: (Units=1/GPa)
#
#
# Indices 1 2 3 4 5 6 
#
# 1 0.032907 -0.014431 -0.005938 0.000000 0.000000 0.000000
# 2 -0.014431 0.032908 -0.005938 0.000000 0.000000 0.000000
# 3 -0.005938 -0.005938 0.011173 0.000000 0.000000 0.000000
# 4 0.000000 0.000000 0.000000 0.045857 0.000000 0.000000
# 5 0.000000 0.000000 0.000000 0.000000 0.045857 0.000000
# 6 0.000000 0.000000 0.000000 0.000000 0.000000 0.093970
#
#
# Mechanical properties :
#
#
# Convention : Reuss Voigt Hill
#
# Bulk Modulus (GPa) = 41.02839 52.79067 46.90953
# Shear Modulus (GPa) = 15.46026 18.94129 17.20077
#
# Velocity S-wave (km/s) = 2.93112 3.24436 3.09171
# Velocity P-wave (km/s) = 5.85280 6.58566 6.23002
#
# Compressibility (1/GPa) = 0.02437337
#
# Stress axis : x y z
#
# Youngs Moduli (GPa) = 30.38871 30.38797 89.50303
#
# Poissons Ratio (x) = 0.43853 0.53146
# Poissons Ratio (y) = 0.43854 0.53149
# Poissons Ratio (z) = 0.18044 0.18045
#
# Static dielectric constant tensor:
#      x y z
#    x 1.613810 0.000000 0.000000 
#    y 0.000000 1.613820 0.000000 
#    z 0.000000 0.000000 1.718020 
# 
# From -- ./inp_files/5921.got.cif
#   From: 2010.05.17/outbox.cif.g08.bks.cpg/sg131_3_cif.got.tgz:5921.got - 2010.05.20 12:21:01.
