data_PCOD9566415
_publ_section_title
;
Structure prediction by ZEFSAII (Michael W. Deem and Ramdas Pophale) SiO2 
 PCOD9566415
Probable space group: P 42/M M C
;
_chemical_formula_sum "Si O2"
_cell_formula_units_Z 96
_cell_length_a 24.321335
_cell_length_b 24.321335
_cell_length_c 7.766563
_cell_angle_alpha 90.000000
_cell_angle_beta 90.000000
_cell_angle_gamma 90.000000
_cell_volume 4594.134323
_symmetry_space_group_name_H-M "P 42/M M C"
_symmetry_group_IT_number 131
_symmetry_cell_setting 'tetragonal'
loop_
_space_group_symop_operation_xyz
x,y,z
-x,-y,z
-y,x,1/2+z
y,-x,1/2+z
-x,y,-z
x,-y,-z
y,x,1/2-z
-y,-x,1/2-z
-x,-y,-z
x,y,-z
y,-x,1/2-z
-y,x,1/2-z
x,-y,z
-x,y,z
-y,-x,1/2+z
y,x,1/2+z
loop_
_atom_site_type_symbol
_atom_site_label
_atom_site_fract_x
_atom_site_fract_y
_atom_site_fract_z
Si Si1 0.566797 0.060077 0.295784
Si Si2 0.652292 0.734887 0.203897
Si Si3 0.851278 0.060209 0.700663
Si Si4 0.823128 0.739108 0.291758
Si Si5 0.179925 0.437337 0.793283
Si Si6 0.271526 0.940936 0.803251
O O1 0.579872 0.058663 0.500000
O O2 0.500000 0.061409 0.282413
O O3 0.585354 0.120192 0.227199
O O4 0.584303 0.000000 0.223279
O O5 0.673878 0.673878 0.250000
O O6 0.697651 0.777192 0.277753
O O7 0.595984 0.764721 0.253817
O O8 0.655075 0.737540 0.000000
O O9 0.892995 0.107006 0.750000
O O10 0.835712 0.065511 0.500000
O O11 0.794961 0.060896 0.805569
O O12 0.877044 0.000000 0.725330
O O13 0.800038 0.800038 0.250000
O O14 0.826324 0.736428 0.500000
O O15 0.881643 0.718418 0.221242
O O16 0.185102 0.500000 0.730947
O O17 0.174533 0.438653 0.000000
O O18 0.286784 0.000000 0.722559
O O19 0.292042 0.941158 0.000000
#
# Coordination Sequence:
#
# PCOD9566415 Si02
#       6
#    16  16  16  16  16  16
#     4   7  10  19  38  64  93 127 168 210 249 293
#     4  10  20  34  51  72 100 133 170 211 254 299
#     4  10  20  31  42  57  76  97 124 162 210 266
#     4   9  18  31  47  66  86 114 152 191 232 279
#     4   9  17  30  50  76 105 137 174 216 261 309
#     4   9  17  30  47  64  83 108 139 177 224 279
#
# _framework density 20.89621
#
# number of rings (size 3 to 8) (size 9 to 14) (size 15 to 20)
#    0.000    3.000    0.000    3.000    0.000    4.167 
#    0.000    1.667    0.000    1.500    0.000    2.333 
#    0.000    0.333    0.000    3.500    0.000    1.500 
#
# Total GULP energy -534583.213595 kJ/mol
# GULP energy per Si atom -5568.575142 kJ/mol
# Density = 2.084865 g / cm^3
# Si number density = 20.896210 Si / 1000 Ang^3
#
#
#
# Elastic Constant Matrix: (Units=GPa)
#
#
# Indices 1 2 3 4 5 6 
#
# 1 91.6793 44.1327 3.8954 0.0000 0.0000 0.0000
# 2 44.1327 91.6799 3.8925 0.0000 0.0000 0.0000
# 3 3.8954 3.8925 44.6298 0.0000 0.0000 0.0000
# 4 0.0000 0.0000 0.0000 8.5582 0.0000 0.0000
# 5 0.0000 0.0000 0.0000 0.0000 8.5587 0.0000
# 6 0.0000 0.0000 0.0000 0.0000 0.0000 17.5659
#
#
#
# Elastic Compliance Matrix: (Units=1/GPa)
#
#
# Indices 1 2 3 4 5 6 
#
# 1 0.014216 -0.006816 -0.000646 0.000000 0.000000 0.000000
# 2 -0.006816 0.014216 -0.000645 0.000000 0.000000 0.000000
# 3 -0.000646 -0.000645 0.022519 0.000000 0.000000 0.000000
# 4 0.000000 0.000000 0.000000 0.116847 0.000000 0.000000
# 5 0.000000 0.000000 0.000000 0.000000 0.116840 0.000000
# 6 0.000000 0.000000 0.000000 0.000000 0.000000 0.056928
#
#
# Mechanical properties :
#
#
# Convention : Reuss Voigt Hill
#
# Bulk Modulus (GPa) = 28.78787 36.87000 32.82894
# Shear Modulus (GPa) = 13.53693 18.67447 16.10570
#
# Velocity S-wave (km/s) = 2.54799 2.99269 2.77925
# Velocity P-wave (km/s) = 4.73950 5.44281 5.10329
#
# Compressibility (1/GPa) = 0.03473685
#
# Stress axis : x y z
#
# Youngs Moduli (GPa) = 70.34290 70.34373 44.40652
#
# Poissons Ratio (x) = 0.47945 0.02870
# Poissons Ratio (y) = 0.47945 0.02864
# Poissons Ratio (z) = 0.04547 0.04537
#
# Static dielectric constant tensor:
#      x y z
#    x 1.825560 0.000000 0.000000 
#    y 0.000000 1.825560 0.000000 
#    z 0.000000 0.000000 1.779790 
# 
# From -- ./inp_files/2263.got.cif
#   From: 2010.05.17/outbox.cif.g08.bks.cpg/sg131_2_cif.got.tgz:2263.got - 2010.05.20 12:21:01.
