data_PCOD9566612
_publ_section_title
;
Structure prediction by ZEFSAII (Michael W. Deem and Ramdas Pophale) SiO2 
 PCOD9566612
Probable space group: P 42/M M C
;
_chemical_formula_sum "Si O2"
_cell_formula_units_Z 88
_cell_length_a 15.850425
_cell_length_b 15.850425
_cell_length_c 19.455094
_cell_angle_alpha 90.000000
_cell_angle_beta 90.000000
_cell_angle_gamma 90.000000
_cell_volume 4887.819465
_symmetry_space_group_name_H-M "P 42/M M C"
_symmetry_group_IT_number 131
_symmetry_cell_setting 'tetragonal'
loop_
_space_group_symop_operation_xyz
x,y,z
-x,-y,z
-y,x,1/2+z
y,-x,1/2+z
-x,y,-z
x,-y,-z
y,x,1/2-z
-y,-x,1/2-z
-x,-y,-z
x,y,-z
y,-x,1/2-z
-y,x,1/2-z
x,-y,z
-x,y,z
-y,-x,1/2+z
y,x,1/2+z
loop_
_atom_site_type_symbol
_atom_site_label
_atom_site_fract_x
_atom_site_fract_y
_atom_site_fract_z
Si Si1 0.240668 0.101621 0.420671
Si Si2 0.602059 0.814343 0.922691
Si Si3 0.204910 0.671611 0.714917
Si Si4 0.000000 0.406641 0.417583
Si Si5 0.099730 0.594737 0.830014
Si Si6 0.834253 0.097505 0.182245
O O1 0.240540 0.130698 0.500000
O O2 0.328331 0.122406 0.381353
O O3 0.161373 0.135958 0.377421
O O4 0.234942 0.000000 0.420900
O O5 0.500000 0.816208 0.923047
O O6 0.636660 0.764782 0.858329
O O7 0.632751 0.909778 0.904906
O O8 0.629132 0.791939 0.000000
O O9 0.283618 0.716383 0.750000
O O10 0.158923 0.604223 0.763456
O O11 0.134539 0.744891 0.706973
O O12 0.000000 0.500000 0.384840
O O13 0.000000 0.416893 0.500000
O O14 0.108916 0.500000 0.859171
O O15 0.000000 0.604937 0.811929
O O16 0.892611 0.107390 0.250000
O O17 0.830281 0.000000 0.161078
#
# Coordination Sequence:
#
# PCOD9566612 Si02
#       6
#    16  16  16   8  16  16
#     4  10  21  38  56  76 104 138 189 250 295 339
#     4   9  18  32  50  74 103 137 176 216 271 341
#     4  11  21  34  50  77 112 147 185 230 275 330
#     4   7  12  24  42  68 100 128 162 210 255 312
#     4  10  20  36  58  81 106 143 190 235 288 349
#     4  11  22  36  54  75 108 152 197 239 286 337
#
# _framework density 18.003938999999999
#
# number of rings (size 3 to 8) (size 9 to 14) (size 15 to 20)
#    0.000    2.091    3.636    2.727    2.545    2.727 
#    0.000    2.727    0.000    0.000    0.000    0.000 
#    0.000    5.818    0.000    8.000    0.000    0.000 
#
# Total GULP energy -490370.166034 kJ/mol
# GULP energy per Si atom -5572.388250 kJ/mol
# Density = 1.796296 g / cm^3
# Si number density = 18.003939 Si / 1000 Ang^3
#
#
#
# Elastic Constant Matrix: (Units=GPa)
#
#
# Indices 1 2 3 4 5 6 
#
# 1 69.6951 8.9910 40.6240 0.0000 0.0000 0.0000
# 2 8.9910 69.6975 40.6242 0.0000 0.0000 0.0000
# 3 40.6240 40.6242 128.3114 0.0000 0.0000 0.0000
# 4 0.0000 0.0000 0.0000 21.1479 0.0000 0.0000
# 5 0.0000 0.0000 0.0000 0.0000 21.1475 0.0000
# 6 0.0000 0.0000 0.0000 0.0000 0.0000 6.9549
#
#
#
# Elastic Compliance Matrix: (Units=1/GPa)
#
#
# Indices 1 2 3 4 5 6 
#
# 1 0.017677 0.001204 -0.005978 0.000000 0.000000 0.000000
# 2 0.001204 0.017677 -0.005978 0.000000 0.000000 0.000000
# 3 -0.005978 -0.005978 0.011579 0.000000 0.000000 0.000000
# 4 0.000000 0.000000 0.000000 0.047286 0.000000 0.000000
# 5 0.000000 0.000000 0.000000 0.000000 0.047287 0.000000
# 6 0.000000 0.000000 0.000000 0.000000 0.000000 0.143783
#
#
# Mechanical properties :
#
#
# Convention : Reuss Voigt Hill
#
# Bulk Modulus (GPa) = 39.32469 49.79805 44.56137
# Shear Modulus (GPa) = 15.85950 21.68105 18.77027
#
# Velocity S-wave (km/s) = 2.97120 3.47398 3.23238
# Velocity P-wave (km/s) = 5.80176 6.61898 6.22380
#
# Compressibility (1/GPa) = 0.02542932
#
# Stress axis : x y z
#
# Youngs Moduli (GPa) = 56.56973 56.57198 86.36517
#
# Poissons Ratio (x) = -0.06811 0.51628
# Poissons Ratio (y) = -0.06811 0.51626
# Poissons Ratio (z) = 0.33817 0.33817
#
# Static dielectric constant tensor:
#      x y z
#    x 1.725050 0.000000 0.000000 
#    y 0.000000 1.725080 0.000000 
#    z 0.000000 0.000000 1.656280 
# 
# From -- ./inp_files/9553.got.cif
#   From: 2010.05.17/outbox.cif.g08.bks.cpg/sg131_5_cif.got.tgz:9553.got - 2010.05.20 12:21:01.
