data_PCOD9566931
_publ_section_title
;
Structure prediction by ZEFSAII (Michael W. Deem and Ramdas Pophale) SiO2 
 PCOD9566931
Probable space group: P 42/M M C
;
_chemical_formula_sum "Si O2"
_cell_formula_units_Z 112
_cell_length_a 15.000000
_cell_length_b 15.000000
_cell_length_c 30.000000
_cell_angle_alpha 90.000000
_cell_angle_beta 90.000000
_cell_angle_gamma 90.000000
_cell_volume 6750.000000
_symmetry_space_group_name_H-M "P 42/M M C"
_symmetry_group_IT_number 131
_symmetry_cell_setting 'tetragonal'
loop_
_space_group_symop_operation_xyz
x,y,z
-x,-y,z
-y,x,1/2+z
y,-x,1/2+z
-x,y,-z
x,-y,-z
y,x,1/2-z
-y,-x,1/2-z
-x,-y,-z
x,y,-z
y,-x,1/2-z
-y,x,1/2-z
x,-y,z
-x,y,z
-y,-x,1/2+z
y,x,1/2+z
loop_
_atom_site_type_symbol
_atom_site_label
_atom_site_fract_x
_atom_site_fract_y
_atom_site_fract_z
Si Si1 0.596084 0.604163 0.304085
Si Si2 0.789946 0.391067 0.690508
Si Si3 0.897919 0.608404 0.124388
Si Si4 0.606591 0.757560 0.551857
Si Si5 0.900591 0.608231 0.395297
Si Si6 0.391622 0.103452 0.724295
Si Si7 0.270477 0.599600 0.446751
O O1 0.602837 0.602837 0.250000
O O2 0.592183 0.500000 0.317679
O O3 0.500000 0.646618 0.315964
O O4 0.690198 0.641797 0.320100
O O5 0.784520 0.500000 0.691795
O O6 0.860686 0.367453 0.652681
O O7 0.828083 0.361310 0.738049
O O8 0.896481 0.500000 0.124335
O O9 0.833753 0.638346 0.085216
O O10 0.872270 0.636777 0.174323
O O11 0.000000 0.635246 0.116659
O O12 0.629716 0.775319 0.500000
O O13 0.500000 0.750785 0.554228
O O14 0.651181 0.665379 0.566194
O O15 0.905428 0.500000 0.396697
O O16 0.825140 0.633832 0.430512
O O17 0.000000 0.642437 0.402850
O O18 0.500000 0.104631 0.725034
O O19 0.366537 0.000000 0.733427
O O20 0.270247 0.594148 0.500000
O O21 0.283839 0.500000 0.428153
#
# Coordination Sequence:
#
# PCOD9566931 Si02
#       7
#    16  16  16  16  16  16  16
#     4   8  14  25  37  48  71 111 153 186 211 240
#     4   9  15  24  39  57  77 103 139 182 224 262
#     4   8  14  25  41  62  87 113 144 183 224 264
#     4   9  17  29  45  64  87 117 152 187 220 259
#     4   9  17  29  45  64  82 100 133 187 242 283
#     4   8  13  22  37  56  77 102 134 174 219 262
#     4   9  18  32  47  62  83 113 148 185 225 270
#
# _framework density 16.592593000000001
#
# number of rings (size 3 to 8) (size 9 to 14) (size 15 to 20)
#    0.000    3.429    0.000    1.714    0.000    2.571 
#    2.571    5.000    0.000    2.571    0.000    0.000 
#    0.000    0.571    0.000    3.143    0.000    0.286 
#
# Total GULP energy -623482.299933 kJ/mol
# GULP energy per Si atom -5566.806249 kJ/mol
# Density = 1.655483 g / cm^3
# Si number density = 16.592593 Si / 1000 Ang^3
#
#
#
# Elastic Constant Matrix: (Units=GPa)
#
#
# Indices 1 2 3 4 5 6 
#
# 1 25.1462 13.0548 18.9412 0.0000 0.0000 0.0000
# 2 13.0548 25.1462 18.9412 0.0000 0.0000 0.0000
# 3 18.9412 18.9412 40.0954 0.0000 0.0000 0.0000
# 4 0.0000 0.0000 0.0000 5.8865 0.0000 0.0000
# 5 0.0000 0.0000 0.0000 0.0000 5.8865 0.0000
# 6 0.0000 0.0000 0.0000 0.0000 0.0000 -1.1760
#
#
#
# Elastic Compliance Matrix: (Units=1/GPa)
#
#
# Indices 1 2 3 4 5 6 
#
# 1 0.065976 -0.016727 -0.023265 0.000000 0.000000 0.000000
# 2 -0.016727 0.065976 -0.023265 0.000000 0.000000 0.000000
# 3 -0.023265 -0.023265 0.046922 0.000000 0.000000 0.000000
# 4 0.000000 0.000000 0.000000 0.169879 0.000000 0.000000
# 5 0.000000 0.000000 0.000000 0.000000 0.169879 0.000000
# 6 0.000000 0.000000 0.000000 0.000000 0.000000 -0.850308
#
#
# Mechanical properties :
#
#
# Convention : Reuss Voigt Hill
#
# Bulk Modulus (GPa) = 19.09934 21.36250 20.23092
# Shear Modulus (GPa) = -26.63710 4.74944 -10.94383
#
# Velocity S-wave (km/s) = -4.01104 1.69369 -2.57098
# Velocity P-wave (km/s) = 3.14889 4.08992 1.84553
#
# Compressibility (1/GPa) = 0.05235784
#
# Stress axis : x y z
#
# Youngs Moduli (GPa) = 15.15706 15.15706 21.31211
#
# Poissons Ratio (x) = 0.25354 0.49583
# Poissons Ratio (y) = 0.25354 0.49583
# Poissons Ratio (z) = 0.35263 0.35263
#
# Static dielectric constant tensor:
#      x y z
#    x 1.567790 0.000000 0.000000 
#    y 0.000000 1.567790 0.000000 
#    z 0.000000 0.000000 1.599440 
# 
# From -- ./inp_files/13903.got.cif
#   From: 2010.05.17/outbox.ucp.g08.bks.cvg/sg131_7_cif.got.tgz:13903.got - 2010.06.11 11:38:44.
