data_PCOD9566863
_publ_section_title
;
Structure prediction by ZEFSAII (Michael W. Deem and Ramdas Pophale) SiO2 
 PCOD9566863
Probable space group: P 42/M M C
;
_chemical_formula_sum "Si O2"
_cell_formula_units_Z 48
_cell_length_a 12.211313
_cell_length_b 12.211313
_cell_length_c 17.564140
_cell_angle_alpha 90.000000
_cell_angle_beta 90.000000
_cell_angle_gamma 90.000000
_cell_volume 2619.097202
_symmetry_space_group_name_H-M "P 42/M M C"
_symmetry_group_IT_number 131
_symmetry_cell_setting 'tetragonal'
loop_
_space_group_symop_operation_xyz
x,y,z
-x,-y,z
-y,x,1/2+z
y,-x,1/2+z
-x,y,-z
x,-y,-z
y,x,1/2-z
-y,-x,1/2-z
-x,-y,-z
x,y,-z
y,-x,1/2-z
-y,x,1/2-z
x,-y,z
-x,y,z
-y,-x,1/2+z
y,x,1/2+z
loop_
_atom_site_type_symbol
_atom_site_label
_atom_site_fract_x
_atom_site_fract_y
_atom_site_fract_z
Si Si1 0.500000 0.867975 0.592052
Si Si2 0.626016 0.500000 0.590734
Si Si3 0.123524 0.869058 0.089057
Si Si4 0.274433 0.301155 0.839296
O O1 0.500000 0.848734 0.500000
O O2 0.604163 0.808150 0.630613
O O3 0.500000 0.000000 0.603441
O O4 0.500000 0.500000 0.618876
O O5 0.624102 0.500000 0.500000
O O6 0.682371 0.610256 0.619099
O O7 0.214888 0.810689 0.137863
O O8 0.000000 0.835954 0.112009
O O9 0.129806 0.000000 0.094024
O O10 0.136656 0.838499 0.000000
O O11 0.299761 0.299761 0.750000
#
# Coordination Sequence:
#
# PCOD9566863 Si02
#       4
#     8   8  16  16
#     4  11  23  41  67  93 118 154 208 266 306 348
#     4  11  23  40  63  83 112 159 200 237 289 358
#     4   9  19  38  63  88 118 160 207 251 296 355
#     4  12  24  38  59  91 126 160 194 249 311 366
#
# _framework density 18.326924999999999
#
# number of rings (size 3 to 8) (size 9 to 14) (size 15 to 20)
#    0.000    1.333    1.667    6.000    0.000    5.333 
#    0.000    2.500    0.000    3.000    0.000    0.000 
#    0.000    0.000    0.000    0.000    0.000    0.000 
#
# Total GULP energy -268161.522188 kJ/mol
# GULP energy per Si atom -5586.698379 kJ/mol
# Density = 1.828521 g / cm^3
# Si number density = 18.326925 Si / 1000 Ang^3
#
#
#
# Elastic Constant Matrix: (Units=GPa)
#
#
# Indices 1 2 3 4 5 6 
#
# 1 90.7522 40.3854 49.3290 0.0000 0.0000 0.0000
# 2 40.3854 90.7522 49.3290 0.0000 0.0000 0.0000
# 3 49.3290 49.3290 102.1759 0.0000 0.0000 0.0000
# 4 0.0000 0.0000 0.0000 -12.8427 0.0000 0.0000
# 5 0.0000 0.0000 0.0000 0.0000 -12.8427 0.0000
# 6 0.0000 0.0000 0.0000 0.0000 0.0000 19.4093
#
#
#
# Elastic Compliance Matrix: (Units=1/GPa)
#
#
# Indices 1 2 3 4 5 6 
#
# 1 0.015915 -0.003940 -0.005781 0.000000 0.000000 0.000000
# 2 -0.003940 0.015915 -0.005781 0.000000 0.000000 0.000000
# 3 -0.005781 -0.005781 0.015369 0.000000 0.000000 0.000000
# 4 0.000000 0.000000 0.000000 -0.077865 0.000000 0.000000
# 5 0.000000 0.000000 0.000000 0.000000 -0.077865 0.000000
# 6 0.000000 0.000000 0.000000 0.000000 0.000000 0.051522
#
#
# Mechanical properties :
#
#
# Convention : Reuss Voigt Hill
#
# Bulk Modulus (GPa) = 61.75142 62.41858 62.08500
# Shear Modulus (GPa) = -242.63707 8.38723 -117.12492
#
# Velocity S-wave (km/s) = -11.51873 2.14159 -8.00296
# Velocity P-wave (km/s) = 11.96414 6.34409 7.17263
#
# Compressibility (1/GPa) = 0.01619396
#
# Stress axis : x y z
#
# Youngs Moduli (GPa) = 62.83500 62.83500 65.06444
#
# Poissons Ratio (x) = 0.24755 0.37616
# Poissons Ratio (y) = 0.24755 0.37616
# Poissons Ratio (z) = 0.36327 0.36327
#
# Static dielectric constant tensor:
#      x y z
#    x 1.641080 0.000000 0.000000 
#    y 0.000000 1.641080 0.000000 
#    z 0.000000 0.000000 1.661990 
# 
# From -- ./inp_files/7035.got.cif
#   From: 2010.05.17/outbox.cif.g08.bks.cpg/sg131_4_cif.got.tgz:7035.got - 2010.05.20 12:21:01.
