data_PCOD9566268
_publ_section_title
;
Structure prediction by ZEFSAII (Michael W. Deem and Ramdas Pophale) SiO2 
 PCOD9566268
Probable space group: P 42/M M C
;
_chemical_formula_sum "Si O2"
_cell_formula_units_Z 96
_cell_length_a 14.987184
_cell_length_b 14.987184
_cell_length_c 28.601972
_cell_angle_alpha 90.000000
_cell_angle_beta 90.000000
_cell_angle_gamma 90.000000
_cell_volume 6424.451512
_symmetry_space_group_name_H-M "P 42/M M C"
_symmetry_group_IT_number 131
_symmetry_cell_setting 'tetragonal'
loop_
_space_group_symop_operation_xyz
x,y,z
-x,-y,z
-y,x,1/2+z
y,-x,1/2+z
-x,y,-z
x,-y,-z
y,x,1/2-z
-y,-x,1/2-z
-x,-y,-z
x,y,-z
y,-x,1/2-z
-y,x,1/2-z
x,-y,z
-x,y,z
-y,-x,1/2+z
y,x,1/2+z
loop_
_atom_site_type_symbol
_atom_site_label
_atom_site_fract_x
_atom_site_fract_y
_atom_site_fract_z
Si Si1 0.898764 0.768685 0.693094
Si Si2 0.104006 0.731189 0.202150
Si Si3 0.768159 0.839416 0.444630
Si Si4 0.896045 0.689484 0.591938
Si Si5 0.107861 0.604092 0.881108
Si Si6 0.107322 0.500000 0.552678
Si Si7 0.897340 0.000000 0.443053
O O1 0.819997 0.840680 0.690175
O O2 0.885906 0.717225 0.742178
O O3 0.893459 0.709018 0.647017
O O4 0.000000 0.807328 0.694619
O O5 0.129061 0.647734 0.169544
O O6 0.000000 0.749068 0.193045
O O7 0.753347 0.849111 0.500000
O O8 0.823884 0.751030 0.433483
O O9 0.674687 0.850630 0.417745
O O10 0.838224 0.915736 0.428659
O O11 0.870754 0.589098 0.580001
O O12 0.000000 0.706695 0.576513
O O13 0.135035 0.500000 0.885260
O O14 0.000000 0.606382 0.887139
O O15 0.143838 0.500000 0.500000
O O16 0.000000 0.500000 0.548941
O O17 0.901579 0.000000 0.500000
O O18 0.000000 0.000000 0.426261
#
# Coordination Sequence:
#
# PCOD9566268 Si02
#       7
#    16  16  16  16  16   8   8
#     4   9  17  29  48  72  98 127 158 197 239 286
#     4   9  17  31  47  67  98 130 161 197 238 287
#     4  11  20  31  47  69  96 128 166 205 243 286
#     4  10  19  32  49  72  99 129 162 197 240 292
#     4  10  20  34  49  66  93 132 173 210 248 287
#     4   9  18  32  48  68  97 131 161 193 237 293
#     4   9  18  30  43  65  97 129 160 196 239 285
#
# _framework density 14.942909
#
# number of rings (size 3 to 8) (size 9 to 14) (size 15 to 20)
#    0.000    2.333    2.500    1.000    0.000    2.333 
#    1.500    2.500    0.000    0.000    0.000    0.583 
#    0.000    2.000    0.000    0.000    0.000    0.000 
#
# Total GULP energy -534610.423004 kJ/mol
# GULP energy per Si atom -5568.858573 kJ/mol
# Density = 1.490890 g / cm^3
# Si number density = 14.942909 Si / 1000 Ang^3
#
#
#
# Elastic Constant Matrix: (Units=GPa)
#
#
# Indices 1 2 3 4 5 6 
#
# 1 91.2798 43.8843 30.5291 0.0000 0.0000 0.0000
# 2 43.8843 91.2798 30.5291 0.0000 0.0000 0.0000
# 3 30.5291 30.5291 64.8011 0.0000 0.0000 0.0000
# 4 0.0000 0.0000 0.0000 16.2334 0.0000 0.0000
# 5 0.0000 0.0000 0.0000 0.0000 16.2334 0.0000
# 6 0.0000 0.0000 0.0000 0.0000 0.0000 4.2695
#
#
#
# Elastic Compliance Matrix: (Units=1/GPa)
#
#
# Indices 1 2 3 4 5 6 
#
# 1 0.015249 -0.005850 -0.004428 0.000000 0.000000 0.000000
# 2 -0.005850 0.015249 -0.004428 0.000000 0.000000 0.000000
# 3 -0.004428 -0.004428 0.019604 0.000000 0.000000 0.000000
# 4 0.000000 0.000000 0.000000 0.061601 0.000000 0.000000
# 5 0.000000 0.000000 0.000000 0.000000 0.061601 0.000000
# 6 0.000000 0.000000 0.000000 0.000000 0.000000 0.234222
#
#
# Mechanical properties :
#
#
# Convention : Reuss Voigt Hill
#
# Bulk Modulus (GPa) = 48.33324 50.80508 49.56916
# Shear Modulus (GPa) = 11.26546 16.84181 14.05363
#
# Velocity S-wave (km/s) = 2.74870 3.36084 3.07007
# Velocity P-wave (km/s) = 6.51838 7.00954 6.76842
#
# Compressibility (1/GPa) = 0.02068970
#
# Stress axis : x y z
#
# Youngs Moduli (GPa) = 65.57874 65.57874 51.01003
#
# Poissons Ratio (x) = 0.38365 0.22587
# Poissons Ratio (y) = 0.38365 0.22587
# Poissons Ratio (z) = 0.29038 0.29038
#
# Static dielectric constant tensor:
#      x y z
#    x 1.492400 0.000000 0.000000 
#    y 0.000000 1.492400 0.000000 
#    z 0.000000 0.000000 1.532430 
# 
# From -- ./inp_files/12358.got.cif
#   From: 2010.05.17/outbox.cif.g08.bks.cpg/sg131_7_cif.got.tgz:12358.got - 2010.05.20 12:21:01.
