data_PCOD9566400
_publ_section_title
;
Structure prediction by ZEFSAII (Michael W. Deem and Ramdas Pophale) SiO2 
 PCOD9566400
Probable space group: P 42/M M C
;
_chemical_formula_sum "Si O2"
_cell_formula_units_Z 72
_cell_length_a 21.059281
_cell_length_b 21.059281
_cell_length_c 8.859176
_cell_angle_alpha 90.000000
_cell_angle_beta 90.000000
_cell_angle_gamma 90.000000
_cell_volume 3928.985343
_symmetry_space_group_name_H-M "P 42/M M C"
_symmetry_group_IT_number 131
_symmetry_cell_setting 'tetragonal'
loop_
_space_group_symop_operation_xyz
x,y,z
-x,-y,z
-y,x,1/2+z
y,-x,1/2+z
-x,y,-z
x,-y,-z
y,x,1/2-z
-y,-x,1/2-z
-x,-y,-z
x,y,-z
y,-x,1/2-z
-y,x,1/2-z
x,-y,z
-x,y,z
-y,-x,1/2+z
y,x,1/2+z
loop_
_atom_site_type_symbol
_atom_site_label
_atom_site_fract_x
_atom_site_fract_y
_atom_site_fract_z
Si Si1 0.899046 0.681516 0.817621
Si Si2 0.574454 0.000000 0.683509
Si Si3 0.669639 0.574543 0.824697
Si Si4 0.071836 0.827995 0.182220
Si Si5 0.761965 0.662893 0.320744
O O1 0.941392 0.620504 0.771978
O O2 0.921812 0.752997 0.775626
O O3 0.830711 0.672613 0.746598
O O4 0.896836 0.680885 0.000000
O O5 0.500000 0.000000 0.734958
O O6 0.571460 0.000000 0.500000
O O7 0.611230 0.611230 0.750000
O O8 0.660817 0.500000 0.817116
O O9 0.731668 0.597121 0.735545
O O10 0.675529 0.593893 0.000000
O O11 0.126610 0.873391 0.250000
O O12 0.000000 0.848604 0.224932
O O13 0.076810 0.830950 0.000000
O O14 0.716000 0.716000 0.250000
O O15 0.761877 0.667359 0.500000
#
# Coordination Sequence:
#
# PCOD9566400 Si02
#       5
#    16   8  16  16  16
#     4  10  19  36  59  83 115 150 189 238 287 343
#     4   9  18  34  59  87 112 147 192 234 279 337
#     4  10  21  37  57  81 110 146 188 233 283 342
#     4  10  21  37  57  82 113 151 192 239 293 344
#     4  11  22  36  56  83 113 147 187 235 286 336
#
# _framework density 18.325341999999999
#
# number of rings (size 3 to 8) (size 9 to 14) (size 15 to 20)
#    0.000    1.889    1.111    4.667    0.000    6.222 
#    0.000    5.000    0.000    0.667    0.000    0.000 
#    0.000    0.000    0.000    0.000    0.000    0.000 
#
# Total GULP energy -401540.885042 kJ/mol
# GULP energy per Si atom -5576.956737 kJ/mol
# Density = 1.828363 g / cm^3
# Si number density = 18.325342 Si / 1000 Ang^3
#
#
#
# Elastic Constant Matrix: (Units=GPa)
#
#
# Indices 1 2 3 4 5 6 
#
# 1 128.1953 53.7839 33.3529 0.0000 0.0000 0.0000
# 2 53.7839 128.1997 33.3520 0.0000 0.0000 0.0000
# 3 33.3529 33.3520 26.0070 0.0000 0.0000 0.0000
# 4 0.0000 0.0000 0.0000 25.7173 0.0000 0.0000
# 5 0.0000 0.0000 0.0000 0.0000 25.7173 0.0000
# 6 0.0000 0.0000 0.0000 0.0000 0.0000 6.6065
#
#
#
# Elastic Compliance Matrix: (Units=1/GPa)
#
#
# Indices 1 2 3 4 5 6 
#
# 1 0.011904 -0.001534 -0.013299 0.000000 0.000000 0.000000
# 2 -0.001534 0.011903 -0.013297 0.000000 0.000000 0.000000
# 3 -0.013299 -0.013297 0.072560 0.000000 0.000000 0.000000
# 4 0.000000 0.000000 0.000000 0.038884 0.000000 0.000000
# 5 0.000000 0.000000 0.000000 0.000000 0.038884 0.000000
# 6 0.000000 0.000000 0.000000 0.000000 0.000000 0.151366
#
#
# Mechanical properties :
#
#
# Convention : Reuss Voigt Hill
#
# Bulk Modulus (GPa) = 24.93420 58.15329 41.54375
# Shear Modulus (GPa) = 12.65396 22.40243 17.52819
#
# Velocity S-wave (km/s) = 2.63062 3.50020 3.09609
# Velocity P-wave (km/s) = 4.78151 6.93815 5.95822
#
# Compressibility (1/GPa) = 0.04010556
#
# Stress axis : x y z
#
# Youngs Moduli (GPa) = 84.00227 84.00892 13.78176
#
# Poissons Ratio (x) = 0.12891 0.18329
# Poissons Ratio (y) = 0.12890 0.18326
# Poissons Ratio (z) = 1.11716 1.11710
#
# Static dielectric constant tensor:
#      x y z
#    x 1.452770 0.000000 0.000000 
#    y 0.000000 1.452590 0.000000 
#    z 0.000000 0.000000 1.622690 
# 
# From -- ./inp_files/1759.got.cif
#   From: 2010.05.17/outbox.cif.g08.bks.cpg/sg131_1_cif.got.tgz:1759.got - 2010.05.20 12:21:01.
