data_PCOD9566830
_publ_section_title
;
Structure prediction by ZEFSAII (Michael W. Deem and Ramdas Pophale) SiO2 
 PCOD9566830
Probable space group: P 42/M M C
;
_chemical_formula_sum "Si O2"
_cell_formula_units_Z 56
_cell_length_a 18.171371
_cell_length_b 18.171371
_cell_length_c 8.551297
_cell_angle_alpha 90.000000
_cell_angle_beta 90.000000
_cell_angle_gamma 90.000000
_cell_volume 2823.627358
_symmetry_space_group_name_H-M "P 42/M M C"
_symmetry_group_IT_number 131
_symmetry_cell_setting 'tetragonal'
loop_
_space_group_symop_operation_xyz
x,y,z
-x,-y,z
-y,x,1/2+z
y,-x,1/2+z
-x,y,-z
x,-y,-z
y,x,1/2-z
-y,-x,1/2-z
-x,-y,-z
x,y,-z
y,-x,1/2-z
-y,x,1/2-z
x,-y,z
-x,y,z
-y,-x,1/2+z
y,x,1/2+z
loop_
_atom_site_type_symbol
_atom_site_label
_atom_site_fract_x
_atom_site_fract_y
_atom_site_fract_z
Si Si1 0.337762 0.849437 0.312310
Si Si2 0.000000 0.584067 0.190238
Si Si3 0.298396 0.414380 0.312380
Si Si4 0.808144 0.084564 0.812777
O O1 0.340882 0.844945 0.500000
O O2 0.378725 0.924175 0.258389
O O3 0.375354 0.776661 0.244613
O O4 0.254771 0.863465 0.258344
O O5 0.000000 0.500000 0.239737
O O6 0.000000 0.587007 0.000000
O O7 0.367007 0.367007 0.250000
O O8 0.299638 0.412808 0.500000
O O9 0.300213 0.500000 0.261207
O O10 0.885267 0.114734 0.750000
O O11 0.794973 0.000000 0.764682
O O12 0.805854 0.088534 0.000000
#
# Coordination Sequence:
#
# PCOD9566830 Si02
#       4
#    16   8  16  16
#     4  11  21  38  64  93 128 165 207 256 307 371
#     4   9  18  32  55  89 124 159 198 243 297 358
#     4  11  25  44  66  94 128 167 212 262 318 377
#     4  11  24  41  62  88 122 162 207 258 311 369
#
# _framework density 19.832643999999998
#
# number of rings (size 3 to 8) (size 9 to 14) (size 15 to 20)
#    0.000    1.286    1.429    4.286    0.000    5.714 
#    0.000    2.857    0.000    3.429    0.000    0.000 
#    0.000    0.000    0.000    0.000    0.000    0.000 
#
# Total GULP energy -313054.066935 kJ/mol
# GULP energy per Si atom -5590.251195 kJ/mol
# Density = 1.978750 g / cm^3
# Si number density = 19.832644 Si / 1000 Ang^3
#
#
#
# Elastic Constant Matrix: (Units=GPa)
#
#
# Indices 1 2 3 4 5 6 
#
# 1 129.5455 105.6633 35.6547 0.0000 0.0000 0.0000
# 2 105.6633 129.5669 35.6570 0.0000 0.0000 0.0000
# 3 35.6547 35.6570 49.8269 0.0000 0.0000 0.0000
# 4 0.0000 0.0000 0.0000 26.5411 0.0000 0.0000
# 5 0.0000 0.0000 0.0000 0.0000 26.5406 0.0000
# 6 0.0000 0.0000 0.0000 0.0000 0.0000 31.3630
#
#
#
# Elastic Compliance Matrix: (Units=1/GPa)
#
#
# Indices 1 2 3 4 5 6 
#
# 1 0.023643 -0.018212 -0.003886 0.000000 0.000000 0.000000
# 2 -0.018212 0.023639 -0.003885 0.000000 0.000000 0.000000
# 3 -0.003886 -0.003885 0.025630 0.000000 0.000000 0.000000
# 4 0.000000 0.000000 0.000000 0.037677 0.000000 0.000000
# 5 0.000000 0.000000 0.000000 0.000000 0.037678 0.000000
# 6 0.000000 0.000000 0.000000 0.000000 0.000000 0.031885
#
#
# Mechanical properties :
#
#
# Convention : Reuss Voigt Hill
#
# Bulk Modulus (GPa) = 47.73776 73.65437 60.69607
# Shear Modulus (GPa) = 20.91177 25.68656 23.29917
#
# Velocity S-wave (km/s) = 3.25069 3.60275 3.43124
# Velocity P-wave (km/s) = 6.18158 7.38410 6.80944
#
# Compressibility (1/GPa) = 0.02094778
#
# Stress axis : x y z
#
# Youngs Moduli (GPa) = 42.29524 42.30258 39.01706
#
# Poissons Ratio (x) = 0.77042 0.15161
# Poissons Ratio (y) = 0.77028 0.15157
# Poissons Ratio (z) = 0.16434 0.16433
#
# Static dielectric constant tensor:
#      x y z
#    x 1.702930 0.000000 0.000000 
#    y 0.000000 1.702930 0.000000 
#    z 0.000000 0.000000 1.668000 
# 
# From -- ./inp_files/1194.got.cif
#   From: 2010.05.17/outbox.cif.g08.bks.cpg/sg131_1_cif.got.tgz:1194.got - 2010.05.20 12:21:01.
