data_PCOD9566102
_publ_section_title
;
Structure prediction by ZEFSAII (Michael W. Deem and Ramdas Pophale) SiO2 
 PCOD9566102
Probable space group: P 42/M M C
;
_chemical_formula_sum "Si O2"
_cell_formula_units_Z 104
_cell_length_a 27.596594
_cell_length_b 27.596594
_cell_length_c 8.382202
_cell_angle_alpha 90.000000
_cell_angle_beta 90.000000
_cell_angle_gamma 90.000000
_cell_volume 6383.650345
_symmetry_space_group_name_H-M "P 42/M M C"
_symmetry_group_IT_number 131
_symmetry_cell_setting 'tetragonal'
loop_
_space_group_symop_operation_xyz
x,y,z
-x,-y,z
-y,x,1/2+z
y,-x,1/2+z
-x,y,-z
x,-y,-z
y,x,1/2-z
-y,-x,1/2-z
-x,-y,-z
x,y,-z
y,-x,1/2-z
-y,x,1/2-z
x,-y,z
-x,y,z
-y,-x,1/2+z
y,x,1/2+z
loop_
_atom_site_type_symbol
_atom_site_label
_atom_site_fract_x
_atom_site_fract_y
_atom_site_fract_z
Si Si1 0.632332 0.555337 0.308832
Si Si2 0.185323 0.342713 0.194460
Si Si3 0.555166 0.000000 0.809753
Si Si4 0.234172 0.157328 0.692470
Si Si5 0.080774 0.372208 0.192426
Si Si6 0.947039 0.737467 0.805705
Si Si7 0.368967 0.708249 0.308476
O O1 0.586735 0.586735 0.250000
O O2 0.631961 0.555710 0.500000
O O3 0.630767 0.500000 0.252127
O O4 0.680017 0.583740 0.251237
O O5 0.179068 0.286457 0.243084
O O6 0.137012 0.371489 0.244236
O O7 0.236491 0.363978 0.248040
O O8 0.185337 0.342859 0.000000
O O9 0.585400 0.952969 0.755831
O O10 0.500000 0.000000 0.747445
O O11 0.553387 0.000000 0.000000
O O12 0.190468 0.190468 0.750000
O O13 0.233951 0.157340 0.500000
O O14 0.234261 0.101157 0.746881
O O15 0.060119 0.319128 0.237840
O O16 0.079505 0.374240 0.000000
O O17 0.000000 0.754234 0.750556
O O18 0.947007 0.738862 0.000000
O O19 0.323165 0.676835 0.250000
O O20 0.369026 0.707632 0.500000
#
# Coordination Sequence:
#
# PCOD9566102 Si02
#       7
#    16  16   8  16  16  16  16
#     4  10  21  36  53  73  95 119 149 183 221 269
#     4   8  16  29  47  71  93 117 152 192 224 258
#     4  11  23  35  45  63  93 119 141 183 244 291
#     4   9  16  26  41  63  94 122 147 181 222 268
#     4   9  16  31  53  69  82 109 156 198 224 262
#     4   8  13  24  45  67  83 110 151 190 223 258
#     4  10  18  30  49  72  99 127 154 184 220 266
#
# _framework density 16.291618
#
# number of rings (size 3 to 8) (size 9 to 14) (size 15 to 20)
#    0.000    2.846    0.769    4.385    0.000    2.000 
#    0.000    6.923    0.000    4.615    0.000    0.000 
#    0.000    0.308    0.000    3.846    0.000    0.000 
#
# Total GULP energy -579470.427292 kJ/mol
# GULP energy per Si atom -5571.831032 kJ/mol
# Density = 1.625454 g / cm^3
# Si number density = 16.291618 Si / 1000 Ang^3
#
#
#
# Elastic Constant Matrix: (Units=GPa)
#
#
# Indices 1 2 3 4 5 6 
#
# 1 159.1220 88.0398 19.2807 0.0000 0.0000 0.0000
# 2 88.0398 159.1201 19.2850 0.0000 0.0000 0.0000
# 3 19.2807 19.2850 18.0523 0.0000 0.0000 0.0000
# 4 0.0000 0.0000 0.0000 135.3473 0.0000 0.0000
# 5 0.0000 0.0000 0.0000 0.0000 134.9844 0.0000
# 6 0.0000 0.0000 0.0000 0.0000 0.0000 16.8456
#
#
#
# Elastic Compliance Matrix: (Units=1/GPa)
#
#
# Indices 1 2 3 4 5 6 
#
# 1 0.009461 -0.004607 -0.005184 0.000000 0.000000 0.000000
# 2 -0.004607 0.009462 -0.005188 0.000000 0.000000 0.000000
# 3 -0.005184 -0.005188 0.066474 0.000000 0.000000 0.000000
# 4 0.000000 0.000000 0.000000 0.007388 0.000000 0.000000
# 5 0.000000 0.000000 0.000000 0.000000 0.007408 0.000000
# 6 0.000000 0.000000 0.000000 0.000000 0.000000 0.059363
#
#
# Mechanical properties :
#
#
# Convention : Reuss Voigt Hill
#
# Bulk Modulus (GPa) = 18.03765 65.50059 41.76912
# Shear Modulus (GPa) = 24.03916 71.41473 47.72694
#
# Velocity S-wave (km/s) = 3.84546 6.62800 5.41839
# Velocity P-wave (km/s) = 5.55090 9.94315 8.05229
#
# Compressibility (1/GPa) = 0.05543961
#
# Stress axis : x y z
#
# Youngs Moduli (GPa) = 105.69255 105.68406 15.04355
#
# Poissons Ratio (x) = 0.48685 0.07799
# Poissons Ratio (y) = 0.48689 0.07805
# Poissons Ratio (z) = 0.54791 0.54831
#
# Static dielectric constant tensor:
#      x y z
#    x 1.547010 0.000000 0.000000 
#    y 0.000000 1.547010 0.000000 
#    z 0.000000 0.000000 1.565880 
# 
# From -- ./inp_files/2561.got.cif
#   From: 2010.05.17/outbox.cif.g08.bks.cpg/sg131_2_cif.got.tgz:2561.got - 2010.05.20 12:21:01.
