data_PCOD9566324
_publ_section_title
;
Structure prediction by ZEFSAII (Michael W. Deem and Ramdas Pophale) SiO2 
 PCOD9566324
Probable space group: P 42/M M C
;
_chemical_formula_sum "Si O2"
_cell_formula_units_Z 96
_cell_length_a 24.609898
_cell_length_b 24.609898
_cell_length_c 8.455112
_cell_angle_alpha 90.000000
_cell_angle_beta 90.000000
_cell_angle_gamma 90.000000
_cell_volume 5120.813890
_symmetry_space_group_name_H-M "P 42/M M C"
_symmetry_group_IT_number 131
_symmetry_cell_setting 'tetragonal'
loop_
_space_group_symop_operation_xyz
x,y,z
-x,-y,z
-y,x,1/2+z
y,-x,1/2+z
-x,y,-z
x,-y,-z
y,x,1/2-z
-y,-x,1/2-z
-x,-y,-z
x,y,-z
y,-x,1/2-z
-y,x,1/2-z
x,-y,z
-x,y,z
-y,-x,1/2+z
y,x,1/2+z
loop_
_atom_site_type_symbol
_atom_site_label
_atom_site_fract_x
_atom_site_fract_y
_atom_site_fract_z
Si Si1 0.815938 0.261901 0.822951
Si Si2 0.298139 0.922017 0.817853
Si Si3 0.059657 0.413424 0.813654
Si Si4 0.000000 0.914996 0.810757
Si Si5 0.209751 0.000000 0.310011
Si Si6 0.354893 0.274069 0.323053
Si Si7 0.817324 0.563216 0.189312
O O1 0.793521 0.206480 0.750000
O O2 0.858633 0.289694 0.708508
O O3 0.766038 0.303270 0.835885
O O4 0.838796 0.254632 0.000000
O O5 0.348693 0.940342 0.712392
O O6 0.243093 0.949567 0.759046
O O7 0.309086 0.935162 0.000000
O O8 0.119950 0.429686 0.749747
O O9 0.000000 0.433033 0.751451
O O10 0.060101 0.427339 0.000000
O O11 0.052209 0.947792 0.750000
O O12 0.000000 0.852643 0.759663
O O13 0.000000 0.916839 0.000000
O O14 0.212408 0.000000 0.500000
O O15 0.329140 0.329140 0.250000
O O16 0.374441 0.287679 0.500000
O O17 0.399873 0.232797 0.247725
O O18 0.803818 0.500000 0.206109
O O19 0.820851 0.576806 0.000000
#
# Coordination Sequence:
#
# PCOD9566324 Si02
#       7
#    16  16  16   8   8  16  16
#     4  10  19  33  51  73 101 132 167 209 260 316
#     4  12  23  34  51  76 103 136 173 215 266 323
#     4  10  19  33  53  73 101 142 182 227 275 320
#     4  10  22  41  66  86 104 131 161 201 258 325
#     4  11  24  40  57  78 103 133 168 215 268 320
#     4   9  17  30  50  75 103 139 177 220 268 319
#     4   9  17  31  52  80 110 141 185 234 274 318
#
# _framework density 18.747021
#
# number of rings (size 3 to 8) (size 9 to 14) (size 15 to 20)
#    0.000    1.917    2.500    2.750    0.000    3.000 
#    0.000    3.333    0.000    2.000    0.000    1.167 
#    0.000    0.333    0.000    4.167    0.000    0.000 
#
# Total GULP energy -534501.790185 kJ/mol
# GULP energy per Si atom -5567.726981 kJ/mol
# Density = 1.870435 g / cm^3
# Si number density = 18.747021 Si / 1000 Ang^3
#
#
#
# Elastic Constant Matrix: (Units=GPa)
#
#
# Indices 1 2 3 4 5 6 
#
# 1 80.1005 34.5422 6.0378 0.0000 0.0000 0.0000
# 2 34.5422 80.1023 6.0384 0.0000 0.0000 0.0000
# 3 6.0378 6.0384 24.9984 0.0000 0.0000 0.0000
# 4 0.0000 0.0000 0.0000 6.1454 0.0000 0.0000
# 5 0.0000 0.0000 0.0000 0.0000 6.1450 0.0000
# 6 0.0000 0.0000 0.0000 0.0000 0.0000 22.2866
#
#
#
# Elastic Compliance Matrix: (Units=1/GPa)
#
#
# Indices 1 2 3 4 5 6 
#
# 1 0.015450 -0.006500 -0.002162 0.000000 0.000000 0.000000
# 2 -0.006500 0.015450 -0.002162 0.000000 0.000000 0.000000
# 3 -0.002162 -0.002162 0.041047 0.000000 0.000000 0.000000
# 4 0.000000 0.000000 0.000000 0.162722 0.000000 0.000000
# 5 0.000000 0.000000 0.000000 0.000000 0.162734 0.000000
# 6 0.000000 0.000000 0.000000 0.000000 0.000000 0.044870
#
#
# Mechanical properties :
#
#
# Convention : Reuss Voigt Hill
#
# Bulk Modulus (GPa) = 19.88062 30.93754 25.40908
# Shear Modulus (GPa) = 10.40179 16.15426 13.27802
#
# Velocity S-wave (km/s) = 2.35808 2.93865 2.66423
# Velocity P-wave (km/s) = 4.24756 5.29648 4.80075
#
# Compressibility (1/GPa) = 0.05030025
#
# Stress axis : x y z
#
# Youngs Moduli (GPa) = 64.72455 64.72578 24.36235
#
# Poissons Ratio (x) = 0.42069 0.05266
# Poissons Ratio (y) = 0.42068 0.05267
# Poissons Ratio (z) = 0.13991 0.13995
#
# Static dielectric constant tensor:
#      x y z
#    x 1.642320 0.000000 0.000000 
#    y 0.000000 1.642320 0.000000 
#    z 0.000000 0.000000 1.689680 
# 
# From -- ./inp_files/2332.got.cif
#   From: 2010.05.17/outbox.cif.g08.bks.cpg/sg131_2_cif.got.tgz:2332.got - 2010.05.20 12:21:01.
