data_PCOD9566976
_publ_section_title
;
Structure prediction by ZEFSAII (Michael W. Deem and Ramdas Pophale) SiO2 
 PCOD9566976
Probable space group: P 42/M C M
;
_chemical_formula_sum "Si O2"
_cell_formula_units_Z 96
_cell_length_a 20.272996
_cell_length_b 20.272996
_cell_length_c 14.719721
_cell_angle_alpha 90.000000
_cell_angle_beta 90.000000
_cell_angle_gamma 90.000000
_cell_volume 6049.722412
_symmetry_space_group_name_H-M "P 42/M C M"
_symmetry_group_IT_number 132
_symmetry_cell_setting 'tetragonal'
loop_
_space_group_symop_operation_xyz
x,y,z
-y,x,1/2+z
-x,-y,z
y,-x,1/2+z
x,-y,1/2-z
-x,y,1/2-z
y,x,-z
-y,-x,-z
-x,-y,-z
y,-x,1/2-z
x,y,-z
-y,x,1/2-z
-x,y,1/2+z
x,-y,1/2+z
-y,-x,z
y,x,z
loop_
_atom_site_type_symbol
_atom_site_label
_atom_site_fract_x
_atom_site_fract_y
_atom_site_fract_z
Si Si1 0.635065 0.956888 0.605925
Si Si2 0.772422 0.665416 0.893145
Si Si3 0.506343 0.103001 0.400126
Si Si4 0.395503 0.501640 0.608862
Si Si5 0.640833 0.094238 0.699224
Si Si6 0.488011 0.754535 0.354512
O O1 0.654226 0.944251 0.500000
O O2 0.555503 0.945516 0.608261
O O3 0.655529 0.913201 0.693816
O O4 0.656988 0.029238 0.640003
O O5 0.714842 0.714842 0.863861
O O6 0.840314 0.673669 0.839546
O O7 0.752405 0.589203 0.880013
O O8 0.784185 0.675325 0.000000
O O9 0.538001 0.091193 0.500000
O O10 0.561979 0.099288 0.322776
O O11 0.482851 0.179674 0.400757
O O12 0.399345 0.502476 0.500000
O O13 0.428895 0.571106 0.639525
O O14 0.443841 0.443841 0.642213
O O15 0.319592 0.487742 0.629303
O O16 0.500000 0.767277 0.250000
#
# Coordination Sequence:
#
# PCOD9566976 Si02
#       6
#    16  16  16  16  16  16
#     4  10  19  29  44  66  93 123 149 178 222 274
#     4  10  20  34  52  70  88 115 154 200 246 285
#     4  10  18  28  43  62  85 114 146 181 225 276
#     4   9  18  32  46  56  68  92 131 182 240 296
#     4  10  18  30  46  66  92 117 149 189 224 267
#     4  11  20  29  42  61  84 108 138 180 234 290
#
# _framework density 15.868497
#
# number of rings (size 3 to 8) (size 9 to 14) (size 15 to 20)
#    0.000    2.000    0.000    8.000    0.000    5.333 
#    0.000    0.833    0.000    0.500    0.000    0.000 
#    0.000    0.000    0.000    0.000    0.000    6.667 
#
# Total GULP energy -534544.179930 kJ/mol
# GULP energy per Si atom -5568.168541 kJ/mol
# Density = 1.583238 g / cm^3
# Si number density = 15.868497 Si / 1000 Ang^3
#
#
#
# Elastic Constant Matrix: (Units=GPa)
#
#
# Indices 1 2 3 4 5 6 
#
# 1 50.3979 9.4596 12.3016 0.0000 0.0000 0.0000
# 2 9.4596 50.3979 12.3016 0.0000 0.0000 0.0000
# 3 12.3016 12.3016 112.1715 0.0000 0.0000 0.0000
# 4 0.0000 0.0000 0.0000 25.0510 0.0000 0.0000
# 5 0.0000 0.0000 0.0000 0.0000 25.0510 0.0000
# 6 0.0000 0.0000 0.0000 0.0000 0.0000 -28.6456
#
#
#
# Elastic Compliance Matrix: (Units=1/GPa)
#
#
# Indices 1 2 3 4 5 6 
#
# 1 0.020961 -0.003466 -0.001919 0.000000 0.000000 0.000000
# 2 -0.003466 0.020961 -0.001919 0.000000 0.000000 0.000000
# 3 -0.001919 -0.001919 0.009336 0.000000 0.000000 0.000000
# 4 0.000000 0.000000 0.000000 0.039919 0.000000 0.000000
# 5 0.000000 0.000000 0.000000 0.000000 0.039919 0.000000
# 6 0.000000 0.000000 0.000000 0.000000 0.000000 -0.034909
#
#
# Mechanical properties :
#
#
# Convention : Reuss Voigt Hill
#
# Bulk Modulus (GPa) = 27.28431 31.23256 29.25844
# Shear Modulus (GPa) = 40.64746 16.21826 28.43286
#
# Velocity S-wave (km/s) = 5.06664 3.20041 4.23753
# Velocity P-wave (km/s) = 7.17350 5.77769 6.51309
#
# Compressibility (1/GPa) = 0.03665110
#
# Stress axis : x y z
#
# Youngs Moduli (GPa) = 47.70773 47.70773 107.11510
#
# Poissons Ratio (x) = 0.16536 0.20552
# Poissons Ratio (y) = 0.16536 0.20552
# Poissons Ratio (z) = 0.09153 0.09153
#
# Static dielectric constant tensor:
#      x y z
#    x 1.547660 0.000000 0.000000 
#    y 0.000000 1.547660 0.000000 
#    z 0.000000 0.000000 1.561510 
# 
# From -- ./inp_files/4954.got.cif
#   From: 2010.05.17/outbox.cif.g08.bks.cpg/sg132_3_cif.got.tgz:4954.got - 2010.05.20 12:30:18.
