data_PCOD9566747
_publ_section_title
;
Structure prediction by ZEFSAII (Michael W. Deem and Ramdas Pophale) SiO2 
 PCOD9566747
Probable space group: P 42/M M C
;
_chemical_formula_sum "Si O2"
_cell_formula_units_Z 56
_cell_length_a 16.949452
_cell_length_b 16.949452
_cell_length_c 10.434785
_cell_angle_alpha 90.000000
_cell_angle_beta 90.000000
_cell_angle_gamma 90.000000
_cell_volume 2997.745972
_symmetry_space_group_name_H-M "P 42/M M C"
_symmetry_group_IT_number 131
_symmetry_cell_setting 'tetragonal'
loop_
_space_group_symop_operation_xyz
x,y,z
-x,-y,z
-y,x,1/2+z
y,-x,1/2+z
-x,y,-z
x,-y,-z
y,x,1/2-z
-y,-x,1/2-z
-x,-y,-z
x,y,-z
y,-x,1/2-z
-y,x,1/2-z
x,-y,z
-x,y,z
-y,-x,1/2+z
y,x,1/2+z
loop_
_atom_site_type_symbol
_atom_site_label
_atom_site_fract_x
_atom_site_fract_y
_atom_site_fract_z
Si Si1 0.409845 0.163338 0.757942
Si Si2 0.324610 0.766494 0.000000
Si Si3 0.411797 0.265856 0.500000
Si Si4 0.090142 0.909859 0.750000
Si Si5 0.402880 0.000000 0.349931
Si Si6 0.198090 0.907511 0.000000
O O1 0.500000 0.149277 0.797636
O O2 0.369749 0.211476 0.870066
O O3 0.410149 0.211750 0.626171
O O4 0.374513 0.078002 0.723119
O O5 0.254931 0.831623 0.000000
O O6 0.309533 0.672452 0.000000
O O7 0.500000 0.305923 0.500000
O O8 0.101036 0.853275 0.629131
O O9 0.000000 0.900404 0.795642
O O10 0.500000 0.000000 0.350628
O O11 0.379973 0.000000 0.500000
O O12 0.228990 0.000000 0.000000
#
# Coordination Sequence:
#
# PCOD9566747 Si02
#       6
#    16   8   8   8   8   8
#     4  10  21  38  62  89 121 162 207 252 315 384
#     4  12  25  37  58  90 132 157 195 267 329 383
#     4  10  22  42  64  85 113 166 221 264 311 381
#     4   9  18  38  62  80 110 162 214 255 296 352
#     4   9  16  33  61  89 119 159 206 245 294 385
#     4  10  23  37  55  87 125 160 203 252 307 371
#
# _framework density 18.680702
#
# number of rings (size 3 to 8) (size 9 to 14) (size 15 to 20)
#    0.000    2.000    1.429    1.714    6.000    1.714 
#    0.000    2.143    3.143    1.714    0.000    8.000 
#    0.000    0.000    0.000    0.000    0.000    0.000 
#
# Total GULP energy -312067.779445 kJ/mol
# GULP energy per Si atom -5572.638919 kJ/mol
# Density = 1.863818 g / cm^3
# Si number density = 18.680702 Si / 1000 Ang^3
#
#
#
# Elastic Constant Matrix: (Units=GPa)
#
#
# Indices 1 2 3 4 5 6 
#
# 1 94.0594 57.8737 48.0853 0.0000 0.0000 0.0000
# 2 57.8737 94.0605 48.0850 0.0000 0.0000 0.0000
# 3 48.0853 48.0850 102.0212 0.0000 0.0000 0.0000
# 4 0.0000 0.0000 0.0000 32.4081 0.0000 0.0000
# 5 0.0000 0.0000 0.0000 0.0000 32.4082 0.0000
# 6 0.0000 0.0000 0.0000 0.0000 0.0000 27.6310
#
#
#
# Elastic Compliance Matrix: (Units=1/GPa)
#
#
# Indices 1 2 3 4 5 6 
#
# 1 0.018508 -0.009127 -0.004421 0.000000 0.000000 0.000000
# 2 -0.009127 0.018507 -0.004421 0.000000 0.000000 0.000000
# 3 -0.004421 -0.004421 0.013970 0.000000 0.000000 0.000000
# 4 0.000000 0.000000 0.000000 0.030856 0.000000 0.000000
# 5 0.000000 0.000000 0.000000 0.000000 0.030856 0.000000
# 6 0.000000 0.000000 0.000000 0.000000 0.000000 0.036191
#
#
# Mechanical properties :
#
#
# Convention : Reuss Voigt Hill
#
# Bulk Modulus (GPa) = 66.46537 66.46991 66.46764
# Shear Modulus (GPa) = 26.33754 27.56260 26.95007
#
# Velocity S-wave (km/s) = 3.75891 3.84534 3.80237
# Velocity P-wave (km/s) = 7.38215 7.44143 7.41185
#
# Compressibility (1/GPa) = 0.01504543
#
# Stress axis : x y z
#
# Youngs Moduli (GPa) = 54.03140 54.03250 71.58443
#
# Poissons Ratio (x) = 0.49317 0.31650
# Poissons Ratio (y) = 0.49316 0.31648
# Poissons Ratio (z) = 0.23889 0.23888
#
# Static dielectric constant tensor:
#      x y z
#    x 1.675250 0.000000 0.000000 
#    y 0.000000 1.675240 0.000000 
#    z 0.000000 0.000000 1.611400 
# 
# From -- ./inp_files/1333.got.cif
#   From: 2010.05.17/outbox.cif.g08.bks.cpg/sg131_1_cif.got.tgz:1333.got - 2010.05.20 12:21:01.
