data_PCOD9566230
_publ_section_title
;
Structure prediction by ZEFSAII (Michael W. Deem and Ramdas Pophale) SiO2 
 PCOD9566230
Probable space group: P 42/M M C
;
_chemical_formula_sum "Si O2"
_cell_formula_units_Z 56
_cell_length_a 11.747691
_cell_length_b 11.747691
_cell_length_c 26.223348
_cell_angle_alpha 90.000000
_cell_angle_beta 90.000000
_cell_angle_gamma 90.000000
_cell_volume 3619.038205
_symmetry_space_group_name_H-M "P 42/M M C"
_symmetry_group_IT_number 131
_symmetry_cell_setting 'tetragonal'
loop_
_space_group_symop_operation_xyz
x,y,z
-x,-y,z
-y,x,1/2+z
y,-x,1/2+z
-x,y,-z
x,-y,-z
y,x,1/2-z
-y,-x,1/2-z
-x,-y,-z
x,y,-z
y,-x,1/2-z
-y,x,1/2-z
x,-y,z
-x,y,z
-y,-x,1/2+z
y,x,1/2+z
loop_
_atom_site_type_symbol
_atom_site_label
_atom_site_fract_x
_atom_site_fract_y
_atom_site_fract_z
Si Si1 0.362469 0.000000 0.140609
Si Si2 0.248567 0.638041 0.394513
Si Si3 0.000000 0.361577 0.758907
Si Si4 0.753559 0.636217 0.797659
Si Si5 0.638035 0.631160 0.000000
O O1 0.330830 0.115899 0.112008
O O2 0.322875 0.000000 0.199675
O O3 0.500000 0.000000 0.143049
O O4 0.258633 0.500000 0.388943
O O5 0.314187 0.699381 0.348783
O O6 0.302473 0.670884 0.448688
O O7 0.883982 0.327005 0.786973
O O8 0.000000 0.500000 0.757522
O O9 0.680807 0.680807 0.750000
O O10 0.750462 0.500000 0.799228
O O11 0.500000 0.628080 0.000000
O O12 0.677764 0.500000 0.000000
#
# Coordination Sequence:
#
# PCOD9566230 Si02
#       5
#     8  16   8  16   8
#     4   9  16  29  46  67  97 130 164 198 237 289
#     4  10  19  31  49  71  98 131 164 201 243 291
#     4   9  18  32  45  65  99 131 158 195 243 290
#     4  11  20  30  48  71  96 127 159 197 245 295
#     4   9  18  31  45  68 104 134 158 201 253 291
#
# _framework density 15.473724000000001
#
# number of rings (size 3 to 8) (size 9 to 14) (size 15 to 20)
#    0.000    2.143    2.857    1.714    0.000    3.714 
#    0.000    2.857    0.000    3.857    0.000    4.000 
#    0.000    2.286    0.000    0.000    0.000    0.000 
#
# Total GULP energy -312119.372288 kJ/mol
# GULP energy per Si atom -5573.560219 kJ/mol
# Density = 1.543851 g / cm^3
# Si number density = 15.473724 Si / 1000 Ang^3
#
#
#
# Elastic Constant Matrix: (Units=GPa)
#
#
# Indices 1 2 3 4 5 6 
#
# 1 94.2470 36.9910 66.4873 0.0000 0.0000 0.0000
# 2 36.9910 94.2470 66.4873 0.0000 0.0000 0.0000
# 3 66.4873 66.4873 171.4124 0.0000 0.0000 0.0000
# 4 0.0000 0.0000 0.0000 13.3129 0.0000 0.0000
# 5 0.0000 0.0000 0.0000 0.0000 13.3129 0.0000
# 6 0.0000 0.0000 0.0000 0.0000 0.0000 4.8225
#
#
#
# Elastic Compliance Matrix: (Units=1/GPa)
#
#
# Indices 1 2 3 4 5 6 
#
# 1 0.015009 -0.002456 -0.004869 0.000000 0.000000 0.000000
# 2 -0.002456 0.015009 -0.004869 0.000000 0.000000 0.000000
# 3 -0.004869 -0.004869 0.009611 0.000000 0.000000 0.000000
# 4 0.000000 0.000000 0.000000 0.075115 0.000000 0.000000
# 5 0.000000 0.000000 0.000000 0.000000 0.075115 0.000000
# 6 0.000000 0.000000 0.000000 0.000000 0.000000 0.207360
#
#
# Mechanical properties :
#
#
# Convention : Reuss Voigt Hill
#
# Bulk Modulus (GPa) = 65.61175 77.75971 71.68573
# Shear Modulus (GPa) = 11.71814 18.95240 15.33527
#
# Velocity S-wave (km/s) = 2.75488 3.50353 3.15151
# Velocity P-wave (km/s) = 7.25350 8.16873 7.72468
#
# Compressibility (1/GPa) = 0.01524117
#
# Stress axis : x y z
#
# Youngs Moduli (GPa) = 66.62499 66.62499 104.04538
#
# Poissons Ratio (x) = 0.16363 0.50662
# Poissons Ratio (y) = 0.16363 0.50662
# Poissons Ratio (z) = 0.32441 0.32441
#
# Static dielectric constant tensor:
#      x y z
#    x 1.511840 0.000000 0.000000 
#    y 0.000000 1.511840 0.000000 
#    z 0.000000 0.000000 1.497150 
# 
# From -- ./inp_files/10700.got.cif
#   From: 2010.05.17/outbox.cif.g08.bks.cpg/sg131_6_cif.got.tgz:10700.got - 2010.05.20 12:21:01.
