data_PCOD9566984
_publ_section_title
;
Structure prediction by ZEFSAII (Michael W. Deem and Ramdas Pophale) SiO2 
 PCOD9566984
Probable space group: P 42/M C M
;
_chemical_formula_sum "Si O2"
_cell_formula_units_Z 64
_cell_length_a 14.240035
_cell_length_b 14.240035
_cell_length_c 16.994391
_cell_angle_alpha 90.000000
_cell_angle_beta 90.000000
_cell_angle_gamma 90.000000
_cell_volume 3446.098760
_symmetry_space_group_name_H-M "P 42/M C M"
_symmetry_group_IT_number 132
_symmetry_cell_setting 'tetragonal'
loop_
_space_group_symop_operation_xyz
x,y,z
-y,x,1/2+z
-x,-y,z
y,-x,1/2+z
x,-y,1/2-z
-x,y,1/2-z
y,x,-z
-y,-x,-z
-x,-y,-z
y,-x,1/2-z
x,y,-z
-y,x,1/2-z
-x,y,1/2+z
x,-y,1/2+z
-y,-x,z
y,x,z
loop_
_atom_site_type_symbol
_atom_site_label
_atom_site_fract_x
_atom_site_fract_y
_atom_site_fract_z
Si Si1 0.678848 0.475650 0.409782
Si Si2 0.318840 0.823739 0.637848
Si Si3 0.409468 0.804866 0.799423
Si Si4 0.023207 0.611052 0.909191
O O1 0.670174 0.509522 0.500000
O O2 0.584944 0.415056 0.389860
O O3 0.764168 0.399917 0.406866
O O4 0.713099 0.553437 0.346901
O O5 0.219849 0.780151 0.612777
O O6 0.336794 0.798074 0.728893
O O7 0.334238 0.932997 0.623480
O O8 0.500000 0.841070 0.750000
O O9 0.375836 0.882147 0.860634
O O10 0.000000 0.500000 0.904667
O O11 0.037101 0.635379 0.000000
#
# Coordination Sequence:
#
# PCOD9566984 Si02
#       4
#    16  16  16  16
#     4   9  16  26  42  66  96 130 170 214 258 301
#     4  10  20  30  43  66 100 137 169 209 258 304
#     4  10  18  28  46  68  99 130 167 211 255 302
#     4  11  19  28  46  72  99 129 163 205 255 306
#
# _framework density 18.571726999999999
#
# number of rings (size 3 to 8) (size 9 to 14) (size 15 to 20)
#    0.000    2.000    5.000    2.250    0.000    1.500 
#    0.000    0.000    0.000    3.750    0.000    7.000 
#    0.000    9.000    0.000   11.750    0.000    0.000 
#
# Total GULP energy -356790.079083 kJ/mol
# GULP energy per Si atom -5574.844986 kJ/mol
# Density = 1.852946 g / cm^3
# Si number density = 18.571727 Si / 1000 Ang^3
#
#
#
# Elastic Constant Matrix: (Units=GPa)
#
#
# Indices 1 2 3 4 5 6 
#
# 1 46.8742 67.1750 38.7897 0.0000 0.0000 0.0000
# 2 67.1750 46.8742 38.7897 0.0000 0.0000 0.0000
# 3 38.7897 38.7897 135.9699 0.0000 0.0000 0.0000
# 4 0.0000 0.0000 0.0000 1.7829 0.0000 0.0000
# 5 0.0000 0.0000 0.0000 0.0000 1.7829 0.0000
# 6 0.0000 0.0000 0.0000 0.0000 0.0000 23.4198
#
#
#
# Elastic Compliance Matrix: (Units=1/GPa)
#
#
# Indices 1 2 3 4 5 6 
#
# 1 -0.019190 0.030069 -0.003104 0.000000 0.000000 0.000000
# 2 0.030069 -0.019190 -0.003104 0.000000 0.000000 0.000000
# 3 -0.003104 -0.003104 0.009125 0.000000 0.000000 0.000000
# 4 0.000000 0.000000 0.000000 0.560893 0.000000 0.000000
# 5 0.000000 0.000000 0.000000 0.000000 0.560893 0.000000
# 6 0.000000 0.000000 0.000000 0.000000 0.000000 0.042699
#
#
# Mechanical properties :
#
#
# Convention : Reuss Voigt Hill
#
# Bulk Modulus (GPa) = 54.14359 57.69189 55.91774
# Shear Modulus (GPa) = 4.57179 11.06136 7.81658
#
# Velocity S-wave (km/s) = 1.57068 2.44314 2.05378
# Velocity P-wave (km/s) = 5.70144 6.25223 5.98318
#
# Compressibility (1/GPa) = 0.01846941
#
# Stress axis : x y z
#
# Youngs Moduli (GPa) = -52.11080 -52.11080 109.58409
#
# Poissons Ratio (x) = 1.56693 0.34011
# Poissons Ratio (y) = 1.56693 0.34011
# Poissons Ratio (z) = -0.16174 -0.16174
#
# Static dielectric constant tensor:
#      x y z
#    x 1.660390 0.000000 0.000000 
#    y 0.000000 1.660390 0.000000 
#    z 0.000000 0.000000 1.672860 
# 
# From -- ./inp_files/5935.got.cif
#   From: 2010.05.17/outbox.cif.g08.bks.cpg/sg132_3_cif.got.tgz:5935.got - 2010.05.20 12:30:18.
