data_PCOD9566200
_publ_section_title
;
Structure prediction by ZEFSAII (Michael W. Deem and Ramdas Pophale) SiO2 
 PCOD9566200
Probable space group: P 42/M M C
;
_chemical_formula_sum "Si O2"
_cell_formula_units_Z 96
_cell_length_a 24.762551
_cell_length_b 24.762551
_cell_length_c 7.741825
_cell_angle_alpha 90.000000
_cell_angle_beta 90.000000
_cell_angle_gamma 90.000000
_cell_volume 4747.162695
_symmetry_space_group_name_H-M "P 42/M M C"
_symmetry_group_IT_number 131
_symmetry_cell_setting 'tetragonal'
loop_
_space_group_symop_operation_xyz
x,y,z
-x,-y,z
-y,x,1/2+z
y,-x,1/2+z
-x,y,-z
x,-y,-z
y,x,1/2-z
-y,-x,1/2-z
-x,-y,-z
x,y,-z
y,-x,1/2-z
-y,x,1/2-z
x,-y,z
-x,y,z
-y,-x,1/2+z
y,x,1/2+z
loop_
_atom_site_type_symbol
_atom_site_label
_atom_site_fract_x
_atom_site_fract_y
_atom_site_fract_z
Si Si1 0.557248 0.918205 0.206203
Si Si2 0.758113 0.858516 0.689481
Si Si3 0.674679 0.059937 0.201399
Si Si4 0.851849 0.062841 0.291723
Si Si5 0.761927 0.321630 0.703235
Si Si6 0.440581 0.788900 0.207061
O O1 0.500000 0.936896 0.278916
O O2 0.613659 0.940567 0.268137
O O3 0.559991 0.853716 0.226635
O O4 0.556228 0.929928 0.000000
O O5 0.777980 0.841875 0.500000
O O6 0.711358 0.902623 0.686439
O O7 0.806801 0.893409 0.775216
O O8 0.723841 0.807363 0.755948
O O9 0.696909 0.000000 0.200439
O O10 0.674258 0.079703 0.000000
O O11 0.909418 0.090583 0.250000
O O12 0.845062 0.061210 0.500000
O O13 0.846792 0.000000 0.231605
O O14 0.705165 0.294836 0.750000
O O15 0.765405 0.328613 0.500000
O O16 0.769797 0.382245 0.778041
O O17 0.500000 0.770188 0.274101
O O18 0.441421 0.778199 0.000000
#
# Coordination Sequence:
#
# PCOD9566200 Si02
#       6
#    16  16  16  16  16  16
#     4   8  13  24  43  67  94 125 167 216 260 300
#     4  11  22  37  55  75 104 141 175 208 254 306
#     4  10  19  30  47  72  99 130 172 219 264 309
#     4  10  23  42  61  81 103 128 160 199 248 308
#     4  11  21  34  54  81 112 139 174 218 259 307
#     4   8  14  27  49  73  99 136 177 216 255 298
#
# _framework density 20.222607
#
# number of rings (size 3 to 8) (size 9 to 14) (size 15 to 20)
#    0.000    2.333    1.667    3.000    0.000    4.500 
#    0.000    2.500    0.000    3.500    0.000    1.167 
#    0.000    0.333    0.000    4.167    0.000    0.000 
#
# Total GULP energy -534571.549631 kJ/mol
# GULP energy per Si atom -5568.453642 kJ/mol
# Density = 2.017658 g / cm^3
# Si number density = 20.222607 Si / 1000 Ang^3
#
#
#
# Elastic Constant Matrix: (Units=GPa)
#
#
# Indices 1 2 3 4 5 6 
#
# 1 112.5531 84.3559 9.8493 0.0000 0.0000 0.0000
# 2 84.3559 112.5530 9.8496 0.0000 0.0000 0.0000
# 3 9.8493 9.8496 34.9190 0.0000 0.0000 0.0000
# 4 0.0000 0.0000 0.0000 49.8029 0.0000 0.0000
# 5 0.0000 0.0000 0.0000 0.0000 49.7880 0.0000
# 6 0.0000 0.0000 0.0000 0.0000 0.0000 17.9385
#
#
#
# Elastic Compliance Matrix: (Units=1/GPa)
#
#
# Indices 1 2 3 4 5 6 
#
# 1 0.020345 -0.015119 -0.001474 0.000000 0.000000 0.000000
# 2 -0.015119 0.020345 -0.001474 0.000000 0.000000 0.000000
# 3 -0.001474 -0.001474 0.029469 0.000000 0.000000 0.000000
# 4 0.000000 0.000000 0.000000 0.020079 0.000000 0.000000
# 5 0.000000 0.000000 0.000000 0.000000 0.020085 0.000000
# 6 0.000000 0.000000 0.000000 0.000000 0.000000 0.055746
#
#
# Mechanical properties :
#
#
# Convention : Reuss Voigt Hill
#
# Bulk Modulus (GPa) = 29.39023 52.01497 40.70260
# Shear Modulus (GPa) = 23.41410 33.90390 28.65900
#
# Velocity S-wave (km/s) = 3.40636 4.09899 3.76862
# Velocity P-wave (km/s) = 5.48051 6.94114 6.25361
#
# Compressibility (1/GPa) = 0.03402492
#
# Stress axis : x y z
#
# Youngs Moduli (GPa) = 49.15157 49.15147 33.93368
#
# Poissons Ratio (x) = 0.74314 0.05002
# Poissons Ratio (y) = 0.74314 0.05002
# Poissons Ratio (z) = 0.07245 0.07246
#
# Static dielectric constant tensor:
#      x y z
#    x 1.777690 0.000000 0.000000 
#    y 0.000000 1.777680 0.000000 
#    z 0.000000 0.000000 1.905440 
# 
# From -- ./inp_files/2266.got.cif
#   From: 2010.05.17/outbox.cif.g08.bks.cpg/sg131_2_cif.got.tgz:2266.got - 2010.05.20 12:21:01.
