data_PCOD9566386
_publ_section_title
;
Structure prediction by ZEFSAII (Michael W. Deem and Ramdas Pophale) SiO2 
 PCOD9566386
Probable space group: P 42/M M C
;
_chemical_formula_sum "Si O2"
_cell_formula_units_Z 72
_cell_length_a 21.340926
_cell_length_b 21.340926
_cell_length_c 7.741076
_cell_angle_alpha 90.000000
_cell_angle_beta 90.000000
_cell_angle_gamma 90.000000
_cell_volume 3525.557897
_symmetry_space_group_name_H-M "P 42/M M C"
_symmetry_group_IT_number 131
_symmetry_cell_setting 'tetragonal'
loop_
_space_group_symop_operation_xyz
x,y,z
-x,-y,z
-y,x,1/2+z
y,-x,1/2+z
-x,y,-z
x,-y,-z
y,x,1/2-z
-y,-x,1/2-z
-x,-y,-z
x,y,-z
y,-x,1/2-z
-y,x,1/2-z
x,-y,z
-x,y,z
-y,-x,1/2+z
y,x,1/2+z
loop_
_atom_site_type_symbol
_atom_site_label
_atom_site_fract_x
_atom_site_fract_y
_atom_site_fract_z
Si Si1 0.681755 0.908858 0.199452
Si Si2 0.000000 0.573199 0.711418
Si Si3 0.670094 0.231158 0.706194
Si Si4 0.430234 0.331930 0.292435
Si Si5 0.070563 0.824448 0.292028
O O1 0.668814 0.835895 0.210657
O O2 0.752153 0.920205 0.273301
O O3 0.619156 0.943048 0.268149
O O4 0.686171 0.928775 0.000000
O O5 0.000000 0.500000 0.770717
O O6 0.000000 0.568971 0.500000
O O7 0.734731 0.265270 0.750000
O O8 0.664804 0.224687 0.500000
O O9 0.615443 0.277120 0.771353
O O10 0.397158 0.397158 0.250000
O O11 0.432162 0.326571 0.500000
O O12 0.500000 0.327221 0.223739
O O13 0.126125 0.873876 0.250000
O O14 0.070709 0.821064 0.500000
O O15 0.000000 0.844758 0.237111
#
# Coordination Sequence:
#
# PCOD9566386 Si02
#       5
#    16   8  16  16  16
#     4  10  19  35  57  80 110 144 180 225 273 322
#     4   9  18  34  57  83 110 145 186 224 267 325
#     4  10  20  34  53  78 106 138 177 221 268 320
#     4   9  19  35  52  72 102 138 174 216 268 323
#     4  10  21  37  56  79 109 145 182 224 276 326
#
# _framework density 20.4223
#
# number of rings (size 3 to 8) (size 9 to 14) (size 15 to 20)
#    0.000    2.333    1.111    1.333    0.000    5.778 
#    0.000    2.778    0.000    0.667    0.000    0.000 
#    0.000    0.000    0.000    0.000    0.000    0.000 
#
# Total GULP energy -401317.447488 kJ/mol
# GULP energy per Si atom -5573.853437 kJ/mol
# Density = 2.037582 g / cm^3
# Si number density = 20.422300 Si / 1000 Ang^3
#
#
#
# Elastic Constant Matrix: (Units=GPa)
#
#
# Indices 1 2 3 4 5 6 
#
# 1 181.6924 81.0930 3.6026 0.0000 0.0000 0.0000
# 2 81.0930 181.7023 3.6060 0.0000 0.0000 0.0000
# 3 3.6026 3.6060 35.5665 0.0000 0.0000 0.0000
# 4 0.0000 0.0000 0.0000 -25.3661 0.0000 0.0000
# 5 0.0000 0.0000 0.0000 0.0000 -25.3836 0.0000
# 6 0.0000 0.0000 0.0000 0.0000 0.0000 -0.8171
#
#
#
# Elastic Compliance Matrix: (Units=1/GPa)
#
#
# Indices 1 2 3 4 5 6 
#
# 1 0.006878 -0.003062 -0.000386 0.000000 0.000000 0.000000
# 2 -0.003062 0.006878 -0.000387 0.000000 0.000000 0.000000
# 3 -0.000386 -0.000387 0.028195 0.000000 0.000000 0.000000
# 4 0.000000 0.000000 0.000000 -0.039423 0.000000 0.000000
# 5 0.000000 0.000000 0.000000 0.000000 -0.039395 0.000000
# 6 0.000000 0.000000 0.000000 0.000000 0.000000 -1.223785
#
#
# Mechanical properties :
#
#
# Convention : Reuss Voigt Hill
#
# Bulk Modulus (GPa) = 29.17174 63.95161 46.56168
# Shear Modulus (GPa) = -4.02721 10.39726 3.18502
#
# Velocity S-wave (km/s) = -1.40579 2.25880 1.25019
# Velocity P-wave (km/s) = 3.41764 6.17944 4.99328
#
# Compressibility (1/GPa) = 0.03427975
#
# Stress axis : x y z
#
# Youngs Moduli (GPa) = 145.38898 145.39636 35.46763
#
# Poissons Ratio (x) = 0.44520 0.01370
# Poissons Ratio (y) = 0.44518 0.01373
# Poissons Ratio (z) = 0.05616 0.05629
#
# Static dielectric constant tensor:
#      x y z
#    x 1.720360 0.000000 0.000000 
#    y 0.000000 1.720350 0.000000 
#    z 0.000000 0.000000 1.754570 
# 
# From -- ./inp_files/1760.got.cif
#   From: 2010.05.17/outbox.cif.g08.bks.cpg/sg131_1_cif.got.tgz:1760.got - 2010.05.20 12:21:01.
