data_PCOD9566044
_publ_section_title
;
Structure prediction by ZEFSAII (Michael W. Deem and Ramdas Pophale) SiO2 
 PCOD9566044
Probable space group: P 42/M M C
;
_chemical_formula_sum "Si O2"
_cell_formula_units_Z 112
_cell_length_a 18.416856
_cell_length_b 18.416856
_cell_length_c 18.898199
_cell_angle_alpha 90.000000
_cell_angle_beta 90.000000
_cell_angle_gamma 90.000000
_cell_volume 6409.902191
_symmetry_space_group_name_H-M "P 42/M M C"
_symmetry_group_IT_number 131
_symmetry_cell_setting 'tetragonal'
loop_
_space_group_symop_operation_xyz
x,y,z
-x,-y,z
-y,x,1/2+z
y,-x,1/2+z
-x,y,-z
x,-y,-z
y,x,1/2-z
-y,-x,1/2-z
-x,-y,-z
x,y,-z
y,-x,1/2-z
-y,x,1/2-z
x,-y,z
-x,y,z
-y,-x,1/2+z
y,x,1/2+z
loop_
_atom_site_type_symbol
_atom_site_label
_atom_site_fract_x
_atom_site_fract_y
_atom_site_fract_z
Si Si1 0.136100 0.220518 0.420311
Si Si2 0.279748 0.678411 0.578149
Si Si3 0.579393 0.762146 0.371677
Si Si4 0.353077 0.236832 0.773655
Si Si5 0.713364 0.081373 0.780852
Si Si6 0.081642 0.210223 0.863718
Si Si7 0.918887 0.375963 0.915950
O O1 0.107264 0.224378 0.500000
O O2 0.212308 0.265185 0.418917
O O3 0.086781 0.253755 0.359060
O O4 0.157760 0.139880 0.397550
O O5 0.279016 0.644226 0.500000
O O6 0.354210 0.722916 0.588749
O O7 0.266200 0.630033 0.647965
O O8 0.500000 0.738732 0.395932
O O9 0.591241 0.746095 0.288610
O O10 0.587099 0.848739 0.382444
O O11 0.278055 0.278055 0.750000
O O12 0.339644 0.150357 0.774532
O O13 0.773548 0.093120 0.719595
O O14 0.683384 0.000000 0.768550
O O15 0.087594 0.290156 0.899020
O O16 0.000000 0.183950 0.874415
O O17 0.000000 0.399068 0.892322
O O18 0.915100 0.386942 0.000000
#
# Coordination Sequence:
#
# PCOD9566044 Si02
#       7
#    16  16  16  16  16  16  16
#     4  10  18  29  45  65  89 113 146 196 250 292
#     4   9  17  30  48  68  90 122 158 193 234 277
#     4  11  20  29  45  69  99 130 159 194 234 275
#     4   9  17  32  49  66  93 127 163 195 232 284
#     4  10  18  28  46  66  85 113 153 199 239 276
#     4  10  17  27  45  63  81 114 158 193 223 279
#     4  10  19  29  40  59  92 131 165 192 221 268
#
# _framework density 17.472964000000001
#
# number of rings (size 3 to 8) (size 9 to 14) (size 15 to 20)
#    0.000    2.143    2.857    3.000    0.000    2.571 
#    0.000    0.714    0.000    0.857    0.000    5.000 
#    0.000   23.143    0.000   20.000    0.000    0.000 
#
# Total GULP energy -624154.341409 kJ/mol
# GULP energy per Si atom -5572.806620 kJ/mol
# Density = 1.743319 g / cm^3
# Si number density = 17.472964 Si / 1000 Ang^3
#
#
#
# Elastic Constant Matrix: (Units=GPa)
#
#
# Indices 1 2 3 4 5 6 
#
# 1 38.6460 -0.9353 1.9923 0.0000 0.0000 0.0000
# 2 -0.9353 38.6460 1.9923 0.0000 0.0000 0.0000
# 3 1.9923 1.9923 110.6273 0.0000 0.0000 0.0000
# 4 0.0000 0.0000 0.0000 6.7537 0.0000 0.0000
# 5 0.0000 0.0000 0.0000 0.0000 6.7537 0.0000
# 6 0.0000 0.0000 0.0000 0.0000 0.0000 22.4450
#
#
#
# Elastic Compliance Matrix: (Units=1/GPa)
#
#
# Indices 1 2 3 4 5 6 
#
# 1 0.025916 0.000652 -0.000478 0.000000 0.000000 0.000000
# 2 0.000652 0.025916 -0.000478 0.000000 0.000000 0.000000
# 3 -0.000478 -0.000478 0.009057 0.000000 0.000000 0.000000
# 4 0.000000 0.000000 0.000000 0.148066 0.000000 0.000000
# 5 0.000000 0.000000 0.000000 0.000000 0.148066 0.000000
# 6 0.000000 0.000000 0.000000 0.000000 0.000000 0.044553
#
#
# Mechanical properties :
#
#
# Convention : Reuss Voigt Hill
#
# Bulk Modulus (GPa) = 16.58949 21.55756 19.07352
# Shear Modulus (GPa) = 11.84054 19.51515 15.67784
#
# Velocity S-wave (km/s) = 2.60599 3.34560 2.99868
# Velocity P-wave (km/s) = 4.30928 5.22384 4.78844
#
# Compressibility (1/GPa) = 0.06027914
#
# Stress axis : x y z
#
# Youngs Moduli (GPa) = 38.58568 38.58568 110.41677
#
# Poissons Ratio (x) = -0.02515 0.05283
# Poissons Ratio (y) = -0.02515 0.05283
# Poissons Ratio (z) = 0.01846 0.01846
#
# Static dielectric constant tensor:
#      x y z
#    x 1.582720 0.000000 0.000000 
#    y 0.000000 1.582720 0.000000 
#    z 0.000000 0.000000 1.646730 
# 
# From -- ./inp_files/10029.got.cif
#   From: 2010.05.17/outbox.cif.g08.bks.cpg/sg131_6_cif.got.tgz:10029.got - 2010.05.20 12:21:01.
