data_PCOD9566256
_publ_section_title
;
Structure prediction by ZEFSAII (Michael W. Deem and Ramdas Pophale) SiO2 
 PCOD9566256
Probable space group: P 42/M M C
;
_chemical_formula_sum "Si O2"
_cell_formula_units_Z 96
_cell_length_a 15.715136
_cell_length_b 15.715136
_cell_length_c 18.304937
_cell_angle_alpha 90.000000
_cell_angle_beta 90.000000
_cell_angle_gamma 90.000000
_cell_volume 4520.687909
_symmetry_space_group_name_H-M "P 42/M M C"
_symmetry_group_IT_number 131
_symmetry_cell_setting 'tetragonal'
loop_
_space_group_symop_operation_xyz
x,y,z
-x,-y,z
-y,x,1/2+z
y,-x,1/2+z
-x,y,-z
x,-y,-z
y,x,1/2-z
-y,-x,1/2-z
-x,-y,-z
x,y,-z
y,-x,1/2-z
-y,x,1/2-z
x,-y,z
-x,y,z
-y,-x,1/2+z
y,x,1/2+z
loop_
_atom_site_type_symbol
_atom_site_label
_atom_site_fract_x
_atom_site_fract_y
_atom_site_fract_z
Si Si1 0.601495 0.101830 0.706277
Si Si2 0.269237 0.098667 0.581393
Si Si3 0.223699 0.399032 0.344379
Si Si4 0.409000 0.597928 0.337981
Si Si5 0.697152 0.091695 0.919887
Si Si6 0.096704 0.867083 0.664931
O O1 0.500000 0.107207 0.690740
O O2 0.661399 0.130746 0.639449
O O3 0.620474 0.166716 0.772715
O O4 0.618635 0.000000 0.722802
O O5 0.270008 0.137659 0.500000
O O6 0.175142 0.099770 0.616841
O O7 0.292396 0.000000 0.573634
O O8 0.234579 0.500000 0.342529
O O9 0.317965 0.360564 0.353071
O O10 0.166643 0.368128 0.410476
O O11 0.408612 0.591389 0.250000
O O12 0.409768 0.500000 0.365981
O O13 0.500000 0.638066 0.359388
O O14 0.768166 0.096506 0.857576
O O15 0.653515 0.000000 0.913622
O O16 0.738913 0.094884 0.000000
O O17 0.115777 0.884224 0.750000
O O18 0.000000 0.898052 0.649187
#
# Coordination Sequence:
#
# PCOD9566256 Si02
#       6
#    16  16  16  16  16  16
#     4   9  18  33  53  81 119 157 196 247 299 347
#     4  10  21  36  55  81 113 150 191 234 286 351
#     4  10  19  31  53  84 113 146 193 245 294 346
#     4   8  15  29  48  73 108 145 181 228 286 342
#     4  10  22  39  57  79 112 153 190 229 287 355
#     4  11  23  39  59  82 110 145 188 238 292 351
#
# _framework density 21.235707000000001
#
# number of rings (size 3 to 8) (size 9 to 14) (size 15 to 20)
#    0.000    2.333    0.000    3.000    0.000    8.500 
#    0.000    3.333    0.000    0.500    0.000    2.333 
#    0.000    0.667    0.000    6.500    0.000    0.167 
#
# Total GULP energy -534695.821538 kJ/mol
# GULP energy per Si atom -5569.748141 kJ/mol
# Density = 2.118737 g / cm^3
# Si number density = 21.235707 Si / 1000 Ang^3
#
#
#
# Elastic Constant Matrix: (Units=GPa)
#
#
# Indices 1 2 3 4 5 6 
#
# 1 93.9950 45.6263 46.4962 0.0000 0.0000 0.0000
# 2 45.6263 93.9945 46.4963 0.0000 0.0000 0.0000
# 3 46.4962 46.4963 75.6080 0.0000 0.0000 0.0000
# 4 0.0000 0.0000 0.0000 38.5945 0.0000 0.0000
# 5 0.0000 0.0000 0.0000 0.0000 38.5897 0.0000
# 6 0.0000 0.0000 0.0000 0.0000 0.0000 40.2508
#
#
#
# Elastic Compliance Matrix: (Units=1/GPa)
#
#
# Indices 1 2 3 4 5 6 
#
# 1 0.016403 -0.004272 -0.007460 0.000000 0.000000 0.000000
# 2 -0.004272 0.016403 -0.007460 0.000000 0.000000 0.000000
# 3 -0.007460 -0.007460 0.022402 0.000000 0.000000 0.000000
# 4 0.000000 0.000000 0.000000 0.025910 0.000000 0.000000
# 5 0.000000 0.000000 0.000000 0.000000 0.025914 0.000000
# 6 0.000000 0.000000 0.000000 0.000000 0.000000 0.024844
#
#
# Mechanical properties :
#
#
# Convention : Reuss Voigt Hill
#
# Bulk Modulus (GPa) = 59.44249 60.09280 59.76764
# Shear Modulus (GPa) = 28.43055 31.81892 30.12473
#
# Velocity S-wave (km/s) = 3.66294 3.87508 3.77050
# Velocity P-wave (km/s) = 6.77806 6.95565 6.86743
#
# Compressibility (1/GPa) = 0.01682298
#
# Stress axis : x y z
#
# Youngs Moduli (GPa) = 60.96556 60.96493 44.63981
#
# Poissons Ratio (x) = 0.26043 0.33301
# Poissons Ratio (y) = 0.26044 0.33302
# Poissons Ratio (z) = 0.45481 0.45481
#
# Static dielectric constant tensor:
#      x y z
#    x 1.812740 0.000000 0.000000 
#    y 0.000000 1.812740 0.000000 
#    z 0.000000 0.000000 1.792680 
# 
# From -- ./inp_files/9703.got.cif
#   From: 2010.05.17/outbox.cif.g08.bks.cpg/sg131_5_cif.got.tgz:9703.got - 2010.05.20 12:21:01.
