data_PCOD9566471
_publ_section_title
;
Structure prediction by ZEFSAII (Michael W. Deem and Ramdas Pophale) SiO2 
 PCOD9566471
Probable space group: P 42/M M C
;
_chemical_formula_sum "Si O2"
_cell_formula_units_Z 92
_cell_length_a 15.960755
_cell_length_b 15.960755
_cell_length_c 20.208297
_cell_angle_alpha 90.000000
_cell_angle_beta 90.000000
_cell_angle_gamma 90.000000
_cell_volume 5147.976769
_symmetry_space_group_name_H-M "P 42/M M C"
_symmetry_group_IT_number 131
_symmetry_cell_setting 'tetragonal'
loop_
_space_group_symop_operation_xyz
x,y,z
-x,-y,z
-y,x,1/2+z
y,-x,1/2+z
-x,y,-z
x,-y,-z
y,x,1/2-z
-y,-x,1/2-z
-x,-y,-z
x,y,-z
y,-x,1/2-z
-y,x,1/2-z
x,-y,z
-x,y,z
-y,-x,1/2+z
y,x,1/2+z
loop_
_atom_site_type_symbol
_atom_site_label
_atom_site_fract_x
_atom_site_fract_y
_atom_site_fract_z
Si Si1 0.000000 0.405273 0.921544
Si Si2 0.190220 0.000000 0.871356
Si Si3 0.407195 0.268465 0.690764
Si Si4 0.829624 0.725556 0.422781
Si Si5 0.000000 0.000000 0.359461
Si Si6 0.709154 0.595660 0.349119
Si Si7 0.716684 0.863021 0.363266
Si Si8 0.000000 0.176716 0.212699
O O1 0.921275 0.350767 0.898733
O O2 0.000000 0.500000 0.894055
O O3 0.000000 0.410611 0.000000
O O4 0.242268 0.918506 0.894435
O O5 0.091887 0.000000 0.895750
O O6 0.182635 0.000000 0.791565
O O7 0.500000 0.242947 0.668826
O O8 0.375599 0.348710 0.648569
O O9 0.410043 0.280971 0.769619
O O10 0.336406 0.199868 0.680869
O O11 0.837351 0.703820 0.500000
O O12 0.783812 0.649717 0.382903
O O13 0.769808 0.806356 0.413110
O O14 0.083220 0.000000 0.315151
O O15 0.704493 0.500000 0.374439
O O16 0.777115 0.919524 0.318446
#
# Coordination Sequence:
#
# PCOD9566471 Si02
#       8
#     8   8  16  16   4  16  16   8
#     4  10  20  33  49  70 100 136 172 209 253 319
#     4  12  23  38  57  81 110 143 189 235 285 333
#     4   9  17  32  56  86 114 138 172 225 286 339
#     4  11  23  38  55  76 109 151 192 230 269 326
#     4  12  23  36  57  86 113 142 176 225 288 343
#     4   9  19  35  56  82 110 142 181 228 281 332
#     4  10  20  34  53  78 107 140 179 220 275 331
#     4  11  21  35  57  83 111 142 179 235 289 338
#
# _framework density 17.871098
#
# number of rings (size 3 to 8) (size 9 to 14) (size 15 to 20)
#    0.000    1.826    1.739    3.130    0.000    2.087 
#    0.000    3.913    0.000    8.870    0.000    4.870 
#    0.000    0.000    0.000    0.000    0.000    0.000 
#
# Total GULP energy -512712.633159 kJ/mol
# GULP energy per Si atom -5572.963404 kJ/mol
# Density = 1.783042 g / cm^3
# Si number density = 17.871098 Si / 1000 Ang^3
#
#
#
# Elastic Constant Matrix: (Units=GPa)
#
#
# Indices 1 2 3 4 5 6 
#
# 1 125.1693 51.1802 25.8645 0.0000 0.0000 0.0000
# 2 51.1802 125.1693 25.8645 0.0000 0.0000 0.0000
# 3 25.8645 25.8645 50.2695 0.0000 0.0000 0.0000
# 4 0.0000 0.0000 0.0000 11.0100 0.0000 0.0000
# 5 0.0000 0.0000 0.0000 0.0000 11.0100 0.0000
# 6 0.0000 0.0000 0.0000 0.0000 0.0000 2.9195
#
#
#
# Elastic Compliance Matrix: (Units=1/GPa)
#
#
# Indices 1 2 3 4 5 6 
#
# 1 0.010097 -0.003418 -0.003436 0.000000 0.000000 0.000000
# 2 -0.003418 0.010097 -0.003436 0.000000 0.000000 0.000000
# 3 -0.003436 -0.003436 0.023429 0.000000 0.000000 0.000000
# 4 0.000000 0.000000 0.000000 0.090826 0.000000 0.000000
# 5 0.000000 0.000000 0.000000 0.000000 0.090826 0.000000
# 6 0.000000 0.000000 0.000000 0.000000 0.000000 0.342528
#
#
# Mechanical properties :
#
#
# Convention : Reuss Voigt Hill
#
# Bulk Modulus (GPa) = 43.40100 56.26960 49.83530
# Shear Modulus (GPa) = 8.38834 18.16784 13.27809
#
# Velocity S-wave (km/s) = 2.16887 3.19188 2.72875
# Velocity P-wave (km/s) = 5.53266 6.71855 6.15423
#
# Compressibility (1/GPa) = 0.02304094
#
# Stress axis : x y z
#
# Youngs Moduli (GPa) = 99.03935 99.03935 42.68268
#
# Poissons Ratio (x) = 0.33857 0.14667
# Poissons Ratio (y) = 0.33857 0.14667
# Poissons Ratio (z) = 0.34032 0.34032
#
# Static dielectric constant tensor:
#      x y z
#    x 1.632530 0.000000 0.000000 
#    y 0.000000 1.632530 0.000000 
#    z 0.000000 0.000000 1.590020 
# 
# From -- ./inp_files/9825.got.cif
#   From: 2010.05.17/outbox.cif.g08.bks.cpg/sg131_5_cif.got.tgz:9825.got - 2010.05.20 12:21:01.
