data_PCOD9566770
_publ_section_title
;
Structure prediction by ZEFSAII (Michael W. Deem and Ramdas Pophale) SiO2 
 PCOD9566770
Probable space group: P 42/M M C
;
_chemical_formula_sum "Si O2"
_cell_formula_units_Z 34
_cell_length_a 10.229907
_cell_length_b 10.229907
_cell_length_c 13.455587
_cell_angle_alpha 90.000000
_cell_angle_beta 90.000000
_cell_angle_gamma 90.000000
_cell_volume 1408.140598
_symmetry_space_group_name_H-M "P 42/M M C"
_symmetry_group_IT_number 131
_symmetry_cell_setting 'tetragonal'
loop_
_space_group_symop_operation_xyz
x,y,z
-x,-y,z
-y,x,1/2+z
y,-x,1/2+z
-x,y,-z
x,-y,-z
y,x,1/2-z
-y,-x,1/2-z
-x,-y,-z
x,y,-z
y,-x,1/2-z
-y,x,1/2-z
x,-y,z
-x,y,z
-y,-x,1/2+z
y,x,1/2+z
loop_
_atom_site_type_symbol
_atom_site_label
_atom_site_fract_x
_atom_site_fract_y
_atom_site_fract_z
Si Si1 0.150257 0.500000 0.378357
Si Si2 0.714147 0.356959 0.119841
Si Si3 0.000000 0.258447 0.882141
Si Si4 0.000000 0.000000 0.250000
O O1 0.145187 0.500000 0.500000
O O2 0.235005 0.626230 0.346887
O O3 0.000000 0.500000 0.344401
O O4 0.669776 0.500000 0.154181
O O5 0.867124 0.335865 0.138560
O O6 0.699768 0.357831 0.000000
O O7 0.000000 0.127236 0.818749
O O8 0.000000 0.226779 0.000000
#
# Coordination Sequence:
#
# PCOD9566770 Si02
#       4
#     8  16   8   2
#     4   9  17  27  47  87 131 163 203 254 307 368
#     4   9  17  32  58  90 121 158 204 255 311 371
#     4  10  22  39  64  91 123 161 207 259 313 377
#     4  12  26  40  60  90 132 160 206 260 328 382
#
# _framework density 24.145315
#
# number of rings (size 3 to 8) (size 9 to 14) (size 15 to 20)
#    0.000    2.588    0.000    1.765    3.294    5.647 
#    0.000    0.000   10.353    0.000    0.000    0.000 
#    0.000    0.000    0.000    0.000    0.000    0.000 
#
# Total GULP energy -190434.478397 kJ/mol
# GULP energy per Si atom -5601.014070 kJ/mol
# Density = 2.409036 g / cm^3
# Si number density = 24.145315 Si / 1000 Ang^3
#
#
#
# Elastic Constant Matrix: (Units=GPa)
#
#
# Indices 1 2 3 4 5 6 
#
# 1 214.8635 113.6442 26.0566 0.0000 0.0000 0.0000
# 2 113.6442 214.8635 26.0566 0.0000 0.0000 0.0000
# 3 26.0566 26.0566 122.1336 0.0000 0.0000 0.0000
# 4 0.0000 0.0000 0.0000 18.8366 0.0000 0.0000
# 5 0.0000 0.0000 0.0000 0.0000 18.8366 0.0000
# 6 0.0000 0.0000 0.0000 0.0000 0.0000 32.4965
#
#
#
# Elastic Compliance Matrix: (Units=1/GPa)
#
#
# Indices 1 2 3 4 5 6 
#
# 1 0.006515 -0.003364 -0.000672 0.000000 0.000000 0.000000
# 2 -0.003364 0.006515 -0.000672 0.000000 0.000000 0.000000
# 3 -0.000672 -0.000672 0.008475 0.000000 0.000000 0.000000
# 4 0.000000 0.000000 0.000000 0.053088 0.000000 0.000000
# 5 0.000000 0.000000 0.000000 0.000000 0.053088 0.000000
# 6 0.000000 0.000000 0.000000 0.000000 0.000000 0.030773
#
#
# Mechanical properties :
#
#
# Convention : Reuss Voigt Hill
#
# Bulk Modulus (GPa) = 82.73195 98.15281 90.44238
# Shear Modulus (GPa) = 29.08661 39.77415 34.43038
#
# Velocity S-wave (km/s) = 3.47457 4.06308 3.78029
# Velocity P-wave (km/s) = 7.10179 7.92153 7.52283
#
# Compressibility (1/GPa) = 0.01208723
#
# Stress axis : x y z
#
# Youngs Moduli (GPa) = 153.48914 153.48914 118.00009
#
# Poissons Ratio (x) = 0.51640 0.07932
# Poissons Ratio (y) = 0.51640 0.07932
# Poissons Ratio (z) = 0.10317 0.10317
#
# Static dielectric constant tensor:
#      x y z
#    x 1.856990 0.000000 0.000000 
#    y 0.000000 1.856990 0.000000 
#    z 0.000000 0.000000 1.959070 
# 
# From -- ./inp_files/521.got.cif
#   From: 2010.05.17/outbox.cif.g08.bks.cpg/sg131_1_cif.got.tgz:521.got - 2010.05.20 12:21:01.
