data_PCOD9566100
_publ_section_title
;
Structure prediction by ZEFSAII (Michael W. Deem and Ramdas Pophale) SiO2 
 PCOD9566100
Probable space group: P 42/M M C
;
_chemical_formula_sum "Si O2"
_cell_formula_units_Z 104
_cell_length_a 27.458545
_cell_length_b 27.458545
_cell_length_c 8.620987
_cell_angle_alpha 90.000000
_cell_angle_beta 90.000000
_cell_angle_gamma 90.000000
_cell_volume 6499.980168
_symmetry_space_group_name_H-M "P 42/M M C"
_symmetry_group_IT_number 131
_symmetry_cell_setting 'tetragonal'
loop_
_space_group_symop_operation_xyz
x,y,z
-x,-y,z
-y,x,1/2+z
y,-x,1/2+z
-x,y,-z
x,-y,-z
y,x,1/2-z
-y,-x,1/2-z
-x,-y,-z
x,y,-z
y,-x,1/2-z
-y,x,1/2-z
x,-y,z
-x,y,z
-y,-x,1/2+z
y,x,1/2+z
loop_
_atom_site_type_symbol
_atom_site_label
_atom_site_fract_x
_atom_site_fract_y
_atom_site_fract_z
Si Si1 0.631322 0.555758 0.312784
Si Si2 0.184603 0.344766 0.185869
Si Si3 0.555564 0.000000 0.810899
Si Si4 0.234425 0.158201 0.686567
Si Si5 0.082553 0.369578 0.313729
Si Si6 0.946406 0.735869 0.812431
Si Si7 0.365255 0.710676 0.186043
O O1 0.584542 0.584542 0.250000
O O2 0.629318 0.555972 0.500000
O O3 0.633597 0.500000 0.259654
O O4 0.678460 0.587790 0.267226
O O5 0.178788 0.287737 0.233139
O O6 0.137457 0.372275 0.251637
O O7 0.235160 0.365201 0.248359
O O8 0.183577 0.346447 0.000000
O O9 0.586356 0.047560 0.764031
O O10 0.500000 0.000000 0.756097
O O11 0.554615 0.000000 0.000000
O O12 0.191630 0.191630 0.750000
O O13 0.232470 0.159494 0.500000
O O14 0.234083 0.101453 0.736730
O O15 0.082991 0.367610 0.500000
O O16 0.061012 0.318790 0.250173
O O17 0.000000 0.753866 0.764981
O O18 0.945212 0.733557 0.000000
O O19 0.318612 0.681389 0.250000
O O20 0.362829 0.712027 0.000000
#
# Coordination Sequence:
#
# PCOD9566100 Si02
#       7
#    16  16   8  16  16  16  16
#     4   9  19  35  53  74  99 125 155 191 233 283
#     4  10  20  33  48  68  95 127 161 195 236 286
#     4   9  18  32  49  69  93 119 151 197 248 295
#     4   9  18  29  42  64  92 123 152 184 228 274
#     4  10  18  30  49  71  91 116 157 201 240 284
#     4   9  17  30  47  65  91 125 157 190 233 284
#     4  10  19  32  51  73  97 127 160 194 233 282
#
# _framework density 16.000049000000001
#
# number of rings (size 3 to 8) (size 9 to 14) (size 15 to 20)
#    0.000    2.538    0.769    2.769    0.000    5.385 
#    0.000    1.538    0.000    8.308    0.000    0.000 
#    0.000    0.308    0.000    3.846    0.000    0.000 
#
# Total GULP energy -579804.485791 kJ/mol
# GULP energy per Si atom -5575.043133 kJ/mol
# Density = 1.596363 g / cm^3
# Si number density = 16.000049 Si / 1000 Ang^3
#
#
#
# Elastic Constant Matrix: (Units=GPa)
#
#
# Indices 1 2 3 4 5 6 
#
# 1 141.8435 77.0014 22.2936 0.0000 0.0000 0.0000
# 2 77.0014 141.8393 22.2936 0.0000 0.0000 0.0000
# 3 22.2936 22.2936 13.1126 0.0000 0.0000 0.0000
# 4 0.0000 0.0000 0.0000 19.6315 0.0000 0.0000
# 5 0.0000 0.0000 0.0000 0.0000 19.6318 0.0000
# 6 0.0000 0.0000 0.0000 0.0000 0.0000 18.7002
#
#
#
# Elastic Compliance Matrix: (Units=1/GPa)
#
#
# Indices 1 2 3 4 5 6 
#
# 1 0.011207 -0.004216 -0.011886 0.000000 0.000000 0.000000
# 2 -0.004216 0.011207 -0.011887 0.000000 0.000000 0.000000
# 3 -0.011886 -0.011887 0.116679 0.000000 0.000000 0.000000
# 4 0.000000 0.000000 0.000000 0.050938 0.000000 0.000000
# 5 0.000000 0.000000 0.000000 0.000000 0.050938 0.000000
# 6 0.000000 0.000000 0.000000 0.000000 0.000000 0.053475
#
#
# Mechanical properties :
#
#
# Convention : Reuss Voigt Hill
#
# Bulk Modulus (GPa) = 12.03122 59.99695 36.01409
# Shear Modulus (GPa) = 13.22309 23.27317 18.24813
#
# Velocity S-wave (km/s) = 2.87791 3.81802 3.38080
# Velocity P-wave (km/s) = 4.31033 7.55088 6.14795
#
# Compressibility (1/GPa) = 0.08311710
#
# Stress axis : x y z
#
# Youngs Moduli (GPa) = 89.23270 89.22905 8.57049
#
# Poissons Ratio (x) = 0.37616 0.10187
# Poissons Ratio (y) = 0.37618 0.10187
# Poissons Ratio (z) = 1.06060 1.06063
#
# Static dielectric constant tensor:
#      x y z
#    x 1.531530 0.000000 0.000000 
#    y 0.000000 1.531530 0.000000 
#    z 0.000000 0.000000 1.542390 
# 
# From -- ./inp_files/2562.got.cif
#   From: 2010.05.17/outbox.cif.g08.bks.cpg/sg131_2_cif.got.tgz:2562.got - 2010.05.20 12:21:01.
