data_PCOD9566836
_publ_section_title
;
Structure prediction by ZEFSAII (Michael W. Deem and Ramdas Pophale) SiO2 
 PCOD9566836
Probable space group: P 42/M M C
;
_chemical_formula_sum "Si O2"
_cell_formula_units_Z 96
_cell_length_a 24.606579
_cell_length_b 24.606579
_cell_length_c 9.193216
_cell_angle_alpha 90.000000
_cell_angle_beta 90.000000
_cell_angle_gamma 90.000000
_cell_volume 5566.342715
_symmetry_space_group_name_H-M "P 42/M M C"
_symmetry_group_IT_number 131
_symmetry_cell_setting 'tetragonal'
loop_
_space_group_symop_operation_xyz
x,y,z
-x,-y,z
-y,x,1/2+z
y,-x,1/2+z
-x,y,-z
x,-y,-z
y,x,1/2-z
-y,-x,1/2-z
-x,-y,-z
x,y,-z
y,-x,1/2-z
-y,x,1/2-z
x,-y,z
-x,y,z
-y,-x,1/2+z
y,x,1/2+z
loop_
_atom_site_type_symbol
_atom_site_label
_atom_site_fract_x
_atom_site_fract_y
_atom_site_fract_z
Si Si1 0.144298 0.063133 0.174959
Si Si2 0.935008 0.438279 0.829385
Si Si3 0.854453 0.359940 0.325737
Si Si4 0.769890 0.437494 0.826247
Si Si5 0.642050 0.438801 0.826137
Si Si6 0.152316 0.766507 0.674892
O O1 0.094197 0.094197 0.250000
O O2 0.198144 0.098435 0.210967
O O3 0.148439 0.000000 0.217831
O O4 0.137675 0.065263 0.000000
O O5 0.919586 0.500000 0.784785
O O6 0.906114 0.392181 0.736927
O O7 0.000000 0.434454 0.818918
O O8 0.920203 0.432555 0.000000
O O9 0.854084 0.362324 0.500000
O O10 0.804214 0.393504 0.259987
O O11 0.852891 0.296501 0.282290
O O12 0.784998 0.500000 0.789526
O O13 0.705926 0.431227 0.796122
O O14 0.778095 0.431241 0.000000
O O15 0.605482 0.394519 0.750000
O O16 0.626997 0.500000 0.779548
O O17 0.635464 0.435744 0.000000
O O18 0.202471 0.797530 0.750000
O O19 0.159207 0.768662 0.500000
#
# Coordination Sequence:
#
# PCOD9566836 Si02
#       6
#    16  16  16  16  16  16
#     4   9  18  34  55  76 101 134 167 200 241 288
#     4   9  19  36  55  75 103 139 175 209 248 299
#     4  11  22  33  51  80 106 130 167 214 261 305
#     4   9  19  36  54  71  97 134 171 207 250 302
#     4   9  19  35  53  74 100 131 167 206 252 306
#     4   9  20  37  53  72 101 136 171 207 249 296
#
# _framework density 17.246514000000001
#
# number of rings (size 3 to 8) (size 9 to 14) (size 15 to 20)
#    0.000    2.667    0.000    2.500    0.000    7.333 
#    0.000    9.167    0.000    0.000    0.000    0.000 
#    0.000    0.000    0.000    0.000    0.000    0.000 
#
# Total GULP energy -535427.989827 kJ/mol
# GULP energy per Si atom -5577.374894 kJ/mol
# Density = 1.720726 g / cm^3
# Si number density = 17.246514 Si / 1000 Ang^3
#
#
#
# Elastic Constant Matrix: (Units=GPa)
#
#
# Indices 1 2 3 4 5 6 
#
# 1 148.9940 88.0343 51.6222 0.0000 0.0000 0.0000
# 2 88.0343 149.0016 51.6213 0.0000 0.0000 0.0000
# 3 51.6222 51.6213 32.5603 0.0000 0.0000 0.0000
# 4 0.0000 0.0000 0.0000 36.7434 0.0000 0.0000
# 5 0.0000 0.0000 0.0000 0.0000 36.7442 0.0000
# 6 0.0000 0.0000 0.0000 0.0000 0.0000 25.9777
#
#
#
# Elastic Compliance Matrix: (Units=1/GPa)
#
#
# Indices 1 2 3 4 5 6 
#
# 1 0.015020 -0.001385 -0.021617 0.000000 0.000000 0.000000
# 2 -0.001385 0.015017 -0.021613 0.000000 0.000000 0.000000
# 3 -0.021617 -0.021613 0.099250 0.000000 0.000000 0.000000
# 4 0.000000 0.000000 0.000000 0.027216 0.000000 0.000000
# 5 0.000000 0.000000 0.000000 0.000000 0.027215 0.000000
# 6 0.000000 0.000000 0.000000 0.000000 0.000000 0.038495
#
#
# Mechanical properties :
#
#
# Convention : Reuss Voigt Hill
#
# Bulk Modulus (GPa) = 24.96434 79.23461 52.09948
# Shear Modulus (GPa) = 15.39434 29.17827 22.28630
#
# Velocity S-wave (km/s) = 2.99089 4.11766 3.59865
# Velocity P-wave (km/s) = 5.14137 8.28546 6.89502
#
# Compressibility (1/GPa) = 0.04005714
#
# Stress axis : x y z
#
# Youngs Moduli (GPa) = 66.57941 66.59004 10.07556
#
# Poissons Ratio (x) = 0.09221 0.21781
# Poissons Ratio (y) = 0.09220 0.21776
# Poissons Ratio (z) = 1.43926 1.43920
#
# Static dielectric constant tensor:
#      x y z
#    x 1.576180 0.000000 0.000000 
#    y 0.000000 1.576180 0.000000 
#    z 0.000000 0.000000 1.570530 
# 
# From -- ./inp_files/2214.got.cif
#   From: 2010.05.17/outbox.cif.g08.bks.cpg/sg131_2_cif.got.tgz:2214.got - 2010.05.20 12:21:01.
