data_PCOD9566086
_publ_section_title
;
Structure prediction by ZEFSAII (Michael W. Deem and Ramdas Pophale) SiO2 
 PCOD9566086
Probable space group: P 42/M M C
;
_chemical_formula_sum "Si O2"
_cell_formula_units_Z 72
_cell_length_a 15.140248
_cell_length_b 15.140248
_cell_length_c 14.294181
_cell_angle_alpha 90.000000
_cell_angle_beta 90.000000
_cell_angle_gamma 90.000000
_cell_volume 3276.613793
_symmetry_space_group_name_H-M "P 42/M M C"
_symmetry_group_IT_number 131
_symmetry_cell_setting 'tetragonal'
loop_
_space_group_symop_operation_xyz
x,y,z
-x,-y,z
-y,x,1/2+z
y,-x,1/2+z
-x,y,-z
x,-y,-z
y,x,1/2-z
-y,-x,1/2-z
-x,-y,-z
x,y,-z
y,-x,1/2-z
-y,x,1/2-z
x,-y,z
-x,y,z
-y,-x,1/2+z
y,x,1/2+z
loop_
_atom_site_type_symbol
_atom_site_label
_atom_site_fract_x
_atom_site_fract_y
_atom_site_fract_z
Si Si1 0.713579 0.167658 0.895197
Si Si2 0.395866 0.000000 0.114374
Si Si3 0.905085 0.102051 0.862413
Si Si4 0.746240 0.638190 0.114433
Si Si5 0.500000 0.600201 0.386458
Si Si6 0.103828 0.500000 0.885917
O O1 0.655825 0.088168 0.852380
O O2 0.815190 0.138436 0.901550
O O3 0.724777 0.263705 0.851835
O O4 0.676295 0.180251 0.000000
O O5 0.500000 0.000000 0.136525
O O6 0.388134 0.000000 0.000000
O O7 0.896332 0.103669 0.750000
O O8 0.000000 0.144145 0.887118
O O9 0.909284 0.000000 0.889673
O O10 0.660558 0.582045 0.140980
O O11 0.835756 0.585275 0.142750
O O12 0.751859 0.641268 0.000000
O O13 0.500000 0.500000 0.353810
O O14 0.500000 0.597442 0.500000
O O15 0.000000 0.500000 0.856361
O O16 0.102391 0.500000 0.000000
#
# Coordination Sequence:
#
# PCOD9566086 Si02
#       6
#    16   8  16  16   8   8
#     4  10  18  29  46  70  98 126 159 196 235 282
#     4   9  18  30  43  65  97 129 157 192 242 288
#     4   9  18  32  48  67  91 122 159 195 235 282
#     4   8  15  24  36  59  86 113 149 187 223 269
#     4   8  13  23  38  57  87 122 149 183 230 271
#     4   8  13  23  36  51  79 116 147 179 224 274
#
# _framework density 21.973904999999998
#
# number of rings (size 3 to 8) (size 9 to 14) (size 15 to 20)
#    0.000    3.222    1.111    2.000    0.000    2.222 
#    0.000    7.778    0.000    0.000    5.778    0.000 
#    0.000    0.000    0.000    0.000    0.000    0.000 
#
# Total GULP energy -401089.968598 kJ/mol
# GULP energy per Si atom -5570.694008 kJ/mol
# Density = 2.192389 g / cm^3
# Si number density = 21.973905 Si / 1000 Ang^3
#
#
#
# Elastic Constant Matrix: (Units=GPa)
#
#
# Indices 1 2 3 4 5 6 
#
# 1 201.9992 115.9657 10.3895 0.0000 0.0000 0.0000
# 2 115.9657 201.9991 10.3895 0.0000 0.0000 0.0000
# 3 10.3895 10.3895 71.0203 0.0000 0.0000 0.0000
# 4 0.0000 0.0000 0.0000 -12.5034 0.0000 0.0000
# 5 0.0000 0.0000 0.0000 0.0000 -12.5035 0.0000
# 6 0.0000 0.0000 0.0000 0.0000 0.0000 8.6475
#
#
#
# Elastic Compliance Matrix: (Units=1/GPa)
#
#
# Indices 1 2 3 4 5 6 
#
# 1 0.007399 -0.004224 -0.000465 0.000000 0.000000 0.000000
# 2 -0.004224 0.007399 -0.000465 0.000000 0.000000 0.000000
# 3 -0.000465 -0.000465 0.014216 0.000000 0.000000 0.000000
# 4 0.000000 0.000000 0.000000 -0.079978 0.000000 0.000000
# 5 0.000000 0.000000 0.000000 0.000000 -0.079977 0.000000
# 6 0.000000 0.000000 0.000000 0.000000 0.000000 0.115641
#
#
# Mechanical properties :
#
#
# Convention : Reuss Voigt Hill
#
# Bulk Modulus (GPa) = 53.45013 83.16754 68.30883
# Shear Modulus (GPa) = 4023.09948 19.27970 2021.18959
#
# Velocity S-wave (km/s) = 42.83489 2.96529 30.36133
# Velocity P-wave (km/s) = 49.70729 7.04659 35.49978
#
# Compressibility (1/GPa) = 0.01870903
#
# Stress axis : x y z
#
# Youngs Moduli (GPa) = 135.14659 135.14655 70.34136
#
# Poissons Ratio (x) = 0.57086 0.03267
# Poissons Ratio (y) = 0.57086 0.03267
# Poissons Ratio (z) = 0.06278 0.06278
#
# Static dielectric constant tensor:
#      x y z
#    x 1.764990 0.000000 0.000000 
#    y 0.000000 1.764990 0.000000 
#    z 0.000000 0.000000 1.847480 
# 
# From -- ./inp_files/7652.got.cif
#   From: 2010.05.17/outbox.cif.g08.bks.cpg/sg131_4_cif.got.tgz:7652.got - 2010.05.20 12:21:01.
