data_PCOD9566535
_publ_section_title
;
Structure prediction by ZEFSAII (Michael W. Deem and Ramdas Pophale) SiO2 
 PCOD9566535
Probable space group: P 42/M M C
;
_chemical_formula_sum "Si O2"
_cell_formula_units_Z 96
_cell_length_a 14.347662
_cell_length_b 14.347662
_cell_length_c 28.606972
_cell_angle_alpha 90.000000
_cell_angle_beta 90.000000
_cell_angle_gamma 90.000000
_cell_volume 5888.899803
_symmetry_space_group_name_H-M "P 42/M M C"
_symmetry_group_IT_number 131
_symmetry_cell_setting 'tetragonal'
loop_
_space_group_symop_operation_xyz
x,y,z
-x,-y,z
-y,x,1/2+z
y,-x,1/2+z
-x,y,-z
x,-y,-z
y,x,1/2-z
-y,-x,1/2-z
-x,-y,-z
x,y,-z
y,-x,1/2-z
-y,x,1/2-z
x,-y,z
-x,y,z
-y,-x,1/2+z
y,x,1/2+z
loop_
_atom_site_type_symbol
_atom_site_label
_atom_site_fract_x
_atom_site_fract_y
_atom_site_fract_z
Si Si1 0.889349 0.000000 0.947256
Si Si2 0.728474 0.612194 0.787595
Si Si3 0.892098 0.812985 0.107268
Si Si4 0.611417 0.393027 0.380619
Si Si5 0.500000 0.105772 0.443699
Si Si6 0.238016 0.328000 0.055713
Si Si7 0.889420 0.764100 0.215690
O O1 0.871427 0.087653 0.914861
O O2 0.000000 0.000000 0.954114
O O3 0.847696 0.000000 0.000000
O O4 0.658403 0.658403 0.750000
O O5 0.739579 0.500000 0.781436
O O6 0.675743 0.628769 0.836881
O O7 0.825884 0.669653 0.784450
O O8 0.813594 0.752750 0.082747
O O9 0.885891 0.804317 0.162964
O O10 0.000000 0.786287 0.094475
O O11 0.643048 0.500000 0.373170
O O12 0.500000 0.396018 0.386873
O O13 0.654634 0.341232 0.425141
O O14 0.500000 0.097663 0.500000
O O15 0.413430 0.169809 0.431167
O O16 0.500000 0.000000 0.424697
O O17 0.237001 0.316390 0.000000
O O18 0.837144 0.837144 0.250000
O O19 0.000000 0.750161 0.227129
#
# Coordination Sequence:
#
# PCOD9566535 Si02
#       7
#     8  16  16  16   8  16  16
#     4   9  18  32  52  78 107 141 185 229 266 310
#     4  10  20  37  59  83 110 141 184 233 280 332
#     4  10  20  35  54  78 109 143 182 225 274 327
#     4  10  20  34  52  76 108 145 185 228 273 322
#     4   9  18  30  45  69 103 143 180 216 269 335
#     4  11  20  32  49  74 107 143 185 227 271 325
#     4  10  22  37  56  84 115 148 181 222 279 342
#
# _framework density 16.301856000000001
#
# number of rings (size 3 to 8) (size 9 to 14) (size 15 to 20)
#    0.000    2.000    2.500    1.500    1.167    3.333 
#    0.000    0.833    0.000    0.000    0.000    0.583 
#    0.000    2.000    0.000    0.000    0.000    0.000 
#
# Total GULP energy -534456.805390 kJ/mol
# GULP energy per Si atom -5567.258389 kJ/mol
# Density = 1.626475 g / cm^3
# Si number density = 16.301856 Si / 1000 Ang^3
#
#
#
# Elastic Constant Matrix: (Units=GPa)
#
#
# Indices 1 2 3 4 5 6 
#
# 1 107.7850 58.9550 42.0381 0.0000 0.0000 0.0000
# 2 58.9550 107.7850 42.0381 0.0000 0.0000 0.0000
# 3 42.0381 42.0381 85.7315 0.0000 0.0000 0.0000
# 4 0.0000 0.0000 0.0000 19.5191 0.0000 0.0000
# 5 0.0000 0.0000 0.0000 0.0000 19.5191 0.0000
# 6 0.0000 0.0000 0.0000 0.0000 0.0000 20.1301
#
#
#
# Elastic Compliance Matrix: (Units=1/GPa)
#
#
# Indices 1 2 3 4 5 6 
#
# 1 0.014223 -0.006256 -0.003907 0.000000 0.000000 0.000000
# 2 -0.006256 0.014223 -0.003907 0.000000 0.000000 0.000000
# 3 -0.003907 -0.003907 0.015496 0.000000 0.000000 0.000000
# 4 0.000000 0.000000 0.000000 0.051232 0.000000 0.000000
# 5 0.000000 0.000000 0.000000 0.000000 0.051232 0.000000
# 6 0.000000 0.000000 0.000000 0.000000 0.000000 0.049677
#
#
# Mechanical properties :
#
#
# Convention : Reuss Voigt Hill
#
# Bulk Modulus (GPa) = 63.27803 65.26265 64.27034
# Shear Modulus (GPa) = 21.78751 22.38501 22.08626
#
# Velocity S-wave (km/s) = 3.65979 3.70963 3.68480
# Velocity P-wave (km/s) = 7.53389 7.64652 7.59041
#
# Compressibility (1/GPa) = 0.01580327
#
# Stress axis : x y z
#
# Youngs Moduli (GPa) = 70.30742 70.30742 64.53435
#
# Poissons Ratio (x) = 0.43984 0.25212
# Poissons Ratio (y) = 0.43984 0.25212
# Poissons Ratio (z) = 0.27467 0.27467
#
# Static dielectric constant tensor:
#      x y z
#    x 1.464220 0.000000 0.000000 
#    y 0.000000 1.464220 0.000000 
#    z 0.000000 0.000000 1.564540 
# 
# From -- ./inp_files/11146.got.cif
#   From: 2010.05.17/outbox.cif.g08.bks.cpg/sg131_6_cif.got.tgz:11146.got - 2010.05.20 12:21:01.
