data_PCOD9566047
_publ_section_title
;
Structure prediction by ZEFSAII (Michael W. Deem and Ramdas Pophale) SiO2 
 PCOD9566047
Probable space group: P 42/M M C
;
_chemical_formula_sum "Si O2"
_cell_formula_units_Z 96
_cell_length_a 14.987871
_cell_length_b 14.987871
_cell_length_c 21.215487
_cell_angle_alpha 90.000000
_cell_angle_beta 90.000000
_cell_angle_gamma 90.000000
_cell_volume 4765.768017
_symmetry_space_group_name_H-M "P 42/M M C"
_symmetry_group_IT_number 131
_symmetry_cell_setting 'tetragonal'
loop_
_space_group_symop_operation_xyz
x,y,z
-x,-y,z
-y,x,1/2+z
y,-x,1/2+z
-x,y,-z
x,-y,-z
y,x,1/2-z
-y,-x,1/2-z
-x,-y,-z
x,y,-z
y,-x,1/2-z
-y,x,1/2-z
x,-y,z
-x,y,z
-y,-x,1/2+z
y,x,1/2+z
loop_
_atom_site_type_symbol
_atom_site_label
_atom_site_fract_x
_atom_site_fract_y
_atom_site_fract_z
Si Si1 0.168190 0.397493 0.866104
Si Si2 0.608000 0.904150 0.236264
Si Si3 0.403489 0.370646 0.323427
Si Si4 0.781728 0.600642 0.619841
Si Si5 0.216870 0.205801 0.569933
Si Si6 0.106536 0.106963 0.821701
O O1 0.145068 0.500000 0.885736
O O2 0.107280 0.363707 0.808433
O O3 0.264505 0.402451 0.832505
O O4 0.178261 0.320556 0.917797
O O5 0.500000 0.903396 0.239926
O O6 0.628921 0.829020 0.185630
O O7 0.638735 0.000000 0.211792
O O8 0.392308 0.392308 0.250000
O O9 0.500000 0.402130 0.344903
O O10 0.322145 0.405883 0.363626
O O11 0.813214 0.500000 0.601454
O O12 0.792733 0.686410 0.575576
O O13 0.189577 0.177381 0.500000
O O14 0.159403 0.160319 0.625034
O O15 0.133217 0.133217 0.750000
O O16 0.000000 0.122939 0.827876
O O17 0.120062 0.000000 0.827237
#
# Coordination Sequence:
#
# PCOD9566047 Si02
#       6
#    16  16  16  16  16  16
#     4   9  19  35  54  78 117 160 199 247 299 352
#     4   9  17  31  53  81 109 143 189 239 295 354
#     4  10  17  27  47  76 110 147 192 250 310 355
#     4  10  21  36  53  78 120 163 202 249 297 352
#     4  11  25  39  59  91 123 163 209 250 299 360
#     4   9  21  44  72  99 124 152 191 245 308 367
#
# _framework density 20.143657999999999
#
# number of rings (size 3 to 8) (size 9 to 14) (size 15 to 20)
#    0.000    2.333    1.667    1.000    2.333    3.833 
#    0.000    0.833    0.000    0.000    0.000   11.667 
#    0.000    0.000    0.000    0.000    0.000    0.000 
#
# Total GULP energy -535249.461246 kJ/mol
# GULP energy per Si atom -5575.515221 kJ/mol
# Density = 2.009781 g / cm^3
# Si number density = 20.143658 Si / 1000 Ang^3
#
#
#
# Elastic Constant Matrix: (Units=GPa)
#
#
# Indices 1 2 3 4 5 6 
#
# 1 70.2726 32.1369 43.1036 0.0000 0.0000 0.0000
# 2 32.1369 70.2726 43.1036 0.0000 0.0000 0.0000
# 3 43.1036 43.1036 113.1126 0.0000 0.0000 0.0000
# 4 0.0000 0.0000 0.0000 17.2571 0.0000 0.0000
# 5 0.0000 0.0000 0.0000 0.0000 17.2571 0.0000
# 6 0.0000 0.0000 0.0000 0.0000 0.0000 19.8214
#
#
#
# Elastic Compliance Matrix: (Units=1/GPa)
#
#
# Indices 1 2 3 4 5 6 
#
# 1 0.020299 -0.005923 -0.005478 0.000000 0.000000 0.000000
# 2 -0.005923 0.020299 -0.005478 0.000000 0.000000 0.000000
# 3 -0.005478 -0.005478 0.013016 0.000000 0.000000 0.000000
# 4 0.000000 0.000000 0.000000 0.057947 0.000000 0.000000
# 5 0.000000 0.000000 0.000000 0.000000 0.057947 0.000000
# 6 0.000000 0.000000 0.000000 0.000000 0.000000 0.050451
#
#
# Mechanical properties :
#
#
# Convention : Reuss Voigt Hill
#
# Bulk Modulus (GPa) = 50.36454 54.48287 52.42371
# Shear Modulus (GPa) = 19.20586 19.88802 19.54694
#
# Velocity S-wave (km/s) = 3.09114 3.14556 3.11847
# Velocity P-wave (km/s) = 6.14794 6.34812 6.24883
#
# Compressibility (1/GPa) = 0.01985524
#
# Stress axis : x y z
#
# Youngs Moduli (GPa) = 49.26296 49.26296 76.82854
#
# Poissons Ratio (x) = 0.29178 0.42089
# Poissons Ratio (y) = 0.29178 0.42089
# Poissons Ratio (z) = 0.26988 0.26988
#
# Static dielectric constant tensor:
#      x y z
#    x 1.727490 0.000000 0.000000 
#    y 0.000000 1.727490 0.000000 
#    z 0.000000 0.000000 1.666310 
# 
# From -- ./inp_files/9747.got.cif
#   From: 2010.05.17/outbox.cif.g08.bks.cpg/sg131_5_cif.got.tgz:9747.got - 2010.05.20 12:21:01.
