data_PCOD9566058
_publ_section_title
;
Structure prediction by ZEFSAII (Michael W. Deem and Ramdas Pophale) SiO2 
 PCOD9566058
Probable space group: P 42/M M C
;
_chemical_formula_sum "Si O2"
_cell_formula_units_Z 72
_cell_length_a 15.481205
_cell_length_b 15.481205
_cell_length_c 14.376053
_cell_angle_alpha 90.000000
_cell_angle_beta 90.000000
_cell_angle_gamma 90.000000
_cell_volume 3445.475676
_symmetry_space_group_name_H-M "P 42/M M C"
_symmetry_group_IT_number 131
_symmetry_cell_setting 'tetragonal'
loop_
_space_group_symop_operation_xyz
x,y,z
-x,-y,z
-y,x,1/2+z
y,-x,1/2+z
-x,y,-z
x,-y,-z
y,x,1/2-z
-y,-x,1/2-z
-x,-y,-z
x,y,-z
y,-x,1/2-z
-y,x,1/2-z
x,-y,z
-x,y,z
-y,-x,1/2+z
y,x,1/2+z
loop_
_atom_site_type_symbol
_atom_site_label
_atom_site_fract_x
_atom_site_fract_y
_atom_site_fract_z
Si Si1 0.190431 0.097798 0.885538
Si Si2 0.895159 0.000000 0.604693
Si Si3 0.596341 0.598006 0.361539
Si Si4 0.752101 0.275791 0.891339
Si Si5 0.902136 0.599559 0.113410
O O1 0.250159 0.177462 0.856192
O O2 0.093251 0.125373 0.855022
O O3 0.209562 0.000000 0.853469
O O4 0.188441 0.092084 0.000000
O O5 0.858600 0.000000 0.500000
O O6 0.000000 0.000000 0.599527
O O7 0.594626 0.594626 0.250000
O O8 0.610338 0.500000 0.394257
O O9 0.500000 0.626550 0.392193
O O10 0.670951 0.664160 0.386037
O O11 0.828703 0.335664 0.851800
O O12 0.773481 0.266694 0.000000
O O13 0.885911 0.500000 0.142122
O O14 0.000000 0.623989 0.140528
O O15 0.900250 0.599278 0.000000
#
# Coordination Sequence:
#
# PCOD9566058 Si02
#       5
#    16   8  16  16  16
#     4   8  14  23  36  60  95 128 156 189 225 260
#     4   7  10  18  32  52  85 127 161 185 213 252
#     4   9  19  36  54  69  88 116 147 182 232 290
#     4  10  18  26  45  73  95 118 153 194 229 265
#     4   8  14  23  34  55  92 128 149 173 220 277
#
# _framework density 20.896968000000001
#
# number of rings (size 3 to 8) (size 9 to 14) (size 15 to 20)
#    0.000    3.444    0.000    3.333    1.556    1.778 
#    0.000    1.111    0.000    2.000    0.000    6.222 
#    0.000    0.000    0.000    0.000    0.000    0.000 
#
# Total GULP energy -401255.586407 kJ/mol
# GULP energy per Si atom -5572.994256 kJ/mol
# Density = 2.084941 g / cm^3
# Si number density = 20.896968 Si / 1000 Ang^3
#
#
#
# Elastic Constant Matrix: (Units=GPa)
#
#
# Indices 1 2 3 4 5 6 
#
# 1 136.5976 104.3845 0.2156 0.0000 0.0000 0.0000
# 2 104.3845 136.5976 0.2156 0.0000 0.0000 0.0000
# 3 0.2156 0.2156 50.4514 0.0000 0.0000 0.0000
# 4 0.0000 0.0000 0.0000 23.8325 0.0000 0.0000
# 5 0.0000 0.0000 0.0000 0.0000 23.8325 0.0000
# 6 0.0000 0.0000 0.0000 0.0000 0.0000 29.1055
#
#
#
# Elastic Compliance Matrix: (Units=1/GPa)
#
#
# Indices 1 2 3 4 5 6 
#
# 1 0.017596 -0.013447 -0.000018 0.000000 0.000000 0.000000
# 2 -0.013447 0.017596 -0.000018 0.000000 0.000000 0.000000
# 3 -0.000018 -0.000018 0.019821 0.000000 0.000000 0.000000
# 4 0.000000 0.000000 0.000000 0.041960 0.000000 0.000000
# 5 0.000000 0.000000 0.000000 0.000000 0.041960 0.000000
# 6 0.000000 0.000000 0.000000 0.000000 0.000000 0.034358
#
#
# Mechanical properties :
#
#
# Convention : Reuss Voigt Hill
#
# Bulk Modulus (GPa) = 35.65099 59.25308 47.45203
# Shear Modulus (GPa) = 23.85435 29.94283 26.89859
#
# Velocity S-wave (km/s) = 3.38231 3.78945 3.59165
# Velocity P-wave (km/s) = 5.68777 6.89659 6.32114
#
# Compressibility (1/GPa) = 0.02804972
#
# Stress axis : x y z
#
# Youngs Moduli (GPa) = 56.82949 56.82949 50.45103
#
# Poissons Ratio (x) = 0.76417 0.00089
# Poissons Ratio (y) = 0.76417 0.00089
# Poissons Ratio (z) = 0.00101 0.00101
#
# Static dielectric constant tensor:
#      x y z
#    x 1.762380 0.000000 0.000000 
#    y 0.000000 1.762380 0.000000 
#    z 0.000000 0.000000 1.821970 
# 
# From -- ./inp_files/7594.got.cif
#   From: 2010.05.17/outbox.cif.g08.bks.cpg/sg131_4_cif.got.tgz:7594.got - 2010.05.20 12:21:01.
