data_PCOD9566403
_publ_section_title
;
Structure prediction by ZEFSAII (Michael W. Deem and Ramdas Pophale) SiO2 
 PCOD9566403
Probable space group: P 42/M M C
;
_chemical_formula_sum "Si O2"
_cell_formula_units_Z 56
_cell_length_a 18.345888
_cell_length_b 18.345888
_cell_length_c 8.261298
_cell_angle_alpha 90.000000
_cell_angle_beta 90.000000
_cell_angle_gamma 90.000000
_cell_volume 2780.518340
_symmetry_space_group_name_H-M "P 42/M M C"
_symmetry_group_IT_number 131
_symmetry_cell_setting 'tetragonal'
loop_
_space_group_symop_operation_xyz
x,y,z
-x,-y,z
-y,x,1/2+z
y,-x,1/2+z
-x,y,-z
x,-y,-z
y,x,1/2-z
-y,-x,1/2-z
-x,-y,-z
x,y,-z
y,-x,1/2-z
-y,x,1/2-z
x,-y,z
-x,y,z
-y,-x,1/2+z
y,x,1/2+z
loop_
_atom_site_type_symbol
_atom_site_label
_atom_site_fract_x
_atom_site_fract_y
_atom_site_fract_z
Si Si1 0.916315 0.799148 0.306660
Si Si2 0.692172 0.417200 0.805094
Si Si3 0.916722 0.500000 0.197101
Si Si4 0.159934 0.650142 0.803943
O O1 0.866277 0.866277 0.250000
O O2 0.918883 0.801271 0.500000
O O3 0.877792 0.723330 0.257037
O O4 0.000000 0.801992 0.244841
O O5 0.616223 0.383778 0.750000
O O6 0.703994 0.500000 0.748572
O O7 0.757190 0.364016 0.749402
O O8 0.694833 0.418617 0.000000
O O9 0.880445 0.575726 0.248294
O O10 0.000000 0.500000 0.247371
O O11 0.912827 0.500000 0.000000
O O12 0.158398 0.653242 0.000000
#
# Coordination Sequence:
#
# PCOD9566403 Si02
#       4
#    16  16   8  16
#     4  11  25  43  63  90 123 158 199 248 301 357
#     4  10  21  37  56  81 114 150 194 245 291 342
#     4   9  16  28  53  87 118 153 194 232 277 341
#     4  10  19  36  61  89 121 156 196 241 291 352
#
# _framework density 20.140128000000001
#
# number of rings (size 3 to 8) (size 9 to 14) (size 15 to 20)
#    0.000    1.857    1.429    2.571    0.000    8.000 
#    0.000    3.571    0.000    2.571    0.000    0.000 
#    0.000    0.000    0.000    0.000    0.000    0.000 
#
# Total GULP energy -312677.966486 kJ/mol
# GULP energy per Si atom -5583.535116 kJ/mol
# Density = 2.009429 g / cm^3
# Si number density = 20.140128 Si / 1000 Ang^3
#
#
#
# Elastic Constant Matrix: (Units=GPa)
#
#
# Indices 1 2 3 4 5 6 
#
# 1 143.8015 116.9676 20.2304 0.0000 0.0000 0.0000
# 2 116.9676 143.7816 20.2304 0.0000 0.0000 0.0000
# 3 20.2304 20.2304 19.7505 0.0000 0.0000 0.0000
# 4 0.0000 0.0000 0.0000 8.5744 0.0000 0.0000
# 5 0.0000 0.0000 0.0000 0.0000 8.5758 0.0000
# 6 0.0000 0.0000 0.0000 0.0000 0.0000 31.9267
#
#
#
# Elastic Compliance Matrix: (Units=1/GPa)
#
#
# Indices 1 2 3 4 5 6 
#
# 1 0.020918 -0.016360 -0.004669 0.000000 0.000000 0.000000
# 2 -0.016360 0.020922 -0.004672 0.000000 0.000000 0.000000
# 3 -0.004669 -0.004672 0.060199 0.000000 0.000000 0.000000
# 4 0.000000 0.000000 0.000000 0.116626 0.000000 0.000000
# 5 0.000000 0.000000 0.000000 0.000000 0.116607 0.000000
# 6 0.000000 0.000000 0.000000 0.000000 0.000000 0.031322
#
#
# Mechanical properties :
#
#
# Convention : Reuss Voigt Hill
#
# Bulk Modulus (GPa) = 19.74843 69.13228 44.44036
# Shear Modulus (GPa) = 11.49755 19.80907 15.65331
#
# Velocity S-wave (km/s) = 2.39190 3.13958 2.79089
# Velocity P-wave (km/s) = 4.17792 6.89513 5.70078
#
# Compressibility (1/GPa) = 0.05063693
#
# Stress axis : x y z
#
# Youngs Moduli (GPa) = 47.80536 47.79760 16.61147
#
# Poissons Ratio (x) = 0.78198 0.07755
# Poissons Ratio (y) = 0.78211 0.07761
# Poissons Ratio (z) = 0.22319 0.22332
#
# Static dielectric constant tensor:
#      x y z
#    x 1.711070 0.000000 0.000000 
#    y 0.000000 1.711080 0.000000 
#    z 0.000000 0.000000 1.707400 
# 
# From -- ./inp_files/1198.got.cif
#   From: 2010.05.17/outbox.cif.g08.bks.cpg/sg131_1_cif.got.tgz:1198.got - 2010.05.20 12:21:01.
