data_PCOD9566060
_publ_section_title
;
Structure prediction by ZEFSAII (Michael W. Deem and Ramdas Pophale) SiO2 
 PCOD9566060
Probable space group: P 42/M M C
;
_chemical_formula_sum "Si O2"
_cell_formula_units_Z 96
_cell_length_a 13.949420
_cell_length_b 13.949420
_cell_length_c 32.929332
_cell_angle_alpha 90.000000
_cell_angle_beta 90.000000
_cell_angle_gamma 90.000000
_cell_volume 6407.597479
_symmetry_space_group_name_H-M "P 42/M M C"
_symmetry_group_IT_number 131
_symmetry_cell_setting 'tetragonal'
loop_
_space_group_symop_operation_xyz
x,y,z
-x,-y,z
-y,x,1/2+z
y,-x,1/2+z
-x,y,-z
x,-y,-z
y,x,1/2-z
-y,-x,1/2-z
-x,-y,-z
x,y,-z
y,-x,1/2-z
-y,x,1/2-z
x,-y,z
-x,y,z
-y,-x,1/2+z
y,x,1/2+z
loop_
_atom_site_type_symbol
_atom_site_label
_atom_site_fract_x
_atom_site_fract_y
_atom_site_fract_z
Si Si1 0.116469 0.888383 0.794808
Si Si2 0.386130 0.697544 0.791360
Si Si3 0.884262 0.772984 0.124270
Si Si4 0.615742 0.107798 0.750836
Si Si5 0.386336 0.211628 0.334391
Si Si6 0.116479 0.888997 0.045219
O O1 0.147964 0.852036 0.750000
O O2 0.145084 0.831485 0.835066
O O3 0.000000 0.885144 0.793076
O O4 0.142762 0.000000 0.799332
O O5 0.360346 0.639655 0.750000
O O6 0.500000 0.691768 0.798799
O O7 0.358090 0.808329 0.782231
O O8 0.317593 0.653130 0.825176
O O9 0.837690 0.669332 0.129080
O O10 0.852653 0.826416 0.083432
O O11 0.000000 0.767157 0.124367
O O12 0.500000 0.102732 0.752918
O O13 0.636942 0.147457 0.705813
O O14 0.653463 0.000000 0.756755
O O15 0.500000 0.213226 0.338902
O O16 0.000000 0.887818 0.045476
O O17 0.144904 0.000000 0.050589
O O18 0.146857 0.857291 0.000000
#
# Coordination Sequence:
#
# PCOD9566060 Si02
#       6
#    16  16  16  16  16  16
#     4   8  14  24  36  52  78 110 140 169 200 237
#     4   9  17  29  45  62  79 106 149 196 233 261
#     4  10  18  27  41  59  82 114 145 172 209 259
#     4   8  14  26  42  57  76 104 138 178 222 262
#     4  10  20  30  39  55  80 110 146 183 218 260
#     4   8  14  26  45  67  88 110 139 178 222 265
#
# _framework density 14.982214000000001
#
# number of rings (size 3 to 8) (size 9 to 14) (size 15 to 20)
#    0.000    3.167    0.000    3.500    0.000    6.167 
#    0.000    3.333    0.000    0.500    0.000    2.333 
#    0.000   17.000    0.000    3.333    0.000    0.167 
#
# Total GULP energy -534991.886729 kJ/mol
# GULP energy per Si atom -5572.832153 kJ/mol
# Density = 1.494811 g / cm^3
# Si number density = 14.982214 Si / 1000 Ang^3
#
#
#
# Elastic Constant Matrix: (Units=GPa)
#
#
# Indices 1 2 3 4 5 6 
#
# 1 81.8296 26.1008 42.9833 0.0000 0.0000 0.0000
# 2 26.1008 81.8298 42.9830 0.0000 0.0000 0.0000
# 3 42.9833 42.9830 93.5930 0.0000 0.0000 0.0000
# 4 0.0000 0.0000 0.0000 13.0355 0.0000 0.0000
# 5 0.0000 0.0000 0.0000 0.0000 13.0354 0.0000
# 6 0.0000 0.0000 0.0000 0.0000 0.0000 18.3607
#
#
#
# Elastic Compliance Matrix: (Units=1/GPa)
#
#
# Indices 1 2 3 4 5 6 
#
# 1 0.016277 -0.001667 -0.006709 0.000000 0.000000 0.000000
# 2 -0.001667 0.016277 -0.006709 0.000000 0.000000 0.000000
# 3 -0.006709 -0.006709 0.016847 0.000000 0.000000 0.000000
# 4 0.000000 0.000000 0.000000 0.076714 0.000000 0.000000
# 5 0.000000 0.000000 0.000000 0.000000 0.076714 0.000000
# 6 0.000000 0.000000 0.000000 0.000000 0.000000 0.054464
#
#
# Mechanical properties :
#
#
# Convention : Reuss Voigt Hill
#
# Bulk Modulus (GPa) = 52.00712 53.48742 52.74727
# Shear Modulus (GPa) = 17.01407 18.56533 17.78970
#
# Velocity S-wave (km/s) = 3.37355 3.52399 3.44959
# Velocity P-wave (km/s) = 7.06841 7.23437 7.15187
#
# Compressibility (1/GPa) = 0.01922814
#
# Stress axis : x y z
#
# Youngs Moduli (GPa) = 61.43765 61.43807 59.35702
#
# Poissons Ratio (x) = 0.10244 0.39825
# Poissons Ratio (y) = 0.10244 0.39825
# Poissons Ratio (z) = 0.41221 0.41221
#
# Static dielectric constant tensor:
#      x y z
#    x 1.528000 0.000000 0.000000 
#    y 0.000000 1.528000 0.000000 
#    z 0.000000 0.000000 1.485040 
# 
# From -- ./inp_files/13684.got.cif
#   From: 2010.05.17/outbox.cif.g08.bks.cpg/sg131_7_cif.got.tgz:13684.got - 2010.05.20 12:21:01.
