data_PCOD9566074
_publ_section_title
;
Structure prediction by ZEFSAII (Michael W. Deem and Ramdas Pophale) SiO2 
 PCOD9566074
Probable space group: P 42/M M C
;
_chemical_formula_sum "Si O2"
_cell_formula_units_Z 80
_cell_length_a 16.489838
_cell_length_b 16.489838
_cell_length_c 14.670497
_cell_angle_alpha 90.000000
_cell_angle_beta 90.000000
_cell_angle_gamma 90.000000
_cell_volume 3989.124631
_symmetry_space_group_name_H-M "P 42/M M C"
_symmetry_group_IT_number 131
_symmetry_cell_setting 'tetragonal'
loop_
_space_group_symop_operation_xyz
x,y,z
-x,-y,z
-y,x,1/2+z
y,-x,1/2+z
-x,y,-z
x,-y,-z
y,x,1/2-z
-y,-x,1/2-z
-x,-y,-z
x,y,-z
y,-x,1/2-z
-y,x,1/2-z
x,-y,z
-x,y,z
-y,-x,1/2+z
y,x,1/2+z
loop_
_atom_site_type_symbol
_atom_site_label
_atom_site_fract_x
_atom_site_fract_y
_atom_site_fract_z
Si Si1 0.413360 0.351961 0.391467
Si Si2 0.823637 0.412039 0.793690
Si Si3 0.373600 0.761776 0.894588
Si Si4 0.910816 0.906741 0.359875
Si Si5 0.256835 0.820369 0.602252
O O1 0.410164 0.332106 0.500000
O O2 0.500000 0.392506 0.373734
O O3 0.411987 0.267965 0.335553
O O4 0.331037 0.400176 0.374332
O O5 0.859682 0.500000 0.820197
O O6 0.817852 0.407042 0.684618
O O7 0.855777 0.326158 0.831541
O O8 0.275778 0.757546 0.883302
O O9 0.392044 0.781896 0.000000
O O10 0.908003 0.908003 0.250000
O O11 0.830971 0.860595 0.390462
O O12 0.000000 0.873851 0.386638
O O13 0.906871 0.000000 0.390610
O O14 0.288626 0.830461 0.500000
#
# Coordination Sequence:
#
# PCOD9566074 Si02
#       5
#    16  16  16  16  16
#     4   8  13  22  38  60  85 116 158 208 262 319
#     4  10  18  28  45  66  91 127 173 227 279 324
#     4   9  17  28  43  65  93 127 169 219 274 325
#     4   9  18  33  54  81 114 150 180 205 244 308
#     4  10  19  31  50  75 105 141 180 224 270 319
#
# _framework density 20.054527
#
# number of rings (size 3 to 8) (size 9 to 14) (size 15 to 20)
#    0.000    2.800    0.000    6.000    0.000    2.400 
#    0.000    1.000    0.000    1.200    0.000    9.800 
#    0.000    0.000    0.000   19.200    0.000    0.000 
#
# Total GULP energy -445605.131103 kJ/mol
# GULP energy per Si atom -5570.064139 kJ/mol
# Density = 2.000888 g / cm^3
# Si number density = 20.054527 Si / 1000 Ang^3
#
#
#
# Elastic Constant Matrix: (Units=GPa)
#
#
# Indices 1 2 3 4 5 6 
#
# 1 76.2922 42.7877 15.2863 0.0000 0.0000 0.0000
# 2 42.7877 76.2922 15.2863 0.0000 0.0000 0.0000
# 3 15.2863 15.2863 60.8904 0.0000 0.0000 0.0000
# 4 0.0000 0.0000 0.0000 -0.6132 0.0000 0.0000
# 5 0.0000 0.0000 0.0000 0.0000 -0.6132 0.0000
# 6 0.0000 0.0000 0.0000 0.0000 0.0000 -15.2604
#
#
#
# Elastic Compliance Matrix: (Units=1/GPa)
#
#
# Indices 1 2 3 4 5 6 
#
# 1 0.019411 -0.010435 -0.002253 0.000000 0.000000 0.000000
# 2 -0.010435 0.019411 -0.002253 0.000000 0.000000 0.000000
# 3 -0.002253 -0.002253 0.017554 0.000000 0.000000 0.000000
# 4 0.000000 0.000000 0.000000 -1.630682 0.000000 0.000000
# 5 0.000000 0.000000 0.000000 0.000000 -1.630682 0.000000
# 6 0.000000 0.000000 0.000000 0.000000 0.000000 -0.065529
#
#
# Mechanical properties :
#
#
# Convention : Reuss Voigt Hill
#
# Bulk Modulus (GPa) = 37.74566 40.02171 38.88368
# Shear Modulus (GPa) = -1.54713 6.04359 2.24823
#
# Velocity S-wave (km/s) = -0.87928 1.73785 1.05995
# Velocity P-wave (km/s) = 4.22274 4.90169 4.57483
#
# Compressibility (1/GPa) = 0.02649311
#
# Stress axis : x y z
#
# Youngs Moduli (GPa) = 51.51591 51.51591 56.96582
#
# Poissons Ratio (x) = 0.53758 0.12837
# Poissons Ratio (y) = 0.53758 0.12837
# Poissons Ratio (z) = 0.11609 0.11609
#
# Static dielectric constant tensor:
#      x y z
#    x 1.730310 0.000000 0.000000 
#    y 0.000000 1.730310 0.000000 
#    z 0.000000 0.000000 1.743790 
# 
# From -- ./inp_files/5726.got.cif
#   From: 2010.05.17/outbox.cif.g08.bks.cpg/sg131_3_cif.got.tgz:5726.got - 2010.05.20 12:21:01.
