data_PCOD9566219
_publ_section_title
;
Structure prediction by ZEFSAII (Michael W. Deem and Ramdas Pophale) SiO2 
 PCOD9566219
Probable space group: P 42/M M C
;
_chemical_formula_sum "Si O2"
_cell_formula_units_Z 112
_cell_length_a 14.555791
_cell_length_b 14.555791
_cell_length_c 31.522890
_cell_angle_alpha 90.000000
_cell_angle_beta 90.000000
_cell_angle_gamma 90.000000
_cell_volume 6678.787855
_symmetry_space_group_name_H-M "P 42/M M C"
_symmetry_group_IT_number 131
_symmetry_cell_setting 'tetragonal'
loop_
_space_group_symop_operation_xyz
x,y,z
-x,-y,z
-y,x,1/2+z
y,-x,1/2+z
-x,y,-z
x,-y,-z
y,x,1/2-z
-y,-x,1/2-z
-x,-y,-z
x,y,-z
y,-x,1/2-z
-y,x,1/2-z
x,-y,z
-x,y,z
-y,-x,1/2+z
y,x,1/2+z
loop_
_atom_site_type_symbol
_atom_site_label
_atom_site_fract_x
_atom_site_fract_y
_atom_site_fract_z
Si Si1 0.208206 0.108642 0.711055
Si Si2 0.891460 0.891436 0.625619
Si Si3 0.294300 0.609222 0.710321
Si Si4 0.611814 0.604950 0.875205
Si Si5 0.263573 0.391756 0.548943
Si Si6 0.755922 0.107416 0.048735
Si Si7 0.104499 0.394378 0.252713
O O1 0.161402 0.161402 0.750000
O O2 0.168101 0.139223 0.666050
O O3 0.317678 0.118732 0.716752
O O4 0.186508 0.000000 0.715139
O O5 0.871802 0.833108 0.583614
O O6 0.000000 0.880664 0.635841
O O7 0.875048 0.000000 0.618423
O O8 0.338881 0.661120 0.750000
O O9 0.312886 0.500000 0.714965
O O10 0.339243 0.640915 0.666542
O O11 0.184457 0.621189 0.712972
O O12 0.644256 0.500000 0.874060
O O13 0.500000 0.602701 0.874501
O O14 0.637604 0.658982 0.917695
O O15 0.293613 0.380717 0.500000
O O16 0.244226 0.500000 0.555619
O O17 0.173160 0.330925 0.555290
O O18 0.730962 0.000000 0.053152
O O19 0.788263 0.120677 0.000000
O O20 0.113582 0.500000 0.237896
O O21 0.000000 0.382679 0.268896
#
# Coordination Sequence:
#
# PCOD9566219 Si02
#       7
#    16  16  16  16  16  16  16
#     4  10  19  31  49  71  96 126 157 192 235 280
#     4   9  18  32  50  73  98 122 153 195 241 288
#     4  10  19  31  48  69  94 123 155 193 237 282
#     4   9  18  32  49  70  95 122 156 198 241 285
#     4   9  18  32  49  70  97 128 160 194 233 278
#     4   9  18  32  50  72  97 126 159 194 233 278
#     4   9  19  34  48  64  90 125 164 200 230 267
#
# _framework density 16.76951
#
# number of rings (size 3 to 8) (size 9 to 14) (size 15 to 20)
#    0.000    2.714    0.000    1.286    0.000    4.571 
#    0.000    6.429    0.000    2.571    0.000    0.000 
#    0.000    0.000    0.000    8.714    0.000    0.429 
#
# Total GULP energy -624191.458197 kJ/mol
# GULP energy per Si atom -5573.138020 kJ/mol
# Density = 1.673134 g / cm^3
# Si number density = 16.769510 Si / 1000 Ang^3
#
#
#
# Elastic Constant Matrix: (Units=GPa)
#
#
# Indices 1 2 3 4 5 6 
#
# 1 78.0450 54.9357 73.5377 0.0000 0.0000 0.0000
# 2 54.9357 78.0457 73.5370 0.0000 0.0000 0.0000
# 3 73.5377 73.5370 134.8739 0.0000 0.0000 0.0000
# 4 0.0000 0.0000 0.0000 22.2042 0.0000 0.0000
# 5 0.0000 0.0000 0.0000 0.0000 22.2042 0.0000
# 6 0.0000 0.0000 0.0000 0.0000 0.0000 18.9264
#
#
#
# Elastic Compliance Matrix: (Units=1/GPa)
#
#
# Indices 1 2 3 4 5 6 
#
# 1 0.031108 -0.012165 -0.010328 0.000000 0.000000 0.000000
# 2 -0.012165 0.031107 -0.010328 0.000000 0.000000 0.000000
# 3 -0.010328 -0.010328 0.018677 0.000000 0.000000 0.000000
# 4 0.000000 0.000000 0.000000 0.045037 0.000000 0.000000
# 5 0.000000 0.000000 0.000000 0.000000 0.045037 0.000000
# 6 0.000000 0.000000 0.000000 0.000000 0.000000 0.052836
#
#
# Mechanical properties :
#
#
# Convention : Reuss Voigt Hill
#
# Bulk Modulus (GPa) = 65.57585 77.22060 71.39822
# Shear Modulus (GPa) = 16.97647 18.59722 17.78685
#
# Velocity S-wave (km/s) = 3.18518 3.33376 3.26032
# Velocity P-wave (km/s) = 7.26060 7.80812 7.53933
#
# Compressibility (1/GPa) = 0.01524952
#
# Stress axis : x y z
#
# Youngs Moduli (GPa) = 32.14627 32.14746 53.54297
#
# Poissons Ratio (x) = 0.39107 0.55301
# Poissons Ratio (y) = 0.39105 0.55297
# Poissons Ratio (z) = 0.33202 0.33200
#
# Static dielectric constant tensor:
#      x y z
#    x 1.573810 0.000000 0.000000 
#    y 0.000000 1.573810 0.000000 
#    z 0.000000 0.000000 1.547530 
# 
# From -- ./inp_files/12451.got.cif
#   From: 2010.05.17/outbox.cif.g08.bks.cpg/sg131_7_cif.got.tgz:12451.got - 2010.05.20 12:21:01.
