data_PCOD9566005
_publ_section_title
;
Structure prediction by ZEFSAII (Michael W. Deem and Ramdas Pophale) SiO2 
 PCOD9566005
Probable space group: P 4/N C C
;
_chemical_formula_sum "Si O2"
_cell_formula_units_Z 60
_cell_length_a 13.163447
_cell_length_b 13.163447
_cell_length_c 13.683602
_cell_angle_alpha 90.000000
_cell_angle_beta 90.000000
_cell_angle_gamma 90.000000
_cell_volume 2371.044430
_symmetry_space_group_name_H-M "P 4/N C C"
_symmetry_group_IT_number 130
_symmetry_cell_setting 'tetragonal'
loop_
_space_group_symop_operation_xyz
x,y,z
1/2-y,x,z
1/2-x,1/2-y,z
y,1/2-x,z
1/2+x,-y,1/2-z
-x,1/2+y,1/2-z
1/2+y,1/2+x,1/2-z
-y,-x,1/2-z
-x,-y,-z
1/2+y,-x,-z
1/2+x,1/2+y,-z
-y,1/2+x,-z
1/2-x,y,1/2+z
x,1/2-y,1/2+z
1/2-y,1/2-x,1/2+z
y,x,1/2+z
loop_
_atom_site_type_symbol
_atom_site_label
_atom_site_fract_x
_atom_site_fract_y
_atom_site_fract_z
Si Si1 0.590845 0.899670 0.721051
Si Si2 0.250000 0.250000 0.736081
Si Si3 0.051978 0.704529 0.880003
Si Si4 0.015224 0.879308 0.023761
Si Si5 0.375324 0.875324 0.250000
O O1 0.699906 0.861842 0.756265
O O2 0.513858 0.872624 0.810674
O O3 0.550125 0.854315 0.619958
O O4 0.612830 0.017473 0.694051
O O5 0.120463 0.633487 0.947739
O O6 0.118395 0.774673 0.811101
O O7 0.993310 0.790888 0.944533
O O8 0.000000 0.000000 0.000000
#
# Coordination Sequence:
#
# PCOD9566005 Si02
#       5
#    16   4  16  16   8
#     4  12  25  51  77 118 162 212 275 347 417 507
#     4  12  28  44  86 116 156 222 276 324 454 484
#     4  12  27  49  80 111 160 216 270 340 422 484
#     4  12  28  51  77 119 162 212 279 345 412 510
#     4  12  24  52  81 111 166 216 266 352 416 501
#
# _framework density 25.305302999999999
#
# number of rings (size 3 to 8) (size 9 to 14) (size 15 to 20)
#    0.000    0.000    8.000    0.000    7.467    0.533 
#    4.800    1.333    0.000    0.000    0.000    0.000 
#    0.000    0.000    0.000    0.000    0.000    0.000 
#
# Total GULP energy -334334.677443 kJ/mol
# GULP energy per Si atom -5572.244624 kJ/mol
# Density = 2.524771 g / cm^3
# Si number density = 25.305303 Si / 1000 Ang^3
#
#
#
# Elastic Constant Matrix: (Units=GPa)
#
#
# Indices 1 2 3 4 5 6 
#
# 1 111.9016 7.3314 30.9128 0.0000 0.0000 0.0000
# 2 7.3314 111.9016 30.9128 0.0000 0.0000 0.0000
# 3 30.9128 30.9128 124.4425 0.0000 0.0000 0.0000
# 4 0.0000 0.0000 0.0000 28.1586 0.0000 0.0000
# 5 0.0000 0.0000 0.0000 0.0000 28.1586 0.0000
# 6 0.0000 0.0000 0.0000 0.0000 0.0000 71.7838
#
#
#
# Elastic Compliance Matrix: (Units=1/GPa)
#
#
# Indices 1 2 3 4 5 6 
#
# 1 0.009595 0.000032 -0.002391 0.000000 0.000000 0.000000
# 2 0.000032 0.009595 -0.002391 0.000000 0.000000 0.000000
# 3 -0.002391 -0.002391 0.009224 0.000000 0.000000 0.000000
# 4 0.000000 0.000000 0.000000 0.035513 0.000000 0.000000
# 5 0.000000 0.000000 0.000000 0.000000 0.035513 0.000000
# 6 0.000000 0.000000 0.000000 0.000000 0.000000 0.013931
#
#
# Mechanical properties :
#
#
# Convention : Reuss Voigt Hill
#
# Bulk Modulus (GPa) = 52.87611 54.06220 53.46915
# Shear Modulus (GPa) = 38.70667 44.22610 41.46638
#
# Velocity S-wave (km/s) = 3.91524 4.18509 4.05241
# Velocity P-wave (km/s) = 6.43268 6.69056 6.56289
#
# Compressibility (1/GPa) = 0.01891213
#
# Stress axis : x y z
#
# Youngs Moduli (GPa) = 104.22143 104.22143 108.41342
#
# Poissons Ratio (x) = -0.00334 0.25926
# Poissons Ratio (y) = -0.00334 0.25926
# Poissons Ratio (z) = 0.24924 0.24924
#
# Static dielectric constant tensor:
#      x y z
#    x 2.121950 0.000000 0.000000 
#    y 0.000000 2.121950 0.000000 
#    z 0.000000 0.000000 2.050920 
# 
# From -- ./inp_files/2218.got.cif
#   From: 2010.05.17/outbox.cif.g08.bks.cpg/sg130_2_cif.got.tgz:2218.got - 2010.05.20 12:17:35.
