data_PCOD9566238
_publ_section_title
;
Structure prediction by ZEFSAII (Michael W. Deem and Ramdas Pophale) SiO2 
 PCOD9566238
Probable space group: P 42/M M C
;
_chemical_formula_sum "Si O2"
_cell_formula_units_Z 112
_cell_length_a 15.061564
_cell_length_b 15.061564
_cell_length_c 24.165271
_cell_angle_alpha 90.000000
_cell_angle_beta 90.000000
_cell_angle_gamma 90.000000
_cell_volume 5481.908887
_symmetry_space_group_name_H-M "P 42/M M C"
_symmetry_group_IT_number 131
_symmetry_cell_setting 'tetragonal'
loop_
_space_group_symop_operation_xyz
x,y,z
-x,-y,z
-y,x,1/2+z
y,-x,1/2+z
-x,y,-z
x,-y,-z
y,x,1/2-z
-y,-x,1/2-z
-x,-y,-z
x,y,-z
y,-x,1/2-z
-y,x,1/2-z
x,-y,z
-x,y,z
-y,-x,1/2+z
y,x,1/2+z
loop_
_atom_site_type_symbol
_atom_site_label
_atom_site_fract_x
_atom_site_fract_y
_atom_site_fract_z
Si Si1 0.100192 0.900818 0.126968
Si Si2 0.605311 0.733474 0.063922
Si Si3 0.895881 0.286919 0.828506
Si Si4 0.360501 0.398655 0.329605
Si Si5 0.594233 0.773030 0.738352
Si Si6 0.097222 0.718661 0.565987
Si Si7 0.396883 0.892071 0.562536
O O1 0.112642 0.818696 0.167697
O O2 0.178752 0.893183 0.082873
O O3 0.000000 0.891268 0.103401
O O4 0.105906 0.000000 0.151513
O O5 0.500000 0.753821 0.066526
O O6 0.620286 0.652663 0.105954
O O7 0.661329 0.818469 0.083419
O O8 0.627283 0.713452 0.000000
O O9 0.835110 0.327793 0.781438
O O10 0.866236 0.332095 0.887192
O O11 0.000000 0.308546 0.820889
O O12 0.395017 0.500000 0.321775
O O13 0.406015 0.317525 0.298250
O O14 0.263483 0.398961 0.300343
O O15 0.500000 0.819563 0.729903
O O16 0.095143 0.711511 0.500000
O O17 0.000000 0.688580 0.587345
O O18 0.371582 0.862358 0.500000
O O19 0.500000 0.866029 0.572776
O O20 0.395344 0.000000 0.561418
#
# Coordination Sequence:
#
# PCOD9566238 Si02
#       7
#    16  16  16  16  16  16  16
#     4   9  18  31  46  67  98 138 183 225 264 312
#     4   9  17  31  53  78 104 136 170 206 255 315
#     4  10  19  31  50  75 105 141 177 219 272 322
#     4   9  19  36  56  78 105 136 173 216 259 306
#     4  10  20  34  55  81 108 139 175 218 265 314
#     4   9  17  28  43  66  96 129 168 218 270 313
#     4   8  14  25  41  63  95 136 178 216 258 316
#
# _framework density 20.430838999999999
#
# number of rings (size 3 to 8) (size 9 to 14) (size 15 to 20)
#    0.000    2.857    0.000    1.714    0.000    2.286 
#    0.000    7.143    0.000    7.286    0.000    2.000 
#    0.000    4.571    0.000    0.286    0.000    0.000 
#
# Total GULP energy -624094.629364 kJ/mol
# GULP energy per Si atom -5572.273476 kJ/mol
# Density = 2.038434 g / cm^3
# Si number density = 20.430839 Si / 1000 Ang^3
#
#
#
# Elastic Constant Matrix: (Units=GPa)
#
#
# Indices 1 2 3 4 5 6 
#
# 1 44.3863 17.0171 16.8368 0.0000 0.0000 0.0000
# 2 17.0171 44.3863 16.8368 0.0000 0.0000 0.0000
# 3 16.8368 16.8368 56.6797 0.0000 0.0000 0.0000
# 4 0.0000 0.0000 0.0000 15.3279 0.0000 0.0000
# 5 0.0000 0.0000 0.0000 0.0000 15.3279 0.0000
# 6 0.0000 0.0000 0.0000 0.0000 0.0000 65.6724
#
#
#
# Elastic Compliance Matrix: (Units=1/GPa)
#
#
# Indices 1 2 3 4 5 6 
#
# 1 0.027996 -0.008541 -0.005779 0.000000 0.000000 0.000000
# 2 -0.008541 0.027996 -0.005779 0.000000 0.000000 0.000000
# 3 -0.005779 -0.005779 0.021076 0.000000 0.000000 0.000000
# 4 0.000000 0.000000 0.000000 0.065241 0.000000 0.000000
# 5 0.000000 0.000000 0.000000 0.000000 0.065241 0.000000
# 6 0.000000 0.000000 0.000000 0.000000 0.000000 0.015227
#
#
# Mechanical properties :
#
#
# Convention : Reuss Voigt Hill
#
# Bulk Modulus (GPa) = 27.12239 27.42594 27.27416
# Shear Modulus (GPa) = 18.16423 25.58305 21.87364
#
# Velocity S-wave (km/s) = 2.98494 3.54245 3.27558
# Velocity P-wave (km/s) = 5.01836 5.49408 5.26160
#
# Compressibility (1/GPa) = 0.03686991
#
# Stress axis : x y z
#
# Youngs Moduli (GPa) = 35.71908 35.71908 47.44645
#
# Poissons Ratio (x) = 0.30508 0.27420
# Poissons Ratio (y) = 0.30508 0.27420
# Poissons Ratio (z) = 0.20643 0.20643
#
# Static dielectric constant tensor:
#      x y z
#    x 1.745930 0.000000 0.000000 
#    y 0.000000 1.745930 0.000000 
#    z 0.000000 0.000000 1.732150 
# 
# From -- ./inp_files/12429.got.cif
#   From: 2010.05.17/outbox.cif.g08.bks.cpg/sg131_7_cif.got.tgz:12429.got - 2010.05.20 12:21:01.
