data_PCOD9566203
_publ_section_title
;
Structure prediction by ZEFSAII (Michael W. Deem and Ramdas Pophale) SiO2 
 PCOD9566203
Probable space group: P 42/M M C
;
_chemical_formula_sum "Si O2"
_cell_formula_units_Z 96
_cell_length_a 15.835544
_cell_length_b 15.835544
_cell_length_c 19.274007
_cell_angle_alpha 90.000000
_cell_angle_beta 90.000000
_cell_angle_gamma 90.000000
_cell_volume 4833.235837
_symmetry_space_group_name_H-M "P 42/M M C"
_symmetry_group_IT_number 131
_symmetry_cell_setting 'tetragonal'
loop_
_space_group_symop_operation_xyz
x,y,z
-x,-y,z
-y,x,1/2+z
y,-x,1/2+z
-x,y,-z
x,-y,-z
y,x,1/2-z
-y,-x,1/2-z
-x,-y,-z
x,y,-z
y,-x,1/2-z
-y,x,1/2-z
x,-y,z
-x,y,z
-y,-x,1/2+z
y,x,1/2+z
loop_
_atom_site_type_symbol
_atom_site_label
_atom_site_fract_x
_atom_site_fract_y
_atom_site_fract_z
Si Si1 0.833524 0.594019 0.788662
Si Si2 0.596359 0.738813 0.152394
Si Si3 0.092103 0.221416 0.782556
Si Si4 0.666658 0.906504 0.916970
Si Si5 0.744296 0.352053 0.078498
Si Si6 0.827343 0.841726 0.423259
O O1 0.869385 0.500000 0.773777
O O2 0.756450 0.607067 0.734326
O O3 0.890476 0.677922 0.780307
O O4 0.798945 0.595380 0.867069
O O5 0.500000 0.717355 0.138549
O O6 0.618439 0.830592 0.119731
O O7 0.657138 0.671666 0.116371
O O8 0.170769 0.170769 0.750000
O O9 0.094006 0.187379 0.861516
O O10 0.000000 0.203294 0.751736
O O11 0.766962 0.892932 0.905352
O O12 0.640668 0.000000 0.894353
O O13 0.654107 0.899433 0.000000
O O14 0.791707 0.261735 0.073278
O O15 0.734855 0.384694 0.000000
O O16 0.846128 0.875776 0.500000
#
# Coordination Sequence:
#
# PCOD9566203 Si02
#       6
#    16  16  16  16  16  16
#     4  10  21  37  58  83 111 145 189 241 292 340
#     4  10  19  30  48  76 110 148 189 233 284 345
#     4  11  23  38  58  84 117 155 192 234 282 336
#     4   9  17  29  47  73 106 145 189 238 290 341
#     4   9  17  32  54  77 105 143 185 230 284 346
#     4   8  16  32  52  73  98 135 185 233 278 331
#
# _framework density 19.862469000000001
#
# number of rings (size 3 to 8) (size 9 to 14) (size 15 to 20)
#    0.000    2.500    0.000    5.000    0.000    5.500 
#    0.000    2.500    0.000    0.500    0.000   14.000 
#    0.000    0.000    0.000    0.000    0.000    0.000 
#
# Total GULP energy -535039.997639 kJ/mol
# GULP energy per Si atom -5573.333309 kJ/mol
# Density = 1.981726 g / cm^3
# Si number density = 19.862469 Si / 1000 Ang^3
#
#
#
# Elastic Constant Matrix: (Units=GPa)
#
#
# Indices 1 2 3 4 5 6 
#
# 1 58.3971 17.8341 9.6572 0.0000 0.0000 0.0000
# 2 17.8341 58.3971 9.6572 0.0000 0.0000 0.0000
# 3 9.6572 9.6572 85.0514 0.0000 0.0000 0.0000
# 4 0.0000 0.0000 0.0000 11.8618 0.0000 0.0000
# 5 0.0000 0.0000 0.0000 0.0000 11.8618 0.0000
# 6 0.0000 0.0000 0.0000 0.0000 0.0000 6.4373
#
#
#
# Elastic Compliance Matrix: (Units=1/GPa)
#
#
# Indices 1 2 3 4 5 6 
#
# 1 0.019080 -0.005573 -0.001534 0.000000 0.000000 0.000000
# 2 -0.005573 0.019080 -0.001534 0.000000 0.000000 0.000000
# 3 -0.001534 -0.001534 0.012106 0.000000 0.000000 0.000000
# 4 0.000000 0.000000 0.000000 0.084304 0.000000 0.000000
# 5 0.000000 0.000000 0.000000 0.000000 0.084304 0.000000
# 6 0.000000 0.000000 0.000000 0.000000 0.000000 0.155344
#
#
# Mechanical properties :
#
#
# Convention : Reuss Voigt Hill
#
# Bulk Modulus (GPa) = 30.31724 30.68252 30.49988
# Shear Modulus (GPa) = 12.42255 17.01199 14.71727
#
# Velocity S-wave (km/s) = 2.50357 2.92976 2.72501
# Velocity P-wave (km/s) = 4.86352 5.18900 5.02889
#
# Compressibility (1/GPa) = 0.03298453
#
# Stress axis : x y z
#
# Youngs Moduli (GPa) = 52.41151 52.41151 82.60462
#
# Poissons Ratio (x) = 0.29210 0.12668
# Poissons Ratio (y) = 0.29210 0.12668
# Poissons Ratio (z) = 0.08038 0.08038
#
# Static dielectric constant tensor:
#      x y z
#    x 1.687280 0.000000 0.000000 
#    y 0.000000 1.687280 0.000000 
#    z 0.000000 0.000000 1.776580 
# 
# From -- ./inp_files/9742.got.cif
#   From: 2010.05.17/outbox.cif.g08.bks.cpg/sg131_5_cif.got.tgz:9742.got - 2010.05.20 12:21:01.
