data_PCOD9566820
_publ_section_title
;
Structure prediction by ZEFSAII (Michael W. Deem and Ramdas Pophale) SiO2 
 PCOD9566820
Probable space group: P 42/M M C
;
_chemical_formula_sum "Si O2"
_cell_formula_units_Z 104
_cell_length_a 27.606799
_cell_length_b 27.606799
_cell_length_c 7.838733
_cell_angle_alpha 90.000000
_cell_angle_beta 90.000000
_cell_angle_gamma 90.000000
_cell_volume 5974.175527
_symmetry_space_group_name_H-M "P 42/M M C"
_symmetry_group_IT_number 131
_symmetry_cell_setting 'tetragonal'
loop_
_space_group_symop_operation_xyz
x,y,z
-x,-y,z
-y,x,1/2+z
y,-x,1/2+z
-x,y,-z
x,-y,-z
y,x,1/2-z
-y,-x,1/2-z
-x,-y,-z
x,y,-z
y,-x,1/2-z
-y,x,1/2-z
x,-y,z
-x,y,z
-y,-x,1/2+z
y,x,1/2+z
loop_
_atom_site_type_symbol
_atom_site_label
_atom_site_fract_x
_atom_site_fract_y
_atom_site_fract_z
Si Si1 0.684233 0.155033 0.299576
Si Si2 0.553093 0.759549 0.293941
Si Si3 0.132161 0.210522 0.205995
Si Si4 0.868690 0.579966 0.208633
Si Si5 0.262635 0.340799 0.301063
Si Si6 0.054844 0.866846 0.205679
Si Si7 0.944471 0.500000 0.791127
O O1 0.685141 0.143066 0.500000
O O2 0.735174 0.137609 0.225946
O O3 0.635256 0.131217 0.228911
O O4 0.677569 0.213106 0.286852
O O5 0.553711 0.758424 0.500000
O O6 0.500000 0.741968 0.236615
O O7 0.558756 0.816100 0.242482
O O8 0.601801 0.732826 0.234980
O O9 0.179706 0.179706 0.250000
O O10 0.086483 0.178992 0.268013
O O11 0.129165 0.212559 0.000000
O O12 0.913063 0.546589 0.263151
O O13 0.868916 0.580156 0.000000
O O14 0.308564 0.308564 0.250000
O O15 0.254364 0.334076 0.500000
O O16 0.085373 0.914628 0.250000
O O17 0.000000 0.867623 0.270211
O O18 0.053166 0.863828 0.000000
O O19 0.000000 0.500000 0.733760
O O20 0.945076 0.500000 0.000000
#
# Coordination Sequence:
#
# PCOD9566820 Si02
#       7
#    16  16  16  16  16  16   8
#     4   9  17  29  45  63  86 117 153 187 225 273
#     4   9  16  29  49  67  88 123 160 193 234 281
#     4   9  17  29  45  64  85 113 143 176 215 267
#     4   8  13  23  38  58  84 115 148 184 226 271
#     4  11  21  31  44  66  97 126 155 192 232 275
#     4   9  18  32  48  66  88 112 139 174 218 268
#     4   9  14  20  34  58  87 115 145 185 230 271
#
# _framework density 17.408259000000001
#
# number of rings (size 3 to 8) (size 9 to 14) (size 15 to 20)
#    0.000    2.846    0.769    2.769    0.000    2.615 
#    0.000    1.538    0.000    4.615    0.000    0.000 
#    0.000   24.923    0.000    3.231    0.000    1.385 
#
# Total GULP energy -579543.443289 kJ/mol
# GULP energy per Si atom -5572.533109 kJ/mol
# Density = 1.736864 g / cm^3
# Si number density = 17.408259 Si / 1000 Ang^3
#
#
#
# Elastic Constant Matrix: (Units=GPa)
#
#
# Indices 1 2 3 4 5 6 
#
# 1 144.1113 87.2282 -1.5345 0.0000 0.0000 0.0000
# 2 87.2282 144.1076 -1.5345 0.0000 0.0000 0.0000
# 3 -1.5345 -1.5345 19.3137 0.0000 0.0000 0.0000
# 4 0.0000 0.0000 0.0000 10.5681 0.0000 0.0000
# 5 0.0000 0.0000 0.0000 0.0000 10.5672 0.0000
# 6 0.0000 0.0000 0.0000 0.0000 0.0000 18.0950
#
#
#
# Elastic Compliance Matrix: (Units=1/GPa)
#
#
# Indices 1 2 3 4 5 6 
#
# 1 0.010954 -0.006627 0.000344 0.000000 0.000000 0.000000
# 2 -0.006627 0.010954 0.000344 0.000000 0.000000 0.000000
# 3 0.000344 0.000344 0.051831 0.000000 0.000000 0.000000
# 4 0.000000 0.000000 0.000000 0.094625 0.000000 0.000000
# 5 0.000000 0.000000 0.000000 0.000000 0.094633 0.000000
# 6 0.000000 0.000000 0.000000 0.000000 0.000000 0.055264
#
#
# Mechanical properties :
#
#
# Convention : Reuss Voigt Hill
#
# Bulk Modulus (GPa) = 16.16524 52.87234 34.51879
# Shear Modulus (GPa) = 14.25482 22.73760 18.49621
#
# Velocity S-wave (km/s) = 2.86467 3.61797 3.26313
# Velocity P-wave (km/s) = 4.49976 6.92033 5.83690
#
# Compressibility (1/GPa) = 0.06186111
#
# Stress axis : x y z
#
# Youngs Moduli (GPa) = 91.29307 91.29076 19.29332
#
# Poissons Ratio (x) = 0.60495 -0.00663
# Poissons Ratio (y) = 0.60497 -0.00663
# Poissons Ratio (z) = -0.03139 -0.03139
#
# Static dielectric constant tensor:
#      x y z
#    x 1.601660 0.000000 0.000000 
#    y 0.000000 1.601660 0.000000 
#    z 0.000000 0.000000 1.659450 
# 
# From -- ./inp_files/2543.got.cif
#   From: 2010.05.17/outbox.cif.g08.bks.cpg/sg131_2_cif.got.tgz:2543.got - 2010.05.20 12:21:01.
