data_PCOD9566311
_publ_section_title
;
Structure prediction by ZEFSAII (Michael W. Deem and Ramdas Pophale) SiO2 
 PCOD9566311
Probable space group: P 42/M M C
;
_chemical_formula_sum "Si O2"
_cell_formula_units_Z 96
_cell_length_a 24.866171
_cell_length_b 24.866171
_cell_length_c 8.535071
_cell_angle_alpha 90.000000
_cell_angle_beta 90.000000
_cell_angle_gamma 90.000000
_cell_volume 5277.460239
_symmetry_space_group_name_H-M "P 42/M M C"
_symmetry_group_IT_number 131
_symmetry_cell_setting 'tetragonal'
loop_
_space_group_symop_operation_xyz
x,y,z
-x,-y,z
-y,x,1/2+z
y,-x,1/2+z
-x,y,-z
x,-y,-z
y,x,1/2-z
-y,-x,1/2-z
-x,-y,-z
x,y,-z
y,-x,1/2-z
-y,x,1/2-z
x,-y,z
-x,y,z
-y,-x,1/2+z
y,x,1/2+z
loop_
_atom_site_type_symbol
_atom_site_label
_atom_site_fract_x
_atom_site_fract_y
_atom_site_fract_z
Si Si1 0.060427 0.264893 0.188725
Si Si2 0.059611 0.562098 0.190657
Si Si3 0.939338 0.854857 0.312967
Si Si4 0.647082 0.731736 0.186871
Si Si5 0.146923 0.647571 0.190243
Si Si6 0.647250 0.437429 0.188389
O O1 0.069196 0.204187 0.242809
O O2 0.109566 0.302262 0.239918
O O3 0.000000 0.281367 0.242298
O O4 0.059559 0.267348 0.000000
O O5 0.064584 0.500000 0.236916
O O6 0.110457 0.596823 0.240526
O O7 0.000000 0.581682 0.240440
O O8 0.059209 0.564086 0.000000
O O9 0.896315 0.896315 0.250000
O O10 0.936069 0.851487 0.500000
O O11 0.000000 0.871814 0.269481
O O12 0.698619 0.698619 0.250000
O O13 0.647745 0.793331 0.242301
O O14 0.595168 0.699190 0.250263
O O15 0.647131 0.729048 0.000000
O O16 0.151027 0.647548 0.000000
O O17 0.595602 0.404399 0.250000
O O18 0.647020 0.500000 0.236427
O O19 0.647346 0.435056 0.000000
#
# Coordination Sequence:
#
# PCOD9566311 Si02
#       6
#    16  16  16  16  16  16
#     4   9  18  33  53  76 103 136 174 219 268 316
#     4   8  14  26  47  77 110 140 172 213 257 301
#     4  10  21  36  54  76 102 132 166 207 257 314
#     4  11  23  39  57  77 106 143 182 225 271 317
#     4  10  19  32  53  80 107 138 179 222 265 317
#     4  10  21  38  61  87 115 147 181 219 264 312
#
# _framework density 18.190569
#
# number of rings (size 3 to 8) (size 9 to 14) (size 15 to 20)
#    0.000    2.333    0.000    4.500    0.000    6.667 
#    0.000    3.333    0.000    1.500    0.000    1.167 
#    0.000    0.000    0.000    0.000    0.000    0.000 
#
# Total GULP energy -535579.588946 kJ/mol
# GULP energy per Si atom -5578.954052 kJ/mol
# Density = 1.814917 g / cm^3
# Si number density = 18.190569 Si / 1000 Ang^3
#
#
#
# Elastic Constant Matrix: (Units=GPa)
#
#
# Indices 1 2 3 4 5 6 
#
# 1 173.3679 111.6973 38.0120 0.0000 0.0000 0.0000
# 2 111.6973 173.3678 38.0132 0.0000 0.0000 0.0000
# 3 38.0120 38.0132 41.1601 0.0000 0.0000 0.0000
# 4 0.0000 0.0000 0.0000 18.6900 0.0000 0.0000
# 5 0.0000 0.0000 0.0000 0.0000 18.6897 0.0000
# 6 0.0000 0.0000 0.0000 0.0000 0.0000 28.3259
#
#
#
# Elastic Compliance Matrix: (Units=1/GPa)
#
#
# Indices 1 2 3 4 5 6 
#
# 1 0.010435 -0.005780 -0.004298 0.000000 0.000000 0.000000
# 2 -0.005780 0.010435 -0.004299 0.000000 0.000000 0.000000
# 3 -0.004298 -0.004299 0.032235 0.000000 0.000000 0.000000
# 4 0.000000 0.000000 0.000000 0.053505 0.000000 0.000000
# 5 0.000000 0.000000 0.000000 0.000000 0.053505 0.000000
# 6 0.000000 0.000000 0.000000 0.000000 0.000000 0.035303
#
#
# Mechanical properties :
#
#
# Convention : Reuss Voigt Hill
#
# Bulk Modulus (GPa) = 41.06809 84.81565 62.94187
# Shear Modulus (GPa) = 21.52493 26.48602 24.00547
#
# Velocity S-wave (km/s) = 3.44365 3.81994 3.63666
# Velocity P-wave (km/s) = 6.19977 8.13531 7.23258
#
# Compressibility (1/GPa) = 0.02434980
#
# Stress axis : x y z
#
# Youngs Moduli (GPa) = 95.83431 95.83269 31.02238
#
# Poissons Ratio (x) = 0.55395 0.13334
# Poissons Ratio (y) = 0.55396 0.13336
# Poissons Ratio (z) = 0.41190 0.41196
#
# Static dielectric constant tensor:
#      x y z
#    x 1.612280 0.000000 0.000000 
#    y 0.000000 1.612280 0.000000 
#    z 0.000000 0.000000 1.621490 
# 
# From -- ./inp_files/2284.got.cif
#   From: 2010.05.17/outbox.cif.g08.bks.cpg/sg131_2_cif.got.tgz:2284.got - 2010.05.20 12:21:01.
