data_PCOD9566564
_publ_section_title
;
Structure prediction by ZEFSAII (Michael W. Deem and Ramdas Pophale) SiO2 
 PCOD9566564
Probable space group: P 42/M M C
;
_chemical_formula_sum "Si O2"
_cell_formula_units_Z 96
_cell_length_a 14.010018
_cell_length_b 14.010018
_cell_length_c 22.511717
_cell_angle_alpha 90.000000
_cell_angle_beta 90.000000
_cell_angle_gamma 90.000000
_cell_volume 4418.613418
_symmetry_space_group_name_H-M "P 42/M M C"
_symmetry_group_IT_number 131
_symmetry_cell_setting 'tetragonal'
loop_
_space_group_symop_operation_xyz
x,y,z
-x,-y,z
-y,x,1/2+z
y,-x,1/2+z
-x,y,-z
x,-y,-z
y,x,1/2-z
-y,-x,1/2-z
-x,-y,-z
x,y,-z
y,-x,1/2-z
-y,x,1/2-z
x,-y,z
-x,y,z
-y,-x,1/2+z
y,x,1/2+z
loop_
_atom_site_type_symbol
_atom_site_label
_atom_site_fract_x
_atom_site_fract_y
_atom_site_fract_z
Si Si1 0.762134 0.893314 0.834208
Si Si2 0.606855 0.113483 0.741216
Si Si3 0.701019 0.663153 0.064750
Si Si4 0.865310 0.392711 0.432385
Si Si5 0.888548 0.276044 0.122666
Si Si6 0.607504 0.387836 0.186496
O O1 0.690122 0.851450 0.784814
O O2 0.691874 0.900801 0.890864
O O3 0.848130 0.822286 0.849032
O O4 0.794397 0.000000 0.817263
O O5 0.500000 0.153622 0.748363
O O6 0.644015 0.119429 0.674076
O O7 0.601156 0.000000 0.755305
O O8 0.629734 0.753229 0.063866
O O9 0.810784 0.697062 0.072758
O O10 0.671191 0.618792 0.127649
O O11 0.691152 0.614751 0.000000
O O12 0.899827 0.387386 0.500000
O O13 0.883922 0.500000 0.409436
O O14 0.000000 0.268701 0.105198
O O15 0.648061 0.351940 0.250000
O O16 0.599101 0.500000 0.197932
O O17 0.500000 0.349826 0.174482
#
# Coordination Sequence:
#
# PCOD9566564 Si02
#       6
#    16  16  16  16  16  16
#     4  10  20  34  55  84 115 147 190 245 302 364
#     4   9  18  34  56  81 109 142 183 234 296 366
#     4  10  21  36  55  81 113 154 209 264 308 359
#     4   9  18  32  50  75 110 150 188 231 291 361
#     4  10  22  39  57  79 111 154 203 252 305 365
#     4   9  19  36  58  88 126 162 196 241 304 379
#
# _framework density 21.726272000000002
#
# number of rings (size 3 to 8) (size 9 to 14) (size 15 to 20)
#    0.000    2.500    0.000    2.000    0.000    6.667 
#    0.000    5.000    0.000    3.000    0.000    8.167 
#    0.000    2.667    0.000    0.000    0.000    0.000 
#
# Total GULP energy -535247.217001 kJ/mol
# GULP energy per Si atom -5575.491844 kJ/mol
# Density = 2.167682 g / cm^3
# Si number density = 21.726272 Si / 1000 Ang^3
#
#
#
# Elastic Constant Matrix: (Units=GPa)
#
#
# Indices 1 2 3 4 5 6 
#
# 1 107.8414 21.3859 31.6175 0.0000 0.0000 0.0000
# 2 21.3859 107.8412 31.6175 0.0000 0.0000 0.0000
# 3 31.6175 31.6175 116.4037 0.0000 0.0000 0.0000
# 4 0.0000 0.0000 0.0000 -766.5929 0.0000 0.0000
# 5 0.0000 0.0000 0.0000 0.0000 -767.5511 0.0000
# 6 0.0000 0.0000 0.0000 0.0000 0.0000 -4.8545
#
#
#
# Elastic Compliance Matrix: (Units=1/GPa)
#
#
# Indices 1 2 3 4 5 6 
#
# 1 0.010246 -0.001321 -0.002424 0.000000 0.000000 0.000000
# 2 -0.001321 0.010246 -0.002424 0.000000 0.000000 0.000000
# 3 -0.002424 -0.002424 0.009908 0.000000 0.000000 0.000000
# 4 0.000000 0.000000 0.000000 -0.001304 0.000000 0.000000
# 5 0.000000 0.000000 0.000000 0.000000 -0.001303 0.000000
# 6 0.000000 0.000000 0.000000 0.000000 0.000000 -0.205996
#
#
# Mechanical properties :
#
#
# Convention : Reuss Voigt Hill
#
# Bulk Modulus (GPa) = 55.36993 55.70314 55.53653
# Shear Modulus (GPa) = -31.28007 -291.30200 -161.29104
#
# Velocity S-wave (km/s) = -3.79850 -11.59178 -8.62548
# Velocity P-wave (km/s) = 2.51046 12.38809 8.57795
#
# Compressibility (1/GPa) = 0.01806034
#
# Stress axis : x y z
#
# Youngs Moduli (GPa) = 97.60327 97.60308 100.93224
#
# Poissons Ratio (x) = 0.12894 0.24467
# Poissons Ratio (y) = 0.12894 0.24467
# Poissons Ratio (z) = 0.23660 0.23660
#
# Static dielectric constant tensor:
#      x y z
#    x 1.826490 0.000000 0.000000 
#    y 0.000000 1.826490 0.000000 
#    z 0.000000 0.000000 1.862270 
# 
# From -- ./inp_files/9749.got.cif
#   From: 2010.05.17/outbox.cif.g08.bks.cpg/sg131_5_cif.got.tgz:9749.got - 2010.05.20 12:21:01.
