data_PCOD9566308
_publ_section_title
;
Structure prediction by ZEFSAII (Michael W. Deem and Ramdas Pophale) SiO2 
 PCOD9566308
Probable space group: P 42/M M C
;
_chemical_formula_sum "Si O2"
_cell_formula_units_Z 64
_cell_length_a 15.198711
_cell_length_b 15.198711
_cell_length_c 14.713117
_cell_angle_alpha 90.000000
_cell_angle_beta 90.000000
_cell_angle_gamma 90.000000
_cell_volume 3398.742034
_symmetry_space_group_name_H-M "P 42/M M C"
_symmetry_group_IT_number 131
_symmetry_cell_setting 'tetragonal'
loop_
_space_group_symop_operation_xyz
x,y,z
-x,-y,z
-y,x,1/2+z
y,-x,1/2+z
-x,y,-z
x,-y,-z
y,x,1/2-z
-y,-x,1/2-z
-x,-y,-z
x,y,-z
y,-x,1/2-z
-y,x,1/2-z
x,-y,z
-x,y,z
-y,-x,1/2+z
y,x,1/2+z
loop_
_atom_site_type_symbol
_atom_site_label
_atom_site_fract_x
_atom_site_fract_y
_atom_site_fract_z
Si Si1 0.182045 0.600491 0.103487
Si Si2 0.096875 0.603358 0.710113
Si Si3 0.264118 0.782020 0.107786
Si Si4 0.901111 0.101271 0.110355
O O1 0.215971 0.500000 0.110066
O O2 0.109542 0.610338 0.181386
O O3 0.252053 0.677795 0.120414
O O4 0.149028 0.613123 0.000000
O O5 0.103022 0.500000 0.687397
O O6 0.172895 0.657785 0.661982
O O7 0.000000 0.635760 0.682938
O O8 0.173856 0.830605 0.137764
O O9 0.275508 0.798263 0.000000
O O10 0.000000 0.123835 0.141330
O O11 0.882283 0.000000 0.136955
O O12 0.902668 0.102357 0.000000
#
# Coordination Sequence:
#
# PCOD9566308 Si02
#       4
#    16  16  16  16
#     4   9  19  36  56  76  99 133 180 230 274 311
#     4  10  21  35  52  78 111 144 177 213 256 313
#     4  10  19  32  53  78 106 141 175 212 263 319
#     4   8  14  25  42  67 100 136 172 206 240 287
#
# _framework density 18.830497000000001
#
# number of rings (size 3 to 8) (size 9 to 14) (size 15 to 20)
#    0.000    2.750    0.000    2.250    0.000    3.500 
#    0.000    6.250    0.000    0.750    0.000   10.500 
#    0.000    0.000    0.000    0.000    0.000    0.500 
#
# Total GULP energy -356961.829315 kJ/mol
# GULP energy per Si atom -5577.528583 kJ/mol
# Density = 1.878764 g / cm^3
# Si number density = 18.830497 Si / 1000 Ang^3
#
#
#
# Elastic Constant Matrix: (Units=GPa)
#
#
# Indices 1 2 3 4 5 6 
#
# 1 85.4485 50.7741 31.9619 0.0000 0.0000 0.0000
# 2 50.7741 85.4485 31.9619 0.0000 0.0000 0.0000
# 3 31.9619 31.9619 65.5408 0.0000 0.0000 0.0000
# 4 0.0000 0.0000 0.0000 5.8070 0.0000 0.0000
# 5 0.0000 0.0000 0.0000 0.0000 5.8070 0.0000
# 6 0.0000 0.0000 0.0000 0.0000 0.0000 17.2015
#
#
#
# Elastic Compliance Matrix: (Units=1/GPa)
#
#
# Indices 1 2 3 4 5 6 
#
# 1 0.019179 -0.009660 -0.004642 0.000000 0.000000 0.000000
# 2 -0.009660 0.019179 -0.004642 0.000000 0.000000 0.000000
# 3 -0.004642 -0.004642 0.019785 0.000000 0.000000 0.000000
# 4 0.000000 0.000000 0.000000 0.172206 0.000000 0.000000
# 5 0.000000 0.000000 0.000000 0.000000 0.172206 0.000000
# 6 0.000000 0.000000 0.000000 0.000000 0.000000 0.058134
#
#
# Mechanical properties :
#
#
# Convention : Reuss Voigt Hill
#
# Bulk Modulus (GPa) = 49.37029 51.75929 50.56479
# Shear Modulus (GPa) = 9.89448 13.87910 11.88679
#
# Velocity S-wave (km/s) = 2.29476 2.71782 2.51520
# Velocity P-wave (km/s) = 5.77030 6.11517 5.94524
#
# Compressibility (1/GPa) = 0.02025510
#
# Stress axis : x y z
#
# Youngs Moduli (GPa) = 52.13901 52.13901 50.54237
#
# Poissons Ratio (x) = 0.50367 0.23463
# Poissons Ratio (y) = 0.50367 0.23463
# Poissons Ratio (z) = 0.24204 0.24204
#
# Static dielectric constant tensor:
#      x y z
#    x 1.624040 0.000000 0.000000 
#    y 0.000000 1.624040 0.000000 
#    z 0.000000 0.000000 1.698480 
# 
# From -- ./inp_files/5430.got.cif
#   From: 2010.05.17/outbox.cif.g08.bks.cpg/sg131_3_cif.got.tgz:5430.got - 2010.05.20 12:21:01.
