data_PCOD9566182
_publ_section_title
;
Structure prediction by ZEFSAII (Michael W. Deem and Ramdas Pophale) SiO2 
 PCOD9566182
Probable space group: P 42/M M C
;
_chemical_formula_sum "Si O2"
_cell_formula_units_Z 120
_cell_length_a 18.202966
_cell_length_b 18.202966
_cell_length_c 25.978578
_cell_angle_alpha 90.000000
_cell_angle_beta 90.000000
_cell_angle_gamma 90.000000
_cell_volume 8607.949115
_symmetry_space_group_name_H-M "P 42/M M C"
_symmetry_group_IT_number 131
_symmetry_cell_setting 'tetragonal'
loop_
_space_group_symop_operation_xyz
x,y,z
-x,-y,z
-y,x,1/2+z
y,-x,1/2+z
-x,y,-z
x,-y,-z
y,x,1/2-z
-y,-x,1/2-z
-x,-y,-z
x,y,-z
y,-x,1/2-z
-y,x,1/2-z
x,-y,z
-x,y,z
-y,-x,1/2+z
y,x,1/2+z
loop_
_atom_site_type_symbol
_atom_site_label
_atom_site_fract_x
_atom_site_fract_y
_atom_site_fract_z
Si Si1 0.415809 0.910545 0.854996
Si Si2 0.826696 0.912931 0.788560
Si Si3 0.701939 0.911979 0.941253
Si Si4 0.000000 0.087364 0.058216
Si Si5 0.850764 0.153839 0.100800
Si Si6 0.911033 0.335329 0.250461
Si Si7 0.911846 0.695642 0.060816
Si Si8 0.583623 0.910854 0.647429
O O1 0.500000 0.886533 0.862405
O O2 0.359486 0.888231 0.899998
O O3 0.383646 0.887417 0.799617
O O4 0.416351 0.000000 0.855176
O O5 0.891853 0.891853 0.750000
O O6 0.834982 0.865931 0.840178
O O7 0.749596 0.893346 0.761079
O O8 0.825656 0.000000 0.800852
O O9 0.780177 0.875023 0.930173
O O10 0.711823 0.000000 0.935159
O O11 0.678821 0.898041 0.000000
O O12 0.925681 0.112577 0.085261
O O13 0.000000 0.000000 0.055870
O O14 0.000000 0.118152 0.000000
O O15 0.868007 0.237590 0.086619
O O16 0.885053 0.368584 0.196396
O O17 0.000000 0.338620 0.249411
O O18 0.893843 0.623332 0.093747
O O19 0.000000 0.709579 0.066616
O O20 0.896856 0.689997 0.000000
O O21 0.500000 0.884470 0.650381
O O22 0.581501 0.000000 0.650579
#
# Coordination Sequence:
#
# PCOD9566182 Si02
#       8
#    16  16  16   8  16  16  16  16
#     4   9  16  27  44  64  84 108 135 173 225 276
#     4  11  23  34  45  61  84 115 149 192 241 280
#     4  10  19  30  44  62  84 112 147 191 232 267
#     4  11  22  32  46  62  77 109 161 209 242 268
#     4  12  21  34  48  60  84 117 154 197 233 277
#     4   9  16  30  46  62  85 106 137 177 224 277
#     4  10  20  33  47  64  87 115 148 187 233 277
#     4   9  17  29  48  70  87 106 135 176 225 280
#
# _framework density 13.940602999999999
#
# number of rings (size 3 to 8) (size 9 to 14) (size 15 to 20)
#    0.000    1.933    2.000    3.600    0.933    4.400 
#    0.000    2.667    0.000    0.000    0.000    0.000 
#    0.000    0.000    0.000    0.000    0.000    0.667 
#
# Total GULP energy -669035.279786 kJ/mol
# GULP energy per Si atom -5575.293998 kJ/mol
# Density = 1.390887 g / cm^3
# Si number density = 13.940603 Si / 1000 Ang^3
#
#
#
# Elastic Constant Matrix: (Units=GPa)
#
#
# Indices 1 2 3 4 5 6 
#
# 1 58.5661 18.1158 37.2892 0.0000 0.0000 0.0000
# 2 18.1158 58.5661 37.2892 0.0000 0.0000 0.0000
# 3 37.2892 37.2892 106.7960 0.0000 0.0000 0.0000
# 4 0.0000 0.0000 0.0000 13.4630 0.0000 0.0000
# 5 0.0000 0.0000 0.0000 0.0000 13.4630 0.0000
# 6 0.0000 0.0000 0.0000 0.0000 0.0000 0.3750
#
#
#
# Elastic Compliance Matrix: (Units=1/GPa)
#
#
# Indices 1 2 3 4 5 6 
#
# 1 0.022234 -0.002488 -0.006895 0.000000 0.000000 0.000000
# 2 -0.002488 0.022234 -0.006895 0.000000 0.000000 0.000000
# 3 -0.006895 -0.006895 0.014178 0.000000 0.000000 0.000000
# 4 0.000000 0.000000 0.000000 0.074277 0.000000 0.000000
# 5 0.000000 0.000000 0.000000 0.000000 0.074277 0.000000
# 6 0.000000 0.000000 0.000000 0.000000 0.000000 2.666325
#
#
# Mechanical properties :
#
#
# Convention : Reuss Voigt Hill
#
# Bulk Modulus (GPa) = 38.32527 45.47960 41.90244
# Shear Modulus (GPa) = 1.71540 14.20916 7.96228
#
# Velocity S-wave (km/s) = 1.11048 3.19606 2.39248
# Velocity P-wave (km/s) = 5.40331 6.80547 6.14451
#
# Compressibility (1/GPa) = 0.02609244
#
# Stress axis : x y z
#
# Youngs Moduli (GPa) = 44.97595 44.97595 70.52977
#
# Poissons Ratio (x) = 0.11188 0.48628
# Poissons Ratio (y) = 0.11188 0.48628
# Poissons Ratio (z) = 0.31010 0.31010
#
# Static dielectric constant tensor:
#      x y z
#    x 1.449510 0.000000 0.000000 
#    y 0.000000 1.449510 0.000000 
#    z 0.000000 0.000000 1.487290 
# 
# From -- ./inp_files/12548.got.cif
#   From: 2010.05.17/outbox.cif.g08.bks.cpg/sg131_7_cif.got.tgz:12548.got - 2010.05.20 12:21:01.
