data_PCOD9566480
_publ_section_title
;
Structure prediction by ZEFSAII (Michael W. Deem and Ramdas Pophale) SiO2 
 PCOD9566480
Probable space group: P 42/M M C
;
_chemical_formula_sum "Si O2"
_cell_formula_units_Z 88
_cell_length_a 12.706718
_cell_length_b 12.706718
_cell_length_c 31.544979
_cell_angle_alpha 90.000000
_cell_angle_beta 90.000000
_cell_angle_gamma 90.000000
_cell_volume 5093.273833
_symmetry_space_group_name_H-M "P 42/M M C"
_symmetry_group_IT_number 131
_symmetry_cell_setting 'tetragonal'
loop_
_space_group_symop_operation_xyz
x,y,z
-x,-y,z
-y,x,1/2+z
y,-x,1/2+z
-x,y,-z
x,-y,-z
y,x,1/2-z
-y,-x,1/2-z
-x,-y,-z
x,y,-z
y,-x,1/2-z
-y,x,1/2-z
x,-y,z
-x,y,z
-y,-x,1/2+z
y,x,1/2+z
loop_
_atom_site_type_symbol
_atom_site_label
_atom_site_fract_x
_atom_site_fract_y
_atom_site_fract_z
Si Si1 0.125614 0.125614 0.250000
Si Si2 0.624718 0.378719 0.865017
Si Si3 0.000000 0.264296 0.952700
Si Si4 0.269716 0.376229 0.452550
Si Si5 0.764883 0.194793 0.335877
Si Si6 0.624037 0.000000 0.635078
Si Si7 0.804854 0.876491 0.924843
O O1 0.173896 0.177675 0.208084
O O2 0.000000 0.143333 0.250050
O O3 0.651482 0.500000 0.856604
O O4 0.500000 0.364198 0.857762
O O5 0.645788 0.351400 0.914609
O O6 0.696098 0.298734 0.838668
O O7 0.000000 0.349232 0.915104
O O8 0.101389 0.190137 0.945837
O O9 0.000000 0.308508 0.000000
O O10 0.310145 0.354472 0.500000
O O11 0.243656 0.500000 0.450213
O O12 0.169396 0.303557 0.443377
O O13 0.681387 0.102018 0.345484
O O14 0.847479 0.192470 0.374883
O O15 0.500000 0.000000 0.642432
O O16 0.816921 0.000000 0.931660
#
# Coordination Sequence:
#
# PCOD9566480 Si02
#       7
#     8  16   8  16  16   8  16
#     4  11  22  38  64  89 108 132 170 219 272 328
#     4   9  18  34  56  78 106 147 185 219 266 322
#     4  10  21  33  48  75 107 142 187 229 262 313
#     4   9  18  31  48  74 105 137 182 234 272 310
#     4  10  20  37  56  82 110 135 175 226 273 328
#     4  10  20  36  57  80 110 147 179 221 277 329
#     4  10  20  33  50  71 103 143 179 221 274 330
#
# _framework density 17.27769
#
# number of rings (size 3 to 8) (size 9 to 14) (size 15 to 20)
#    0.000    2.273    0.909    1.909    0.000    2.727 
#    0.000    4.545    0.000    8.727    0.000    0.000 
#    0.000    0.000    0.000    0.000    0.000    0.000 
#
# Total GULP energy -490981.274776 kJ/mol
# GULP energy per Si atom -5579.332668 kJ/mol
# Density = 1.723837 g / cm^3
# Si number density = 17.277690 Si / 1000 Ang^3
#
#
#
# Elastic Constant Matrix: (Units=GPa)
#
#
# Indices 1 2 3 4 5 6 
#
# 1 53.9349 23.8707 29.3984 0.0000 0.0000 0.0000
# 2 23.8707 53.9349 29.3984 0.0000 0.0000 0.0000
# 3 29.3984 29.3984 118.2099 0.0000 0.0000 0.0000
# 4 0.0000 0.0000 0.0000 11.9007 0.0000 0.0000
# 5 0.0000 0.0000 0.0000 0.0000 11.9007 0.0000
# 6 0.0000 0.0000 0.0000 0.0000 0.0000 19.1726
#
#
#
# Elastic Compliance Matrix: (Units=1/GPa)
#
#
# Indices 1 2 3 4 5 6 
#
# 1 0.024545 -0.008718 -0.003936 0.000000 0.000000 0.000000
# 2 -0.008718 0.024545 -0.003936 0.000000 0.000000 0.000000
# 3 -0.003936 -0.003936 0.010417 0.000000 0.000000 0.000000
# 4 0.000000 0.000000 0.000000 0.084028 0.000000 0.000000
# 5 0.000000 0.000000 0.000000 0.000000 0.084028 0.000000
# 6 0.000000 0.000000 0.000000 0.000000 0.000000 0.052158
#
#
# Mechanical properties :
#
#
# Convention : Reuss Voigt Hill
#
# Bulk Modulus (GPa) = 37.98402 43.49054 40.73728
# Shear Modulus (GPa) = 15.54358 18.15564 16.84961
#
# Velocity S-wave (km/s) = 3.00264 3.24514 3.12625
# Velocity P-wave (km/s) = 5.83552 6.26637 6.05478
#
# Compressibility (1/GPa) = 0.02632686
#
# Stress axis : x y z
#
# Youngs Moduli (GPa) = 40.74219 40.74219 95.99393
#
# Poissons Ratio (x) = 0.35517 0.37784
# Poissons Ratio (y) = 0.35517 0.37784
# Poissons Ratio (z) = 0.16037 0.16037
#
# Static dielectric constant tensor:
#      x y z
#    x 1.567550 0.000000 0.000000 
#    y 0.000000 1.567550 0.000000 
#    z 0.000000 0.000000 1.584120 
# 
# From -- ./inp_files/13596.got.cif
#   From: 2010.05.17/outbox.cif.g08.bks.cpg/sg131_7_cif.got.tgz:13596.got - 2010.05.20 12:21:01.
