data_PCOD9566666
_publ_section_title
;
Structure prediction by ZEFSAII (Michael W. Deem and Ramdas Pophale) SiO2 
 PCOD9566666
Probable space group: P 42/M M C
;
_chemical_formula_sum "Si O2"
_cell_formula_units_Z 88
_cell_length_a 13.483426
_cell_length_b 13.483426
_cell_length_c 28.258458
_cell_angle_alpha 90.000000
_cell_angle_beta 90.000000
_cell_angle_gamma 90.000000
_cell_volume 5137.466130
_symmetry_space_group_name_H-M "P 42/M M C"
_symmetry_group_IT_number 131
_symmetry_cell_setting 'tetragonal'
loop_
_space_group_symop_operation_xyz
x,y,z
-x,-y,z
-y,x,1/2+z
y,-x,1/2+z
-x,y,-z
x,-y,-z
y,x,1/2-z
-y,-x,1/2-z
-x,-y,-z
x,y,-z
y,-x,1/2-z
-y,x,1/2-z
x,-y,z
-x,y,z
-y,-x,1/2+z
y,x,1/2+z
loop_
_atom_site_type_symbol
_atom_site_label
_atom_site_fract_x
_atom_site_fract_y
_atom_site_fract_z
Si Si1 0.114380 0.259547 0.180184
Si Si2 0.500000 0.612698 0.942682
Si Si3 0.618225 0.887312 0.584764
Si Si4 0.695314 0.736744 0.054694
Si Si5 0.389834 0.879801 0.766734
Si Si6 0.117901 0.275835 0.360053
O O1 0.117578 0.342556 0.138802
O O2 0.153545 0.309996 0.228025
O O3 0.177335 0.167280 0.161839
O O4 0.000000 0.230630 0.187157
O O5 0.500000 0.500000 0.924576
O O6 0.399216 0.670363 0.930056
O O7 0.500000 0.607824 0.000000
O O8 0.500000 0.874968 0.582185
O O9 0.673522 0.797111 0.558948
O O10 0.641833 0.000000 0.567670
O O11 0.703177 0.828443 0.090487
O O12 0.681417 0.766080 0.000000
O O13 0.500000 0.842561 0.756218
O O14 0.358501 0.858390 0.820379
O O15 0.391486 0.000000 0.762472
O O16 0.000000 0.267746 0.364905
#
# Coordination Sequence:
#
# PCOD9566666 Si02
#       6
#    16   8  16  16  16  16
#     4   9  17  31  51  76 106 136 170 208 256 318
#     4   9  18  34  55  75  97 129 172 224 275 321
#     4   9  17  30  51  79 108 134 165 212 269 325
#     4  10  21  35  51  73 102 138 181 225 269 315
#     4   9  17  30  50  74 100 129 163 208 259 310
#     4  10  21  34  50  74 104 138 179 221 258 305
#
# _framework density 17.129066999999999
#
# number of rings (size 3 to 8) (size 9 to 14) (size 15 to 20)
#    0.000    2.636    0.000    1.636    1.273    4.364 
#    0.000    0.909    0.000    4.909    0.000    5.091 
#    0.000    0.000    0.000    0.000    0.000    0.000 
#
# Total GULP energy -490350.139966 kJ/mol
# GULP energy per Si atom -5572.160681 kJ/mol
# Density = 1.709008 g / cm^3
# Si number density = 17.129067 Si / 1000 Ang^3
#
#
#
# Elastic Constant Matrix: (Units=GPa)
#
#
# Indices 1 2 3 4 5 6 
#
# 1 99.7045 52.7989 47.5940 0.0000 0.0000 0.0000
# 2 52.7989 99.7045 47.5940 0.0000 0.0000 0.0000
# 3 47.5940 47.5940 92.2926 0.0000 0.0000 0.0000
# 4 0.0000 0.0000 0.0000 14.3338 0.0000 0.0000
# 5 0.0000 0.0000 0.0000 0.0000 14.3338 0.0000
# 6 0.0000 0.0000 0.0000 0.0000 0.0000 19.3805
#
#
#
# Elastic Compliance Matrix: (Units=1/GPa)
#
#
# Indices 1 2 3 4 5 6 
#
# 1 0.015495 -0.005825 -0.004987 0.000000 0.000000 0.000000
# 2 -0.005825 0.015495 -0.004987 0.000000 0.000000 0.000000
# 3 -0.004987 -0.004987 0.015978 0.000000 0.000000 0.000000
# 4 0.000000 0.000000 0.000000 0.069765 0.000000 0.000000
# 5 0.000000 0.000000 0.000000 0.000000 0.069765 0.000000
# 6 0.000000 0.000000 0.000000 0.000000 0.000000 0.051598
#
#
# Mechanical properties :
#
#
# Convention : Reuss Voigt Hill
#
# Bulk Modulus (GPa) = 65.05617 65.29728 65.17673
# Shear Modulus (GPa) = 18.19401 19.19057 18.69229
#
# Velocity S-wave (km/s) = 3.26263 3.35080 3.30701
# Velocity P-wave (km/s) = 7.22879 7.29205 7.26049
#
# Compressibility (1/GPa) = 0.01537133
#
# Stress axis : x y z
#
# Youngs Moduli (GPa) = 64.53887 64.53887 62.58579
#
# Poissons Ratio (x) = 0.37593 0.31209
# Poissons Ratio (y) = 0.37593 0.31209
# Poissons Ratio (z) = 0.32182 0.32182
#
# Static dielectric constant tensor:
#      x y z
#    x 1.574160 0.000000 0.000000 
#    y 0.000000 1.574160 0.000000 
#    z 0.000000 0.000000 1.583530 
# 
# From -- ./inp_files/13555.got.cif
#   From: 2010.05.17/outbox.cif.g08.bks.cpg/sg131_7_cif.got.tgz:13555.got - 2010.05.20 12:21:01.
