data_PCOD9566125
_publ_section_title
;
Structure prediction by ZEFSAII (Michael W. Deem and Ramdas Pophale) SiO2 
 PCOD9566125
Probable space group: P 42/M M C
;
_chemical_formula_sum "Si O2"
_cell_formula_units_Z 120
_cell_length_a 18.030917
_cell_length_b 18.030917
_cell_length_c 20.229662
_cell_angle_alpha 90.000000
_cell_angle_beta 90.000000
_cell_angle_gamma 90.000000
_cell_volume 6576.945681
_symmetry_space_group_name_H-M "P 42/M M C"
_symmetry_group_IT_number 131
_symmetry_cell_setting 'tetragonal'
loop_
_space_group_symop_operation_xyz
x,y,z
-x,-y,z
-y,x,1/2+z
y,-x,1/2+z
-x,y,-z
x,-y,-z
y,x,1/2-z
-y,-x,1/2-z
-x,-y,-z
x,y,-z
y,-x,1/2-z
-y,x,1/2-z
x,-y,z
-x,y,z
-y,-x,1/2+z
y,x,1/2+z
loop_
_atom_site_type_symbol
_atom_site_label
_atom_site_fract_x
_atom_site_fract_y
_atom_site_fract_z
Si Si1 0.915854 0.292629 0.291870
Si Si2 0.806802 0.698833 0.165357
Si Si3 0.339651 0.415688 0.578398
Si Si4 0.409462 0.500000 0.923294
Si Si5 0.914529 0.781744 0.922687
Si Si6 0.656489 0.216279 0.846636
Si Si7 0.414306 0.706133 0.726769
Si Si8 0.880531 0.918470 0.825189
O O1 0.866019 0.297559 0.225374
O O2 0.871805 0.340089 0.346859
O O3 0.917392 0.208148 0.316634
O O4 0.000000 0.316222 0.279444
O O5 0.854856 0.720902 0.101721
O O6 0.740175 0.758500 0.172786
O O7 0.758000 0.623833 0.170551
O O8 0.349280 0.419499 0.500000
O O9 0.328472 0.500000 0.602500
O O10 0.419679 0.388375 0.606063
O O11 0.268702 0.366261 0.593494
O O12 0.500000 0.500000 0.923313
O O13 0.384621 0.500000 0.000000
O O14 0.904316 0.852456 0.873891
O O15 0.000000 0.756259 0.915126
O O16 0.902945 0.800477 0.000000
O O17 0.598838 0.241476 0.790714
O O18 0.364551 0.635450 0.750000
O O19 0.500000 0.689717 0.716937
O O20 0.908899 0.908899 0.750000
O O21 0.903477 0.000000 0.849734
#
# Coordination Sequence:
#
# PCOD9566125 Si02
#       8
#    16  16  16   8  16  16  16  16
#     4  10  18  32  57  79 100 135 184 239 284 327
#     4  10  19  36  56  78 109 145 188 234 281 340
#     4   9  17  30  50  76 109 150 186 219 265 330
#     4   7  12  26  46  70 104 142 183 219 246 306
#     4  11  23  37  55  81 116 156 195 242 299 351
#     4  10  18  31  52  78 109 137 180 229 286 332
#     4   9  19  34  55  82 113 146 178 225 283 346
#     4  11  20  33  55  83 114 149 190 234 286 352
#
# _framework density 18.245550999999999
#
# number of rings (size 3 to 8) (size 9 to 14) (size 15 to 20)
#    0.000    2.200    2.667    3.200    0.000    1.867 
#    4.800    0.667    0.000   14.400    0.000    1.867 
#    0.000    0.000    0.000    0.000    0.000    0.000 
#
# Total GULP energy -668041.967246 kJ/mol
# GULP energy per Si atom -5567.016394 kJ/mol
# Density = 1.820402 g / cm^3
# Si number density = 18.245551 Si / 1000 Ang^3
#
#
#
# Elastic Constant Matrix: (Units=GPa)
#
#
# Indices 1 2 3 4 5 6 
#
# 1 117.1618 53.4599 33.3556 0.0000 0.0000 0.0000
# 2 53.4599 117.1621 33.3555 0.0000 0.0000 0.0000
# 3 33.3556 33.3555 67.4694 0.0000 0.0000 0.0000
# 4 0.0000 0.0000 0.0000 23.0821 0.0000 0.0000
# 5 0.0000 0.0000 0.0000 0.0000 23.0823 0.0000
# 6 0.0000 0.0000 0.0000 0.0000 0.0000 18.8512
#
#
#
# Elastic Compliance Matrix: (Units=1/GPa)
#
#
# Indices 1 2 3 4 5 6 
#
# 1 0.011482 -0.004216 -0.003592 0.000000 0.000000 0.000000
# 2 -0.004216 0.011482 -0.003592 0.000000 0.000000 0.000000
# 3 -0.003592 -0.003592 0.018373 0.000000 0.000000 0.000000
# 4 0.000000 0.000000 0.000000 0.043324 0.000000 0.000000
# 5 0.000000 0.000000 0.000000 0.000000 0.043323 0.000000
# 6 0.000000 0.000000 0.000000 0.000000 0.000000 0.053047
#
#
# Mechanical properties :
#
#
# Convention : Reuss Voigt Hill
#
# Bulk Modulus (GPa) = 53.94824 60.23726 57.09275
# Shear Modulus (GPa) = 23.80851 25.11128 24.45989
#
# Velocity S-wave (km/s) = 3.61625 3.71387 3.66539
# Velocity P-wave (km/s) = 6.86064 7.17474 7.01945
#
# Compressibility (1/GPa) = 0.01853629
#
# Stress axis : x y z
#
# Youngs Moduli (GPa) = 87.09521 87.09550 54.42776
#
# Poissons Ratio (x) = 0.36723 0.19549
# Poissons Ratio (y) = 0.36723 0.19549
# Poissons Ratio (z) = 0.31283 0.31283
#
# Static dielectric constant tensor:
#      x y z
#    x 1.668240 0.000000 0.000000 
#    y 0.000000 1.668240 0.000000 
#    z 0.000000 0.000000 1.689780 
# 
# From -- ./inp_files/10147.got.cif
#   From: 2010.05.17/outbox.cif.g08.bks.cpg/sg131_6_cif.got.tgz:10147.got - 2010.05.20 12:21:01.
