data_PCOD9566861
_publ_section_title
;
Structure prediction by ZEFSAII (Michael W. Deem and Ramdas Pophale) SiO2 
 PCOD9566861
Probable space group: P 42/M M C
;
_chemical_formula_sum "Si O2"
_cell_formula_units_Z 48
_cell_length_a 9.599573
_cell_length_b 9.599573
_cell_length_c 27.919366
_cell_angle_alpha 90.000000
_cell_angle_beta 90.000000
_cell_angle_gamma 90.000000
_cell_volume 2572.819882
_symmetry_space_group_name_H-M "P 42/M M C"
_symmetry_group_IT_number 131
_symmetry_cell_setting 'tetragonal'
loop_
_space_group_symop_operation_xyz
x,y,z
-x,-y,z
-y,x,1/2+z
y,-x,1/2+z
-x,y,-z
x,-y,-z
y,x,1/2-z
-y,-x,1/2-z
-x,-y,-z
x,y,-z
y,-x,1/2-z
-y,x,1/2-z
x,-y,z
-x,y,z
-y,-x,1/2+z
y,x,1/2+z
loop_
_atom_site_type_symbol
_atom_site_label
_atom_site_fract_x
_atom_site_fract_y
_atom_site_fract_z
Si Si1 0.834826 0.500000 0.057626
Si Si2 0.669051 0.249980 0.105289
Si Si3 0.000000 0.835710 0.557415
Si Si4 0.161237 0.832940 0.806301
O O1 0.745975 0.375215 0.079155
O O2 0.000000 0.500000 0.071297
O O3 0.831676 0.500000 0.000000
O O4 0.500000 0.249932 0.102844
O O5 0.745346 0.125267 0.077784
O O6 0.726604 0.239211 0.159629
O O7 0.000000 0.837644 0.500000
O O8 0.000000 0.000000 0.572919
O O9 0.188871 0.811130 0.750000
O O10 0.000000 0.790713 0.816674
O O11 0.168572 0.000000 0.814356
#
# Coordination Sequence:
#
# PCOD9566861 Si02
#       4
#     8  16   8  16
#     4  11  25  45  67  89 121 171 223 261 316 399
#     4  12  24  39  62  94 130 164 207 269 333 385
#     4  11  23  39  63  93 127 169 215 259 308 381
#     4   9  18  36  63  90 119 164 215 261 309 376
#
# _framework density 18.656572000000001
#
# number of rings (size 3 to 8) (size 9 to 14) (size 15 to 20)
#    0.000    1.333    1.667    6.000    0.000    6.667 
#    3.000    0.000    0.000    0.000    0.000    0.000 
#    0.000    0.000    0.000    0.000    0.000    0.000 
#
# Total GULP energy -267567.945558 kJ/mol
# GULP energy per Si atom -5574.332199 kJ/mol
# Density = 1.861411 g / cm^3
# Si number density = 18.656572 Si / 1000 Ang^3
#
#
#
# Elastic Constant Matrix: (Units=GPa)
#
#
# Indices 1 2 3 4 5 6 
#
# 1 190.4386 84.9880 69.4062 0.0000 0.0000 0.0000
# 2 84.9880 190.4390 69.4063 0.0000 0.0000 0.0000
# 3 69.4062 69.4063 117.4538 0.0000 0.0000 0.0000
# 4 0.0000 0.0000 0.0000 28.6898 0.0000 0.0000
# 5 0.0000 0.0000 0.0000 0.0000 28.6896 0.0000
# 6 0.0000 0.0000 0.0000 0.0000 0.0000 26.4599
#
#
#
# Elastic Compliance Matrix: (Units=1/GPa)
#
#
# Indices 1 2 3 4 5 6 
#
# 1 0.007327 -0.002156 -0.003055 0.000000 0.000000 0.000000
# 2 -0.002156 0.007327 -0.003055 0.000000 0.000000 0.000000
# 3 -0.003055 -0.003055 0.012125 0.000000 0.000000 0.000000
# 4 0.000000 0.000000 0.000000 0.034856 0.000000 0.000000
# 5 0.000000 0.000000 0.000000 0.000000 0.034856 0.000000
# 6 0.000000 0.000000 0.000000 0.000000 0.000000 0.037793
#
#
# Mechanical properties :
#
#
# Convention : Reuss Voigt Hill
#
# Bulk Modulus (GPa) = 97.61304 105.10361 101.35833
# Shear Modulus (GPa) = 32.41862 35.06993 33.74427
#
# Velocity S-wave (km/s) = 4.17304 4.34033 4.25750
# Velocity P-wave (km/s) = 8.69791 9.03195 8.86650
#
# Compressibility (1/GPa) = 0.01024453
#
# Stress axis : x y z
#
# Youngs Moduli (GPa) = 136.48363 136.48392 82.47369
#
# Poissons Ratio (x) = 0.29429 0.25200
# Poissons Ratio (y) = 0.29429 0.25200
# Poissons Ratio (z) = 0.41702 0.41702
#
# Static dielectric constant tensor:
#      x y z
#    x 1.535510 0.000000 0.000000 
#    y 0.000000 1.535510 0.000000 
#    z 0.000000 0.000000 1.668830 
# 
# From -- ./inp_files/12865.got.cif
#   From: 2010.05.17/outbox.cif.g08.bks.cpg/sg131_7_cif.got.tgz:12865.got - 2010.05.20 12:21:01.
