data_PCOD9566481
_publ_section_title
;
Structure prediction by ZEFSAII (Michael W. Deem and Ramdas Pophale) SiO2 
 PCOD9566481
Probable space group: P 42/M M C
;
_chemical_formula_sum "Si O2"
_cell_formula_units_Z 96
_cell_length_a 14.845328
_cell_length_b 14.845328
_cell_length_c 24.642497
_cell_angle_alpha 90.000000
_cell_angle_beta 90.000000
_cell_angle_gamma 90.000000
_cell_volume 5430.806229
_symmetry_space_group_name_H-M "P 42/M M C"
_symmetry_group_IT_number 131
_symmetry_cell_setting 'tetragonal'
loop_
_space_group_symop_operation_xyz
x,y,z
-x,-y,z
-y,x,1/2+z
y,-x,1/2+z
-x,y,-z
x,-y,-z
y,x,1/2-z
-y,-x,1/2-z
-x,-y,-z
x,y,-z
y,-x,1/2-z
-y,x,1/2-z
x,-y,z
-x,y,z
-y,-x,1/2+z
y,x,1/2+z
loop_
_atom_site_type_symbol
_atom_site_label
_atom_site_fract_x
_atom_site_fract_y
_atom_site_fract_z
Si Si1 0.892744 0.259954 0.562312
Si Si2 0.897800 0.756080 0.935089
Si Si3 0.600417 0.390469 0.063165
Si Si4 0.754308 0.604884 0.246449
Si Si5 0.894490 0.606631 0.340787
Si Si6 0.215732 0.605570 0.879374
O O1 0.870178 0.285401 0.500000
O O2 0.837614 0.170439 0.576679
O O3 0.871409 0.337328 0.605500
O O4 0.000000 0.243545 0.564355
O O5 0.857606 0.667238 0.907851
O O6 0.000000 0.774098 0.917746
O O7 0.897374 0.743893 0.000000
O O8 0.597957 0.500000 0.064537
O O9 0.500000 0.359071 0.079959
O O10 0.684860 0.363669 0.099930
O O11 0.615079 0.364874 0.000000
O O12 0.667937 0.667937 0.250000
O O13 0.730437 0.500000 0.254895
O O14 0.828861 0.630246 0.291127
O O15 0.790748 0.613428 0.185264
O O16 0.885844 0.500000 0.351053
O O17 0.000000 0.624011 0.327464
O O18 0.206201 0.500000 0.893974
#
# Coordination Sequence:
#
# PCOD9566481 Si02
#       6
#    16  16  16  16  16  16
#     4   9  18  34  57  82 105 130 161 200 252 314
#     4  10  21  35  51  74 104 136 170 209 251 295
#     4   8  14  26  45  68  94 126 165 210 258 301
#     4  10  21  35  51  72 100 137 177 215 255 298
#     4   9  18  34  56  80 105 131 162 207 262 316
#     4  10  20  33  50  72 100 137 179 217 251 295
#
# _framework density 17.676933999999999
#
# number of rings (size 3 to 8) (size 9 to 14) (size 15 to 20)
#    0.000    2.667    0.000    2.000    0.000    3.500 
#    0.000    8.333    0.000    1.000    0.000    0.000 
#    0.000    4.000    0.000    0.000    0.000    0.167 
#
# Total GULP energy -535561.981816 kJ/mol
# GULP energy per Si atom -5578.770644 kJ/mol
# Density = 1.763670 g / cm^3
# Si number density = 17.676934 Si / 1000 Ang^3
#
#
#
# Elastic Constant Matrix: (Units=GPa)
#
#
# Indices 1 2 3 4 5 6 
#
# 1 77.2270 53.4018 57.8537 0.0000 0.0000 0.0000
# 2 53.4018 77.2270 57.8537 0.0000 0.0000 0.0000
# 3 57.8537 57.8537 82.1262 0.0000 0.0000 0.0000
# 4 0.0000 0.0000 0.0000 15.7504 0.0000 0.0000
# 5 0.0000 0.0000 0.0000 0.0000 15.7504 0.0000
# 6 0.0000 0.0000 0.0000 0.0000 0.0000 25.1763
#
#
#
# Elastic Compliance Matrix: (Units=1/GPa)
#
#
# Indices 1 2 3 4 5 6 
#
# 1 0.031166 -0.010807 -0.014342 0.000000 0.000000 0.000000
# 2 -0.010807 0.031166 -0.014342 0.000000 0.000000 0.000000
# 3 -0.014342 -0.014342 0.032382 0.000000 0.000000 0.000000
# 4 0.000000 0.000000 0.000000 0.063491 0.000000 0.000000
# 5 0.000000 0.000000 0.000000 0.000000 0.063491 0.000000
# 6 0.000000 0.000000 0.000000 0.000000 0.000000 0.039720
#
#
# Mechanical properties :
#
#
# Convention : Reuss Voigt Hill
#
# Bulk Modulus (GPa) = 63.56032 63.86650 63.71341
# Shear Modulus (GPa) = 14.46593 15.83347 15.14970
#
# Velocity S-wave (km/s) = 2.86379 2.99609 2.93069
# Velocity P-wave (km/s) = 6.85345 6.94097 6.89735
#
# Compressibility (1/GPa) = 0.01573309
#
# Stress axis : x y z
#
# Youngs Moduli (GPa) = 32.08665 32.08665 30.88100
#
# Poissons Ratio (x) = 0.34676 0.44289
# Poissons Ratio (y) = 0.34676 0.44289
# Poissons Ratio (z) = 0.46018 0.46018
#
# Static dielectric constant tensor:
#      x y z
#    x 1.601950 0.000000 0.000000 
#    y 0.000000 1.601950 0.000000 
#    z 0.000000 0.000000 1.591510 
# 
# From -- ./inp_files/9765.got.cif
#   From: 2010.05.17/outbox.cif.g08.bks.cpg/sg131_5_cif.got.tgz:9765.got - 2010.05.20 12:21:01.
