data_PCOD9566249
_publ_section_title
;
Structure prediction by ZEFSAII (Michael W. Deem and Ramdas Pophale) SiO2 
 PCOD9566249
Probable space group: P 42/M M C
;
_chemical_formula_sum "Si O2"
_cell_formula_units_Z 96
_cell_length_a 24.983682
_cell_length_b 24.983682
_cell_length_c 8.315254
_cell_angle_alpha 90.000000
_cell_angle_beta 90.000000
_cell_angle_gamma 90.000000
_cell_volume 5190.251548
_symmetry_space_group_name_H-M "P 42/M M C"
_symmetry_group_IT_number 131
_symmetry_cell_setting 'tetragonal'
loop_
_space_group_symop_operation_xyz
x,y,z
-x,-y,z
-y,x,1/2+z
y,-x,1/2+z
-x,y,-z
x,-y,-z
y,x,1/2-z
-y,-x,1/2-z
-x,-y,-z
x,y,-z
y,-x,1/2-z
-y,x,1/2-z
x,-y,z
-x,y,z
-y,-x,1/2+z
y,x,1/2+z
loop_
_atom_site_type_symbol
_atom_site_label
_atom_site_fract_x
_atom_site_fract_y
_atom_site_fract_z
Si Si1 0.939854 0.734506 0.806933
Si Si2 0.940627 0.438301 0.195888
Si Si3 0.353420 0.561586 0.694508
Si Si4 0.854571 0.060218 0.807916
Si Si5 0.266966 0.648403 0.307850
Si Si6 0.144929 0.647511 0.194766
O O1 0.930034 0.795929 0.763575
O O2 0.891241 0.697668 0.749471
O O3 0.000000 0.720251 0.747066
O O4 0.941518 0.728732 0.000000
O O5 0.935684 0.500000 0.244757
O O6 0.890592 0.403205 0.248877
O O7 0.000000 0.418596 0.245544
O O8 0.940696 0.436903 0.000000
O O9 0.405799 0.594202 0.750000
O O10 0.353131 0.561066 0.500000
O O11 0.352060 0.500000 0.750245
O O12 0.302252 0.597142 0.748688
O O13 0.896725 0.103275 0.750000
O O14 0.870896 0.000000 0.759303
O O15 0.850524 0.061922 0.000000
O O16 0.299227 0.700774 0.250000
O O17 0.267765 0.648071 0.500000
O O18 0.205753 0.647368 0.252261
O O19 0.146361 0.647812 0.000000
#
# Coordination Sequence:
#
# PCOD9566249 Si02
#       6
#    16  16  16  16  16  16
#     4   9  18  33  52  73  99 131 166 207 254 300
#     4   8  14  26  46  74 107 138 168 206 249 292
#     4   9  19  36  56  78 105 136 169 206 249 297
#     4  10  21  36  54  76 101 129 162 201 246 298
#     4  10  21  37  54  72  99 135 171 208 251 297
#     4  10  19  31  51  78 103 131 171 213 252 298
#
# _framework density 18.496213999999998
#
# number of rings (size 3 to 8) (size 9 to 14) (size 15 to 20)
#    0.000    2.667    0.000    2.000    0.000    6.333 
#    0.000    1.667    0.000    1.500    0.000    1.167 
#    0.000    0.000    0.000    0.000    0.000    0.000 
#
# Total GULP energy -535299.696943 kJ/mol
# GULP energy per Si atom -5576.038510 kJ/mol
# Density = 1.845412 g / cm^3
# Si number density = 18.496214 Si / 1000 Ang^3
#
#
#
# Elastic Constant Matrix: (Units=GPa)
#
#
# Indices 1 2 3 4 5 6 
#
# 1 174.5959 114.0852 18.1517 0.0000 0.0000 0.0000
# 2 114.0852 174.5935 18.1593 0.0000 0.0000 0.0000
# 3 18.1517 18.1593 10.7730 0.0000 0.0000 0.0000
# 4 0.0000 0.0000 0.0000 14.6206 0.0000 0.0000
# 5 0.0000 0.0000 0.0000 0.0000 14.6202 0.0000
# 6 0.0000 0.0000 0.0000 0.0000 0.0000 33.9389
#
#
#
# Elastic Compliance Matrix: (Units=1/GPa)
#
#
# Indices 1 2 3 4 5 6 
#
# 1 0.010460 -0.006065 -0.007401 0.000000 0.000000 0.000000
# 2 -0.006065 0.010462 -0.007416 0.000000 0.000000 0.000000
# 3 -0.007401 -0.007416 0.117795 0.000000 0.000000 0.000000
# 4 0.000000 0.000000 0.000000 0.068397 0.000000 0.000000
# 5 0.000000 0.000000 0.000000 0.000000 0.068398 0.000000
# 6 0.000000 0.000000 0.000000 0.000000 0.000000 0.029465
#
#
# Mechanical properties :
#
#
# Convention : Reuss Voigt Hill
#
# Bulk Modulus (GPa) = 10.31420 73.41719 41.86569
# Shear Modulus (GPa) = 13.19056 26.60701 19.89879
#
# Velocity S-wave (km/s) = 2.67338 3.79689 3.28354
# Velocity P-wave (km/s) = 3.88816 7.68121 6.08764
#
# Compressibility (1/GPa) = 0.09695369
#
# Stress axis : x y z
#
# Youngs Moduli (GPa) = 95.60150 95.58282 8.48931
#
# Poissons Ratio (x) = 0.57973 0.06283
# Poissons Ratio (y) = 0.57984 0.06296
# Poissons Ratio (z) = 0.70752 0.70883
#
# Static dielectric constant tensor:
#      x y z
#    x 1.627650 0.000000 0.000000 
#    y 0.000000 1.627660 0.000000 
#    z 0.000000 0.000000 1.645190 
# 
# From -- ./inp_files/2270.got.cif
#   From: 2010.05.17/outbox.cif.g08.bks.cpg/sg131_2_cif.got.tgz:2270.got - 2010.05.20 12:21:01.
