data_PCOD9566465
_publ_section_title
;
Structure prediction by ZEFSAII (Michael W. Deem and Ramdas Pophale) SiO2 
 PCOD9566465
Probable space group: P 42/M M C
;
_chemical_formula_sum "Si O2"
_cell_formula_units_Z 96
_cell_length_a 14.447569
_cell_length_b 14.447569
_cell_length_c 30.485508
_cell_angle_alpha 90.000000
_cell_angle_beta 90.000000
_cell_angle_gamma 90.000000
_cell_volume 6363.308678
_symmetry_space_group_name_H-M "P 42/M M C"
_symmetry_group_IT_number 131
_symmetry_cell_setting 'tetragonal'
loop_
_space_group_symop_operation_xyz
x,y,z
-x,-y,z
-y,x,1/2+z
y,-x,1/2+z
-x,y,-z
x,-y,-z
y,x,1/2-z
-y,-x,1/2-z
-x,-y,-z
x,y,-z
y,-x,1/2-z
-y,x,1/2-z
x,-y,z
-x,y,z
-y,-x,1/2+z
y,x,1/2+z
loop_
_atom_site_type_symbol
_atom_site_label
_atom_site_fract_x
_atom_site_fract_y
_atom_site_fract_z
Si Si1 0.609886 0.285335 0.710593
Si Si2 0.392668 0.389565 0.380451
Si Si3 0.757220 0.611629 0.549521
Si Si4 0.725487 0.895010 0.291907
Si Si5 0.774913 0.894079 0.188638
Si Si6 0.889451 0.604883 0.373392
O O1 0.667662 0.332339 0.750000
O O2 0.500000 0.289211 0.719964
O O3 0.627878 0.340892 0.665618
O O4 0.645163 0.180807 0.703345
O O5 0.379712 0.500000 0.375082
O O6 0.500000 0.373169 0.391013
O O7 0.327836 0.356899 0.420076
O O8 0.759530 0.648304 0.500000
O O9 0.749288 0.500000 0.546191
O O10 0.847025 0.628915 0.579372
O O11 0.748340 0.896518 0.239921
O O12 0.817347 0.854585 0.315484
O O13 0.703679 0.000000 0.305394
O O14 0.683929 0.864746 0.161435
O O15 0.800497 0.000000 0.176090
O O16 0.857348 0.500000 0.361571
O O17 0.000000 0.602470 0.375425
#
# Coordination Sequence:
#
# PCOD9566465 Si02
#       6
#    16  16  16  16  16  16
#     4  11  21  33  49  69  94 125 158 194 233 274
#     4   9  18  31  46  65  90 120 155 192 227 268
#     4   9  17  27  41  62  89 124 160 190 225 269
#     4  10  20  33  46  66  93 121 155 193 235 277
#     4   9  17  31  48  66  89 121 160 194 230 275
#     4   9  17  28  44  66  93 123 153 188 228 274
#
# _framework density 15.086491000000001
#
# number of rings (size 3 to 8) (size 9 to 14) (size 15 to 20)
#    0.000    2.500    1.667    1.500    0.000    2.833 
#    0.000    6.667    0.000    0.000    0.000    0.000 
#    0.000   10.667    0.000   29.333    0.000    1.667 
#
# Total GULP energy -534673.326611 kJ/mol
# GULP energy per Si atom -5569.513819 kJ/mol
# Density = 1.505215 g / cm^3
# Si number density = 15.086491 Si / 1000 Ang^3
#
#
#
# Elastic Constant Matrix: (Units=GPa)
#
#
# Indices 1 2 3 4 5 6 
#
# 1 71.6484 35.1198 36.0580 0.0000 0.0000 0.0000
# 2 35.1198 71.6491 36.0578 0.0000 0.0000 0.0000
# 3 36.0580 36.0578 71.0292 0.0000 0.0000 0.0000
# 4 0.0000 0.0000 0.0000 13.1421 0.0000 0.0000
# 5 0.0000 0.0000 0.0000 0.0000 13.1420 0.0000
# 6 0.0000 0.0000 0.0000 0.0000 0.0000 19.6208
#
#
#
# Elastic Compliance Matrix: (Units=1/GPa)
#
#
# Indices 1 2 3 4 5 6 
#
# 1 0.020815 -0.006561 -0.007236 0.000000 0.000000 0.000000
# 2 -0.006561 0.020814 -0.007236 0.000000 0.000000 0.000000
# 3 -0.007236 -0.007236 0.021425 0.000000 0.000000 0.000000
# 4 0.000000 0.000000 0.000000 0.076091 0.000000 0.000000
# 5 0.000000 0.000000 0.000000 0.000000 0.076092 0.000000
# 6 0.000000 0.000000 0.000000 0.000000 0.000000 0.050966
#
#
# Mechanical properties :
#
#
# Convention : Reuss Voigt Hill
#
# Bulk Modulus (GPa) = 47.64401 47.64423 47.64412
# Shear Modulus (GPa) = 15.85969 16.32039 16.09004
#
# Velocity S-wave (km/s) = 3.24582 3.29262 3.26930
# Velocity P-wave (km/s) = 6.75990 6.79003 6.77498
#
# Compressibility (1/GPa) = 0.02098900
#
# Stress axis : x y z
#
# Youngs Moduli (GPa) = 48.04313 48.04401 46.67425
#
# Poissons Ratio (x) = 0.31522 0.33773
# Poissons Ratio (y) = 0.31522 0.33771
# Poissons Ratio (z) = 0.34763 0.34763
#
# Static dielectric constant tensor:
#      x y z
#    x 1.519100 0.000000 0.000000 
#    y 0.000000 1.519100 0.000000 
#    z 0.000000 0.000000 1.483070 
# 
# From -- ./inp_files/13681.got.cif
#   From: 2010.05.17/outbox.cif.g08.bks.cpg/sg131_7_cif.got.tgz:13681.got - 2010.05.20 12:21:01.
