data_PCOD9566555
_publ_section_title
;
Structure prediction by ZEFSAII (Michael W. Deem and Ramdas Pophale) SiO2 
 PCOD9566555
Probable space group: P 42/M M C
;
_chemical_formula_sum "Si O2"
_cell_formula_units_Z 56
_cell_length_a 14.853777
_cell_length_b 14.853777
_cell_length_c 14.482288
_cell_angle_alpha 90.000000
_cell_angle_beta 90.000000
_cell_angle_gamma 90.000000
_cell_volume 3195.295140
_symmetry_space_group_name_H-M "P 42/M M C"
_symmetry_group_IT_number 131
_symmetry_cell_setting 'tetragonal'
loop_
_space_group_symop_operation_xyz
x,y,z
-x,-y,z
-y,x,1/2+z
y,-x,1/2+z
-x,y,-z
x,-y,-z
y,x,1/2-z
-y,-x,1/2-z
-x,-y,-z
x,y,-z
y,-x,1/2-z
-y,x,1/2-z
x,-y,z
-x,y,z
-y,-x,1/2+z
y,x,1/2+z
loop_
_atom_site_type_symbol
_atom_site_label
_atom_site_fract_x
_atom_site_fract_y
_atom_site_fract_z
Si Si1 0.392380 0.392380 0.750000
Si Si2 0.664454 0.899068 0.602756
Si Si3 0.734846 0.704007 0.607035
Si Si4 0.103118 0.399346 0.695385
O O1 0.376764 0.500000 0.745685
O O2 0.347302 0.341765 0.662883
O O3 0.621823 0.892036 0.500000
O O4 0.727991 0.812276 0.611354
O O5 0.602902 0.892810 0.693073
O O6 0.705708 0.000000 0.606837
O O7 0.731734 0.677551 0.500000
O O8 0.825501 0.668916 0.654133
O O9 0.125326 0.500000 0.663363
O O10 0.000000 0.378688 0.669539
#
# Coordination Sequence:
#
# PCOD9566555 Si02
#       4
#     8  16  16  16
#     4  11  24  40  56  78 110 147 192 236 270 319
#     4   9  18  33  55  82 109 141 184 232 282 333
#     4  11  22  37  58  81 110 149 187 228 281 337
#     4  10  20  34  54  81 113 147 185 232 284 336
#
# _framework density 17.525766999999998
#
# number of rings (size 3 to 8) (size 9 to 14) (size 15 to 20)
#    0.000    1.857    2.857    0.857    0.000    4.000 
#    0.000    8.571    0.000    0.857    0.000    8.000 
#    0.000    0.000    0.000    0.000    0.000    0.571 
#
# Total GULP energy -311955.674840 kJ/mol
# GULP energy per Si atom -5570.637051 kJ/mol
# Density = 1.748588 g / cm^3
# Si number density = 17.525767 Si / 1000 Ang^3
#
#
#
# Elastic Constant Matrix: (Units=GPa)
#
#
# Indices 1 2 3 4 5 6 
#
# 1 108.8059 68.7661 43.4712 0.0000 0.0000 0.0000
# 2 68.7661 108.8059 43.4712 0.0000 0.0000 0.0000
# 3 43.4712 43.4712 108.7101 0.0000 0.0000 0.0000
# 4 0.0000 0.0000 0.0000 8.1810 0.0000 0.0000
# 5 0.0000 0.0000 0.0000 0.0000 8.1810 0.0000
# 6 0.0000 0.0000 0.0000 0.0000 0.0000 11.3024
#
#
#
# Elastic Compliance Matrix: (Units=1/GPa)
#
#
# Indices 1 2 3 4 5 6 
#
# 1 0.015989 -0.008986 -0.002800 0.000000 0.000000 0.000000
# 2 -0.008986 0.015989 -0.002800 0.000000 0.000000 0.000000
# 3 -0.002800 -0.002800 0.011438 0.000000 0.000000 0.000000
# 4 0.000000 0.000000 0.000000 0.122234 0.000000 0.000000
# 5 0.000000 0.000000 0.000000 0.000000 0.122234 0.000000
# 6 0.000000 0.000000 0.000000 0.000000 0.000000 0.088477
#
#
# Mechanical properties :
#
#
# Convention : Reuss Voigt Hill
#
# Bulk Modulus (GPa) = 70.21193 70.85987 70.53590
# Shear Modulus (GPa) = 12.18673 16.90711 14.54692
#
# Velocity S-wave (km/s) = 2.63983 3.10933 2.88415
# Velocity P-wave (km/s) = 7.03141 7.30823 7.17115
#
# Compressibility (1/GPa) = 0.01424259
#
# Stress axis : x y z
#
# Youngs Moduli (GPa) = 62.54366 62.54366 87.42581
#
# Poissons Ratio (x) = 0.56204 0.24481
# Poissons Ratio (y) = 0.56204 0.24481
# Poissons Ratio (z) = 0.17513 0.17513
#
# Static dielectric constant tensor:
#      x y z
#    x 1.587580 0.000000 0.000000 
#    y 0.000000 1.587580 0.000000 
#    z 0.000000 0.000000 1.624540 
# 
# From -- ./inp_files/5272.got.cif
#   From: 2010.05.17/outbox.cif.g08.bks.cpg/sg131_3_cif.got.tgz:5272.got - 2010.05.20 12:21:01.
