data_PCOD9566519
_publ_section_title
;
Structure prediction by ZEFSAII (Michael W. Deem and Ramdas Pophale) SiO2 
 PCOD9566519
Probable space group: P 42/M M C
;
_chemical_formula_sum "Si O2"
_cell_formula_units_Z 62
_cell_length_a 18.804485
_cell_length_b 18.804485
_cell_length_c 10.297454
_cell_angle_alpha 90.000000
_cell_angle_beta 90.000000
_cell_angle_gamma 90.000000
_cell_volume 3641.268870
_symmetry_space_group_name_H-M "P 42/M M C"
_symmetry_group_IT_number 131
_symmetry_cell_setting 'tetragonal'
loop_
_space_group_symop_operation_xyz
x,y,z
-x,-y,z
-y,x,1/2+z
y,-x,1/2+z
-x,y,-z
x,-y,-z
y,x,1/2-z
-y,-x,1/2-z
-x,-y,-z
x,y,-z
y,-x,1/2-z
-y,x,1/2-z
x,-y,z
-x,y,z
-y,-x,1/2+z
y,x,1/2+z
loop_
_atom_site_type_symbol
_atom_site_label
_atom_site_fract_x
_atom_site_fract_y
_atom_site_fract_z
Si Si1 0.858508 0.355576 0.500000
Si Si2 0.653259 0.346742 0.250000
Si Si3 0.500000 0.500000 0.250000
Si Si4 0.655814 0.500000 0.731345
Si Si5 0.766723 0.500000 0.500000
Si Si6 0.719744 0.708498 0.500000
Si Si7 0.416094 0.815341 0.500000
Si Si8 0.582558 0.918813 0.747753
O O1 0.811442 0.428070 0.500000
O O2 0.805733 0.287310 0.500000
O O3 0.902428 0.365025 0.367313
O O4 0.573789 0.338047 0.305316
O O5 0.665935 0.294801 0.132240
O O6 0.500000 0.574912 0.174830
O O7 0.715161 0.500000 0.623347
O O8 0.655780 0.766728 0.500000
O O9 0.500000 0.787820 0.500000
O O10 0.410219 0.863711 0.370450
O O11 0.500000 0.913186 0.793827
O O12 0.592440 0.000000 0.702315
#
# Coordination Sequence:
#
# PCOD9566519 Si02
#       8
#     8   8   2   8   4   8   8  16
#     4  12  21  33  52  76 101 129 165 208 265 317
#     4  11  22  33  48  62  88 124 174 218 260 305
#     4   8  20  34  44  60  76 122 184 238 260 298
#     4  10  20  34  46  60  85 123 175 227 271 293
#     4  12  20  33  49  66  96 130 160 222 268 318
#     4  12  24  34  49  75 101 136 167 205 262 319
#     4  10  23  36  53  74 102 135 171 213 254 306
#     4  10  20  36  57  78  97 123 166 220 270 312
#
# _framework density 17.027031999999998
#
# number of rings (size 3 to 8) (size 9 to 14) (size 15 to 20)
#    0.000    1.290    3.871    2.323    1.806    2.839 
#    0.000    3.871    0.000    0.000    0.000    0.000 
#    0.000    0.000    0.000    0.000    0.000   45.161 
#
# Total GULP energy -345347.308582 kJ/mol
# GULP energy per Si atom -5570.117880 kJ/mol
# Density = 1.698828 g / cm^3
# Si number density = 17.027032 Si / 1000 Ang^3
#
#
#
# Elastic Constant Matrix: (Units=GPa)
#
#
# Indices 1 2 3 4 5 6 
#
# 1 56.7712 19.5953 5.2094 0.0000 0.0000 0.0000
# 2 19.5953 56.7715 5.2090 0.0000 0.0000 0.0000
# 3 5.2094 5.2090 55.9968 0.0000 0.0000 0.0000
# 4 0.0000 0.0000 0.0000 18.8077 0.0000 0.0000
# 5 0.0000 0.0000 0.0000 0.0000 18.8074 0.0000
# 6 0.0000 0.0000 0.0000 0.0000 0.0000 17.3292
#
#
#
# Elastic Compliance Matrix: (Units=1/GPa)
#
#
# Indices 1 2 3 4 5 6 
#
# 1 0.020081 -0.006818 -0.001234 0.000000 0.000000 0.000000
# 2 -0.006818 0.020081 -0.001234 0.000000 0.000000 0.000000
# 3 -0.001234 -0.001234 0.018088 0.000000 0.000000 0.000000
# 4 0.000000 0.000000 0.000000 0.053170 0.000000 0.000000
# 5 0.000000 0.000000 0.000000 0.000000 0.053171 0.000000
# 6 0.000000 0.000000 0.000000 0.000000 0.000000 0.057706
#
#
# Mechanical properties :
#
#
# Convention : Reuss Voigt Hill
#
# Bulk Modulus (GPa) = 25.20254 25.50743 25.35498
# Shear Modulus (GPa) = 19.67779 20.29059 19.98419
#
# Velocity S-wave (km/s) = 3.40322 3.45580 3.42961
# Velocity P-wave (km/s) = 5.50237 5.56206 5.53230
#
# Compressibility (1/GPa) = 0.03967855
#
# Stress axis : x y z
#
# Youngs Moduli (GPa) = 49.79804 49.79832 55.28616
#
# Poissons Ratio (x) = 0.33953 0.06822
# Poissons Ratio (y) = 0.33952 0.06821
# Poissons Ratio (z) = 0.06145 0.06144
#
# Static dielectric constant tensor:
#      x y z
#    x 1.611300 0.000000 0.000000 
#    y 0.000000 1.611290 0.000000 
#    z 0.000000 0.000000 1.568450 
# 
# From -- ./inp_files/3907.got.cif
#   From: 2010.05.17/outbox.cif.g08.bks.cpg/sg131_2_cif.got.tgz:3907.got - 2010.05.20 12:21:01.
