data_PCOD9566695
_publ_section_title
;
Structure prediction by ZEFSAII (Michael W. Deem and Ramdas Pophale) SiO2 
 PCOD9566695
Probable space group: P 42/M M C
;
_chemical_formula_sum "Si O2"
_cell_formula_units_Z 96
_cell_length_a 24.626270
_cell_length_b 24.626270
_cell_length_c 8.897377
_cell_angle_alpha 90.000000
_cell_angle_beta 90.000000
_cell_angle_gamma 90.000000
_cell_volume 5395.842523
_symmetry_space_group_name_H-M "P 42/M M C"
_symmetry_group_IT_number 131
_symmetry_cell_setting 'tetragonal'
loop_
_space_group_symop_operation_xyz
x,y,z
-x,-y,z
-y,x,1/2+z
y,-x,1/2+z
-x,y,-z
x,-y,-z
y,x,1/2-z
-y,-x,1/2-z
-x,-y,-z
x,y,-z
y,-x,1/2-z
-y,x,1/2-z
x,-y,z
-x,y,z
-y,-x,1/2+z
y,x,1/2+z
loop_
_atom_site_type_symbol
_atom_site_label
_atom_site_fract_x
_atom_site_fract_y
_atom_site_fract_z
Si Si1 0.645603 0.562377 0.821027
Si Si2 0.857016 0.354399 0.320241
Si Si3 0.235147 0.848307 0.319477
Si Si4 0.561726 0.236832 0.819257
Si Si5 0.439034 0.065053 0.323005
Si Si6 0.062683 0.145454 0.819017
O O1 0.603070 0.603070 0.750000
O O2 0.631239 0.500000 0.784460
O O3 0.705307 0.572305 0.755240
O O4 0.646732 0.568303 0.000000
O O5 0.857181 0.347943 0.500000
O O6 0.854063 0.295646 0.244070
O O7 0.806021 0.392411 0.276036
O O8 0.907843 0.390540 0.267641
O O9 0.203057 0.796944 0.250000
O O10 0.236459 0.843438 0.500000
O O11 0.198384 0.901154 0.280002
O O12 0.500000 0.219756 0.777524
O O13 0.562923 0.242342 0.000000
O O14 0.434169 0.079110 0.500000
O O15 0.500000 0.081658 0.272069
O O16 0.436409 0.000000 0.311754
O O17 0.094017 0.094017 0.750000
O O18 0.000000 0.149470 0.770482
O O19 0.063515 0.140756 0.000000
#
# Coordination Sequence:
#
# PCOD9566695 Si02
#       6
#    16  16  16  16  16  16
#     4  10  21  36  55  79 105 135 172 213 259 313
#     4  11  22  35  55  83 110 140 181 225 271 325
#     4  10  21  38  57  77 106 144 183 224 269 317
#     4   9  19  36  55  75 103 137 171 213 265 316
#     4   9  19  36  56  79 110 147 184 223 269 320
#     4   9  19  36  57  81 109 141 176 215 260 309
#
# _framework density 17.791475999999999
#
# number of rings (size 3 to 8) (size 9 to 14) (size 15 to 20)
#    0.000    2.333    0.000    2.500    0.000    6.333 
#    0.000    5.833    0.000    0.000    0.000    0.000 
#    0.000    0.000    0.000    0.000    0.000    0.000 
#
# Total GULP energy -535737.067527 kJ/mol
# GULP energy per Si atom -5580.594453 kJ/mol
# Density = 1.775098 g / cm^3
# Si number density = 17.791476 Si / 1000 Ang^3
#
#
#
# Elastic Constant Matrix: (Units=GPa)
#
#
# Indices 1 2 3 4 5 6 
#
# 1 136.5987 81.7784 48.5423 0.0000 0.0000 0.0000
# 2 81.7784 136.6027 48.5431 0.0000 0.0000 0.0000
# 3 48.5423 48.5431 34.3743 0.0000 0.0000 0.0000
# 4 0.0000 0.0000 0.0000 27.7628 0.0000 0.0000
# 5 0.0000 0.0000 0.0000 0.0000 27.7625 0.0000
# 6 0.0000 0.0000 0.0000 0.0000 0.0000 32.5171
#
#
#
# Elastic Compliance Matrix: (Units=1/GPa)
#
#
# Indices 1 2 3 4 5 6 
#
# 1 0.015272 -0.002969 -0.017375 0.000000 0.000000 0.000000
# 2 -0.002969 0.015272 -0.017375 0.000000 0.000000 0.000000
# 3 -0.017375 -0.017375 0.078164 0.000000 0.000000 0.000000
# 4 0.000000 0.000000 0.000000 0.036019 0.000000 0.000000
# 5 0.000000 0.000000 0.000000 0.000000 0.036020 0.000000
# 6 0.000000 0.000000 0.000000 0.000000 0.000000 0.030753
#
#
# Mechanical properties :
#
#
# Convention : Reuss Voigt Hill
#
# Bulk Modulus (GPa) = 30.05532 73.92258 51.98895
# Shear Modulus (GPa) = 16.77696 26.18928 21.48312
#
# Velocity S-wave (km/s) = 3.07412 3.84084 3.47867
# Velocity P-wave (km/s) = 5.43416 7.83001 6.73941
#
# Compressibility (1/GPa) = 0.03327198
#
# Stress axis : x y z
#
# Youngs Moduli (GPa) = 65.47774 65.47946 12.79359
#
# Poissons Ratio (x) = 0.19438 0.22229
# Poissons Ratio (y) = 0.19438 0.22229
# Poissons Ratio (z) = 1.13767 1.13769
#
# Static dielectric constant tensor:
#      x y z
#    x 1.590760 0.000000 0.000000 
#    y 0.000000 1.590760 0.000000 
#    z 0.000000 0.000000 1.597870 
# 
# From -- ./inp_files/2209.got.cif
#   From: 2010.05.17/outbox.cif.g08.bks.cpg/sg131_2_cif.got.tgz:2209.got - 2010.05.20 12:21:01.
