data_PCOD9566803
_publ_section_title
;
Structure prediction by ZEFSAII (Michael W. Deem and Ramdas Pophale) SiO2 
 PCOD9566803
Probable space group: P 42/M M C
;
_chemical_formula_sum "Si O2"
_cell_formula_units_Z 88
_cell_length_a 13.969424
_cell_length_b 13.969424
_cell_length_c 28.024126
_cell_angle_alpha 90.000000
_cell_angle_beta 90.000000
_cell_angle_gamma 90.000000
_cell_volume 5468.762657
_symmetry_space_group_name_H-M "P 42/M M C"
_symmetry_group_IT_number 131
_symmetry_cell_setting 'tetragonal'
loop_
_space_group_symop_operation_xyz
x,y,z
-x,-y,z
-y,x,1/2+z
y,-x,1/2+z
-x,y,-z
x,-y,-z
y,x,1/2-z
-y,-x,1/2-z
-x,-y,-z
x,y,-z
y,-x,1/2-z
-y,x,1/2-z
x,-y,z
-x,y,z
-y,-x,1/2+z
y,x,1/2+z
loop_
_atom_site_type_symbol
_atom_site_label
_atom_site_fract_x
_atom_site_fract_y
_atom_site_fract_z
Si Si1 0.796716 0.706804 0.853838
Si Si2 0.106867 0.386078 0.237205
Si Si3 0.295908 0.388317 0.295676
Si Si4 0.615413 0.111717 0.554195
Si Si5 0.883984 0.891031 0.500000
Si Si6 0.115737 0.886969 0.893726
O O1 0.861393 0.663876 0.811521
O O2 0.687892 0.687757 0.837598
O O3 0.825066 0.657616 0.903592
O O4 0.826046 0.817694 0.859366
O O5 0.107103 0.500000 0.228472
O O6 0.188378 0.368885 0.276372
O O7 0.000000 0.356910 0.251477
O O8 0.362381 0.362381 0.250000
O O9 0.306109 0.500000 0.308092
O O10 0.646215 0.136669 0.500000
O O11 0.500000 0.117079 0.555340
O O12 0.641251 0.000000 0.562558
O O13 0.860276 0.851799 0.447939
O O14 0.000000 0.895491 0.500000
O O15 0.848304 0.000000 0.500000
O O16 0.000000 0.871608 0.890477
O O17 0.131608 0.000000 0.886204
#
# Coordination Sequence:
#
# PCOD9566803 Si02
#       6
#    16  16  16  16   8  16
#     4  11  19  28  48  73  96 125 161 195 234 286
#     4   9  17  31  51  72  94 119 148 189 242 295
#     4   9  20  36  51  70  93 119 158 206 248 289
#     4   9  18  31  47  72 104 129 150 183 230 286
#     4   7  12  24  38  54  84 124 160 191 216 244
#     4   9  17  27  40  64  98 131 162 194 225 265
#
# _framework density 16.091390000000001
#
# number of rings (size 3 to 8) (size 9 to 14) (size 15 to 20)
#    0.000    2.818    0.000    3.818    1.273    3.091 
#    0.000    0.000    0.000    0.545    0.000   10.182 
#    0.000    2.182    0.000    0.000    0.000    0.000 
#
# Total GULP energy -490270.786821 kJ/mol
# GULP energy per Si atom -5571.258941 kJ/mol
# Density = 1.605477 g / cm^3
# Si number density = 16.091390 Si / 1000 Ang^3
#
#
#
# Elastic Constant Matrix: (Units=GPa)
#
#
# Indices 1 2 3 4 5 6 
#
# 1 68.0927 23.7167 40.4907 0.0000 0.0000 0.0000
# 2 23.7167 68.0927 40.4907 0.0000 0.0000 0.0000
# 3 40.4907 40.4907 83.9077 0.0000 0.0000 0.0000
# 4 0.0000 0.0000 0.0000 21.9827 0.0000 0.0000
# 5 0.0000 0.0000 0.0000 0.0000 21.9827 0.0000
# 6 0.0000 0.0000 0.0000 0.0000 0.0000 16.7875
#
#
#
# Elastic Compliance Matrix: (Units=1/GPa)
#
#
# Indices 1 2 3 4 5 6 
#
# 1 0.020749 -0.001785 -0.009151 0.000000 0.000000 0.000000
# 2 -0.001785 0.020749 -0.009151 0.000000 0.000000 0.000000
# 3 -0.009151 -0.009151 0.020750 0.000000 0.000000 0.000000
# 4 0.000000 0.000000 0.000000 0.045490 0.000000 0.000000
# 5 0.000000 0.000000 0.000000 0.000000 0.045490 0.000000
# 6 0.000000 0.000000 0.000000 0.000000 0.000000 0.059568
#
#
# Mechanical properties :
#
#
# Convention : Reuss Voigt Hill
#
# Bulk Modulus (GPa) = 45.30447 47.72106 46.51276
# Shear Modulus (GPa) = 19.20626 19.84357 19.52491
#
# Velocity S-wave (km/s) = 3.45856 3.51548 3.48713
# Velocity P-wave (km/s) = 6.64563 6.79697 6.72173
#
# Compressibility (1/GPa) = 0.02207288
#
# Stress axis : x y z
#
# Youngs Moduli (GPa) = 48.19399 48.19399 48.19246
#
# Poissons Ratio (x) = 0.08604 0.44103
# Poissons Ratio (y) = 0.08604 0.44103
# Poissons Ratio (z) = 0.44104 0.44104
#
# Static dielectric constant tensor:
#      x y z
#    x 1.554850 0.000000 0.000000 
#    y 0.000000 1.554850 0.000000 
#    z 0.000000 0.000000 1.544480 
# 
# From -- ./inp_files/12302.got.cif
#   From: 2010.05.17/outbox.cif.g08.bks.cpg/sg131_7_cif.got.tgz:12302.got - 2010.05.20 12:21:01.
