data_PCOD9566748
_publ_section_title
;
Structure prediction by ZEFSAII (Michael W. Deem and Ramdas Pophale) SiO2 
 PCOD9566748
Probable space group: P 42/M M C
;
_chemical_formula_sum "Si O2"
_cell_formula_units_Z 84
_cell_length_a 14.874224
_cell_length_b 14.874224
_cell_length_c 19.829376
_cell_angle_alpha 90.000000
_cell_angle_beta 90.000000
_cell_angle_gamma 90.000000
_cell_volume 4387.101505
_symmetry_space_group_name_H-M "P 42/M M C"
_symmetry_group_IT_number 131
_symmetry_cell_setting 'tetragonal'
loop_
_space_group_symop_operation_xyz
x,y,z
-x,-y,z
-y,x,1/2+z
y,-x,1/2+z
-x,y,-z
x,-y,-z
y,x,1/2-z
-y,-x,1/2-z
-x,-y,-z
x,y,-z
y,-x,1/2-z
-y,x,1/2-z
x,-y,z
-x,y,z
-y,-x,1/2+z
y,x,1/2+z
loop_
_atom_site_type_symbol
_atom_site_label
_atom_site_fract_x
_atom_site_fract_y
_atom_site_fract_z
Si Si1 0.599761 0.712565 0.301618
Si Si2 0.291864 0.851179 0.117749
Si Si3 0.606840 0.668388 0.078609
Si Si4 0.606707 0.098677 0.744588
Si Si5 0.000000 0.693939 0.500000
Si Si6 0.103452 0.107230 0.830755
O O1 0.669489 0.669489 0.250000
O O2 0.500000 0.703930 0.271693
O O3 0.602984 0.658050 0.370567
O O4 0.620819 0.818311 0.305836
O O5 0.344030 0.762211 0.095136
O O6 0.336889 0.883602 0.187806
O O7 0.305225 0.922729 0.059142
O O8 0.184941 0.842768 0.132239
O O9 0.500000 0.673419 0.092666
O O10 0.617492 0.645853 0.000000
O O11 0.500000 0.098417 0.761502
O O12 0.630228 0.000000 0.717729
O O13 0.115753 0.115753 0.750000
O O14 0.000000 0.133184 0.846839
O O15 0.112200 0.000000 0.846257
#
# Coordination Sequence:
#
# PCOD9566748 Si02
#       6
#    16  16  16  16   4  16
#     4  11  23  40  65  95 126 162 208 265 321 377
#     4  12  21  38  55  86 124 164 209 257 310 375
#     4  11  25  43  62  87 126 168 207 258 325 396
#     4  10  21  38  62  92 123 158 205 257 314 372
#     4  12  24  36  58  88 126 172 214 250 314 390
#     4   9  19  35  55  81 114 155 207 259 305 356
#
# _framework density 19.147037999999998
#
# number of rings (size 3 to 8) (size 9 to 14) (size 15 to 20)
#    0.000    1.333    4.762    1.714    2.667    1.714 
#    0.000    3.810    0.000    1.714    0.000    2.667 
#    0.000    0.000    0.000    0.000    0.000    0.000 
#
# Total GULP energy -467857.412960 kJ/mol
# GULP energy per Si atom -5569.731107 kJ/mol
# Density = 1.910346 g / cm^3
# Si number density = 19.147038 Si / 1000 Ang^3
#
#
#
# Elastic Constant Matrix: (Units=GPa)
#
#
# Indices 1 2 3 4 5 6 
#
# 1 110.5067 35.9120 42.7290 0.0000 0.0000 0.0000
# 2 35.9120 110.5067 42.7290 0.0000 0.0000 0.0000
# 3 42.7290 42.7290 73.7787 0.0000 0.0000 0.0000
# 4 0.0000 0.0000 0.0000 27.6060 0.0000 0.0000
# 5 0.0000 0.0000 0.0000 0.0000 27.6060 0.0000
# 6 0.0000 0.0000 0.0000 0.0000 0.0000 40.2246
#
#
#
# Elastic Compliance Matrix: (Units=1/GPa)
#
#
# Indices 1 2 3 4 5 6 
#
# 1 0.011861 -0.001544 -0.005975 0.000000 0.000000 0.000000
# 2 -0.001544 0.011861 -0.005975 0.000000 0.000000 0.000000
# 3 -0.005975 -0.005975 0.020475 0.000000 0.000000 0.000000
# 4 0.000000 0.000000 0.000000 0.036224 0.000000 0.000000
# 5 0.000000 0.000000 0.000000 0.000000 0.036224 0.000000
# 6 0.000000 0.000000 0.000000 0.000000 0.000000 0.024860
#
#
# Mechanical properties :
#
#
# Convention : Reuss Voigt Hill
#
# Bulk Modulus (GPa) = 58.11018 59.72578 58.91798
# Shear Modulus (GPa) = 28.69736 30.64880 29.67308
#
# Velocity S-wave (km/s) = 3.87562 4.00522 3.94095
# Velocity P-wave (km/s) = 7.10229 7.25603 7.17957
#
# Compressibility (1/GPa) = 0.01720869
#
# Stress axis : x y z
#
# Youngs Moduli (GPa) = 84.30658 84.30658 48.83978
#
# Poissons Ratio (x) = 0.13019 0.29183
# Poissons Ratio (y) = 0.13019 0.29183
# Poissons Ratio (z) = 0.50375 0.50375
#
# Static dielectric constant tensor:
#      x y z
#    x 1.709010 0.000000 0.000000 
#    y 0.000000 1.709010 0.000000 
#    z 0.000000 0.000000 1.627240 
# 
# From -- ./inp_files/9605.got.cif
#   From: 2010.05.17/outbox.cif.g08.bks.cpg/sg131_5_cif.got.tgz:9605.got - 2010.05.20 12:21:01.
