data_PCOD9566905
_publ_section_title
;
Structure prediction by ZEFSAII (Michael W. Deem and Ramdas Pophale) SiO2 
 PCOD9566905
Probable space group: P 42/M M C
;
_chemical_formula_sum "Si O2"
_cell_formula_units_Z 120
_cell_length_a 18.000000
_cell_length_b 18.000000
_cell_length_c 27.000000
_cell_angle_alpha 90.000000
_cell_angle_beta 90.000000
_cell_angle_gamma 90.000000
_cell_volume 8748.000000
_symmetry_space_group_name_H-M "P 42/M M C"
_symmetry_group_IT_number 131
_symmetry_cell_setting 'tetragonal'
loop_
_space_group_symop_operation_xyz
x,y,z
-x,-y,z
-y,x,1/2+z
y,-x,1/2+z
-x,y,-z
x,-y,-z
y,x,1/2-z
-y,-x,1/2-z
-x,-y,-z
x,y,-z
y,-x,1/2-z
-y,x,1/2-z
x,-y,z
-x,y,z
-y,-x,1/2+z
y,x,1/2+z
loop_
_atom_site_type_symbol
_atom_site_label
_atom_site_fract_x
_atom_site_fract_y
_atom_site_fract_z
Si Si1 0.413164 0.909660 0.856369
Si Si2 0.824278 0.911557 0.712550
Si Si3 0.704501 0.910115 0.941225
Si Si4 0.000000 0.087919 0.055883
Si Si5 0.855601 0.160257 0.101617
Si Si6 0.910056 0.337825 0.252356
Si Si7 0.910657 0.688150 0.057509
Si Si8 0.584492 0.909824 0.650037
O O1 0.500000 0.886213 0.858257
O O2 0.364555 0.888918 0.904999
O O3 0.373369 0.884869 0.804694
O O4 0.413523 0.000000 0.855300
O O5 0.890057 0.890057 0.750000
O O6 0.829075 0.866916 0.660736
O O7 0.748471 0.892584 0.742280
O O8 0.822826 0.000000 0.701267
O O9 0.778952 0.876391 0.916443
O O10 0.710291 0.000000 0.939933
O O11 0.697417 0.889533 0.000000
O O12 0.074158 0.112019 0.083776
O O13 0.000000 0.000000 0.052170
O O14 0.000000 0.120372 0.000000
O O15 0.867545 0.238034 0.073411
O O16 0.884836 0.379746 0.202146
O O17 0.000000 0.343112 0.253485
O O18 0.890837 0.628322 0.099817
O O19 0.000000 0.702154 0.061790
O O20 0.896541 0.667758 0.000000
O O21 0.500000 0.884421 0.647154
O O22 0.585041 0.000000 0.651935
#
# Coordination Sequence:
#
# PCOD9566905 Si02
#       8
#    16  16  16   8  16  16  16  16
#     4   9  17  30  49  69  86 107 135 174 230 287
#     4  11  22  34  45  60  84 114 148 189 235 275
#     4  10  21  34  47  65  87 112 147 193 237 274
#     4  11  22  32  46  62  77 109 159 207 240 265
#     4  12  20  34  47  61  84 115 152 191 231 272
#     4   9  16  29  45  63  84 105 137 177 220 272
#     4  10  18  28  43  61  83 112 146 182 220 261
#     4   9  16  26  42  62  84 107 134 173 216 260
#
# _framework density 13.717421
#
# number of rings (size 3 to 8) (size 9 to 14) (size 15 to 20)
#    0.000    1.933    2.667    2.800    0.000    5.467 
#    0.000    2.667    0.000    0.000    0.000    0.000 
#    0.000    0.000    0.000    0.000    0.000    0.667 
#
# Total GULP energy -668582.570816 kJ/mol
# GULP energy per Si atom -5571.521423 kJ/mol
# Density = 1.368620 g / cm^3
# Si number density = 13.717421 Si / 1000 Ang^3
#
#
#
# Elastic Constant Matrix: (Units=GPa)
#
#
# Indices 1 2 3 4 5 6 
#
# 1 54.6776 17.2546 38.9748 0.0000 0.0000 0.0000
# 2 17.2546 54.6776 38.9748 0.0000 0.0000 0.0000
# 3 38.9748 38.9748 138.0989 0.0000 0.0000 0.0000
# 4 0.0000 0.0000 0.0000 19.6376 0.0000 0.0000
# 5 0.0000 0.0000 0.0000 0.0000 19.6376 0.0000
# 6 0.0000 0.0000 0.0000 0.0000 0.0000 3.6777
#
#
#
# Elastic Compliance Matrix: (Units=1/GPa)
#
#
# Indices 1 2 3 4 5 6 
#
# 1 0.023374 -0.003347 -0.005652 0.000000 0.000000 0.000000
# 2 -0.003347 0.023374 -0.005652 0.000000 0.000000 0.000000
# 3 -0.005652 -0.005652 0.010431 0.000000 0.000000 0.000000
# 4 0.000000 0.000000 0.000000 0.050923 0.000000 0.000000
# 5 0.000000 0.000000 0.000000 0.000000 0.050923 0.000000
# 6 0.000000 0.000000 0.000000 0.000000 0.000000 0.271906
#
#
# Mechanical properties :
#
#
# Convention : Reuss Voigt Hill
#
# Bulk Modulus (GPa) = 35.87194 48.65138 42.26166
# Shear Modulus (GPa) = 10.64902 18.74058 14.69480
#
# Velocity S-wave (km/s) = 2.78926 3.70021 3.27655
# Velocity P-wave (km/s) = 6.04820 7.33480 6.72235
#
# Compressibility (1/GPa) = 0.02787694
#
# Stress axis : x y z
#
# Youngs Moduli (GPa) = 42.78229 42.78229 95.86385
#
# Poissons Ratio (x) = 0.14321 0.54183
# Poissons Ratio (y) = 0.14321 0.54183
# Poissons Ratio (z) = 0.24181 0.24181
#
# Static dielectric constant tensor:
#      x y z
#    x 1.449590 0.000000 0.000000 
#    y 0.000000 1.449590 0.000000 
#    z 0.000000 0.000000 1.476840 
# 
# From -- ./inp_files/12547.got.cif
#   From: 2010.05.17/outbox.ucp.g08.bks.cvg/sg131_7_cif.got.tgz:12547.got - 2010.06.11 11:38:44.
