data_PCOD9566144
_publ_section_title
;
Structure prediction by ZEFSAII (Michael W. Deem and Ramdas Pophale) SiO2 
 PCOD9566144
Probable space group: P 42/M M C
;
_chemical_formula_sum "Si O2"
_cell_formula_units_Z 112
_cell_length_a 15.357844
_cell_length_b 15.357844
_cell_length_c 28.293126
_cell_angle_alpha 90.000000
_cell_angle_beta 90.000000
_cell_angle_gamma 90.000000
_cell_volume 6673.312112
_symmetry_space_group_name_H-M "P 42/M M C"
_symmetry_group_IT_number 131
_symmetry_cell_setting 'tetragonal'
loop_
_space_group_symop_operation_xyz
x,y,z
-x,-y,z
-y,x,1/2+z
y,-x,1/2+z
-x,y,-z
x,-y,-z
y,x,1/2-z
-y,-x,1/2-z
-x,-y,-z
x,y,-z
y,-x,1/2-z
-y,x,1/2-z
x,-y,z
-x,y,z
-y,-x,1/2+z
y,x,1/2+z
loop_
_atom_site_type_symbol
_atom_site_label
_atom_site_fract_x
_atom_site_fract_y
_atom_site_fract_z
Si Si1 0.733610 0.399492 0.275094
Si Si2 0.813313 0.160227 0.671152
Si Si3 0.097191 0.707255 0.741423
Si Si4 0.103709 0.710130 0.553502
Si Si5 0.255281 0.676804 0.377520
Si Si6 0.104230 0.905886 0.578621
Si Si7 0.396919 0.398468 0.055705
O O1 0.662737 0.337264 0.250000
O O2 0.718727 0.500000 0.263981
O O3 0.828127 0.365350 0.258600
O O4 0.734294 0.383819 0.331613
O O5 0.877678 0.225471 0.699459
O O6 0.761713 0.106620 0.710284
O O7 0.748782 0.225632 0.643475
O O8 0.863822 0.104864 0.632458
O O9 0.000000 0.674011 0.735153
O O10 0.118644 0.677774 0.500000
O O11 0.165531 0.666313 0.592610
O O12 0.127105 0.813650 0.554698
O O13 0.000000 0.702159 0.563923
O O14 0.333921 0.658678 0.412724
O O15 0.000000 0.908275 0.576799
O O16 0.135860 0.000000 0.559997
O O17 0.380290 0.500000 0.066337
O O18 0.500000 0.382410 0.063864
O O19 0.380666 0.384790 0.000000
#
# Coordination Sequence:
#
# PCOD9566144 Si02
#       7
#    16  16  16  16  16  16  16
#     4  11  23  40  56  79 108 137 179 223 268 324
#     4   9  17  30  45  72 100 137 175 218 258 306
#     4  10  18  33  53  72 101 138 174 221 268 305
#     4   9  18  31  49  75 107 144 181 216 262 316
#     4  10  18  33  54  74 101 138 173 212 259 311
#     4   9  16  25  40  66 100 136 176 217 256 304
#     4   9  18  32  51  77 102 123 157 205 256 310
#
# _framework density 16.783269000000001
#
# number of rings (size 3 to 8) (size 9 to 14) (size 15 to 20)
#    0.000    2.429    2.857    2.143    0.000    4.714 
#    0.000    1.429    0.000    4.714    0.000    5.000 
#    0.000    0.000    0.000   17.571    0.000    0.143 
#
# Total GULP energy -623901.668856 kJ/mol
# GULP energy per Si atom -5570.550615 kJ/mol
# Density = 1.674507 g / cm^3
# Si number density = 16.783269 Si / 1000 Ang^3
#
#
#
# Elastic Constant Matrix: (Units=GPa)
#
#
# Indices 1 2 3 4 5 6 
#
# 1 77.1092 39.3709 30.9793 0.0000 0.0000 0.0000
# 2 39.3709 77.1091 30.9789 0.0000 0.0000 0.0000
# 3 30.9793 30.9789 85.0846 0.0000 0.0000 0.0000
# 4 0.0000 0.0000 0.0000 10.4267 0.0000 0.0000
# 5 0.0000 0.0000 0.0000 0.0000 10.4263 0.0000
# 6 0.0000 0.0000 0.0000 0.0000 0.0000 11.1421
#
#
#
# Elastic Compliance Matrix: (Units=1/GPa)
#
#
# Indices 1 2 3 4 5 6 
#
# 1 0.018573 -0.007926 -0.003877 0.000000 0.000000 0.000000
# 2 -0.007926 0.018573 -0.003877 0.000000 0.000000 0.000000
# 3 -0.003877 -0.003877 0.014576 0.000000 0.000000 0.000000
# 4 0.000000 0.000000 0.000000 0.095907 0.000000 0.000000
# 5 0.000000 0.000000 0.000000 0.000000 0.095912 0.000000
# 6 0.000000 0.000000 0.000000 0.000000 0.000000 0.089750
#
#
# Mechanical properties :
#
#
# Convention : Reuss Voigt Hill
#
# Bulk Modulus (GPa) = 49.10655 49.10679 49.10667
# Shear Modulus (GPa) = 13.46127 15.59726 14.52926
#
# Velocity S-wave (km/s) = 2.83515 3.05181 2.94547
# Velocity P-wave (km/s) = 6.32773 6.46072 6.39457
#
# Compressibility (1/GPa) = 0.02036388
#
# Stress axis : x y z
#
# Youngs Moduli (GPa) = 53.84221 53.84233 68.60613
#
# Poissons Ratio (x) = 0.42673 0.26597
# Poissons Ratio (y) = 0.42673 0.26596
# Poissons Ratio (z) = 0.20873 0.20872
#
# Static dielectric constant tensor:
#      x y z
#    x 1.547160 0.000000 0.000000 
#    y 0.000000 1.547110 0.000000 
#    z 0.000000 0.000000 1.586780 
# 
# From -- ./inp_files/13841.got.cif
#   From: 2010.05.17/outbox.cif.g08.bks.cpg/sg131_7_cif.got.tgz:13841.got - 2010.05.20 12:21:01.
