data_PCOD9566262
_publ_section_title
;
Structure prediction by ZEFSAII (Michael W. Deem and Ramdas Pophale) SiO2 
 PCOD9566262
Probable space group: P 42/M M C
;
_chemical_formula_sum "Si O2"
_cell_formula_units_Z 88
_cell_length_a 13.374967
_cell_length_b 13.374967
_cell_length_c 29.021409
_cell_angle_alpha 90.000000
_cell_angle_beta 90.000000
_cell_angle_gamma 90.000000
_cell_volume 5191.632376
_symmetry_space_group_name_H-M "P 42/M M C"
_symmetry_group_IT_number 131
_symmetry_cell_setting 'tetragonal'
loop_
_space_group_symop_operation_xyz
x,y,z
-x,-y,z
-y,x,1/2+z
y,-x,1/2+z
-x,y,-z
x,-y,-z
y,x,1/2-z
-y,-x,1/2-z
-x,-y,-z
x,y,-z
y,-x,1/2-z
-y,x,1/2-z
x,-y,z
-x,y,z
-y,-x,1/2+z
y,x,1/2+z
loop_
_atom_site_type_symbol
_atom_site_label
_atom_site_fract_x
_atom_site_fract_y
_atom_site_fract_z
Si Si1 0.675715 0.112440 0.821599
Si Si2 0.809073 0.387769 0.226249
Si Si3 0.616593 0.614532 0.163754
Si Si4 0.614442 0.781692 0.907054
Si Si5 0.176783 0.887713 0.698999
Si Si6 0.116953 0.377189 0.500000
O O1 0.633955 0.182399 0.780903
O O2 0.620089 0.131043 0.869076
O O3 0.793247 0.134897 0.828883
O O4 0.663269 0.000000 0.804960
O O5 0.847306 0.500000 0.217773
O O6 0.698133 0.383413 0.204560
O O7 0.870456 0.295885 0.204326
O O8 0.615097 0.500000 0.147305
O O9 0.500000 0.639060 0.176447
O O10 0.653108 0.687692 0.122816
O O11 0.500000 0.755090 0.917289
O O12 0.657837 0.823661 0.954442
O O13 0.130052 0.869949 0.750000
O O14 0.154671 0.000000 0.683461
O O15 0.116061 0.500000 0.500000
O O16 0.000000 0.347310 0.500000
#
# Coordination Sequence:
#
# PCOD9566262 Si02
#       6
#    16  16  16  16  16   8
#     4  11  22  34  48  70  98 132 172 207 247 292
#     4  10  19  32  48  69 100 133 167 202 236 281
#     4   9  18  33  52  73 101 136 168 197 236 291
#     4  10  19  33  52  74 101 129 162 203 248 297
#     4  10  20  33  46  65  93 127 167 204 244 285
#     4   9  18  32  51  75 100 128 160 201 253 301
#
# _framework density 16.950351999999999
#
# number of rings (size 3 to 8) (size 9 to 14) (size 15 to 20)
#    0.000    2.091    1.818    3.273    0.000    4.545 
#    0.000    1.364    0.000    7.091    0.000    0.636 
#    0.000    2.182    0.000    4.000    0.000    0.182 
#
# Total GULP energy -490198.249082 kJ/mol
# GULP energy per Si atom -5570.434649 kJ/mol
# Density = 1.691177 g / cm^3
# Si number density = 16.950352 Si / 1000 Ang^3
#
#
#
# Elastic Constant Matrix: (Units=GPa)
#
#
# Indices 1 2 3 4 5 6 
#
# 1 84.6552 16.0412 27.9565 0.0000 0.0000 0.0000
# 2 16.0412 84.6549 27.9566 0.0000 0.0000 0.0000
# 3 27.9565 27.9566 103.0123 0.0000 0.0000 0.0000
# 4 0.0000 0.0000 0.0000 12.0618 0.0000 0.0000
# 5 0.0000 0.0000 0.0000 0.0000 12.0618 0.0000
# 6 0.0000 0.0000 0.0000 0.0000 0.0000 10.0785
#
#
#
# Elastic Compliance Matrix: (Units=1/GPa)
#
#
# Indices 1 2 3 4 5 6 
#
# 1 0.013134 -0.001441 -0.003173 0.000000 0.000000 0.000000
# 2 -0.001441 0.013134 -0.003173 0.000000 0.000000 0.000000
# 3 -0.003173 -0.003173 0.011430 0.000000 0.000000 0.000000
# 4 0.000000 0.000000 0.000000 0.082906 0.000000 0.000000
# 5 0.000000 0.000000 0.000000 0.000000 0.082906 0.000000
# 6 0.000000 0.000000 0.000000 0.000000 0.000000 0.099221
#
#
# Mechanical properties :
#
#
# Convention : Reuss Voigt Hill
#
# Bulk Modulus (GPa) = 45.20294 46.24788 45.72541
# Shear Modulus (GPa) = 15.35250 20.19829 17.77540
#
# Velocity S-wave (km/s) = 3.01281 3.45572 3.24184
# Velocity P-wave (km/s) = 6.23124 6.57771 6.40682
#
# Compressibility (1/GPa) = 0.02212245
#
# Stress axis : x y z
#
# Youngs Moduli (GPa) = 76.14068 76.14030 87.48896
#
# Poissons Ratio (x) = 0.10970 0.27763
# Poissons Ratio (y) = 0.10970 0.27763
# Poissons Ratio (z) = 0.24162 0.24162
#
# Static dielectric constant tensor:
#      x y z
#    x 1.622520 0.000000 0.000000 
#    y 0.000000 1.622520 0.000000 
#    z 0.000000 0.000000 1.567930 
# 
# From -- ./inp_files/12241.got.cif
#   From: 2010.05.17/outbox.cif.g08.bks.cpg/sg131_7_cif.got.tgz:12241.got - 2010.05.20 12:21:01.
