data_PCOD9566576
_publ_section_title
;
Structure prediction by ZEFSAII (Michael W. Deem and Ramdas Pophale) SiO2 
 PCOD9566576
Probable space group: P 42/M M C
;
_chemical_formula_sum "Si O2"
_cell_formula_units_Z 104
_cell_length_a 17.617677
_cell_length_b 17.617677
_cell_length_c 19.387477
_cell_angle_alpha 90.000000
_cell_angle_beta 90.000000
_cell_angle_gamma 90.000000
_cell_volume 6017.534411
_symmetry_space_group_name_H-M "P 42/M M C"
_symmetry_group_IT_number 131
_symmetry_cell_setting 'tetragonal'
loop_
_space_group_symop_operation_xyz
x,y,z
-x,-y,z
-y,x,1/2+z
y,-x,1/2+z
-x,y,-z
x,-y,-z
y,x,1/2-z
-y,-x,1/2-z
-x,-y,-z
x,y,-z
y,-x,1/2-z
-y,x,1/2-z
x,-y,z
-x,y,z
-y,-x,1/2+z
y,x,1/2+z
loop_
_atom_site_type_symbol
_atom_site_label
_atom_site_fract_x
_atom_site_fract_y
_atom_site_fract_z
Si Si1 0.909237 0.589904 0.921217
Si Si2 0.500000 0.411705 0.583941
Si Si3 0.210295 0.683066 0.658153
Si Si4 0.143072 0.913877 0.678253
Si Si5 0.222326 0.911114 0.918542
Si Si6 0.697875 0.163772 0.309396
Si Si7 0.665878 0.408475 0.419902
O O1 0.894915 0.500000 0.913720
O O2 0.865022 0.638423 0.865201
O O3 0.000000 0.601439 0.913608
O O4 0.888867 0.611661 0.000000
O O5 0.500000 0.500000 0.605731
O O6 0.500000 0.411266 0.500000
O O7 0.417741 0.379495 0.604621
O O8 0.141693 0.710157 0.609610
O O9 0.263553 0.757165 0.668285
O O10 0.176852 0.664226 0.733370
O O11 0.264628 0.620883 0.624900
O O12 0.099472 0.900529 0.750000
O O13 0.113184 0.853062 0.623100
O O14 0.231101 0.894203 0.693999
O O15 0.134762 0.000000 0.654587
O O16 0.237068 0.000000 0.906005
O O17 0.211895 0.899284 0.000000
O O18 0.675697 0.385092 0.500000
O O19 0.662776 0.500000 0.418844
#
# Coordination Sequence:
#
# PCOD9566576 Si02
#       7
#    16   8  16  16  16  16  16
#     4   9  19  36  57  82 111 141 176 223 277 329
#     4   7  12  26  48  76 106 132 166 214 264 317
#     4  10  20  35  53  75 107 143 182 225 264 318
#     4  11  21  35  55  78 103 137 180 227 276 329
#     4  10  21  36  53  76 108 145 180 220 272 325
#     4  10  20  36  53  76 106 140 182 218 265 321
#     4   9  17  31  54  81 107 138 177 220 268 320
#
# _framework density 17.282827000000001
#
# number of rings (size 3 to 8) (size 9 to 14) (size 15 to 20)
#    0.000    2.385    3.077    2.769    0.000    5.692 
#    1.385    0.769    1.692    0.462    0.000    2.154 
#    0.000    0.000    0.000    0.000    0.000    0.000 
#
# Total GULP energy -579802.907445 kJ/mol
# GULP energy per Si atom -5575.027956 kJ/mol
# Density = 1.724349 g / cm^3
# Si number density = 17.282827 Si / 1000 Ang^3
#
#
#
# Elastic Constant Matrix: (Units=GPa)
#
#
# Indices 1 2 3 4 5 6 
#
# 1 58.0740 45.4172 54.8240 0.0000 0.0000 0.0000
# 2 45.4172 58.0736 54.8243 0.0000 0.0000 0.0000
# 3 54.8240 54.8243 113.9324 0.0000 0.0000 0.0000
# 4 0.0000 0.0000 0.0000 25.4857 0.0000 0.0000
# 5 0.0000 0.0000 0.0000 0.0000 25.4856 0.0000
# 6 0.0000 0.0000 0.0000 0.0000 0.0000 18.3674
#
#
#
# Elastic Compliance Matrix: (Units=1/GPa)
#
#
# Indices 1 2 3 4 5 6 
#
# 1 0.049361 -0.029649 -0.009485 0.000000 0.000000 0.000000
# 2 -0.029649 0.049362 -0.009486 0.000000 0.000000 0.000000
# 3 -0.009485 -0.009486 0.017906 0.000000 0.000000 0.000000
# 4 0.000000 0.000000 0.000000 0.039238 0.000000 0.000000
# 5 0.000000 0.000000 0.000000 0.000000 0.039238 0.000000
# 6 0.000000 0.000000 0.000000 0.000000 0.000000 0.054444
#
#
# Mechanical properties :
#
#
# Convention : Reuss Voigt Hill
#
# Bulk Modulus (GPa) = 51.57635 60.02345 55.79990
# Shear Modulus (GPa) = 14.15416 18.86870 16.51143
#
# Velocity S-wave (km/s) = 2.86487 3.30776 3.09425
# Velocity P-wave (km/s) = 6.39145 7.02808 6.71731
#
# Compressibility (1/GPa) = 0.01938873
#
# Stress axis : x y z
#
# Youngs Moduli (GPa) = 20.25887 20.25844 55.84639
#
# Poissons Ratio (x) = 0.60064 0.52973
# Poissons Ratio (y) = 0.60065 0.52977
# Poissons Ratio (z) = 0.19216 0.19218
#
# Static dielectric constant tensor:
#      x y z
#    x 1.590080 0.000000 0.000000 
#    y 0.000000 1.590080 0.000000 
#    z 0.000000 0.000000 1.579340 
# 
# From -- ./inp_files/8081.got.cif
#   From: 2010.05.17/outbox.cif.g08.bks.cpg/sg131_5_cif.got.tgz:8081.got - 2010.05.20 12:21:01.
