data_PCOD9566544
_publ_section_title
;
Structure prediction by ZEFSAII (Michael W. Deem and Ramdas Pophale) SiO2 
 PCOD9566544
Probable space group: P 42/M M C
;
_chemical_formula_sum "Si O2"
_cell_formula_units_Z 112
_cell_length_a 15.020564
_cell_length_b 15.020564
_cell_length_c 26.110097
_cell_angle_alpha 90.000000
_cell_angle_beta 90.000000
_cell_angle_gamma 90.000000
_cell_volume 5890.890707
_symmetry_space_group_name_H-M "P 42/M M C"
_symmetry_group_IT_number 131
_symmetry_cell_setting 'tetragonal'
loop_
_space_group_symop_operation_xyz
x,y,z
-x,-y,z
-y,x,1/2+z
y,-x,1/2+z
-x,y,-z
x,-y,-z
y,x,1/2-z
-y,-x,1/2-z
-x,-y,-z
x,y,-z
y,-x,1/2-z
-y,x,1/2-z
x,-y,z
-x,y,z
-y,-x,1/2+z
y,x,1/2+z
loop_
_atom_site_type_symbol
_atom_site_label
_atom_site_fract_x
_atom_site_fract_y
_atom_site_fract_z
Si Si1 0.599787 0.188287 0.110728
Si Si2 0.600332 0.630448 0.059675
Si Si3 0.205276 0.600355 0.901892
Si Si4 0.761030 0.898367 0.060634
Si Si5 0.606679 0.256840 0.776199
Si Si6 0.900620 0.758270 0.059109
Si Si7 0.392660 0.897823 0.701694
O O1 0.500000 0.151245 0.116202
O O2 0.600128 0.263368 0.066737
O O3 0.673377 0.118711 0.094029
O O4 0.620113 0.241985 0.163208
O O5 0.500000 0.601529 0.076257
O O6 0.688011 0.601125 0.090782
O O7 0.611190 0.606308 0.000000
O O8 0.175058 0.500000 0.911635
O O9 0.157135 0.668922 0.938934
O O10 0.165114 0.628655 0.846918
O O11 0.838090 0.834335 0.081884
O O12 0.789345 0.000000 0.063222
O O13 0.743335 0.878118 0.000000
O O14 0.665972 0.334029 0.750000
O O15 0.500000 0.272902 0.767758
O O16 0.631741 0.162206 0.750353
O O17 0.000000 0.747349 0.081028
O O18 0.910927 0.783591 0.000000
O O19 0.500000 0.904465 0.702153
O O20 0.358908 0.000000 0.699709
#
# Coordination Sequence:
#
# PCOD9566544 Si02
#       7
#    16  16  16  16  16  16  16
#     4  10  20  35  56  82 114 148 188 238 289 345
#     4  10  20  34  53  77 112 158 197 232 281 341
#     4  11  21  34  55  82 112 150 194 237 282 336
#     4  10  21  37  58  84 114 149 189 235 292 355
#     4  10  21  36  57  86 117 151 191 237 290 347
#     4  10  21  36  54  78 110 148 190 238 288 335
#     4   9  19  36  56  78 107 145 189 237 289 342
#
# _framework density 19.012405999999999
#
# number of rings (size 3 to 8) (size 9 to 14) (size 15 to 20)
#    0.000    2.000    1.429    2.143    0.000    4.429 
#    0.000    5.000    0.000    5.143    0.000    0.000 
#    0.000    0.286    0.000    0.000    0.000    0.000 
#
# Total GULP energy -623878.520646 kJ/mol
# GULP energy per Si atom -5570.343934 kJ/mol
# Density = 1.896913 g / cm^3
# Si number density = 19.012406 Si / 1000 Ang^3
#
#
#
# Elastic Constant Matrix: (Units=GPa)
#
#
# Indices 1 2 3 4 5 6 
#
# 1 113.2389 45.0582 28.6904 0.0000 0.0000 0.0000
# 2 45.0582 113.2375 28.6906 0.0000 0.0000 0.0000
# 3 28.6904 28.6906 59.7590 0.0000 0.0000 0.0000
# 4 0.0000 0.0000 0.0000 19.2963 0.0000 0.0000
# 5 0.0000 0.0000 0.0000 0.0000 19.2963 0.0000
# 6 0.0000 0.0000 0.0000 0.0000 0.0000 0.4059
#
#
#
# Elastic Compliance Matrix: (Units=1/GPa)
#
#
# Indices 1 2 3 4 5 6 
#
# 1 0.011158 -0.003509 -0.003672 0.000000 0.000000 0.000000
# 2 -0.003509 0.011158 -0.003672 0.000000 0.000000 0.000000
# 3 -0.003672 -0.003672 0.020260 0.000000 0.000000 0.000000
# 4 0.000000 0.000000 0.000000 0.051823 0.000000 0.000000
# 5 0.000000 0.000000 0.000000 0.000000 0.051823 0.000000
# 6 0.000000 0.000000 0.000000 0.000000 0.000000 2.463955
#
#
# Mechanical properties :
#
#
# Convention : Reuss Voigt Hill
#
# Bulk Modulus (GPa) = 47.91923 54.56819 51.24371
# Shear Modulus (GPa) = 1.89477 20.05277 10.97377
#
# Velocity S-wave (km/s) = 0.99938 3.25117 2.40508
# Velocity P-wave (km/s) = 5.15661 6.54654 5.89270
#
# Compressibility (1/GPa) = 0.02086845
#
# Stress axis : x y z
#
# Youngs Moduli (GPa) = 89.62500 89.62356 49.35898
#
# Poissons Ratio (x) = 0.31452 0.18124
# Poissons Ratio (y) = 0.31453 0.18125
# Poissons Ratio (z) = 0.32910 0.32910
#
# Static dielectric constant tensor:
#      x y z
#    x 1.678200 0.000000 0.000000 
#    y 0.000000 1.678200 0.000000 
#    z 0.000000 0.000000 1.711230 
# 
# From -- ./inp_files/12418.got.cif
#   From: 2010.05.17/outbox.cif.g08.bks.cpg/sg131_7_cif.got.tgz:12418.got - 2010.05.20 12:21:01.
