data_PCOD9566358
_publ_section_title
;
Structure prediction by ZEFSAII (Michael W. Deem and Ramdas Pophale) SiO2 
 PCOD9566358
Probable space group: P 42/M M C
;
_chemical_formula_sum "Si O2"
_cell_formula_units_Z 88
_cell_length_a 17.666724
_cell_length_b 17.666724
_cell_length_c 15.359084
_cell_angle_alpha 90.000000
_cell_angle_beta 90.000000
_cell_angle_gamma 90.000000
_cell_volume 4793.771887
_symmetry_space_group_name_H-M "P 42/M M C"
_symmetry_group_IT_number 131
_symmetry_cell_setting 'tetragonal'
loop_
_space_group_symop_operation_xyz
x,y,z
-x,-y,z
-y,x,1/2+z
y,-x,1/2+z
-x,y,-z
x,-y,-z
y,x,1/2-z
-y,-x,1/2-z
-x,-y,-z
x,y,-z
y,-x,1/2-z
-y,x,1/2-z
x,-y,z
-x,y,z
-y,-x,1/2+z
y,x,1/2+z
loop_
_atom_site_type_symbol
_atom_site_label
_atom_site_fract_x
_atom_site_fract_y
_atom_site_fract_z
Si Si1 0.587699 0.000000 0.393040
Si Si2 0.589829 0.715602 0.260386
Si Si3 0.320624 0.852127 0.662947
Si Si4 0.827202 0.585566 0.598355
Si Si5 0.273632 0.912178 0.160976
Si Si6 0.087608 0.162685 0.500000
Si Si7 0.766111 0.089206 0.500000
O O1 0.624006 0.075444 0.351347
O O2 0.500000 0.000000 0.371972
O O3 0.592872 0.000000 0.500000
O O4 0.639261 0.639261 0.250000
O O5 0.500000 0.704593 0.280530
O O6 0.631565 0.774669 0.326766
O O7 0.594057 0.760546 0.168500
O O8 0.272694 0.863687 0.751096
O O9 0.266106 0.864234 0.581584
O O10 0.799577 0.597496 0.500000
O O11 0.856081 0.500000 0.605944
O O12 0.891854 0.645411 0.619598
O O13 0.268217 0.000000 0.184950
O O14 0.212748 0.897168 0.086106
O O15 0.144192 0.093710 0.500000
O O16 0.000000 0.142040 0.500000
O O17 0.744854 0.000000 0.500000
#
# Coordination Sequence:
#
# PCOD9566358 Si02
#       7
#     8  16  16  16  16   8   8
#     4  11  20  36  58  85 129 167 192 242 314 375
#     4  10  23  40  60  87 118 155 203 246 298 355
#     4  11  21  38  59  92 118 156 199 249 301 370
#     4   9  18  32  52  79 112 149 187 231 283 350
#     4  10  19  34  54  80 118 152 191 238 294 351
#     4  10  24  39  57  86 120 156 200 256 298 342
#     4  12  24  41  64  89 117 160 208 244 306 373
#
# _framework density 18.357153
#
# number of rings (size 3 to 8) (size 9 to 14) (size 15 to 20)
#    0.000    1.727    3.636    0.545    5.091    1.455 
#    0.000    0.909    0.000    0.000    0.000    5.091 
#    0.000    0.000    0.000    0.000    0.000    0.000 
#
# Total GULP energy -490514.264594 kJ/mol
# GULP energy per Si atom -5574.025734 kJ/mol
# Density = 1.831537 g / cm^3
# Si number density = 18.357153 Si / 1000 Ang^3
#
#
#
# Elastic Constant Matrix: (Units=GPa)
#
#
# Indices 1 2 3 4 5 6 
#
# 1 61.7272 90.5774 22.1122 0.0000 0.0000 0.0000
# 2 90.5774 61.7272 22.1122 0.0000 0.0000 0.0000
# 3 22.1122 22.1122 92.5521 0.0000 0.0000 0.0000
# 4 0.0000 0.0000 0.0000 -29.5518 0.0000 0.0000
# 5 0.0000 0.0000 0.0000 0.0000 -29.5518 0.0000
# 6 0.0000 0.0000 0.0000 0.0000 0.0000 30.9694
#
#
#
# Elastic Compliance Matrix: (Units=1/GPa)
#
#
# Indices 1 2 3 4 5 6 
#
# 1 -0.013803 0.020859 -0.001686 0.000000 0.000000 0.000000
# 2 0.020859 -0.013803 -0.001686 0.000000 0.000000 0.000000
# 3 -0.001686 -0.001686 0.011610 0.000000 0.000000 0.000000
# 4 0.000000 0.000000 0.000000 -0.033839 0.000000 0.000000
# 5 0.000000 0.000000 0.000000 0.000000 -0.033839 0.000000
# 6 0.000000 0.000000 0.000000 0.000000 0.000000 0.032290
#
#
# Mechanical properties :
#
#
# Convention : Reuss Voigt Hill
#
# Bulk Modulus (GPa) = 52.69206 53.95669 53.32437
# Shear Modulus (GPa) = -62.47435 -0.21319 -31.34377
#
# Velocity S-wave (km/s) = -5.84008 -0.34115 -4.13660
# Velocity P-wave (km/s) = 4.08770 5.41307 2.50919
#
# Compressibility (1/GPa) = 0.01897819
#
# Stress axis : x y z
#
# Youngs Moduli (GPa) = -72.44645 -72.44645 86.13141
#
# Poissons Ratio (x) = 1.51113 0.14518
# Poissons Ratio (y) = 1.51113 0.14518
# Poissons Ratio (z) = -0.12212 -0.12212
#
# Static dielectric constant tensor:
#      x y z
#    x 1.623970 0.000000 0.000000 
#    y 0.000000 1.623970 0.000000 
#    z 0.000000 0.000000 1.689970 
# 
# From -- ./inp_files/5950.got.cif
#   From: 2010.05.17/outbox.cif.g08.bks.cpg/sg131_3_cif.got.tgz:5950.got - 2010.05.20 12:21:01.
