data_PCOD9566852
_publ_section_title
;
Structure prediction by ZEFSAII (Michael W. Deem and Ramdas Pophale) SiO2 
 PCOD9566852
Probable space group: P 42/M M C
;
_chemical_formula_sum "Si O2"
_cell_formula_units_Z 74
_cell_length_a 14.631456
_cell_length_b 14.631456
_cell_length_c 17.504532
_cell_angle_alpha 90.000000
_cell_angle_beta 90.000000
_cell_angle_gamma 90.000000
_cell_volume 3747.361540
_symmetry_space_group_name_H-M "P 42/M M C"
_symmetry_group_IT_number 131
_symmetry_cell_setting 'tetragonal'
loop_
_space_group_symop_operation_xyz
x,y,z
-x,-y,z
-y,x,1/2+z
y,-x,1/2+z
-x,y,-z
x,-y,-z
y,x,1/2-z
-y,-x,1/2-z
-x,-y,-z
x,y,-z
y,-x,1/2-z
-y,x,1/2-z
x,-y,z
-x,y,z
-y,-x,1/2+z
y,x,1/2+z
loop_
_atom_site_type_symbol
_atom_site_label
_atom_site_fract_x
_atom_site_fract_y
_atom_site_fract_z
Si Si1 0.000000 0.844546 0.090716
Si Si2 0.806024 0.598517 0.782132
Si Si3 0.000000 0.500000 0.000000
Si Si4 0.743657 0.681424 0.633677
Si Si5 0.817103 0.894511 0.169682
Si Si6 0.390507 0.610007 0.000000
Si Si7 0.363836 0.000000 0.352378
O O1 0.910025 0.892967 0.121990
O O2 0.000000 0.741888 0.124292
O O3 0.000000 0.840947 0.000000
O O4 0.777404 0.500000 0.812582
O O5 0.779275 0.606539 0.693694
O O6 0.751865 0.677258 0.823890
O O7 0.911369 0.612743 0.802288
O O8 0.000000 0.421331 0.931267
O O9 0.835308 0.742549 0.622238
O O10 0.675588 0.641868 0.569845
O O11 0.843670 0.843670 0.250000
O O12 0.789374 0.000000 0.184375
O O13 0.500000 0.605218 0.000000
O O14 0.359529 0.500000 0.000000
#
# Coordination Sequence:
#
# PCOD9566852 Si02
#       7
#     8  16   2  16  16   8   8
#     4  12  25  40  62  94 135 176 232 286 329 389
#     4  11  22  39  64  96 135 177 226 276 348 426
#     4  12  24  36  64 104 134 182 230 272 368 440
#     4  11  24  41  67  99 130 175 228 289 348 423
#     4  12  24  42  67  95 137 187 233 278 335 406
#     4  11  26  51  76  99 131 173 225 300 379 439
#     4  12  22  41  62  99 145 186 220 288 350 420
#
# _framework density 19.747229000000001
#
# number of rings (size 3 to 8) (size 9 to 14) (size 15 to 20)
#    0.000    0.541    7.027    1.622    3.027    1.730 
#    1.946    0.000    0.000    5.838    0.000    0.000 
#    0.000    0.000    0.000    0.000    0.000    0.000 
#
# Total GULP energy -412057.749265 kJ/mol
# GULP energy per Si atom -5568.347963 kJ/mol
# Density = 1.970228 g / cm^3
# Si number density = 19.747229 Si / 1000 Ang^3
#
#
#
# Elastic Constant Matrix: (Units=GPa)
#
#
# Indices 1 2 3 4 5 6 
#
# 1 133.6779 48.2090 47.3863 0.0000 0.0000 0.0000
# 2 48.2090 133.6779 47.3863 0.0000 0.0000 0.0000
# 3 47.3863 47.3863 112.3386 0.0000 0.0000 0.0000
# 4 0.0000 0.0000 0.0000 23.2260 0.0000 0.0000
# 5 0.0000 0.0000 0.0000 0.0000 23.2260 0.0000
# 6 0.0000 0.0000 0.0000 0.0000 0.0000 10.2548
#
#
#
# Elastic Compliance Matrix: (Units=1/GPa)
#
#
# Indices 1 2 3 4 5 6 
#
# 1 0.009373 -0.002327 -0.002972 0.000000 0.000000 0.000000
# 2 -0.002327 0.009373 -0.002972 0.000000 0.000000 0.000000
# 3 -0.002972 -0.002972 0.011409 0.000000 0.000000 0.000000
# 4 0.000000 0.000000 0.000000 0.043055 0.000000 0.000000
# 5 0.000000 0.000000 0.000000 0.000000 0.043055 0.000000
# 6 0.000000 0.000000 0.000000 0.000000 0.000000 0.097515
#
#
# Mechanical properties :
#
#
# Convention : Reuss Voigt Hill
#
# Bulk Modulus (GPa) = 73.45904 73.96197 73.71050
# Shear Modulus (GPa) = 21.28902 27.12220 24.20561
#
# Velocity S-wave (km/s) = 3.28697 3.71005 3.50490
# Velocity P-wave (km/s) = 7.18930 7.47585 7.33397
#
# Compressibility (1/GPa) = 0.01361303
#
# Stress axis : x y z
#
# Youngs Moduli (GPa) = 106.68447 106.68447 87.64779
#
# Poissons Ratio (x) = 0.24823 0.26053
# Poissons Ratio (y) = 0.24823 0.26053
# Poissons Ratio (z) = 0.31711 0.31711
#
# Static dielectric constant tensor:
#      x y z
#    x 1.713640 0.000000 0.000000 
#    y 0.000000 1.713640 0.000000 
#    z 0.000000 0.000000 1.724490 
# 
# From -- ./inp_files/7689.got.cif
#   From: 2010.05.17/outbox.cif.g08.bks.cpg/sg131_4_cif.got.tgz:7689.got - 2010.05.20 12:21:01.
