data_PCOD9566459
_publ_section_title
;
Structure prediction by ZEFSAII (Michael W. Deem and Ramdas Pophale) SiO2 
 PCOD9566459
Probable space group: P 42/M M C
;
_chemical_formula_sum "Si O2"
_cell_formula_units_Z 96
_cell_length_a 24.981327
_cell_length_b 24.981327
_cell_length_c 8.226277
_cell_angle_alpha 90.000000
_cell_angle_beta 90.000000
_cell_angle_gamma 90.000000
_cell_volume 5133.745530
_symmetry_space_group_name_H-M "P 42/M M C"
_symmetry_group_IT_number 131
_symmetry_cell_setting 'tetragonal'
loop_
_space_group_symop_operation_xyz
x,y,z
-x,-y,z
-y,x,1/2+z
y,-x,1/2+z
-x,y,-z
x,-y,-z
y,x,1/2-z
-y,-x,1/2-z
-x,-y,-z
x,y,-z
y,-x,1/2-z
-y,x,1/2-z
x,-y,z
-x,y,z
-y,-x,1/2+z
y,x,1/2+z
loop_
_atom_site_type_symbol
_atom_site_label
_atom_site_fract_x
_atom_site_fract_y
_atom_site_fract_z
Si Si1 0.059391 0.438124 0.801755
Si Si2 0.647134 0.732867 0.305150
Si Si3 0.939755 0.267387 0.696571
Si Si4 0.647310 0.438544 0.694771
Si Si5 0.855186 0.353384 0.195379
Si Si6 0.941039 0.144198 0.304560
O O1 0.065132 0.500000 0.755335
O O2 0.108555 0.402641 0.742685
O O3 0.000000 0.419507 0.748888
O O4 0.059434 0.436151 0.000000
O O5 0.698569 0.698569 0.250000
O O6 0.647249 0.733624 0.500000
O O7 0.595100 0.699226 0.250532
O O8 0.647943 0.794123 0.243786
O O9 0.938697 0.269878 0.500000
O O10 0.891445 0.302305 0.763529
O O11 0.933198 0.205611 0.747156
O O12 0.000000 0.284713 0.748551
O O13 0.595730 0.404271 0.750000
O O14 0.647333 0.439226 0.500000
O O15 0.646986 0.500000 0.753944
O O16 0.851840 0.357919 0.000000
O O17 0.894861 0.105140 0.250000
O O18 0.941929 0.144765 0.500000
O O19 0.000000 0.126530 0.246995
#
# Coordination Sequence:
#
# PCOD9566459 Si02
#       6
#    16  16  16  16  16  16
#     4   8  14  26  45  70 100 128 153 191 243 291
#     4  10  21  36  53  74 103 139 176 215 260 305
#     4   9  19  35  52  71  99 134 167 205 258 311
#     4  10  21  37  58  83 110 141 176 214 257 304
#     4  10  20  32  51  78 100 127 172 216 252 297
#     4   9  19  35  52  72  99 129 163 203 249 304
#
# _framework density 18.699798000000001
#
# number of rings (size 3 to 8) (size 9 to 14) (size 15 to 20)
#    0.000    2.667    0.000    4.000    0.000    6.333 
#    0.000    8.333    0.000    0.500    0.000    2.333 
#    0.000    0.000    0.000    0.000    0.000    0.000 
#
# Total GULP energy -535315.189303 kJ/mol
# GULP energy per Si atom -5576.199889 kJ/mol
# Density = 1.865724 g / cm^3
# Si number density = 18.699798 Si / 1000 Ang^3
#
#
#
# Elastic Constant Matrix: (Units=GPa)
#
#
# Indices 1 2 3 4 5 6 
#
# 1 177.1857 109.2689 16.6534 0.0000 0.0000 0.0000
# 2 109.2689 177.1796 16.6546 0.0000 0.0000 0.0000
# 3 16.6534 16.6546 18.1087 0.0000 0.0000 0.0000
# 4 0.0000 0.0000 0.0000 20.1290 0.0000 0.0000
# 5 0.0000 0.0000 0.0000 0.0000 20.1289 0.0000
# 6 0.0000 0.0000 0.0000 0.0000 0.0000 33.5032
#
#
#
# Elastic Compliance Matrix: (Units=1/GPa)
#
#
# Indices 1 2 3 4 5 6 
#
# 1 0.009317 -0.005408 -0.003594 0.000000 0.000000 0.000000
# 2 -0.005408 0.009317 -0.003596 0.000000 0.000000 0.000000
# 3 -0.003594 -0.003596 0.061835 0.000000 0.000000 0.000000
# 4 0.000000 0.000000 0.000000 0.049680 0.000000 0.000000
# 5 0.000000 0.000000 0.000000 0.000000 0.049680 0.000000
# 6 0.000000 0.000000 0.000000 0.000000 0.000000 0.029848
#
#
# Mechanical properties :
#
#
# Convention : Reuss Voigt Hill
#
# Bulk Modulus (GPa) = 18.09213 73.06975 45.58094
# Shear Modulus (GPa) = 19.73981 30.07869 24.90925
#
# Velocity S-wave (km/s) = 3.25255 4.01497 3.65370
# Velocity P-wave (km/s) = 4.87868 7.78802 6.49826
#
# Compressibility (1/GPa) = 0.05527264
#
# Stress axis : x y z
#
# Youngs Moduli (GPa) = 107.33577 107.33038 16.17217
#
# Poissons Ratio (x) = 0.58042 0.05813
# Poissons Ratio (y) = 0.58045 0.05815
# Poissons Ratio (z) = 0.38580 0.38593
#
# Static dielectric constant tensor:
#      x y z
#    x 1.645290 0.000000 0.000000 
#    y 0.000000 1.645290 0.000000 
#    z 0.000000 0.000000 1.659510 
# 
# From -- ./inp_files/2297.got.cif
#   From: 2010.05.17/outbox.cif.g08.bks.cpg/sg131_2_cif.got.tgz:2297.got - 2010.05.20 12:21:01.
