data_PCOD9566388
_publ_section_title
;
Structure prediction by ZEFSAII (Michael W. Deem and Ramdas Pophale) SiO2 
 PCOD9566388
Probable space group: P 42/M M C
;
_chemical_formula_sum "Si O2"
_cell_formula_units_Z 56
_cell_length_a 17.125817
_cell_length_b 17.125817
_cell_length_c 10.601462
_cell_angle_alpha 90.000000
_cell_angle_beta 90.000000
_cell_angle_gamma 90.000000
_cell_volume 3109.341039
_symmetry_space_group_name_H-M "P 42/M M C"
_symmetry_group_IT_number 131
_symmetry_cell_setting 'tetragonal'
loop_
_space_group_symop_operation_xyz
x,y,z
-x,-y,z
-y,x,1/2+z
y,-x,1/2+z
-x,y,-z
x,-y,-z
y,x,1/2-z
-y,-x,1/2-z
-x,-y,-z
x,y,-z
y,-x,1/2-z
-y,x,1/2-z
x,-y,z
-x,y,z
-y,-x,1/2+z
y,x,1/2+z
loop_
_atom_site_type_symbol
_atom_site_label
_atom_site_fract_x
_atom_site_fract_y
_atom_site_fract_z
Si Si1 0.589675 0.666951 0.362008
Si Si2 0.092990 0.500000 0.148407
Si Si3 0.833385 0.166616 0.750000
Si Si4 0.662745 0.835150 0.647666
Si Si5 0.906368 0.908657 0.500000
O O1 0.609563 0.609563 0.250000
O O2 0.601542 0.630626 0.500000
O O3 0.500000 0.693386 0.354466
O O4 0.643265 0.743253 0.353188
O O5 0.124556 0.583131 0.197429
O O6 0.000000 0.500000 0.156620
O O7 0.116658 0.500000 0.000000
O O8 0.848245 0.258986 0.773078
O O9 0.875165 0.133783 0.625322
O O10 0.675419 0.859210 0.500000
O O11 0.000000 0.906751 0.500000
O O12 0.881693 0.000000 0.500000
#
# Coordination Sequence:
#
# PCOD9566388 Si02
#       5
#    16   8   8  16   8
#     4  10  20  35  57  80 114 156 195 240 292 344
#     4   9  18  32  54  85 122 155 188 238 297 355
#     4  12  22  39  68  94 119 158 212 252 296 370
#     4  10  19  35  57  88 121 154 196 244 294 351
#     4  11  26  46  64  88 124 160 195 252 320 368
#
# _framework density 18.010248000000001
#
# number of rings (size 3 to 8) (size 9 to 14) (size 15 to 20)
#    0.000    1.714    4.286    0.857    0.000    4.286 
#    0.000    1.429    0.000    0.857    0.000    2.000 
#    0.000    0.000    0.000    0.000    0.000    0.000 
#
# Total GULP energy -312273.464443 kJ/mol
# GULP energy per Si atom -5576.311865 kJ/mol
# Density = 1.796926 g / cm^3
# Si number density = 18.010248 Si / 1000 Ang^3
#
#
#
# Elastic Constant Matrix: (Units=GPa)
#
#
# Indices 1 2 3 4 5 6 
#
# 1 101.8851 47.3633 59.1706 0.0000 0.0000 0.0000
# 2 47.3633 101.8864 59.1712 0.0000 0.0000 0.0000
# 3 59.1706 59.1712 125.2461 0.0000 0.0000 0.0000
# 4 0.0000 0.0000 0.0000 21.4350 0.0000 0.0000
# 5 0.0000 0.0000 0.0000 0.0000 21.4349 0.0000
# 6 0.0000 0.0000 0.0000 0.0000 0.0000 32.9928
#
#
#
# Elastic Compliance Matrix: (Units=1/GPa)
#
#
# Indices 1 2 3 4 5 6 
#
# 1 0.014527 -0.003814 -0.005061 0.000000 0.000000 0.000000
# 2 -0.003814 0.014527 -0.005061 0.000000 0.000000 0.000000
# 3 -0.005061 -0.005061 0.012767 0.000000 0.000000 0.000000
# 4 0.000000 0.000000 0.000000 0.046653 0.000000 0.000000
# 5 0.000000 0.000000 0.000000 0.000000 0.046653 0.000000
# 6 0.000000 0.000000 0.000000 0.000000 0.000000 0.030310
#
#
# Mechanical properties :
#
#
# Convention : Reuss Voigt Hill
#
# Bulk Modulus (GPa) = 71.69533 73.38087 72.53810
# Shear Modulus (GPa) = 25.25770 26.06002 25.65886
#
# Velocity S-wave (km/s) = 3.74894 3.80801 3.77859
# Velocity P-wave (km/s) = 7.65727 7.75674 7.70717
#
# Compressibility (1/GPa) = 0.01394791
#
# Stress axis : x y z
#
# Youngs Moduli (GPa) = 68.83558 68.83626 78.32867
#
# Poissons Ratio (x) = 0.26253 0.39646
# Poissons Ratio (y) = 0.26252 0.39646
# Poissons Ratio (z) = 0.34841 0.34841
#
# Static dielectric constant tensor:
#      x y z
#    x 1.625950 0.000000 0.000000 
#    y 0.000000 1.625950 0.000000 
#    z 0.000000 0.000000 1.609490 
# 
# From -- ./inp_files/3634.got.cif
#   From: 2010.05.17/outbox.cif.g08.bks.cpg/sg131_2_cif.got.tgz:3634.got - 2010.05.20 12:21:01.
