data_PCOD9566261
_publ_section_title
;
Structure prediction by ZEFSAII (Michael W. Deem and Ramdas Pophale) SiO2 
 PCOD9566261
Probable space group: P 42/M M C
;
_chemical_formula_sum "Si O2"
_cell_formula_units_Z 88
_cell_length_a 16.134820
_cell_length_b 16.134820
_cell_length_c 22.260436
_cell_angle_alpha 90.000000
_cell_angle_beta 90.000000
_cell_angle_gamma 90.000000
_cell_volume 5795.113095
_symmetry_space_group_name_H-M "P 42/M M C"
_symmetry_group_IT_number 131
_symmetry_cell_setting 'tetragonal'
loop_
_space_group_symop_operation_xyz
x,y,z
-x,-y,z
-y,x,1/2+z
y,-x,1/2+z
-x,y,-z
x,-y,-z
y,x,1/2-z
-y,-x,1/2-z
-x,-y,-z
x,y,-z
y,-x,1/2-z
-y,x,1/2-z
x,-y,z
-x,y,z
-y,-x,1/2+z
y,x,1/2+z
loop_
_atom_site_type_symbol
_atom_site_label
_atom_site_fract_x
_atom_site_fract_y
_atom_site_fract_z
Si Si1 0.171032 0.598861 0.865489
Si Si2 0.000000 0.600776 0.929325
Si Si3 0.000000 0.600302 0.430659
Si Si4 0.598083 0.500000 0.569657
Si Si5 0.665922 0.669997 0.567847
Si Si6 0.738556 0.597544 0.743094
Si Si7 0.401807 0.178401 0.886989
O O1 0.175971 0.500000 0.875938
O O2 0.082884 0.626417 0.892941
O O3 0.246944 0.641334 0.899561
O O4 0.193353 0.612219 0.795612
O O5 0.000000 0.500000 0.929878
O O6 0.000000 0.626610 0.000000
O O7 0.083703 0.623474 0.396202
O O8 0.000000 0.500000 0.432770
O O9 0.000000 0.629061 0.500000
O O10 0.500000 0.500000 0.568636
O O11 0.629231 0.500000 0.500000
O O12 0.628121 0.586213 0.597372
O O13 0.633869 0.674936 0.500000
O O14 0.763004 0.651792 0.570333
O O15 0.661996 0.661996 0.750000
O O16 0.712314 0.500000 0.747545
O O17 0.784994 0.608886 0.679666
O O18 0.500000 0.186049 0.902449
#
# Coordination Sequence:
#
# PCOD9566261 Si02
#       7
#    16   8   8   8  16  16  16
#     4  10  20  33  49  68  94 129 169 210 252 296
#     4   9  18  33  51  71  95 123 161 212 263 305
#     4   9  18  31  49  71  95 123 159 204 257 313
#     4   9  18  28  38  59  91 125 165 206 240 283
#     4  11  19  28  45  66  93 128 164 205 252 295
#     4  10  20  34  49  68  97 136 178 214 247 285
#     4  10  19  32  48  67  94 128 166 206 250 297
#
# _framework density 15.185207999999999
#
# number of rings (size 3 to 8) (size 9 to 14) (size 15 to 20)
#    0.000    2.091    2.727    1.636    0.000    3.455 
#    0.000    3.636    0.000    0.000    0.000    0.000 
#    0.000    0.727    0.000    5.273    0.000    0.364 
#
# Total GULP energy -490231.747129 kJ/mol
# GULP energy per Si atom -5570.815308 kJ/mol
# Density = 1.515065 g / cm^3
# Si number density = 15.185208 Si / 1000 Ang^3
#
#
#
# Elastic Constant Matrix: (Units=GPa)
#
#
# Indices 1 2 3 4 5 6 
#
# 1 87.0263 40.9000 35.2718 0.0000 0.0000 0.0000
# 2 40.9000 87.0263 35.2718 0.0000 0.0000 0.0000
# 3 35.2718 35.2718 82.1761 0.0000 0.0000 0.0000
# 4 0.0000 0.0000 0.0000 18.0538 0.0000 0.0000
# 5 0.0000 0.0000 0.0000 0.0000 18.0538 0.0000
# 6 0.0000 0.0000 0.0000 0.0000 0.0000 7.3264
#
#
#
# Elastic Compliance Matrix: (Units=1/GPa)
#
#
# Indices 1 2 3 4 5 6 
#
# 1 0.015960 -0.005719 -0.004396 0.000000 0.000000 0.000000
# 2 -0.005719 0.015960 -0.004396 0.000000 0.000000 0.000000
# 3 -0.004396 -0.004396 0.015942 0.000000 0.000000 0.000000
# 4 0.000000 0.000000 0.000000 0.055390 0.000000 0.000000
# 5 0.000000 0.000000 0.000000 0.000000 0.055390 0.000000
# 6 0.000000 0.000000 0.000000 0.000000 0.000000 0.136492
#
#
# Mechanical properties :
#
#
# Convention : Reuss Voigt Hill
#
# Bulk Modulus (GPa) = 53.07373 53.23511 53.15442
# Shear Modulus (GPa) = 15.13147 18.33914 16.73531
#
# Velocity S-wave (km/s) = 3.16010 3.47896 3.32336
# Velocity P-wave (km/s) = 6.95283 7.16037 7.05736
#
# Compressibility (1/GPa) = 0.01884171
#
# Stress axis : x y z
#
# Youngs Moduli (GPa) = 62.65553 62.65553 62.72580
#
# Poissons Ratio (x) = 0.35835 0.27572
# Poissons Ratio (y) = 0.35835 0.27572
# Poissons Ratio (z) = 0.27541 0.27541
#
# Static dielectric constant tensor:
#      x y z
#    x 1.497800 0.000000 0.000000 
#    y 0.000000 1.497800 0.000000 
#    z 0.000000 0.000000 1.550280 
# 
# From -- ./inp_files/11097.got.cif
#   From: 2010.05.17/outbox.cif.g08.bks.cpg/sg131_6_cif.got.tgz:11097.got - 2010.05.20 12:21:01.
