data_PCOD9566885
_publ_section_title
;
Structure prediction by ZEFSAII (Michael W. Deem and Ramdas Pophale) SiO2 
 PCOD9566885
Probable space group: P 42/M M C
;
_chemical_formula_sum "Si O2"
_cell_formula_units_Z 34
_cell_length_a 7.317539
_cell_length_b 7.317539
_cell_length_c 33.080915
_cell_angle_alpha 90.000000
_cell_angle_beta 90.000000
_cell_angle_gamma 90.000000
_cell_volume 1771.363147
_symmetry_space_group_name_H-M "P 42/M M C"
_symmetry_group_IT_number 131
_symmetry_cell_setting 'tetragonal'
loop_
_space_group_symop_operation_xyz
x,y,z
-x,-y,z
-y,x,1/2+z
y,-x,1/2+z
-x,y,-z
x,-y,-z
y,x,1/2-z
-y,-x,1/2-z
-x,-y,-z
x,y,-z
y,-x,1/2-z
-y,x,1/2-z
x,-y,z
-x,y,z
-y,-x,1/2+z
y,x,1/2+z
loop_
_atom_site_type_symbol
_atom_site_label
_atom_site_fract_x
_atom_site_fract_y
_atom_site_fract_z
Si Si1 0.222005 0.207825 0.111554
Si Si2 0.219435 0.500000 0.821247
Si Si3 0.500000 0.500000 0.250000
Si Si4 0.222860 0.500000 0.046160
O O1 0.270470 0.324940 0.151156
O O2 0.279223 0.323572 0.072280
O O3 0.000000 0.205083 0.110767
O O4 0.285770 0.000000 0.112046
O O5 0.326096 0.500000 0.779547
O O6 0.000000 0.500000 0.815900
O O7 0.000000 0.500000 0.045657
O O8 0.284355 0.500000 0.000000
#
# Coordination Sequence:
#
# PCOD9566885 Si02
#       4
#    16   8   2   8
#     4   8  14  27  46  65  93 135 171 202 248 299
#     4   9  20  36  50  71 100 124 157 204 248 300
#     4  12  24  36  56  80  98 124 160 204 260 308
#     4   8  13  20  34  65 105 137 172 216 250 284
#
# _framework density 19.19426
#
# number of rings (size 3 to 8) (size 9 to 14) (size 15 to 20)
#    0.000    3.529    0.000    2.824    0.000    2.824 
#    0.000    4.706    0.000    0.000    0.000   13.176 
#    0.000   15.059    0.000    1.882    0.000    0.000 
#
# Total GULP energy -189665.744775 kJ/mol
# GULP energy per Si atom -5578.404258 kJ/mol
# Density = 1.915057 g / cm^3
# Si number density = 19.194260 Si / 1000 Ang^3
#
#
#
# Elastic Constant Matrix: (Units=GPa)
#
#
# Indices 1 2 3 4 5 6 
#
# 1 140.3261 31.7792 76.9129 0.0000 0.0000 0.0000
# 2 31.7792 140.3261 76.9129 0.0000 0.0000 0.0000
# 3 76.9129 76.9129 207.1210 0.0000 0.0000 0.0000
# 4 0.0000 0.0000 0.0000 15.3297 0.0000 0.0000
# 5 0.0000 0.0000 0.0000 0.0000 15.3297 0.0000
# 6 0.0000 0.0000 0.0000 0.0000 0.0000 -8.2870
#
#
#
# Elastic Compliance Matrix: (Units=1/GPa)
#
#
# Indices 1 2 3 4 5 6 
#
# 1 0.008955 -0.000258 -0.003230 0.000000 0.000000 0.000000
# 2 -0.000258 0.008955 -0.003230 0.000000 0.000000 0.000000
# 3 -0.003230 -0.003230 0.007227 0.000000 0.000000 0.000000
# 4 0.000000 0.000000 0.000000 0.065233 0.000000 0.000000
# 5 0.000000 0.000000 0.000000 0.000000 0.065233 0.000000
# 6 0.000000 0.000000 0.000000 0.000000 0.000000 -0.120670
#
#
# Mechanical properties :
#
#
# Convention : Reuss Voigt Hill
#
# Bulk Modulus (GPa) = 85.45321 95.44260 90.44791
# Shear Modulus (GPa) = 95.66399 24.61900 60.14149
#
# Velocity S-wave (km/s) = 7.06740 3.58526 5.60367
# Velocity P-wave (km/s) = 10.54582 8.18360 9.43890
#
# Compressibility (1/GPa) = 0.01170231
#
# Stress axis : x y z
#
# Youngs Moduli (GPa) = 111.67238 111.67238 138.37703
#
# Poissons Ratio (x) = 0.02879 0.44689
# Poissons Ratio (y) = 0.02879 0.44689
# Poissons Ratio (z) = 0.36065 0.36065
#
# Static dielectric constant tensor:
#      x y z
#    x 1.700540 0.000000 0.000000 
#    y 0.000000 1.700540 0.000000 
#    z 0.000000 0.000000 1.613830 
# 
# From -- ./inp_files/11634.got.cif
#   From: 2010.05.17/outbox.cif.g08.bks.cpg/sg131_6_cif.got.tgz:11634.got - 2010.05.20 12:21:01.
