data_PCOD9566373
_publ_section_title
;
Structure prediction by ZEFSAII (Michael W. Deem and Ramdas Pophale) SiO2 
 PCOD9566373
Probable space group: P 42/M M C
;
_chemical_formula_sum "Si O2"
_cell_formula_units_Z 72
_cell_length_a 21.435393
_cell_length_b 21.435393
_cell_length_c 7.932873
_cell_angle_alpha 90.000000
_cell_angle_beta 90.000000
_cell_angle_gamma 90.000000
_cell_volume 3644.965334
_symmetry_space_group_name_H-M "P 42/M M C"
_symmetry_group_IT_number 131
_symmetry_cell_setting 'tetragonal'
loop_
_space_group_symop_operation_xyz
x,y,z
-x,-y,z
-y,x,1/2+z
y,-x,1/2+z
-x,y,-z
x,-y,-z
y,x,1/2-z
-y,-x,1/2-z
-x,-y,-z
x,y,-z
y,-x,1/2-z
-y,x,1/2-z
x,-y,z
-x,y,z
-y,-x,1/2+z
y,x,1/2+z
loop_
_atom_site_type_symbol
_atom_site_label
_atom_site_fract_x
_atom_site_fract_y
_atom_site_fract_z
Si Si1 0.000000 0.426568 0.794374
Si Si2 0.681429 0.094980 0.704025
Si Si3 0.826388 0.069672 0.799144
Si Si4 0.669123 0.766304 0.297222
Si Si5 0.666942 0.430458 0.203237
O O1 0.056245 0.379964 0.742772
O O2 0.000000 0.500000 0.737887
O O3 0.000000 0.429990 0.000000
O O4 0.681288 0.092570 0.500000
O O5 0.752635 0.077232 0.752452
O O6 0.669564 0.164388 0.767441
O O7 0.873416 0.126585 0.750000
O O8 0.845820 0.000000 0.735128
O O9 0.828622 0.068232 0.000000
O O10 0.732943 0.732943 0.250000
O O11 0.664240 0.768523 0.500000
O O12 0.613799 0.722314 0.232670
O O13 0.602782 0.397219 0.250000
O O14 0.671487 0.500000 0.268678
O O15 0.671061 0.431945 0.000000
#
# Coordination Sequence:
#
# PCOD9566373 Si02
#       5
#     8  16  16  16  16
#     4   9  18  32  53  83 114 145 184 229 275 324
#     4  10  19  34  57  82 112 148 187 232 278 328
#     4  11  24  40  60  86 116 152 192 236 287 344
#     4   9  18  31  49  74 100 131 170 214 263 312
#     4   9  18  32  48  68  97 131 168 213 264 318
#
# _framework density 19.753274000000001
#
# number of rings (size 3 to 8) (size 9 to 14) (size 15 to 20)
#    0.000    2.333    1.111    1.333    0.000    5.778 
#    0.000    6.667    0.000    1.333    0.000    3.111 
#    0.000    0.000    0.000    0.000    0.000    0.000 
#
# Total GULP energy -401008.831790 kJ/mol
# GULP energy per Si atom -5569.567108 kJ/mol
# Density = 1.970831 g / cm^3
# Si number density = 19.753274 Si / 1000 Ang^3
#
#
#
# Elastic Constant Matrix: (Units=GPa)
#
#
# Indices 1 2 3 4 5 6 
#
# 1 215.2083 55.8354 8.0478 0.0000 0.0000 0.0000
# 2 55.8354 215.1562 8.0429 0.0000 0.0000 0.0000
# 3 8.0478 8.0429 23.1021 0.0000 0.0000 0.0000
# 4 0.0000 0.0000 0.0000 14.9603 0.0000 0.0000
# 5 0.0000 0.0000 0.0000 0.0000 14.9622 0.0000
# 6 0.0000 0.0000 0.0000 0.0000 0.0000 -11.6805
#
#
#
# Elastic Compliance Matrix: (Units=1/GPa)
#
#
# Indices 1 2 3 4 5 6 
#
# 1 0.005021 -0.001254 -0.001313 0.000000 0.000000 0.000000
# 2 -0.001254 0.005022 -0.001312 0.000000 0.000000 0.000000
# 3 -0.001313 -0.001312 0.044200 0.000000 0.000000 0.000000
# 4 0.000000 0.000000 0.000000 0.066844 0.000000 0.000000
# 5 0.000000 0.000000 0.000000 0.000000 0.066835 0.000000
# 6 0.000000 0.000000 0.000000 0.000000 0.000000 -0.085612
#
#
# Mechanical properties :
#
#
# Convention : Reuss Voigt Hill
#
# Bulk Modulus (GPa) = 21.51143 66.36877 43.94010
# Shear Modulus (GPa) = 39.82110 29.08441 34.45276
#
# Velocity S-wave (km/s) = 4.49477 3.84133 4.18084
# Velocity P-wave (km/s) = 6.15232 7.30385 6.75268
#
# Compressibility (1/GPa) = 0.04648691
#
# Stress axis : x y z
#
# Youngs Moduli (GPa) = 199.16018 199.11455 22.62445
#
# Poissons Ratio (x) = 0.24968 0.02970
# Poissons Ratio (y) = 0.24974 0.02968
# Poissons Ratio (z) = 0.26141 0.26117
#
# Static dielectric constant tensor:
#      x y z
#    x 1.697700 0.000000 0.000000 
#    y 0.000000 1.697690 0.000000 
#    z 0.000000 0.000000 1.710780 
# 
# From -- ./inp_files/1758.got.cif
#   From: 2010.05.17/outbox.cif.g08.bks.cpg/sg131_1_cif.got.tgz:1758.got - 2010.05.20 12:21:01.
