data_PCOD9566597
_publ_section_title
;
Structure prediction by ZEFSAII (Michael W. Deem and Ramdas Pophale) SiO2 
 PCOD9566597
Probable space group: P 42/M M C
;
_chemical_formula_sum "Si O2"
_cell_formula_units_Z 52
_cell_length_a 19.747019
_cell_length_b 19.747019
_cell_length_c 7.784996
_cell_angle_alpha 90.000000
_cell_angle_beta 90.000000
_cell_angle_gamma 90.000000
_cell_volume 3035.718392
_symmetry_space_group_name_H-M "P 42/M M C"
_symmetry_group_IT_number 131
_symmetry_cell_setting 'tetragonal'
loop_
_space_group_symop_operation_xyz
x,y,z
-x,-y,z
-y,x,1/2+z
y,-x,1/2+z
-x,y,-z
x,-y,-z
y,x,1/2-z
-y,-x,1/2-z
-x,-y,-z
x,y,-z
y,-x,1/2-z
-y,x,1/2-z
x,-y,z
-x,y,z
-y,-x,1/2+z
y,x,1/2+z
loop_
_atom_site_type_symbol
_atom_site_label
_atom_site_fract_x
_atom_site_fract_y
_atom_site_fract_z
Si Si1 0.146327 0.576721 0.500000
Si Si2 0.919379 0.340282 0.195384
Si Si3 0.077178 0.811867 0.294951
Si Si4 0.388599 0.500000 0.796206
Si Si5 0.500000 0.278705 0.000000
O O1 0.117208 0.500000 0.500000
O O2 0.121464 0.616908 0.333664
O O3 0.226932 0.563484 0.500000
O O4 0.903901 0.260413 0.214104
O O5 0.000000 0.347034 0.230427
O O6 0.906399 0.361941 0.000000
O O7 0.129326 0.870675 0.250000
O O8 0.077034 0.802391 0.500000
O O9 0.000000 0.828531 0.240781
O O10 0.435223 0.435223 0.750000
O O11 0.324830 0.500000 0.669342
O O12 0.373525 0.500000 0.000000
#
# Coordination Sequence:
#
# PCOD9566597 Si02
#       5
#     8  16  16   8   4
#     4  10  23  40  59  82 131 149 195 242 299 332
#     4  10  20  37  62  86 111 154 204 246 297 358
#     4  10  20  35  57  83 116 155 199 254 305 359
#     4  11  19  37  70  95 118 150 197 236 283 344
#     4  10  24  39  57  96 124 160 182 242 294 332
#
# _framework density 17.129389
#
# number of rings (size 3 to 8) (size 9 to 14) (size 15 to 20)
#    0.462    1.385    3.077    1.846    0.000    5.231 
#    0.000    4.615    0.000    0.000    0.000    0.000 
#    0.000    0.000    0.000    0.000    0.000    0.000 
#
# Total GULP energy -290058.755399 kJ/mol
# GULP energy per Si atom -5578.052988 kJ/mol
# Density = 1.709040 g / cm^3
# Si number density = 17.129389 Si / 1000 Ang^3
#
#
#
# Elastic Constant Matrix: (Units=GPa)
#
#
# Indices 1 2 3 4 5 6 
#
# 1 106.0582 75.1395 67.7270 0.0000 0.0000 0.0000
# 2 75.1395 106.0545 67.7249 0.0000 0.0000 0.0000
# 3 67.7270 67.7249 144.6304 0.0000 0.0000 0.0000
# 4 0.0000 0.0000 0.0000 19.6171 0.0000 0.0000
# 5 0.0000 0.0000 0.0000 0.0000 19.6079 0.0000
# 6 0.0000 0.0000 0.0000 0.0000 0.0000 52.8276
#
#
#
# Elastic Compliance Matrix: (Units=1/GPa)
#
#
# Indices 1 2 3 4 5 6 
#
# 1 0.020418 -0.011927 -0.003976 0.000000 0.000000 0.000000
# 2 -0.011927 0.020418 -0.003976 0.000000 0.000000 0.000000
# 3 -0.003976 -0.003976 0.010638 0.000000 0.000000 0.000000
# 4 0.000000 0.000000 0.000000 0.050976 0.000000 0.000000
# 5 0.000000 0.000000 0.000000 0.000000 0.051000 0.000000
# 6 0.000000 0.000000 0.000000 0.000000 0.000000 0.018930
#
#
# Mechanical properties :
#
#
# Convention : Reuss Voigt Hill
#
# Bulk Modulus (GPa) = 85.35495 86.43623 85.89559
# Shear Modulus (GPa) = 23.14353 28.15396 25.64875
#
# Velocity S-wave (km/s) = 3.67972 4.05854 3.87376
# Velocity P-wave (km/s) = 8.24570 8.51661 8.38225
#
# Compressibility (1/GPa) = 0.01171578
#
# Stress axis : x y z
#
# Youngs Moduli (GPa) = 48.97682 48.97567 94.00229
#
# Poissons Ratio (x) = 0.58412 0.37378
# Poissons Ratio (y) = 0.58414 0.37376
# Poissons Ratio (z) = 0.19475 0.19473
#
# Static dielectric constant tensor:
#      x y z
#    x 1.565370 0.000000 0.000000 
#    y 0.000000 1.565380 0.000000 
#    z 0.000000 0.000000 1.585460 
# 
# From -- ./inp_files/1158.got.cif
#   From: 2010.05.17/outbox.cif.g08.bks.cpg/sg131_1_cif.got.tgz:1158.got - 2010.05.20 12:21:01.
