data_PCOD9566757
_publ_section_title
;
Structure prediction by ZEFSAII (Michael W. Deem and Ramdas Pophale) SiO2 
 PCOD9566757
Probable space group: P 42/M M C
;
_chemical_formula_sum "Si O2"
_cell_formula_units_Z 34
_cell_length_a 14.282573
_cell_length_b 14.282573
_cell_length_c 8.887329
_cell_angle_alpha 90.000000
_cell_angle_beta 90.000000
_cell_angle_gamma 90.000000
_cell_volume 1812.943053
_symmetry_space_group_name_H-M "P 42/M M C"
_symmetry_group_IT_number 131
_symmetry_cell_setting 'tetragonal'
loop_
_space_group_symop_operation_xyz
x,y,z
-x,-y,z
-y,x,1/2+z
y,-x,1/2+z
-x,y,-z
x,-y,-z
y,x,1/2-z
-y,-x,1/2-z
-x,-y,-z
x,y,-z
y,-x,1/2-z
-y,x,1/2-z
x,-y,z
-x,y,z
-y,-x,1/2+z
y,x,1/2+z
loop_
_atom_site_type_symbol
_atom_site_label
_atom_site_fract_x
_atom_site_fract_y
_atom_site_fract_z
Si Si1 0.803106 0.000000 0.666210
Si Si2 0.887466 0.500000 0.824107
Si Si3 0.000000 0.000000 0.000000
Si Si4 0.830668 0.304143 0.680073
O O1 0.765160 0.088496 0.757760
O O2 0.912575 0.000000 0.624498
O O3 0.755066 0.000000 0.500000
O O4 0.852226 0.407107 0.740955
O O5 0.000000 0.500000 0.817062
O O6 0.859990 0.500000 0.000000
O O7 0.735303 0.264698 0.750000
O O8 0.829864 0.300656 0.500000
#
# Coordination Sequence:
#
# PCOD9566757 Si02
#       4
#     8   8   2  16
#     4  10  21  43  61  90 127 184 233 285 335 410
#     4  11  23  43  71 102 134 177 236 304 360 422
#     4   8  24  40  64  78 134 174 238 276 338 394
#     4  12  25  42  68  97 135 180 233 290 355 423
#
# _framework density 18.754037
#
# number of rings (size 3 to 8) (size 9 to 14) (size 15 to 20)
#    0.706    0.235    2.353    5.647    0.000    2.824 
#    0.000    4.706    0.000    0.706    0.000    4.941 
#    0.000    0.000    0.000    0.000    0.000    0.000 
#
# Total GULP energy -189468.649259 kJ/mol
# GULP energy per Si atom -5572.607331 kJ/mol
# Density = 1.871135 g / cm^3
# Si number density = 18.754037 Si / 1000 Ang^3
#
#
#
# Elastic Constant Matrix: (Units=GPa)
#
#
# Indices 1 2 3 4 5 6 
#
# 1 148.7362 64.4938 79.8085 0.0000 0.0000 0.0000
# 2 64.4938 148.7316 79.8079 0.0000 0.0000 0.0000
# 3 79.8085 79.8079 241.3882 0.0000 0.0000 0.0000
# 4 0.0000 0.0000 0.0000 27.2607 0.0000 0.0000
# 5 0.0000 0.0000 0.0000 0.0000 27.2631 0.0000
# 6 0.0000 0.0000 0.0000 0.0000 0.0000 6.9451
#
#
#
# Elastic Compliance Matrix: (Units=1/GPa)
#
#
# Indices 1 2 3 4 5 6 
#
# 1 0.009051 -0.002819 -0.002060 0.000000 0.000000 0.000000
# 2 -0.002819 0.009052 -0.002061 0.000000 0.000000 0.000000
# 3 -0.002060 -0.002061 0.005505 0.000000 0.000000 0.000000
# 4 0.000000 0.000000 0.000000 0.036683 0.000000 0.000000
# 5 0.000000 0.000000 0.000000 0.000000 0.036680 0.000000
# 6 0.000000 0.000000 0.000000 0.000000 0.000000 0.143986
#
#
# Mechanical properties :
#
#
# Convention : Reuss Voigt Hill
#
# Bulk Modulus (GPa) = 102.79963 109.67515 106.23739
# Shear Modulus (GPa) = 19.37381 33.27682 26.32532
#
# Velocity S-wave (km/s) = 3.21759 4.21691 3.75068
# Velocity P-wave (km/s) = 8.29081 9.07290 8.69066
#
# Compressibility (1/GPa) = 0.00972766
#
# Stress axis : x y z
#
# Youngs Moduli (GPa) = 110.48017 110.47634 181.64593
#
# Poissons Ratio (x) = 0.31146 0.37428
# Poissons Ratio (y) = 0.31147 0.37429
# Poissons Ratio (z) = 0.22764 0.22764
#
# Static dielectric constant tensor:
#      x y z
#    x 1.680960 0.000000 0.000000 
#    y 0.000000 1.680960 0.000000 
#    z 0.000000 0.000000 1.665850 
# 
# From -- ./inp_files/552.got.cif
#   From: 2010.05.17/outbox.cif.g08.bks.cpg/sg131_1_cif.got.tgz:552.got - 2010.05.20 12:21:01.
