data_PCOD9566864
_publ_section_title
;
Structure prediction by ZEFSAII (Michael W. Deem and Ramdas Pophale) SiO2 
 PCOD9566864
Probable space group: P 42/M M C
;
_chemical_formula_sum "Si O2"
_cell_formula_units_Z 48
_cell_length_a 8.039170
_cell_length_b 8.039170
_cell_length_c 38.114938
_cell_angle_alpha 90.000000
_cell_angle_beta 90.000000
_cell_angle_gamma 90.000000
_cell_volume 2463.301905
_symmetry_space_group_name_H-M "P 42/M M C"
_symmetry_group_IT_number 131
_symmetry_cell_setting 'tetragonal'
loop_
_space_group_symop_operation_xyz
x,y,z
-x,-y,z
-y,x,1/2+z
y,-x,1/2+z
-x,y,-z
x,-y,-z
y,x,1/2-z
-y,-x,1/2-z
-x,-y,-z
x,y,-z
y,-x,1/2-z
-y,x,1/2-z
x,-y,z
-x,y,z
-y,-x,1/2+z
y,x,1/2+z
loop_
_atom_site_type_symbol
_atom_site_label
_atom_site_fract_x
_atom_site_fract_y
_atom_site_fract_z
Si Si1 0.697647 0.000000 0.413304
Si Si2 0.197985 0.314566 0.287351
Si Si3 0.300199 0.000000 0.333634
Si Si4 0.687075 0.799423 0.040192
O O1 0.764210 0.000000 0.373565
O O2 0.748027 0.834869 0.434390
O O3 0.500000 0.000000 0.410906
O O4 0.284816 0.284816 0.250000
O O5 0.239850 0.500000 0.300698
O O6 0.243482 0.165458 0.313318
O O7 0.000000 0.308106 0.281077
O O8 0.500000 0.000000 0.333651
O O9 0.500000 0.743419 0.050329
O O10 0.684528 0.000000 0.039580
O O11 0.718334 0.743239 0.000000
#
# Coordination Sequence:
#
# PCOD9566864 Si02
#       4
#     8  16   8  16
#     4  11  24  38  55  84 124 160 196 248 303 359
#     4  11  23  40  64  91 118 150 194 249 303 360
#     4  11  25  42  58  85 122 162 204 243 298 370
#     4   9  19  37  61  87 115 153 203 253 301 361
#
# _framework density 19.486038000000001
#
# number of rings (size 3 to 8) (size 9 to 14) (size 15 to 20)
#    0.000    1.667    1.667    3.500    0.000    9.667 
#    0.000    8.333    0.000    0.000    0.000    0.000 
#    0.000    0.000    0.000    0.000    0.000    0.000 
#
# Total GULP energy -268129.436200 kJ/mol
# GULP energy per Si atom -5586.029921 kJ/mol
# Density = 1.944169 g / cm^3
# Si number density = 19.486038 Si / 1000 Ang^3
#
#
#
# Elastic Constant Matrix: (Units=GPa)
#
#
# Indices 1 2 3 4 5 6 
#
# 1 118.2930 50.5561 69.1981 0.0000 0.0000 0.0000
# 2 50.5561 118.2930 69.1981 0.0000 0.0000 0.0000
# 3 69.1981 69.1981 140.5919 0.0000 0.0000 0.0000
# 4 0.0000 0.0000 0.0000 19.1879 0.0000 0.0000
# 5 0.0000 0.0000 0.0000 0.0000 19.1879 0.0000
# 6 0.0000 0.0000 0.0000 0.0000 0.0000 -352.1312
#
#
#
# Elastic Compliance Matrix: (Units=1/GPa)
#
#
# Indices 1 2 3 4 5 6 
#
# 1 0.012345 -0.002418 -0.004886 0.000000 0.000000 0.000000
# 2 -0.002418 0.012345 -0.004886 0.000000 0.000000 0.000000
# 3 -0.004886 -0.004886 0.011923 0.000000 0.000000 0.000000
# 4 0.000000 0.000000 0.000000 0.052116 0.000000 0.000000
# 5 0.000000 0.000000 0.000000 0.000000 0.052116 0.000000
# 6 0.000000 0.000000 0.000000 0.000000 0.000000 -0.002840
#
#
# Mechanical properties :
#
#
# Convention : Reuss Voigt Hill
#
# Bulk Modulus (GPa) = 81.74799 83.89807 82.82303
# Shear Modulus (GPa) = 30.03663 -50.20270 -10.08304
#
# Velocity S-wave (km/s) = 3.93038 -5.08127 -2.27722
# Velocity P-wave (km/s) = 7.91457 2.95350 5.97342
#
# Compressibility (1/GPa) = 0.01223272
#
# Stress axis : x y z
#
# Youngs Moduli (GPa) = 81.00330 81.00330 83.87402
#
# Poissons Ratio (x) = 0.19585 0.40982
# Poissons Ratio (y) = 0.19585 0.40982
# Poissons Ratio (z) = 0.39580 0.39580
#
# Static dielectric constant tensor:
#      x y z
#    x 1.689740 0.000000 0.000000 
#    y 0.000000 1.689740 0.000000 
#    z 0.000000 0.000000 1.668110 
# 
# From -- ./inp_files/12945.got.cif
#   From: 2010.05.17/outbox.cif.g08.bks.cpg/sg131_7_cif.got.tgz:12945.got - 2010.05.20 12:21:01.
