data_PCOD9566436
_publ_section_title
;
Structure prediction by ZEFSAII (Michael W. Deem and Ramdas Pophale) SiO2 
 PCOD9566436
Probable space group: P 42/M M C
;
_chemical_formula_sum "Si O2"
_cell_formula_units_Z 96
_cell_length_a 23.798376
_cell_length_b 23.798376
_cell_length_c 8.751449
_cell_angle_alpha 90.000000
_cell_angle_beta 90.000000
_cell_angle_gamma 90.000000
_cell_volume 4956.494287
_symmetry_space_group_name_H-M "P 42/M M C"
_symmetry_group_IT_number 131
_symmetry_cell_setting 'tetragonal'
loop_
_space_group_symop_operation_xyz
x,y,z
-x,-y,z
-y,x,1/2+z
y,-x,1/2+z
-x,y,-z
x,-y,-z
y,x,1/2-z
-y,-x,1/2-z
-x,-y,-z
x,y,-z
y,-x,1/2-z
-y,x,1/2-z
x,-y,z
-x,y,z
-y,-x,1/2+z
y,x,1/2+z
loop_
_atom_site_type_symbol
_atom_site_label
_atom_site_fract_x
_atom_site_fract_y
_atom_site_fract_z
Si Si1 0.067992 0.268063 0.173713
Si Si2 0.063582 0.606773 0.186208
Si Si3 0.935056 0.848143 0.318251
Si Si4 0.647964 0.731942 0.180534
Si Si5 0.181462 0.562513 0.184622
Si Si6 0.565352 0.641469 0.678783
O O1 0.079758 0.329979 0.237103
O O2 0.085420 0.213573 0.267053
O O3 0.000000 0.266656 0.166861
O O4 0.089504 0.263829 0.000000
O O5 0.115472 0.567282 0.225367
O O6 0.000000 0.592612 0.237492
O O7 0.061189 0.608935 0.000000
O O8 0.895783 0.895783 0.250000
O O9 0.934324 0.851441 0.500000
O O10 0.000000 0.854860 0.266298
O O11 0.705861 0.705861 0.250000
O O12 0.617040 0.786639 0.249800
O O13 0.601328 0.685180 0.223701
O O14 0.654699 0.737852 0.000000
O O15 0.202280 0.500000 0.232582
O O16 0.186964 0.564847 0.000000
O O17 0.581603 0.581603 0.750000
O O18 0.581558 0.645393 0.500000
O O19 0.500000 0.653090 0.689697
#
# Coordination Sequence:
#
# PCOD9566436 Si02
#       6
#    16  16  16  16  16  16
#     4   8  14  28  50  71  93 125 166 210 254 303
#     4   8  15  30  54  83 112 144 182 222 266 317
#     4  10  20  32  47  69  97 130 171 219 273 335
#     4  11  22  37  57  77 101 136 180 227 272 319
#     4  10  20  34  55  85 120 153 185 224 269 321
#     4  10  20  33  50  72  98 129 166 208 255 307
#
# _framework density 19.368527
#
# number of rings (size 3 to 8) (size 9 to 14) (size 15 to 20)
#    0.000    2.500    0.000    5.000    0.000    5.333 
#    0.000    5.000    0.000    1.500    0.000    1.167 
#    0.000    0.000    0.000    0.000    0.000    0.000 
#
# Total GULP energy -534792.697339 kJ/mol
# GULP energy per Si atom -5570.757264 kJ/mol
# Density = 1.932444 g / cm^3
# Si number density = 19.368527 Si / 1000 Ang^3
#
#
#
# Elastic Constant Matrix: (Units=GPa)
#
#
# Indices 1 2 3 4 5 6 
#
# 1 82.0636 40.6896 23.0272 0.0000 0.0000 0.0000
# 2 40.6896 82.0636 23.0272 0.0000 0.0000 0.0000
# 3 23.0272 23.0272 49.5111 0.0000 0.0000 0.0000
# 4 0.0000 0.0000 0.0000 14.6271 0.0000 0.0000
# 5 0.0000 0.0000 0.0000 0.0000 14.6271 0.0000
# 6 0.0000 0.0000 0.0000 0.0000 0.0000 27.4251
#
#
#
# Elastic Compliance Matrix: (Units=1/GPa)
#
#
# Indices 1 2 3 4 5 6 
#
# 1 0.017019 -0.007151 -0.004590 0.000000 0.000000 0.000000
# 2 -0.007151 0.017019 -0.004590 0.000000 0.000000 0.000000
# 3 -0.004590 -0.004590 0.024467 0.000000 0.000000 0.000000
# 4 0.000000 0.000000 0.000000 0.068366 0.000000 0.000000
# 5 0.000000 0.000000 0.000000 0.000000 0.068366 0.000000
# 6 0.000000 0.000000 0.000000 0.000000 0.000000 0.036463
#
#
# Mechanical properties :
#
#
# Convention : Reuss Voigt Hill
#
# Bulk Modulus (GPa) = 38.69263 43.01403 40.85333
# Shear Modulus (GPa) = 18.31663 19.79545 19.05604
#
# Velocity S-wave (km/s) = 3.07854 3.20041 3.14007
# Velocity P-wave (km/s) = 5.71463 5.99277 5.85535
#
# Compressibility (1/GPa) = 0.02584472
#
# Stress axis : x y z
#
# Youngs Moduli (GPa) = 58.75751 58.75751 40.87176
#
# Poissons Ratio (x) = 0.42016 0.18759
# Poissons Ratio (y) = 0.42016 0.18759
# Poissons Ratio (z) = 0.26968 0.26968
#
# Static dielectric constant tensor:
#      x y z
#    x 1.719420 0.000000 0.000000 
#    y 0.000000 1.719420 0.000000 
#    z 0.000000 0.000000 1.669460 
# 
# From -- ./inp_files/2286.got.cif
#   From: 2010.05.17/outbox.cif.g08.bks.cpg/sg131_2_cif.got.tgz:2286.got - 2010.05.20 12:21:01.
