data_PCOD9566995
_publ_section_title
;
Structure prediction by ZEFSAII (Michael W. Deem and Ramdas Pophale) SiO2 
 PCOD9566995
Probable space group: P 42/M C M
;
_chemical_formula_sum "Si O2"
_cell_formula_units_Z 64
_cell_length_a 20.557667
_cell_length_b 20.557667
_cell_length_c 7.915402
_cell_angle_alpha 90.000000
_cell_angle_beta 90.000000
_cell_angle_gamma 90.000000
_cell_volume 3345.188770
_symmetry_space_group_name_H-M "P 42/M C M"
_symmetry_group_IT_number 132
_symmetry_cell_setting 'tetragonal'
loop_
_space_group_symop_operation_xyz
x,y,z
-y,x,1/2+z
-x,-y,z
y,-x,1/2+z
x,-y,1/2-z
-x,y,1/2-z
y,x,-z
-y,-x,-z
-x,-y,-z
y,-x,1/2-z
x,y,-z
-y,x,1/2-z
-x,y,1/2+z
x,-y,1/2+z
-y,-x,z
y,x,z
loop_
_atom_site_type_symbol
_atom_site_label
_atom_site_fract_x
_atom_site_fract_y
_atom_site_fract_z
Si Si1 0.679382 0.216098 0.792829
Si Si2 0.676614 0.574816 0.297154
Si Si3 0.680370 0.071699 0.191207
Si Si4 0.827012 0.931840 0.201504
O O1 0.746320 0.253681 0.741374
O O2 0.620115 0.263137 0.741978
O O3 0.667534 0.142730 0.727757
O O4 0.681662 0.213586 0.000000
O O5 0.681307 0.500000 0.250000
O O6 0.676544 0.578007 0.500000
O O7 0.611135 0.611135 0.235988
O O8 0.758706 0.069268 0.202948
O O9 0.657804 0.000000 0.250000
O O10 0.657534 0.076508 0.000000
O O11 0.871783 0.871783 0.248527
O O12 0.859823 0.000000 0.250000
O O13 0.814837 0.930184 0.000000
#
# Coordination Sequence:
#
# PCOD9566995 Si02
#       4
#    16  16  16  16
#     4   8  15  29  49  70  92 124 163 198 234 280
#     4   9  18  33  52  75 103 132 163 196 229 271
#     4  10  18  29  47  68  90 117 151 192 240 288
#     4  10  20  31  42  58  81 109 143 185 233 284
#
# _framework density 19.131955000000001
#
# number of rings (size 3 to 8) (size 9 to 14) (size 15 to 20)
#    0.000    2.750    0.000    5.250    0.000    4.000 
#    0.000    5.000    0.000    3.750    0.000    5.250 
#    0.000    0.000    0.000    0.000    0.000    0.000 
#
# Total GULP energy -356298.856173 kJ/mol
# GULP energy per Si atom -5567.169628 kJ/mol
# Density = 1.908841 g / cm^3
# Si number density = 19.131955 Si / 1000 Ang^3
#
#
#
# Elastic Constant Matrix: (Units=GPa)
#
#
# Indices 1 2 3 4 5 6 
#
# 1 124.8632 48.1839 4.4310 0.0000 0.0000 0.0000
# 2 48.1839 124.8632 4.4310 0.0000 0.0000 0.0000
# 3 4.4310 4.4310 17.2291 0.0000 0.0000 0.0000
# 4 0.0000 0.0000 0.0000 38.1086 0.0000 0.0000
# 5 0.0000 0.0000 0.0000 0.0000 38.1086 0.0000
# 6 0.0000 0.0000 0.0000 0.0000 0.0000 15.1092
#
#
#
# Elastic Compliance Matrix: (Units=1/GPa)
#
#
# Indices 1 2 3 4 5 6 
#
# 1 0.009449 -0.003593 -0.001506 0.000000 0.000000 0.000000
# 2 -0.003593 0.009449 -0.001506 0.000000 0.000000 0.000000
# 3 -0.001506 -0.001506 0.058816 0.000000 0.000000 0.000000
# 4 0.000000 0.000000 0.000000 0.026241 0.000000 0.000000
# 5 0.000000 0.000000 0.000000 0.000000 0.026241 0.000000
# 6 0.000000 0.000000 0.000000 0.000000 0.000000 0.066185
#
#
# Mechanical properties :
#
#
# Convention : Reuss Voigt Hill
#
# Bulk Modulus (GPa) = 15.50302 42.33861 28.92081
# Shear Modulus (GPa) = 21.63658 32.25927 26.94793
#
# Velocity S-wave (km/s) = 3.36655 4.11073 3.75711
# Velocity P-wave (km/s) = 4.82000 6.68645 5.82842
#
# Compressibility (1/GPa) = 0.06450357
#
# Stress axis : x y z
#
# Youngs Moduli (GPa) = 105.83566 105.83566 17.00220
#
# Poissons Ratio (x) = 0.38024 0.02561
# Poissons Ratio (y) = 0.38024 0.02561
# Poissons Ratio (z) = 0.15939 0.15939
#
# Static dielectric constant tensor:
#      x y z
#    x 1.689710 0.000000 0.000000 
#    y 0.000000 1.689710 0.000000 
#    z 0.000000 0.000000 1.723470 
# 
# From -- ./inp_files/1241.got.cif
#   From: 2010.05.17/outbox.cif.g08.bks.cpg/sg132_1_cif.got.tgz:1241.got - 2010.05.20 12:30:18.
