data_PCOD9566721
_publ_section_title
;
Structure prediction by ZEFSAII (Michael W. Deem and Ramdas Pophale) SiO2 
 PCOD9566721
Probable space group: P 42/M M C
;
_chemical_formula_sum "Si O2"
_cell_formula_units_Z 72
_cell_length_a 20.709096
_cell_length_b 20.709096
_cell_length_c 8.420556
_cell_angle_alpha 90.000000
_cell_angle_beta 90.000000
_cell_angle_gamma 90.000000
_cell_volume 3611.295703
_symmetry_space_group_name_H-M "P 42/M M C"
_symmetry_group_IT_number 131
_symmetry_cell_setting 'tetragonal'
loop_
_space_group_symop_operation_xyz
x,y,z
-x,-y,z
-y,x,1/2+z
y,-x,1/2+z
-x,y,-z
x,-y,-z
y,x,1/2-z
-y,-x,1/2-z
-x,-y,-z
x,y,-z
y,-x,1/2-z
-y,x,1/2-z
x,-y,z
-x,y,z
-y,-x,1/2+z
y,x,1/2+z
loop_
_atom_site_type_symbol
_atom_site_label
_atom_site_fract_x
_atom_site_fract_y
_atom_site_fract_z
Si Si1 0.819935 0.074940 0.690043
Si Si2 0.809441 0.571222 0.814854
Si Si3 0.329936 0.429556 0.316060
Si Si4 0.000000 0.574108 0.693714
Si Si5 0.892331 0.676502 0.687960
O O1 0.874148 0.125853 0.750000
O O2 0.823502 0.074619 0.500000
O O3 0.746871 0.096249 0.737637
O O4 0.829779 0.000000 0.745655
O O5 0.834613 0.500000 0.753457
O O6 0.733376 0.567887 0.790811
O O7 0.827751 0.637876 0.727784
O O8 0.826978 0.575630 0.000000
O O9 0.376105 0.376105 0.250000
O O10 0.311102 0.418347 0.500000
O O11 0.361708 0.500000 0.309335
O O12 0.058998 0.619691 0.743780
O O13 0.000000 0.500000 0.751075
O O14 0.000000 0.571005 0.500000
O O15 0.900759 0.684935 0.500000
#
# Coordination Sequence:
#
# PCOD9566721 Si02
#       5
#    16  16  16   8  16
#     4  11  25  45  69  96 128 163 205 259 317 379
#     4  10  21  37  57  84 121 163 206 253 305 362
#     4  10  21  37  57  81 110 147 193 246 303 363
#     4   9  18  32  55  89 126 165 204 243 291 350
#     4  11  21  37  62  91 127 165 206 253 301 362
#
# _framework density 19.937442999999998
#
# number of rings (size 3 to 8) (size 9 to 14) (size 15 to 20)
#    0.000    1.667    1.111    3.333    0.000    6.222 
#    0.000    6.667    0.000    2.667    0.000    0.000 
#    0.000    0.000    0.000    0.000    0.000    0.000 
#
# Total GULP energy -401145.523063 kJ/mol
# GULP energy per Si atom -5571.465598 kJ/mol
# Density = 1.989206 g / cm^3
# Si number density = 19.937443 Si / 1000 Ang^3
#
#
#
# Elastic Constant Matrix: (Units=GPa)
#
#
# Indices 1 2 3 4 5 6 
#
# 1 123.3494 88.5075 20.1541 0.0000 0.0000 0.0000
# 2 88.5075 123.3491 20.1530 0.0000 0.0000 0.0000
# 3 20.1541 20.1530 46.7615 0.0000 0.0000 0.0000
# 4 0.0000 0.0000 0.0000 23.9690 0.0000 0.0000
# 5 0.0000 0.0000 0.0000 0.0000 23.9692 0.0000
# 6 0.0000 0.0000 0.0000 0.0000 0.0000 32.4885
#
#
#
# Elastic Compliance Matrix: (Units=1/GPa)
#
#
# Indices 1 2 3 4 5 6 
#
# 1 0.016922 -0.011780 -0.002216 0.000000 0.000000 0.000000
# 2 -0.011780 0.016921 -0.002216 0.000000 0.000000 0.000000
# 3 -0.002216 -0.002216 0.023295 0.000000 0.000000 0.000000
# 4 0.000000 0.000000 0.000000 0.041720 0.000000 0.000000
# 5 0.000000 0.000000 0.000000 0.000000 0.041720 0.000000
# 6 0.000000 0.000000 0.000000 0.000000 0.000000 0.030780
#
#
# Mechanical properties :
#
#
# Convention : Reuss Voigt Hill
#
# Bulk Modulus (GPa) = 40.46177 61.23214 50.84695
# Shear Modulus (GPa) = 23.58259 27.06171 25.32215
#
# Velocity S-wave (km/s) = 3.44296 3.68819 3.56768
# Velocity P-wave (km/s) = 6.01196 6.99399 6.52149
#
# Compressibility (1/GPa) = 0.02471469
#
# Stress axis : x y z
#
# Youngs Moduli (GPa) = 59.09629 59.09659 42.92719
#
# Poissons Ratio (x) = 0.69614 0.09514
# Poissons Ratio (y) = 0.69614 0.09511
# Poissons Ratio (z) = 0.13098 0.13094
#
# Static dielectric constant tensor:
#      x y z
#    x 2.159290 0.000000 0.000000 
#    y 0.000000 2.159310 0.000000 
#    z 0.000000 0.000000 1.717400 
# 
# From -- ./inp_files/1807.got.cif
#   From: 2010.05.17/outbox.cif.g08.bks.cpg/sg131_1_cif.got.tgz:1807.got - 2010.05.20 12:21:01.
