data_PCOD9566720
_publ_section_title
;
Structure prediction by ZEFSAII (Michael W. Deem and Ramdas Pophale) SiO2 
 PCOD9566720
Probable space group: P 42/M M C
;
_chemical_formula_sum "Si O2"
_cell_formula_units_Z 96
_cell_length_a 24.725304
_cell_length_b 24.725304
_cell_length_c 8.655779
_cell_angle_alpha 90.000000
_cell_angle_beta 90.000000
_cell_angle_gamma 90.000000
_cell_volume 5291.629628
_symmetry_space_group_name_H-M "P 42/M M C"
_symmetry_group_IT_number 131
_symmetry_cell_setting 'tetragonal'
loop_
_space_group_symop_operation_xyz
x,y,z
-x,-y,z
-y,x,1/2+z
y,-x,1/2+z
-x,y,-z
x,-y,-z
y,x,1/2-z
-y,-x,1/2-z
-x,-y,-z
x,y,-z
y,-x,1/2-z
-y,x,1/2-z
x,-y,z
-x,y,z
-y,-x,1/2+z
y,x,1/2+z
loop_
_atom_site_type_symbol
_atom_site_label
_atom_site_fract_x
_atom_site_fract_y
_atom_site_fract_z
Si Si1 0.938560 0.856921 0.186477
Si Si2 0.231184 0.850846 0.686027
Si Si3 0.270638 0.646510 0.683930
Si Si4 0.151277 0.645147 0.185509
Si Si5 0.937807 0.437238 0.686532
Si Si6 0.356960 0.563308 0.815783
O O1 0.910870 0.910870 0.250000
O O2 0.900217 0.807349 0.236109
O O3 0.000000 0.850576 0.238393
O O4 0.937861 0.858397 0.000000
O O5 0.203516 0.796485 0.750000
O O6 0.230057 0.847742 0.500000
O O7 0.292775 0.860361 0.733781
O O8 0.299252 0.700748 0.750000
O O9 0.268175 0.650717 0.500000
O O10 0.211563 0.635157 0.751740
O O11 0.310131 0.598016 0.735008
O O12 0.106549 0.603503 0.246938
O O13 0.151834 0.642516 0.000000
O O14 0.935725 0.434894 0.500000
O O15 0.927344 0.500000 0.731190
O O16 0.000000 0.424126 0.732835
O O17 0.412622 0.587379 0.750000
O O18 0.351452 0.500000 0.785830
O O19 0.354402 0.572692 0.000000
#
# Coordination Sequence:
#
# PCOD9566720 Si02
#       6
#    16  16  16  16  16  16
#     4   9  18  33  51  71  99 134 171 212 256 302
#     4   9  19  34  52  75 104 138 173 212 260 310
#     4  11  22  37  57  80 111 147 182 224 273 323
#     4  11  22  35  56  85 111 139 178 219 264 324
#     4   9  20  40  61  80 107 142 178 219 269 322
#     4  10  21  37  57  81 110 144 183 227 272 319
#
# _framework density 18.141859
#
# number of rings (size 3 to 8) (size 9 to 14) (size 15 to 20)
#    0.000    2.167    0.000    4.500    0.000    6.667 
#    0.000    4.167    0.000    0.000    0.000    0.000 
#    0.000    0.000    0.000    0.000    0.000    0.000 
#
# Total GULP energy -535856.213874 kJ/mol
# GULP energy per Si atom -5581.835561 kJ/mol
# Density = 1.810057 g / cm^3
# Si number density = 18.141859 Si / 1000 Ang^3
#
#
#
# Elastic Constant Matrix: (Units=GPa)
#
#
# Indices 1 2 3 4 5 6 
#
# 1 152.4623 81.0710 45.7058 0.0000 0.0000 0.0000
# 2 81.0710 152.4898 45.7052 0.0000 0.0000 0.0000
# 3 45.7058 45.7052 50.4029 0.0000 0.0000 0.0000
# 4 0.0000 0.0000 0.0000 23.8000 0.0000 0.0000
# 5 0.0000 0.0000 0.0000 0.0000 23.7999 0.0000
# 6 0.0000 0.0000 0.0000 0.0000 0.0000 26.8081
#
#
#
# Elastic Compliance Matrix: (Units=1/GPa)
#
#
# Indices 1 2 3 4 5 6 
#
# 1 0.010322 -0.003683 -0.006020 0.000000 0.000000 0.000000
# 2 -0.003683 0.010320 -0.006018 0.000000 0.000000 0.000000
# 3 -0.006020 -0.006018 0.030756 0.000000 0.000000 0.000000
# 4 0.000000 0.000000 0.000000 0.042017 0.000000 0.000000
# 5 0.000000 0.000000 0.000000 0.000000 0.042017 0.000000
# 6 0.000000 0.000000 0.000000 0.000000 0.000000 0.037302
#
#
# Mechanical properties :
#
#
# Convention : Reuss Voigt Hill
#
# Bulk Modulus (GPa) = 50.11167 77.81323 63.96245
# Shear Modulus (GPa) = 23.71585 27.07314 25.39449
#
# Velocity S-wave (km/s) = 3.61951 3.86722 3.74541
# Velocity P-wave (km/s) = 6.71936 7.93254 7.35102
#
# Compressibility (1/GPa) = 0.01995543
#
# Stress axis : x y z
#
# Youngs Moduli (GPa) = 96.87604 96.90097 32.51363
#
# Poissons Ratio (x) = 0.35693 0.19574
# Poissons Ratio (y) = 0.35684 0.19566
# Poissons Ratio (z) = 0.58323 0.58313
#
# Static dielectric constant tensor:
#      x y z
#    x 1.610950 0.000000 0.000000 
#    y 0.000000 1.610950 0.000000 
#    z 0.000000 0.000000 1.615860 
# 
# From -- ./inp_files/2195.got.cif
#   From: 2010.05.17/outbox.cif.g08.bks.cpg/sg131_2_cif.got.tgz:2195.got - 2010.05.20 12:21:01.
