data_PCOD9566107
_publ_section_title
;
Structure prediction by ZEFSAII (Michael W. Deem and Ramdas Pophale) SiO2 
 PCOD9566107
Probable space group: P 42/M M C
;
_chemical_formula_sum "Si O2"
_cell_formula_units_Z 72
_cell_length_a 12.145503
_cell_length_b 12.145503
_cell_length_c 30.413695
_cell_angle_alpha 90.000000
_cell_angle_beta 90.000000
_cell_angle_gamma 90.000000
_cell_volume 4486.422785
_symmetry_space_group_name_H-M "P 42/M M C"
_symmetry_group_IT_number 131
_symmetry_cell_setting 'tetragonal'
loop_
_space_group_symop_operation_xyz
x,y,z
-x,-y,z
-y,x,1/2+z
y,-x,1/2+z
-x,y,-z
x,-y,-z
y,x,1/2-z
-y,-x,1/2-z
-x,-y,-z
x,y,-z
y,-x,1/2-z
-y,x,1/2-z
x,-y,z
-x,y,z
-y,-x,1/2+z
y,x,1/2+z
loop_
_atom_site_type_symbol
_atom_site_label
_atom_site_fract_x
_atom_site_fract_y
_atom_site_fract_z
Si Si1 0.281062 0.297190 0.137411
Si Si2 0.254945 0.873757 0.789044
Si Si3 0.166327 0.500000 0.257766
Si Si4 0.628187 0.500000 0.309812
Si Si5 0.629164 0.367655 0.550572
Si Si6 0.125758 0.500000 0.154838
O O1 0.242328 0.191267 0.164983
O O2 0.391327 0.339712 0.162483
O O3 0.313974 0.291081 0.086377
O O4 0.189349 0.391103 0.140395
O O5 0.194084 0.805917 0.750000
O O6 0.386139 0.873695 0.778949
O O7 0.216622 0.000000 0.790273
O O8 0.297803 0.500000 0.266014
O O9 0.132733 0.500000 0.207606
O O10 0.500000 0.500000 0.302431
O O11 0.649238 0.335354 0.500000
O O12 0.638722 0.500000 0.553255
O O13 0.500000 0.342312 0.561032
O O14 0.000000 0.500000 0.140328
#
# Coordination Sequence:
#
# PCOD9566107 Si02
#       6
#    16  16   8   8  16   8
#     4  11  20  33  52  75 104 137 167 217 258 308
#     4  11  23  37  53  74 101 140 184 220 257 302
#     4  10  22  36  48  71 106 141 162 205 265 325
#     4  10  18  30  49  78 103 124 172 212 253 307
#     4   9  16  28  50  80 110 135 164 207 258 314
#     4  12  22  33  48  69 102 138 168 203 262 323
#
# _framework density 16.048421000000001
#
# number of rings (size 3 to 8) (size 9 to 14) (size 15 to 20)
#    0.000    1.556    5.556    1.667    0.000    0.222 
#    2.000    0.000    0.000    2.000    0.000    1.556 
#    0.000    0.000    0.000    4.000    0.000    0.000 
#
# Total GULP energy -401669.372424 kJ/mol
# GULP energy per Si atom -5578.741284 kJ/mol
# Density = 1.601189 g / cm^3
# Si number density = 16.048421 Si / 1000 Ang^3
#
#
#
# Elastic Constant Matrix: (Units=GPa)
#
#
# Indices 1 2 3 4 5 6 
#
# 1 92.4119 24.0706 28.9904 0.0000 0.0000 0.0000
# 2 24.0706 92.4127 28.9908 0.0000 0.0000 0.0000
# 3 28.9904 28.9908 108.4466 0.0000 0.0000 0.0000
# 4 0.0000 0.0000 0.0000 -17.8162 0.0000 0.0000
# 5 0.0000 0.0000 0.0000 0.0000 -17.8172 0.0000
# 6 0.0000 0.0000 0.0000 0.0000 0.0000 5.4900
#
#
#
# Elastic Compliance Matrix: (Units=1/GPa)
#
#
# Indices 1 2 3 4 5 6 
#
# 1 0.012268 -0.002365 -0.002647 0.000000 0.000000 0.000000
# 2 -0.002365 0.012267 -0.002647 0.000000 0.000000 0.000000
# 3 -0.002647 -0.002647 0.010636 0.000000 0.000000 0.000000
# 4 0.000000 0.000000 0.000000 -0.056129 0.000000 0.000000
# 5 0.000000 0.000000 0.000000 0.000000 -0.056125 0.000000
# 6 0.000000 0.000000 0.000000 0.000000 0.000000 0.182149
#
#
# Mechanical properties :
#
#
# Convention : Reuss Voigt Hill
#
# Bulk Modulus (GPa) = 50.37063 50.81943 50.59503
# Shear Modulus (GPa) = 39.36913 8.05260 23.71086
#
# Velocity S-wave (km/s) = 4.95830 2.24245 3.84794
# Velocity P-wave (km/s) = 8.01464 6.19999 7.16499
#
# Compressibility (1/GPa) = 0.01985284
#
# Stress axis : x y z
#
# Youngs Moduli (GPa) = 81.51588 81.51649 94.01610
#
# Poissons Ratio (x) = 0.19277 0.24888
# Poissons Ratio (y) = 0.19277 0.24888
# Poissons Ratio (z) = 0.21579 0.21579
#
# Static dielectric constant tensor:
#      x y z
#    x 1.548430 0.000000 0.000000 
#    y 0.000000 1.548430 0.000000 
#    z 0.000000 0.000000 1.553160 
# 
# From -- ./inp_files/13312.got.cif
#   From: 2010.05.17/outbox.cif.g08.bks.cpg/sg131_7_cif.got.tgz:13312.got - 2010.05.20 12:21:01.
