data_PCOD9566908
_publ_section_title
;
Structure prediction by ZEFSAII (Michael W. Deem and Ramdas Pophale) SiO2 
 PCOD9566908
Probable space group: P 42/M M C
;
_chemical_formula_sum "Si O2"
_cell_formula_units_Z 104
_cell_length_a 27.000000
_cell_length_b 27.000000
_cell_length_c 9.000000
_cell_angle_alpha 90.000000
_cell_angle_beta 90.000000
_cell_angle_gamma 90.000000
_cell_volume 6561.000000
_symmetry_space_group_name_H-M "P 42/M M C"
_symmetry_group_IT_number 131
_symmetry_cell_setting 'tetragonal'
loop_
_space_group_symop_operation_xyz
x,y,z
-x,-y,z
-y,x,1/2+z
y,-x,1/2+z
-x,y,-z
x,-y,-z
y,x,1/2-z
-y,-x,1/2-z
-x,-y,-z
x,y,-z
y,-x,1/2-z
-y,x,1/2-z
x,-y,z
-x,y,z
-y,-x,1/2+z
y,x,1/2+z
loop_
_atom_site_type_symbol
_atom_site_label
_atom_site_fract_x
_atom_site_fract_y
_atom_site_fract_z
Si Si1 0.500000 0.943973 0.318294
Si Si2 0.269752 0.344904 0.677253
Si Si3 0.243938 0.444790 0.178078
Si Si4 0.157357 0.681304 0.321918
Si Si5 0.869805 0.056267 0.178845
Si Si6 0.868864 0.417290 0.177857
Si Si7 0.135996 0.209983 0.678720
O O1 0.500000 0.944185 0.500000
O O2 0.452591 0.912599 0.270689
O O3 0.500000 0.000000 0.266626
O O4 0.311338 0.311338 0.750000
O O5 0.273744 0.344042 0.500000
O O6 0.270949 0.400706 0.737845
O O7 0.215350 0.323701 0.719266
O O8 0.260544 0.500000 0.217484
O O9 0.185295 0.439723 0.213324
O O10 0.248807 0.438453 0.000000
O O11 0.154765 0.677656 0.500000
O O12 0.129072 0.636088 0.249601
O O13 0.135779 0.733558 0.273560
O O14 0.916242 0.083759 0.250000
O O15 0.821474 0.087870 0.220875
O O16 0.866153 0.000000 0.227258
O O17 0.874066 0.057790 0.000000
O O18 0.871055 0.413575 0.000000
O O19 0.182368 0.182368 0.750000
O O20 0.140709 0.208510 0.500000
#
# Coordination Sequence:
#
# PCOD9566908 Si02
#       7
#     8  16  16  16  16  16  16
#     4   9  16  28  47  67  87 113 149 195 238 271
#     4  10  19  29  42  64  94 123 151 185 227 270
#     4   9  16  28  46  65  87 117 154 191 227 271
#     4   9  18  30  44  65  91 118 147 183 225 268
#     4   9  18  32  49  68  88 112 142 175 215 263
#     4   9  16  28  46  66  86 113 152 191 227 270
#     4   9  17  30  47  65  88 116 147 179 214 262
#
# _framework density 15.851241999999999
#
# number of rings (size 3 to 8) (size 9 to 14) (size 15 to 20)
#    0.000    2.846    0.769    0.923    0.000    2.000 
#    0.000    1.923    0.000    1.846    0.000    0.000 
#    0.000    0.308    0.000    3.231    0.000    1.385 
#
# Total GULP energy -579323.354173 kJ/mol
# GULP energy per Si atom -5570.416867 kJ/mol
# Density = 1.581516 g / cm^3
# Si number density = 15.851242 Si / 1000 Ang^3
#
#
#
# Elastic Constant Matrix: (Units=GPa)
#
#
# Indices 1 2 3 4 5 6 
#
# 1 114.9524 64.0223 26.8840 0.0000 0.0000 0.0000
# 2 64.0223 114.9705 26.8859 0.0000 0.0000 0.0000
# 3 26.8840 26.8859 1.7492 0.0000 0.0000 0.0000
# 4 0.0000 0.0000 0.0000 19.0827 0.0000 0.0000
# 5 0.0000 0.0000 0.0000 0.0000 19.0827 0.0000
# 6 0.0000 0.0000 0.0000 0.0000 0.0000 40.3233
#
#
#
# Elastic Compliance Matrix: (Units=1/GPa)
#
#
# Indices 1 2 3 4 5 6 
#
# 1 0.009044 -0.010588 0.023740 0.000000 0.000000 0.000000
# 2 -0.010588 0.009043 0.023738 0.000000 0.000000 0.000000
# 3 0.023740 0.023738 -0.158040 0.000000 0.000000 0.000000
# 4 0.000000 0.000000 0.000000 0.052404 0.000000 0.000000
# 5 0.000000 0.000000 0.000000 0.000000 0.052403 0.000000
# 6 0.000000 0.000000 0.000000 0.000000 0.000000 0.024800
#
#
# Mechanical properties :
#
#
# Convention : Reuss Voigt Hill
#
# Bulk Modulus (GPa) = -15.11195 51.91739 18.40272
# Shear Modulus (GPa) = -47.08817 23.28974 -11.89922
#
# Velocity S-wave (km/s) = -5.45626 3.83726 -2.74283
# Velocity P-wave (km/s) = 7.01774 7.24270 1.26651
#
# Compressibility (1/GPa) = -0.06617282
#
# Stress axis : x y z
#
# Youngs Moduli (GPa) = 110.57023 110.58584 -6.32753
#
# Poissons Ratio (x) = 1.17087 0.15022
# Poissons Ratio (y) = 1.17070 0.15020
# Poissons Ratio (z) = -2.62495 -2.62506
#
# Static dielectric constant tensor:
#      x y z
#    x 1.521100 0.000000 0.000000 
#    y 0.000000 1.521140 0.000000 
#    z 0.000000 0.000000 1.534180 
# 
# From -- ./inp_files/2533.got.cif
#   From: 2010.05.17/outbox.ucp.g08.bks.cvg/sg131_2_cif.got.tgz:2533.got - 2010.06.11 11:38:44.
