data_PCOD9566450
_publ_section_title
;
Structure prediction by ZEFSAII (Michael W. Deem and Ramdas Pophale) SiO2 
 PCOD9566450
Probable space group: P 42/M M C
;
_chemical_formula_sum "Si O2"
_cell_formula_units_Z 104
_cell_length_a 26.038800
_cell_length_b 26.038800
_cell_length_c 9.144791
_cell_angle_alpha 90.000000
_cell_angle_beta 90.000000
_cell_angle_gamma 90.000000
_cell_volume 6200.343013
_symmetry_space_group_name_H-M "P 42/M M C"
_symmetry_group_IT_number 131
_symmetry_cell_setting 'tetragonal'
loop_
_space_group_symop_operation_xyz
x,y,z
-x,-y,z
-y,x,1/2+z
y,-x,1/2+z
-x,y,-z
x,-y,-z
y,x,1/2-z
-y,-x,1/2-z
-x,-y,-z
x,y,-z
y,-x,1/2-z
-y,x,1/2-z
x,-y,z
-x,y,z
-y,-x,1/2+z
y,x,1/2+z
loop_
_atom_site_type_symbol
_atom_site_label
_atom_site_fract_x
_atom_site_fract_y
_atom_site_fract_z
Si Si1 0.151630 0.700144 0.666492
Si Si2 0.416410 0.112721 0.167813
Si Si3 0.443885 0.216175 0.675440
Si Si4 0.254509 0.668839 0.823621
Si Si5 0.944750 0.127474 0.830486
Si Si6 0.000000 0.561531 0.331308
Si Si7 0.942822 0.749562 0.829752
O O1 0.163540 0.716355 0.500000
O O2 0.128604 0.642830 0.661794
O O3 0.203347 0.697142 0.762255
O O4 0.105651 0.732031 0.737226
O O5 0.441392 0.158998 0.257489
O O6 0.421968 0.055241 0.231531
O O7 0.436485 0.111729 0.000000
O O8 0.441886 0.212066 0.500000
O O9 0.500000 0.238718 0.715795
O O10 0.391677 0.246567 0.717873
O O11 0.303189 0.696812 0.750000
O O12 0.257023 0.672607 0.000000
O O13 0.897990 0.102011 0.750000
O O14 0.943412 0.188841 0.824898
O O15 0.000000 0.110519 0.768361
O O16 0.942987 0.112762 0.000000
O O17 0.000000 0.500000 0.332574
O O18 0.000000 0.580901 0.500000
O O19 0.000000 0.731626 0.780131
O O20 0.936933 0.733843 0.000000
#
# Coordination Sequence:
#
# PCOD9566450 Si02
#       7
#    16  16  16  16  16   8  16
#     4  10  20  32  49  72  97 127 166 207 251 296
#     4   9  18  30  45  66  93 126 165 207 247 291
#     4   9  18  33  52  73  99 131 165 203 248 296
#     4  10  20  35  54  75 104 135 168 207 248 297
#     4   9  19  35  52  70  91 113 139 174 218 274
#     4   9  16  26  41  61  87 121 159 201 248 285
#     4   9  19  35  51  67  92 126 162 202 249 298
#
# _framework density 16.773266
#
# number of rings (size 3 to 8) (size 9 to 14) (size 15 to 20)
#    0.000    2.692    0.000    2.308    1.077    4.154 
#    0.000    4.231    0.000    1.385    0.000    0.000 
#    0.000    0.308    0.000    3.846    0.000    0.000 
#
# Total GULP energy -579114.480255 kJ/mol
# GULP energy per Si atom -5568.408464 kJ/mol
# Density = 1.673509 g / cm^3
# Si number density = 16.773266 Si / 1000 Ang^3
#
#
#
# Elastic Constant Matrix: (Units=GPa)
#
#
# Indices 1 2 3 4 5 6 
#
# 1 75.6777 48.4209 32.7979 0.0000 0.0000 0.0000
# 2 48.4209 75.6755 32.7976 0.0000 0.0000 0.0000
# 3 32.7979 32.7976 46.4063 0.0000 0.0000 0.0000
# 4 0.0000 0.0000 0.0000 19.6259 0.0000 0.0000
# 5 0.0000 0.0000 0.0000 0.0000 19.6249 0.0000
# 6 0.0000 0.0000 0.0000 0.0000 0.0000 15.5420
#
#
#
# Elastic Compliance Matrix: (Units=1/GPa)
#
#
# Indices 1 2 3 4 5 6 
#
# 1 0.024776 -0.011913 -0.009091 0.000000 0.000000 0.000000
# 2 -0.011913 0.024777 -0.009092 0.000000 0.000000 0.000000
# 3 -0.009091 -0.009092 0.034400 0.000000 0.000000 0.000000
# 4 0.000000 0.000000 0.000000 0.050953 0.000000 0.000000
# 5 0.000000 0.000000 0.000000 0.000000 0.050956 0.000000
# 6 0.000000 0.000000 0.000000 0.000000 0.000000 0.064342
#
#
# Mechanical properties :
#
#
# Convention : Reuss Voigt Hill
#
# Bulk Modulus (GPa) = 42.08538 47.31025 44.69781
# Shear Modulus (GPa) = 15.70768 16.54143 16.12456
#
# Velocity S-wave (km/s) = 3.06350 3.14375 3.10389
# Velocity P-wave (km/s) = 6.13666 6.43775 6.28901
#
# Compressibility (1/GPa) = 0.02376122
#
# Stress axis : x y z
#
# Youngs Moduli (GPa) = 40.36133 40.35997 29.07005
#
# Poissons Ratio (x) = 0.48080 0.26429
# Poissons Ratio (y) = 0.48082 0.26430
# Poissons Ratio (z) = 0.36694 0.36694
#
# Static dielectric constant tensor:
#      x y z
#    x 1.580390 0.000000 0.000000 
#    y 0.000000 1.580390 0.000000 
#    z 0.000000 0.000000 1.586920 
# 
# From -- ./inp_files/2553.got.cif
#   From: 2010.05.17/outbox.cif.g08.bks.cpg/sg131_2_cif.got.tgz:2553.got - 2010.05.20 12:21:01.
