data_PCOD9566736
_publ_section_title
;
Structure prediction by ZEFSAII (Michael W. Deem and Ramdas Pophale) SiO2 
 PCOD9566736
Probable space group: P 42/M M C
;
_chemical_formula_sum "Si O2"
_cell_formula_units_Z 96
_cell_length_a 15.413981
_cell_length_b 15.413981
_cell_length_c 20.811108
_cell_angle_alpha 90.000000
_cell_angle_beta 90.000000
_cell_angle_gamma 90.000000
_cell_volume 4944.528012
_symmetry_space_group_name_H-M "P 42/M M C"
_symmetry_group_IT_number 131
_symmetry_cell_setting 'tetragonal'
loop_
_space_group_symop_operation_xyz
x,y,z
-x,-y,z
-y,x,1/2+z
y,-x,1/2+z
-x,y,-z
x,-y,-z
y,x,1/2-z
-y,-x,1/2-z
-x,-y,-z
x,y,-z
y,-x,1/2-z
-y,x,1/2-z
x,-y,z
-x,y,z
-y,-x,1/2+z
y,x,1/2+z
loop_
_atom_site_type_symbol
_atom_site_label
_atom_site_fract_x
_atom_site_fract_y
_atom_site_fract_z
Si Si1 0.899166 0.808581 0.801909
Si Si2 0.603937 0.098103 0.572364
Si Si3 0.777194 0.652478 0.811852
Si Si4 0.605172 0.901670 0.073423
Si Si5 0.099862 0.105468 0.429840
Si Si6 0.598505 0.250935 0.827144
O O1 0.883353 0.883353 0.750000
O O2 0.838680 0.728972 0.785372
O O3 0.867537 0.841744 0.871121
O O4 0.000000 0.786332 0.803960
O O5 0.636080 0.118016 0.500000
O O6 0.500000 0.092604 0.569033
O O7 0.623122 0.170057 0.625444
O O8 0.635981 0.000000 0.588949
O O9 0.771478 0.593346 0.748685
O O10 0.679676 0.682503 0.830153
O O11 0.500000 0.905083 0.071893
O O12 0.625041 0.830357 0.127426
O O13 0.635781 0.000000 0.088384
O O14 0.633437 0.880216 0.000000
O O15 0.129901 0.134207 0.500000
O O16 0.000000 0.132517 0.421261
O O17 0.099662 0.000000 0.429430
O O18 0.500000 0.278732 0.846869
#
# Coordination Sequence:
#
# PCOD9566736 Si02
#       6
#    16  16  16  16  16  16
#     4  11  21  34  51  75 110 149 187 236 292 352
#     4   9  19  37  62  91 121 155 193 235 292 357
#     4  11  22  38  55  86 114 147 197 252 301 349
#     4   8  15  30  53  80 108 141 185 234 285 345
#     4   8  15  29  48  69  96 138 190 231 269 331
#     4  10  21  38  58  79 111 151 194 244 305 359
#
# _framework density 19.415403000000001
#
# number of rings (size 3 to 8) (size 9 to 14) (size 15 to 20)
#    0.000    2.500    1.667    3.000    0.000    3.500 
#    0.000    3.333    0.000   10.500    0.000    1.167 
#    0.000    0.000    0.000    0.000    0.000    0.000 
#
# Total GULP energy -534747.488319 kJ/mol
# GULP energy per Si atom -5570.286337 kJ/mol
# Density = 1.937121 g / cm^3
# Si number density = 19.415403 Si / 1000 Ang^3
#
#
#
# Elastic Constant Matrix: (Units=GPa)
#
#
# Indices 1 2 3 4 5 6 
#
# 1 78.9445 26.6726 40.6271 0.0000 0.0000 0.0000
# 2 26.6726 78.9445 40.6271 0.0000 0.0000 0.0000
# 3 40.6271 40.6271 106.0412 0.0000 0.0000 0.0000
# 4 0.0000 0.0000 0.0000 64.7847 0.0000 0.0000
# 5 0.0000 0.0000 0.0000 0.0000 64.7847 0.0000
# 6 0.0000 0.0000 0.0000 0.0000 0.0000 15.1935
#
#
#
# Elastic Compliance Matrix: (Units=1/GPa)
#
#
# Indices 1 2 3 4 5 6 
#
# 1 0.016278 -0.002853 -0.005144 0.000000 0.000000 0.000000
# 2 -0.002853 0.016278 -0.005144 0.000000 0.000000 0.000000
# 3 -0.005144 -0.005144 0.013372 0.000000 0.000000 0.000000
# 4 0.000000 0.000000 0.000000 0.015436 0.000000 0.000000
# 5 0.000000 0.000000 0.000000 0.000000 0.015436 0.000000
# 6 0.000000 0.000000 0.000000 0.000000 0.000000 0.065818
#
#
# Mechanical properties :
#
#
# Convention : Reuss Voigt Hill
#
# Bulk Modulus (GPa) = 50.89621 53.30930 52.10276
# Shear Modulus (GPa) = 28.49884 39.35280 33.92582
#
# Velocity S-wave (km/s) = 3.83541 4.50698 4.18469
# Velocity P-wave (km/s) = 6.77385 7.38922 7.08822
#
# Compressibility (1/GPa) = 0.01964783
#
# Stress axis : x y z
#
# Youngs Moduli (GPa) = 61.43266 61.43266 74.78568
#
# Poissons Ratio (x) = 0.17525 0.38466
# Poissons Ratio (y) = 0.17525 0.38466
# Poissons Ratio (z) = 0.31598 0.31598
#
# Static dielectric constant tensor:
#      x y z
#    x 1.493470 0.000000 0.000000 
#    y 0.000000 1.493470 0.000000 
#    z 0.000000 0.000000 1.723590 
# 
# From -- ./inp_files/9769.got.cif
#   From: 2010.05.17/outbox.cif.g08.bks.cpg/sg131_5_cif.got.tgz:9769.got - 2010.05.20 12:21:01.
