data_PCOD9566891
_publ_section_title
;
Structure prediction by ZEFSAII (Michael W. Deem and Ramdas Pophale) SiO2 
 PCOD9566891
Probable space group: P 42/M M C
;
_chemical_formula_sum "Si O2"
_cell_formula_units_Z 40
_cell_length_a 7.795380
_cell_length_b 7.795380
_cell_length_c 30.873043
_cell_angle_alpha 90.000000
_cell_angle_beta 90.000000
_cell_angle_gamma 90.000000
_cell_volume 1876.091513
_symmetry_space_group_name_H-M "P 42/M M C"
_symmetry_group_IT_number 131
_symmetry_cell_setting 'tetragonal'
loop_
_space_group_symop_operation_xyz
x,y,z
-x,-y,z
-y,x,1/2+z
y,-x,1/2+z
-x,y,-z
x,-y,-z
y,x,1/2-z
-y,-x,1/2-z
-x,-y,-z
x,y,-z
y,-x,1/2-z
-y,x,1/2-z
x,-y,z
-x,y,z
-y,-x,1/2+z
y,x,1/2+z
loop_
_atom_site_type_symbol
_atom_site_label
_atom_site_fract_x
_atom_site_fract_y
_atom_site_fract_z
Si Si1 0.298638 0.709125 0.296903
Si Si2 0.290421 0.813056 0.109016
Si Si3 0.500000 0.289647 0.450342
O O1 0.231637 0.768364 0.250000
O O2 0.287993 0.500000 0.295499
O O3 0.500000 0.752282 0.300288
O O4 0.212762 0.766582 0.341311
O O5 0.500000 0.805327 0.110235
O O6 0.233360 0.664668 0.077000
O O7 0.239662 0.000000 0.093409
O O8 0.500000 0.500000 0.450700
O O9 0.500000 0.233388 0.500000
#
# Coordination Sequence:
#
# PCOD9566891 Si02
#       3
#    16  16   8
#     4   8  12  19  32  47  63  87 122 167 221 280
#     4   9  15  22  32  46  67  94 132 185 237 287
#     4   9  16  24  32  42  64 100 143 191 239 289
#
# _framework density 21.320923000000001
#
# number of rings (size 3 to 8) (size 9 to 14) (size 15 to 20)
#    0.000    3.400    2.000    1.200    0.000    0.800 
#    0.000    4.000    0.000    0.000    0.000    0.000 
#    0.000    0.800    0.000    0.000    0.000    4.000 
#
# Total GULP energy -223090.945131 kJ/mol
# GULP energy per Si atom -5577.273628 kJ/mol
# Density = 2.127240 g / cm^3
# Si number density = 21.320923 Si / 1000 Ang^3
#
#
#
# Elastic Constant Matrix: (Units=GPa)
#
#
# Indices 1 2 3 4 5 6 
#
# 1 72.5956 15.5215 58.9835 0.0000 0.0000 0.0000
# 2 15.5215 72.5956 58.9834 0.0000 0.0000 0.0000
# 3 58.9835 58.9834 200.8991 0.0000 0.0000 0.0000
# 4 0.0000 0.0000 0.0000 -14.2279 0.0000 0.0000
# 5 0.0000 0.0000 0.0000 0.0000 -14.2277 0.0000
# 6 0.0000 0.0000 0.0000 0.0000 0.0000 -5.0457
#
#
#
# Elastic Compliance Matrix: (Units=1/GPa)
#
#
# Indices 1 2 3 4 5 6 
#
# 1 0.018109 0.000588 -0.005490 0.000000 0.000000 0.000000
# 2 0.000588 0.018109 -0.005490 0.000000 0.000000 0.000000
# 3 -0.005490 -0.005490 0.008201 0.000000 0.000000 0.000000
# 4 0.000000 0.000000 0.000000 -0.070284 0.000000 0.000000
# 5 0.000000 0.000000 0.000000 0.000000 -0.070285 0.000000
# 6 0.000000 0.000000 0.000000 0.000000 0.000000 -0.198190
#
#
# Mechanical properties :
#
#
# Convention : Reuss Voigt Hill
#
# Bulk Modulus (GPa) = 42.30446 68.11855 55.21151
# Shear Modulus (GPa) = -18.81972 7.47322 -5.67325
#
# Velocity S-wave (km/s) = -2.97423 1.87422 -1.63299
# Velocity P-wave (km/s) = 2.84431 6.05823 4.73245
#
# Compressibility (1/GPa) = 0.02363817
#
# Stress axis : x y z
#
# Youngs Moduli (GPa) = 55.21989 55.21994 121.93502
#
# Poissons Ratio (x) = -0.03249 0.66938
# Poissons Ratio (y) = -0.03249 0.66937
# Poissons Ratio (z) = 0.30314 0.30314
#
# Static dielectric constant tensor:
#      x y z
#    x 1.810040 0.000000 0.000000 
#    y 0.000000 1.810040 0.000000 
#    z 0.000000 0.000000 1.743180 
# 
# From -- ./inp_files/11713.got.cif
#   From: 2010.05.17/outbox.cif.g08.bks.cpg/sg131_6_cif.got.tgz:11713.got - 2010.05.20 12:21:01.
