data_PCOD9566474
_publ_section_title
;
Structure prediction by ZEFSAII (Michael W. Deem and Ramdas Pophale) SiO2 
 PCOD9566474
Probable space group: P 42/M M C
;
_chemical_formula_sum "Si O2"
_cell_formula_units_Z 112
_cell_length_a 14.463950
_cell_length_b 14.463950
_cell_length_c 26.897844
_cell_angle_alpha 90.000000
_cell_angle_beta 90.000000
_cell_angle_gamma 90.000000
_cell_volume 5627.186306
_symmetry_space_group_name_H-M "P 42/M M C"
_symmetry_group_IT_number 131
_symmetry_cell_setting 'tetragonal'
loop_
_space_group_symop_operation_xyz
x,y,z
-x,-y,z
-y,x,1/2+z
y,-x,1/2+z
-x,y,-z
x,-y,-z
y,x,1/2-z
-y,-x,1/2-z
-x,-y,-z
x,y,-z
y,-x,1/2-z
-y,x,1/2-z
x,-y,z
-x,y,z
-y,-x,1/2+z
y,x,1/2+z
loop_
_atom_site_type_symbol
_atom_site_label
_atom_site_fract_x
_atom_site_fract_y
_atom_site_fract_z
Si Si1 0.894412 0.612384 0.151886
Si Si2 0.717059 0.709784 0.806596
Si Si3 0.104105 0.752186 0.360674
Si Si4 0.605651 0.864208 0.056100
Si Si5 0.393639 0.201291 0.553853
Si Si6 0.106468 0.887448 0.944602
Si Si7 0.605469 0.342218 0.096585
O O1 0.887248 0.500000 0.154464
O O2 0.814167 0.657570 0.184506
O O3 0.865133 0.644285 0.096382
O O4 0.000000 0.637427 0.163610
O O5 0.691297 0.691297 0.750000
O O6 0.732141 0.818480 0.819514
O O7 0.641335 0.675839 0.847086
O O8 0.098262 0.667361 0.399508
O O9 0.140139 0.832929 0.397438
O O10 0.000000 0.771794 0.342125
O O11 0.500000 0.895781 0.059311
O O12 0.604299 0.754515 0.066724
O O13 0.639155 0.883809 0.000000
O O14 0.348723 0.193776 0.500000
O O15 0.500000 0.173447 0.549513
O O16 0.393624 0.307957 0.571624
O O17 0.000000 0.859447 0.939363
O O18 0.109392 0.000000 0.944211
O O19 0.138855 0.859649 0.000000
O O20 0.500000 0.379194 0.095327
#
# Coordination Sequence:
#
# PCOD9566474 Si02
#       7
#    16  16  16  16  16  16  16
#     4   9  19  37  60  84 110 142 182 228 274 319
#     4  10  22  38  56  77 101 134 179 235 288 333
#     4  10  20  33  49  71 101 135 169 209 260 316
#     4   9  17  29  47  72 102 137 173 205 242 298
#     4   9  17  29  49  81 117 148 178 212 256 320
#     4   8  14  26  45  68  94 126 162 197 238 296
#     4   9  18  33  51  72 103 141 179 222 273 328
#
# _framework density 19.903375
#
# number of rings (size 3 to 8) (size 9 to 14) (size 15 to 20)
#    0.000    2.857    0.000    1.286    0.000    4.286 
#    0.000    3.571    0.000    0.000    0.000    3.000 
#    0.000    0.000    0.000    0.000    0.000    0.000 
#
# Total GULP energy -624146.633187 kJ/mol
# GULP energy per Si atom -5572.737796 kJ/mol
# Density = 1.985807 g / cm^3
# Si number density = 19.903375 Si / 1000 Ang^3
#
#
#
# Elastic Constant Matrix: (Units=GPa)
#
#
# Indices 1 2 3 4 5 6 
#
# 1 64.2957 7.7159 -4.5565 0.0000 0.0000 0.0000
# 2 7.7159 64.2957 -4.5565 0.0000 0.0000 0.0000
# 3 -4.5565 -4.5565 70.2841 0.0000 0.0000 0.0000
# 4 0.0000 0.0000 0.0000 12.6741 0.0000 0.0000
# 5 0.0000 0.0000 0.0000 0.0000 12.6741 0.0000
# 6 0.0000 0.0000 0.0000 0.0000 0.0000 23.8864
#
#
#
# Elastic Compliance Matrix: (Units=1/GPa)
#
#
# Indices 1 2 3 4 5 6 
#
# 1 0.015838 -0.001836 0.000908 0.000000 0.000000 0.000000
# 2 -0.001836 0.015838 0.000908 0.000000 0.000000 0.000000
# 3 0.000908 0.000908 0.014346 0.000000 0.000000 0.000000
# 4 0.000000 0.000000 0.000000 0.078901 0.000000 0.000000
# 5 0.000000 0.000000 0.000000 0.000000 0.078901 0.000000
# 6 0.000000 0.000000 0.000000 0.000000 0.000000 0.041865
#
#
# Mechanical properties :
#
#
# Convention : Reuss Voigt Hill
#
# Bulk Modulus (GPa) = 21.74878 21.78680 21.76779
# Shear Modulus (GPa) = 19.15295 23.19844 21.17569
#
# Velocity S-wave (km/s) = 3.10546 3.41772 3.26532
# Velocity P-wave (km/s) = 4.87949 5.15213 5.01766
#
# Compressibility (1/GPa) = 0.04597959
#
# Stress axis : x y z
#
# Youngs Moduli (GPa) = 63.13996 63.13996 69.70742
#
# Poissons Ratio (x) = 0.11595 -0.06328
# Poissons Ratio (y) = 0.11595 -0.06328
# Poissons Ratio (z) = -0.05731 -0.05731
#
# Static dielectric constant tensor:
#      x y z
#    x 1.737960 0.000000 0.000000 
#    y 0.000000 1.737960 0.000000 
#    z 0.000000 0.000000 1.699100 
# 
# From -- ./inp_files/11277.got.cif
#   From: 2010.05.17/outbox.cif.g08.bks.cpg/sg131_6_cif.got.tgz:11277.got - 2010.05.20 12:21:01.
