data_PCOD9566808
_publ_section_title
;
Structure prediction by ZEFSAII (Michael W. Deem and Ramdas Pophale) SiO2 
 PCOD9566808
Probable space group: P 42/M M C
;
_chemical_formula_sum "Si O2"
_cell_formula_units_Z 64
_cell_length_a 14.373585
_cell_length_b 14.373585
_cell_length_c 18.266801
_cell_angle_alpha 90.000000
_cell_angle_beta 90.000000
_cell_angle_gamma 90.000000
_cell_volume 3773.920096
_symmetry_space_group_name_H-M "P 42/M M C"
_symmetry_group_IT_number 131
_symmetry_cell_setting 'tetragonal'
loop_
_space_group_symop_operation_xyz
x,y,z
-x,-y,z
-y,x,1/2+z
y,-x,1/2+z
-x,y,-z
x,-y,-z
y,x,1/2-z
-y,-x,1/2-z
-x,-y,-z
x,y,-z
y,-x,1/2-z
-y,x,1/2-z
x,-y,z
-x,y,z
-y,-x,1/2+z
y,x,1/2+z
loop_
_atom_site_type_symbol
_atom_site_label
_atom_site_fract_x
_atom_site_fract_y
_atom_site_fract_z
Si Si1 0.392951 0.606158 0.660889
Si Si2 0.110731 0.608429 0.419917
Si Si3 0.769502 0.259131 0.335619
Si Si4 0.109451 0.106066 0.912087
O O1 0.392240 0.607761 0.750000
O O2 0.364196 0.500000 0.639448
O O3 0.500000 0.619194 0.637642
O O4 0.325208 0.689849 0.637227
O O5 0.142828 0.644913 0.500000
O O6 0.133739 0.500000 0.416649
O O7 0.154721 0.662257 0.353393
O O8 0.000000 0.616982 0.418787
O O9 0.760259 0.239742 0.250000
O O10 0.812382 0.169548 0.375881
O O11 0.000000 0.114740 0.894363
O O12 0.139132 0.000000 0.890353
O O13 0.118621 0.110534 0.000000
#
# Coordination Sequence:
#
# PCOD9566808 Si02
#       4
#    16  16  16  16
#     4   8  15  29  47  67  95 130 162 190 226 279
#     4   9  18  33  53  76 101 129 162 204 257 313
#     4  11  20  28  47  77 105 129 158 201 253 301
#     4   9  19  36  54  69  90 127 172 210 245 293
#
# _framework density 16.958493000000001
#
# number of rings (size 3 to 8) (size 9 to 14) (size 15 to 20)
#    0.000    2.750    0.000    4.500    0.000    5.000 
#    0.000    1.250    0.000    3.750    0.000   10.500 
#    0.000    0.000    0.000    0.000    0.000    0.000 
#
# Total GULP energy -356276.766907 kJ/mol
# GULP energy per Si atom -5566.824483 kJ/mol
# Density = 1.691989 g / cm^3
# Si number density = 16.958493 Si / 1000 Ang^3
#
#
#
# Elastic Constant Matrix: (Units=GPa)
#
#
# Indices 1 2 3 4 5 6 
#
# 1 99.8011 68.1513 35.6917 0.0000 0.0000 0.0000
# 2 68.1513 99.8013 35.6917 0.0000 0.0000 0.0000
# 3 35.6917 35.6917 55.3726 0.0000 0.0000 0.0000
# 4 0.0000 0.0000 0.0000 28.7108 0.0000 0.0000
# 5 0.0000 0.0000 0.0000 0.0000 28.7113 0.0000
# 6 0.0000 0.0000 0.0000 0.0000 0.0000 43.6279
#
#
#
# Elastic Compliance Matrix: (Units=1/GPa)
#
#
# Indices 1 2 3 4 5 6 
#
# 1 0.019898 -0.011697 -0.005286 0.000000 0.000000 0.000000
# 2 -0.011697 0.019898 -0.005286 0.000000 0.000000 0.000000
# 3 -0.005286 -0.005286 0.024874 0.000000 0.000000 0.000000
# 4 0.000000 0.000000 0.000000 0.034830 0.000000 0.000000
# 5 0.000000 0.000000 0.000000 0.000000 0.034829 0.000000
# 6 0.000000 0.000000 0.000000 0.000000 0.000000 0.022921
#
#
# Mechanical properties :
#
#
# Convention : Reuss Voigt Hill
#
# Bulk Modulus (GPa) = 49.67353 59.33826 54.50590
# Shear Modulus (GPa) = 23.98078 27.90601 25.94339
#
# Velocity S-wave (km/s) = 3.76451 4.06094 3.91553
# Velocity P-wave (km/s) = 6.94624 7.55344 7.25620
#
# Compressibility (1/GPa) = 0.02013144
#
# Stress axis : x y z
#
# Youngs Moduli (GPa) = 50.25578 50.25587 40.20283
#
# Poissons Ratio (x) = 0.58787 0.21251
# Poissons Ratio (y) = 0.58787 0.21251
# Poissons Ratio (z) = 0.26565 0.26565
#
# Static dielectric constant tensor:
#      x y z
#    x 1.600060 0.000000 0.000000 
#    y 0.000000 1.600060 0.000000 
#    z 0.000000 0.000000 1.536950 
# 
# From -- ./inp_files/5451.got.cif
#   From: 2010.05.17/outbox.cif.g08.bks.cpg/sg131_3_cif.got.tgz:5451.got - 2010.05.20 12:21:01.
