data_PCOD9566463
_publ_section_title
;
Structure prediction by ZEFSAII (Michael W. Deem and Ramdas Pophale) SiO2 
 PCOD9566463
Probable space group: P 42/M M C
;
_chemical_formula_sum "Si O2"
_cell_formula_units_Z 88
_cell_length_a 14.948980
_cell_length_b 14.948980
_cell_length_c 21.994146
_cell_angle_alpha 90.000000
_cell_angle_beta 90.000000
_cell_angle_gamma 90.000000
_cell_volume 4915.075862
_symmetry_space_group_name_H-M "P 42/M M C"
_symmetry_group_IT_number 131
_symmetry_cell_setting 'tetragonal'
loop_
_space_group_symop_operation_xyz
x,y,z
-x,-y,z
-y,x,1/2+z
y,-x,1/2+z
-x,y,-z
x,-y,-z
y,x,1/2-z
-y,-x,1/2-z
-x,-y,-z
x,y,-z
y,-x,1/2-z
-y,x,1/2-z
x,-y,z
-x,y,z
-y,-x,1/2+z
y,x,1/2+z
loop_
_atom_site_type_symbol
_atom_site_label
_atom_site_fract_x
_atom_site_fract_y
_atom_site_fract_z
Si Si1 0.841132 0.293680 0.861610
Si Si2 0.500000 0.293099 0.072593
Si Si3 0.393671 0.682879 0.573452
Si Si4 0.394776 0.000000 0.427462
Si Si5 0.500000 0.106377 0.143026
Si Si6 0.100663 0.662917 0.733234
Si Si7 0.098016 0.142048 0.318913
O O1 0.751158 0.324753 0.894695
O O2 0.915125 0.348499 0.897754
O O3 0.836944 0.325132 0.791294
O O4 0.872565 0.189291 0.856457
O O5 0.413862 0.352808 0.089058
O O6 0.500000 0.191266 0.097980
O O7 0.500000 0.284630 0.000000
O O8 0.390262 0.694697 0.500000
O O9 0.500000 0.693099 0.590320
O O10 0.500000 0.000000 0.414063
O O11 0.383548 0.000000 0.500000
O O12 0.416072 0.118213 0.187404
O O13 0.500000 0.000000 0.121433
O O14 0.100628 0.752396 0.693803
O O15 0.000000 0.651454 0.758768
O O16 0.103689 0.103689 0.250000
O O17 0.000000 0.117154 0.344587
#
# Coordination Sequence:
#
# PCOD9566463 Si02
#       7
#    16   8  16   8   8  16  16
#     4  11  20  34  58  82 112 147 186 231 286 344
#     4  10  21  39  58  79 111 150 193 240 284 330
#     4  10  21  37  59  83 106 143 195 243 285 336
#     4  11  24  38  55  81 115 147 184 234 286 339
#     4  10  20  32  55  86 116 149 186 232 287 347
#     4   9  18  32  51  81 116 148 182 224 281 342
#     4   9  19  34  52  79 110 146 189 230 274 331
#
# _framework density 17.904098000000001
#
# number of rings (size 3 to 8) (size 9 to 14) (size 15 to 20)
#    0.000    2.091    0.909    2.455    3.818    2.909 
#    0.000    0.000    0.000    3.818    2.364    0.000 
#    0.000    0.000    0.000    0.000    0.000    0.000 
#
# Total GULP energy -490073.684243 kJ/mol
# GULP energy per Si atom -5569.019139 kJ/mol
# Density = 1.786335 g / cm^3
# Si number density = 17.904098 Si / 1000 Ang^3
#
#
#
# Elastic Constant Matrix: (Units=GPa)
#
#
# Indices 1 2 3 4 5 6 
#
# 1 117.4472 21.8256 34.0800 0.0000 0.0000 0.0000
# 2 21.8256 117.4472 34.0800 0.0000 0.0000 0.0000
# 3 34.0800 34.0800 33.8622 0.0000 0.0000 0.0000
# 4 0.0000 0.0000 0.0000 120.1876 0.0000 0.0000
# 5 0.0000 0.0000 0.0000 0.0000 120.1876 0.0000
# 6 0.0000 0.0000 0.0000 0.0000 0.0000 15.0935
#
#
#
# Elastic Compliance Matrix: (Units=1/GPa)
#
#
# Indices 1 2 3 4 5 6 
#
# 1 0.012304 0.001846 -0.014240 0.000000 0.000000 0.000000
# 2 0.001846 0.012304 -0.014240 0.000000 0.000000 0.000000
# 3 -0.014240 -0.014240 0.058195 0.000000 0.000000 0.000000
# 4 0.000000 0.000000 0.000000 0.008320 0.000000 0.000000
# 5 0.000000 0.000000 0.000000 0.000000 0.008320 0.000000
# 6 0.000000 0.000000 0.000000 0.000000 0.000000 0.066254
#
#
# Mechanical properties :
#
#
# Convention : Reuss Voigt Hill
#
# Bulk Modulus (GPa) = 33.86085 49.85862 41.85973
# Shear Modulus (GPa) = 21.85205 63.01180 42.43192
#
# Velocity S-wave (km/s) = 3.49736 5.93889 4.87350
# Velocity P-wave (km/s) = 5.93819 8.65652 7.42285
#
# Compressibility (1/GPa) = 0.02953263
#
# Stress axis : x y z
#
# Youngs Moduli (GPa) = 81.27676 81.27676 17.18348
#
# Poissons Ratio (x) = -0.15002 0.24470
# Poissons Ratio (y) = -0.15002 0.24470
# Poissons Ratio (z) = 1.15741 1.15741
#
# Static dielectric constant tensor:
#      x y z
#    x 1.630050 0.000000 0.000000 
#    y 0.000000 1.630050 0.000000 
#    z 0.000000 0.000000 1.582620 
# 
# From -- ./inp_files/11129.got.cif
#   From: 2010.05.17/outbox.cif.g08.bks.cpg/sg131_6_cif.got.tgz:11129.got - 2010.05.20 12:21:01.
