data_PCOD9566299
_publ_section_title
;
Structure prediction by ZEFSAII (Michael W. Deem and Ramdas Pophale) SiO2 
 PCOD9566299
Probable space group: P 42/M M C
;
_chemical_formula_sum "Si O2"
_cell_formula_units_Z 88
_cell_length_a 18.933625
_cell_length_b 18.933625
_cell_length_c 14.710407
_cell_angle_alpha 90.000000
_cell_angle_beta 90.000000
_cell_angle_gamma 90.000000
_cell_volume 5273.418412
_symmetry_space_group_name_H-M "P 42/M M C"
_symmetry_group_IT_number 131
_symmetry_cell_setting 'tetragonal'
loop_
_space_group_symop_operation_xyz
x,y,z
-x,-y,z
-y,x,1/2+z
y,-x,1/2+z
-x,y,-z
x,-y,-z
y,x,1/2-z
-y,-x,1/2-z
-x,-y,-z
x,y,-z
y,-x,1/2-z
-y,x,1/2-z
x,-y,z
-x,y,z
-y,-x,1/2+z
y,x,1/2+z
loop_
_atom_site_type_symbol
_atom_site_label
_atom_site_fract_x
_atom_site_fract_y
_atom_site_fract_z
Si Si1 0.922191 0.915144 0.000000
Si Si2 0.274935 0.414952 0.895228
Si Si3 0.582483 0.194770 0.780690
Si Si4 0.421432 0.340586 0.890998
Si Si5 0.917359 0.327259 0.608094
Si Si6 0.083231 0.833043 0.323183
O O1 0.878597 0.898474 0.088602
O O2 0.000000 0.883688 0.000000
O O3 0.928228 0.000000 0.000000
O O4 0.275891 0.500000 0.892526
O O5 0.218289 0.391088 0.819664
O O6 0.353319 0.387980 0.869589
O O7 0.260092 0.393348 0.000000
O O8 0.500000 0.174986 0.773166
O O9 0.586334 0.266061 0.840712
O O10 0.624116 0.133846 0.832654
O O11 0.500000 0.369412 0.867492
O O12 0.420578 0.330132 0.000000
O O13 0.899683 0.327963 0.500000
O O14 0.910919 0.248236 0.647964
O O15 0.000000 0.347950 0.615720
O O16 0.137900 0.862101 0.250000
O O17 0.000000 0.846211 0.297968
#
# Coordination Sequence:
#
# PCOD9566299 Si02
#       6
#     8  16  16  16  16  16
#     4   9  16  28  48  74 103 135 172 206 235 278
#     4   9  18  32  50  74 105 141 178 213 250 300
#     4  10  20  34  53  75  99 130 171 217 264 313
#     4   9  17  29  47  74 107 140 174 215 258 301
#     4  10  21  38  57  76 102 131 162 212 271 318
#     4  10  19  32  51  77 107 140 173 204 245 297
#
# _framework density 16.687467000000002
#
# number of rings (size 3 to 8) (size 9 to 14) (size 15 to 20)
#    0.000    2.455    0.909    1.636    0.000    4.182 
#    0.000    2.727    2.000    3.818    0.000    2.545 
#    0.000    0.000    0.000    0.000    0.000    0.000 
#
# Total GULP energy -490254.977448 kJ/mol
# GULP energy per Si atom -5571.079289 kJ/mol
# Density = 1.664949 g / cm^3
# Si number density = 16.687467 Si / 1000 Ang^3
#
#
#
# Elastic Constant Matrix: (Units=GPa)
#
#
# Indices 1 2 3 4 5 6 
#
# 1 68.2073 48.7691 58.7674 0.0000 0.0000 0.0000
# 2 48.7691 68.2088 58.7685 0.0000 0.0000 0.0000
# 3 58.7674 58.7685 108.2953 0.0000 0.0000 0.0000
# 4 0.0000 0.0000 0.0000 30.5391 0.0000 0.0000
# 5 0.0000 0.0000 0.0000 0.0000 30.5369 0.0000
# 6 0.0000 0.0000 0.0000 0.0000 0.0000 30.1749
#
#
#
# Elastic Compliance Matrix: (Units=1/GPa)
#
#
# Indices 1 2 3 4 5 6 
#
# 1 0.035121 -0.016322 -0.010201 0.000000 0.000000 0.000000
# 2 -0.016322 0.035121 -0.010202 0.000000 0.000000 0.000000
# 3 -0.010201 -0.010202 0.020306 0.000000 0.000000 0.000000
# 4 0.000000 0.000000 0.000000 0.032745 0.000000 0.000000
# 5 0.000000 0.000000 0.000000 0.000000 0.032747 0.000000
# 6 0.000000 0.000000 0.000000 0.000000 0.000000 0.033140
#
#
# Mechanical properties :
#
#
# Convention : Reuss Voigt Hill
#
# Bulk Modulus (GPa) = 58.48697 64.14681 61.31689
# Shear Modulus (GPa) = 18.63381 23.47729 21.05555
#
# Velocity S-wave (km/s) = 3.34523 3.75491 3.55598
# Velocity P-wave (km/s) = 7.07427 7.57118 7.32694
#
# Compressibility (1/GPa) = 0.01709782
#
# Stress axis : x y z
#
# Youngs Moduli (GPa) = 28.47290 28.47316 49.24660
#
# Poissons Ratio (x) = 0.46474 0.50238
# Poissons Ratio (y) = 0.46474 0.50240
# Poissons Ratio (z) = 0.29046 0.29047
#
# Static dielectric constant tensor:
#      x y z
#    x 1.556080 0.000000 0.000000 
#    y 0.000000 1.556080 0.000000 
#    z 0.000000 0.000000 2.432800 
# 
# From -- ./inp_files/5915.got.cif
#   From: 2010.05.17/outbox.cif.g08.bks.cpg/sg131_3_cif.got.tgz:5915.got - 2010.05.20 12:21:01.
