data_PCOD9566378
_publ_section_title
;
Structure prediction by ZEFSAII (Michael W. Deem and Ramdas Pophale) SiO2 
 PCOD9566378
Probable space group: P 42/M M C
;
_chemical_formula_sum "Si O2"
_cell_formula_units_Z 104
_cell_length_a 17.855230
_cell_length_b 17.855230
_cell_length_c 18.270028
_cell_angle_alpha 90.000000
_cell_angle_beta 90.000000
_cell_angle_gamma 90.000000
_cell_volume 5824.653711
_symmetry_space_group_name_H-M "P 42/M M C"
_symmetry_group_IT_number 131
_symmetry_cell_setting 'tetragonal'
loop_
_space_group_symop_operation_xyz
x,y,z
-x,-y,z
-y,x,1/2+z
y,-x,1/2+z
-x,y,-z
x,-y,-z
y,x,1/2-z
-y,-x,1/2-z
-x,-y,-z
x,y,-z
y,-x,1/2-z
-y,x,1/2-z
x,-y,z
-x,y,z
-y,-x,1/2+z
y,x,1/2+z
loop_
_atom_site_type_symbol
_atom_site_label
_atom_site_fract_x
_atom_site_fract_y
_atom_site_fract_z
Si Si1 0.165988 0.316170 0.705923
Si Si2 0.624773 0.201789 0.416770
Si Si3 0.084585 0.500000 0.911249
Si Si4 0.589188 0.295114 0.280290
Si Si5 0.838809 0.769120 0.152237
Si Si6 0.413699 0.910062 0.083159
Si Si7 0.090137 0.915963 0.085899
O O1 0.225288 0.376865 0.734987
O O2 0.129022 0.275990 0.777199
O O3 0.210064 0.246699 0.670906
O O4 0.116800 0.356597 0.644960
O O5 0.605729 0.220557 0.500000
O O6 0.570781 0.134729 0.390249
O O7 0.611946 0.271817 0.363155
O O8 0.707987 0.168443 0.411076
O O9 0.000000 0.500000 0.882268
O O10 0.079642 0.500000 0.000000
O O11 0.632223 0.367778 0.250000
O O12 0.500000 0.300721 0.274513
O O13 0.878930 0.845968 0.131157
O O14 0.500000 0.886140 0.097949
O O15 0.413555 0.000000 0.082548
O O16 0.394063 0.885000 0.000000
O O17 0.000000 0.914845 0.089561
O O18 0.114801 0.000000 0.109721
O O19 0.111033 0.907741 0.000000
#
# Coordination Sequence:
#
# PCOD9566378 Si02
#       7
#    16  16   8  16  16  16  16
#     4  10  20  37  54  80 114 148 186 233 291 348
#     4  10  19  34  58  87 119 158 191 234 292 344
#     4   9  18  32  52  84 121 153 190 229 277 349
#     4  11  21  39  61  83 115 150 190 234 282 352
#     4  10  20  35  56  81 113 150 194 243 288 352
#     4   9  19  36  57  82 113 150 193 240 291 349
#     4   9  19  36  56  80 113 153 198 248 301 351
#
# _framework density 17.855139999999999
#
# number of rings (size 3 to 8) (size 9 to 14) (size 15 to 20)
#    0.000    2.231    3.846    1.846    0.000    3.231 
#    0.000    7.692    0.000    4.154    0.000    1.077 
#    0.000    0.000    0.000    0.000    0.000    0.000 
#
# Total GULP energy -579286.308369 kJ/mol
# GULP energy per Si atom -5570.060657 kJ/mol
# Density = 1.781450 g / cm^3
# Si number density = 17.855140 Si / 1000 Ang^3
#
#
#
# Elastic Constant Matrix: (Units=GPa)
#
#
# Indices 1 2 3 4 5 6 
#
# 1 96.7675 47.4476 55.6219 0.0000 0.0000 0.0000
# 2 47.4476 96.7688 55.6211 0.0000 0.0000 0.0000
# 3 55.6219 55.6211 98.0475 0.0000 0.0000 0.0000
# 4 0.0000 0.0000 0.0000 26.2889 0.0000 0.0000
# 5 0.0000 0.0000 0.0000 0.0000 26.2890 0.0000
# 6 0.0000 0.0000 0.0000 0.0000 0.0000 31.4065
#
#
#
# Elastic Compliance Matrix: (Units=1/GPa)
#
#
# Indices 1 2 3 4 5 6 
#
# 1 0.016303 -0.003973 -0.006994 0.000000 0.000000 0.000000
# 2 -0.003973 0.016302 -0.006994 0.000000 0.000000 0.000000
# 3 -0.006994 -0.006994 0.018135 0.000000 0.000000 0.000000
# 4 0.000000 0.000000 0.000000 0.038039 0.000000 0.000000
# 5 0.000000 0.000000 0.000000 0.000000 0.038039 0.000000
# 6 0.000000 0.000000 0.000000 0.000000 0.000000 0.031841
#
#
# Mechanical properties :
#
#
# Convention : Reuss Voigt Hill
#
# Bulk Modulus (GPa) = 67.49422 67.66276 67.57849
# Shear Modulus (GPa) = 25.06023 25.65643 25.35833
#
# Velocity S-wave (km/s) = 3.75044 3.79479 3.77268
# Velocity P-wave (km/s) = 7.52578 7.56163 7.54373
#
# Compressibility (1/GPa) = 0.01481608
#
# Stress axis : x y z
#
# Youngs Moduli (GPa) = 61.33984 61.34198 55.14308
#
# Poissons Ratio (x) = 0.24372 0.38570
# Poissons Ratio (y) = 0.24372 0.38567
# Poissons Ratio (z) = 0.42904 0.42902
#
# Static dielectric constant tensor:
#      x y z
#    x 1.609950 0.000000 0.000000 
#    y 0.000000 1.609960 0.000000 
#    z 0.000000 0.000000 1.652510 
# 
# From -- ./inp_files/8066.got.cif
#   From: 2010.05.17/outbox.cif.g08.bks.cpg/sg131_5_cif.got.tgz:8066.got - 2010.05.20 12:21:01.
