data_PCOD9566831
_publ_section_title
;
Structure prediction by ZEFSAII (Michael W. Deem and Ramdas Pophale) SiO2 
 PCOD9566831
Probable space group: P 42/M M C
;
_chemical_formula_sum "Si O2"
_cell_formula_units_Z 96
_cell_length_a 15.366236
_cell_length_b 15.366236
_cell_length_c 20.405563
_cell_angle_alpha 90.000000
_cell_angle_beta 90.000000
_cell_angle_gamma 90.000000
_cell_volume 4818.186202
_symmetry_space_group_name_H-M "P 42/M M C"
_symmetry_group_IT_number 131
_symmetry_cell_setting 'tetragonal'
loop_
_space_group_symop_operation_xyz
x,y,z
-x,-y,z
-y,x,1/2+z
y,-x,1/2+z
-x,y,-z
x,-y,-z
y,x,1/2-z
-y,-x,1/2-z
-x,-y,-z
x,y,-z
y,-x,1/2-z
-y,x,1/2-z
x,-y,z
-x,y,z
-y,-x,1/2+z
y,x,1/2+z
loop_
_atom_site_type_symbol
_atom_site_label
_atom_site_fract_x
_atom_site_fract_y
_atom_site_fract_z
Si Si1 0.095065 0.396594 0.426819
Si Si2 0.668599 0.242267 0.166273
Si Si3 0.100067 0.863945 0.924284
Si Si4 0.681323 0.818703 0.423452
Si Si5 0.097647 0.793219 0.703320
Si Si6 0.400027 0.599974 0.250000
Si Si7 0.500000 0.098011 0.579680
O O1 0.107146 0.359571 0.500000
O O2 0.088304 0.500000 0.432223
O O3 0.178020 0.380057 0.382923
O O4 0.000000 0.365103 0.401823
O O5 0.741348 0.290606 0.123460
O O6 0.717653 0.169945 0.211099
O O7 0.613868 0.317567 0.201475
O O8 0.110821 0.759030 0.920516
O O9 0.168406 0.898527 0.870869
O O10 0.000000 0.888416 0.910029
O O11 0.119239 0.888682 0.000000
O O12 0.675433 0.791501 0.500000
O O13 0.588737 0.855101 0.401564
O O14 0.128962 0.871039 0.750000
O O15 0.000000 0.766199 0.719728
O O16 0.500000 0.606659 0.276518
O O17 0.500000 0.094958 0.500000
O O18 0.500000 0.000000 0.604541
#
# Coordination Sequence:
#
# PCOD9566831 Si02
#       7
#    16  16  16  16  16   8   8
#     4   9  18  34  61  97 129 157 191 234 294 369
#     4  11  21  39  61  85 118 157 194 251 304 359
#     4   9  18  33  52  76 111 156 206 255 299 352
#     4   9  18  30  51  82 112 147 189 239 300 363
#     4  11  23  38  56  83 118 161 206 251 306 364
#     4  11  26  46  68  88 111 154 210 258 309 372
#     4   9  16  28  48  76 111 151 193 237 289 350
#
# _framework density 19.924510999999999
#
# number of rings (size 3 to 8) (size 9 to 14) (size 15 to 20)
#    0.000    2.167    0.833    3.000    1.167    4.167 
#    0.000    0.833    0.000    0.000    0.000    3.500 
#    0.000    0.000    0.000    0.000    0.000    0.000 
#
# Total GULP energy -535285.213894 kJ/mol
# GULP energy per Si atom -5575.887645 kJ/mol
# Density = 1.987916 g / cm^3
# Si number density = 19.924511 Si / 1000 Ang^3
#
#
#
# Elastic Constant Matrix: (Units=GPa)
#
#
# Indices 1 2 3 4 5 6 
#
# 1 124.7782 47.1916 27.2347 0.0000 0.0000 0.0000
# 2 47.1916 124.7777 27.2344 0.0000 0.0000 0.0000
# 3 27.2347 27.2344 41.5358 0.0000 0.0000 0.0000
# 4 0.0000 0.0000 0.0000 39.1056 0.0000 0.0000
# 5 0.0000 0.0000 0.0000 0.0000 39.1052 0.0000
# 6 0.0000 0.0000 0.0000 0.0000 0.0000 14.3951
#
#
#
# Elastic Compliance Matrix: (Units=1/GPa)
#
#
# Indices 1 2 3 4 5 6 
#
# 1 0.010114 -0.002775 -0.004812 0.000000 0.000000 0.000000
# 2 -0.002775 0.010114 -0.004812 0.000000 0.000000 0.000000
# 3 -0.004812 -0.004812 0.030386 0.000000 0.000000 0.000000
# 4 0.000000 0.000000 0.000000 0.025572 0.000000 0.000000
# 5 0.000000 0.000000 0.000000 0.000000 0.025572 0.000000
# 6 0.000000 0.000000 0.000000 0.000000 0.000000 0.069468
#
#
# Mechanical properties :
#
#
# Convention : Reuss Voigt Hill
#
# Bulk Modulus (GPa) = 38.73604 54.93480 46.83542
# Shear Modulus (GPa) = 24.43436 31.14993 27.79215
#
# Velocity S-wave (km/s) = 3.50572 3.95827 3.73885
# Velocity P-wave (km/s) = 5.98919 6.96576 6.49586
#
# Compressibility (1/GPa) = 0.02581575
#
# Stress axis : x y z
#
# Youngs Moduli (GPa) = 98.87265 98.87251 32.90960
#
# Poissons Ratio (x) = 0.27436 0.15837
# Poissons Ratio (y) = 0.27436 0.15837
# Poissons Ratio (z) = 0.47580 0.47579
#
# Static dielectric constant tensor:
#      x y z
#    x 1.717510 0.000000 0.000000 
#    y 0.000000 1.717510 0.000000 
#    z 0.000000 0.000000 1.756270 
# 
# From -- ./inp_files/11168.got.cif
#   From: 2010.05.17/outbox.cif.g08.bks.cpg/sg131_6_cif.got.tgz:11168.got - 2010.05.20 12:21:01.
