data_PCOD9566973
_publ_section_title
;
Structure prediction by ZEFSAII (Michael W. Deem and Ramdas Pophale) SiO2 
 PCOD9566973
Probable space group: P 42/M C M
;
_chemical_formula_sum "Si O2"
_cell_formula_units_Z 96
_cell_length_a 19.826977
_cell_length_b 19.826977
_cell_length_c 18.096756
_cell_angle_alpha 90.000000
_cell_angle_beta 90.000000
_cell_angle_gamma 90.000000
_cell_volume 7113.997961
_symmetry_space_group_name_H-M "P 42/M C M"
_symmetry_group_IT_number 132
_symmetry_cell_setting 'tetragonal'
loop_
_space_group_symop_operation_xyz
x,y,z
-y,x,1/2+z
-x,-y,z
y,-x,1/2+z
x,-y,1/2-z
-x,y,1/2-z
y,x,-z
-y,-x,-z
-x,-y,-z
y,-x,1/2-z
x,y,-z
-y,x,1/2-z
-x,y,1/2+z
x,-y,1/2+z
-y,-x,z
y,x,z
loop_
_atom_site_type_symbol
_atom_site_label
_atom_site_fract_x
_atom_site_fract_y
_atom_site_fract_z
Si Si1 0.081682 0.504726 0.416879
Si Si2 0.643985 0.928988 0.846348
Si Si3 0.856328 0.746823 0.586859
Si Si4 0.137610 0.967327 0.089176
Si Si5 0.210495 0.102415 0.910735
Si Si6 0.911723 0.374795 0.173496
O O1 0.104764 0.489139 0.500000
O O2 0.097743 0.581156 0.394147
O O3 0.104696 0.448607 0.358439
O O4 0.000000 0.500000 0.416574
O O5 0.716536 0.904822 0.874263
O O6 0.630103 0.909729 0.761540
O O7 0.641894 0.010762 0.849768
O O8 0.862943 0.729846 0.500000
O O9 0.786893 0.786893 0.597840
O O10 0.915514 0.801032 0.603618
O O11 0.865816 0.681573 0.636021
O O12 0.069189 0.930812 0.116718
O O13 0.161962 0.040543 0.114465
O O14 0.130456 0.971955 0.000000
O O15 0.171565 0.171565 0.894261
O O16 0.217850 0.096717 0.000000
#
# Coordination Sequence:
#
# PCOD9566973 Si02
#       6
#    16  16  16  16  16  16
#     4   9  17  28  44  62  78  99 125 158 197 240
#     4  10  19  29  40  58  83 104 127 163 203 244
#     4   9  16  26  42  61  78  99 130 169 210 249
#     4   8  14  25  40  56  73  95 129 176 220 249
#     4  10  19  29  42  58  77 105 140 174 209 250
#     4  10  18  28  43  60  79 102 129 159 203 251
#
# _framework density 13.494522
#
# number of rings (size 3 to 8) (size 9 to 14) (size 15 to 20)
#    0.000    2.667    1.667    2.500    0.000    4.333 
#    0.000    1.667    0.000    0.000    0.000    0.000 
#    0.000    0.000    0.000    0.000    0.000    0.833 
#
# Total GULP energy -534742.274901 kJ/mol
# GULP energy per Si atom -5570.232030 kJ/mol
# Density = 1.346381 g / cm^3
# Si number density = 13.494522 Si / 1000 Ang^3
#
#
#
# Elastic Constant Matrix: (Units=GPa)
#
#
# Indices 1 2 3 4 5 6 
#
# 1 64.7737 31.9932 29.7643 0.0000 0.0000 0.0000
# 2 31.9932 64.7737 29.7643 0.0000 0.0000 0.0000
# 3 29.7643 29.7643 34.5083 0.0000 0.0000 0.0000
# 4 0.0000 0.0000 0.0000 13.4446 0.0000 0.0000
# 5 0.0000 0.0000 0.0000 0.0000 13.4446 0.0000
# 6 0.0000 0.0000 0.0000 0.0000 0.0000 7.9512
#
#
#
# Elastic Compliance Matrix: (Units=1/GPa)
#
#
# Indices 1 2 3 4 5 6 
#
# 1 0.026261 -0.004245 -0.018989 0.000000 0.000000 0.000000
# 2 -0.004245 0.026261 -0.018989 0.000000 0.000000 0.000000
# 3 -0.018989 -0.018989 0.061736 0.000000 0.000000 0.000000
# 4 0.000000 0.000000 0.000000 0.074379 0.000000 0.000000
# 5 0.000000 0.000000 0.000000 0.000000 0.074379 0.000000
# 6 0.000000 0.000000 0.000000 0.000000 0.000000 0.125768
#
#
# Mechanical properties :
#
#
# Convention : Reuss Voigt Hill
#
# Bulk Modulus (GPa) = 33.54498 38.56659 36.05579
# Shear Modulus (GPa) = 10.34838 11.80368 11.07603
#
# Velocity S-wave (km/s) = 2.77222 2.96074 2.86803
# Velocity P-wave (km/s) = 5.92952 6.35055 6.14364
#
# Compressibility (1/GPa) = 0.02981072
#
# Stress axis : x y z
#
# Youngs Moduli (GPa) = 38.07948 38.07948 16.19802
#
# Poissons Ratio (x) = 0.16165 0.30759
# Poissons Ratio (y) = 0.16165 0.30759
# Poissons Ratio (z) = 0.72310 0.72310
#
# Static dielectric constant tensor:
#      x y z
#    x 1.431730 0.000000 0.000000 
#    y 0.000000 1.431730 0.000000 
#    z 0.000000 0.000000 1.454440 
# 
# From -- ./inp_files/6493.got.cif
#   From: 2010.05.17/outbox.cif.g08.bks.cpg/sg132_4_cif.got.tgz:6493.got - 2010.05.20 12:30:18.
