data_PCOD9566552
_publ_section_title
;
Structure prediction by ZEFSAII (Michael W. Deem and Ramdas Pophale) SiO2 
 PCOD9566552
Probable space group: P 42/M M C
;
_chemical_formula_sum "Si O2"
_cell_formula_units_Z 64
_cell_length_a 13.001444
_cell_length_b 13.001444
_cell_length_c 22.714517
_cell_angle_alpha 90.000000
_cell_angle_beta 90.000000
_cell_angle_gamma 90.000000
_cell_volume 3839.606214
_symmetry_space_group_name_H-M "P 42/M M C"
_symmetry_group_IT_number 131
_symmetry_cell_setting 'tetragonal'
loop_
_space_group_symop_operation_xyz
x,y,z
-x,-y,z
-y,x,1/2+z
y,-x,1/2+z
-x,y,-z
x,-y,-z
y,x,1/2-z
-y,-x,1/2-z
-x,-y,-z
x,y,-z
y,-x,1/2-z
-y,x,1/2-z
x,-y,z
-x,y,z
-y,-x,1/2+z
y,x,1/2+z
loop_
_atom_site_type_symbol
_atom_site_label
_atom_site_fract_x
_atom_site_fract_y
_atom_site_fract_z
Si Si1 0.221665 0.623297 0.123662
Si Si2 0.291055 0.121232 0.740099
Si Si3 0.380659 0.801132 0.859103
Si Si4 0.374646 0.000000 0.068178
Si Si5 0.115902 0.375782 0.000000
O O1 0.239435 0.500000 0.126205
O O2 0.148482 0.658229 0.177392
O O3 0.321367 0.694794 0.131277
O O4 0.173010 0.650590 0.060416
O O5 0.186661 0.186661 0.750000
O O6 0.364710 0.161426 0.792205
O O7 0.274831 0.000000 0.745342
O O8 0.500000 0.786915 0.872214
O O9 0.340142 0.895792 0.899167
O O10 0.500000 0.000000 0.071437
O O11 0.344938 0.000000 0.000000
O O12 0.110084 0.500000 0.000000
O O13 0.000000 0.334601 0.000000
#
# Coordination Sequence:
#
# PCOD9566552 Si02
#       5
#    16  16  16   8   8
#     4  10  21  34  52  79 108 140 177 215 262 317
#     4  10  20  35  55  79 104 135 175 221 269 316
#     4  10  20  34  54  79 107 139 176 217 262 314
#     4   9  18  32  52  76 100 135 177 215 256 302
#     4   9  18  34  53  74 101 136 177 218 257 304
#
# _framework density 16.668375999999999
#
# number of rings (size 3 to 8) (size 9 to 14) (size 15 to 20)
#    0.000    2.250    1.250    1.500    1.750    3.250 
#    0.000    0.000    0.000    6.750    0.000    0.875 
#    0.000    0.000    0.000    0.000    0.000    0.000 
#
# Total GULP energy -356736.563890 kJ/mol
# GULP energy per Si atom -5574.008811 kJ/mol
# Density = 1.663044 g / cm^3
# Si number density = 16.668376 Si / 1000 Ang^3
#
#
#
# Elastic Constant Matrix: (Units=GPa)
#
#
# Indices 1 2 3 4 5 6 
#
# 1 93.3504 52.1587 36.7698 0.0000 0.0000 0.0000
# 2 52.1587 93.3504 36.7698 0.0000 0.0000 0.0000
# 3 36.7698 36.7698 140.9215 0.0000 0.0000 0.0000
# 4 0.0000 0.0000 0.0000 17.0343 0.0000 0.0000
# 5 0.0000 0.0000 0.0000 0.0000 17.0343 0.0000
# 6 0.0000 0.0000 0.0000 0.0000 0.0000 1.4736
#
#
#
# Elastic Compliance Matrix: (Units=1/GPa)
#
#
# Indices 1 2 3 4 5 6 
#
# 1 0.016097 -0.008180 -0.002066 0.000000 0.000000 0.000000
# 2 -0.008180 0.016097 -0.002066 0.000000 0.000000 0.000000
# 3 -0.002066 -0.002066 0.008174 0.000000 0.000000 0.000000
# 4 0.000000 0.000000 0.000000 0.058705 0.000000 0.000000
# 5 0.000000 0.000000 0.000000 0.000000 0.058705 0.000000
# 6 0.000000 0.000000 0.000000 0.000000 0.000000 0.678629
#
#
# Mechanical properties :
#
#
# Convention : Reuss Voigt Hill
#
# Bulk Modulus (GPa) = 63.51424 64.33542 63.92483
# Shear Modulus (GPa) = 5.77183 20.57006 13.17095
#
# Velocity S-wave (km/s) = 1.86286 3.51675 2.81406
# Velocity P-wave (km/s) = 6.54327 7.42773 6.99948
#
# Compressibility (1/GPa) = 0.01574450
#
# Stress axis : x y z
#
# Youngs Moduli (GPa) = 62.12523 62.12523 122.33827
#
# Poissons Ratio (x) = 0.50820 0.25270
# Poissons Ratio (y) = 0.50820 0.25270
# Poissons Ratio (z) = 0.12832 0.12832
#
# Static dielectric constant tensor:
#      x y z
#    x 1.545940 0.000000 0.000000 
#    y 0.000000 1.545940 0.000000 
#    z 0.000000 0.000000 1.572870 
# 
# From -- ./inp_files/10834.got.cif
#   From: 2010.05.17/outbox.cif.g08.bks.cpg/sg131_6_cif.got.tgz:10834.got - 2010.05.20 12:21:01.
