data_PCOD9566598
_publ_section_title
;
Structure prediction by ZEFSAII (Michael W. Deem and Ramdas Pophale) SiO2 
 PCOD9566598
Probable space group: P 42/M M C
;
_chemical_formula_sum "Si O2"
_cell_formula_units_Z 112
_cell_length_a 14.726953
_cell_length_b 14.726953
_cell_length_c 24.282154
_cell_angle_alpha 90.000000
_cell_angle_beta 90.000000
_cell_angle_gamma 90.000000
_cell_volume 5266.389919
_symmetry_space_group_name_H-M "P 42/M M C"
_symmetry_group_IT_number 131
_symmetry_cell_setting 'tetragonal'
loop_
_space_group_symop_operation_xyz
x,y,z
-x,-y,z
-y,x,1/2+z
y,-x,1/2+z
-x,y,-z
x,-y,-z
y,x,1/2-z
-y,-x,1/2-z
-x,-y,-z
x,y,-z
y,-x,1/2-z
-y,x,1/2-z
x,-y,z
-x,y,z
-y,-x,1/2+z
y,x,1/2+z
loop_
_atom_site_type_symbol
_atom_site_label
_atom_site_fract_x
_atom_site_fract_y
_atom_site_fract_z
Si Si1 0.108398 0.900790 0.166217
Si Si2 0.600332 0.793829 0.064046
Si Si3 0.891435 0.300414 0.825677
Si Si4 0.402018 0.395674 0.394240
Si Si5 0.273432 0.601568 0.785888
Si Si6 0.105031 0.774299 0.562391
Si Si7 0.395585 0.889949 0.561886
O O1 0.135394 0.802751 0.189582
O O2 0.140619 0.893537 0.102967
O O3 0.000000 0.903331 0.169628
O O4 0.141817 0.000000 0.187720
O O5 0.500000 0.815817 0.087479
O O6 0.613003 0.685986 0.068425
O O7 0.689431 0.840939 0.087913
O O8 0.599013 0.821229 0.000000
O O9 0.830874 0.370187 0.791837
O O10 0.867897 0.325533 0.889612
O O11 0.000000 0.310967 0.819363
O O12 0.399943 0.500000 0.372407
O O13 0.500000 0.384146 0.422322
O O14 0.396752 0.323903 0.345008
O O15 0.326223 0.673778 0.750000
O O16 0.282746 0.500000 0.763440
O O17 0.136370 0.795135 0.500000
O O18 0.000000 0.745642 0.559098
O O19 0.373196 0.857160 0.500000
O O20 0.500000 0.861365 0.575163
O O21 0.397395 0.000000 0.559639
#
# Coordination Sequence:
#
# PCOD9566598 Si02
#       7
#    16  16  16  16  16  16  16
#     4   9  18  32  50  73 102 138 179 220 262 312
#     4   9  17  29  47  72 102 136 172 211 259 319
#     4  10  20  35  57  84 115 151 188 229 282 342
#     4   9  18  33  53  76 101 130 166 210 262 321
#     4  11  23  39  60  84 108 137 178 228 282 336
#     4   9  17  28  42  63  95 136 181 226 264 298
#     4   8  14  26  46  74 109 147 183 220 270 337
#
# _framework density 21.266940999999999
#
# number of rings (size 3 to 8) (size 9 to 14) (size 15 to 20)
#    0.000    2.714    0.000    2.143    0.000    3.000 
#    0.000    7.143    0.000    1.714    0.000    2.000 
#    0.000    0.000    0.000    0.000    0.000    0.000 
#
# Total GULP energy -624321.195032 kJ/mol
# GULP energy per Si atom -5574.296384 kJ/mol
# Density = 2.121854 g / cm^3
# Si number density = 21.266941 Si / 1000 Ang^3
#
#
#
# Elastic Constant Matrix: (Units=GPa)
#
#
# Indices 1 2 3 4 5 6 
#
# 1 53.7490 21.4633 17.7795 0.0000 0.0000 0.0000
# 2 21.4633 53.7491 17.7804 0.0000 0.0000 0.0000
# 3 17.7795 17.7804 32.3078 0.0000 0.0000 0.0000
# 4 0.0000 0.0000 0.0000 18.4862 0.0000 0.0000
# 5 0.0000 0.0000 0.0000 0.0000 18.4868 0.0000
# 6 0.0000 0.0000 0.0000 0.0000 0.0000 27.1205
#
#
#
# Elastic Compliance Matrix: (Units=1/GPa)
#
#
# Indices 1 2 3 4 5 6 
#
# 1 0.024472 -0.006501 -0.009890 0.000000 0.000000 0.000000
# 2 -0.006501 0.024473 -0.009891 0.000000 0.000000 0.000000
# 3 -0.009890 -0.009891 0.041838 0.000000 0.000000 0.000000
# 4 0.000000 0.000000 0.000000 0.054094 0.000000 0.000000
# 5 0.000000 0.000000 0.000000 0.000000 0.054093 0.000000
# 6 0.000000 0.000000 0.000000 0.000000 0.000000 0.036872
#
#
# Mechanical properties :
#
#
# Convention : Reuss Voigt Hill
#
# Bulk Modulus (GPa) = 26.16419 28.20581 27.18500
# Shear Modulus (GPa) = 16.60324 18.33757 17.47040
#
# Velocity S-wave (km/s) = 2.79714 2.93961 2.86926
# Velocity P-wave (km/s) = 4.77090 4.98129 4.87723
#
# Compressibility (1/GPa) = 0.03822018
#
# Stress axis : x y z
#
# Youngs Moduli (GPa) = 40.86248 40.86158 23.90157
#
# Poissons Ratio (x) = 0.26563 0.23638
# Poissons Ratio (y) = 0.26564 0.23641
# Poissons Ratio (z) = 0.40412 0.40416
#
# Static dielectric constant tensor:
#      x y z
#    x 1.788640 0.000000 0.000000 
#    y 0.000000 1.788640 0.000000 
#    z 0.000000 0.000000 1.790120 
# 
# From -- ./inp_files/12430.got.cif
#   From: 2010.05.17/outbox.cif.g08.bks.cpg/sg131_7_cif.got.tgz:12430.got - 2010.05.20 12:21:01.
