data_PCOD9566884
_publ_section_title
;
Structure prediction by ZEFSAII (Michael W. Deem and Ramdas Pophale) SiO2 
 PCOD9566884
Probable space group: P 42/M M C
;
_chemical_formula_sum "Si O2"
_cell_formula_units_Z 72
_cell_length_a 14.994326
_cell_length_b 14.994326
_cell_length_c 17.798415
_cell_angle_alpha 90.000000
_cell_angle_beta 90.000000
_cell_angle_gamma 90.000000
_cell_volume 4001.614302
_symmetry_space_group_name_H-M "P 42/M M C"
_symmetry_group_IT_number 131
_symmetry_cell_setting 'tetragonal'
loop_
_space_group_symop_operation_xyz
x,y,z
-x,-y,z
-y,x,1/2+z
y,-x,1/2+z
-x,y,-z
x,-y,-z
y,x,1/2-z
-y,-x,1/2-z
-x,-y,-z
x,y,-z
y,-x,1/2-z
-y,x,1/2-z
x,-y,z
-x,y,z
-y,-x,1/2+z
y,x,1/2+z
loop_
_atom_site_type_symbol
_atom_site_label
_atom_site_fract_x
_atom_site_fract_y
_atom_site_fract_z
Si Si1 0.897272 0.304458 0.408988
Si Si2 0.500000 0.108038 0.915059
Si Si3 0.725768 0.244284 0.337384
Si Si4 0.396542 0.106636 0.587014
Si Si5 0.604911 0.602973 0.590116
O O1 0.895248 0.307314 0.500000
O O2 0.870958 0.404402 0.380567
O O3 0.821520 0.240706 0.378231
O O4 0.000000 0.285748 0.387483
O O5 0.500000 0.000000 0.921226
O O6 0.500000 0.145693 0.000000
O O7 0.741853 0.258148 0.250000
O O8 0.668439 0.157650 0.357710
O O9 0.668459 0.326872 0.370078
O O10 0.376976 0.131948 0.500000
O O11 0.500000 0.130333 0.601205
O O12 0.388833 0.000000 0.592730
O O13 0.614704 0.611968 0.500000
O O14 0.626112 0.500000 0.609589
O O15 0.500000 0.618291 0.607552
#
# Coordination Sequence:
#
# PCOD9566884 Si02
#       5
#    16   8  16  16  16
#     4   9  18  34  55  77 102 137 182 225 261 307
#     4   7  12  26  48  72  97 127 168 215 253 289
#     4  12  24  33  50  80 118 149 172 213 277 348
#     4   9  19  39  65  85 102 136 193 251 287 314
#     4   9  19  36  55  73  98 139 190 234 267 310
#
# _framework density 17.992737000000002
#
# number of rings (size 3 to 8) (size 9 to 14) (size 15 to 20)
#    0.000    2.556    0.000    5.333    1.556    4.444 
#    0.000    1.111    0.000    0.667    0.000    4.667 
#    0.000    0.000    0.000    0.000    0.000    0.000 
#
# Total GULP energy -401683.976097 kJ/mol
# GULP energy per Si atom -5578.944112 kJ/mol
# Density = 1.795179 g / cm^3
# Si number density = 17.992737 Si / 1000 Ang^3
#
#
#
# Elastic Constant Matrix: (Units=GPa)
#
#
# Indices 1 2 3 4 5 6 
#
# 1 64.3364 39.6279 37.5467 0.0000 0.0000 0.0000
# 2 39.6279 64.3364 37.5467 0.0000 0.0000 0.0000
# 3 37.5467 37.5467 54.3171 0.0000 0.0000 0.0000
# 4 0.0000 0.0000 0.0000 244.7782 0.0000 0.0000
# 5 0.0000 0.0000 0.0000 0.0000 244.7749 0.0000
# 6 0.0000 0.0000 0.0000 0.0000 0.0000 27.1315
#
#
#
# Elastic Compliance Matrix: (Units=1/GPa)
#
#
# Indices 1 2 3 4 5 6 
#
# 1 0.029841 -0.010631 -0.013279 0.000000 0.000000 0.000000
# 2 -0.010631 0.029841 -0.013279 0.000000 0.000000 0.000000
# 3 -0.013279 -0.013279 0.036769 0.000000 0.000000 0.000000
# 4 0.000000 0.000000 0.000000 0.004085 0.000000 0.000000
# 5 0.000000 0.000000 0.000000 0.000000 0.004085 0.000000
# 6 0.000000 0.000000 0.000000 0.000000 0.000000 0.036857
#
#
# Mechanical properties :
#
#
# Convention : Reuss Voigt Hill
#
# Bulk Modulus (GPa) = 45.30450 45.82583 45.56516
# Shear Modulus (GPa) = 22.40002 107.88816 65.14409
#
# Velocity S-wave (km/s) = 3.53221 7.75192 6.02365
# Velocity P-wave (km/s) = 6.47065 10.27849 8.58827
#
# Compressibility (1/GPa) = 0.02207286
#
# Stress axis : x y z
#
# Youngs Moduli (GPa) = 33.51094 33.51095 27.19713
#
# Poissons Ratio (x) = 0.35625 0.36115
# Poissons Ratio (y) = 0.35625 0.36115
# Poissons Ratio (z) = 0.44499 0.44499
#
# Static dielectric constant tensor:
#      x y z
#    x 1.629220 0.000000 0.000000 
#    y 0.000000 1.629220 0.000000 
#    z 0.000000 0.000000 1.602690 
# 
# From -- ./inp_files/7597.got.cif
#   From: 2010.05.17/outbox.cif.g08.bks.cpg/sg131_4_cif.got.tgz:7597.got - 2010.05.20 12:21:01.
