data_PCOD9566469
_publ_section_title
;
Structure prediction by ZEFSAII (Michael W. Deem and Ramdas Pophale) SiO2 
 PCOD9566469
Probable space group: P 42/M M C
;
_chemical_formula_sum "Si O2"
_cell_formula_units_Z 120
_cell_length_a 14.376940
_cell_length_b 14.376940
_cell_length_c 31.848646
_cell_angle_alpha 90.000000
_cell_angle_beta 90.000000
_cell_angle_gamma 90.000000
_cell_volume 6583.000593
_symmetry_space_group_name_H-M "P 42/M M C"
_symmetry_group_IT_number 131
_symmetry_cell_setting 'tetragonal'
loop_
_space_group_symop_operation_xyz
x,y,z
-x,-y,z
-y,x,1/2+z
y,-x,1/2+z
-x,y,-z
x,-y,-z
y,x,1/2-z
-y,-x,1/2-z
-x,-y,-z
x,y,-z
y,-x,1/2-z
-y,x,1/2-z
x,-y,z
-x,y,z
-y,-x,1/2+z
y,x,1/2+z
loop_
_atom_site_type_symbol
_atom_site_label
_atom_site_fract_x
_atom_site_fract_y
_atom_site_fract_z
Si Si1 0.113579 0.000000 0.048065
Si Si2 0.649050 0.896376 0.644415
Si Si3 0.390640 0.387388 0.954364
Si Si4 0.146370 0.108390 0.615948
Si Si5 0.111253 0.106759 0.293886
Si Si6 0.604859 0.307584 0.367185
Si Si7 0.612192 0.895650 0.259736
Si Si8 0.291241 0.389201 0.711914
O O1 0.143514 0.089625 0.075918
O O2 0.000000 0.000000 0.045353
O O3 0.147194 0.000000 0.000000
O O4 0.742793 0.892646 0.616809
O O5 0.596929 0.803377 0.632550
O O6 0.662704 0.886900 0.695074
O O7 0.608588 0.000000 0.638907
O O8 0.382978 0.500000 0.954756
O O9 0.500000 0.365403 0.951494
O O10 0.340540 0.357003 0.912089
O O11 0.355835 0.354050 0.000000
O O12 0.124586 0.153873 0.661164
O O13 0.115295 0.000000 0.619158
O O14 0.147791 0.147791 0.250000
O O15 0.000000 0.101257 0.288178
O O16 0.147441 0.000000 0.297495
O O17 0.500000 0.346662 0.360395
O O18 0.672156 0.339076 0.329787
O O19 0.500000 0.888893 0.268741
O O20 0.634158 0.813087 0.227716
O O21 0.630612 0.000000 0.243564
O O22 0.357400 0.357400 0.750000
O O23 0.296303 0.500000 0.705825
#
# Coordination Sequence:
#
# PCOD9566469 Si02
#       8
#     8  16  16  16  16  16  16  16
#     4   9  16  28  50  72  92 124 163 211 279 349
#     4  10  20  33  49  68  98 141 189 231 262 305
#     4   8  15  30  53  80 107 134 166 207 263 336
#     4   9  16  28  44  63  90 118 161 220 262 312
#     4   8  12  20  36  56  78 107 142 185 245 306
#     4  11  21  34  53  78 111 146 182 225 279 336
#     4   9  18  35  55  71  97 145 195 226 259 317
#     4  11  21  33  52  81 115 145 177 224 276 335
#
# _framework density 18.228769
#
# number of rings (size 3 to 8) (size 9 to 14) (size 15 to 20)
#    0.000    2.600    2.000    2.000    0.000    2.267 
#    2.400    0.667    1.467    1.200    0.000    1.867 
#    0.000    0.000    0.000    4.933    0.000    0.133 
#
# Total GULP energy -668092.521853 kJ/mol
# GULP energy per Si atom -5567.437682 kJ/mol
# Density = 1.818728 g / cm^3
# Si number density = 18.228769 Si / 1000 Ang^3
#
#
#
# Elastic Constant Matrix: (Units=GPa)
#
#
# Indices 1 2 3 4 5 6 
#
# 1 73.5614 22.2019 44.5805 0.0000 0.0000 0.0000
# 2 22.2019 73.5614 44.5805 0.0000 0.0000 0.0000
# 3 44.5805 44.5805 165.6788 0.0000 0.0000 0.0000
# 4 0.0000 0.0000 0.0000 7.5646 0.0000 0.0000
# 5 0.0000 0.0000 0.0000 0.0000 7.5646 0.0000
# 6 0.0000 0.0000 0.0000 0.0000 0.0000 11.9720
#
#
#
# Elastic Compliance Matrix: (Units=1/GPa)
#
#
# Indices 1 2 3 4 5 6 
#
# 1 0.016702 -0.002769 -0.003749 0.000000 0.000000 0.000000
# 2 -0.002769 0.016702 -0.003749 0.000000 0.000000 0.000000
# 3 -0.003749 -0.003749 0.008053 0.000000 0.000000 0.000000
# 4 0.000000 0.000000 0.000000 0.132194 0.000000 0.000000
# 5 0.000000 0.000000 0.000000 0.000000 0.132194 0.000000
# 6 0.000000 0.000000 0.000000 0.000000 0.000000 0.083528
#
#
# Mechanical properties :
#
#
# Convention : Reuss Voigt Hill
#
# Bulk Modulus (GPa) = 47.79402 59.50305 53.64853
# Shear Modulus (GPa) = 11.99383 18.84950 15.42166
#
# Velocity S-wave (km/s) = 2.56786 3.21916 2.91178
# Velocity P-wave (km/s) = 5.92181 6.82133 6.38742
#
# Compressibility (1/GPa) = 0.02092312
#
# Stress axis : x y z
#
# Youngs Moduli (GPa) = 59.87373 59.87373 124.17171
#
# Poissons Ratio (x) = 0.16578 0.46553
# Poissons Ratio (y) = 0.16578 0.46553
# Poissons Ratio (z) = 0.22447 0.22447
#
# Static dielectric constant tensor:
#      x y z
#    x 1.666040 0.000000 0.000000 
#    y 0.000000 1.666040 0.000000 
#    z 0.000000 0.000000 1.649330 
# 
# From -- ./inp_files/13958.got.cif
#   From: 2010.05.17/outbox.cif.g08.bks.cpg/sg131_7_cif.got.tgz:13958.got - 2010.05.20 12:21:01.
