data_PCOD9566446
_publ_section_title
;
Structure prediction by ZEFSAII (Michael W. Deem and Ramdas Pophale) SiO2 
 PCOD9566446
Probable space group: P 42/M M C
;
_chemical_formula_sum "Si O2"
_cell_formula_units_Z 96
_cell_length_a 23.537676
_cell_length_b 23.537676
_cell_length_c 8.833954
_cell_angle_alpha 90.000000
_cell_angle_beta 90.000000
_cell_angle_gamma 90.000000
_cell_volume 4894.206555
_symmetry_space_group_name_H-M "P 42/M M C"
_symmetry_group_IT_number 131
_symmetry_cell_setting 'tetragonal'
loop_
_space_group_symop_operation_xyz
x,y,z
-x,-y,z
-y,x,1/2+z
y,-x,1/2+z
-x,y,-z
x,-y,-z
y,x,1/2-z
-y,-x,1/2-z
-x,-y,-z
x,y,-z
y,-x,1/2-z
-y,x,1/2-z
x,-y,z
-x,y,z
-y,-x,1/2+z
y,x,1/2+z
loop_
_atom_site_type_symbol
_atom_site_label
_atom_site_fract_x
_atom_site_fract_y
_atom_site_fract_z
Si Si1 0.898028 0.433900 0.683173
Si Si2 0.434247 0.347067 0.679712
Si Si3 0.431348 0.768615 0.170981
Si Si4 0.678889 0.063412 0.318997
Si Si5 0.233536 0.148972 0.820523
Si Si6 0.066110 0.857727 0.823238
O O1 0.903182 0.429101 0.500000
O O2 0.909884 0.500000 0.721174
O O3 0.832356 0.419940 0.723906
O O4 0.934232 0.386470 0.766193
O O5 0.394891 0.394891 0.750000
O O6 0.433072 0.351161 0.500000
O O7 0.500000 0.353666 0.730233
O O8 0.413469 0.284554 0.729368
O O9 0.500000 0.766448 0.163805
O O10 0.409266 0.761754 0.000000
O O11 0.684112 0.067813 0.500000
O O12 0.710686 0.117690 0.245662
O O13 0.701440 0.000000 0.275410
O O14 0.207514 0.207514 0.750000
O O15 0.186581 0.101975 0.774583
O O16 0.238870 0.155736 0.000000
O O17 0.082046 0.917955 0.750000
O O18 0.000000 0.846018 0.814978
O O19 0.083317 0.854200 0.000000
#
# Coordination Sequence:
#
# PCOD9566446 Si02
#       6
#    16  16  16  16  16  16
#     4   9  19  37  61  88 117 151 192 238 290 348
#     4  10  20  32  48  72 102 139 184 234 290 353
#     4   8  15  31  54  76 100 132 171 218 271 327
#     4  11  24  40  59  87 124 162 199 240 287 342
#     4  11  22  38  61  84 109 144 187 235 285 336
#     4  10  20  33  50  73 102 136 175 220 269 322
#
# _framework density 19.615029
#
# number of rings (size 3 to 8) (size 9 to 14) (size 15 to 20)
#    0.000    2.167    0.000    5.500    0.000    7.333 
#    0.000    5.833    0.000    4.000    0.000    0.000 
#    0.000    0.000    0.000    0.000    0.000    0.000 
#
# Total GULP energy -535241.069696 kJ/mol
# GULP energy per Si atom -5575.427809 kJ/mol
# Density = 1.957038 g / cm^3
# Si number density = 19.615029 Si / 1000 Ang^3
#
#
#
# Elastic Constant Matrix: (Units=GPa)
#
#
# Indices 1 2 3 4 5 6 
#
# 1 79.9177 37.5436 36.1921 0.0000 0.0000 0.0000
# 2 37.5436 79.9155 36.1927 0.0000 0.0000 0.0000
# 3 36.1921 36.1927 72.7568 0.0000 0.0000 0.0000
# 4 0.0000 0.0000 0.0000 21.0959 0.0000 0.0000
# 5 0.0000 0.0000 0.0000 0.0000 21.0957 0.0000
# 6 0.0000 0.0000 0.0000 0.0000 0.0000 27.2236
#
#
#
# Elastic Compliance Matrix: (Units=1/GPa)
#
#
# Indices 1 2 3 4 5 6 
#
# 1 0.017938 -0.005661 -0.006107 0.000000 0.000000 0.000000
# 2 -0.005661 0.017939 -0.006107 0.000000 0.000000 0.000000
# 3 -0.006107 -0.006107 0.019820 0.000000 0.000000 0.000000
# 4 0.000000 0.000000 0.000000 0.047402 0.000000 0.000000
# 5 0.000000 0.000000 0.000000 0.000000 0.047403 0.000000
# 6 0.000000 0.000000 0.000000 0.000000 0.000000 0.036733
#
#
# Mechanical properties :
#
#
# Convention : Reuss Voigt Hill
#
# Bulk Modulus (GPa) = 50.13565 50.27183 50.20374
# Shear Modulus (GPa) = 21.77361 22.06047 21.91704
#
# Velocity S-wave (km/s) = 3.33535 3.35725 3.34632
# Velocity P-wave (km/s) = 6.35988 6.38068 6.37029
#
# Compressibility (1/GPa) = 0.01994589
#
# Stress axis : x y z
#
# Youngs Moduli (GPa) = 55.74733 55.74481 50.45323
#
# Poissons Ratio (x) = 0.31560 0.30811
# Poissons Ratio (y) = 0.31561 0.30814
# Poissons Ratio (z) = 0.34044 0.34046
#
# Static dielectric constant tensor:
#      x y z
#    x 1.729680 0.000000 0.000000 
#    y 0.000000 1.729680 0.000000 
#    z 0.000000 0.000000 1.666690 
# 
# From -- ./inp_files/2201.got.cif
#   From: 2010.05.17/outbox.cif.g08.bks.cpg/sg131_2_cif.got.tgz:2201.got - 2010.05.20 12:21:01.
