data_PCOD9566792
_publ_section_title
;
Structure prediction by ZEFSAII (Michael W. Deem and Ramdas Pophale) SiO2 
 PCOD9566792
Probable space group: P 42/M M C
;
_chemical_formula_sum "Si O2"
_cell_formula_units_Z 96
_cell_length_a 24.217768
_cell_length_b 24.217768
_cell_length_c 8.774412
_cell_angle_alpha 90.000000
_cell_angle_beta 90.000000
_cell_angle_gamma 90.000000
_cell_volume 5146.195155
_symmetry_space_group_name_H-M "P 42/M M C"
_symmetry_group_IT_number 131
_symmetry_cell_setting 'tetragonal'
loop_
_space_group_symop_operation_xyz
x,y,z
-x,-y,z
-y,x,1/2+z
y,-x,1/2+z
-x,y,-z
x,-y,-z
y,x,1/2-z
-y,-x,1/2-z
-x,-y,-z
x,y,-z
y,-x,1/2-z
-y,x,1/2-z
x,-y,z
-x,y,z
-y,-x,1/2+z
y,x,1/2+z
loop_
_atom_site_type_symbol
_atom_site_label
_atom_site_fract_x
_atom_site_fract_y
_atom_site_fract_z
Si Si1 0.752409 0.640000 0.675871
Si Si2 0.648297 0.435144 0.684790
Si Si3 0.938248 0.286398 0.677275
Si Si4 0.740394 0.820435 0.319585
Si Si5 0.438116 0.170973 0.668632
Si Si6 0.937762 0.419487 0.326037
O O1 0.743258 0.655030 0.500000
O O2 0.698393 0.606405 0.733638
O O3 0.778486 0.692235 0.761754
O O4 0.800735 0.595503 0.697605
O O5 0.592652 0.407349 0.750000
O O6 0.647525 0.434034 0.500000
O O7 0.655410 0.500000 0.729609
O O8 0.933486 0.269289 0.500000
O O9 0.883216 0.268865 0.765092
O O10 0.937530 0.352998 0.678666
O O11 0.000000 0.269455 0.732569
O O12 0.796359 0.796359 0.250000
O O13 0.741358 0.818435 0.500000
O O14 0.413591 0.181094 0.500000
O O15 0.500000 0.192950 0.668639
O O16 0.439109 0.106552 0.705345
O O17 0.923454 0.435735 0.500000
O O18 0.000000 0.437508 0.295155
#
# Coordination Sequence:
#
# PCOD9566792 Si02
#       6
#    16  16  16  16  16  16
#     4  11  22  39  60  81 109 145 185 228 279 336
#     4  10  23  42  63  87 111 138 174 217 271 336
#     4   9  18  35  58  83 113 150 191 235 284 336
#     4  12  24  37  57  87 121 154 192 235 281 333
#     4  11  23  35  49  74 106 140 182 232 283 334
#     4   9  18  33  53  74  99 137 184 230 278 332
#
# _framework density 18.654558000000002
#
# number of rings (size 3 to 8) (size 9 to 14) (size 15 to 20)
#    0.000    1.667    1.667    4.500    0.000    6.167 
#    0.000    4.167    0.000    0.000    0.000    0.000 
#    0.000    0.333    0.000    3.500    0.000    1.500 
#
# Total GULP energy -535536.197536 kJ/mol
# GULP energy per Si atom -5578.502058 kJ/mol
# Density = 1.861210 g / cm^3
# Si number density = 18.654558 Si / 1000 Ang^3
#
#
#
# Elastic Constant Matrix: (Units=GPa)
#
#
# Indices 1 2 3 4 5 6 
#
# 1 92.7257 61.9361 36.7509 0.0000 0.0000 0.0000
# 2 61.9361 92.7212 36.7501 0.0000 0.0000 0.0000
# 3 36.7509 36.7501 59.6684 0.0000 0.0000 0.0000
# 4 0.0000 0.0000 0.0000 30.1139 0.0000 0.0000
# 5 0.0000 0.0000 0.0000 0.0000 30.1140 0.0000
# 6 0.0000 0.0000 0.0000 0.0000 0.0000 -133.8280
#
#
#
# Elastic Compliance Matrix: (Units=1/GPa)
#
#
# Indices 1 2 3 4 5 6 
#
# 1 0.020811 -0.011670 -0.005630 0.000000 0.000000 0.000000
# 2 -0.011670 0.020812 -0.005631 0.000000 0.000000 0.000000
# 3 -0.005630 -0.005631 0.023695 0.000000 0.000000 0.000000
# 4 0.000000 0.000000 0.000000 0.033207 0.000000 0.000000
# 5 0.000000 0.000000 0.000000 0.000000 0.033207 0.000000
# 6 0.000000 0.000000 0.000000 0.000000 0.000000 -0.007472
#
#
# Mechanical properties :
#
#
# Convention : Reuss Voigt Hill
#
# Bulk Modulus (GPa) = 51.39672 57.33219 54.36445
# Shear Modulus (GPa) = 28.31160 -7.40811 10.45175
#
# Velocity S-wave (km/s) = 3.89996 -1.99495 2.36959
# Velocity P-wave (km/s) = 6.92035 5.04915 6.05744
#
# Compressibility (1/GPa) = 0.01945650
#
# Stress axis : x y z
#
# Youngs Moduli (GPa) = 48.05211 48.04977 42.20298
#
# Poissons Ratio (x) = 0.56072 0.23762
# Poissons Ratio (y) = 0.56075 0.23763
# Poissons Ratio (z) = 0.27055 0.27055
#
# Static dielectric constant tensor:
#      x y z
#    x 1.670120 0.000000 0.000000 
#    y 0.000000 1.670120 0.000000 
#    z 0.000000 0.000000 1.654290 
# 
# From -- ./inp_files/2172.got.cif
#   From: 2010.05.17/outbox.cif.g08.bks.cpg/sg131_2_cif.got.tgz:2172.got - 2010.05.20 12:21:01.
