data_PCOD9566749
_publ_section_title
;
Structure prediction by ZEFSAII (Michael W. Deem and Ramdas Pophale) SiO2 
 PCOD9566749
Probable space group: P 42/M M C
;
_chemical_formula_sum "Si O2"
_cell_formula_units_Z 64
_cell_length_a 14.754387
_cell_length_b 14.754387
_cell_length_c 14.212196
_cell_angle_alpha 90.000000
_cell_angle_beta 90.000000
_cell_angle_gamma 90.000000
_cell_volume 3093.880458
_symmetry_space_group_name_H-M "P 42/M M C"
_symmetry_group_IT_number 131
_symmetry_cell_setting 'tetragonal'
loop_
_space_group_symop_operation_xyz
x,y,z
-x,-y,z
-y,x,1/2+z
y,-x,1/2+z
-x,y,-z
x,-y,-z
y,x,1/2-z
-y,-x,1/2-z
-x,-y,-z
x,y,-z
y,-x,1/2-z
-y,x,1/2-z
x,-y,z
-x,y,z
-y,-x,1/2+z
y,x,1/2+z
loop_
_atom_site_type_symbol
_atom_site_label
_atom_site_fract_x
_atom_site_fract_y
_atom_site_fract_z
Si Si1 0.142459 0.902113 0.388184
Si Si2 0.703288 0.099921 0.113139
Si Si3 0.898176 0.361088 0.890520
Si Si4 0.753493 0.397239 0.265405
O O1 0.119415 0.902857 0.500000
O O2 0.106024 0.807128 0.350246
O O3 0.251525 0.897207 0.382572
O O4 0.112949 0.000000 0.349790
O O5 0.646110 0.181083 0.155833
O O6 0.667344 0.000000 0.137747
O O7 0.705296 0.107402 0.000000
O O8 0.818070 0.396587 0.826327
O O9 0.000000 0.390601 0.863214
O O10 0.885325 0.383687 0.000000
O O11 0.668425 0.331576 0.250000
O O12 0.727418 0.500000 0.287961
#
# Coordination Sequence:
#
# PCOD9566749 Si02
#       4
#    16  16  16  16
#     4   8  14  28  54  87 122 160 197 231 274 337
#     4  10  21  38  62  93 129 167 203 238 287 360
#     4   9  18  36  64  94 121 150 190 243 301 359
#     4  12  26  43  64  87 115 155 204 258 313 365
#
# _framework density 20.685995999999999
#
# number of rings (size 3 to 8) (size 9 to 14) (size 15 to 20)
#    0.000    2.250    2.500    2.250    0.000    3.750 
#    0.000    5.000    0.000    0.000    0.000    3.500 
#    0.000    0.000    0.000    0.000    0.000    0.000 
#
# Total GULP energy -357674.995013 kJ/mol
# GULP energy per Si atom -5588.671797 kJ/mol
# Density = 2.063891 g / cm^3
# Si number density = 20.685996 Si / 1000 Ang^3
#
#
#
# Elastic Constant Matrix: (Units=GPa)
#
#
# Indices 1 2 3 4 5 6 
#
# 1 149.3762 67.4396 34.1755 0.0000 0.0000 0.0000
# 2 67.4396 149.3768 34.1752 0.0000 0.0000 0.0000
# 3 34.1755 34.1752 68.3560 0.0000 0.0000 0.0000
# 4 0.0000 0.0000 0.0000 8.3705 0.0000 0.0000
# 5 0.0000 0.0000 0.0000 0.0000 8.3714 0.0000
# 6 0.0000 0.0000 0.0000 0.0000 0.0000 -13.3481
#
#
#
# Elastic Compliance Matrix: (Units=1/GPa)
#
#
# Indices 1 2 3 4 5 6 
#
# 1 0.008840 -0.003365 -0.002737 0.000000 0.000000 0.000000
# 2 -0.003365 0.008840 -0.002737 0.000000 0.000000 0.000000
# 3 -0.002737 -0.002737 0.017366 0.000000 0.000000 0.000000
# 4 0.000000 0.000000 0.000000 0.119468 0.000000 0.000000
# 5 0.000000 0.000000 0.000000 0.000000 0.119455 0.000000
# 6 0.000000 0.000000 0.000000 0.000000 0.000000 -0.074917
#
#
# Mechanical properties :
#
#
# Convention : Reuss Voigt Hill
#
# Bulk Modulus (GPa) = 57.57948 70.96550 64.27249
# Shear Modulus (GPa) = 22.46993 16.09999 19.28496
#
# Velocity S-wave (km/s) = 3.29939 2.79284 3.05662
# Velocity P-wave (km/s) = 6.51230 6.69182 6.60267
#
# Compressibility (1/GPa) = 0.01736730
#
# Stress axis : x y z
#
# Youngs Moduli (GPa) = 113.12394 113.12469 57.58228
#
# Poissons Ratio (x) = 0.38063 0.15763
# Poissons Ratio (y) = 0.38063 0.15762
# Poissons Ratio (z) = 0.30967 0.30966
#
# Static dielectric constant tensor:
#      x y z
#    x 1.740230 0.000000 0.000000 
#    y 0.000000 1.740230 0.000000 
#    z 0.000000 0.000000 1.783770 
# 
# From -- ./inp_files/5435.got.cif
#   From: 2010.05.17/outbox.cif.g08.bks.cpg/sg131_3_cif.got.tgz:5435.got - 2010.05.20 12:21:01.
