data_PCOD9566101
_publ_section_title
;
Structure prediction by ZEFSAII (Michael W. Deem and Ramdas Pophale) SiO2 
 PCOD9566101
Probable space group: P 42/M M C
;
_chemical_formula_sum "Si O2"
_cell_formula_units_Z 96
_cell_length_a 22.238250
_cell_length_b 22.238250
_cell_length_c 11.220665
_cell_angle_alpha 90.000000
_cell_angle_beta 90.000000
_cell_angle_gamma 90.000000
_cell_volume 5549.065011
_symmetry_space_group_name_H-M "P 42/M M C"
_symmetry_group_IT_number 131
_symmetry_cell_setting 'tetragonal'
loop_
_space_group_symop_operation_xyz
x,y,z
-x,-y,z
-y,x,1/2+z
y,-x,1/2+z
-x,y,-z
x,-y,-z
y,x,1/2-z
-y,-x,1/2-z
-x,-y,-z
x,y,-z
y,-x,1/2-z
-y,x,1/2-z
x,-y,z
-x,y,z
-y,-x,1/2+z
y,x,1/2+z
loop_
_atom_site_type_symbol
_atom_site_label
_atom_site_fract_x
_atom_site_fract_y
_atom_site_fract_z
Si Si1 0.095100 0.720420 0.634403
Si Si2 0.805802 0.435486 0.640969
Si Si3 0.931723 0.403382 0.259580
Si Si4 0.381095 0.072469 0.500000
Si Si5 0.755523 0.073232 0.500000
Si Si6 0.166972 0.068614 0.272887
Si Si7 0.235609 0.304078 0.357108
O O1 0.079792 0.702143 0.500000
O O2 0.069274 0.668884 0.720283
O O3 0.070685 0.785615 0.665317
O O4 0.167283 0.720981 0.645240
O O5 0.796707 0.437273 0.500000
O O6 0.786629 0.500000 0.692724
O O7 0.877358 0.427914 0.662346
O O8 0.772344 0.374547 0.678094
O O9 0.000000 0.424430 0.281992
O O10 0.913201 0.413894 0.122612
O O11 0.312675 0.096731 0.500000
O O12 0.376008 0.000000 0.500000
O O13 0.793197 0.091345 0.615628
O O14 0.752643 0.000000 0.500000
O O15 0.111298 0.111298 0.250000
O O16 0.148577 0.000000 0.296101
O O17 0.272455 0.272455 0.250000
O O18 0.254745 0.298964 0.500000
#
# Coordination Sequence:
#
# PCOD9566101 Si02
#       7
#    16  16  16   8   8  16  16
#     4  10  20  33  49  73  99 119 149 199 254 296
#     4   9  19  35  52  72 104 141 172 205 246 293
#     4  10  18  30  49  72  98 131 170 207 242 288
#     4   9  16  30  49  67  89 123 162 197 241 288
#     4   9  18  36  53  65  83 111 148 185 231 300
#     4  11  23  37  51  66  85 111 146 191 246 311
#     4   9  18  35  55  79 107 135 169 206 247 291
#
# _framework density 17.300211999999998
#
# number of rings (size 3 to 8) (size 9 to 14) (size 15 to 20)
#    0.000    2.333    1.667    2.500    1.167    2.833 
#    7.500    1.250    0.000    3.000    0.000    0.000 
#    0.000    0.333    0.000    4.167    0.000    0.000 
#
# Total GULP energy -534925.150506 kJ/mol
# GULP energy per Si atom -5572.136984 kJ/mol
# Density = 1.726084 g / cm^3
# Si number density = 17.300212 Si / 1000 Ang^3
#
#
#
# Elastic Constant Matrix: (Units=GPa)
#
#
# Indices 1 2 3 4 5 6 
#
# 1 56.9353 22.7106 12.4595 0.0000 0.0000 0.0000
# 2 22.7106 56.9353 12.4595 0.0000 0.0000 0.0000
# 3 12.4595 12.4595 56.6459 0.0000 0.0000 0.0000
# 4 0.0000 0.0000 0.0000 -1.4028 0.0000 0.0000
# 5 0.0000 0.0000 0.0000 0.0000 -1.4028 0.0000
# 6 0.0000 0.0000 0.0000 0.0000 0.0000 -1.1051
#
#
#
# Elastic Compliance Matrix: (Units=1/GPa)
#
#
# Indices 1 2 3 4 5 6 
#
# 1 0.021351 -0.007868 -0.002966 0.000000 0.000000 0.000000
# 2 -0.007868 0.021351 -0.002966 0.000000 0.000000 0.000000
# 3 -0.002966 -0.002966 0.018958 0.000000 0.000000 0.000000
# 4 0.000000 0.000000 0.000000 -0.712872 0.000000 0.000000
# 5 0.000000 0.000000 0.000000 0.000000 -0.712872 0.000000
# 6 0.000000 0.000000 0.000000 0.000000 0.000000 -0.904884
#
#
# Mechanical properties :
#
#
# Convention : Reuss Voigt Hill
#
# Bulk Modulus (GPa) = 29.35809 29.53062 29.44436
# Shear Modulus (GPa) = -2.24214 7.41032 2.58409
#
# Velocity S-wave (km/s) = -1.13966 2.07188 1.22349
# Velocity P-wave (km/s) = 3.90831 4.77809 4.36492
#
# Compressibility (1/GPa) = 0.03406216
#
# Stress axis : x y z
#
# Youngs Moduli (GPa) = 46.83604 46.83604 52.74765
#
# Poissons Ratio (x) = 0.36849 0.15644
# Poissons Ratio (y) = 0.36849 0.15644
# Poissons Ratio (z) = 0.13890 0.13890
#
# Static dielectric constant tensor:
#      x y z
#    x 1.609180 0.000000 0.000000 
#    y 0.000000 1.609180 0.000000 
#    z 0.000000 0.000000 1.658060 
# 
# From -- ./inp_files/4347.got.cif
#   From: 2010.05.17/outbox.cif.g08.bks.cpg/sg131_3_cif.got.tgz:4347.got - 2010.05.20 12:21:01.
