data_PCOD9566243
_publ_section_title
;
Structure prediction by ZEFSAII (Michael W. Deem and Ramdas Pophale) SiO2 
 PCOD9566243
Probable space group: P 42/M M C
;
_chemical_formula_sum "Si O2"
_cell_formula_units_Z 80
_cell_length_a 11.773397
_cell_length_b 11.773397
_cell_length_c 32.290579
_cell_angle_alpha 90.000000
_cell_angle_beta 90.000000
_cell_angle_gamma 90.000000
_cell_volume 4475.890053
_symmetry_space_group_name_H-M "P 42/M M C"
_symmetry_group_IT_number 131
_symmetry_cell_setting 'tetragonal'
loop_
_space_group_symop_operation_xyz
x,y,z
-x,-y,z
-y,x,1/2+z
y,-x,1/2+z
-x,y,-z
x,-y,-z
y,x,1/2-z
-y,-x,1/2-z
-x,-y,-z
x,y,-z
y,-x,1/2-z
-y,x,1/2-z
x,-y,z
-x,y,z
-y,-x,1/2+z
y,x,1/2+z
loop_
_atom_site_type_symbol
_atom_site_label
_atom_site_fract_x
_atom_site_fract_y
_atom_site_fract_z
Si Si1 0.000000 0.864739 0.622509
Si Si2 0.719974 0.000000 0.045935
Si Si3 0.000000 0.364658 0.157570
Si Si4 0.252238 0.228272 0.369622
Si Si5 0.368487 0.247785 0.951893
Si Si6 0.244510 0.635563 0.712335
Si Si7 0.000000 0.362294 0.746783
O O1 0.881612 0.805591 0.635732
O O2 0.000000 0.830239 0.574400
O O3 0.000000 0.000000 0.630463
O O4 0.643631 0.888839 0.051275
O O5 0.764192 0.000000 0.000000
O O6 0.888296 0.319371 0.135385
O O7 0.000000 0.500000 0.158465
O O8 0.000000 0.323211 0.205499
O O9 0.282236 0.288420 0.413383
O O10 0.279954 0.309251 0.330980
O O11 0.500000 0.281149 0.945757
O O12 0.336996 0.278088 0.000000
O O13 0.322290 0.677711 0.750000
O O14 0.246768 0.500000 0.709241
O O15 0.115731 0.672191 0.724213
O O16 0.000000 0.500000 0.747489
#
# Coordination Sequence:
#
# PCOD9566243 Si02
#       7
#     8   8   8  16  16  16   8
#     4  10  19  31  50  80 113 145 179 225 269 318
#     4   8  15  26  44  75 114 153 184 214 266 331
#     4  11  22  38  59  77 103 150 194 228 276 340
#     4  11  21  36  57  82 115 147 186 230 279 334
#     4   9  17  31  53  82 115 149 185 228 282 339
#     4  11  22  36  57  83 111 143 184 229 278 334
#     4   9  19  37  55  76 108 147 184 220 270 332
#
# _framework density 17.873542
#
# number of rings (size 3 to 8) (size 9 to 14) (size 15 to 20)
#    0.000    2.000    3.000    1.500    0.000    1.600 
#    0.000    3.500    0.000    3.000    0.000    1.400 
#    0.000    0.000    0.000    0.000    0.000    0.000 
#
# Total GULP energy -445580.230454 kJ/mol
# GULP energy per Si atom -5569.752881 kJ/mol
# Density = 1.783286 g / cm^3
# Si number density = 17.873542 Si / 1000 Ang^3
#
#
#
# Elastic Constant Matrix: (Units=GPa)
#
#
# Indices 1 2 3 4 5 6 
#
# 1 73.5596 27.3270 58.4827 0.0000 0.0000 0.0000
# 2 27.3270 73.5603 58.4827 0.0000 0.0000 0.0000
# 3 58.4827 58.4827 148.6839 0.0000 0.0000 0.0000
# 4 0.0000 0.0000 0.0000 7.0341 0.0000 0.0000
# 5 0.0000 0.0000 0.0000 0.0000 7.0322 0.0000
# 6 0.0000 0.0000 0.0000 0.0000 0.0000 13.4736
#
#
#
# Elastic Compliance Matrix: (Units=1/GPa)
#
#
# Indices 1 2 3 4 5 6 
#
# 1 0.019926 -0.001704 -0.007167 0.000000 0.000000 0.000000
# 2 -0.001704 0.019925 -0.007167 0.000000 0.000000 0.000000
# 3 -0.007167 -0.007167 0.012364 0.000000 0.000000 0.000000
# 4 0.000000 0.000000 0.000000 0.142165 0.000000 0.000000
# 5 0.000000 0.000000 0.000000 0.000000 0.142203 0.000000
# 6 0.000000 0.000000 0.000000 0.000000 0.000000 0.074219
#
#
# Mechanical properties :
#
#
# Convention : Reuss Voigt Hill
#
# Bulk Modulus (GPa) = 49.65686 64.93208 57.29447
# Shear Modulus (GPa) = 11.12119 15.60872 13.36496
#
# Velocity S-wave (km/s) = 2.49713 2.95835 2.73747
# Velocity P-wave (km/s) = 6.01306 6.93373 6.48974
#
# Compressibility (1/GPa) = 0.02013820
#
# Stress axis : x y z
#
# Youngs Moduli (GPa) = 50.18646 50.18719 80.88068
#
# Poissons Ratio (x) = 0.08552 0.57969
# Poissons Ratio (y) = 0.08552 0.57968
# Poissons Ratio (z) = 0.35970 0.35970
#
# Static dielectric constant tensor:
#      x y z
#    x 1.614390 0.000000 0.000000 
#    y 0.000000 1.614390 0.000000 
#    z 0.000000 0.000000 1.625330 
# 
# From -- ./inp_files/13478.got.cif
#   From: 2010.05.17/outbox.cif.g08.bks.cpg/sg131_7_cif.got.tgz:13478.got - 2010.05.20 12:21:01.
