data_PCOD9566356
_publ_section_title
;
Structure prediction by ZEFSAII (Michael W. Deem and Ramdas Pophale) SiO2 
 PCOD9566356
Probable space group: P 42/M M C
;
_chemical_formula_sum "Si O2"
_cell_formula_units_Z 120
_cell_length_a 28.482789
_cell_length_b 28.482789
_cell_length_c 8.710763
_cell_angle_alpha 90.000000
_cell_angle_beta 90.000000
_cell_angle_gamma 90.000000
_cell_volume 7066.774333
_symmetry_space_group_name_H-M "P 42/M M C"
_symmetry_group_IT_number 131
_symmetry_cell_setting 'tetragonal'
loop_
_space_group_symop_operation_xyz
x,y,z
-x,-y,z
-y,x,1/2+z
y,-x,1/2+z
-x,y,-z
x,-y,-z
y,x,1/2-z
-y,-x,1/2-z
-x,-y,-z
x,y,-z
y,-x,1/2-z
-y,x,1/2-z
x,-y,z
-x,y,z
-y,-x,1/2+z
y,x,1/2+z
loop_
_atom_site_type_symbol
_atom_site_label
_atom_site_fract_x
_atom_site_fract_y
_atom_site_fract_z
Si Si1 0.443724 0.731448 0.323934
Si Si2 0.791667 0.863043 0.815557
Si Si3 0.372059 0.554530 0.814043
Si Si4 0.216309 0.715235 0.315900
Si Si5 0.055089 0.270123 0.815910
Si Si6 0.813209 0.613179 0.684300
Si Si7 0.081249 0.626623 0.686381
Si Si8 0.000000 0.445575 0.313143
O O1 0.427504 0.734930 0.500000
O O2 0.500000 0.730805 0.324225
O O3 0.429489 0.680094 0.261954
O O4 0.425351 0.776520 0.236513
O O5 0.839591 0.839591 0.750000
O O6 0.750601 0.825733 0.772893
O O7 0.771293 0.911988 0.751271
O O8 0.795026 0.865437 0.000000
O O9 0.412021 0.587980 0.750000
O O10 0.379143 0.500000 0.768864
O O11 0.371875 0.555755 0.000000
O O12 0.263680 0.736320 0.250000
O O13 0.218402 0.714914 0.500000
O O14 0.205474 0.663464 0.259908
O O15 0.069996 0.321503 0.751153
O O16 0.000000 0.263120 0.778333
O O17 0.060181 0.270812 0.000000
O O18 0.814049 0.613936 0.500000
O O19 0.867040 0.609899 0.734632
O O20 0.079828 0.630797 0.500000
O O21 0.044363 0.586465 0.732667
O O22 0.000000 0.500000 0.260125
O O23 0.000000 0.447477 0.500000
#
# Coordination Sequence:
#
# PCOD9566356 Si02
#       8
#    16  16  16  16  16  16  16   8
#     4   9  20  38  54  69  94 130 167 202 250 309
#     4  10  19  34  54  77 109 146 182 220 268 320
#     4   9  19  36  56  78 105 134 164 201 247 304
#     4   9  18  31  46  69 100 130 164 202 246 302
#     4  11  22  34  52  80 112 146 188 231 274 325
#     4  10  20  33  50  75 100 127 170 219 261 310
#     4  10  19  34  54  74 101 135 175 226 280 335
#     4   9  18  32  53  77  97 127 173 225 286 347
#
# _framework density 16.980874
#
# number of rings (size 3 to 8) (size 9 to 14) (size 15 to 20)
#    0.000    2.333    2.000    1.600    0.000    4.667 
#    0.000    6.000    0.000    0.800    0.000    0.000 
#    0.000    0.267    0.000    2.800    0.000    1.200 
#
# Total GULP energy -668862.480836 kJ/mol
# GULP energy per Si atom -5573.854007 kJ/mol
# Density = 1.694222 g / cm^3
# Si number density = 16.980874 Si / 1000 Ang^3
#
#
#
# Elastic Constant Matrix: (Units=GPa)
#
#
# Indices 1 2 3 4 5 6 
#
# 1 106.1089 70.6743 26.4637 0.0000 0.0000 0.0000
# 2 70.6743 106.1136 26.4644 0.0000 0.0000 0.0000
# 3 26.4637 26.4644 18.8547 0.0000 0.0000 0.0000
# 4 0.0000 0.0000 0.0000 23.1523 0.0000 0.0000
# 5 0.0000 0.0000 0.0000 0.0000 23.1523 0.0000
# 6 0.0000 0.0000 0.0000 0.0000 0.0000 28.5166
#
#
#
# Elastic Compliance Matrix: (Units=1/GPa)
#
#
# Indices 1 2 3 4 5 6 
#
# 1 0.018988 -0.009231 -0.013694 0.000000 0.000000 0.000000
# 2 -0.009231 0.018987 -0.013694 0.000000 0.000000 0.000000
# 3 -0.013694 -0.013694 0.091478 0.000000 0.000000 0.000000
# 4 0.000000 0.000000 0.000000 0.043192 0.000000 0.000000
# 5 0.000000 0.000000 0.000000 0.000000 0.043192 0.000000
# 6 0.000000 0.000000 0.000000 0.000000 0.000000 0.035067
#
#
# Mechanical properties :
#
#
# Convention : Reuss Voigt Hill
#
# Bulk Modulus (GPa) = 17.78869 53.14245 35.46557
# Shear Modulus (GPa) = 14.58225 22.12923 18.35574
#
# Velocity S-wave (km/s) = 2.93362 3.61388 3.29137
# Velocity P-wave (km/s) = 4.68756 6.98405 5.94770
#
# Compressibility (1/GPa) = 0.05621548
#
# Stress axis : x y z
#
# Youngs Moduli (GPa) = 52.66426 52.66655 10.93155
#
# Poissons Ratio (x) = 0.48619 0.14970
# Poissons Ratio (y) = 0.48616 0.14969
# Poissons Ratio (z) = 0.72119 0.72121
#
# Static dielectric constant tensor:
#      x y z
#    x 1.575490 0.000000 0.000000 
#    y 0.000000 1.575490 0.000000 
#    z 0.000000 0.000000 1.582830 
# 
# From -- ./inp_files/2641.got.cif
#   From: 2010.05.17/outbox.cif.g08.bks.cpg/sg131_2_cif.got.tgz:2641.got - 2010.05.20 12:21:01.
