data_PCOD9566186
_publ_section_title
;
Structure prediction by ZEFSAII (Michael W. Deem and Ramdas Pophale) SiO2 
 PCOD9566186
Probable space group: P 42/M M C
;
_chemical_formula_sum "Si O2"
_cell_formula_units_Z 128
_cell_length_a 21.023689
_cell_length_b 21.023689
_cell_length_c 18.506064
_cell_angle_alpha 90.000000
_cell_angle_beta 90.000000
_cell_angle_gamma 90.000000
_cell_volume 8179.596995
_symmetry_space_group_name_H-M "P 42/M M C"
_symmetry_group_IT_number 131
_symmetry_cell_setting 'tetragonal'
loop_
_space_group_symop_operation_xyz
x,y,z
-x,-y,z
-y,x,1/2+z
y,-x,1/2+z
-x,y,-z
x,-y,-z
y,x,1/2-z
-y,-x,1/2-z
-x,-y,-z
x,y,-z
y,-x,1/2-z
-y,x,1/2-z
x,-y,z
-x,y,z
-y,-x,1/2+z
y,x,1/2+z
loop_
_atom_site_type_symbol
_atom_site_label
_atom_site_fract_x
_atom_site_fract_y
_atom_site_fract_z
Si Si1 0.571934 0.748233 0.274777
Si Si2 0.077366 0.571653 0.917535
Si Si3 0.318011 0.426809 0.372212
Si Si4 0.330599 0.426911 0.082330
Si Si5 0.295262 0.191864 0.228546
Si Si6 0.355527 0.189887 0.081380
Si Si7 0.926943 0.661958 0.212002
Si Si8 0.425198 0.071111 0.145157
O O1 0.500000 0.775823 0.265941
O O2 0.575355 0.691781 0.214869
O O3 0.579044 0.722732 0.355852
O O4 0.632970 0.789960 0.254700
O O5 0.099075 0.500000 0.898175
O O6 0.095197 0.624238 0.859373
O O7 0.000000 0.569996 0.916911
O O8 0.097330 0.584776 0.000000
O O9 0.324531 0.500000 0.393820
O O10 0.376651 0.384982 0.398454
O O11 0.253022 0.397291 0.404105
O O12 0.353718 0.500000 0.086496
O O13 0.308043 0.416031 0.000000
O O14 0.245843 0.245843 0.250000
O O15 0.301138 0.188539 0.142188
O O16 0.284592 0.123330 0.264614
O O17 0.398091 0.127631 0.096603
O O18 0.331938 0.190566 0.000000
O O19 0.927312 0.611830 0.278600
O O20 0.000000 0.683253 0.202030
O O21 0.500000 0.079820 0.157202
O O22 0.415362 0.000000 0.114280
#
# Coordination Sequence:
#
# PCOD9566186 Si02
#       8
#    16  16  16  16  16  16  16  16
#     4   9  18  33  49  63  81 107 141 176 210 252
#     4   8  13  22  38  61  90 123 156 190 226 262
#     4  10  19  30  45  61  77 102 136 173 217 270
#     4  10  20  32  45  60  79 102 130 174 228 271
#     4  10  20  34  51  68  88 117 150 181 216 262
#     4  10  20  32  46  64  87 113 142 179 218 254
#     4   9  17  29  45  65  90 119 152 187 222 264
#     4   9  17  28  43  65  93 125 156 182 213 257
#
# _framework density 15.648694000000001
#
# number of rings (size 3 to 8) (size 9 to 14) (size 15 to 20)
#    0.000    2.625    0.000    3.375    0.000    7.250 
#    0.000    2.500    0.000    3.750    0.000    0.000 
#    0.000    0.250    0.000    0.000    0.000    0.000 
#
# Total GULP energy -713376.178325 kJ/mol
# GULP energy per Si atom -5573.251393 kJ/mol
# Density = 1.561308 g / cm^3
# Si number density = 15.648694 Si / 1000 Ang^3
#
#
#
# Elastic Constant Matrix: (Units=GPa)
#
#
# Indices 1 2 3 4 5 6 
#
# 1 51.7235 31.1174 23.1278 0.0000 0.0000 0.0000
# 2 31.1174 51.7235 23.1278 0.0000 0.0000 0.0000
# 3 23.1278 23.1278 98.6594 0.0000 0.0000 0.0000
# 4 0.0000 0.0000 0.0000 11.9099 0.0000 0.0000
# 5 0.0000 0.0000 0.0000 0.0000 11.9099 0.0000
# 6 0.0000 0.0000 0.0000 0.0000 0.0000 11.3115
#
#
#
# Elastic Compliance Matrix: (Units=1/GPa)
#
#
# Indices 1 2 3 4 5 6 
#
# 1 0.031209 -0.017320 -0.003256 0.000000 0.000000 0.000000
# 2 -0.017320 0.031209 -0.003256 0.000000 0.000000 0.000000
# 3 -0.003256 -0.003256 0.011662 0.000000 0.000000 0.000000
# 4 0.000000 0.000000 0.000000 0.083964 0.000000 0.000000
# 5 0.000000 0.000000 0.000000 0.000000 0.083964 0.000000
# 6 0.000000 0.000000 0.000000 0.000000 0.000000 0.088406
#
#
# Mechanical properties :
#
#
# Convention : Reuss Voigt Hill
#
# Bulk Modulus (GPa) = 37.85397 39.65025 38.75211
# Shear Modulus (GPa) = 12.92378 15.34183 14.13280
#
# Velocity S-wave (km/s) = 2.87691 3.13452 3.00847
# Velocity P-wave (km/s) = 5.93952 6.20427 6.07334
#
# Compressibility (1/GPa) = 0.02641731
#
# Stress axis : x y z
#
# Youngs Moduli (GPa) = 32.04175 32.04175 85.74571
#
# Poissons Ratio (x) = 0.55496 0.27918
# Poissons Ratio (y) = 0.55496 0.27918
# Poissons Ratio (z) = 0.10433 0.10433
#
# Static dielectric constant tensor:
#      x y z
#    x 1.527010 0.000000 0.000000 
#    y 0.000000 1.527010 0.000000 
#    z 0.000000 0.000000 1.556340 
# 
# From -- ./inp_files/8444.got.cif
#   From: 2010.05.17/outbox.cif.g08.bks.cpg/sg131_5_cif.got.tgz:8444.got - 2010.05.20 12:21:01.
