data_PCOD9566174
_publ_section_title
;
Structure prediction by ZEFSAII (Michael W. Deem and Ramdas Pophale) SiO2 
 PCOD9566174
Probable space group: P 42/M M C
;
_chemical_formula_sum "Si O2"
_cell_formula_units_Z 88
_cell_length_a 14.544809
_cell_length_b 14.544809
_cell_length_c 22.243293
_cell_angle_alpha 90.000000
_cell_angle_beta 90.000000
_cell_angle_gamma 90.000000
_cell_volume 4705.601306
_symmetry_space_group_name_H-M "P 42/M M C"
_symmetry_group_IT_number 131
_symmetry_cell_setting 'tetragonal'
loop_
_space_group_symop_operation_xyz
x,y,z
-x,-y,z
-y,x,1/2+z
y,-x,1/2+z
-x,y,-z
x,-y,-z
y,x,1/2-z
-y,-x,1/2-z
-x,-y,-z
x,y,-z
y,-x,1/2-z
-y,x,1/2-z
x,-y,z
-x,y,z
-y,-x,1/2+z
y,x,1/2+z
loop_
_atom_site_type_symbol
_atom_site_label
_atom_site_fract_x
_atom_site_fract_y
_atom_site_fract_z
Si Si1 0.890154 0.800879 0.309367
Si Si2 0.390756 0.609244 0.250000
Si Si3 0.244795 0.394090 0.839158
Si Si4 0.111598 0.892134 0.433973
Si Si5 0.388074 0.100631 0.429641
Si Si6 0.107447 0.600195 0.726517
O O1 0.840501 0.840501 0.250000
O O2 0.858453 0.845334 0.371979
O O3 0.875792 0.691326 0.311518
O O4 0.000000 0.818439 0.302484
O O5 0.500000 0.624908 0.244204
O O6 0.355158 0.663817 0.308421
O O7 0.267456 0.500000 0.855441
O O8 0.188910 0.352205 0.894227
O O9 0.170856 0.395375 0.785142
O O10 0.143022 0.857349 0.500000
O O11 0.000000 0.885292 0.434252
O O12 0.134609 0.000000 0.431206
O O13 0.367705 0.105540 0.500000
O O14 0.500000 0.101031 0.423495
O O15 0.357170 0.000000 0.406900
O O16 0.123637 0.500000 0.697585
O O17 0.000000 0.603119 0.744620
#
# Coordination Sequence:
#
# PCOD9566174 Si02
#       6
#    16   8  16  16  16  16
#     4  10  19  29  46  73 102 130 163 206 249 293
#     4   9  18  30  44  66  92 120 161 210 252 284
#     4   9  16  27  45  65  88 121 156 195 243 293
#     4   8  14  26  45  69  99 135 168 196 237 298
#     4   8  13  22  40  68  97 122 152 191 237 297
#     4   9  18  31  46  67  95 125 157 197 247 297
#
# _framework density 18.701115999999999
#
# number of rings (size 3 to 8) (size 9 to 14) (size 15 to 20)
#    0.000    3.182    0.000    2.182    1.273    3.091 
#    0.000    0.000    0.000    2.182    0.000   12.727 
#    0.000    4.364    0.000    0.364    0.000    0.182 
#
# Total GULP energy -490266.005420 kJ/mol
# GULP energy per Si atom -5571.204607 kJ/mol
# Density = 1.865855 g / cm^3
# Si number density = 18.701116 Si / 1000 Ang^3
#
#
#
# Elastic Constant Matrix: (Units=GPa)
#
#
# Indices 1 2 3 4 5 6 
#
# 1 78.2504 21.5278 42.0202 0.0000 0.0000 0.0000
# 2 21.5278 78.2495 42.0201 0.0000 0.0000 0.0000
# 3 42.0202 42.0201 119.2076 0.0000 0.0000 0.0000
# 4 0.0000 0.0000 0.0000 -5.2228 0.0000 0.0000
# 5 0.0000 0.0000 0.0000 0.0000 -5.2228 0.0000
# 6 0.0000 0.0000 0.0000 0.0000 0.0000 5.4992
#
#
#
# Elastic Compliance Matrix: (Units=1/GPa)
#
#
# Indices 1 2 3 4 5 6 
#
# 1 0.015942 -0.001688 -0.005025 0.000000 0.000000 0.000000
# 2 -0.001688 0.015942 -0.005025 0.000000 0.000000 0.000000
# 3 -0.005025 -0.005025 0.011931 0.000000 0.000000 0.000000
# 4 0.000000 0.000000 0.000000 -0.191467 0.000000 0.000000
# 5 0.000000 0.000000 0.000000 0.000000 -0.191467 0.000000
# 6 0.000000 0.000000 0.000000 0.000000 0.000000 0.181846
#
#
# Mechanical properties :
#
#
# Convention : Reuss Voigt Hill
#
# Bulk Modulus (GPa) = 49.16094 54.09376 51.62735
# Shear Modulus (GPa) = -39.36419 10.35333 -14.50543
#
# Velocity S-wave (km/s) = -4.59291 2.35547 -2.78806
# Velocity P-wave (km/s) = 1.33478 6.03207 4.15958
#
# Compressibility (1/GPa) = 0.02034135
#
# Stress axis : x y z
#
# Youngs Moduli (GPa) = 62.72748 62.72665 83.81511
#
# Poissons Ratio (x) = 0.10586 0.42113
# Poissons Ratio (y) = 0.10587 0.42114
# Poissons Ratio (z) = 0.31518 0.31518
#
# Static dielectric constant tensor:
#      x y z
#    x 1.695950 0.000000 0.000000 
#    y 0.000000 1.695960 0.000000 
#    z 0.000000 0.000000 1.633990 
# 
# From -- ./inp_files/11080.got.cif
#   From: 2010.05.17/outbox.cif.g08.bks.cpg/sg131_6_cif.got.tgz:11080.got - 2010.05.20 12:21:01.
