data_PCOD9566547
_publ_section_title
;
Structure prediction by ZEFSAII (Michael W. Deem and Ramdas Pophale) SiO2 
 PCOD9566547
Probable space group: P 42/M M C
;
_chemical_formula_sum "Si O2"
_cell_formula_units_Z 80
_cell_length_a 15.488256
_cell_length_b 15.488256
_cell_length_c 15.076329
_cell_angle_alpha 90.000000
_cell_angle_beta 90.000000
_cell_angle_gamma 90.000000
_cell_volume 3616.601373
_symmetry_space_group_name_H-M "P 42/M M C"
_symmetry_group_IT_number 131
_symmetry_cell_setting 'tetragonal'
loop_
_space_group_symop_operation_xyz
x,y,z
-x,-y,z
-y,x,1/2+z
y,-x,1/2+z
-x,y,-z
x,-y,-z
y,x,1/2-z
-y,-x,1/2-z
-x,-y,-z
x,y,-z
y,-x,1/2-z
-y,x,1/2-z
x,-y,z
-x,y,z
-y,-x,1/2+z
y,x,1/2+z
loop_
_atom_site_type_symbol
_atom_site_label
_atom_site_fract_x
_atom_site_fract_y
_atom_site_fract_z
Si Si1 0.405321 0.287015 0.108098
Si Si2 0.093706 0.380626 0.400089
Si Si3 0.097631 0.738933 0.159294
Si Si4 0.812022 0.093182 0.861171
Si Si5 0.601190 0.239175 0.608024
O O1 0.500000 0.322167 0.130988
O O2 0.401404 0.187213 0.140953
O O3 0.326108 0.347315 0.136208
O O4 0.399976 0.282212 0.000000
O O5 0.093196 0.414850 0.500000
O O6 0.093886 0.278241 0.409740
O O7 0.000000 0.403130 0.357421
O O8 0.133763 0.824189 0.111105
O O9 0.097960 0.775137 0.260109
O O10 0.160097 0.658203 0.144654
O O11 0.000000 0.717724 0.134379
O O12 0.856479 0.000000 0.871328
O O13 0.603540 0.235303 0.500000
O O14 0.500000 0.239079 0.634098
#
# Coordination Sequence:
#
# PCOD9566547 Si02
#       5
#    16  16  16  16  16
#     4   9  17  30  50  77 106 135 170 214 267 322
#     4   9  16  28  50  78 107 136 166 208 264 323
#     4  10  20  34  54  77 106 143 180 217 262 316
#     4   9  18  33  54  79 108 138 173 216 263 317
#     4  10  21  37  56  78 106 141 184 232 274 313
#
# _framework density 22.120215999999999
#
# number of rings (size 3 to 8) (size 9 to 14) (size 15 to 20)
#    0.000    2.600    2.000    0.000    0.000    2.000 
#    0.000    8.000    0.000    3.600    0.000    4.200 
#    0.000    0.000    0.000    0.000    0.000    0.000 
#
# Total GULP energy -445862.832160 kJ/mol
# GULP energy per Si atom -5573.285402 kJ/mol
# Density = 2.206987 g / cm^3
# Si number density = 22.120216 Si / 1000 Ang^3
#
#
#
# Elastic Constant Matrix: (Units=GPa)
#
#
# Indices 1 2 3 4 5 6 
#
# 1 205.8919 125.8049 10.6897 0.0000 0.0000 0.0000
# 2 125.8049 205.8919 10.6897 0.0000 0.0000 0.0000
# 3 10.6897 10.6897 31.3467 0.0000 0.0000 0.0000
# 4 0.0000 0.0000 0.0000 16.2164 0.0000 0.0000
# 5 0.0000 0.0000 0.0000 0.0000 16.2164 0.0000
# 6 0.0000 0.0000 0.0000 0.0000 0.0000 -58.0012
#
#
#
# Elastic Compliance Matrix: (Units=1/GPa)
#
#
# Indices 1 2 3 4 5 6 
#
# 1 0.007784 -0.004702 -0.001051 0.000000 0.000000 0.000000
# 2 -0.004702 0.007784 -0.001051 0.000000 0.000000 0.000000
# 3 -0.001051 -0.001051 0.032618 0.000000 0.000000 0.000000
# 4 0.000000 0.000000 0.000000 0.061666 0.000000 0.000000
# 5 0.000000 0.000000 0.000000 0.000000 0.061666 0.000000
# 6 0.000000 0.000000 0.000000 0.000000 0.000000 -0.017241
#
#
# Mechanical properties :
#
#
# Convention : Reuss Voigt Hill
#
# Bulk Modulus (GPa) = 28.91963 81.94434 55.43198
# Shear Modulus (GPa) = 27.86871 14.61610 21.24240
#
# Velocity S-wave (km/s) = 3.55332 2.57331 3.10226
# Velocity P-wave (km/s) = 5.47147 6.77899 6.16002
#
# Compressibility (1/GPa) = 0.03457859
#
# Stress axis : x y z
#
# Youngs Moduli (GPa) = 128.46067 128.46067 30.65766
#
# Poissons Ratio (x) = 0.60401 0.03223
# Poissons Ratio (y) = 0.60401 0.03223
# Poissons Ratio (z) = 0.13504 0.13504
#
# Static dielectric constant tensor:
#      x y z
#    x 1.828190 0.000000 0.000000 
#    y 0.000000 1.828190 0.000000 
#    z 0.000000 0.000000 2.010460 
# 
# From -- ./inp_files/9386.got.cif
#   From: 2010.05.17/outbox.cif.g08.bks.cpg/sg131_5_cif.got.tgz:9386.got - 2010.05.20 12:21:01.
