data_PCOD9566530
_publ_section_title
;
Structure prediction by ZEFSAII (Michael W. Deem and Ramdas Pophale) SiO2 
 PCOD9566530
Probable space group: P 42/M M C
;
_chemical_formula_sum "Si O2"
_cell_formula_units_Z 104
_cell_length_a 18.746980
_cell_length_b 18.746980
_cell_length_c 17.085997
_cell_angle_alpha 90.000000
_cell_angle_beta 90.000000
_cell_angle_gamma 90.000000
_cell_volume 6004.860987
_symmetry_space_group_name_H-M "P 42/M M C"
_symmetry_group_IT_number 131
_symmetry_cell_setting 'tetragonal'
loop_
_space_group_symop_operation_xyz
x,y,z
-x,-y,z
-y,x,1/2+z
y,-x,1/2+z
-x,y,-z
x,-y,-z
y,x,1/2-z
-y,-x,1/2-z
-x,-y,-z
x,y,-z
y,-x,1/2-z
-y,x,1/2-z
x,-y,z
-x,y,z
-y,-x,1/2+z
y,x,1/2+z
loop_
_atom_site_type_symbol
_atom_site_label
_atom_site_fract_x
_atom_site_fract_y
_atom_site_fract_z
Si Si1 0.581024 0.083322 0.802276
Si Si2 0.079497 0.771219 0.905075
Si Si3 0.178936 0.582276 0.146702
Si Si4 0.922169 0.864245 0.594775
Si Si5 0.727525 0.230106 0.662299
Si Si6 0.289984 0.864342 0.908128
Si Si7 0.920137 0.585240 0.000000
O O1 0.500000 0.090793 0.834053
O O2 0.585471 0.132724 0.725844
O O3 0.642185 0.107712 0.861380
O O4 0.590545 0.000000 0.781493
O O5 0.085503 0.855788 0.887110
O O6 0.146577 0.740244 0.858153
O O7 0.000000 0.745648 0.884818
O O8 0.090107 0.762351 0.000000
O O9 0.202668 0.500000 0.135723
O O10 0.239163 0.642937 0.150793
O O11 0.125732 0.601828 0.075987
O O12 0.924800 0.862417 0.500000
O O13 0.902866 0.783265 0.619339
O O14 0.000000 0.885463 0.624092
O O15 0.751231 0.248770 0.750000
O O16 0.780656 0.274668 0.607268
O O17 0.298463 0.877817 0.000000
O O18 0.927245 0.500000 0.000000
O O19 0.000000 0.615172 0.000000
#
# Coordination Sequence:
#
# PCOD9566530 Si02
#       7
#    16  16  16  16  16  16   8
#     4  10  20  34  52  77 110 145 181 220 263 316
#     4   9  19  33  49  72  99 130 173 223 271 316
#     4  10  21  36  54  78 108 139 176 221 269 323
#     4   8  14  26  45  66  89 121 166 215 259 301
#     4  11  21  37  53  75 102 139 177 216 269 322
#     4  10  20  34  52  74 103 136 175 218 263 316
#     4   9  18  32  52  80 110 140 174 215 266 322
#
# _framework density 17.319302
#
# number of rings (size 3 to 8) (size 9 to 14) (size 15 to 20)
#    0.000    2.385    1.538    2.308    2.154    4.615 
#    0.000    3.077    0.000    0.000    0.000    0.000 
#    0.000    2.154    0.000    1.385    0.000    0.000 
#
# Total GULP energy -579975.827954 kJ/mol
# GULP energy per Si atom -5576.690653 kJ/mol
# Density = 1.727988 g / cm^3
# Si number density = 17.319302 Si / 1000 Ang^3
#
#
#
# Elastic Constant Matrix: (Units=GPa)
#
#
# Indices 1 2 3 4 5 6 
#
# 1 67.3528 -2.6992 -2.6055 0.0000 0.0000 0.0000
# 2 -2.6992 67.3533 -2.6056 0.0000 0.0000 0.0000
# 3 -2.6055 -2.6056 35.6241 0.0000 0.0000 0.0000
# 4 0.0000 0.0000 0.0000 19.6993 0.0000 0.0000
# 5 0.0000 0.0000 0.0000 0.0000 19.6991 0.0000
# 6 0.0000 0.0000 0.0000 0.0000 0.0000 16.8433
#
#
#
# Elastic Compliance Matrix: (Units=1/GPa)
#
#
# Indices 1 2 3 4 5 6 
#
# 1 0.014917 0.000642 0.001138 0.000000 0.000000 0.000000
# 2 0.000642 0.014917 0.001138 0.000000 0.000000 0.000000
# 3 0.001138 0.001138 0.028237 0.000000 0.000000 0.000000
# 4 0.000000 0.000000 0.000000 0.050763 0.000000 0.000000
# 5 0.000000 0.000000 0.000000 0.000000 0.050764 0.000000
# 6 0.000000 0.000000 0.000000 0.000000 0.000000 0.059371
#
#
# Mechanical properties :
#
#
# Convention : Reuss Voigt Hill
#
# Bulk Modulus (GPa) = 15.64783 17.16773 16.40778
# Shear Modulus (GPa) = 21.32782 23.13104 22.22943
#
# Velocity S-wave (km/s) = 3.51301 3.65850 3.58649
# Velocity P-wave (km/s) = 5.05069 5.27069 5.16186
#
# Compressibility (1/GPa) = 0.06390664
#
# Stress axis : x y z
#
# Youngs Moduli (GPa) = 67.03792 67.03836 35.41413
#
# Poissons Ratio (x) = -0.04303 -0.04030
# Poissons Ratio (y) = -0.04303 -0.04030
# Poissons Ratio (z) = -0.07629 -0.07629
#
# Static dielectric constant tensor:
#      x y z
#    x 1.611560 0.000000 0.000000 
#    y 0.000000 1.611560 0.000000 
#    z 0.000000 0.000000 1.592620 
# 
# From -- ./inp_files/8078.got.cif
#   From: 2010.05.17/outbox.cif.g08.bks.cpg/sg131_5_cif.got.tgz:8078.got - 2010.05.20 12:21:01.
