data_PCOD9566514
_publ_section_title
;
Structure prediction by ZEFSAII (Michael W. Deem and Ramdas Pophale) SiO2 
 PCOD9566514
Probable space group: P 42/M M C
;
_chemical_formula_sum "Si O2"
_cell_formula_units_Z 112
_cell_length_a 14.507037
_cell_length_b 14.507037
_cell_length_c 24.735046
_cell_angle_alpha 90.000000
_cell_angle_beta 90.000000
_cell_angle_gamma 90.000000
_cell_volume 5205.592401
_symmetry_space_group_name_H-M "P 42/M M C"
_symmetry_group_IT_number 131
_symmetry_cell_setting 'tetragonal'
loop_
_space_group_symop_operation_xyz
x,y,z
-x,-y,z
-y,x,1/2+z
y,-x,1/2+z
-x,y,-z
x,-y,-z
y,x,1/2-z
-y,-x,1/2-z
-x,-y,-z
x,y,-z
y,-x,1/2-z
-y,x,1/2-z
x,-y,z
-x,y,z
-y,-x,1/2+z
y,x,1/2+z
loop_
_atom_site_type_symbol
_atom_site_label
_atom_site_fract_x
_atom_site_fract_y
_atom_site_fract_z
Si Si1 0.888984 0.304021 0.333503
Si Si2 0.826608 0.397574 0.128181
Si Si3 0.109299 0.101871 0.660943
Si Si4 0.108054 0.776130 0.059438
Si Si5 0.607065 0.237031 0.253081
Si Si6 0.399456 0.355107 0.561426
Si Si7 0.396861 0.812133 0.062760
O O1 0.861909 0.199946 0.314478
O O2 0.832693 0.372811 0.295647
O O3 0.853667 0.326169 0.394177
O O4 0.000000 0.313009 0.330838
O O5 0.868467 0.500000 0.119289
O O6 0.866275 0.313701 0.093991
O O7 0.819719 0.377783 0.191463
O O8 0.722810 0.402330 0.106283
O O9 0.135703 0.117329 0.598160
O O10 0.000000 0.096933 0.668046
O O11 0.147006 0.000000 0.677570
O O12 0.000000 0.768147 0.051691
O O13 0.153048 0.780258 0.000000
O O14 0.676844 0.323157 0.250000
O O15 0.500000 0.266859 0.252587
O O16 0.397442 0.315829 0.500000
O O17 0.500000 0.403098 0.564893
O O18 0.299656 0.400670 0.567763
O O19 0.500000 0.847954 0.074152
O O20 0.374967 0.832462 0.000000
#
# Coordination Sequence:
#
# PCOD9566514 Si02
#       7
#    16  16  16  16  16  16  16
#     4  11  24  42  65  91 121 161 208 256 308 368
#     4  10  21  36  54  79 112 149 192 241 290 346
#     4   9  19  37  61  89 119 151 193 247 305 364
#     4  10  20  33  53  82 115 153 195 241 295 352
#     4  11  24  42  65  92 122 158 203 253 307 369
#     4   9  17  31  54  82 113 153 197 241 295 359
#     4  10  21  36  56  86 124 163 204 253 307 367
#
# _framework density 21.515322000000001
#
# number of rings (size 3 to 8) (size 9 to 14) (size 15 to 20)
#    0.000    2.000    0.000    3.429    0.000    5.571 
#    0.000    7.857    0.000    5.143    0.000    4.000 
#    0.000    0.000    0.000    0.000    0.000    0.000 
#
# Total GULP energy -624248.838990 kJ/mol
# GULP energy per Si atom -5573.650348 kJ/mol
# Density = 2.146635 g / cm^3
# Si number density = 21.515322 Si / 1000 Ang^3
#
#
#
# Elastic Constant Matrix: (Units=GPa)
#
#
# Indices 1 2 3 4 5 6 
#
# 1 62.3601 5.0624 2.9627 0.0000 0.0000 0.0000
# 2 5.0624 62.3584 2.9628 0.0000 0.0000 0.0000
# 3 2.9627 2.9628 60.0907 0.0000 0.0000 0.0000
# 4 0.0000 0.0000 0.0000 18.6427 0.0000 0.0000
# 5 0.0000 0.0000 0.0000 0.0000 18.6427 0.0000
# 6 0.0000 0.0000 0.0000 0.0000 0.0000 274.8897
#
#
#
# Elastic Compliance Matrix: (Units=1/GPa)
#
#
# Indices 1 2 3 4 5 6 
#
# 1 0.016175 -0.001278 -0.000734 0.000000 0.000000 0.000000
# 2 -0.001278 0.016175 -0.000735 0.000000 0.000000 0.000000
# 3 -0.000734 -0.000735 0.016714 0.000000 0.000000 0.000000
# 4 0.000000 0.000000 0.000000 0.053640 0.000000 0.000000
# 5 0.000000 0.000000 0.000000 0.000000 0.053640 0.000000
# 6 0.000000 0.000000 0.000000 0.000000 0.000000 0.003638
#
#
# Mechanical properties :
#
#
# Convention : Reuss Voigt Hill
#
# Bulk Modulus (GPa) = 22.95199 22.97612 22.96405
# Shear Modulus (GPa) = 27.77790 74.02311 50.90050
#
# Velocity S-wave (km/s) = 3.59705 5.87193 4.86920
# Velocity P-wave (km/s) = 5.28608 7.52827 6.50452
#
# Compressibility (1/GPa) = 0.04356921
#
# Stress axis : x y z
#
# Youngs Moduli (GPa) = 61.82554 61.82380 59.83027
#
# Poissons Ratio (x) = 0.07902 0.04394
# Poissons Ratio (y) = 0.07903 0.04395
# Poissons Ratio (z) = 0.04541 0.04541
#
# Static dielectric constant tensor:
#      x y z
#    x 1.814500 0.000000 0.000000 
#    y 0.000000 1.814500 0.000000 
#    z 0.000000 0.000000 12.811370 
# 
# From -- ./inp_files/11311.got.cif
#   From: 2010.05.17/outbox.cif.g08.bks.cpg/sg131_6_cif.got.tgz:11311.got - 2010.05.20 12:21:01.
