data_PCOD9566897
_publ_section_title
;
Structure prediction by ZEFSAII (Michael W. Deem and Ramdas Pophale) SiO2 
 PCOD9566897
Probable space group: P 42/M M C
;
_chemical_formula_sum "Si O2"
_cell_formula_units_Z 50
_cell_length_a 7.749473
_cell_length_b 7.749473
_cell_length_c 43.113121
_cell_angle_alpha 90.000000
_cell_angle_beta 90.000000
_cell_angle_gamma 90.000000
_cell_volume 2589.129673
_symmetry_space_group_name_H-M "P 42/M M C"
_symmetry_group_IT_number 131
_symmetry_cell_setting 'tetragonal'
loop_
_space_group_symop_operation_xyz
x,y,z
-x,-y,z
-y,x,1/2+z
y,-x,1/2+z
-x,y,-z
x,-y,-z
y,x,1/2-z
-y,-x,1/2-z
-x,-y,-z
x,y,-z
y,-x,1/2-z
-y,x,1/2-z
x,-y,z
-x,y,z
-y,-x,1/2+z
y,x,1/2+z
loop_
_atom_site_type_symbol
_atom_site_label
_atom_site_fract_x
_atom_site_fract_y
_atom_site_fract_z
Si Si1 0.306855 0.710514 0.420069
Si Si2 0.000000 0.288456 0.464436
Si Si3 0.200660 0.000000 0.690708
Si Si4 0.000000 0.000000 0.750000
Si Si5 0.695896 0.209001 0.149275
O O1 0.301940 0.500000 0.419961
O O2 0.500000 0.765467 0.427747
O O3 0.166640 0.768001 0.444950
O O4 0.260500 0.760691 0.384900
O O5 0.000000 0.500000 0.464654
O O6 0.000000 0.231802 0.500000
O O7 0.273791 0.827161 0.675548
O O8 0.167358 0.000000 0.727556
O O9 0.000000 0.000000 0.679561
O O10 0.500000 0.273477 0.153372
O O11 0.685793 0.000000 0.149965
#
# Coordination Sequence:
#
# PCOD9566897 Si02
#       5
#    16   8   8   2  16
#     4   9  16  26  42  65  92 123 161 205 252 298
#     4   9  16  25  38  60  92 129 167 204 249 309
#     4   8  16  28  47  74  97 127 162 195 239 287
#     4   8  16  28  44  76 100 132 166 196 236 292
#     4   9  15  27  48  70  92 122 159 196 239 287
#
# _framework density 19.311510999999999
#
# number of rings (size 3 to 8) (size 9 to 14) (size 15 to 20)
#    0.480    2.720    1.600    0.000    0.000    0.640 
#    0.000    4.000    0.000    3.840    0.000    2.240 
#    0.000    2.560    0.000    0.320    0.000    0.000 
#
# Total GULP energy -278401.092798 kJ/mol
# GULP energy per Si atom -5568.021856 kJ/mol
# Density = 1.926756 g / cm^3
# Si number density = 19.311511 Si / 1000 Ang^3
#
#
#
# Elastic Constant Matrix: (Units=GPa)
#
#
# Indices 1 2 3 4 5 6 
#
# 1 69.9638 20.4828 53.4172 0.0000 0.0000 0.0000
# 2 20.4828 69.9638 53.4172 0.0000 0.0000 0.0000
# 3 53.4172 53.4172 178.0656 0.0000 0.0000 0.0000
# 4 0.0000 0.0000 0.0000 -10.0690 0.0000 0.0000
# 5 0.0000 0.0000 0.0000 0.0000 -10.0690 0.0000
# 6 0.0000 0.0000 0.0000 0.0000 0.0000 -3.3337
#
#
#
# Elastic Compliance Matrix: (Units=1/GPa)
#
#
# Indices 1 2 3 4 5 6 
#
# 1 0.018667 -0.001543 -0.005137 0.000000 0.000000 0.000000
# 2 -0.001543 0.018667 -0.005137 0.000000 0.000000 0.000000
# 3 -0.005137 -0.005137 0.008698 0.000000 0.000000 0.000000
# 4 0.000000 0.000000 0.000000 -0.099315 0.000000 0.000000
# 5 0.000000 0.000000 0.000000 0.000000 -0.099315 0.000000
# 6 0.000000 0.000000 0.000000 0.000000 0.000000 -0.299964
#
#
# Mechanical properties :
#
#
# Convention : Reuss Voigt Hill
#
# Bulk Modulus (GPa) = 44.64680 63.62528 54.13604
# Shear Modulus (GPa) = -11.86344 8.01740 -1.92302
#
# Velocity S-wave (km/s) = -2.48124 2.03976 -0.99897
# Velocity P-wave (km/s) = 3.86791 6.21014 5.17333
#
# Compressibility (1/GPa) = 0.02239802
#
# Stress axis : x y z
#
# Youngs Moduli (GPa) = 53.57089 53.57089 114.97001
#
# Poissons Ratio (x) = 0.08266 0.59059
# Poissons Ratio (y) = 0.08266 0.59059
# Poissons Ratio (z) = 0.27519 0.27519
#
# Static dielectric constant tensor:
#      x y z
#    x 1.708810 0.000000 0.000000 
#    y 0.000000 1.708810 0.000000 
#    z 0.000000 0.000000 1.643410 
# 
# From -- ./inp_files/12973.got.cif
#   From: 2010.05.17/outbox.cif.g08.bks.cpg/sg131_7_cif.got.tgz:12973.got - 2010.05.20 12:21:01.
