data_PCOD9566584
_publ_section_title
;
Structure prediction by ZEFSAII (Michael W. Deem and Ramdas Pophale) SiO2 
 PCOD9566584
Probable space group: P 42/M M C
;
_chemical_formula_sum "Si O2"
_cell_formula_units_Z 88
_cell_length_a 18.341270
_cell_length_b 18.341270
_cell_length_c 14.863022
_cell_angle_alpha 90.000000
_cell_angle_beta 90.000000
_cell_angle_gamma 90.000000
_cell_volume 4999.953080
_symmetry_space_group_name_H-M "P 42/M M C"
_symmetry_group_IT_number 131
_symmetry_cell_setting 'tetragonal'
loop_
_space_group_symop_operation_xyz
x,y,z
-x,-y,z
-y,x,1/2+z
y,-x,1/2+z
-x,y,-z
x,-y,-z
y,x,1/2-z
-y,-x,1/2-z
-x,-y,-z
x,y,-z
y,-x,1/2-z
-y,x,1/2-z
x,-y,z
-x,y,z
-y,-x,1/2+z
y,x,1/2+z
loop_
_atom_site_type_symbol
_atom_site_label
_atom_site_fract_x
_atom_site_fract_y
_atom_site_fract_z
Si Si1 0.708891 0.187437 0.607027
Si Si2 0.000000 0.419855 0.739859
Si Si3 0.414978 0.161920 0.732686
Si Si4 0.913509 0.175206 0.823345
Si Si5 0.913267 0.919197 0.000000
Si Si6 0.839788 0.698523 0.606613
Si Si7 0.000000 0.287298 0.393693
O O1 0.700191 0.176778 0.500000
O O2 0.633539 0.202768 0.658155
O O3 0.744936 0.117114 0.655360
O O4 0.770593 0.249268 0.621310
O O5 0.075623 0.413750 0.792549
O O6 0.000000 0.362003 0.660891
O O7 0.000000 0.500000 0.697534
O O8 0.500000 0.183611 0.739373
O O9 0.370757 0.166879 0.827201
O O10 0.867750 0.132251 0.750000
O O11 0.000000 0.175939 0.803641
O O12 0.898882 0.128958 0.913643
O O13 0.000000 0.929474 0.000000
O O14 0.878225 0.000000 0.000000
O O15 0.840839 0.679533 0.500000
O O16 0.917445 0.739855 0.626839
O O17 0.000000 0.297367 0.500000
#
# Coordination Sequence:
#
# PCOD9566584 Si02
#       7
#    16   8  16  16   8  16   8
#     4  11  23  39  55  77 109 147 189 232 281 335
#     4   8  16  29  45  72 102 131 173 226 270 312
#     4  10  20  35  55  79 109 143 185 232 280 335
#     4  11  22  37  55  76 102 141 189 239 294 342
#     4   9  18  34  50  70 101 131 174 236 291 338
#     4   9  18  34  55  82 114 145 178 225 280 340
#     4   8  14  27  48  73 104 138 171 206 263 329
#
# _framework density 17.600166000000002
#
# number of rings (size 3 to 8) (size 9 to 14) (size 15 to 20)
#    0.000    2.273    0.909    2.182    1.273    1.818 
#    6.545    3.636    0.000    1.636    0.000    0.000 
#    0.000    5.818    0.000   16.000    0.000    0.364 
#
# Total GULP energy -490635.656728 kJ/mol
# GULP energy per Si atom -5575.405190 kJ/mol
# Density = 1.756011 g / cm^3
# Si number density = 17.600166 Si / 1000 Ang^3
#
#
#
# Elastic Constant Matrix: (Units=GPa)
#
#
# Indices 1 2 3 4 5 6 
#
# 1 107.3345 31.2737 41.6764 0.0000 0.0000 0.0000
# 2 31.2737 107.3341 41.6767 0.0000 0.0000 0.0000
# 3 41.6764 41.6767 97.0682 0.0000 0.0000 0.0000
# 4 0.0000 0.0000 0.0000 -36.3286 0.0000 0.0000
# 5 0.0000 0.0000 0.0000 0.0000 -36.3247 0.0000
# 6 0.0000 0.0000 0.0000 0.0000 0.0000 15.8656
#
#
#
# Elastic Compliance Matrix: (Units=1/GPa)
#
#
# Indices 1 2 3 4 5 6 
#
# 1 0.011437 -0.001711 -0.004176 0.000000 0.000000 0.000000
# 2 -0.001711 0.011437 -0.004176 0.000000 0.000000 0.000000
# 3 -0.004176 -0.004176 0.013888 0.000000 0.000000 0.000000
# 4 0.000000 0.000000 0.000000 -0.027527 0.000000 0.000000
# 5 0.000000 0.000000 0.000000 0.000000 -0.027529 0.000000
# 6 0.000000 0.000000 0.000000 0.000000 0.000000 0.063030
#
#
# Mechanical properties :
#
#
# Convention : Reuss Voigt Hill
#
# Bulk Modulus (GPa) = 60.11003 60.11005 60.11004
# Shear Modulus (GPa) = 71.01804 1.78313 36.40059
#
# Velocity S-wave (km/s) = 6.35912 1.00764 4.55268
# Velocity P-wave (km/s) = 9.38856 5.96498 7.86531
#
# Compressibility (1/GPa) = 0.01663616
#
# Stress axis : x y z
#
# Youngs Moduli (GPa) = 87.43915 87.43849 72.00565
#
# Poissons Ratio (x) = 0.14959 0.30068
# Poissons Ratio (y) = 0.14959 0.30068
# Poissons Ratio (z) = 0.36512 0.36513
#
# Static dielectric constant tensor:
#      x y z
#    x 1.745720 0.000000 0.000000 
#    y 0.000000 1.745710 0.000000 
#    z 0.000000 0.000000 1.615400 
# 
# From -- ./inp_files/5958.got.cif
#   From: 2010.05.17/outbox.cif.g08.bks.cpg/sg131_3_cif.got.tgz:5958.got - 2010.05.20 12:21:01.
