data_PCOD9566867
_publ_section_title
;
Structure prediction by ZEFSAII (Michael W. Deem and Ramdas Pophale) SiO2 
 PCOD9566867
Probable space group: P 42/M M C
;
_chemical_formula_sum "Si O2"
_cell_formula_units_Z 34
_cell_length_a 14.832254
_cell_length_b 14.832254
_cell_length_c 8.183424
_cell_angle_alpha 90.000000
_cell_angle_beta 90.000000
_cell_angle_gamma 90.000000
_cell_volume 1800.318572
_symmetry_space_group_name_H-M "P 42/M M C"
_symmetry_group_IT_number 131
_symmetry_cell_setting 'tetragonal'
loop_
_space_group_symop_operation_xyz
x,y,z
-x,-y,z
-y,x,1/2+z
y,-x,1/2+z
-x,y,-z
x,-y,-z
y,x,1/2-z
-y,-x,1/2-z
-x,-y,-z
x,y,-z
y,-x,1/2-z
-y,x,1/2-z
x,-y,z
-x,y,z
-y,-x,1/2+z
y,x,1/2+z
loop_
_atom_site_type_symbol
_atom_site_label
_atom_site_fract_x
_atom_site_fract_y
_atom_site_fract_z
Si Si1 0.306368 0.831893 0.693536
Si Si2 0.191124 0.000000 0.811169
Si Si3 0.000000 0.000000 0.750000
Si Si4 0.894280 0.500000 0.303511
O O1 0.261441 0.738560 0.750000
O O2 0.295423 0.841613 0.500000
O O3 0.410083 0.846265 0.740083
O O4 0.250708 0.912109 0.779925
O O5 0.104535 0.000000 0.693055
O O6 0.158693 0.000000 0.000000
O O7 0.893248 0.500000 0.500000
O O8 0.000000 0.500000 0.251313
#
# Coordination Sequence:
#
# PCOD9566867 Si02
#       4
#    16   8   2   8
#     4  12  25  41  63  91 126 165 211 261 317 376
#     4  12  24  38  57  85 122 167 215 258 304 365
#     4  12  26  36  60  82 130 172 218 248 306 364
#     4  11  23  41  67  94 126 165 214 268 320 375
#
# _framework density 18.885548
#
# number of rings (size 3 to 8) (size 9 to 14) (size 15 to 20)
#    0.000    0.235    4.706    6.000    0.000    2.824 
#    0.000    0.000    0.000    0.706    0.000    4.941 
#    0.000    0.000    0.000    0.000    0.000    0.000 
#
# Total GULP energy -190006.697645 kJ/mol
# GULP energy per Si atom -5588.432284 kJ/mol
# Density = 1.884256 g / cm^3
# Si number density = 18.885548 Si / 1000 Ang^3
#
#
#
# Elastic Constant Matrix: (Units=GPa)
#
#
# Indices 1 2 3 4 5 6 
#
# 1 156.7132 70.4503 26.7086 0.0000 0.0000 0.0000
# 2 70.4503 156.7183 26.7088 0.0000 0.0000 0.0000
# 3 26.7086 26.7088 116.8047 0.0000 0.0000 0.0000
# 4 0.0000 0.0000 0.0000 23.2103 0.0000 0.0000
# 5 0.0000 0.0000 0.0000 0.0000 23.2095 0.0000
# 6 0.0000 0.0000 0.0000 0.0000 0.0000 23.1641
#
#
#
# Elastic Compliance Matrix: (Units=1/GPa)
#
#
# Indices 1 2 3 4 5 6 
#
# 1 0.008122 -0.003470 -0.001064 0.000000 0.000000 0.000000
# 2 -0.003470 0.008122 -0.001064 0.000000 0.000000 0.000000
# 3 -0.001064 -0.001064 0.009048 0.000000 0.000000 0.000000
# 4 0.000000 0.000000 0.000000 0.043084 0.000000 0.000000
# 5 0.000000 0.000000 0.000000 0.000000 0.043086 0.000000
# 6 0.000000 0.000000 0.000000 0.000000 0.000000 0.043170
#
#
# Mechanical properties :
#
#
# Convention : Reuss Voigt Hill
#
# Bulk Modulus (GPa) = 70.93662 75.33017 73.13340
# Shear Modulus (GPa) = 29.32093 34.34133 31.83113
#
# Velocity S-wave (km/s) = 3.94453 4.26889 4.10991
# Velocity P-wave (km/s) = 7.64124 8.01699 7.83137
#
# Compressibility (1/GPa) = 0.01409709
#
# Stress axis : x y z
#
# Youngs Moduli (GPa) = 123.11777 123.12190 110.52424
#
# Poissons Ratio (x) = 0.42723 0.11758
# Poissons Ratio (y) = 0.42721 0.11757
# Poissons Ratio (z) = 0.13097 0.13097
#
# Static dielectric constant tensor:
#      x y z
#    x 1.634570 0.000000 0.000000 
#    y 0.000000 1.634570 0.000000 
#    z 0.000000 0.000000 1.734650 
# 
# From -- ./inp_files/520.got.cif
#   From: 2010.05.17/outbox.cif.g08.bks.cpg/sg131_1_cif.got.tgz:520.got - 2010.05.20 12:21:01.
