data_PCOD9566027
_publ_section_title
;
Structure prediction by ZEFSAII (Michael W. Deem and Ramdas Pophale) SiO2 
 PCOD9566027
Probable space group: P 4/N C C
;
_chemical_formula_sum "Si O2"
_cell_formula_units_Z 100
_cell_length_a 15.000000
_cell_length_b 15.000000
_cell_length_c 24.000000
_cell_angle_alpha 90.000000
_cell_angle_beta 90.000000
_cell_angle_gamma 90.000000
_cell_volume 5400.000000
_symmetry_space_group_name_H-M "P 4/N C C"
_symmetry_group_IT_number 130
_symmetry_cell_setting 'tetragonal'
loop_
_space_group_symop_operation_xyz
x,y,z
1/2-y,x,z
1/2-x,1/2-y,z
y,1/2-x,z
1/2+x,-y,1/2-z
-x,1/2+y,1/2-z
1/2+y,1/2+x,1/2-z
-y,-x,1/2-z
-x,-y,-z
1/2+y,-x,-z
1/2+x,1/2+y,-z
-y,1/2+x,-z
1/2-x,y,1/2+z
x,1/2-y,1/2+z
1/2-y,1/2-x,1/2+z
y,x,1/2+z
loop_
_atom_site_type_symbol
_atom_site_label
_atom_site_fract_x
_atom_site_fract_y
_atom_site_fract_z
Si Si1 0.613558 0.585711 0.189512
Si Si2 0.269193 0.898138 0.498634
Si Si3 0.692334 0.889693 0.806257
Si Si4 0.686279 0.418433 0.124298
Si Si5 0.955368 0.260041 0.618676
Si Si6 0.598212 0.126495 0.313677
Si Si7 0.250000 0.250000 0.331257
O O1 0.654711 0.564143 0.250695
O O2 0.637126 0.502053 0.151284
O O3 0.506364 0.597997 0.188988
O O4 0.665929 0.676450 0.171817
O O5 0.344129 0.822948 0.509868
O O6 0.292876 0.941510 0.440008
O O7 0.261232 0.959294 0.552960
O O8 0.639471 0.796203 0.805398
O O9 0.689674 0.957937 0.857292
O O10 0.627092 0.328589 0.125670
O O11 0.778018 0.400186 0.156419
O O12 0.935979 0.168539 0.652741
O O13 0.630443 0.130443 0.250000
#
# Coordination Sequence:
#
# PCOD9566027 Si02
#       7
#    16  16  16  16  16  16   4
#     4  12  23  40  65  94 126 176 219 254 327 397
#     4   9  18  40  64  86 126 173 212 256 330 392
#     4  11  22  42  64  87 127 178 215 255 325 402
#     4  11  23  40  65  95 126 173 212 262 329 390
#     4  11  24  39  66  96 127 164 216 274 324 384
#     4  12  25  39  61  98 133 159 207 274 326 380
#     4  12  20  44  64  84 126 176 216 256 304 402
#
# _framework density 18.518519000000001
#
# number of rings (size 3 to 8) (size 9 to 14) (size 15 to 20)
#    0.000    0.960    4.800    2.400    4.480    2.560 
#    0.000    2.400    0.000    0.000    0.000    0.000 
#    0.000    0.000    0.000    0.000    0.000    0.000 
#
# Total GULP energy -557334.875546 kJ/mol
# GULP energy per Si atom -5573.348755 kJ/mol
# Density = 1.847637 g / cm^3
# Si number density = 18.518519 Si / 1000 Ang^3
#
#
#
# Elastic Constant Matrix: (Units=GPa)
#
#
# Indices 1 2 3 4 5 6 
#
# 1 99.5616 -1.3964 51.4442 0.0000 0.0000 0.0000
# 2 -1.3964 99.5616 51.4442 0.0000 0.0000 0.0000
# 3 51.4442 51.4442 154.5130 0.0000 0.0000 0.0000
# 4 0.0000 0.0000 0.0000 19.5747 0.0000 0.0000
# 5 0.0000 0.0000 0.0000 0.0000 19.5747 0.0000
# 6 0.0000 0.0000 0.0000 0.0000 0.0000 18.5773
#
#
#
# Elastic Compliance Matrix: (Units=1/GPa)
#
#
# Indices 1 2 3 4 5 6 
#
# 1 0.012776 0.002871 -0.005210 0.000000 0.000000 0.000000
# 2 0.002871 0.012776 -0.005210 0.000000 0.000000 0.000000
# 3 -0.005210 -0.005210 0.009941 0.000000 0.000000 0.000000
# 4 0.000000 0.000000 0.000000 0.051086 0.000000 0.000000
# 5 0.000000 0.000000 0.000000 0.000000 0.051086 0.000000
# 6 0.000000 0.000000 0.000000 0.000000 0.000000 0.053829
#
#
# Mechanical properties :
#
#
# Convention : Reuss Voigt Hill
#
# Bulk Modulus (GPa) = 49.02721 61.84669 55.43695
# Shear Modulus (GPa) = 23.43119 28.35494 25.89306
#
# Velocity S-wave (km/s) = 3.56094 3.91726 3.74334
# Velocity P-wave (km/s) = 6.59085 7.34368 6.97742
#
# Compressibility (1/GPa) = 0.02039684
#
# Stress axis : x y z
#
# Youngs Moduli (GPa) = 78.27072 78.27072 100.59353
#
# Poissons Ratio (x) = -0.22472 0.52406
# Poissons Ratio (y) = -0.22472 0.52406
# Poissons Ratio (z) = 0.40776 0.40776
#
# Static dielectric constant tensor:
#      x y z
#    x 1.636760 0.000000 0.000000 
#    y 0.000000 1.636760 0.000000 
#    z 0.000000 0.000000 1.651130 
# 
# From -- ./inp_files/4220.got.cif
#   From: 2010.05.17/outbox.ucp.g08.bks.cvg/sg130_3_cif.got.tgz:4220.got - 2010.06.11 11:38:29.
