data_PCOD9566888
_publ_section_title
;
Structure prediction by ZEFSAII (Michael W. Deem and Ramdas Pophale) SiO2 
 PCOD9566888
Probable space group: P 42/M M C
;
_chemical_formula_sum "Si O2"
_cell_formula_units_Z 40
_cell_length_a 7.327353
_cell_length_b 7.327353
_cell_length_c 32.104380
_cell_angle_alpha 90.000000
_cell_angle_beta 90.000000
_cell_angle_gamma 90.000000
_cell_volume 1723.687436
_symmetry_space_group_name_H-M "P 42/M M C"
_symmetry_group_IT_number 131
_symmetry_cell_setting 'tetragonal'
loop_
_space_group_symop_operation_xyz
x,y,z
-x,-y,z
-y,x,1/2+z
y,-x,1/2+z
-x,y,-z
x,-y,-z
y,x,1/2-z
-y,-x,1/2-z
-x,-y,-z
x,y,-z
y,-x,1/2-z
-y,x,1/2-z
x,-y,z
-x,y,z
-y,-x,1/2+z
y,x,1/2+z
loop_
_atom_site_type_symbol
_atom_site_label
_atom_site_fract_x
_atom_site_fract_y
_atom_site_fract_z
Si Si1 0.500000 0.222639 0.952493
Si Si2 0.790001 0.777110 0.114592
Si Si3 0.783977 0.221782 0.705194
O O1 0.672262 0.279532 0.924742
O O2 0.500000 0.000000 0.953621
O O3 0.500000 0.285124 0.000000
O O4 0.719192 0.714424 0.160009
O O5 0.000000 0.723120 0.110324
O O6 0.785325 0.000000 0.115925
O O7 0.712752 0.287249 0.750000
O O8 0.000000 0.263652 0.705613
O O9 0.767869 0.000000 0.704925
#
# Coordination Sequence:
#
# PCOD9566888 Si02
#       3
#     8  16  16
#     4   9  16  22  26  34  50  76 112 151 191 236
#     4   8  13  20  28  37  50  70 100 143 192 237
#     4   7   9  14  25  39  51  62  81 118 172 227
#
# _framework density 23.206064999999999
#
# number of rings (size 3 to 8) (size 9 to 14) (size 15 to 20)
#    0.000    4.200    0.000    3.600    0.000    0.800 
#    0.000    4.000    0.000    0.000    0.000    0.000 
#    0.000    0.000    0.000    0.000    0.000    1.000 
#
# Total GULP energy -223044.839858 kJ/mol
# GULP energy per Si atom -5576.120996 kJ/mol
# Density = 2.315325 g / cm^3
# Si number density = 23.206065 Si / 1000 Ang^3
#
#
#
# Elastic Constant Matrix: (Units=GPa)
#
#
# Indices 1 2 3 4 5 6 
#
# 1 95.3091 6.6783 57.6199 0.0000 0.0000 0.0000
# 2 6.6783 95.3095 57.6200 0.0000 0.0000 0.0000
# 3 57.6199 57.6200 336.6802 0.0000 0.0000 0.0000
# 4 0.0000 0.0000 0.0000 161.4981 0.0000 0.0000
# 5 0.0000 0.0000 0.0000 0.0000 161.4972 0.0000
# 6 0.0000 0.0000 0.0000 0.0000 0.0000 -12.8359
#
#
#
# Elastic Compliance Matrix: (Units=1/GPa)
#
#
# Indices 1 2 3 4 5 6 
#
# 1 0.011719 0.000437 -0.002080 0.000000 0.000000 0.000000
# 2 0.000437 0.011719 -0.002080 0.000000 0.000000 0.000000
# 3 -0.002080 -0.002080 0.003682 0.000000 0.000000 0.000000
# 4 0.000000 0.000000 0.000000 0.006192 0.000000 0.000000
# 5 0.000000 0.000000 0.000000 0.000000 0.006192 0.000000
# 6 0.000000 0.000000 0.000000 0.000000 0.000000 -0.077906
#
#
# Mechanical properties :
#
#
# Convention : Reuss Voigt Hill
#
# Bulk Modulus (GPa) = 50.83265 85.68171 68.25718
# Shear Modulus (GPa) = -204.95485 89.05726 -57.94880
#
# Velocity S-wave (km/s) = -9.40804 6.20162 -5.00256
# Velocity P-wave (km/s) = 9.80115 9.39587 1.97234
#
# Compressibility (1/GPa) = 0.01967239
#
# Stress axis : x y z
#
# Youngs Moduli (GPa) = 85.32938 85.32979 271.57313
#
# Poissons Ratio (x) = -0.03725 0.56497
# Poissons Ratio (y) = -0.03725 0.56497
# Poissons Ratio (z) = 0.17752 0.17752
#
# Static dielectric constant tensor:
#      x y z
#    x 1.794900 0.000000 0.000000 
#    y 0.000000 1.794900 0.000000 
#    z 0.000000 0.000000 1.855930 
# 
# From -- ./inp_files/11706.got.cif
#   From: 2010.05.17/outbox.cif.g08.bks.cpg/sg131_6_cif.got.tgz:11706.got - 2010.05.20 12:21:01.
