data_PCOD9566796
_publ_section_title
;
Structure prediction by ZEFSAII (Michael W. Deem and Ramdas Pophale) SiO2 
 PCOD9566796
Probable space group: P 42/M M C
;
_chemical_formula_sum "Si O2"
_cell_formula_units_Z 58
_cell_length_a 17.834634
_cell_length_b 17.834634
_cell_length_c 9.492263
_cell_angle_alpha 90.000000
_cell_angle_beta 90.000000
_cell_angle_gamma 90.000000
_cell_volume 3019.243674
_symmetry_space_group_name_H-M "P 42/M M C"
_symmetry_group_IT_number 131
_symmetry_cell_setting 'tetragonal'
loop_
_space_group_symop_operation_xyz
x,y,z
-x,-y,z
-y,x,1/2+z
y,-x,1/2+z
-x,y,-z
x,-y,-z
y,x,1/2-z
-y,-x,1/2-z
-x,-y,-z
x,y,-z
y,-x,1/2-z
-y,x,1/2-z
x,-y,z
-x,y,z
-y,-x,1/2+z
y,x,1/2+z
loop_
_atom_site_type_symbol
_atom_site_label
_atom_site_fract_x
_atom_site_fract_y
_atom_site_fract_z
Si Si1 0.000000 0.108812 0.169780
Si Si2 0.500000 0.500000 0.500000
Si Si3 0.694506 0.694506 0.750000
Si Si4 0.343312 0.417220 0.000000
Si Si5 0.253322 0.000000 0.158229
Si Si6 0.144300 0.360041 0.660042
Si Si7 0.500000 0.911046 0.331974
O O1 0.069804 0.069804 0.250000
O O2 0.000000 0.194534 0.215662
O O3 0.000000 0.097394 0.000000
O O4 0.564036 0.432509 0.500000
O O5 0.679622 0.631660 0.867182
O O6 0.778086 0.681893 0.692531
O O7 0.306905 0.500000 0.000000
O O8 0.304001 0.926038 0.167817
O O9 0.217680 0.000000 0.000000
O O10 0.147743 0.389758 0.500000
O O11 0.128120 0.427196 0.766701
O O12 0.500000 0.906207 0.500000
O O13 0.500000 0.000000 0.293019
#
# Coordination Sequence:
#
# PCOD9566796 Si02
#       7
#     8   2   8   8   8  16   8
#     4  11  23  42  68  99 131 174 224 275 331 408
#     4   8  24  42  72  94 128 178 216 274 332 410
#     4  12  26  45  66 106 131 180 230 284 348 402
#     4  10  26  44  68  94 140 176 225 283 336 408
#     4  10  23  44  67  96 137 180 221 278 349 410
#     4  11  25  45  69  98 136 179 226 283 344 417
#     4  11  25  43  69 100 133 178 232 285 339 410
#
# _framework density 19.210108000000002
#
# number of rings (size 3 to 8) (size 9 to 14) (size 15 to 20)
#    0.414    0.828    2.759    2.069    7.724    2.207 
#    0.000    0.000    0.000    0.000    0.000    0.000 
#    0.000    0.000    0.000    0.000    0.000    0.000 
#
# Total GULP energy -323356.223313 kJ/mol
# GULP energy per Si atom -5575.107298 kJ/mol
# Density = 1.916638 g / cm^3
# Si number density = 19.210108 Si / 1000 Ang^3
#
#
#
# Elastic Constant Matrix: (Units=GPa)
#
#
# Indices 1 2 3 4 5 6 
#
# 1 124.6800 36.2622 50.2967 0.0000 0.0000 0.0000
# 2 36.2622 124.6800 50.2967 0.0000 0.0000 0.0000
# 3 50.2967 50.2967 141.5743 0.0000 0.0000 0.0000
# 4 0.0000 0.0000 0.0000 20.9449 0.0000 0.0000
# 5 0.0000 0.0000 0.0000 0.0000 20.9449 0.0000
# 6 0.0000 0.0000 0.0000 0.0000 0.0000 21.2696
#
#
#
# Elastic Compliance Matrix: (Units=1/GPa)
#
#
# Indices 1 2 3 4 5 6 
#
# 1 0.009648 -0.001662 -0.002837 0.000000 0.000000 0.000000
# 2 -0.001662 0.009648 -0.002837 0.000000 0.000000 0.000000
# 3 -0.002837 -0.002837 0.009080 0.000000 0.000000 0.000000
# 4 0.000000 0.000000 0.000000 0.047744 0.000000 0.000000
# 5 0.000000 0.000000 0.000000 0.000000 0.047744 0.000000
# 6 0.000000 0.000000 0.000000 0.000000 0.000000 0.047015
#
#
# Mechanical properties :
#
#
# Convention : Reuss Voigt Hill
#
# Bulk Modulus (GPa) = 72.97436 73.84950 73.41193
# Shear Modulus (GPa) = 26.29903 29.57048 27.93476
#
# Velocity S-wave (km/s) = 3.70404 3.92767 3.81749
# Velocity P-wave (km/s) = 7.50754 7.68735 7.59798
#
# Compressibility (1/GPa) = 0.01370344
#
# Stress axis : x y z
#
# Youngs Moduli (GPa) = 103.64383 103.64383 110.13739
#
# Poissons Ratio (x) = 0.17220 0.31251
# Poissons Ratio (y) = 0.17220 0.31251
# Poissons Ratio (z) = 0.29409 0.29409
#
# Static dielectric constant tensor:
#      x y z
#    x 1.653970 0.000000 0.000000 
#    y 0.000000 1.653970 0.000000 
#    z 0.000000 0.000000 1.659940 
# 
# From -- ./inp_files/1349.got.cif
#   From: 2010.05.17/outbox.cif.g08.bks.cpg/sg131_1_cif.got.tgz:1349.got - 2010.05.20 12:21:01.
