data_PCOD9566211
_publ_section_title
;
Structure prediction by ZEFSAII (Michael W. Deem and Ramdas Pophale) SiO2 
 PCOD9566211
Probable space group: P 42/M M C
;
_chemical_formula_sum "Si O2"
_cell_formula_units_Z 80
_cell_length_a 23.385822
_cell_length_b 23.385822
_cell_length_c 7.750153
_cell_angle_alpha 90.000000
_cell_angle_beta 90.000000
_cell_angle_gamma 90.000000
_cell_volume 4238.532872
_symmetry_space_group_name_H-M "P 42/M M C"
_symmetry_group_IT_number 131
_symmetry_cell_setting 'tetragonal'
loop_
_space_group_symop_operation_xyz
x,y,z
-x,-y,z
-y,x,1/2+z
y,-x,1/2+z
-x,y,-z
x,-y,-z
y,x,1/2-z
-y,-x,1/2-z
-x,-y,-z
x,y,-z
y,-x,1/2-z
-y,x,1/2-z
x,-y,z
-x,y,z
-y,-x,1/2+z
y,x,1/2+z
loop_
_atom_site_type_symbol
_atom_site_label
_atom_site_fract_x
_atom_site_fract_y
_atom_site_fract_z
Si Si1 0.717581 0.062984 0.302300
Si Si2 0.500000 0.407470 0.796899
Si Si3 0.810288 0.719617 0.791803
Si Si4 0.154330 0.937746 0.202177
Si Si5 0.500000 0.718411 0.305141
Si Si6 0.717130 0.373350 0.791922
O O1 0.696360 0.062882 0.500000
O O2 0.705607 0.125872 0.224575
O O3 0.786479 0.064173 0.302898
O O4 0.701777 0.000000 0.226267
O O5 0.445694 0.445694 0.750000
O O6 0.500000 0.350120 0.689988
O O7 0.500000 0.394340 0.000000
O O8 0.781144 0.781144 0.750000
O O9 0.765084 0.671752 0.731688
O O10 0.813432 0.717544 0.000000
O O11 0.112091 0.887910 0.250000
O O12 0.127324 0.000000 0.233682
O O13 0.169073 0.933927 0.000000
O O14 0.500000 0.742717 0.500000
O O15 0.562624 0.729888 0.224974
O O16 0.655962 0.344039 0.750000
O O17 0.719472 0.376625 0.000000
#
# Coordination Sequence:
#
# PCOD9566211 Si02
#       6
#    16   8  16  16   8  16
#     4   9  17  29  45  64  85 109 138 173 214 260
#     4  11  21  32  45  62  86 117 153 188 220 255
#     4   9  17  29  45  65  88 114 144 178 218 262
#     4  10  20  31  42  57  78 105 137 172 209 250
#     4  10  19  31  46  64  88 118 150 185 224 261
#     4   9  18  31  46  65  89 117 149 183 219 261
#
# _framework density 18.874455999999999
#
# number of rings (size 3 to 8) (size 9 to 14) (size 15 to 20)
#    0.000    2.500    0.000    3.000    0.000    6.200 
#    0.000    1.000    0.000    0.000    0.000    0.700 
#    0.000    5.600    0.000    0.000    0.000   28.900 
#
# Total GULP energy -445507.978399 kJ/mol
# GULP energy per Si atom -5568.849730 kJ/mol
# Density = 1.883150 g / cm^3
# Si number density = 18.874456 Si / 1000 Ang^3
#
#
#
# Elastic Constant Matrix: (Units=GPa)
#
#
# Indices 1 2 3 4 5 6 
#
# 1 103.8870 27.5873 -1.2721 0.0000 0.0000 0.0000
# 2 27.5873 103.8854 -1.2710 0.0000 0.0000 0.0000
# 3 -1.2721 -1.2710 45.7069 0.0000 0.0000 0.0000
# 4 0.0000 0.0000 0.0000 10.7343 0.0000 0.0000
# 5 0.0000 0.0000 0.0000 0.0000 10.7343 0.0000
# 6 0.0000 0.0000 0.0000 0.0000 0.0000 20.7986
#
#
#
# Elastic Compliance Matrix: (Units=1/GPa)
#
#
# Indices 1 2 3 4 5 6 
#
# 1 0.010358 -0.002748 0.000212 0.000000 0.000000 0.000000
# 2 -0.002748 0.010358 0.000212 0.000000 0.000000 0.000000
# 3 0.000212 0.000212 0.021890 0.000000 0.000000 0.000000
# 4 0.000000 0.000000 0.000000 0.093159 0.000000 0.000000
# 5 0.000000 0.000000 0.000000 0.000000 0.093159 0.000000
# 6 0.000000 0.000000 0.000000 0.000000 0.000000 0.048080
#
#
# Mechanical properties :
#
#
# Convention : Reuss Voigt Hill
#
# Bulk Modulus (GPa) = 26.34522 33.72974 30.03748
# Shear Modulus (GPa) = 16.98905 23.68246 20.33575
#
# Velocity S-wave (km/s) = 3.00343 3.54607 3.28597
# Velocity P-wave (km/s) = 5.10058 5.88859 5.50869
#
# Compressibility (1/GPa) = 0.03795755
#
# Stress axis : x y z
#
# Youngs Moduli (GPa) = 96.54194 96.54050 45.68232
#
# Poissons Ratio (x) = 0.26530 -0.00968
# Poissons Ratio (y) = 0.26531 -0.00966
# Poissons Ratio (z) = -0.02046 -0.02042
#
# Static dielectric constant tensor:
#      x y z
#    x 1.685730 0.000000 0.000000 
#    y 0.000000 1.685730 0.000000 
#    z 0.000000 0.000000 1.728860 
# 
# From -- ./inp_files/2124.got.cif
#   From: 2010.05.17/outbox.cif.g08.bks.cpg/sg131_2_cif.got.tgz:2124.got - 2010.05.20 12:21:01.
