data_PCOD9566687
_publ_section_title
;
Structure prediction by ZEFSAII (Michael W. Deem and Ramdas Pophale) SiO2 
 PCOD9566687
Probable space group: P 42/M M C
;
_chemical_formula_sum "Si O2"
_cell_formula_units_Z 96
_cell_length_a 25.044383
_cell_length_b 25.044383
_cell_length_c 7.574802
_cell_angle_alpha 90.000000
_cell_angle_beta 90.000000
_cell_angle_gamma 90.000000
_cell_volume 4751.075793
_symmetry_space_group_name_H-M "P 42/M M C"
_symmetry_group_IT_number 131
_symmetry_cell_setting 'tetragonal'
loop_
_space_group_symop_operation_xyz
x,y,z
-x,-y,z
-y,x,1/2+z
y,-x,1/2+z
-x,y,-z
x,-y,-z
y,x,1/2-z
-y,-x,1/2-z
-x,-y,-z
x,y,-z
y,-x,1/2-z
-y,x,1/2-z
x,-y,z
-x,y,z
-y,-x,1/2+z
y,x,1/2+z
loop_
_atom_site_type_symbol
_atom_site_label
_atom_site_fract_x
_atom_site_fract_y
_atom_site_fract_z
Si Si1 0.644654 0.147728 0.716429
Si Si2 0.060745 0.852423 0.212087
Si Si3 0.061481 0.440838 0.785184
Si Si4 0.353058 0.440691 0.709553
Si Si5 0.768143 0.559668 0.205716
Si Si6 0.233464 0.146649 0.288075
O O1 0.647099 0.148297 0.500000
O O2 0.608822 0.097124 0.770797
O O3 0.608899 0.197896 0.777315
O O4 0.705767 0.147155 0.778182
O O5 0.093561 0.906440 0.250000
O O6 0.097656 0.803414 0.278616
O O7 0.000000 0.852466 0.278916
O O8 0.058265 0.847407 0.000000
O O9 0.081369 0.500000 0.730704
O O10 0.000000 0.435874 0.730004
O O11 0.062141 0.440909 0.000000
O O12 0.396760 0.396760 0.750000
O O13 0.346396 0.442612 0.500000
O O14 0.369307 0.500000 0.771971
O O15 0.294687 0.428966 0.785141
O O16 0.776851 0.500000 0.282841
O O17 0.783638 0.555762 0.000000
O O18 0.200667 0.200667 0.250000
O O19 0.235856 0.141317 0.500000
#
# Coordination Sequence:
#
# PCOD9566687 Si02
#       6
#    16  16  16  16  16  16
#     4   9  16  26  43  66  90 122 162 195 228 275
#     4   9  18  32  49  69  93 121 152 187 229 275
#     4   8  13  21  35  60  95 127 151 182 227 274
#     4  10  21  36  53  73  97 124 155 192 235 285
#     4   9  17  30  48  69  95 126 159 197 238 277
#     4   9  18  32  47  64  90 121 152 188 228 269
#
# _framework density 20.205947999999999
#
# number of rings (size 3 to 8) (size 9 to 14) (size 15 to 20)
#    0.000    3.000    0.000    1.500    0.000    5.000 
#    0.000    7.500    0.000    0.000    0.000    0.000 
#    0.000    2.000    0.000   11.833    0.000   11.000 
#
# Total GULP energy -535330.067642 kJ/mol
# GULP energy per Si atom -5576.354871 kJ/mol
# Density = 2.015996 g / cm^3
# Si number density = 20.205948 Si / 1000 Ang^3
#
#
#
# Elastic Constant Matrix: (Units=GPa)
#
#
# Indices 1 2 3 4 5 6 
#
# 1 185.5496 125.3757 0.5733 0.0000 0.0000 0.0000
# 2 125.3757 185.5478 0.5740 0.0000 0.0000 0.0000
# 3 0.5733 0.5740 45.6486 0.0000 0.0000 0.0000
# 4 0.0000 0.0000 0.0000 -4.5004 0.0000 0.0000
# 5 0.0000 0.0000 0.0000 0.0000 -4.5001 0.0000
# 6 0.0000 0.0000 0.0000 0.0000 0.0000 34.4362
#
#
#
# Elastic Compliance Matrix: (Units=1/GPa)
#
#
# Indices 1 2 3 4 5 6 
#
# 1 0.009918 -0.006701 -0.000040 0.000000 0.000000 0.000000
# 2 -0.006701 0.009918 -0.000041 0.000000 0.000000 0.000000
# 3 -0.000040 -0.000041 0.021908 0.000000 0.000000 0.000000
# 4 0.000000 0.000000 0.000000 -0.222203 0.000000 0.000000
# 5 0.000000 0.000000 0.000000 0.000000 -0.222217 0.000000
# 6 0.000000 0.000000 0.000000 0.000000 0.000000 0.029039
#
#
# Mechanical properties :
#
#
# Convention : Reuss Voigt Hill
#
# Bulk Modulus (GPa) = 35.48797 74.42133 54.95465
# Shear Modulus (GPa) = -14.25797 24.43534 5.08868
#
# Velocity S-wave (km/s) = -2.65926 3.48129 1.58867
# Velocity P-wave (km/s) = 2.85874 7.28495 5.53367
#
# Compressibility (1/GPa) = 0.02817856
#
# Stress axis : x y z
#
# Youngs Moduli (GPa) = 100.83184 100.83086 45.64644
#
# Poissons Ratio (x) = 0.67569 0.00184
# Poissons Ratio (y) = 0.67569 0.00185
# Poissons Ratio (z) = 0.00406 0.00409
#
# Static dielectric constant tensor:
#      x y z
#    x 1.679360 0.000000 0.000000 
#    y 0.000000 1.679360 0.000000 
#    z 0.000000 0.000000 1.788270 
# 
# From -- ./inp_files/2298.got.cif
#   From: 2010.05.17/outbox.cif.g08.bks.cpg/sg131_2_cif.got.tgz:2298.got - 2010.05.20 12:21:01.
