data_PCOD9566296
_publ_section_title
;
Structure prediction by ZEFSAII (Michael W. Deem and Ramdas Pophale) SiO2 
 PCOD9566296
Probable space group: P 42/M M C
;
_chemical_formula_sum "Si O2"
_cell_formula_units_Z 56
_cell_length_a 13.080157
_cell_length_b 13.080157
_cell_length_c 17.228458
_cell_angle_alpha 90.000000
_cell_angle_beta 90.000000
_cell_angle_gamma 90.000000
_cell_volume 2947.625617
_symmetry_space_group_name_H-M "P 42/M M C"
_symmetry_group_IT_number 131
_symmetry_cell_setting 'tetragonal'
loop_
_space_group_symop_operation_xyz
x,y,z
-x,-y,z
-y,x,1/2+z
y,-x,1/2+z
-x,y,-z
x,-y,-z
y,x,1/2-z
-y,-x,1/2-z
-x,-y,-z
x,y,-z
y,-x,1/2-z
-y,x,1/2-z
x,-y,z
-x,y,z
-y,-x,1/2+z
y,x,1/2+z
loop_
_atom_site_type_symbol
_atom_site_label
_atom_site_fract_x
_atom_site_fract_y
_atom_site_fract_z
Si Si1 0.878802 0.000000 0.909782
Si Si2 0.883643 0.616733 0.619922
Si Si3 0.188503 0.778597 0.912618
Si Si4 0.619368 0.218891 0.282510
O O1 0.848514 0.888146 0.877679
O O2 0.000000 0.000000 0.909974
O O3 0.843162 0.000000 0.000000
O O4 0.872142 0.500000 0.595474
O O5 0.801136 0.690647 0.582816
O O6 0.862100 0.621453 0.712033
O O7 0.000000 0.648802 0.602674
O O8 0.175718 0.683750 0.855204
O O9 0.146653 0.764898 0.000000
O O10 0.682117 0.317884 0.250000
O O11 0.500000 0.240896 0.299882
#
# Coordination Sequence:
#
# PCOD9566296 Si02
#       4
#     8  16  16  16
#     4   9  18  32  49  71 103 143 173 206 268 330
#     4   9  17  31  52  74  99 130 166 214 265 313
#     4  10  19  32  51  76 107 137 173 220 267 321
#     4   9  19  34  52  74 102 140 182 221 264 321
#
# _framework density 18.998342000000001
#
# number of rings (size 3 to 8) (size 9 to 14) (size 15 to 20)
#    0.000    2.714    1.429    0.000    0.000    2.571 
#    0.000    1.429    0.000    0.000    0.000   16.000 
#    0.000    0.000    0.000    0.000    0.000    0.000 
#
# Total GULP energy -311759.055406 kJ/mol
# GULP energy per Si atom -5567.125989 kJ/mol
# Density = 1.895510 g / cm^3
# Si number density = 18.998342 Si / 1000 Ang^3
#
#
#
# Elastic Constant Matrix: (Units=GPa)
#
#
# Indices 1 2 3 4 5 6 
#
# 1 76.6955 13.5777 26.4137 0.0000 0.0000 0.0000
# 2 13.5777 76.6953 26.4138 0.0000 0.0000 0.0000
# 3 26.4137 26.4138 82.8249 0.0000 0.0000 0.0000
# 4 0.0000 0.0000 0.0000 7.3141 0.0000 0.0000
# 5 0.0000 0.0000 0.0000 0.0000 7.3142 0.0000
# 6 0.0000 0.0000 0.0000 0.0000 0.0000 17.1415
#
#
#
# Elastic Compliance Matrix: (Units=1/GPa)
#
#
# Indices 1 2 3 4 5 6 
#
# 1 0.014731 -0.001112 -0.004343 0.000000 0.000000 0.000000
# 2 -0.001112 0.014731 -0.004343 0.000000 0.000000 0.000000
# 3 -0.004343 -0.004343 0.014844 0.000000 0.000000 0.000000
# 4 0.000000 0.000000 0.000000 0.136722 0.000000 0.000000
# 5 0.000000 0.000000 0.000000 0.000000 0.136720 0.000000
# 6 0.000000 0.000000 0.000000 0.000000 0.000000 0.058338
#
#
# Mechanical properties :
#
#
# Convention : Reuss Voigt Hill
#
# Bulk Modulus (GPa) = 40.47099 41.00291 40.73695
# Shear Modulus (GPa) = 12.37870 17.67467 15.02668
#
# Velocity S-wave (km/s) = 2.55535 3.05344 2.81543
# Velocity P-wave (km/s) = 5.48225 5.83614 5.66196
#
# Compressibility (1/GPa) = 0.02470906
#
# Stress axis : x y z
#
# Youngs Moduli (GPa) = 67.88282 67.88256 67.36763
#
# Poissons Ratio (x) = 0.07549 0.29260
# Poissons Ratio (y) = 0.07549 0.29260
# Poissons Ratio (z) = 0.29483 0.29484
#
# Static dielectric constant tensor:
#      x y z
#    x 1.677980 0.000000 0.000000 
#    y 0.000000 1.677980 0.000000 
#    z 0.000000 0.000000 1.713860 
# 
# From -- ./inp_files/7213.got.cif
#   From: 2010.05.17/outbox.cif.g08.bks.cpg/sg131_4_cif.got.tgz:7213.got - 2010.05.20 12:21:01.
