data_PCOD9566522
_publ_section_title
;
Structure prediction by ZEFSAII (Michael W. Deem and Ramdas Pophale) SiO2 
 PCOD9566522
Probable space group: P 42/M M C
;
_chemical_formula_sum "Si O2"
_cell_formula_units_Z 120
_cell_length_a 27.251444
_cell_length_b 27.251444
_cell_length_c 8.018833
_cell_angle_alpha 90.000000
_cell_angle_beta 90.000000
_cell_angle_gamma 90.000000
_cell_volume 5955.115762
_symmetry_space_group_name_H-M "P 42/M M C"
_symmetry_group_IT_number 131
_symmetry_cell_setting 'tetragonal'
loop_
_space_group_symop_operation_xyz
x,y,z
-x,-y,z
-y,x,1/2+z
y,-x,1/2+z
-x,y,-z
x,-y,-z
y,x,1/2-z
-y,-x,1/2-z
-x,-y,-z
x,y,-z
y,-x,1/2-z
-y,x,1/2-z
x,-y,z
-x,y,z
-y,-x,1/2+z
y,x,1/2+z
loop_
_atom_site_type_symbol
_atom_site_label
_atom_site_fract_x
_atom_site_fract_y
_atom_site_fract_z
Si Si1 0.555549 0.745211 0.201515
Si Si2 0.642317 0.926893 0.703273
Si Si3 0.255730 0.821687 0.190391
Si Si4 0.186107 0.642945 0.803573
Si Si5 0.445253 0.366070 0.200494
Si Si6 0.557217 0.000000 0.703518
Si Si7 0.055457 0.137217 0.201280
Si Si8 0.249204 0.071165 0.308286
O O1 0.500000 0.757837 0.252747
O O2 0.595664 0.782055 0.267959
O O3 0.565654 0.689376 0.257302
O O4 0.557018 0.746084 0.000000
O O5 0.644355 0.930432 0.500000
O O6 0.636145 0.870235 0.750412
O O7 0.696884 0.944409 0.762284
O O8 0.593057 0.955211 0.754923
O O9 0.213874 0.786127 0.250000
O O10 0.308305 0.796088 0.211044
O O11 0.254220 0.870184 0.301318
O O12 0.248434 0.836905 0.000000
O O13 0.186453 0.653148 0.000000
O O14 0.404784 0.404784 0.250000
O O15 0.500000 0.379460 0.260451
O O16 0.446979 0.364415 0.000000
O O17 0.500000 0.000000 0.760431
O O18 0.554854 0.000000 0.500000
O O19 0.099238 0.099238 0.250000
O O20 0.060416 0.194455 0.262222
O O21 0.000000 0.120485 0.249764
O O22 0.057300 0.139507 0.000000
O O23 0.247956 0.054401 0.500000
#
# Coordination Sequence:
#
# PCOD9566522 Si02
#       8
#    16  16  16  16  16   8  16  16
#     4   9  19  36  54  72  99 137 178 220 269 325
#     4   8  16  29  47  73 107 142 177 221 268 319
#     4  11  21  34  53  77 108 143 176 215 267 324
#     4  10  20  34  51  77 107 138 178 223 271 322
#     4   9  19  35  53  74 101 132 168 211 259 313
#     4   9  16  26  44  74 111 147 178 215 270 322
#     4  10  22  38  57  82 110 145 187 232 285 346
#     4   9  18  34  55  80 108 140 183 230 275 324
#
# _framework density 20.150742000000001
#
# number of rings (size 3 to 8) (size 9 to 14) (size 15 to 20)
#    0.000    2.600    0.000    3.600    0.933    4.267 
#    0.000    5.333    0.000    0.000    0.000    1.400 
#    0.000   14.400    0.000    0.000    0.000    0.000 
#
# Total GULP energy -668702.264496 kJ/mol
# GULP energy per Si atom -5572.518871 kJ/mol
# Density = 2.010488 g / cm^3
# Si number density = 20.150742 Si / 1000 Ang^3
#
#
#
# Elastic Constant Matrix: (Units=GPa)
#
#
# Indices 1 2 3 4 5 6 
#
# 1 103.7823 121.7188 10.5593 0.0000 0.0000 0.0000
# 2 121.7188 103.7822 10.5369 0.0000 0.0000 0.0000
# 3 10.5593 10.5369 30.5172 0.0000 0.0000 0.0000
# 4 0.0000 0.0000 0.0000 10.0198 0.0000 0.0000
# 5 0.0000 0.0000 0.0000 0.0000 10.0206 0.0000
# 6 0.0000 0.0000 0.0000 0.0000 0.0000 40.5289
#
#
#
# Elastic Compliance Matrix: (Units=1/GPa)
#
#
# Indices 1 2 3 4 5 6 
#
# 1 -0.025587 0.030167 -0.001563 0.000000 0.000000 0.000000
# 2 0.030167 -0.025583 -0.001605 0.000000 0.000000 0.000000
# 3 -0.001563 -0.001605 0.033863 0.000000 0.000000 0.000000
# 4 0.000000 0.000000 0.000000 0.099802 0.000000 0.000000
# 5 0.000000 0.000000 0.000000 0.000000 0.099795 0.000000
# 6 0.000000 0.000000 0.000000 0.000000 0.000000 0.024674
#
#
# Mechanical properties :
#
#
# Convention : Reuss Voigt Hill
#
# Bulk Modulus (GPa) = 27.25325 58.19018 42.72172
# Shear Modulus (GPa) = 30.26686 18.46497 24.36591
#
# Velocity S-wave (km/s) = 3.87980 3.03040 3.48110
# Velocity P-wave (km/s) = 5.79866 6.41752 6.11592
#
# Compressibility (1/GPa) = 0.03669287
#
# Stress axis : x y z
#
# Youngs Moduli (GPa) = -39.08305 -39.08904 29.53045
#
# Poissons Ratio (x) = 1.17921 0.04615
# Poissons Ratio (y) = 1.17903 0.04740
# Poissons Ratio (z) = -0.06108 -0.06274
#
# Static dielectric constant tensor:
#      x y z
#    x 1.712240 0.000000 0.000000 
#    y 0.000000 1.712240 0.000000 
#    z 0.000000 0.000000 1.737000 
# 
# From -- ./inp_files/2646.got.cif
#   From: 2010.05.17/outbox.cif.g08.bks.cpg/sg131_2_cif.got.tgz:2646.got - 2010.05.20 12:21:01.
