data_PCOD9566017
_publ_section_title
;
Structure prediction by ZEFSAII (Michael W. Deem and Ramdas Pophale) SiO2 
 PCOD9566017
Probable space group: P 4/N C C
;
_chemical_formula_sum "Si O2"
_cell_formula_units_Z 36
_cell_length_a 12.753492
_cell_length_b 12.753492
_cell_length_c 8.159871
_cell_angle_alpha 90.000000
_cell_angle_beta 90.000000
_cell_angle_gamma 90.000000
_cell_volume 1327.215733
_symmetry_space_group_name_H-M "P 4/N C C"
_symmetry_group_IT_number 130
_symmetry_cell_setting 'tetragonal'
loop_
_space_group_symop_operation_xyz
x,y,z
1/2-y,x,z
1/2-x,1/2-y,z
y,1/2-x,z
1/2+x,-y,1/2-z
-x,1/2+y,1/2-z
1/2+y,1/2+x,1/2-z
-y,-x,1/2-z
-x,-y,-z
1/2+y,-x,-z
1/2+x,1/2+y,-z
-y,1/2+x,-z
1/2-x,y,1/2+z
x,1/2-y,1/2+z
1/2-y,1/2-x,1/2+z
y,x,1/2+z
loop_
_atom_site_type_symbol
_atom_site_label
_atom_site_fract_x
_atom_site_fract_y
_atom_site_fract_z
Si Si1 0.750000 0.250000 0.000000
Si Si2 0.399436 0.445473 0.316727
Si Si3 0.983084 0.288245 0.643836
O O1 0.638427 0.260222 0.100975
O O2 0.449197 0.550804 0.250000
O O3 0.353641 0.471939 0.492437
O O4 0.491771 0.360292 0.304466
O O5 0.304355 0.435938 0.189253
#
# Coordination Sequence:
#
# PCOD9566017 Si02
#       3
#     4  16  16
#     4  12  28  50  88 122 160 222 288 346 424 502
#     4  12  27  48  81 117 167 214 277 353 430 498
#     4  12  28  50  81 122 163 220 279 355 424 518
#
# _framework density 27.124452000000002
#
# number of rings (size 3 to 8) (size 9 to 14) (size 15 to 20)
#    0.000    0.000    4.444    4.000    6.222    2.667 
#    0.000    4.444    0.000    0.000    0.000    0.000 
#    0.000    0.000    0.000    0.000    0.000    0.000 
#
# Total GULP energy -200953.432307 kJ/mol
# GULP energy per Si atom -5582.039786 kJ/mol
# Density = 2.706272 g / cm^3
# Si number density = 27.124452 Si / 1000 Ang^3
#
#
#
# Elastic Constant Matrix: (Units=GPa)
#
#
# Indices 1 2 3 4 5 6 
#
# 1 120.7165 45.5932 26.5041 0.0000 0.0000 0.0000
# 2 45.5932 120.7242 26.5072 0.0000 0.0000 0.0000
# 3 26.5041 26.5072 96.7598 0.0000 0.0000 0.0000
# 4 0.0000 0.0000 0.0000 56.9805 0.0000 0.0000
# 5 0.0000 0.0000 0.0000 0.0000 56.9804 0.0000
# 6 0.0000 0.0000 0.0000 0.0000 0.0000 57.3221
#
#
#
# Elastic Compliance Matrix: (Units=1/GPa)
#
#
# Indices 1 2 3 4 5 6 
#
# 1 0.009950 -0.003361 -0.001805 0.000000 0.000000 0.000000
# 2 -0.003361 0.009949 -0.001805 0.000000 0.000000 0.000000
# 3 -0.001805 -0.001805 0.011324 0.000000 0.000000 0.000000
# 4 0.000000 0.000000 0.000000 0.017550 0.000000 0.000000
# 5 0.000000 0.000000 0.000000 0.000000 0.017550 0.000000
# 6 0.000000 0.000000 0.000000 0.000000 0.000000 0.017445
#
#
# Mechanical properties :
#
#
# Convention : Reuss Voigt Hill
#
# Bulk Modulus (GPa) = 57.86743 59.48993 58.67868
# Shear Modulus (GPa) = 48.32362 50.22967 49.27665
#
# Velocity S-wave (km/s) = 4.22542 4.30795 4.26689
# Velocity P-wave (km/s) = 6.72205 6.83552 6.77902
#
# Compressibility (1/GPa) = 0.01728088
#
# Stress axis : x y z
#
# Youngs Moduli (GPa) = 100.50624 100.51156 88.31132
#
# Poissons Ratio (x) = 0.33786 0.15936
# Poissons Ratio (y) = 0.33784 0.15938
# Poissons Ratio (z) = 0.18137 0.18140
#
# Static dielectric constant tensor:
#      x y z
#    x 2.180380 0.000000 0.000000 
#    y 0.000000 2.180390 0.000000 
#    z 0.000000 0.000000 2.177620 
# 
# From -- ./inp_files/365.got.cif
#   From: 2010.05.17/outbox.cif.g08.bks.cpg/sg130_1_cif.got.tgz:365.got - 2010.05.20 12:17:35.
