data_PCOD9566073
_publ_section_title
;
Structure prediction by ZEFSAII (Michael W. Deem and Ramdas Pophale) SiO2 
 PCOD9566073
Probable space group: P 42/M M C
;
_chemical_formula_sum "Si O2"
_cell_formula_units_Z 112
_cell_length_a 28.680564
_cell_length_b 28.680564
_cell_length_c 8.900804
_cell_angle_alpha 90.000000
_cell_angle_beta 90.000000
_cell_angle_gamma 90.000000
_cell_volume 7321.576637
_symmetry_space_group_name_H-M "P 42/M M C"
_symmetry_group_IT_number 131
_symmetry_cell_setting 'tetragonal'
loop_
_space_group_symop_operation_xyz
x,y,z
-x,-y,z
-y,x,1/2+z
y,-x,1/2+z
-x,y,-z
x,-y,-z
y,x,1/2-z
-y,-x,1/2-z
-x,-y,-z
x,y,-z
y,-x,1/2-z
-y,x,1/2-z
x,-y,z
-x,y,z
-y,-x,1/2+z
y,x,1/2+z
loop_
_atom_site_type_symbol
_atom_site_label
_atom_site_fract_x
_atom_site_fract_y
_atom_site_fract_z
Si Si1 0.775437 0.297526 0.179569
Si Si2 0.771079 0.948208 0.822189
Si Si3 0.404960 0.891691 0.827714
Si Si4 0.397237 0.779435 0.828392
Si Si5 0.947765 0.672916 0.170827
Si Si6 0.887598 0.500000 0.821238
Si Si7 0.777225 0.150416 0.320338
Si Si8 0.784887 0.500000 0.682750
O O1 0.735654 0.264347 0.250000
O O2 0.769890 0.350714 0.233961
O O3 0.825450 0.272961 0.220849
O O4 0.772006 0.295842 0.000000
O O5 0.716365 0.947887 0.782200
O O6 0.787141 0.901267 0.740585
O O7 0.788503 0.000000 0.773370
O O8 0.778553 0.944276 0.000000
O O9 0.402904 0.835593 0.827818
O O10 0.364368 0.911127 0.724581
O O11 0.453779 0.907005 0.756379
O O12 0.400141 0.907421 0.000000
O O13 0.449449 0.761622 0.784724
O O14 0.388405 0.764440 0.000000
O O15 0.000000 0.652522 0.172606
O O16 0.938336 0.689326 0.000000
O O17 0.832655 0.500000 0.777267
O O18 0.893336 0.500000 0.000000
O O19 0.814992 0.185008 0.250000
O O20 0.780092 0.150406 0.500000
O O21 0.794807 0.500000 0.500000
#
# Coordination Sequence:
#
# PCOD9566073 Si02
#       8
#    16  16  16  16  16   8  16   8
#     4  10  20  31  44  64  90 120 153 187 225 270
#     4  10  20  33  49  69  93 121 151 181 216 261
#     4  10  19  31  46  61  79 104 134 170 216 267
#     4   9  17  29  45  63  84 110 141 179 219 260
#     4  10  20  32  45  62  83 106 136 175 216 258
#     4  10  18  28  43  61  80 100 128 171 217 261
#     4  10  20  33  49  69  95 125 156 191 229 271
#     4   8  16  30  44  61  85 112 142 177 221 267
#
# _framework density 15.297250999999999
#
# number of rings (size 3 to 8) (size 9 to 14) (size 15 to 20)
#    0.000    2.286    0.000    4.500    0.000    8.571 
#    0.000    0.357    0.000    2.143    0.000    0.000 
#    0.000    0.286    0.000    3.000    0.000    1.643 
#
# Total GULP energy -623708.551138 kJ/mol
# GULP energy per Si atom -5568.826349 kJ/mol
# Density = 1.526243 g / cm^3
# Si number density = 15.297251 Si / 1000 Ang^3
#
#
#
# Elastic Constant Matrix: (Units=GPa)
#
#
# Indices 1 2 3 4 5 6 
#
# 1 68.6975 23.8267 23.1144 0.0000 0.0000 0.0000
# 2 23.8267 68.6968 23.1125 0.0000 0.0000 0.0000
# 3 23.1144 23.1125 52.7482 0.0000 0.0000 0.0000
# 4 0.0000 0.0000 0.0000 10.2626 0.0000 0.0000
# 5 0.0000 0.0000 0.0000 0.0000 10.2596 0.0000
# 6 0.0000 0.0000 0.0000 0.0000 0.0000 3.6434
#
#
#
# Elastic Compliance Matrix: (Units=1/GPa)
#
#
# Indices 1 2 3 4 5 6 
#
# 1 0.018062 -0.004224 -0.006064 0.000000 0.000000 0.000000
# 2 -0.004224 0.018062 -0.006063 0.000000 0.000000 0.000000
# 3 -0.006064 -0.006063 0.024272 0.000000 0.000000 0.000000
# 4 0.000000 0.000000 0.000000 0.097441 0.000000 0.000000
# 5 0.000000 0.000000 0.000000 0.000000 0.097469 0.000000
# 6 0.000000 0.000000 0.000000 0.000000 0.000000 0.274470
#
#
# Mechanical properties :
#
#
# Convention : Reuss Voigt Hill
#
# Bulk Modulus (GPa) = 36.11000 36.69442 36.40221
# Shear Modulus (GPa) = 8.74570 12.83906 10.79238
#
# Velocity S-wave (km/s) = 2.39366 2.90022 2.65903
# Velocity P-wave (km/s) = 5.59430 5.93757 5.76849
#
# Compressibility (1/GPa) = 0.02769316
#
# Stress axis : x y z
#
# Youngs Moduli (GPa) = 55.36482 55.36562 41.20026
#
# Poissons Ratio (x) = 0.23389 0.24983
# Poissons Ratio (y) = 0.23389 0.24979
# Poissons Ratio (z) = 0.33572 0.33568
#
# Static dielectric constant tensor:
#      x y z
#    x 1.526410 0.000000 0.000000 
#    y 0.000000 1.526410 0.000000 
#    z 0.000000 0.000000 1.517820 
# 
# From -- ./inp_files/2777.got.cif
#   From: 2010.05.17/outbox.cif.g08.bks.cpg/sg131_2_cif.got.tgz:2777.got - 2010.05.20 12:21:01.
