data_PCOD9566175
_publ_section_title
;
Structure prediction by ZEFSAII (Michael W. Deem and Ramdas Pophale) SiO2 
 PCOD9566175
Probable space group: P 42/M M C
;
_chemical_formula_sum "Si O2"
_cell_formula_units_Z 72
_cell_length_a 14.995677
_cell_length_b 14.995677
_cell_length_c 18.320672
_cell_angle_alpha 90.000000
_cell_angle_beta 90.000000
_cell_angle_gamma 90.000000
_cell_volume 4119.775534
_symmetry_space_group_name_H-M "P 42/M M C"
_symmetry_group_IT_number 131
_symmetry_cell_setting 'tetragonal'
loop_
_space_group_symop_operation_xyz
x,y,z
-x,-y,z
-y,x,1/2+z
y,-x,1/2+z
-x,y,-z
x,-y,-z
y,x,1/2-z
-y,-x,1/2-z
-x,-y,-z
x,y,-z
y,-x,1/2-z
-y,x,1/2-z
x,-y,z
-x,y,z
-y,-x,1/2+z
y,x,1/2+z
loop_
_atom_site_type_symbol
_atom_site_label
_atom_site_fract_x
_atom_site_fract_y
_atom_site_fract_z
Si Si1 0.102507 0.901680 0.911354
Si Si2 0.324289 0.392581 0.172704
Si Si3 0.753922 0.757423 0.911559
Si Si4 0.500000 0.606773 0.920518
Si Si5 0.898233 0.601808 0.588499
O O1 0.162196 0.818442 0.890405
O O2 0.000000 0.892904 0.888549
O O3 0.135756 0.000000 0.887869
O O4 0.104202 0.903056 0.000000
O O5 0.350203 0.350203 0.250000
O O6 0.310448 0.500000 0.177705
O O7 0.249236 0.335343 0.131664
O O8 0.411055 0.374361 0.122889
O O9 0.669741 0.820554 0.890605
O O10 0.752432 0.743755 0.000000
O O11 0.500000 0.500000 0.928440
O O12 0.500000 0.650531 0.000000
O O13 0.899764 0.602904 0.500000
O O14 0.880072 0.500000 0.611773
O O15 0.000000 0.625629 0.611425
#
# Coordination Sequence:
#
# PCOD9566175 Si02
#       5
#    16  16  16   8  16
#     4   8  14  27  50  81 113 139 166 210 268 319
#     4  11  22  36  51  68  99 140 175 216 270 317
#     4  10  19  29  49  78 103 130 172 220 257 306
#     4   9  18  32  52  72  91 125 175 220 250 292
#     4   8  14  24  38  62  99 134 159 194 249 304
#
# _framework density 17.476680000000002
#
# number of rings (size 3 to 8) (size 9 to 14) (size 15 to 20)
#    0.000    2.778    1.111    2.667    1.556    4.000 
#    0.000    0.000    0.000    3.333    0.000    4.667 
#    0.000    0.000    0.000    0.000    0.000    0.000 
#
# Total GULP energy -400981.376299 kJ/mol
# GULP energy per Si atom -5569.185782 kJ/mol
# Density = 1.743690 g / cm^3
# Si number density = 17.476680 Si / 1000 Ang^3
#
#
#
# Elastic Constant Matrix: (Units=GPa)
#
#
# Indices 1 2 3 4 5 6 
#
# 1 83.7625 55.9951 23.3954 0.0000 0.0000 0.0000
# 2 55.9951 83.7625 23.3954 0.0000 0.0000 0.0000
# 3 23.3954 23.3954 55.4659 0.0000 0.0000 0.0000
# 4 0.0000 0.0000 0.0000 13.2501 0.0000 0.0000
# 5 0.0000 0.0000 0.0000 0.0000 13.2501 0.0000
# 6 0.0000 0.0000 0.0000 0.0000 0.0000 25.0338
#
#
#
# Elastic Compliance Matrix: (Units=1/GPa)
#
#
# Indices 1 2 3 4 5 6 
#
# 1 0.022173 -0.013841 -0.003514 0.000000 0.000000 0.000000
# 2 -0.013841 0.022173 -0.003514 0.000000 0.000000 0.000000
# 3 -0.003514 -0.003514 0.020994 0.000000 0.000000 0.000000
# 4 0.000000 0.000000 0.000000 0.075471 0.000000 0.000000
# 5 0.000000 0.000000 0.000000 0.000000 0.075471 0.000000
# 6 0.000000 0.000000 0.000000 0.000000 0.000000 0.039946
#
#
# Mechanical properties :
#
#
# Convention : Reuss Voigt Hill
#
# Bulk Modulus (GPa) = 42.37278 47.61808 44.99543
# Shear Modulus (GPa) = 16.34877 18.32045 17.33461
#
# Velocity S-wave (km/s) = 3.06185 3.24123 3.15281
# Velocity P-wave (km/s) = 6.06612 6.42753 6.24944
#
# Compressibility (1/GPa) = 0.02360006
#
# Stress axis : x y z
#
# Youngs Moduli (GPa) = 45.10052 45.10052 47.63317
#
# Poissons Ratio (x) = 0.62423 0.16740
# Poissons Ratio (y) = 0.62423 0.16740
# Poissons Ratio (z) = 0.15850 0.15850
#
# Static dielectric constant tensor:
#      x y z
#    x 1.635500 0.000000 0.000000 
#    y 0.000000 1.635500 0.000000 
#    z 0.000000 0.000000 1.603920 
# 
# From -- ./inp_files/7543.got.cif
#   From: 2010.05.17/outbox.cif.g08.bks.cpg/sg131_4_cif.got.tgz:7543.got - 2010.05.20 12:21:01.
