data_PCOD9566456
_publ_section_title
;
Structure prediction by ZEFSAII (Michael W. Deem and Ramdas Pophale) SiO2 
 PCOD9566456
Probable space group: P 42/M M C
;
_chemical_formula_sum "Si O2"
_cell_formula_units_Z 80
_cell_length_a 17.853336
_cell_length_b 17.853336
_cell_length_c 16.128495
_cell_angle_alpha 90.000000
_cell_angle_beta 90.000000
_cell_angle_gamma 90.000000
_cell_volume 5140.822404
_symmetry_space_group_name_H-M "P 42/M M C"
_symmetry_group_IT_number 131
_symmetry_cell_setting 'tetragonal'
loop_
_space_group_symop_operation_xyz
x,y,z
-x,-y,z
-y,x,1/2+z
y,-x,1/2+z
-x,y,-z
x,-y,-z
y,x,1/2-z
-y,-x,1/2-z
-x,-y,-z
x,y,-z
y,-x,1/2-z
-y,x,1/2-z
x,-y,z
-x,y,z
-y,-x,1/2+z
y,x,1/2+z
loop_
_atom_site_type_symbol
_atom_site_label
_atom_site_fract_x
_atom_site_fract_y
_atom_site_fract_z
Si Si1 0.847671 0.671315 0.660607
Si Si2 0.795571 0.087449 0.722527
Si Si3 0.210344 0.268058 0.902507
Si Si4 0.160386 0.412060 0.828320
Si Si5 0.089704 0.587166 0.500000
Si Si6 0.410162 0.000000 0.593555
O O1 0.900048 0.734552 0.703919
O O2 0.774265 0.717414 0.633534
O O3 0.831836 0.611437 0.732799
O O4 0.882222 0.630543 0.581488
O O5 0.873217 0.126784 0.750000
O O6 0.765567 0.138918 0.646974
O O7 0.802129 0.000000 0.703119
O O8 0.211385 0.356060 0.881373
O O9 0.204097 0.255331 0.000000
O O10 0.172875 0.500000 0.841590
O O11 0.075389 0.392804 0.857213
O O12 0.114527 0.500000 0.500000
O O13 0.000000 0.587427 0.500000
O O14 0.500000 0.000000 0.585741
O O15 0.378279 0.000000 0.500000
#
# Coordination Sequence:
#
# PCOD9566456 Si02
#       6
#    16  16  16  16   8   8
#     4  10  20  36  49  71 104 139 172 208 255 307
#     4   9  19  33  51  71  94 130 176 221 268 308
#     4  10  20  34  52  73 102 140 171 209 256 314
#     4  10  20  32  50  74 103 134 169 209 253 308
#     4  11  22  32  52  78 102 134 173 212 252 302
#     4   9  18  30  44  71 107 135 157 199 258 298
#
# _framework density 15.561712999999999
#
# number of rings (size 3 to 8) (size 9 to 14) (size 15 to 20)
#    0.000    2.200    1.000    3.600    7.000    1.800 
#    0.000    0.000    0.000    0.000    0.000    2.800 
#    0.000   14.400    0.000    0.000    0.000    0.000 
#
# Total GULP energy -445983.271460 kJ/mol
# GULP energy per Si atom -5574.790893 kJ/mol
# Density = 1.552629 g / cm^3
# Si number density = 15.561713 Si / 1000 Ang^3
#
#
#
# Elastic Constant Matrix: (Units=GPa)
#
#
# Indices 1 2 3 4 5 6 
#
# 1 95.7933 48.9274 40.4511 0.0000 0.0000 0.0000
# 2 48.9274 95.7948 40.4515 0.0000 0.0000 0.0000
# 3 40.4511 40.4515 122.3526 0.0000 0.0000 0.0000
# 4 0.0000 0.0000 0.0000 -7.0707 0.0000 0.0000
# 5 0.0000 0.0000 0.0000 0.0000 -7.0697 0.0000
# 6 0.0000 0.0000 0.0000 0.0000 0.0000 23.1658
#
#
#
# Elastic Compliance Matrix: (Units=1/GPa)
#
#
# Indices 1 2 3 4 5 6 
#
# 1 0.014907 -0.006430 -0.002802 0.000000 0.000000 0.000000
# 2 -0.006430 0.014907 -0.002802 0.000000 0.000000 0.000000
# 3 -0.002802 -0.002802 0.010026 0.000000 0.000000 0.000000
# 4 0.000000 0.000000 0.000000 -0.141428 0.000000 0.000000
# 5 0.000000 0.000000 0.000000 0.000000 -0.141448 0.000000
# 6 0.000000 0.000000 0.000000 0.000000 0.000000 0.043167
#
#
# Mechanical properties :
#
#
# Convention : Reuss Voigt Hill
#
# Bulk Modulus (GPa) = 63.41421 63.73343 63.57382
# Shear Modulus (GPa) = -29.31820 14.07911 -7.61954
#
# Velocity S-wave (km/s) = -4.34521 3.01113 -2.21517
# Velocity P-wave (km/s) = 3.95780 7.28927 5.86505
#
# Compressibility (1/GPa) = 0.01576934
#
# Stress axis : x y z
#
# Youngs Moduli (GPa) = 67.08301 67.08405 99.73938
#
# Poissons Ratio (x) = 0.43137 0.27951
# Poissons Ratio (y) = 0.43137 0.27951
# Poissons Ratio (z) = 0.18800 0.18800
#
# Static dielectric constant tensor:
#      x y z
#    x 1.516660 0.000000 0.000000 
#    y 0.000000 1.516660 0.000000 
#    z 0.000000 0.000000 1.528420 
# 
# From -- ./inp_files/5773.got.cif
#   From: 2010.05.17/outbox.cif.g08.bks.cpg/sg131_3_cif.got.tgz:5773.got - 2010.05.20 12:21:01.
