data_PCOD9566104
_publ_section_title
;
Structure prediction by ZEFSAII (Michael W. Deem and Ramdas Pophale) SiO2 
 PCOD9566104
Probable space group: P 42/M M C
;
_chemical_formula_sum "Si O2"
_cell_formula_units_Z 96
_cell_length_a 25.793966
_cell_length_b 25.793966
_cell_length_c 8.643688
_cell_angle_alpha 90.000000
_cell_angle_beta 90.000000
_cell_angle_gamma 90.000000
_cell_volume 5750.893545
_symmetry_space_group_name_H-M "P 42/M M C"
_symmetry_group_IT_number 131
_symmetry_cell_setting 'tetragonal'
loop_
_space_group_symop_operation_xyz
x,y,z
-x,-y,z
-y,x,1/2+z
y,-x,1/2+z
-x,y,-z
x,-y,-z
y,x,1/2-z
-y,-x,1/2-z
-x,-y,-z
x,y,-z
y,-x,1/2-z
-y,x,1/2-z
x,-y,z
-x,y,z
-y,-x,1/2+z
y,x,1/2+z
loop_
_atom_site_type_symbol
_atom_site_label
_atom_site_fract_x
_atom_site_fract_y
_atom_site_fract_z
Si Si1 0.277605 0.831774 0.817211
Si Si2 0.893846 0.816431 0.183055
Si Si3 0.656285 0.268008 0.184736
Si Si4 0.000000 0.348777 0.815745
Si Si5 0.768454 0.000000 0.184549
Si Si6 0.887955 0.374589 0.185398
Si Si7 0.441283 0.210114 0.313791
O O1 0.228547 0.852257 0.724383
O O2 0.302841 0.777219 0.767616
O O3 0.324173 0.871163 0.780793
O O4 0.265603 0.830451 0.000000
O O5 0.869351 0.869351 0.250000
O O6 0.948275 0.797251 0.254371
O O7 0.899373 0.820552 0.000000
O O8 0.678611 0.321390 0.250000
O O9 0.600667 0.249964 0.246642
O O10 0.655297 0.269050 0.000000
O O11 0.051663 0.381127 0.781090
O O12 0.000000 0.291798 0.738867
O O13 0.000000 0.338285 0.000000
O O14 0.769371 0.000000 0.000000
O O15 0.847648 0.420050 0.223810
O O16 0.882129 0.364222 0.000000
O O17 0.440794 0.214680 0.500000
O O18 0.500000 0.217695 0.259029
#
# Coordination Sequence:
#
# PCOD9566104 Si02
#       7
#    16  16  16   8   8  16  16
#     4  10  19  31  48  74 104 135 167 203 252 311
#     4  12  24  38  55  77 104 133 164 203 251 308
#     4  10  20  32  49  74 104 136 173 215 262 311
#     4  10  18  30  49  74 101 135 173 215 263 306
#     4  12  24  38  56  78 104 133 167 207 253 310
#     4   9  17  29  47  70 100 136 175 217 261 307
#     4   9  18  33  51  71 100 141 183 221 263 310
#
# _framework density 16.693057
#
# number of rings (size 3 to 8) (size 9 to 14) (size 15 to 20)
#    0.000    1.833    1.667    3.750    0.000    3.667 
#    0.000    0.417    0.000    2.750    0.000    1.750 
#    0.000    6.333    0.000    3.500    0.000    1.500 
#
# Total GULP energy -535594.997791 kJ/mol
# GULP energy per Si atom -5579.114560 kJ/mol
# Density = 1.665506 g / cm^3
# Si number density = 16.693057 Si / 1000 Ang^3
#
#
#
# Elastic Constant Matrix: (Units=GPa)
#
#
# Indices 1 2 3 4 5 6 
#
# 1 92.7851 81.9953 33.2868 0.0000 0.0000 0.0000
# 2 81.9953 92.7807 33.2851 0.0000 0.0000 0.0000
# 3 33.2868 33.2851 50.2166 0.0000 0.0000 0.0000
# 4 0.0000 0.0000 0.0000 10.5974 0.0000 0.0000
# 5 0.0000 0.0000 0.0000 0.0000 10.5963 0.0000
# 6 0.0000 0.0000 0.0000 0.0000 0.0000 14.1276
#
#
#
# Elastic Compliance Matrix: (Units=1/GPa)
#
#
# Indices 1 2 3 4 5 6 
#
# 1 0.050176 -0.042522 -0.005074 0.000000 0.000000 0.000000
# 2 -0.042522 0.050177 -0.005072 0.000000 0.000000 0.000000
# 3 -0.005074 -0.005072 0.026640 0.000000 0.000000 0.000000
# 4 0.000000 0.000000 0.000000 0.094362 0.000000 0.000000
# 5 0.000000 0.000000 0.000000 0.000000 0.094372 0.000000
# 6 0.000000 0.000000 0.000000 0.000000 0.000000 0.070784
#
#
# Mechanical properties :
#
#
# Convention : Reuss Voigt Hill
#
# Bulk Modulus (GPa) = 46.18125 59.21298 52.69711
# Shear Modulus (GPa) = 10.01870 12.87861 11.44865
#
# Velocity S-wave (km/s) = 2.45250 2.78059 2.62168
# Velocity P-wave (km/s) = 5.97868 6.77182 6.38757
#
# Compressibility (1/GPa) = 0.02165381
#
# Stress axis : x y z
#
# Youngs Moduli (GPa) = 19.93003 19.92941 37.53819
#
# Poissons Ratio (x) = 0.84745 0.19049
# Poissons Ratio (y) = 0.84747 0.19041
# Poissons Ratio (z) = 0.10113 0.10109
#
# Static dielectric constant tensor:
#      x y z
#    x 1.568580 0.000000 0.000000 
#    y 0.000000 1.568580 0.000000 
#    z 0.000000 0.000000 1.562950 
# 
# From -- ./inp_files/2301.got.cif
#   From: 2010.05.17/outbox.cif.g08.bks.cpg/sg131_2_cif.got.tgz:2301.got - 2010.05.20 12:21:01.
