data_PCOD9566028
_publ_section_title
;
Structure prediction by ZEFSAII (Michael W. Deem and Ramdas Pophale) SiO2 
 PCOD9566028
Probable space group: P 42/M M C
;
_chemical_formula_sum "Si O2"
_cell_formula_units_Z 76
_cell_length_a 11.522059
_cell_length_b 11.522059
_cell_length_c 30.554613
_cell_angle_alpha 90.000000
_cell_angle_beta 90.000000
_cell_angle_gamma 90.000000
_cell_volume 4056.364534
_symmetry_space_group_name_H-M "P 42/M M C"
_symmetry_group_IT_number 131
_symmetry_cell_setting 'tetragonal'
loop_
_space_group_symop_operation_xyz
x,y,z
-x,-y,z
-y,x,1/2+z
y,-x,1/2+z
-x,y,-z
x,-y,-z
y,x,1/2-z
-y,-x,1/2-z
-x,-y,-z
x,y,-z
y,-x,1/2-z
-y,x,1/2-z
x,-y,z
-x,y,z
-y,-x,1/2+z
y,x,1/2+z
loop_
_atom_site_type_symbol
_atom_site_label
_atom_site_fract_x
_atom_site_fract_y
_atom_site_fract_z
Si Si1 0.139291 0.633264 0.548943
Si Si2 0.237442 0.639064 0.289481
Si Si3 0.500000 0.130923 0.608015
Si Si4 0.000000 0.274945 0.746738
Si Si5 0.000000 0.138986 0.833097
Si Si6 0.000000 0.500000 0.193249
Si Si7 0.739849 0.226542 0.623956
O O1 0.177541 0.669434 0.500000
O O2 0.177928 0.500000 0.556033
O O3 0.180677 0.713576 0.587927
O O4 0.000000 0.632466 0.548740
O O5 0.320979 0.679022 0.250000
O O6 0.219610 0.500000 0.289070
O O7 0.115822 0.707537 0.281382
O O8 0.282300 0.685465 0.335875
O O9 0.619882 0.193960 0.600093
O O10 0.500000 0.000000 0.589427
O O11 0.500000 0.108719 0.660793
O O12 0.000000 0.386666 0.778308
O O13 0.000000 0.170138 0.781257
O O14 0.888206 0.200069 0.855479
O O15 0.000000 0.000000 0.838859
#
# Coordination Sequence:
#
# PCOD9566028 Si02
#       7
#    16  16   8   8   8   4  16
#     4   9  20  42  70  96 125 159 195 244 313 376
#     4  12  26  38  58  84 119 161 208 254 295 352
#     4  10  20  40  66  80 115 176 210 238 305 371
#     4  12  22  42  58  79 117 169 209 247 304 363
#     4  12  24  38  57  91 126 154 199 256 314 363
#     4  10  14  38  62  68 109 176 213 230 290 362
#     4  12  23  41  63  90 122 160 208 256 299 366
#
# _framework density 18.735990000000001
#
# number of rings (size 3 to 8) (size 9 to 14) (size 15 to 20)
#    0.316    0.632    6.316    1.895    4.421    0.211 
#    1.895    2.632    0.000    3.789    0.000    0.000 
#    0.000    0.000    0.000    0.000    0.000    0.000 
#
# Total GULP energy -424369.815006 kJ/mol
# GULP energy per Si atom -5583.813355 kJ/mol
# Density = 1.869335 g / cm^3
# Si number density = 18.735990 Si / 1000 Ang^3
#
#
#
# Elastic Constant Matrix: (Units=GPa)
#
#
# Indices 1 2 3 4 5 6 
#
# 1 88.9750 34.6563 32.5375 0.0000 0.0000 0.0000
# 2 34.6563 88.9753 32.5372 0.0000 0.0000 0.0000
# 3 32.5375 32.5372 78.5773 0.0000 0.0000 0.0000
# 4 0.0000 0.0000 0.0000 21.1922 0.0000 0.0000
# 5 0.0000 0.0000 0.0000 0.0000 21.1918 0.0000
# 6 0.0000 0.0000 0.0000 0.0000 0.0000 18.0981
#
#
#
# Elastic Compliance Matrix: (Units=1/GPa)
#
#
# Indices 1 2 3 4 5 6 
#
# 1 0.014376 -0.004033 -0.004283 0.000000 0.000000 0.000000
# 2 -0.004033 0.014376 -0.004283 0.000000 0.000000 0.000000
# 3 -0.004283 -0.004283 0.016273 0.000000 0.000000 0.000000
# 4 0.000000 0.000000 0.000000 0.047187 0.000000 0.000000
# 5 0.000000 0.000000 0.000000 0.000000 0.047188 0.000000
# 6 0.000000 0.000000 0.000000 0.000000 0.000000 0.055255
#
#
# Mechanical properties :
#
#
# Convention : Reuss Voigt Hill
#
# Bulk Modulus (GPa) = 50.43441 50.66554 50.54997
# Shear Modulus (GPa) = 22.07868 22.54952 22.31410
#
# Velocity S-wave (km/s) = 3.43652 3.47297 3.45479
# Velocity P-wave (km/s) = 6.53629 6.57134 6.55384
#
# Compressibility (1/GPa) = 0.01982773
#
# Stress axis : x y z
#
# Youngs Moduli (GPa) = 69.55855 69.55906 61.45091
#
# Poissons Ratio (x) = 0.28057 0.26318
# Poissons Ratio (y) = 0.28056 0.26318
# Poissons Ratio (z) = 0.29791 0.29790
#
# Static dielectric constant tensor:
#      x y z
#    x 1.660590 0.000000 0.000000 
#    y 0.000000 1.660590 0.000000 
#    z 0.000000 0.000000 1.612310 
# 
# From -- ./inp_files/13506.got.cif
#   From: 2010.05.17/outbox.cif.g08.bks.cpg/sg131_7_cif.got.tgz:13506.got - 2010.05.20 12:21:01.
