data_PCOD9566578
_publ_section_title
;
Structure prediction by ZEFSAII (Michael W. Deem and Ramdas Pophale) SiO2 
 PCOD9566578
Probable space group: P 42/M M C
;
_chemical_formula_sum "Si O2"
_cell_formula_units_Z 96
_cell_length_a 24.832045
_cell_length_b 24.832045
_cell_length_c 8.570626
_cell_angle_alpha 90.000000
_cell_angle_beta 90.000000
_cell_angle_gamma 90.000000
_cell_volume 5284.909043
_symmetry_space_group_name_H-M "P 42/M M C"
_symmetry_group_IT_number 131
_symmetry_cell_setting 'tetragonal'
loop_
_space_group_symop_operation_xyz
x,y,z
-x,-y,z
-y,x,1/2+z
y,-x,1/2+z
-x,y,-z
x,-y,-z
y,x,1/2-z
-y,-x,1/2-z
-x,-y,-z
x,y,-z
y,-x,1/2-z
-y,x,1/2-z
x,-y,z
-x,y,z
-y,-x,1/2+z
y,x,1/2+z
loop_
_atom_site_type_symbol
_atom_site_label
_atom_site_fract_x
_atom_site_fract_y
_atom_site_fract_z
Si Si1 0.646607 0.149397 0.687164
Si Si2 0.061072 0.857303 0.188351
Si Si3 0.061956 0.437772 0.688426
Si Si4 0.357683 0.439075 0.687998
Si Si5 0.731159 0.648417 0.312721
Si Si6 0.148257 0.230474 0.188089
O O1 0.644791 0.148742 0.500000
O O2 0.604231 0.105621 0.748776
O O3 0.636833 0.209907 0.746916
O O4 0.708372 0.138363 0.738173
O O5 0.088633 0.911368 0.250000
O O6 0.099479 0.808252 0.239361
O O7 0.000000 0.851069 0.241773
O O8 0.061512 0.858124 0.000000
O O9 0.063425 0.436297 0.500000
O O10 0.073296 0.500000 0.735441
O O11 0.000000 0.425235 0.736187
O O12 0.411875 0.411875 0.750000
O O13 0.359032 0.439033 0.500000
O O14 0.350722 0.500000 0.742757
O O15 0.308825 0.400008 0.735449
O O16 0.702894 0.702894 0.250000
O O17 0.733365 0.651316 0.500000
O O18 0.202759 0.202759 0.250000
O O19 0.150817 0.229864 0.000000
#
# Coordination Sequence:
#
# PCOD9566578 Si02
#       6
#    16  16  16  16  16  16
#     4  11  22  34  54  84 110 136 173 214 261 319
#     4   9  18  33  51  70  96 131 168 206 249 296
#     4   9  20  40  61  79 104 139 176 215 262 315
#     4   9  19  35  53  74 101 135 174 214 258 306
#     4  10  20  35  54  76 107 144 180 221 266 313
#     4   9  19  34  51  73 103 137 171 209 255 304
#
# _framework density 18.164929999999998
#
# number of rings (size 3 to 8) (size 9 to 14) (size 15 to 20)
#    0.000    2.500    0.000    2.000    0.000    6.333 
#    0.000    5.833    0.000    0.000    0.000    0.000 
#    0.000    0.000    0.000    0.000    0.000    0.000 
#
# Total GULP energy -535530.042293 kJ/mol
# GULP energy per Si atom -5578.437941 kJ/mol
# Density = 1.812359 g / cm^3
# Si number density = 18.164930 Si / 1000 Ang^3
#
#
#
# Elastic Constant Matrix: (Units=GPa)
#
#
# Indices 1 2 3 4 5 6 
#
# 1 180.9469 75.9252 30.2032 0.0000 0.0000 0.0000
# 2 75.9252 180.9265 30.2025 0.0000 0.0000 0.0000
# 3 30.2032 30.2025 18.1222 0.0000 0.0000 0.0000
# 4 0.0000 0.0000 0.0000 28.3802 0.0000 0.0000
# 5 0.0000 0.0000 0.0000 0.0000 28.3805 0.0000
# 6 0.0000 0.0000 0.0000 0.0000 0.0000 27.9674
#
#
#
# Elastic Compliance Matrix: (Units=1/GPa)
#
#
# Indices 1 2 3 4 5 6 
#
# 1 0.007962 -0.001560 -0.010670 0.000000 0.000000 0.000000
# 2 -0.001560 0.007963 -0.010671 0.000000 0.000000 0.000000
# 3 -0.010670 -0.010671 0.090749 0.000000 0.000000 0.000000
# 4 0.000000 0.000000 0.000000 0.035236 0.000000 0.000000
# 5 0.000000 0.000000 0.000000 0.000000 0.035236 0.000000
# 6 0.000000 0.000000 0.000000 0.000000 0.000000 0.035756
#
#
# Mechanical properties :
#
#
# Convention : Reuss Voigt Hill
#
# Bulk Modulus (GPa) = 16.42811 72.51750 44.47280
# Shear Modulus (GPa) = 17.92153 33.18993 25.55573
#
# Velocity S-wave (km/s) = 3.14443 4.27915 3.75490
# Velocity P-wave (km/s) = 4.71664 8.02640 6.58293
#
# Compressibility (1/GPa) = 0.06087129
#
# Stress axis : x y z
#
# Youngs Moduli (GPa) = 125.59503 125.57780 11.01946
#
# Poissons Ratio (x) = 0.19592 0.11758
# Poissons Ratio (y) = 0.19594 0.11759
# Poissons Ratio (z) = 1.34008 1.34008
#
# Static dielectric constant tensor:
#      x y z
#    x 1.615180 0.000000 0.000000 
#    y 0.000000 1.615180 0.000000 
#    z 0.000000 0.000000 1.621100 
# 
# From -- ./inp_files/2192.got.cif
#   From: 2010.05.17/outbox.cif.g08.bks.cpg/sg131_2_cif.got.tgz:2192.got - 2010.05.20 12:21:01.
