data_PCOD9566352
_publ_section_title
;
Structure prediction by ZEFSAII (Michael W. Deem and Ramdas Pophale) SiO2 
 PCOD9566352
Probable space group: P 42/M M C
;
_chemical_formula_sum "Si O2"
_cell_formula_units_Z 112
_cell_length_a 15.315691
_cell_length_b 15.315691
_cell_length_c 23.065961
_cell_angle_alpha 90.000000
_cell_angle_beta 90.000000
_cell_angle_gamma 90.000000
_cell_volume 5410.591486
_symmetry_space_group_name_H-M "P 42/M M C"
_symmetry_group_IT_number 131
_symmetry_cell_setting 'tetragonal'
loop_
_space_group_symop_operation_xyz
x,y,z
-x,-y,z
-y,x,1/2+z
y,-x,1/2+z
-x,y,-z
x,-y,-z
y,x,1/2-z
-y,-x,1/2-z
-x,-y,-z
x,y,-z
y,-x,1/2-z
-y,x,1/2-z
x,-y,z
-x,y,z
-y,-x,1/2+z
y,x,1/2+z
loop_
_atom_site_type_symbol
_atom_site_label
_atom_site_fract_x
_atom_site_fract_y
_atom_site_fract_z
Si Si1 0.404578 0.304884 0.606082
Si Si2 0.902194 0.601719 0.323407
Si Si3 0.653382 0.787736 0.932496
Si Si4 0.763969 0.093104 0.648111
Si Si5 0.779048 0.662508 0.780709
Si Si6 0.166388 0.102820 0.934689
Si Si7 0.881287 0.402049 0.934670
O O1 0.500000 0.349848 0.601787
O O2 0.312026 0.351056 0.591978
O O3 0.399285 0.253726 0.667802
O O4 0.402789 0.223250 0.563056
O O5 0.912077 0.500000 0.313313
O O6 0.849564 0.610968 0.383734
O O7 0.846435 0.633451 0.268317
O O8 0.000000 0.641330 0.327014
O O9 0.750420 0.831161 0.934203
O O10 0.622127 0.790336 0.000000
O O11 0.745615 0.175535 0.688550
O O12 0.852325 0.104541 0.612153
O O13 0.679101 0.093321 0.605517
O O14 0.763717 0.000000 0.679361
O O15 0.691509 0.691509 0.750000
O O16 0.187182 0.000000 0.923737
O O17 0.129775 0.106895 0.000000
O O18 0.906216 0.500000 0.913926
O O19 0.911778 0.389950 0.000000
#
# Coordination Sequence:
#
# PCOD9566352 Si02
#       7
#    16  16  16  16  16  16  16
#     4  10  19  33  59  92 123 153 194 249 308 377
#     4  11  24  41  62  92 129 167 211 263 321 383
#     4  11  21  38  63  90 119 157 207 258 317 383
#     4  11  22  34  51  78 112 151 201 256 310 369
#     4  11  20  39  63  87 117 159 205 253 313 383
#     4  10  20  35  55  79 112 158 212 263 310 366
#     4   9  17  30  49  76 112 151 189 231 289 361
#
# _framework density 20.700139
#
# number of rings (size 3 to 8) (size 9 to 14) (size 15 to 20)
#    0.000    1.571    4.286    2.143    0.000    4.286 
#    0.000    2.857    0.000    0.429    0.000    2.000 
#    0.000    0.000    0.000    0.000    0.000    0.000 
#
# Total GULP energy -623528.209880 kJ/mol
# GULP energy per Si atom -5567.216160 kJ/mol
# Density = 2.065302 g / cm^3
# Si number density = 20.700139 Si / 1000 Ang^3
#
#
#
# Elastic Constant Matrix: (Units=GPa)
#
#
# Indices 1 2 3 4 5 6 
#
# 1 76.2489 7.5775 33.2787 0.0000 0.0000 0.0000
# 2 7.5775 76.2489 33.2787 0.0000 0.0000 0.0000
# 3 33.2787 33.2787 126.9580 0.0000 0.0000 0.0000
# 4 0.0000 0.0000 0.0000 110.2366 0.0000 0.0000
# 5 0.0000 0.0000 0.0000 0.0000 110.2366 0.0000
# 6 0.0000 0.0000 0.0000 0.0000 0.0000 25.5695
#
#
#
# Elastic Compliance Matrix: (Units=1/GPa)
#
#
# Indices 1 2 3 4 5 6 
#
# 1 0.014813 0.000251 -0.003949 0.000000 0.000000 0.000000
# 2 0.000251 0.014813 -0.003949 0.000000 0.000000 0.000000
# 3 -0.003949 -0.003949 0.009947 0.000000 0.000000 0.000000
# 4 0.000000 0.000000 0.000000 0.009071 0.000000 0.000000
# 5 0.000000 0.000000 0.000000 0.000000 0.009071 0.000000
# 6 0.000000 0.000000 0.000000 0.000000 0.000000 0.039109
#
#
# Mechanical properties :
#
#
# Convention : Reuss Voigt Hill
#
# Bulk Modulus (GPa) = 41.18448 47.52503 44.35475
# Shear Modulus (GPa) = 41.59322 62.89659 52.24490
#
# Velocity S-wave (km/s) = 4.48741 5.51820 5.02928
# Velocity P-wave (km/s) = 6.84018 7.97555 7.42958
#
# Compressibility (1/GPa) = 0.02428099
#
# Stress axis : x y z
#
# Youngs Moduli (GPa) = 67.50629 67.50629 100.53500
#
# Poissons Ratio (x) = -0.01697 0.39700
# Poissons Ratio (y) = -0.01697 0.39700
# Poissons Ratio (z) = 0.26657 0.26657
#
# Static dielectric constant tensor:
#      x y z
#    x 1.780330 0.000000 0.000000 
#    y 0.000000 1.780330 0.000000 
#    z 0.000000 0.000000 1.791540 
# 
# From -- ./inp_files/11255.got.cif
#   From: 2010.05.17/outbox.cif.g08.bks.cpg/sg131_6_cif.got.tgz:11255.got - 2010.05.20 12:21:01.
