data_PCOD9566566
_publ_section_title
;
Structure prediction by ZEFSAII (Michael W. Deem and Ramdas Pophale) SiO2 
 PCOD9566566
Probable space group: P 42/M M C
;
_chemical_formula_sum "Si O2"
_cell_formula_units_Z 80
_cell_length_a 15.444214
_cell_length_b 15.444214
_cell_length_c 15.730877
_cell_angle_alpha 90.000000
_cell_angle_beta 90.000000
_cell_angle_gamma 90.000000
_cell_volume 3752.187711
_symmetry_space_group_name_H-M "P 42/M M C"
_symmetry_group_IT_number 131
_symmetry_cell_setting 'tetragonal'
loop_
_space_group_symop_operation_xyz
x,y,z
-x,-y,z
-y,x,1/2+z
y,-x,1/2+z
-x,y,-z
x,-y,-z
y,x,1/2-z
-y,-x,1/2-z
-x,-y,-z
x,y,-z
y,-x,1/2-z
-y,x,1/2-z
x,-y,z
-x,y,z
-y,-x,1/2+z
y,x,1/2+z
loop_
_atom_site_type_symbol
_atom_site_label
_atom_site_fract_x
_atom_site_fract_y
_atom_site_fract_z
Si Si1 0.098393 0.769134 0.602310
Si Si2 0.172525 0.594344 0.671500
Si Si3 0.097052 0.237731 0.097968
Si Si4 0.206943 0.406549 0.873435
Si Si5 0.627945 0.402544 0.351414
O O1 0.109949 0.759851 0.500000
O O2 0.118278 0.676170 0.642860
O O3 0.165607 0.840114 0.637209
O O4 0.000000 0.795495 0.618218
O O5 0.134232 0.500000 0.650613
O O6 0.191783 0.596932 0.771919
O O7 0.269026 0.599322 0.633364
O O8 0.151043 0.326424 0.095678
O O9 0.000000 0.246978 0.134842
O O10 0.086442 0.210674 0.000000
O O11 0.175366 0.500000 0.903400
O O12 0.310612 0.402357 0.889481
O O13 0.606106 0.393895 0.250000
O O14 0.598694 0.500000 0.377579
#
# Coordination Sequence:
#
# PCOD9566566 Si02
#       5
#    16  16  16  16  16
#     4  10  21  37  58  82 107 139 178 221 273 330
#     4   9  18  33  54  82 115 147 178 214 259 313
#     4  10  22  40  59  78 103 137 179 230 282 325
#     4  10  20  34  56  84 112 144 183 222 263 313
#     4   9  16  28  49  79 113 146 178 214 256 304
#
# _framework density 21.320896000000001
#
# number of rings (size 3 to 8) (size 9 to 14) (size 15 to 20)
#    0.000    2.400    2.000    1.800    0.000    4.200 
#    0.000    6.000    0.000    0.600    0.000    4.200 
#    0.000    0.000    0.000    0.000    0.000    0.000 
#
# Total GULP energy -446002.983273 kJ/mol
# GULP energy per Si atom -5575.037291 kJ/mol
# Density = 2.127237 g / cm^3
# Si number density = 21.320896 Si / 1000 Ang^3
#
#
#
# Elastic Constant Matrix: (Units=GPa)
#
#
# Indices 1 2 3 4 5 6 
#
# 1 146.6181 76.5177 21.4339 0.0000 0.0000 0.0000
# 2 76.5177 146.6180 21.4340 0.0000 0.0000 0.0000
# 3 21.4339 21.4340 24.8410 0.0000 0.0000 0.0000
# 4 0.0000 0.0000 0.0000 18.1349 0.0000 0.0000
# 5 0.0000 0.0000 0.0000 0.0000 18.1349 0.0000
# 6 0.0000 0.0000 0.0000 0.0000 0.0000 -9.3327
#
#
#
# Elastic Compliance Matrix: (Units=1/GPa)
#
#
# Indices 1 2 3 4 5 6 
#
# 1 0.009819 -0.004447 -0.004635 0.000000 0.000000 0.000000
# 2 -0.004447 0.009819 -0.004635 0.000000 0.000000 0.000000
# 3 -0.004635 -0.004635 0.048255 0.000000 0.000000 0.000000
# 4 0.000000 0.000000 0.000000 0.055142 0.000000 0.000000
# 5 0.000000 0.000000 0.000000 0.000000 0.055142 0.000000
# 6 0.000000 0.000000 0.000000 0.000000 0.000000 -0.107150
#
#
# Mechanical properties :
#
#
# Convention : Reuss Voigt Hill
#
# Bulk Modulus (GPa) = 24.71695 61.87203 43.29449
# Shear Modulus (GPa) = 44.66395 18.63353 31.64874
#
# Velocity S-wave (km/s) = 4.58191 2.95948 3.85697
# Velocity P-wave (km/s) = 6.29364 6.38439 6.33918
#
# Compressibility (1/GPa) = 0.04045807
#
# Stress axis : x y z
#
# Youngs Moduli (GPa) = 101.84687 101.84666 20.72325
#
# Poissons Ratio (x) = 0.45287 0.09606
# Poissons Ratio (y) = 0.45287 0.09606
# Poissons Ratio (z) = 0.47208 0.47209
#
# Static dielectric constant tensor:
#      x y z
#    x 1.769270 0.000000 0.000000 
#    y 0.000000 1.769270 0.000000 
#    z 0.000000 0.000000 1.818970 
# 
# From -- ./inp_files/9372.got.cif
#   From: 2010.05.17/outbox.cif.g08.bks.cpg/sg131_5_cif.got.tgz:9372.got - 2010.05.20 12:21:01.
