data_PCOD9566619
_publ_section_title
;
Structure prediction by ZEFSAII (Michael W. Deem and Ramdas Pophale) SiO2 
 PCOD9566619
Probable space group: P 42/M M C
;
_chemical_formula_sum "Si O2"
_cell_formula_units_Z 112
_cell_length_a 15.232834
_cell_length_b 15.232834
_cell_length_c 24.624163
_cell_angle_alpha 90.000000
_cell_angle_beta 90.000000
_cell_angle_gamma 90.000000
_cell_volume 5713.771863
_symmetry_space_group_name_H-M "P 42/M M C"
_symmetry_group_IT_number 131
_symmetry_cell_setting 'tetragonal'
loop_
_space_group_symop_operation_xyz
x,y,z
-x,-y,z
-y,x,1/2+z
y,-x,1/2+z
-x,y,-z
x,-y,-z
y,x,1/2-z
-y,-x,1/2-z
-x,-y,-z
x,y,-z
y,-x,1/2-z
-y,x,1/2-z
x,-y,z
-x,y,z
-y,-x,1/2+z
y,x,1/2+z
loop_
_atom_site_type_symbol
_atom_site_label
_atom_site_fract_x
_atom_site_fract_y
_atom_site_fract_z
Si Si1 0.728012 0.597197 0.633273
Si Si2 0.898828 0.714949 0.936262
Si Si3 0.903243 0.169506 0.406341
Si Si4 0.904839 0.222039 0.720007
Si Si5 0.174157 0.401301 0.744413
Si Si6 0.396081 0.239301 0.367690
Si Si7 0.099419 0.367423 0.437999
O O1 0.692059 0.500000 0.623202
O O2 0.753947 0.605130 0.696636
O O3 0.659030 0.672839 0.619983
O O4 0.819801 0.605269 0.600067
O O5 0.884824 0.817169 0.920650
O O6 0.836736 0.652629 0.901171
O O7 0.000000 0.691654 0.927122
O O8 0.878357 0.705588 0.000000
O O9 0.898974 0.198542 0.343283
O O10 0.899146 0.261593 0.437816
O O11 0.000000 0.129016 0.416029
O O12 0.827418 0.172583 0.750000
O O13 0.893769 0.324787 0.730786
O O14 0.000000 0.191907 0.740437
O O15 0.137062 0.500000 0.742289
O O16 0.215569 0.388040 0.803769
O O17 0.500000 0.246264 0.380020
O O18 0.111168 0.397827 0.500000
O O19 0.000000 0.392589 0.419703
#
# Coordination Sequence:
#
# PCOD9566619 Si02
#       7
#    16  16  16  16  16  16  16
#     4  11  22  38  63  93 124 157 196 242 296 362
#     4  11  24  42  65  90 116 153 204 258 309 356
#     4  10  20  36  60  90 123 159 197 240 295 362
#     4  11  22  36  56  84 123 165 203 243 291 352
#     4  10  21  38  62  89 118 154 197 246 301 359
#     4  11  24  42  63  87 118 158 202 250 307 359
#     4  10  20  36  59  87 122 160 195 234 286 352
#
# _framework density 19.601762000000001
#
# number of rings (size 3 to 8) (size 9 to 14) (size 15 to 20)
#    0.000    1.429    2.857    2.571    0.000    5.286 
#    0.000    6.429    0.000    2.571    0.000    2.000 
#    0.000    0.000    0.000    0.000    0.000    0.000 
#
# Total GULP energy -625543.764055 kJ/mol
# GULP energy per Si atom -5585.212179 kJ/mol
# Density = 1.955715 g / cm^3
# Si number density = 19.601762 Si / 1000 Ang^3
#
#
#
# Elastic Constant Matrix: (Units=GPa)
#
#
# Indices 1 2 3 4 5 6 
#
# 1 104.9303 58.8977 62.9942 0.0000 0.0000 0.0000
# 2 58.8977 104.9275 62.9937 0.0000 0.0000 0.0000
# 3 62.9942 62.9937 95.2700 0.0000 0.0000 0.0000
# 4 0.0000 0.0000 0.0000 6.2606 0.0000 0.0000
# 5 0.0000 0.0000 0.0000 0.0000 6.2600 0.0000
# 6 0.0000 0.0000 0.0000 0.0000 0.0000 -4.8089
#
#
#
# Elastic Compliance Matrix: (Units=1/GPa)
#
#
# Indices 1 2 3 4 5 6 
#
# 1 0.017071 -0.004653 -0.008212 0.000000 0.000000 0.000000
# 2 -0.004653 0.017072 -0.008212 0.000000 0.000000 0.000000
# 3 -0.008212 -0.008212 0.021356 0.000000 0.000000 0.000000
# 4 0.000000 0.000000 0.000000 0.159729 0.000000 0.000000
# 5 0.000000 0.000000 0.000000 0.000000 0.159745 0.000000
# 6 0.000000 0.000000 0.000000 0.000000 0.000000 -0.207948
#
#
# Mechanical properties :
#
#
# Convention : Reuss Voigt Hill
#
# Bulk Modulus (GPa) = 74.92162 74.98878 74.95520
# Shear Modulus (GPa) = 23.40536 9.55848 16.48192
#
# Velocity S-wave (km/s) = 3.45924 2.21064 2.90287
# Velocity P-wave (km/s) = 7.36614 6.69739 7.03971
#
# Compressibility (1/GPa) = 0.01334728
#
# Stress axis : x y z
#
# Youngs Moduli (GPa) = 58.57732 58.57538 46.82560
#
# Poissons Ratio (x) = 0.27253 0.38451
# Poissons Ratio (y) = 0.27254 0.38452
# Poissons Ratio (z) = 0.48101 0.48101
#
# Static dielectric constant tensor:
#      x y z
#    x 1.687230 0.000000 0.000000 
#    y 0.000000 1.687220 0.000000 
#    z 0.000000 0.000000 1.697310 
# 
# From -- ./inp_files/11263.got.cif
#   From: 2010.05.17/outbox.cif.g08.bks.cpg/sg131_6_cif.got.tgz:11263.got - 2010.05.20 12:21:01.
