data_PCOD9566684
_publ_section_title
;
Structure prediction by ZEFSAII (Michael W. Deem and Ramdas Pophale) SiO2 
 PCOD9566684
Probable space group: P 42/M M C
;
_chemical_formula_sum "Si O2"
_cell_formula_units_Z 56
_cell_length_a 19.994863
_cell_length_b 19.994863
_cell_length_c 8.530841
_cell_angle_alpha 90.000000
_cell_angle_beta 90.000000
_cell_angle_gamma 90.000000
_cell_volume 3410.583708
_symmetry_space_group_name_H-M "P 42/M M C"
_symmetry_group_IT_number 131
_symmetry_cell_setting 'tetragonal'
loop_
_space_group_symop_operation_xyz
x,y,z
-x,-y,z
-y,x,1/2+z
y,-x,1/2+z
-x,y,-z
x,-y,-z
y,x,1/2-z
-y,-x,1/2-z
-x,-y,-z
x,y,-z
y,-x,1/2-z
-y,x,1/2-z
x,-y,z
-x,y,z
-y,-x,1/2+z
y,x,1/2+z
loop_
_atom_site_type_symbol
_atom_site_label
_atom_site_fract_x
_atom_site_fract_y
_atom_site_fract_z
Si Si1 0.646182 0.923528 0.190433
Si Si2 0.317462 0.212289 0.313453
Si Si3 0.315684 0.577880 0.688453
Si Si4 0.500000 0.080599 0.824039
O O1 0.689926 0.863201 0.252710
O O2 0.571210 0.905523 0.250860
O O3 0.662514 0.000000 0.236167
O O4 0.643951 0.922583 0.000000
O O5 0.257207 0.257207 0.250000
O O6 0.319224 0.214115 0.500000
O O7 0.384001 0.249461 0.248673
O O8 0.378671 0.621330 0.750000
O O9 0.315770 0.580727 0.500000
O O10 0.318030 0.500000 0.736530
O O11 0.500000 0.000000 0.841112
O O12 0.500000 0.110595 0.000000
#
# Coordination Sequence:
#
# PCOD9566684 Si02
#       4
#    16  16  16   8
#     4   9  17  31  51  74 100 130 163 197 239 292
#     4  11  22  35  51  71  99 131 166 205 246 292
#     4  10  21  36  53  71  92 122 161 205 254 305
#     4   7  12  24  43  67  93 123 156 187 224 277
#
# _framework density 16.419477000000001
#
# number of rings (size 3 to 8) (size 9 to 14) (size 15 to 20)
#    0.000    2.429    0.000    6.857    2.000    3.143 
#    0.000    1.429    0.000    2.571    0.000    0.000 
#    0.000    0.571    0.000    6.000    0.000    2.571 
#
# Total GULP energy -312062.266835 kJ/mol
# GULP energy per Si atom -5572.540479 kJ/mol
# Density = 1.638211 g / cm^3
# Si number density = 16.419477 Si / 1000 Ang^3
#
#
#
# Elastic Constant Matrix: (Units=GPa)
#
#
# Indices 1 2 3 4 5 6 
#
# 1 109.9705 55.1939 31.9167 0.0000 0.0000 0.0000
# 2 55.1939 109.9725 31.9144 0.0000 0.0000 0.0000
# 3 31.9167 31.9144 58.0923 0.0000 0.0000 0.0000
# 4 0.0000 0.0000 0.0000 21.4109 0.0000 0.0000
# 5 0.0000 0.0000 0.0000 0.0000 21.4106 0.0000
# 6 0.0000 0.0000 0.0000 0.0000 0.0000 12.1575
#
#
#
# Elastic Compliance Matrix: (Units=1/GPa)
#
#
# Indices 1 2 3 4 5 6 
#
# 1 0.012971 -0.005285 -0.004223 0.000000 0.000000 0.000000
# 2 -0.005285 0.012971 -0.004222 0.000000 0.000000 0.000000
# 3 -0.004223 -0.004222 0.021854 0.000000 0.000000 0.000000
# 4 0.000000 0.000000 0.000000 0.046705 0.000000 0.000000
# 5 0.000000 0.000000 0.000000 0.000000 0.046706 0.000000
# 6 0.000000 0.000000 0.000000 0.000000 0.000000 0.082254
#
#
# Mechanical properties :
#
#
# Convention : Reuss Voigt Hill
#
# Bulk Modulus (GPa) = 49.17521 57.34280 53.25901
# Shear Modulus (GPa) = 19.40239 21.59650 20.49944
#
# Velocity S-wave (km/s) = 3.44127 3.63064 3.53722
# Velocity P-wave (km/s) = 6.76787 7.25085 7.01352
#
# Compressibility (1/GPa) = 0.02033545
#
# Stress axis : x y z
#
# Youngs Moduli (GPa) = 77.09252 77.09628 45.75795
#
# Poissons Ratio (x) = 0.40742 0.19326
# Poissons Ratio (y) = 0.40740 0.19321
# Poissons Ratio (z) = 0.32560 0.32553
#
# Static dielectric constant tensor:
#      x y z
#    x 1.588610 0.000000 0.000000 
#    y 0.000000 1.588610 0.000000 
#    z 0.000000 0.000000 1.566580 
# 
# From -- ./inp_files/1245.got.cif
#   From: 2010.05.17/outbox.cif.g08.bks.cpg/sg131_1_cif.got.tgz:1245.got - 2010.05.20 12:21:01.
