data_PCOD9566849
_publ_section_title
;
Structure prediction by ZEFSAII (Michael W. Deem and Ramdas Pophale) SiO2 
 PCOD9566849
Probable space group: P 42/M M C
;
_chemical_formula_sum "Si O2"
_cell_formula_units_Z 34
_cell_length_a 14.785241
_cell_length_b 14.785241
_cell_length_c 8.897191
_cell_angle_alpha 90.000000
_cell_angle_beta 90.000000
_cell_angle_gamma 90.000000
_cell_volume 1944.955771
_symmetry_space_group_name_H-M "P 42/M M C"
_symmetry_group_IT_number 131
_symmetry_cell_setting 'tetragonal'
loop_
_space_group_symop_operation_xyz
x,y,z
-x,-y,z
-y,x,1/2+z
y,-x,1/2+z
-x,y,-z
x,-y,-z
y,x,1/2-z
-y,-x,1/2-z
-x,-y,-z
x,y,-z
y,-x,1/2-z
-y,x,1/2-z
x,-y,z
-x,y,z
-y,-x,1/2+z
y,x,1/2+z
loop_
_atom_site_type_symbol
_atom_site_label
_atom_site_fract_x
_atom_site_fract_y
_atom_site_fract_z
Si Si1 0.303375 0.829248 0.680797
Si Si2 0.205864 0.000000 0.828779
Si Si3 0.000000 0.000000 0.750000
Si Si4 0.104262 0.500000 0.817421
O O1 0.260742 0.739259 0.750000
O O2 0.297347 0.827825 0.500000
O O3 0.243980 0.912640 0.742976
O O4 0.407020 0.847497 0.726547
O O5 0.096979 0.000000 0.831768
O O6 0.239131 0.000000 0.000000
O O7 0.000000 0.500000 0.765086
O O8 0.101387 0.500000 0.000000
#
# Coordination Sequence:
#
# PCOD9566849 Si02
#       4
#    16   8   2   8
#     4  11  22  38  59  83 114 148 191 237 288 339
#     4  12  24  36  53  79 113 156 196 229 272 329
#     4  12  26  36  52  74 122 160 194 208 266 332
#     4   9  18  36  60  83 110 153 193 232 284 346
#
# _framework density 17.481117999999999
#
# number of rings (size 3 to 8) (size 9 to 14) (size 15 to 20)
#    0.000    1.176    4.706    2.471    0.000    1.882 
#    0.000    5.882    0.000    0.706    0.000    4.941 
#    0.000    0.000    0.000    0.000    0.000    0.000 
#
# Total GULP energy -189837.768824 kJ/mol
# GULP energy per Si atom -5583.463789 kJ/mol
# Density = 1.744133 g / cm^3
# Si number density = 17.481118 Si / 1000 Ang^3
#
#
#
# Elastic Constant Matrix: (Units=GPa)
#
#
# Indices 1 2 3 4 5 6 
#
# 1 157.1210 76.8315 39.5834 0.0000 0.0000 0.0000
# 2 76.8315 157.1241 39.5827 0.0000 0.0000 0.0000
# 3 39.5834 39.5827 79.9157 0.0000 0.0000 0.0000
# 4 0.0000 0.0000 0.0000 19.5965 0.0000 0.0000
# 5 0.0000 0.0000 0.0000 0.0000 19.5964 0.0000
# 6 0.0000 0.0000 0.0000 0.0000 0.0000 24.0716
#
#
#
# Elastic Compliance Matrix: (Units=1/GPa)
#
#
# Indices 1 2 3 4 5 6 
#
# 1 0.008795 -0.003660 -0.002544 0.000000 0.000000 0.000000
# 2 -0.003660 0.008795 -0.002543 0.000000 0.000000 0.000000
# 3 -0.002544 -0.002543 0.015033 0.000000 0.000000 0.000000
# 4 0.000000 0.000000 0.000000 0.051030 0.000000 0.000000
# 5 0.000000 0.000000 0.000000 0.000000 0.051030 0.000000
# 6 0.000000 0.000000 0.000000 0.000000 0.000000 0.041543
#
#
# Mechanical properties :
#
#
# Convention : Reuss Voigt Hill
#
# Bulk Modulus (GPa) = 66.09789 78.46177 72.27983
# Shear Modulus (GPa) = 25.15585 28.53044 26.84315
#
# Velocity S-wave (km/s) = 3.79757 4.04427 3.92286
# Velocity P-wave (km/s) = 7.55790 8.17248 7.87119
#
# Compressibility (1/GPa) = 0.01512908
#
# Stress axis : x y z
#
# Youngs Moduli (GPa) = 113.70151 113.70465 66.52141
#
# Poissons Ratio (x) = 0.41614 0.16920
# Poissons Ratio (y) = 0.41613 0.16918
# Poissons Ratio (z) = 0.28920 0.28919
#
# Static dielectric constant tensor:
#      x y z
#    x 1.591300 0.000000 0.000000 
#    y 0.000000 1.591300 0.000000 
#    z 0.000000 0.000000 1.593830 
# 
# From -- ./inp_files/538.got.cif
#   From: 2010.05.17/outbox.cif.g08.bks.cpg/sg131_1_cif.got.tgz:538.got - 2010.05.20 12:21:01.
