data_PCOD9566409
_publ_section_title
;
Structure prediction by ZEFSAII (Michael W. Deem and Ramdas Pophale) SiO2 
 PCOD9566409
Probable space group: P 42/M M C
;
_chemical_formula_sum "Si O2"
_cell_formula_units_Z 58
_cell_length_a 17.112058
_cell_length_b 17.112058
_cell_length_c 10.168573
_cell_angle_alpha 90.000000
_cell_angle_beta 90.000000
_cell_angle_gamma 90.000000
_cell_volume 2977.587262
_symmetry_space_group_name_H-M "P 42/M M C"
_symmetry_group_IT_number 131
_symmetry_cell_setting 'tetragonal'
loop_
_space_group_symop_operation_xyz
x,y,z
-x,-y,z
-y,x,1/2+z
y,-x,1/2+z
-x,y,-z
x,-y,-z
y,x,1/2-z
-y,-x,1/2-z
-x,-y,-z
x,y,-z
y,-x,1/2-z
-y,x,1/2-z
x,-y,z
-x,y,z
-y,-x,1/2+z
y,x,1/2+z
loop_
_atom_site_type_symbol
_atom_site_label
_atom_site_fract_x
_atom_site_fract_y
_atom_site_fract_z
Si Si1 0.907509 0.710246 0.000000
Si Si2 0.906773 0.638461 0.500000
Si Si3 0.323867 0.676134 0.750000
Si Si4 0.582488 0.094025 0.286496
Si Si5 0.328536 0.500000 0.345760
Si Si6 0.763962 0.748621 0.500000
Si Si7 0.500000 0.500000 0.750000
O O1 0.887445 0.656272 0.125454
O O2 0.841885 0.775324 0.000000
O O3 0.000000 0.729524 0.000000
O O4 0.888371 0.592729 0.633578
O O5 0.849376 0.711169 0.500000
O O6 0.000000 0.655597 0.500000
O O7 0.417397 0.691780 0.773656
O O8 0.281898 0.714021 0.875794
O O9 0.500000 0.126793 0.334996
O O10 0.578253 0.000000 0.297077
O O11 0.303231 0.500000 0.500000
O O12 0.422931 0.500000 0.338778
#
# Coordination Sequence:
#
# PCOD9566409 Si02
#       7
#     8   8   8  16   8   8   2
#     4  10  21  38  58  79 113 155 188 235 297 351
#     4  10  21  38  60  81 113 155 190 237 297 349
#     4  11  24  41  62  86 120 159 194 259 290 350
#     4   9  17  33  56  84 111 145 190 228 277 352
#     4  10  19  40  60  84 117 153 207 238 307 339
#     4  12  24  42  56  90 122 148 202 248 302 356
#     4   8  18  28  68  86 100 154 208 266 272 342
#
# _framework density 19.478857999999999
#
# number of rings (size 3 to 8) (size 9 to 14) (size 15 to 20)
#    0.000    1.931    1.379    2.690    0.000    3.862 
#   14.897    0.000    0.000    0.414    0.000    0.000 
#    0.000    8.828    0.000    0.000    0.000    1.379 
#
# Total GULP energy -323476.469024 kJ/mol
# GULP energy per Si atom -5577.180500 kJ/mol
# Density = 1.943452 g / cm^3
# Si number density = 19.478858 Si / 1000 Ang^3
#
#
#
# Elastic Constant Matrix: (Units=GPa)
#
#
# Indices 1 2 3 4 5 6 
#
# 1 93.0731 37.8105 14.9425 0.0000 0.0000 0.0000
# 2 37.8105 93.0721 14.9422 0.0000 0.0000 0.0000
# 3 14.9425 14.9422 110.9754 0.0000 0.0000 0.0000
# 4 0.0000 0.0000 0.0000 -2.5487 0.0000 0.0000
# 5 0.0000 0.0000 0.0000 0.0000 -2.5485 0.0000
# 6 0.0000 0.0000 0.0000 0.0000 0.0000 21.5282
#
#
#
# Elastic Compliance Matrix: (Units=1/GPa)
#
#
# Indices 1 2 3 4 5 6 
#
# 1 0.012989 -0.005106 -0.001061 0.000000 0.000000 0.000000
# 2 -0.005106 0.012989 -0.001061 0.000000 0.000000 0.000000
# 3 -0.001061 -0.001061 0.009297 0.000000 0.000000 0.000000
# 4 0.000000 0.000000 0.000000 -0.392359 0.000000 0.000000
# 5 0.000000 0.000000 0.000000 0.000000 -0.392384 0.000000
# 6 0.000000 0.000000 0.000000 0.000000 0.000000 0.046451
#
#
# Mechanical properties :
#
#
# Convention : Reuss Voigt Hill
#
# Bulk Modulus (GPa) = 48.03810 48.05679 48.04744
# Shear Modulus (GPa) = -7.33546 18.58122 5.62288
#
# Velocity S-wave (km/s) = -1.94269 3.09191 1.70086
# Velocity P-wave (km/s) = 4.43657 6.12138 5.34577
#
# Compressibility (1/GPa) = 0.02081681
#
# Stress axis : x y z
#
# Youngs Moduli (GPa) = 76.98760 76.98680 107.56362
#
# Poissons Ratio (x) = 0.39313 0.11417
# Poissons Ratio (y) = 0.39313 0.11416
# Poissons Ratio (z) = 0.08171 0.08171
#
# Static dielectric constant tensor:
#      x y z
#    x 1.707340 0.000000 0.000000 
#    y 0.000000 1.707340 0.000000 
#    z 0.000000 0.000000 1.683520 
# 
# From -- ./inp_files/1343.got.cif
#   From: 2010.05.17/outbox.cif.g08.bks.cpg/sg131_1_cif.got.tgz:1343.got - 2010.05.20 12:21:01.
