data_PCOD9566890
_publ_section_title
;
Structure prediction by ZEFSAII (Michael W. Deem and Ramdas Pophale) SiO2 
 PCOD9566890
Probable space group: P 42/M M C
;
_chemical_formula_sum "Si O2"
_cell_formula_units_Z 72
_cell_length_a 14.083216
_cell_length_b 14.083216
_cell_length_c 14.279172
_cell_angle_alpha 90.000000
_cell_angle_beta 90.000000
_cell_angle_gamma 90.000000
_cell_volume 2832.087750
_symmetry_space_group_name_H-M "P 42/M M C"
_symmetry_group_IT_number 131
_symmetry_cell_setting 'tetragonal'
loop_
_space_group_symop_operation_xyz
x,y,z
-x,-y,z
-y,x,1/2+z
y,-x,1/2+z
-x,y,-z
x,-y,-z
y,x,1/2-z
-y,-x,1/2-z
-x,-y,-z
x,y,-z
y,-x,1/2-z
-y,x,1/2-z
x,-y,z
-x,y,z
-y,-x,1/2+z
y,x,1/2+z
loop_
_atom_site_type_symbol
_atom_site_label
_atom_site_fract_x
_atom_site_fract_y
_atom_site_fract_z
Si Si1 0.390424 0.500000 0.886193
Si Si2 0.679554 0.106659 0.105311
Si Si3 0.889885 0.102888 0.362177
Si Si4 0.608746 0.892897 0.386318
Si Si5 0.302857 0.702776 0.614667
O O1 0.500000 0.500000 0.862070
O O2 0.344308 0.598600 0.855490
O O3 0.381310 0.500000 0.000000
O O4 0.792707 0.128708 0.098509
O O5 0.649445 0.207418 0.148855
O O6 0.667199 0.000000 0.145764
O O7 0.640205 0.101650 0.000000
O O8 0.886179 0.113822 0.250000
O O9 0.000000 0.091992 0.386863
O O10 0.844043 0.000000 0.387991
O O11 0.609621 0.892996 0.500000
O O12 0.500000 0.869230 0.359363
O O13 0.683217 0.813375 0.356890
O O14 0.628402 0.000000 0.355286
O O15 0.299854 0.699024 0.500000
#
# Coordination Sequence:
#
# PCOD9566890 Si02
#       5
#     8  16  16  16  16
#     4   9  16  26  41  59  79 107 142 180 224 269
#     4   9  17  26  37  57  86 118 147 179 222 265
#     4   8  14  25  39  54  78 115 156 192 217 243
#     4   8  12  18  29  45  67  98 133 162 193 240
#     4   9  15  24  37  54  81 111 139 174 214 257
#
# _framework density 25.422941000000002
#
# number of rings (size 3 to 8) (size 9 to 14) (size 15 to 20)
#    0.000    3.444    1.111    1.333    0.000    1.333 
#    0.000    4.444    0.000    0.667    0.000    4.667 
#    3.333    0.000    3.333    0.000    0.667    0.000 
#
# Total GULP energy -401291.499138 kJ/mol
# GULP energy per Si atom -5573.493044 kJ/mol
# Density = 2.536508 g / cm^3
# Si number density = 25.422941 Si / 1000 Ang^3
#
#
#
# Elastic Constant Matrix: (Units=GPa)
#
#
# Indices 1 2 3 4 5 6 
#
# 1 126.3721 46.6685 -4.3038 0.0000 0.0000 0.0000
# 2 46.6685 126.3723 -4.3037 0.0000 0.0000 0.0000
# 3 -4.3038 -4.3037 103.1525 0.0000 0.0000 0.0000
# 4 0.0000 0.0000 0.0000 10.9403 0.0000 0.0000
# 5 0.0000 0.0000 0.0000 0.0000 10.9388 0.0000
# 6 0.0000 0.0000 0.0000 0.0000 0.0000 -24.7399
#
#
#
# Elastic Compliance Matrix: (Units=1/GPa)
#
#
# Indices 1 2 3 4 5 6 
#
# 1 0.009169 -0.003378 0.000242 0.000000 0.000000 0.000000
# 2 -0.003378 0.009169 0.000242 0.000000 0.000000 0.000000
# 3 0.000242 0.000242 0.009715 0.000000 0.000000 0.000000
# 4 0.000000 0.000000 0.000000 0.091405 0.000000 0.000000
# 5 0.000000 0.000000 0.000000 0.000000 0.091418 0.000000
# 6 0.000000 0.000000 0.000000 0.000000 0.000000 -0.040421
#
#
# Mechanical properties :
#
#
# Convention : Reuss Voigt Hill
#
# Bulk Modulus (GPa) = 44.91757 48.00211 46.45984
# Shear Modulus (GPa) = 27.22356 20.61691 23.92023
#
# Velocity S-wave (km/s) = 3.27590 2.85082 3.07072
# Velocity P-wave (km/s) = 5.65819 5.45515 5.55760
#
# Compressibility (1/GPa) = 0.02226300
#
# Stress axis : x y z
#
# Youngs Moduli (GPa) = 109.06622 109.06641 102.93846
#
# Poissons Ratio (x) = 0.36840 -0.02487
# Poissons Ratio (y) = 0.36840 -0.02487
# Poissons Ratio (z) = -0.02635 -0.02635
#
# Static dielectric constant tensor:
#      x y z
#    x 2.068840 0.000000 0.000000 
#    y 0.000000 2.068840 0.000000 
#    z 0.000000 0.000000 1.953040 
# 
# From -- ./inp_files/7558.got.cif
#   From: 2010.05.17/outbox.cif.g08.bks.cpg/sg131_4_cif.got.tgz:7558.got - 2010.05.20 12:21:01.
