data_PCOD9566551
_publ_section_title
;
Structure prediction by ZEFSAII (Michael W. Deem and Ramdas Pophale) SiO2 
 PCOD9566551
Probable space group: P 42/M M C
;
_chemical_formula_sum "Si O2"
_cell_formula_units_Z 72
_cell_length_a 21.827042
_cell_length_b 21.827042
_cell_length_c 8.625627
_cell_angle_alpha 90.000000
_cell_angle_beta 90.000000
_cell_angle_gamma 90.000000
_cell_volume 4109.419166
_symmetry_space_group_name_H-M "P 42/M M C"
_symmetry_group_IT_number 131
_symmetry_cell_setting 'tetragonal'
loop_
_space_group_symop_operation_xyz
x,y,z
-x,-y,z
-y,x,1/2+z
y,-x,1/2+z
-x,y,-z
x,-y,-z
y,x,1/2-z
-y,-x,1/2-z
-x,-y,-z
x,y,-z
y,-x,1/2-z
-y,x,1/2-z
x,-y,z
-x,y,z
-y,-x,1/2+z
y,x,1/2+z
loop_
_atom_site_type_symbol
_atom_site_label
_atom_site_fract_x
_atom_site_fract_y
_atom_site_fract_z
Si Si1 0.069458 0.500000 0.311555
Si Si2 0.500000 0.404742 0.686119
Si Si3 0.265217 0.169758 0.685996
Si Si4 0.070245 0.165435 0.812877
Si Si5 0.500000 0.262510 0.313812
Si Si6 0.401904 0.830596 0.186221
O O1 0.067510 0.500000 0.500000
O O2 0.109116 0.559322 0.265737
O O3 0.000000 0.500000 0.253948
O O4 0.500000 0.408752 0.500000
O O5 0.441215 0.441215 0.750000
O O6 0.500000 0.333689 0.731757
O O7 0.228009 0.228009 0.750000
O O8 0.266695 0.172450 0.500000
O O9 0.224909 0.110273 0.732923
O O10 0.333482 0.167784 0.750645
O O11 0.106680 0.106680 0.750000
O O12 0.000000 0.168166 0.759921
O O13 0.070504 0.162847 0.000000
O O14 0.500000 0.258773 0.500000
O O15 0.559148 0.226760 0.249245
O O16 0.401339 0.827970 0.000000
#
# Coordination Sequence:
#
# PCOD9566551 Si02
#       6
#     8   8  16  16   8  16
#     4   8  16  32  52  75 104 136 170 208 250 301
#     4  10  21  36  56  79 104 134 167 206 250 297
#     4  10  20  35  54  75 103 137 173 215 261 312
#     4   9  19  35  53  75 104 137 174 216 262 313
#     4  10  21  37  55  77 106 141 178 214 254 303
#     4  10  20  34  54  79 106 137 173 216 263 308
#
# _framework density 17.520724000000001
#
# number of rings (size 3 to 8) (size 9 to 14) (size 15 to 20)
#    0.000    2.444    0.000    3.000    0.000    5.111 
#    0.000    3.333    0.000   11.333    0.000    0.000 
#    0.000    0.000    0.000    0.000    0.000    0.000 
#
# Total GULP energy -401741.868415 kJ/mol
# GULP energy per Si atom -5579.748172 kJ/mol
# Density = 1.748085 g / cm^3
# Si number density = 17.520724 Si / 1000 Ang^3
#
#
#
# Elastic Constant Matrix: (Units=GPa)
#
#
# Indices 1 2 3 4 5 6 
#
# 1 198.5653 108.2397 44.4013 0.0000 0.0000 0.0000
# 2 108.2397 198.5653 44.4013 0.0000 0.0000 0.0000
# 3 44.4013 44.4013 44.3938 0.0000 0.0000 0.0000
# 4 0.0000 0.0000 0.0000 26.9376 0.0000 0.0000
# 5 0.0000 0.0000 0.0000 0.0000 26.9376 0.0000
# 6 0.0000 0.0000 0.0000 0.0000 0.0000 5.0143
#
#
#
# Elastic Compliance Matrix: (Units=1/GPa)
#
#
# Indices 1 2 3 4 5 6 
#
# 1 0.007829 -0.003242 -0.004588 0.000000 0.000000 0.000000
# 2 -0.003242 0.007829 -0.004588 0.000000 0.000000 0.000000
# 3 -0.004588 -0.004588 0.031704 0.000000 0.000000 0.000000
# 4 0.000000 0.000000 0.000000 0.037123 0.000000 0.000000
# 5 0.000000 0.000000 0.000000 0.000000 0.037123 0.000000
# 6 0.000000 0.000000 0.000000 0.000000 0.000000 0.199429
#
#
# Mechanical properties :
#
#
# Convention : Reuss Voigt Hill
#
# Bulk Modulus (GPa) = 44.39385 92.84543 68.61964
# Shear Modulus (GPa) = 14.14901 28.07670 21.11285
#
# Velocity S-wave (km/s) = 2.84484 4.00745 3.47511
# Velocity P-wave (km/s) = 6.01529 8.63248 7.43987
#
# Compressibility (1/GPa) = 0.02252564
#
# Stress axis : x y z
#
# Youngs Moduli (GPa) = 127.72632 127.72632 31.54221
#
# Poissons Ratio (x) = 0.41407 0.14472
# Poissons Ratio (y) = 0.41407 0.14472
# Poissons Ratio (z) = 0.58603 0.58603
#
# Static dielectric constant tensor:
#      x y z
#    x 1.576490 0.000000 0.000000 
#    y 0.000000 1.576490 0.000000 
#    z 0.000000 0.000000 1.595230 
# 
# From -- ./inp_files/1904.got.cif
#   From: 2010.05.17/outbox.cif.g08.bks.cpg/sg131_1_cif.got.tgz:1904.got - 2010.05.20 12:21:01.
