data_PCOD9566545
_publ_section_title
;
Structure prediction by ZEFSAII (Michael W. Deem and Ramdas Pophale) SiO2 
 PCOD9566545
Probable space group: P 42/M M C
;
_chemical_formula_sum "Si O2"
_cell_formula_units_Z 88
_cell_length_a 13.703050
_cell_length_b 13.703050
_cell_length_c 28.433925
_cell_angle_alpha 90.000000
_cell_angle_beta 90.000000
_cell_angle_gamma 90.000000
_cell_volume 5339.139871
_symmetry_space_group_name_H-M "P 42/M M C"
_symmetry_group_IT_number 131
_symmetry_cell_setting 'tetragonal'
loop_
_space_group_symop_operation_xyz
x,y,z
-x,-y,z
-y,x,1/2+z
y,-x,1/2+z
-x,y,-z
x,-y,-z
y,x,1/2-z
-y,-x,1/2-z
-x,-y,-z
x,y,-z
y,-x,1/2-z
-y,x,1/2-z
x,-y,z
-x,y,z
-y,-x,1/2+z
y,x,1/2+z
loop_
_atom_site_type_symbol
_atom_site_label
_atom_site_fract_x
_atom_site_fract_y
_atom_site_fract_z
Si Si1 0.731910 0.888240 0.306528
Si Si2 0.886099 0.614017 0.098801
Si Si3 0.116470 0.389849 0.393506
Si Si4 0.791346 0.796191 0.555452
Si Si5 0.000000 0.113717 0.057029
Si Si6 0.282042 0.887198 0.800775
O O1 0.654174 0.875996 0.348042
O O2 0.816892 0.808842 0.311323
O O3 0.689698 0.875207 0.253862
O O4 0.769065 0.000000 0.309405
O O5 0.866018 0.500000 0.096461
O O6 0.815351 0.678415 0.066853
O O7 0.000000 0.629377 0.084636
O O8 0.148738 0.500000 0.405382
O O9 0.167730 0.300974 0.420561
O O10 0.131835 0.367005 0.338231
O O11 0.000000 0.384306 0.402583
O O12 0.809539 0.789804 0.500000
O O13 0.840628 0.897579 0.573815
O O14 0.000000 0.000000 0.068109
O O15 0.000000 0.125320 0.000000
O O16 0.251972 0.000000 0.807110
#
# Coordination Sequence:
#
# PCOD9566545 Si02
#       6
#    16  16  16  16   8  16
#     4   9  17  30  49  77 110 139 171 210 258 312
#     4  10  20  34  53  78 107 138 175 218 266 317
#     4  10  21  36  54  78 108 143 181 215 255 311
#     4  11  21  35  53  76 106 137 177 224 267 312
#     4   9  18  32  51  75 103 135 168 208 259 315
#     4   9  17  30  50  76 108 142 173 208 253 312
#
# _framework density 16.482056
#
# number of rings (size 3 to 8) (size 9 to 14) (size 15 to 20)
#    0.000    2.273    2.727    0.545    0.000    2.909 
#    0.000    7.273    0.000    0.545    0.000    1.273 
#    0.000    2.909    0.000    0.000    0.000    0.000 
#
# Total GULP energy -490492.652995 kJ/mol
# GULP energy per Si atom -5573.780148 kJ/mol
# Density = 1.644454 g / cm^3
# Si number density = 16.482056 Si / 1000 Ang^3
#
#
#
# Elastic Constant Matrix: (Units=GPa)
#
#
# Indices 1 2 3 4 5 6 
#
# 1 78.9908 47.4517 20.3734 0.0000 0.0000 0.0000
# 2 47.4517 78.9908 20.3734 0.0000 0.0000 0.0000
# 3 20.3734 20.3734 43.2458 0.0000 0.0000 0.0000
# 4 0.0000 0.0000 0.0000 17.2733 0.0000 0.0000
# 5 0.0000 0.0000 0.0000 0.0000 17.2733 0.0000
# 6 0.0000 0.0000 0.0000 0.0000 0.0000 16.7671
#
#
#
# Elastic Compliance Matrix: (Units=1/GPa)
#
#
# Indices 1 2 3 4 5 6 
#
# 1 0.020516 -0.011191 -0.004393 0.000000 0.000000 0.000000
# 2 -0.011191 0.020516 -0.004393 0.000000 0.000000 0.000000
# 3 -0.004393 -0.004393 0.027263 0.000000 0.000000 0.000000
# 4 0.000000 0.000000 0.000000 0.057893 0.000000 0.000000
# 5 0.000000 0.000000 0.000000 0.000000 0.057893 0.000000
# 6 0.000000 0.000000 0.000000 0.000000 0.000000 0.059641
#
#
# Mechanical properties :
#
#
# Convention : Reuss Voigt Hill
#
# Bulk Modulus (GPa) = 35.28562 41.95827 38.62195
# Shear Modulus (GPa) = 17.05786 17.79799 17.42793
#
# Velocity S-wave (km/s) = 3.22053 3.28966 3.25528
# Velocity P-wave (km/s) = 5.94004 6.31992 6.13292
#
# Compressibility (1/GPa) = 0.02834016
#
# Stress axis : x y z
#
# Youngs Moduli (GPa) = 48.74360 48.74360 36.68034
#
# Poissons Ratio (x) = 0.54550 0.16113
# Poissons Ratio (y) = 0.54550 0.16113
# Poissons Ratio (z) = 0.21412 0.21412
#
# Static dielectric constant tensor:
#      x y z
#    x 1.539190 0.000000 0.000000 
#    y 0.000000 1.539190 0.000000 
#    z 0.000000 0.000000 1.594590 
# 
# From -- ./inp_files/13562.got.cif
#   From: 2010.05.17/outbox.cif.g08.bks.cpg/sg131_7_cif.got.tgz:13562.got - 2010.05.20 12:21:01.
