data_PCOD9566077
_publ_section_title
;
Structure prediction by ZEFSAII (Michael W. Deem and Ramdas Pophale) SiO2 
 PCOD9566077
Probable space group: P 42/M M C
;
_chemical_formula_sum "Si O2"
_cell_formula_units_Z 96
_cell_length_a 18.775795
_cell_length_b 18.775795
_cell_length_c 15.385685
_cell_angle_alpha 90.000000
_cell_angle_beta 90.000000
_cell_angle_gamma 90.000000
_cell_volume 5423.922886
_symmetry_space_group_name_H-M "P 42/M M C"
_symmetry_group_IT_number 131
_symmetry_cell_setting 'tetragonal'
loop_
_space_group_symop_operation_xyz
x,y,z
-x,-y,z
-y,x,1/2+z
y,-x,1/2+z
-x,y,-z
x,-y,-z
y,x,1/2-z
-y,-x,1/2-z
-x,-y,-z
x,y,-z
y,-x,1/2-z
-y,x,1/2-z
x,-y,z
-x,y,z
-y,-x,1/2+z
y,x,1/2+z
loop_
_atom_site_type_symbol
_atom_site_label
_atom_site_fract_x
_atom_site_fract_y
_atom_site_fract_z
Si Si1 0.079267 0.866000 0.893870
Si Si2 0.710633 0.227650 0.838449
Si Si3 0.299303 0.078838 0.605792
Si Si4 0.221346 0.634893 0.097421
Si Si5 0.231000 0.078682 0.105475
Si Si6 0.418848 0.698054 0.758514
O O1 0.089289 0.783124 0.867983
O O2 0.148729 0.909025 0.865942
O O3 0.000000 0.889396 0.865869
O O4 0.078694 0.867692 0.000000
O O5 0.752753 0.247247 0.750000
O O6 0.743831 0.285754 0.903841
O O7 0.724256 0.146555 0.863056
O O8 0.629694 0.251762 0.820219
O O9 0.298810 0.081065 0.500000
O O10 0.350408 0.142152 0.633481
O O11 0.321559 0.000000 0.632915
O O12 0.265638 0.588003 0.163908
O O13 0.218875 0.606441 0.000000
O O14 0.254777 0.000000 0.134067
O O15 0.231670 0.080087 0.000000
O O16 0.376203 0.623798 0.750000
O O17 0.500000 0.690706 0.785559
#
# Coordination Sequence:
#
# PCOD9566077 Si02
#       6
#    16  16  16  16  16  16
#     4   8  13  21  35  59  92 125 158 202 255 298
#     4   9  18  32  48  67  97 130 167 200 238 293
#     4   8  12  19  36  64  95 124 154 191 236 279
#     4   9  15  27  51  76  99 126 160 203 237 271
#     4  10  18  28  46  69  94 130 179 229 264 284
#     4   9  20  36  55  79 102 126 152 177 225 298
#
# _framework density 17.699366999999999
#
# number of rings (size 3 to 8) (size 9 to 14) (size 15 to 20)
#    0.000    3.500    1.667    1.500    0.000    0.833 
#    0.000    5.833    0.000   14.500    0.000    8.167 
#    0.000    0.000    0.000    0.000    0.000    0.000 
#
# Total GULP energy -534690.851234 kJ/mol
# GULP energy per Si atom -5569.696367 kJ/mol
# Density = 1.765908 g / cm^3
# Si number density = 17.699367 Si / 1000 Ang^3
#
#
#
# Elastic Constant Matrix: (Units=GPa)
#
#
# Indices 1 2 3 4 5 6 
#
# 1 110.8209 46.9503 9.3779 0.0000 0.0000 0.0000
# 2 46.9503 110.8224 9.3782 0.0000 0.0000 0.0000
# 3 9.3779 9.3782 24.0004 0.0000 0.0000 0.0000
# 4 0.0000 0.0000 0.0000 9.7945 0.0000 0.0000
# 5 0.0000 0.0000 0.0000 0.0000 9.7937 0.0000
# 6 0.0000 0.0000 0.0000 0.0000 0.0000 10.2153
#
#
#
# Elastic Compliance Matrix: (Units=1/GPa)
#
#
# Indices 1 2 3 4 5 6 
#
# 1 0.011152 -0.004505 -0.002597 0.000000 0.000000 0.000000
# 2 -0.004505 0.011152 -0.002597 0.000000 0.000000 0.000000
# 3 -0.002597 -0.002597 0.043696 0.000000 0.000000 0.000000
# 4 0.000000 0.000000 0.000000 0.102098 0.000000 0.000000
# 5 0.000000 0.000000 0.000000 0.000000 0.102106 0.000000
# 6 0.000000 0.000000 0.000000 0.000000 0.000000 0.097892
#
#
# Mechanical properties :
#
#
# Convention : Reuss Voigt Hill
#
# Bulk Modulus (GPa) = 21.45898 41.89518 31.67708
# Shear Modulus (GPa) = 12.40609 17.95652 15.18130
#
# Velocity S-wave (km/s) = 2.65039 3.18862 2.93188
# Velocity P-wave (km/s) = 4.63859 6.10559 5.42194
#
# Compressibility (1/GPa) = 0.04660053
#
# Stress axis : x y z
#
# Youngs Moduli (GPa) = 89.67145 89.67254 22.88557
#
# Poissons Ratio (x) = 0.40395 0.05944
# Poissons Ratio (y) = 0.40394 0.05944
# Poissons Ratio (z) = 0.23290 0.23291
#
# Static dielectric constant tensor:
#      x y z
#    x 1.608120 0.000000 0.000000 
#    y 0.000000 1.608120 0.000000 
#    z 0.000000 0.000000 1.665440 
# 
# From -- ./inp_files/7975.got.cif
#   From: 2010.05.17/outbox.cif.g08.bks.cpg/sg131_4_cif.got.tgz:7975.got - 2010.05.20 12:21:01.
