data_PCOD9566759
_publ_section_title
;
Structure prediction by ZEFSAII (Michael W. Deem and Ramdas Pophale) SiO2 
 PCOD9566759
Probable space group: P 42/M M C
;
_chemical_formula_sum "Si O2"
_cell_formula_units_Z 58
_cell_length_a 13.079887
_cell_length_b 13.079887
_cell_length_c 20.552775
_cell_angle_alpha 90.000000
_cell_angle_beta 90.000000
_cell_angle_gamma 90.000000
_cell_volume 3516.239529
_symmetry_space_group_name_H-M "P 42/M M C"
_symmetry_group_IT_number 131
_symmetry_cell_setting 'tetragonal'
loop_
_space_group_symop_operation_xyz
x,y,z
-x,-y,z
-y,x,1/2+z
y,-x,1/2+z
-x,y,-z
x,-y,-z
y,x,1/2-z
-y,-x,1/2-z
-x,-y,-z
x,y,-z
y,-x,1/2-z
-y,x,1/2-z
x,-y,z
-x,y,z
-y,-x,1/2+z
y,x,1/2+z
loop_
_atom_site_type_symbol
_atom_site_label
_atom_site_fract_x
_atom_site_fract_y
_atom_site_fract_z
Si Si1 0.378168 0.378168 0.250000
Si Si2 0.500000 0.120771 0.421643
Si Si3 0.885340 0.881329 0.328448
Si Si4 0.612681 0.289790 0.000000
Si Si5 0.500000 0.500000 0.000000
Si Si6 0.749064 0.304023 0.124735
O O1 0.361695 0.500000 0.257100
O O2 0.338699 0.319570 0.313862
O O3 0.500000 0.126673 0.500000
O O4 0.600584 0.178944 0.395345
O O5 0.500000 0.000000 0.403518
O O6 0.878567 0.878567 0.250000
O O7 0.793603 0.816272 0.356644
O O8 0.000000 0.845856 0.346496
O O9 0.875911 0.000000 0.348070
O O10 0.586807 0.410406 0.000000
O O11 0.676992 0.272338 0.935237
O O12 0.500000 0.238784 0.000000
#
# Coordination Sequence:
#
# PCOD9566759 Si02
#       6
#     8   8  16   8   2  16
#     4  11  24  34  54  85 120 146 192 241 286 342
#     4  11  23  37  57  88 121 151 185 240 307 359
#     4   9  19  37  61  86 114 152 194 235 285 349
#     4  10  22  34  59  78 112 153 198 227 277 349
#     4   8  20  36  52  82 104 156 196 222 260 350
#     4  12  20  38  58  86 115 153 190 241 293 343
#
# _framework density 16.494895
#
# number of rings (size 3 to 8) (size 9 to 14) (size 15 to 20)
#    0.414    1.103    4.138    3.310    0.000    0.000 
#    0.000    0.690    0.000    4.966    0.000    0.000 
#    0.000    0.000    0.000    0.000    0.000    0.000 
#
# Total GULP energy -322972.389896 kJ/mol
# GULP energy per Si atom -5568.489481 kJ/mol
# Density = 1.645735 g / cm^3
# Si number density = 16.494895 Si / 1000 Ang^3
#
#
#
# Elastic Constant Matrix: (Units=GPa)
#
#
# Indices 1 2 3 4 5 6 
#
# 1 136.2464 89.5621 66.1695 0.0000 0.0000 0.0000
# 2 89.5621 136.2464 66.1695 0.0000 0.0000 0.0000
# 3 66.1695 66.1695 112.5311 0.0000 0.0000 0.0000
# 4 0.0000 0.0000 0.0000 -237.0389 0.0000 0.0000
# 5 0.0000 0.0000 0.0000 0.0000 -237.0389 0.0000
# 6 0.0000 0.0000 0.0000 0.0000 0.0000 35.2827
#
#
#
# Elastic Compliance Matrix: (Units=1/GPa)
#
#
# Indices 1 2 3 4 5 6 
#
# 1 0.014089 -0.007332 -0.003973 0.000000 0.000000 0.000000
# 2 -0.007332 0.014089 -0.003973 0.000000 0.000000 0.000000
# 3 -0.003973 -0.003973 0.013559 0.000000 0.000000 0.000000
# 4 0.000000 0.000000 0.000000 -0.004219 0.000000 0.000000
# 5 0.000000 0.000000 0.000000 0.000000 -0.004219 0.000000
# 6 0.000000 0.000000 0.000000 0.000000 0.000000 0.028343
#
#
# Mechanical properties :
#
#
# Convention : Reuss Voigt Hill
#
# Bulk Modulus (GPa) = 89.44322 92.09179 90.76750
# Shear Modulus (GPa) = 52.12405 -76.88417 -12.38006
#
# Velocity S-wave (km/s) = 5.62750 -6.83462 -2.74257
# Velocity P-wave (km/s) = 9.82687 2.51617 6.71701
#
# Compressibility (1/GPa) = 0.01118028
#
# Stress axis : x y z
#
# Youngs Moduli (GPa) = 70.97825 70.97825 73.75134
#
# Poissons Ratio (x) = 0.52039 0.29303
# Poissons Ratio (y) = 0.52039 0.29303
# Poissons Ratio (z) = 0.28202 0.28202
#
# Static dielectric constant tensor:
#      x y z
#    x 1.546300 0.000000 0.000000 
#    y 0.000000 1.546300 0.000000 
#    z 0.000000 0.000000 1.538060 
# 
# From -- ./inp_files/9228.got.cif
#   From: 2010.05.17/outbox.cif.g08.bks.cpg/sg131_5_cif.got.tgz:9228.got - 2010.05.20 12:21:01.
