data_PCOD9566746
_publ_section_title
;
Structure prediction by ZEFSAII (Michael W. Deem and Ramdas Pophale) SiO2 
 PCOD9566746
Probable space group: P 42/M M C
;
_chemical_formula_sum "Si O2"
_cell_formula_units_Z 56
_cell_length_a 17.038403
_cell_length_b 17.038403
_cell_length_c 10.442205
_cell_angle_alpha 90.000000
_cell_angle_beta 90.000000
_cell_angle_gamma 90.000000
_cell_volume 3031.447053
_symmetry_space_group_name_H-M "P 42/M M C"
_symmetry_group_IT_number 131
_symmetry_cell_setting 'tetragonal'
loop_
_space_group_symop_operation_xyz
x,y,z
-x,-y,z
-y,x,1/2+z
y,-x,1/2+z
-x,y,-z
x,-y,-z
y,x,1/2-z
-y,-x,1/2-z
-x,-y,-z
x,y,-z
y,-x,1/2-z
-y,x,1/2-z
x,-y,z
-x,y,z
-y,-x,1/2+z
y,x,1/2+z
loop_
_atom_site_type_symbol
_atom_site_label
_atom_site_fract_x
_atom_site_fract_y
_atom_site_fract_z
Si Si1 0.408903 0.166878 0.776798
Si Si2 0.318056 0.758473 0.000000
Si Si3 0.411162 0.240473 0.500000
Si Si4 0.090407 0.090407 0.750000
Si Si5 0.408784 0.000000 0.153355
Si Si6 0.198776 0.906883 0.000000
O O1 0.500000 0.163085 0.818012
O O2 0.406683 0.190118 0.629497
O O3 0.372638 0.080670 0.798059
O O4 0.367193 0.227058 0.870895
O O5 0.289663 0.668956 0.000000
O O6 0.257037 0.831977 0.000000
O O7 0.500000 0.277476 0.500000
O O8 0.102187 0.146892 0.628794
O O9 0.000000 0.099942 0.793109
O O10 0.500000 0.000000 0.198291
O O11 0.409633 0.000000 0.000000
O O12 0.227471 0.000000 0.000000
#
# Coordination Sequence:
#
# PCOD9566746 Si02
#       6
#    16   8   8   8   8   8
#     4  10  21  38  62  88 118 155 199 243 305 370
#     4  12  23  37  62  86 120 157 195 249 303 369
#     4  10  24  42  58  85 119 160 205 254 303 359
#     4   9  18  38  60  78 112 162 206 243 288 346
#     4   9  16  31  57  87 115 151 194 235 287 370
#     4  10  23  35  55  89 121 154 199 248 297 353
#
# _framework density 18.473026999999998
#
# number of rings (size 3 to 8) (size 9 to 14) (size 15 to 20)
#    0.000    2.000    1.429    1.714    6.000    2.286 
#    0.000    2.857    3.143    1.714    0.000    8.000 
#    0.000    0.000    0.000    0.000    0.000    0.000 
#
# Total GULP energy -312141.224160 kJ/mol
# GULP energy per Si atom -5573.950431 kJ/mol
# Density = 1.843098 g / cm^3
# Si number density = 18.473027 Si / 1000 Ang^3
#
#
#
# Elastic Constant Matrix: (Units=GPa)
#
#
# Indices 1 2 3 4 5 6 
#
# 1 93.1636 61.6069 39.6877 0.0000 0.0000 0.0000
# 2 61.6069 93.1636 39.6877 0.0000 0.0000 0.0000
# 3 39.6877 39.6877 98.1308 0.0000 0.0000 0.0000
# 4 0.0000 0.0000 0.0000 17.3971 0.0000 0.0000
# 5 0.0000 0.0000 0.0000 0.0000 17.3971 0.0000
# 6 0.0000 0.0000 0.0000 0.0000 0.0000 28.5374
#
#
#
# Elastic Compliance Matrix: (Units=1/GPa)
#
#
# Indices 1 2 3 4 5 6 
#
# 1 0.019921 -0.011768 -0.003297 0.000000 0.000000 0.000000
# 2 -0.011768 0.019921 -0.003297 0.000000 0.000000 0.000000
# 3 -0.003297 -0.003297 0.012857 0.000000 0.000000 0.000000
# 4 0.000000 0.000000 0.000000 0.057481 0.000000 0.000000
# 5 0.000000 0.000000 0.000000 0.000000 0.057481 0.000000
# 6 0.000000 0.000000 0.000000 0.000000 0.000000 0.035042
#
#
# Mechanical properties :
#
#
# Convention : Reuss Voigt Hill
#
# Bulk Modulus (GPa) = 62.60371 62.93583 62.76977
# Shear Modulus (GPa) = 20.42893 22.23138 21.33015
#
# Velocity S-wave (km/s) = 3.32908 3.47284 3.40172
# Velocity P-wave (km/s) = 6.98140 7.08688 7.03433
#
# Compressibility (1/GPa) = 0.01597349
#
# Stress axis : x y z
#
# Youngs Moduli (GPa) = 50.19942 50.19942 77.77666
#
# Poissons Ratio (x) = 0.59077 0.25643
# Poissons Ratio (y) = 0.59077 0.25643
# Poissons Ratio (z) = 0.16551 0.16551
#
# Static dielectric constant tensor:
#      x y z
#    x 1.676550 0.000000 0.000000 
#    y 0.000000 1.676550 0.000000 
#    z 0.000000 0.000000 1.594550 
# 
# From -- ./inp_files/1332.got.cif
#   From: 2010.05.17/outbox.cif.g08.bks.cpg/sg131_1_cif.got.tgz:1332.got - 2010.05.20 12:21:01.
