data_PCOD9566040
_publ_section_title
;
Structure prediction by ZEFSAII (Michael W. Deem and Ramdas Pophale) SiO2 
 PCOD9566040
Probable space group: P 42/M M C
;
_chemical_formula_sum "Si O2"
_cell_formula_units_Z 56
_cell_length_a 13.972595
_cell_length_b 13.972595
_cell_length_c 14.487941
_cell_angle_alpha 90.000000
_cell_angle_beta 90.000000
_cell_angle_gamma 90.000000
_cell_volume 2828.530140
_symmetry_space_group_name_H-M "P 42/M M C"
_symmetry_group_IT_number 131
_symmetry_cell_setting 'tetragonal'
loop_
_space_group_symop_operation_xyz
x,y,z
-x,-y,z
-y,x,1/2+z
y,-x,1/2+z
-x,y,-z
x,-y,-z
y,x,1/2-z
-y,-x,1/2-z
-x,-y,-z
x,y,-z
y,-x,1/2-z
-y,x,1/2-z
x,-y,z
-x,y,z
-y,-x,1/2+z
y,x,1/2+z
loop_
_atom_site_type_symbol
_atom_site_label
_atom_site_fract_x
_atom_site_fract_y
_atom_site_fract_z
Si Si1 0.302411 0.802434 0.393737
Si Si2 0.609523 0.608051 0.361207
Si Si3 0.104773 0.113519 0.611577
Si Si4 0.886278 0.500000 0.110362
O O1 0.301852 0.837529 0.500000
O O2 0.318212 0.688953 0.393093
O O3 0.200719 0.834857 0.354393
O O4 0.400573 0.844213 0.350556
O O5 0.609190 0.609190 0.250000
O O6 0.631517 0.500000 0.390597
O O7 0.500000 0.630612 0.390867
O O8 0.101849 0.125800 0.500000
O O9 0.000000 0.145540 0.647051
O O10 0.112876 0.000000 0.628509
O O11 0.000000 0.500000 0.120153
O O12 0.863558 0.500000 0.000000
#
# Coordination Sequence:
#
# PCOD9566040 Si02
#       4
#    16  16  16   8
#     4  10  17  26  44  70  93 115 147 187 226 263
#     4   9  18  32  47  63  86 118 151 181 222 275
#     4   8  14  25  42  65  92 121 151 180 214 263
#     4   9  16  24  37  65 101 121 131 170 236 284
#
# _framework density 19.798269999999999
#
# number of rings (size 3 to 8) (size 9 to 14) (size 15 to 20)
#    0.000    3.000    1.429    2.571    0.000    4.000 
#    0.000    1.429    0.000    4.286    0.000    6.000 
#    0.000    0.000    0.000    0.000    0.000    0.000 
#
# Total GULP energy -312118.615947 kJ/mol
# GULP energy per Si atom -5573.546713 kJ/mol
# Density = 1.975321 g / cm^3
# Si number density = 19.798270 Si / 1000 Ang^3
#
#
#
# Elastic Constant Matrix: (Units=GPa)
#
#
# Indices 1 2 3 4 5 6 
#
# 1 154.1039 95.4422 -2.8842 0.0000 0.0000 0.0000
# 2 95.4422 154.1039 -2.8842 0.0000 0.0000 0.0000
# 3 -2.8842 -2.8842 53.8982 0.0000 0.0000 0.0000
# 4 0.0000 0.0000 0.0000 15.4637 0.0000 0.0000
# 5 0.0000 0.0000 0.0000 0.0000 15.4637 0.0000
# 6 0.0000 0.0000 0.0000 0.0000 0.0000 22.6408
#
#
#
# Elastic Compliance Matrix: (Units=1/GPa)
#
#
# Indices 1 2 3 4 5 6 
#
# 1 0.010530 -0.006517 0.000215 0.000000 0.000000 0.000000
# 2 -0.006517 0.010530 0.000215 0.000000 0.000000 0.000000
# 3 0.000215 0.000215 0.018576 0.000000 0.000000 0.000000
# 4 0.000000 0.000000 0.000000 0.064668 0.000000 0.000000
# 5 0.000000 0.000000 0.000000 0.000000 0.064668 0.000000
# 6 0.000000 0.000000 0.000000 0.000000 0.000000 0.044168
#
#
# Mechanical properties :
#
#
# Convention : Reuss Voigt Hill
#
# Bulk Modulus (GPa) = 36.41689 60.16150 48.28920
# Shear Modulus (GPa) = 21.32488 28.87579 25.10033
#
# Velocity S-wave (km/s) = 3.28549 3.82318 3.56449
# Velocity P-wave (km/s) = 5.72944 7.06697 6.43306
#
# Compressibility (1/GPa) = 0.02745978
#
# Stress axis : x y z
#
# Youngs Moduli (GPa) = 94.97064 94.97064 53.83149
#
# Poissons Ratio (x) = 0.61896 -0.01156
# Poissons Ratio (y) = 0.61896 -0.01156
# Poissons Ratio (z) = -0.02039 -0.02039
#
# Static dielectric constant tensor:
#      x y z
#    x 1.715300 0.000000 0.000000 
#    y 0.000000 1.715300 0.000000 
#    z 0.000000 0.000000 1.745810 
# 
# From -- ./inp_files/7204.got.cif
#   From: 2010.05.17/outbox.cif.g08.bks.cpg/sg131_4_cif.got.tgz:7204.got - 2010.05.20 12:21:01.
