data_PCOD9566114
_publ_section_title
;
Structure prediction by ZEFSAII (Michael W. Deem and Ramdas Pophale) SiO2 
 PCOD9566114
Probable space group: P 42/M M C
;
_chemical_formula_sum "Si O2"
_cell_formula_units_Z 80
_cell_length_a 23.190608
_cell_length_b 23.190608
_cell_length_c 9.007374
_cell_angle_alpha 90.000000
_cell_angle_beta 90.000000
_cell_angle_gamma 90.000000
_cell_volume 4844.204464
_symmetry_space_group_name_H-M "P 42/M M C"
_symmetry_group_IT_number 131
_symmetry_cell_setting 'tetragonal'
loop_
_space_group_symop_operation_xyz
x,y,z
-x,-y,z
-y,x,1/2+z
y,-x,1/2+z
-x,y,-z
x,-y,-z
y,x,1/2-z
-y,-x,1/2-z
-x,-y,-z
x,y,-z
y,-x,1/2-z
-y,x,1/2-z
x,-y,z
-x,y,z
-y,-x,1/2+z
y,x,1/2+z
loop_
_atom_site_type_symbol
_atom_site_label
_atom_site_fract_x
_atom_site_fract_y
_atom_site_fract_z
Si Si1 0.500000 0.277245 0.177825
Si Si2 0.934104 0.154081 0.178483
Si Si3 0.714988 0.372626 0.323364
Si Si4 0.381102 0.850243 0.822132
Si Si5 0.847980 0.500000 0.823405
Si Si6 0.932522 0.288110 0.822294
O O1 0.561658 0.306116 0.208604
O O2 0.500000 0.218888 0.272559
O O3 0.500000 0.262361 0.000000
O O4 0.888887 0.111113 0.250000
O O5 0.922212 0.220976 0.215655
O O6 0.000000 0.140948 0.224436
O O7 0.931671 0.149570 0.000000
O O8 0.675341 0.324660 0.250000
O O9 0.712810 0.364623 0.500000
O O10 0.782828 0.370239 0.280154
O O11 0.440797 0.870860 0.747329
O O12 0.329722 0.890097 0.765120
O O13 0.386802 0.852141 0.000000
O O14 0.853967 0.500000 0.000000
O O15 0.000000 0.300502 0.791414
O O16 0.924041 0.294729 0.000000
#
# Coordination Sequence:
#
# PCOD9566114 Si02
#       6
#     8  16  16  16   8  16
#     4   8  16  32  48  66  98 134 163 201 250 292
#     4   9  19  35  53  74 101 132 166 206 251 298
#     4   9  18  31  48  71  99 128 160 200 244 289
#     4  10  20  34  51  73 102 132 162 202 248 291
#     4  10  18  30  51  75  97 127 166 204 243 289
#     4   9  19  36  54  72  98 131 165 202 245 293
#
# _framework density 16.514579000000001
#
# number of rings (size 3 to 8) (size 9 to 14) (size 15 to 20)
#    0.000    2.800    0.000    3.900    0.000    6.600 
#    0.000    7.500    0.000    3.300    0.000    2.100 
#    0.000    0.000    0.000    0.000    0.000    0.000 
#
# Total GULP energy -445686.746867 kJ/mol
# GULP energy per Si atom -5571.084336 kJ/mol
# Density = 1.647699 g / cm^3
# Si number density = 16.514579 Si / 1000 Ang^3
#
#
#
# Elastic Constant Matrix: (Units=GPa)
#
#
# Indices 1 2 3 4 5 6 
#
# 1 106.4859 91.3051 50.4052 0.0000 0.0000 0.0000
# 2 91.3051 106.4835 50.4063 0.0000 0.0000 0.0000
# 3 50.4052 50.4063 47.1358 0.0000 0.0000 0.0000
# 4 0.0000 0.0000 0.0000 31.0102 0.0000 0.0000
# 5 0.0000 0.0000 0.0000 0.0000 31.0101 0.0000
# 6 0.0000 0.0000 0.0000 0.0000 0.0000 -19.8751
#
#
#
# Elastic Compliance Matrix: (Units=1/GPa)
#
#
# Indices 1 2 3 4 5 6 
#
# 1 0.038494 -0.027382 -0.011881 0.000000 0.000000 0.000000
# 2 -0.027382 0.038497 -0.011887 0.000000 0.000000 0.000000
# 3 -0.011881 -0.011887 0.046632 0.000000 0.000000 0.000000
# 4 0.000000 0.000000 0.000000 0.032247 0.000000 0.000000
# 5 0.000000 0.000000 0.000000 0.000000 0.032248 0.000000
# 6 0.000000 0.000000 0.000000 0.000000 0.000000 -0.050314
#
#
# Mechanical properties :
#
#
# Convention : Reuss Voigt Hill
#
# Bulk Modulus (GPa) = 46.89930 71.59317 59.24623
# Shear Modulus (GPa) = 20.22553 12.96161 16.59357
#
# Velocity S-wave (km/s) = 3.50338 2.80457 3.17327
# Velocity P-wave (km/s) = 6.69517 7.34392 7.02703
#
# Compressibility (1/GPa) = 0.02132228
#
# Stress axis : x y z
#
# Youngs Moduli (GPa) = 25.97825 25.97590 21.44441
#
# Poissons Ratio (x) = 0.71128 0.25479
# Poissons Ratio (y) = 0.71135 0.25490
# Poissons Ratio (z) = 0.30866 0.30877
#
# Static dielectric constant tensor:
#      x y z
#    x 1.553850 0.000000 0.000000 
#    y 0.000000 1.553850 0.000000 
#    z 0.000000 0.000000 1.549320 
# 
# From -- ./inp_files/2094.got.cif
#   From: 2010.05.17/outbox.cif.g08.bks.cpg/sg131_2_cif.got.tgz:2094.got - 2010.05.20 12:21:01.
