data_PCOD9566334
_publ_section_title
;
Structure prediction by ZEFSAII (Michael W. Deem and Ramdas Pophale) SiO2 
 PCOD9566334
Probable space group: P 42/M M C
;
_chemical_formula_sum "Si O2"
_cell_formula_units_Z 96
_cell_length_a 16.187835
_cell_length_b 16.187835
_cell_length_c 20.608573
_cell_angle_alpha 90.000000
_cell_angle_beta 90.000000
_cell_angle_gamma 90.000000
_cell_volume 5400.394161
_symmetry_space_group_name_H-M "P 42/M M C"
_symmetry_group_IT_number 131
_symmetry_cell_setting 'tetragonal'
loop_
_space_group_symop_operation_xyz
x,y,z
-x,-y,z
-y,x,1/2+z
y,-x,1/2+z
-x,y,-z
x,-y,-z
y,x,1/2-z
-y,-x,1/2-z
-x,-y,-z
x,y,-z
y,-x,1/2-z
-y,x,1/2-z
x,-y,z
-x,y,z
-y,-x,1/2+z
y,x,1/2+z
loop_
_atom_site_type_symbol
_atom_site_label
_atom_site_fract_x
_atom_site_fract_y
_atom_site_fract_z
Si Si1 0.500000 0.399512 0.924766
Si Si2 0.407006 0.099894 0.891568
Si Si3 0.901650 0.590036 0.241197
Si Si4 0.000000 0.902683 0.578359
Si Si5 0.850345 0.221118 0.574587
Si Si6 0.360998 0.404561 0.177633
Si Si7 0.719933 0.790959 0.314305
O O1 0.500000 0.500000 0.926773
O O2 0.578034 0.375847 0.880036
O O3 0.500000 0.370721 0.000000
O O4 0.500000 0.126679 0.915019
O O5 0.401392 0.126933 0.816011
O O6 0.319129 0.125764 0.921772
O O7 0.408463 0.000000 0.894587
O O8 0.872484 0.500000 0.217810
O O9 0.870521 0.664793 0.198877
O O10 0.000000 0.589158 0.243445
O O11 0.077845 0.843649 0.595372
O O12 0.000000 0.907618 0.500000
O O13 0.000000 0.000000 0.601204
O O14 0.830408 0.203126 0.500000
O O15 0.775612 0.206674 0.622923
O O16 0.400026 0.400026 0.250000
O O17 0.339784 0.500000 0.165290
O O18 0.283264 0.345135 0.179428
O O19 0.773677 0.773677 0.250000
#
# Coordination Sequence:
#
# PCOD9566334 Si02
#       7
#     8  16  16   8  16  16  16
#     4   9  18  32  52  76 104 143 185 233 285 323
#     4   9  17  32  56  85 116 153 191 230 281 348
#     4   9  18  35  60  85 110 145 190 238 288 342
#     4   9  20  40  65  85 109 155 203 235 277 352
#     4  11  22  37  57  84 119 154 191 239 291 346
#     4  10  19  33  54  76 103 144 194 239 274 327
#     4  11  22  35  54  82 114 149 185 234 281 338
#
# _framework density 17.776479999999999
#
# number of rings (size 3 to 8) (size 9 to 14) (size 15 to 20)
#    0.000    2.167    3.333    1.500    0.000    1.667 
#    1.500    0.833    0.000    1.500    0.000    1.167 
#    0.000    0.000    0.000    0.000    0.000    0.000 
#
# Total GULP energy -534786.873538 kJ/mol
# GULP energy per Si atom -5570.696599 kJ/mol
# Density = 1.773602 g / cm^3
# Si number density = 17.776480 Si / 1000 Ang^3
#
#
#
# Elastic Constant Matrix: (Units=GPa)
#
#
# Indices 1 2 3 4 5 6 
#
# 1 75.0319 35.3201 37.4914 0.0000 0.0000 0.0000
# 2 35.3201 75.0319 37.4914 0.0000 0.0000 0.0000
# 3 37.4914 37.4914 97.1031 0.0000 0.0000 0.0000
# 4 0.0000 0.0000 0.0000 16.1206 0.0000 0.0000
# 5 0.0000 0.0000 0.0000 0.0000 16.1206 0.0000
# 6 0.0000 0.0000 0.0000 0.0000 0.0000 16.9172
#
#
#
# Elastic Compliance Matrix: (Units=1/GPa)
#
#
# Indices 1 2 3 4 5 6 
#
# 1 0.018733 -0.006448 -0.004743 0.000000 0.000000 0.000000
# 2 -0.006448 0.018733 -0.004743 0.000000 0.000000 0.000000
# 3 -0.004743 -0.004743 0.013961 0.000000 0.000000 0.000000
# 4 0.000000 0.000000 0.000000 0.062032 0.000000 0.000000
# 5 0.000000 0.000000 0.000000 0.000000 0.062032 0.000000
# 6 0.000000 0.000000 0.000000 0.000000 0.000000 0.059111
#
#
# Mechanical properties :
#
#
# Convention : Reuss Voigt Hill
#
# Bulk Modulus (GPa) = 51.12994 51.97473 51.55234
# Shear Modulus (GPa) = 18.31553 18.95594 18.63574
#
# Velocity S-wave (km/s) = 3.21335 3.26904 3.24132
# Velocity P-wave (km/s) = 6.52630 6.59926 6.56288
#
# Compressibility (1/GPa) = 0.01955801
#
# Stress axis : x y z
#
# Youngs Moduli (GPa) = 53.38135 53.38135 71.62820
#
# Poissons Ratio (x) = 0.34422 0.33974
# Poissons Ratio (y) = 0.34422 0.33974
# Poissons Ratio (z) = 0.25320 0.25320
#
# Static dielectric constant tensor:
#      x y z
#    x 1.628390 0.000000 0.000000 
#    y 0.000000 1.628390 0.000000 
#    z 0.000000 0.000000 1.593250 
# 
# From -- ./inp_files/9788.got.cif
#   From: 2010.05.17/outbox.cif.g08.bks.cpg/sg131_5_cif.got.tgz:9788.got - 2010.05.20 12:21:01.
