data_PCOD9566080
_publ_section_title
;
Structure prediction by ZEFSAII (Michael W. Deem and Ramdas Pophale) SiO2 
 PCOD9566080
Probable space group: P 42/M M C
;
_chemical_formula_sum "Si O2"
_cell_formula_units_Z 112
_cell_length_a 14.296760
_cell_length_b 14.296760
_cell_length_c 25.940274
_cell_angle_alpha 90.000000
_cell_angle_beta 90.000000
_cell_angle_gamma 90.000000
_cell_volume 5302.123173
_symmetry_space_group_name_H-M "P 42/M M C"
_symmetry_group_IT_number 131
_symmetry_cell_setting 'tetragonal'
loop_
_space_group_symop_operation_xyz
x,y,z
-x,-y,z
-y,x,1/2+z
y,-x,1/2+z
-x,y,-z
x,-y,-z
y,x,1/2-z
-y,-x,1/2-z
-x,-y,-z
x,y,-z
y,-x,1/2-z
-y,x,1/2-z
x,-y,z
-x,y,z
-y,-x,1/2+z
y,x,1/2+z
loop_
_atom_site_type_symbol
_atom_site_label
_atom_site_fract_x
_atom_site_fract_y
_atom_site_fract_z
Si Si1 0.303619 0.111626 0.058023
Si Si2 0.106711 0.613695 0.941452
Si Si3 0.111904 0.107490 0.598127
Si Si4 0.393559 0.759311 0.348960
Si Si5 0.101955 0.174790 0.792971
Si Si6 0.370038 0.888204 0.250353
Si Si7 0.393652 0.232843 0.148964
O O1 0.191899 0.132487 0.059735
O O2 0.355829 0.174093 0.100222
O O3 0.314159 0.000000 0.069552
O O4 0.338196 0.128256 0.000000
O O5 0.107267 0.500000 0.941372
O O6 0.180050 0.641580 0.897952
O O7 0.000000 0.641653 0.928876
O O8 0.128371 0.643671 0.000000
O O9 0.148569 0.147082 0.653330
O O10 0.000000 0.101931 0.603861
O O11 0.140929 0.000000 0.585059
O O12 0.500000 0.724952 0.358817
O O13 0.401368 0.832069 0.301307
O O14 0.319320 0.676708 0.339593
O O15 0.096278 0.096278 0.750000
O O16 0.127677 0.259680 0.756030
O O17 0.000000 0.202655 0.812279
O O18 0.397400 0.836764 0.198109
O O19 0.390961 0.000000 0.250739
O O20 0.500000 0.265961 0.139631
#
# Coordination Sequence:
#
# PCOD9566080 Si02
#       7
#    16  16  16  16  16  16  16
#     4  10  22  41  65  91 119 157 208 262 316 376
#     4   8  15  31  58  93 131 166 198 240 302 372
#     4   9  17  30  52  86 127 166 200 237 290 361
#     4  11  23  40  65  95 127 165 208 251 299 363
#     4  10  18  28  46  75 115 158 196 235 281 343
#     4  11  23  39  63  93 122 154 194 245 308 372
#     4  12  27  45  64  87 120 162 209 264 320 368
#
# _framework density 21.123612999999999
#
# number of rings (size 3 to 8) (size 9 to 14) (size 15 to 20)
#    0.000    1.857    0.000    5.143    0.000    7.000 
#    0.000    2.857    0.000    1.714    0.000    3.000 
#    0.000    0.000    0.000    0.000    0.000    0.000 
#
# Total GULP energy -624231.959697 kJ/mol
# GULP energy per Si atom -5573.499640 kJ/mol
# Density = 2.107554 g / cm^3
# Si number density = 21.123613 Si / 1000 Ang^3
#
#
#
# Elastic Constant Matrix: (Units=GPa)
#
#
# Indices 1 2 3 4 5 6 
#
# 1 127.6386 47.9127 51.1646 0.0000 0.0000 0.0000
# 2 47.9127 127.6386 51.1646 0.0000 0.0000 0.0000
# 3 51.1646 51.1646 120.9823 0.0000 0.0000 0.0000
# 4 0.0000 0.0000 0.0000 27.7982 0.0000 0.0000
# 5 0.0000 0.0000 0.0000 0.0000 27.7982 0.0000
# 6 0.0000 0.0000 0.0000 0.0000 0.0000 -173.5825
#
#
#
# Elastic Compliance Matrix: (Units=1/GPa)
#
#
# Indices 1 2 3 4 5 6 
#
# 1 0.010051 -0.002491 -0.003197 0.000000 0.000000 0.000000
# 2 -0.002491 0.010051 -0.003197 0.000000 0.000000 0.000000
# 3 -0.003197 -0.003197 0.010970 0.000000 0.000000 0.000000
# 4 0.000000 0.000000 0.000000 0.035974 0.000000 0.000000
# 5 0.000000 0.000000 0.000000 0.000000 0.035974 0.000000
# 6 0.000000 0.000000 0.000000 0.000000 0.000000 -0.005761
#
#
# Mechanical properties :
#
#
# Convention : Reuss Voigt Hill
#
# Bulk Modulus (GPa) = 75.18157 75.19367 75.18762
# Shear Modulus (GPa) = 41.85341 -8.52939 16.66201
#
# Velocity S-wave (km/s) = 4.45607 -2.01162 2.81158
# Velocity P-wave (km/s) = 7.88314 5.50261 6.79789
#
# Compressibility (1/GPa) = 0.01330113
#
# Stress axis : x y z
#
# Youngs Moduli (GPa) = 99.48785 99.48785 91.15840
#
# Poissons Ratio (x) = 0.24787 0.29145
# Poissons Ratio (y) = 0.24787 0.29145
# Poissons Ratio (z) = 0.31808 0.31808
#
# Static dielectric constant tensor:
#      x y z
#    x 2.459530 0.000000 0.000000 
#    y 0.000000 2.459530 0.000000 
#    z 0.000000 0.000000 1.942260 
# 
# From -- ./inp_files/12432.got.cif
#   From: 2010.05.17/outbox.cif.g08.bks.cpg/sg131_7_cif.got.tgz:12432.got - 2010.05.20 12:21:01.
