data_PCOD9566677
_publ_section_title
;
Structure prediction by ZEFSAII (Michael W. Deem and Ramdas Pophale) SiO2 
 PCOD9566677
Probable space group: P 42/M M C
;
_chemical_formula_sum "Si O2"
_cell_formula_units_Z 42
_cell_length_a 11.354724
_cell_length_b 11.354724
_cell_length_c 13.903776
_cell_angle_alpha 90.000000
_cell_angle_beta 90.000000
_cell_angle_gamma 90.000000
_cell_volume 1792.610463
_symmetry_space_group_name_H-M "P 42/M M C"
_symmetry_group_IT_number 131
_symmetry_cell_setting 'tetragonal'
loop_
_space_group_symop_operation_xyz
x,y,z
-x,-y,z
-y,x,1/2+z
y,-x,1/2+z
-x,y,-z
x,-y,-z
y,x,1/2-z
-y,-x,1/2-z
-x,-y,-z
x,y,-z
y,-x,1/2-z
-y,x,1/2-z
x,-y,z
-x,y,z
-y,-x,1/2+z
y,x,1/2+z
loop_
_atom_site_type_symbol
_atom_site_label
_atom_site_fract_x
_atom_site_fract_y
_atom_site_fract_z
Si Si1 0.270189 0.500000 0.116901
Si Si2 0.500000 0.500000 0.250000
Si Si3 0.250483 0.758788 0.884324
Si Si4 0.000000 0.862297 0.614753
Si Si5 0.500000 0.862363 0.116318
O O1 0.389213 0.500000 0.178143
O O2 0.210834 0.373725 0.141067
O O3 0.291581 0.500000 0.000000
O O4 0.186425 0.876177 0.848422
O O5 0.385784 0.786057 0.858690
O O6 0.240997 0.760894 0.000000
O O7 0.000000 0.834773 0.500000
O O8 0.000000 0.000000 0.627446
O O9 0.500000 0.000000 0.150591
O O10 0.500000 0.871881 0.000000
#
# Coordination Sequence:
#
# PCOD9566677 Si02
#       5
#     8   2  16   8   8
#     4  10  21  35  54  84 123 159 189 234 302 365
#     4  12  22  36  56  86 120 160 186 228 288 362
#     4   9  16  28  46  75 112 146 185 235 289 346
#     4   9  16  27  47  79 113 148 199 250 286 340
#     4   9  13  19  36  62  94 130 171 221 272 318
#
# _framework density 23.429518999999999
#
# number of rings (size 3 to 8) (size 9 to 14) (size 15 to 20)
#    0.000    2.667    1.905    1.429    0.000    3.048 
#    0.000    0.952    0.000    5.714    9.905    0.000 
#    0.000    0.000    0.000    0.381    0.000    0.762 
#
# Total GULP energy -234295.524328 kJ/mol
# GULP energy per Si atom -5578.464865 kJ/mol
# Density = 2.337619 g / cm^3
# Si number density = 23.429519 Si / 1000 Ang^3
#
#
#
# Elastic Constant Matrix: (Units=GPa)
#
#
# Indices 1 2 3 4 5 6 
#
# 1 153.2794 -8.9934 20.4895 0.0000 0.0000 0.0000
# 2 -8.9934 153.2794 20.4895 0.0000 0.0000 0.0000
# 3 20.4895 20.4895 122.2218 0.0000 0.0000 0.0000
# 4 0.0000 0.0000 0.0000 -9.3010 0.0000 0.0000
# 5 0.0000 0.0000 0.0000 0.0000 -9.3010 0.0000
# 6 0.0000 0.0000 0.0000 0.0000 0.0000 409.4612
#
#
#
# Elastic Compliance Matrix: (Units=1/GPa)
#
#
# Indices 1 2 3 4 5 6 
#
# 1 0.006720 0.000557 -0.001220 0.000000 0.000000 0.000000
# 2 0.000557 0.006720 -0.001220 0.000000 0.000000 0.000000
# 3 -0.001220 -0.001220 0.008591 0.000000 0.000000 0.000000
# 4 0.000000 0.000000 0.000000 -0.107516 0.000000 0.000000
# 5 0.000000 0.000000 0.000000 0.000000 -0.107516 0.000000
# 6 0.000000 0.000000 0.000000 0.000000 0.000000 0.002442
#
#
# Mechanical properties :
#
#
# Convention : Reuss Voigt Hill
#
# Bulk Modulus (GPa) = 54.74838 54.75017 54.74928
# Shear Modulus (GPa) = -27.66940 104.62486 38.47773
#
# Velocity S-wave (km/s) = -3.44024 6.68970 4.05690
# Velocity P-wave (km/s) = 2.76363 9.11527 6.73520
#
# Compressibility (1/GPa) = 0.01826538
#
# Stress axis : x y z
#
# Youngs Moduli (GPa) = 148.81367 148.81367 116.40255
#
# Poissons Ratio (x) = -0.08294 0.14201
# Poissons Ratio (y) = -0.08294 0.14201
# Poissons Ratio (z) = 0.18155 0.18155
#
# Static dielectric constant tensor:
#      x y z
#    x 1.886250 0.000000 0.000000 
#    y 0.000000 1.886250 0.000000 
#    z 0.000000 0.000000 1.899470 
# 
# From -- ./inp_files/6936.got.cif
#   From: 2010.05.17/outbox.cif.g08.bks.cpg/sg131_4_cif.got.tgz:6936.got - 2010.05.20 12:21:01.
