data_PCOD9566460
_publ_section_title
;
Structure prediction by ZEFSAII (Michael W. Deem and Ramdas Pophale) SiO2 
 PCOD9566460
Probable space group: P 42/M M C
;
_chemical_formula_sum "Si O2"
_cell_formula_units_Z 96
_cell_length_a 24.901282
_cell_length_b 24.901282
_cell_length_c 8.469493
_cell_angle_alpha 90.000000
_cell_angle_beta 90.000000
_cell_angle_gamma 90.000000
_cell_volume 5251.711092
_symmetry_space_group_name_H-M "P 42/M M C"
_symmetry_group_IT_number 131
_symmetry_cell_setting 'tetragonal'
loop_
_space_group_symop_operation_xyz
x,y,z
-x,-y,z
-y,x,1/2+z
y,-x,1/2+z
-x,y,-z
x,-y,-z
y,x,1/2-z
-y,-x,1/2-z
-x,-y,-z
x,y,-z
y,-x,1/2-z
-y,x,1/2-z
x,-y,z
-x,y,z
-y,-x,1/2+z
y,x,1/2+z
loop_
_atom_site_type_symbol
_atom_site_label
_atom_site_fract_x
_atom_site_fract_y
_atom_site_fract_z
Si Si1 0.143487 0.938618 0.810697
Si Si2 0.938375 0.438307 0.192494
Si Si3 0.850309 0.351563 0.809126
Si Si4 0.647890 0.269364 0.810711
Si Si5 0.439203 0.642572 0.809574
Si Si6 0.146288 0.770917 0.810936
O O1 0.089384 0.910617 0.750000
O O2 0.191950 0.902312 0.747059
O O3 0.147912 0.000000 0.758789
O O4 0.144112 0.936465 0.000000
O O5 0.926292 0.500000 0.240294
O O6 0.894378 0.394946 0.246533
O O7 0.000000 0.425813 0.240328
O O8 0.937889 0.437684 0.000000
O O9 0.789864 0.362469 0.753568
O O10 0.861440 0.290263 0.757391
O O11 0.851351 0.352410 0.000000
O O12 0.702605 0.297396 0.750000
O O13 0.599724 0.308939 0.758748
O O14 0.649850 0.267925 0.000000
O O15 0.411781 0.588220 0.750000
O O16 0.500000 0.648942 0.753819
O O17 0.439225 0.642205 0.000000
O O18 0.200618 0.799383 0.750000
O O19 0.147992 0.771849 0.000000
#
# Coordination Sequence:
#
# PCOD9566460 Si02
#       6
#    16  16  16  16  16  16
#     4  10  21  36  54  76 102 133 169 208 249 294
#     4   8  15  30  51  74 102 134 167 206 249 292
#     4  10  20  32  51  80 105 129 167 209 249 298
#     4  10  20  34  52  73 101 136 169 205 251 299
#     4   9  19  35  52  72 100 133 170 211 254 301
#     4  10  20  33  50  72 101 134 166 205 252 299
#
# _framework density 18.279757
#
# number of rings (size 3 to 8) (size 9 to 14) (size 15 to 20)
#    0.000    2.500    0.000    3.500    0.000    6.667 
#    0.000    3.333    0.000    0.500    0.000    1.167 
#    0.000    0.000    0.000    0.000    0.000    0.000 
#
# Total GULP energy -535545.264068 kJ/mol
# GULP energy per Si atom -5578.596501 kJ/mol
# Density = 1.823815 g / cm^3
# Si number density = 18.279757 Si / 1000 Ang^3
#
#
#
# Elastic Constant Matrix: (Units=GPa)
#
#
# Indices 1 2 3 4 5 6 
#
# 1 151.7618 108.1630 19.3682 0.0000 0.0000 0.0000
# 2 108.1630 151.7516 19.3655 0.0000 0.0000 0.0000
# 3 19.3682 19.3655 12.5850 0.0000 0.0000 0.0000
# 4 0.0000 0.0000 0.0000 11.8493 0.0000 0.0000
# 5 0.0000 0.0000 0.0000 0.0000 11.8487 0.0000
# 6 0.0000 0.0000 0.0000 0.0000 0.0000 25.5738
#
#
#
# Elastic Compliance Matrix: (Units=1/GPa)
#
#
# Indices 1 2 3 4 5 6 
#
# 1 0.013966 -0.008973 -0.007685 0.000000 0.000000 0.000000
# 2 -0.008973 0.013966 -0.007680 0.000000 0.000000 0.000000
# 3 -0.007685 -0.007680 0.103104 0.000000 0.000000 0.000000
# 4 0.000000 0.000000 0.000000 0.084393 0.000000 0.000000
# 5 0.000000 0.000000 0.000000 0.000000 0.084397 0.000000
# 6 0.000000 0.000000 0.000000 0.000000 0.000000 0.039103
#
#
# Mechanical properties :
#
#
# Convention : Reuss Voigt Hill
#
# Bulk Modulus (GPa) = 12.14198 67.76576 39.95387
# Shear Modulus (GPa) = 12.04650 21.13446 16.59048
#
# Velocity S-wave (km/s) = 2.56990 3.40393 3.01589
# Velocity P-wave (km/s) = 3.93225 7.25265 5.83368
#
# Compressibility (1/GPa) = 0.08235890
#
# Stress axis : x y z
#
# Youngs Moduli (GPa) = 71.60480 71.60369 9.69894
#
# Poissons Ratio (x) = 0.64253 0.07453
# Poissons Ratio (y) = 0.64254 0.07449
# Poissons Ratio (z) = 0.55026 0.54992
#
# Static dielectric constant tensor:
#      x y z
#    x 1.620770 0.000000 0.000000 
#    y 0.000000 1.620770 0.000000 
#    z 0.000000 0.000000 1.624120 
# 
# From -- ./inp_files/2281.got.cif
#   From: 2010.05.17/outbox.cif.g08.bks.cpg/sg131_2_cif.got.tgz:2281.got - 2010.05.20 12:21:01.
