data_PCOD9566609
_publ_section_title
;
Structure prediction by ZEFSAII (Michael W. Deem and Ramdas Pophale) SiO2 
 PCOD9566609
Probable space group: P 42/M M C
;
_chemical_formula_sum "Si O2"
_cell_formula_units_Z 72
_cell_length_a 15.090709
_cell_length_b 15.090709
_cell_length_c 16.528237
_cell_angle_alpha 90.000000
_cell_angle_beta 90.000000
_cell_angle_gamma 90.000000
_cell_volume 3763.967117
_symmetry_space_group_name_H-M "P 42/M M C"
_symmetry_group_IT_number 131
_symmetry_cell_setting 'tetragonal'
loop_
_space_group_symop_operation_xyz
x,y,z
-x,-y,z
-y,x,1/2+z
y,-x,1/2+z
-x,y,-z
x,-y,-z
y,x,1/2-z
-y,-x,1/2-z
-x,-y,-z
x,y,-z
y,-x,1/2-z
-y,x,1/2-z
x,-y,z
-x,y,z
-y,-x,1/2+z
y,x,1/2+z
loop_
_atom_site_type_symbol
_atom_site_label
_atom_site_fract_x
_atom_site_fract_y
_atom_site_fract_z
Si Si1 0.397854 0.896540 0.675131
Si Si2 0.601206 0.601832 0.098494
Si Si3 0.725886 0.761911 0.404191
Si Si4 0.105848 0.595841 0.500000
Si Si5 0.710552 0.896852 0.841118
O O1 0.500000 0.868661 0.683218
O O2 0.344662 0.838653 0.611585
O O3 0.346549 0.888023 0.760300
O O4 0.396649 0.000000 0.653283
O O5 0.623148 0.500000 0.122884
O O6 0.500000 0.620453 0.124074
O O7 0.672277 0.675152 0.124338
O O8 0.602615 0.602593 0.000000
O O9 0.744345 0.756752 0.500000
O O10 0.816023 0.778525 0.353445
O O11 0.150387 0.500000 0.500000
O O12 0.123105 0.647093 0.417681
O O13 0.000000 0.585840 0.500000
O O14 0.741391 0.000000 0.847011
#
# Coordination Sequence:
#
# PCOD9566609 Si02
#       5
#    16  16  16   8  16
#     4  10  22  39  58  81 113 153 194 238 284 331
#     4   8  15  28  45  69 104 143 180 218 261 314
#     4  11  21  34  55  84 112 148 192 234 283 338
#     4   9  16  28  50  78 106 137 174 220 276 335
#     4  10  20  36  55  80 113 146 183 230 287 345
#
# _framework density 19.128754000000001
#
# number of rings (size 3 to 8) (size 9 to 14) (size 15 to 20)
#    0.000    2.333    1.111    2.667    0.000    6.222 
#    0.000    1.111    0.000    0.667    0.000    7.778 
#    0.000    0.000    0.000    0.000    0.000    0.000 
#
# Total GULP energy -401391.987573 kJ/mol
# GULP energy per Si atom -5574.888716 kJ/mol
# Density = 1.908522 g / cm^3
# Si number density = 19.128754 Si / 1000 Ang^3
#
#
#
# Elastic Constant Matrix: (Units=GPa)
#
#
# Indices 1 2 3 4 5 6 
#
# 1 77.7374 47.5605 24.9215 0.0000 0.0000 0.0000
# 2 47.5605 77.7374 24.9215 0.0000 0.0000 0.0000
# 3 24.9215 24.9215 29.4716 0.0000 0.0000 0.0000
# 4 0.0000 0.0000 0.0000 38.5808 0.0000 0.0000
# 5 0.0000 0.0000 0.0000 0.0000 38.5808 0.0000
# 6 0.0000 0.0000 0.0000 0.0000 0.0000 23.8309
#
#
#
# Elastic Compliance Matrix: (Units=1/GPa)
#
#
# Indices 1 2 3 4 5 6 
#
# 1 0.022582 -0.010556 -0.010170 0.000000 0.000000 0.000000
# 2 -0.010556 0.022582 -0.010170 0.000000 0.000000 0.000000
# 3 -0.010170 -0.010170 0.051130 0.000000 0.000000 0.000000
# 4 0.000000 0.000000 0.000000 0.025920 0.000000 0.000000
# 5 0.000000 0.000000 0.000000 0.000000 0.025920 0.000000
# 6 0.000000 0.000000 0.000000 0.000000 0.000000 0.041962
#
#
# Mechanical properties :
#
#
# Convention : Reuss Voigt Hill
#
# Bulk Modulus (GPa) = 28.98188 42.19479 35.58834
# Shear Modulus (GPa) = 18.98343 26.03468 22.50906
#
# Velocity S-wave (km/s) = 3.15366 3.69321 3.43405
# Velocity P-wave (km/s) = 5.33335 6.34764 5.86247
#
# Compressibility (1/GPa) = 0.03450431
#
# Stress axis : x y z
#
# Youngs Moduli (GPa) = 44.28271 44.28271 19.55796
#
# Poissons Ratio (x) = 0.46744 0.19890
# Poissons Ratio (y) = 0.46744 0.19890
# Poissons Ratio (z) = 0.45034 0.45034
#
# Static dielectric constant tensor:
#      x y z
#    x 1.709150 0.000000 0.000000 
#    y 0.000000 1.709150 0.000000 
#    z 0.000000 0.000000 1.649260 
# 
# From -- ./inp_files/7560.got.cif
#   From: 2010.05.17/outbox.cif.g08.bks.cpg/sg131_4_cif.got.tgz:7560.got - 2010.05.20 12:21:01.
