data_PCOD9566983
_publ_section_title
;
Structure prediction by ZEFSAII (Michael W. Deem and Ramdas Pophale) SiO2 
 PCOD9566983
Probable space group: P 42/M C M
;
_chemical_formula_sum "Si O2"
_cell_formula_units_Z 96
_cell_length_a 18.064412
_cell_length_b 18.064412
_cell_length_c 19.209150
_cell_angle_alpha 90.000000
_cell_angle_beta 90.000000
_cell_angle_gamma 90.000000
_cell_volume 6268.387089
_symmetry_space_group_name_H-M "P 42/M C M"
_symmetry_group_IT_number 132
_symmetry_cell_setting 'tetragonal'
loop_
_space_group_symop_operation_xyz
x,y,z
-y,x,1/2+z
-x,-y,z
y,-x,1/2+z
x,-y,1/2-z
-x,y,1/2-z
y,x,-z
-y,-x,-z
-x,-y,-z
y,-x,1/2-z
x,y,-z
-y,x,1/2-z
-x,y,1/2+z
x,-y,1/2+z
-y,-x,z
y,x,z
loop_
_atom_site_type_symbol
_atom_site_label
_atom_site_fract_x
_atom_site_fract_y
_atom_site_fract_z
Si Si1 0.915754 0.580739 0.223930
Si Si2 0.389023 0.792803 0.078467
Si Si3 0.200732 0.685194 0.773897
Si Si4 0.087145 0.520986 0.422537
Si Si5 0.683858 0.427199 0.709467
Si Si6 0.359280 0.481249 0.420358
O O1 0.885235 0.500000 0.250000
O O2 0.878797 0.654556 0.253159
O O3 0.904159 0.576449 0.141278
O O4 0.000000 0.580378 0.250000
O O5 0.335322 0.792223 0.144473
O O6 0.450392 0.858293 0.087724
O O7 0.428690 0.713002 0.080304
O O8 0.357528 0.801911 0.000000
O O9 0.232620 0.767381 0.763406
O O10 0.253042 0.632140 0.725926
O O11 0.103819 0.549985 0.500000
O O12 0.000000 0.500000 0.420668
O O13 0.705121 0.500000 0.750000
O O14 0.609747 0.390254 0.740126
O O15 0.662996 0.453491 0.632186
O O16 0.369631 0.506086 0.500000
O O17 0.431277 0.431277 0.401268
#
# Coordination Sequence:
#
# PCOD9566983 Si02
#       6
#    16  16  16  16  16  16
#     4  11  18  31  51  72  94 123 152 193 234 271
#     4  10  18  29  44  61  85 115 143 177 223 273
#     4  11  21  32  47  66  90 117 147 183 224 274
#     4  10  18  28  45  71  96 118 150 190 233 280
#     4  11  21  31  43  57  74 101 137 180 221 257
#     4  10  20  32  43  55  73 101 140 184 227 266
#
# _framework density 15.314944000000001
#
# number of rings (size 3 to 8) (size 9 to 14) (size 15 to 20)
#    0.000    1.500    5.000    2.500    0.000    2.500 
#    0.000    0.833    0.000    1.500    0.000    0.000 
#    0.000    0.333    0.000    0.000    0.000    0.000 
#
# Total GULP energy -534530.453291 kJ/mol
# GULP energy per Si atom -5568.025555 kJ/mol
# Density = 1.528009 g / cm^3
# Si number density = 15.314944 Si / 1000 Ang^3
#
#
#
# Elastic Constant Matrix: (Units=GPa)
#
#
# Indices 1 2 3 4 5 6 
#
# 1 39.5127 27.4720 12.2571 0.0000 0.0000 0.0000
# 2 27.4720 39.5127 12.2571 0.0000 0.0000 0.0000
# 3 12.2571 12.2571 106.2049 0.0000 0.0000 0.0000
# 4 0.0000 0.0000 0.0000 9.7743 0.0000 0.0000
# 5 0.0000 0.0000 0.0000 0.0000 9.7743 0.0000
# 6 0.0000 0.0000 0.0000 0.0000 0.0000 17.8343
#
#
#
# Elastic Compliance Matrix: (Units=1/GPa)
#
#
# Indices 1 2 3 4 5 6 
#
# 1 0.049319 -0.033732 -0.001799 0.000000 0.000000 0.000000
# 2 -0.033732 0.049319 -0.001799 0.000000 0.000000 0.000000
# 3 -0.001799 -0.001799 0.009831 0.000000 0.000000 0.000000
# 4 0.000000 0.000000 0.000000 0.102309 0.000000 0.000000
# 5 0.000000 0.000000 0.000000 0.000000 0.102309 0.000000
# 6 0.000000 0.000000 0.000000 0.000000 0.000000 0.056072
#
#
# Mechanical properties :
#
#
# Convention : Reuss Voigt Hill
#
# Bulk Modulus (GPa) = 29.57742 32.13365 30.85554
# Shear Modulus (GPa) = 10.98685 16.35953 13.67319
#
# Velocity S-wave (km/s) = 2.68133 3.27189 2.99122
# Velocity P-wave (km/s) = 5.37966 5.94147 5.66753
#
# Compressibility (1/GPa) = 0.03380957
#
# Stress axis : x y z
#
# Youngs Moduli (GPa) = 20.27598 20.27598 101.71916
#
# Poissons Ratio (x) = 0.68396 0.18298
# Poissons Ratio (y) = 0.68396 0.18298
# Poissons Ratio (z) = 0.03647 0.03647
#
# Static dielectric constant tensor:
#      x y z
#    x 1.533950 0.000000 0.000000 
#    y 0.000000 1.533950 0.000000 
#    z 0.000000 0.000000 1.579650 
# 
# From -- ./inp_files/8072.got.cif
#   From: 2010.05.17/outbox.cif.g08.bks.cpg/sg132_5_cif.got.tgz:8072.got - 2010.05.20 12:30:18.
