data_PCOD9566442
_publ_section_title
;
Structure prediction by ZEFSAII (Michael W. Deem and Ramdas Pophale) SiO2 
 PCOD9566442
Probable space group: P 42/M M C
;
_chemical_formula_sum "Si O2"
_cell_formula_units_Z 96
_cell_length_a 23.919546
_cell_length_b 23.919546
_cell_length_c 7.660206
_cell_angle_alpha 90.000000
_cell_angle_beta 90.000000
_cell_angle_gamma 90.000000
_cell_volume 4382.746117
_symmetry_space_group_name_H-M "P 42/M M C"
_symmetry_group_IT_number 131
_symmetry_cell_setting 'tetragonal'
loop_
_space_group_symop_operation_xyz
x,y,z
-x,-y,z
-y,x,1/2+z
y,-x,1/2+z
-x,y,-z
x,-y,-z
y,x,1/2-z
-y,-x,1/2-z
-x,-y,-z
x,y,-z
y,-x,1/2-z
-y,x,1/2-z
x,-y,z
-x,y,z
-y,-x,1/2+z
y,x,1/2+z
loop_
_atom_site_type_symbol
_atom_site_label
_atom_site_fract_x
_atom_site_fract_y
_atom_site_fract_z
Si Si1 0.602487 0.936701 0.288009
Si Si2 0.180663 0.560375 0.292145
Si Si3 0.347570 0.259259 0.194100
Si Si4 0.932230 0.274434 0.199113
Si Si5 0.154809 0.063456 0.710192
Si Si6 0.436344 0.351060 0.708330
O O1 0.604465 0.938158 0.500000
O O2 0.564191 0.885665 0.233762
O O3 0.665075 0.921924 0.220738
O O4 0.587773 0.000000 0.232058
O O5 0.192151 0.560182 0.500000
O O6 0.200925 0.500000 0.221895
O O7 0.209741 0.616454 0.215916
O O8 0.290800 0.290800 0.250000
O O9 0.394459 0.308083 0.199514
O O10 0.335082 0.239459 0.000000
O O11 0.915258 0.215119 0.278970
O O12 0.000000 0.270895 0.189838
O O13 0.910437 0.276578 0.000000
O O14 0.104872 0.104872 0.750000
O O15 0.160486 0.060670 0.500000
O O16 0.144460 0.000000 0.772710
O O17 0.412171 0.412171 0.750000
O O18 0.432430 0.341570 0.500000
O O19 0.500000 0.344197 0.764015
#
# Coordination Sequence:
#
# PCOD9566442 Si02
#       6
#    16  16  16  16  16  16
#     4   9  18  34  57  82 106 136 177 223 268 316
#     4  10  22  38  55  79 113 150 181 212 260 321
#     4  10  20  36  57  77 100 134 176 219 262 308
#     4   7  12  27  49  68  88 119 159 201 248 301
#     4   9  17  29  45  65  92 128 168 212 265 323
#     4  10  20  32  48  71  97 127 164 206 253 302
#
# _framework density 21.904074999999999
#
# number of rings (size 3 to 8) (size 9 to 14) (size 15 to 20)
#    0.000    2.833    0.000    4.500    0.000    5.000 
#    0.000    5.000    0.000    7.000    0.000    0.000 
#    0.000    0.000    0.000    0.000    0.000    0.000 
#
# Total GULP energy -534721.944377 kJ/mol
# GULP energy per Si atom -5570.020254 kJ/mol
# Density = 2.185422 g / cm^3
# Si number density = 21.904075 Si / 1000 Ang^3
#
#
#
# Elastic Constant Matrix: (Units=GPa)
#
#
# Indices 1 2 3 4 5 6 
#
# 1 94.5832 36.1565 -1.6101 0.0000 0.0000 0.0000
# 2 36.1565 94.5832 -1.6101 0.0000 0.0000 0.0000
# 3 -1.6101 -1.6101 46.1862 0.0000 0.0000 0.0000
# 4 0.0000 0.0000 0.0000 17.2550 0.0000 0.0000
# 5 0.0000 0.0000 0.0000 0.0000 17.2550 0.0000
# 6 0.0000 0.0000 0.0000 0.0000 0.0000 26.6867
#
#
#
# Elastic Compliance Matrix: (Units=1/GPa)
#
#
# Indices 1 2 3 4 5 6 
#
# 1 0.012385 -0.004730 0.000267 0.000000 0.000000 0.000000
# 2 -0.004730 0.012385 0.000267 0.000000 0.000000 0.000000
# 3 0.000267 0.000267 0.021670 0.000000 0.000000 0.000000
# 4 0.000000 0.000000 0.000000 0.057954 0.000000 0.000000
# 5 0.000000 0.000000 0.000000 0.000000 0.057954 0.000000
# 6 0.000000 0.000000 0.000000 0.000000 0.000000 0.037472
#
#
# Mechanical properties :
#
#
# Convention : Reuss Voigt Hill
#
# Bulk Modulus (GPa) = 26.28239 33.46947 29.87593
# Shear Modulus (GPa) = 22.63505 25.73377 24.18441
#
# Velocity S-wave (km/s) = 3.21810 3.43131 3.32641
# Velocity P-wave (km/s) = 5.08263 5.56882 5.33127
#
# Compressibility (1/GPa) = 0.03804829
#
# Stress axis : x y z
#
# Youngs Moduli (GPa) = 80.74009 80.74009 46.14658
#
# Poissons Ratio (x) = 0.38191 -0.01232
# Poissons Ratio (y) = 0.38191 -0.01232
# Poissons Ratio (z) = -0.02155 -0.02155
#
# Static dielectric constant tensor:
#      x y z
#    x 1.835890 0.000000 0.000000 
#    y 0.000000 1.835890 0.000000 
#    z 0.000000 0.000000 1.855040 
# 
# From -- ./inp_files/2274.got.cif
#   From: 2010.05.17/outbox.cif.g08.bks.cpg/sg131_2_cif.got.tgz:2274.got - 2010.05.20 12:21:01.
