data_PCOD9566013
_publ_section_title
;
Structure prediction by ZEFSAII (Michael W. Deem and Ramdas Pophale) SiO2 
 PCOD9566013
Probable space group: P 4/N C C
;
_chemical_formula_sum "Si O2"
_cell_formula_units_Z 48
_cell_length_a 14.418322
_cell_length_b 14.418322
_cell_length_c 9.696737
_cell_angle_alpha 90.000000
_cell_angle_beta 90.000000
_cell_angle_gamma 90.000000
_cell_volume 2015.835352
_symmetry_space_group_name_H-M "P 4/N C C"
_symmetry_group_IT_number 130
_symmetry_cell_setting 'tetragonal'
loop_
_space_group_symop_operation_xyz
x,y,z
1/2-y,x,z
1/2-x,1/2-y,z
y,1/2-x,z
1/2+x,-y,1/2-z
-x,1/2+y,1/2-z
1/2+y,1/2+x,1/2-z
-y,-x,1/2-z
-x,-y,-z
1/2+y,-x,-z
1/2+x,1/2+y,-z
-y,1/2+x,-z
1/2-x,y,1/2+z
x,1/2-y,1/2+z
1/2-y,1/2-x,1/2+z
y,x,1/2+z
loop_
_atom_site_type_symbol
_atom_site_label
_atom_site_fract_x
_atom_site_fract_y
_atom_site_fract_z
Si Si1 0.951901 0.265947 0.092581
Si Si2 0.950841 0.662169 0.171806
Si Si3 0.750000 0.750000 0.155134
Si Si4 0.960604 0.039397 0.750000
Si Si5 0.750000 0.250000 0.000000
O O1 0.962200 0.365565 0.165090
O O2 0.844274 0.238260 0.086376
O O3 0.012432 0.193091 0.178227
O O4 0.990748 0.280015 0.939338
O O5 0.843063 0.684638 0.157460
O O6 0.963930 0.552527 0.156936
#
# Coordination Sequence:
#
# PCOD9566013 Si02
#       5
#    16  16   4   8   4
#     4  12  28  50  77 116 151 209 258 330 392 471
#     4  12  28  49  81 114 159 203 264 325 396 473
#     4  12  28  50  80 118 160 210 260 334 396 474
#     4  12  26  49  76 113 158 204 260 320 396 470
#     4  12  28  50  80 110 156 198 268 322 396 466
#
# _framework density 23.81147
#
# number of rings (size 3 to 8) (size 9 to 14) (size 15 to 20)
#    0.000    0.000    3.333    5.000    4.667    6.000 
#    0.000    0.000    0.000    0.000    0.000    0.000 
#    0.000    0.000    0.000    0.000    0.000    0.000 
#
# Total GULP energy -268275.943044 kJ/mol
# GULP energy per Si atom -5589.082147 kJ/mol
# Density = 2.375727 g / cm^3
# Si number density = 23.811470 Si / 1000 Ang^3
#
#
#
# Elastic Constant Matrix: (Units=GPa)
#
#
# Indices 1 2 3 4 5 6 
#
# 1 129.1822 -10.5151 1.4403 0.0000 0.0000 0.0000
# 2 -10.5151 129.1868 1.4394 0.0000 0.0000 0.0000
# 3 1.4403 1.4394 55.9549 0.0000 0.0000 0.0000
# 4 0.0000 0.0000 0.0000 -14.9088 0.0000 0.0000
# 5 0.0000 0.0000 0.0000 0.0000 -14.9074 0.0000
# 6 0.0000 0.0000 0.0000 0.0000 0.0000 47.0971
#
#
#
# Elastic Compliance Matrix: (Units=1/GPa)
#
#
# Indices 1 2 3 4 5 6 
#
# 1 0.007795 0.000637 -0.000217 0.000000 0.000000 0.000000
# 2 0.000637 0.007795 -0.000217 0.000000 0.000000 0.000000
# 3 -0.000217 -0.000217 0.017883 0.000000 0.000000 0.000000
# 4 0.000000 0.000000 0.000000 -0.067075 0.000000 0.000000
# 5 0.000000 0.000000 0.000000 0.000000 -0.067081 0.000000
# 6 0.000000 0.000000 0.000000 0.000000 0.000000 0.021233
#
#
# Mechanical properties :
#
#
# Convention : Reuss Voigt Hill
#
# Bulk Modulus (GPa) = 29.51693 33.22813 31.37253
# Shear Modulus (GPa) = -72.92614 24.92012 -24.00301
#
# Velocity S-wave (km/s) = -5.54012 3.23857 -3.17842
# Velocity P-wave (km/s) = 5.33863 5.28861 0.51553
#
# Compressibility (1/GPa) = 0.03387886
#
# Stress axis : x y z
#
# Youngs Moduli (GPa) = 128.28291 128.28756 55.91999
#
# Poissons Ratio (x) = -0.08171 0.01214
# Poissons Ratio (y) = -0.08170 0.01213
# Poissons Ratio (z) = 0.02784 0.02783
#
# Static dielectric constant tensor:
#      x y z
#    x 1.838440 0.000000 0.000000 
#    y 0.000000 1.838440 0.000000 
#    z 0.000000 0.000000 1.933190 
# 
# From -- ./inp_files/1310.got.cif
#   From: 2010.05.17/outbox.cif.g08.bks.cpg/sg130_1_cif.got.tgz:1310.got - 2010.05.20 12:17:35.
