data_PCOD9566982
_publ_section_title
;
Structure prediction by ZEFSAII (Michael W. Deem and Ramdas Pophale) SiO2 
 PCOD9566982
Probable space group: P 42/M C M
;
_chemical_formula_sum "Si O2"
_cell_formula_units_Z 96
_cell_length_a 17.805733
_cell_length_b 17.805733
_cell_length_c 14.275161
_cell_angle_alpha 90.000000
_cell_angle_beta 90.000000
_cell_angle_gamma 90.000000
_cell_volume 4525.855967
_symmetry_space_group_name_H-M "P 42/M C M"
_symmetry_group_IT_number 132
_symmetry_cell_setting 'tetragonal'
loop_
_space_group_symop_operation_xyz
x,y,z
-y,x,1/2+z
-x,-y,z
y,-x,1/2+z
x,-y,1/2-z
-x,y,1/2-z
y,x,-z
-y,-x,-z
-x,-y,-z
y,-x,1/2-z
x,y,-z
-y,x,1/2-z
-x,y,1/2+z
x,-y,1/2+z
-y,-x,z
y,x,z
loop_
_atom_site_type_symbol
_atom_site_label
_atom_site_fract_x
_atom_site_fract_y
_atom_site_fract_z
Si Si1 0.001982 0.880233 0.886259
Si Si2 0.790943 0.477263 0.891245
Si Si3 0.936759 0.438316 0.614072
Si Si4 0.498880 0.380086 0.362376
Si Si5 0.287246 0.014266 0.385837
Si Si6 0.309560 0.812008 0.114440
O O1 0.936911 0.936911 0.855520
O O2 0.989575 0.795461 0.855640
O O3 0.000923 0.879685 0.000000
O O4 0.081541 0.918460 0.860538
O O5 0.855656 0.531917 0.853144
O O6 0.706228 0.506474 0.888764
O O7 0.790337 0.392885 0.851446
O O8 0.812360 0.467219 0.000000
O O9 0.935565 0.434036 0.500000
O O10 0.000000 0.500000 0.638072
O O11 0.963683 0.356679 0.647299
O O12 0.500000 0.382018 0.250000
O O13 0.566671 0.433330 0.394568
O O14 0.421242 0.421242 0.392181
O O15 0.288818 0.012182 0.500000
O O16 0.296503 0.101524 0.360180
O O17 0.245747 0.754254 0.147662
O O18 0.308007 0.808351 0.000000
#
# Coordination Sequence:
#
# PCOD9566982 Si02
#       6
#    16  16  16  16  16  16
#     4   8  13  20  29  42  63  95 136 179 217 250
#     4  10  18  28  45  70  96 119 149 190 232 268
#     4   9  15  25  38  56  85 123 153 174 214 271
#     4   9  19  36  54  69  89 121 156 187 228 285
#     4   9  14  21  33  49  73 109 147 176 211 262
#     4   9  15  21  33  57  85 109 140 185 228 263
#
# _framework density 21.211455999999998
#
# number of rings (size 3 to 8) (size 9 to 14) (size 15 to 20)
#    0.000    3.000    1.667    2.000    0.000    3.333 
#    0.000    1.667    0.000    3.500    0.000    0.000 
#    0.000    0.000    0.000    0.000    0.000    0.167 
#
# Total GULP energy -535765.124678 kJ/mol
# GULP energy per Si atom -5580.886715 kJ/mol
# Density = 2.116318 g / cm^3
# Si number density = 21.211456 Si / 1000 Ang^3
#
#
#
# Elastic Constant Matrix: (Units=GPa)
#
#
# Indices 1 2 3 4 5 6 
#
# 1 170.5249 116.3173 -3.8607 0.0000 0.0000 0.0000
# 2 116.3173 170.5249 -3.8607 0.0000 0.0000 0.0000
# 3 -3.8607 -3.8607 69.0566 0.0000 0.0000 0.0000
# 4 0.0000 0.0000 0.0000 3.8383 0.0000 0.0000
# 5 0.0000 0.0000 0.0000 0.0000 3.8383 0.0000
# 6 0.0000 0.0000 0.0000 0.0000 0.0000 35.0964
#
#
#
# Elastic Compliance Matrix: (Units=1/GPa)
#
#
# Indices 1 2 3 4 5 6 
#
# 1 0.010970 -0.007478 0.000195 0.000000 0.000000 0.000000
# 2 -0.007478 0.010970 0.000195 0.000000 0.000000 0.000000
# 3 0.000195 0.000195 0.014503 0.000000 0.000000 0.000000
# 4 0.000000 0.000000 0.000000 0.260534 0.000000 0.000000
# 5 0.000000 0.000000 0.000000 0.000000 0.260534 0.000000
# 6 0.000000 0.000000 0.000000 0.000000 0.000000 0.028493
#
#
# Mechanical properties :
#
#
# Convention : Reuss Voigt Hill
#
# Bulk Modulus (GPa) = 44.91059 69.69981 57.30520
# Shear Modulus (GPa) = 8.22909 28.65528 18.44218
#
# Velocity S-wave (km/s) = 1.97179 3.67949 2.95183
# Velocity P-wave (km/s) = 5.13836 7.14020 6.22033
#
# Compressibility (1/GPa) = 0.02226646
#
# Stress axis : x y z
#
# Youngs Moduli (GPa) = 91.16154 91.16154 68.95268
#
# Poissons Ratio (x) = 0.68171 -0.01346
# Poissons Ratio (y) = 0.68171 -0.01346
# Poissons Ratio (z) = -0.01779 -0.01779
#
# Static dielectric constant tensor:
#      x y z
#    x 1.747500 0.000000 0.000000 
#    y 0.000000 1.747500 0.000000 
#    z 0.000000 0.000000 1.816580 
# 
# From -- ./inp_files/6483.got.cif
#   From: 2010.05.17/outbox.cif.g08.bks.cpg/sg132_4_cif.got.tgz:6483.got - 2010.05.20 12:30:18.
