data_PCOD9566952
_publ_section_title
;
Structure prediction by ZEFSAII (Michael W. Deem and Ramdas Pophale) SiO2 
 PCOD9566952
Probable space group: P 42/M C M
;
_chemical_formula_sum "Si O2"
_cell_formula_units_Z 112
_cell_length_a 20.522502
_cell_length_b 20.522502
_cell_length_c 15.272812
_cell_angle_alpha 90.000000
_cell_angle_beta 90.000000
_cell_angle_gamma 90.000000
_cell_volume 6432.497398
_symmetry_space_group_name_H-M "P 42/M C M"
_symmetry_group_IT_number 132
_symmetry_cell_setting 'tetragonal'
loop_
_space_group_symop_operation_xyz
x,y,z
-y,x,1/2+z
-x,-y,z
y,-x,1/2+z
x,-y,1/2-z
-x,y,1/2-z
y,x,-z
-y,-x,-z
-x,-y,-z
y,-x,1/2-z
x,y,-z
-y,x,1/2-z
-x,y,1/2+z
x,-y,1/2+z
-y,-x,z
y,x,z
loop_
_atom_site_type_symbol
_atom_site_label
_atom_site_fract_x
_atom_site_fract_y
_atom_site_fract_z
Si Si1 0.248319 0.043668 0.394182
Si Si2 0.181695 0.919613 0.395439
Si Si3 0.001168 0.606975 0.104980
Si Si4 0.429684 0.855325 0.148285
Si Si5 0.709178 0.187938 0.362343
Si Si6 0.287635 0.184636 0.652204
Si Si7 0.854468 0.429571 0.355094
O O1 0.246628 0.046068 0.500000
O O2 0.317878 0.012187 0.368853
O O3 0.248232 0.117471 0.362117
O O4 0.194913 0.992210 0.362159
O O5 0.172198 0.925093 0.500000
O O6 0.121540 0.878461 0.357856
O O7 0.245824 0.874500 0.383829
O O8 0.066370 0.572334 0.138040
O O9 0.932286 0.580660 0.136687
O O10 0.001009 0.602840 0.000000
O O11 0.360587 0.827111 0.114305
O O12 0.499408 0.834579 0.109466
O O13 0.430441 0.840109 0.251441
O O14 0.749119 0.250882 0.394426
O O15 0.706243 0.192119 0.256852
O O16 0.635534 0.177781 0.393995
O O17 0.245696 0.245696 0.618292
#
# Coordination Sequence:
#
# PCOD9566952 Si02
#       7
#    16  16  16  16  16  16  16
#     4   9  17  28  42  61  80 105 139 168 203 244
#     4   9  16  27  42  60  83 107 133 166 202 245
#     4  10  18  27  39  59  85 111 138 166 192 229
#     4   9  19  29  40  58  80 109 139 163 199 244
#     4   9  17  28  43  62  81 105 137 167 200 240
#     4   9  18  31  44  58  78 103 137 177 206 237
#     4  10  17  28  42  57  83 111 133 163 201 240
#
# _framework density 17.411587999999998
#
# number of rings (size 3 to 8) (size 9 to 14) (size 15 to 20)
#    0.000    2.714    1.429    0.857    0.000    3.143 
#    0.000    0.000    0.000    0.429    0.000    2.000 
#    0.000    4.000    0.000    8.143    0.000    0.000 
#
# Total GULP energy -624048.918383 kJ/mol
# GULP energy per Si atom -5571.865343 kJ/mol
# Density = 1.737196 g / cm^3
# Si number density = 17.411588 Si / 1000 Ang^3
#
#
#
# Elastic Constant Matrix: (Units=GPa)
#
#
# Indices 1 2 3 4 5 6 
#
# 1 103.0180 73.4304 4.6625 0.0000 0.0000 0.0000
# 2 73.4304 103.0180 4.6625 0.0000 0.0000 0.0000
# 3 4.6625 4.6625 28.3680 0.0000 0.0000 0.0000
# 4 0.0000 0.0000 0.0000 -6.1130 0.0000 0.0000
# 5 0.0000 0.0000 0.0000 0.0000 -6.1130 0.0000
# 6 0.0000 0.0000 0.0000 0.0000 0.0000 31.8299
#
#
#
# Elastic Compliance Matrix: (Units=1/GPa)
#
#
# Indices 1 2 3 4 5 6 
#
# 1 0.019757 -0.014040 -0.000940 0.000000 0.000000 0.000000
# 2 -0.014040 0.019757 -0.000940 0.000000 0.000000 0.000000
# 3 -0.000940 -0.000940 0.035560 0.000000 0.000000 0.000000
# 4 0.000000 0.000000 0.000000 -0.163586 0.000000 0.000000
# 5 0.000000 0.000000 0.000000 0.000000 -0.163586 0.000000
# 6 0.000000 0.000000 0.000000 0.000000 0.000000 0.031417
#
#
# Mechanical properties :
#
#
# Convention : Reuss Voigt Hill
#
# Bulk Modulus (GPa) = 23.12919 44.43495 33.78207
# Shear Modulus (GPa) = -28.66482 14.03069 -7.31707
#
# Velocity S-wave (km/s) = -4.06187 2.84179 -2.05220
# Velocity P-wave (km/s) = 2.94717 6.02855 3.71871
#
# Compressibility (1/GPa) = 0.04323541
#
# Stress axis : x y z
#
# Youngs Moduli (GPa) = 50.61371 50.61371 28.12159
#
# Poissons Ratio (x) = 0.71064 0.02642
# Poissons Ratio (y) = 0.71064 0.02642
# Poissons Ratio (z) = 0.04756 0.04756
#
# Static dielectric constant tensor:
#      x y z
#    x 1.626670 0.000000 0.000000 
#    y 0.000000 1.626670 0.000000 
#    z 0.000000 0.000000 1.637990 
# 
# From -- ./inp_files/6791.got.cif
#   From: 2010.05.17/outbox.cif.g08.bks.cpg/sg132_4_cif.got.tgz:6791.got - 2010.05.20 12:30:18.
