data_PCOD9566038
_publ_section_title
;
Structure prediction by ZEFSAII (Michael W. Deem and Ramdas Pophale) SiO2 
 PCOD9566038
Probable space group: P 42/M M C
;
_chemical_formula_sum "Si O2"
_cell_formula_units_Z 72
_cell_length_a 20.464067
_cell_length_b 20.464067
_cell_length_c 14.675076
_cell_angle_alpha 90.000000
_cell_angle_beta 90.000000
_cell_angle_gamma 90.000000
_cell_volume 6145.599537
_symmetry_space_group_name_H-M "P 42/M M C"
_symmetry_group_IT_number 131
_symmetry_cell_setting 'tetragonal'
loop_
_space_group_symop_operation_xyz
x,y,z
-x,-y,z
-y,x,1/2+z
y,-x,1/2+z
-x,y,-z
x,-y,-z
y,x,1/2-z
-y,-x,1/2-z
-x,-y,-z
x,y,-z
y,-x,1/2-z
-y,x,1/2-z
x,-y,z
-x,y,z
-y,-x,1/2+z
y,x,1/2+z
loop_
_atom_site_type_symbol
_atom_site_label
_atom_site_fract_x
_atom_site_fract_y
_atom_site_fract_z
Si Si1 0.500000 0.425036 0.388803
Si Si2 0.575098 0.743730 0.103040
Si Si3 0.666807 0.380992 0.107687
Si Si4 0.577591 0.796778 0.294543
Si Si5 0.420712 0.927459 0.393685
O O1 0.500000 0.500000 0.357915
O O2 0.500000 0.427123 0.500000
O O3 0.562870 0.383357 0.360815
O O4 0.500000 0.717688 0.109992
O O5 0.627401 0.686306 0.115830
O O6 0.583414 0.793795 0.185499
O O7 0.582031 0.769683 0.000000
O O8 0.734038 0.386805 0.162352
O O9 0.680772 0.391767 0.000000
O O10 0.500000 0.789298 0.316909
O O11 0.601109 0.865137 0.336059
O O12 0.403368 0.918918 0.500000
O O13 0.500000 0.928029 0.389372
O O14 0.398599 0.000000 0.364178
#
# Coordination Sequence:
#
# PCOD9566038 Si02
#       5
#     8  16  16  16  16
#     4   9  16  24  34  46  62  86 112 143 182 216
#     4   9  18  29  37  44  61  90 119 145 171 199
#     4  10  17  25  36  50  66  84 111 145 180 213
#     4  10  17  25  38  51  66  82 107 138 170 213
#     4   8  14  24  38  56  73  83  91 114 163 221
#
# _framework density 11.715699000000001
#
# number of rings (size 3 to 8) (size 9 to 14) (size 15 to 20)
#    0.000    2.778    1.111    2.667    0.000    3.556 
#    0.000    0.000    0.000    0.667    0.000    4.667 
#    0.000    0.000    0.000    0.000    0.000    0.000 
#
# Total GULP energy -400913.408966 kJ/mol
# GULP energy per Si atom -5568.241791 kJ/mol
# Density = 1.168903 g / cm^3
# Si number density = 11.715699 Si / 1000 Ang^3
#
#
#
# Elastic Constant Matrix: (Units=GPa)
#
#
# Indices 1 2 3 4 5 6 
#
# 1 61.9281 16.4438 36.9327 0.0000 0.0000 0.0000
# 2 16.4438 61.9281 36.9327 0.0000 0.0000 0.0000
# 3 36.9327 36.9327 67.1200 0.0000 0.0000 0.0000
# 4 0.0000 0.0000 0.0000 10.8381 0.0000 0.0000
# 5 0.0000 0.0000 0.0000 0.0000 10.8381 0.0000
# 6 0.0000 0.0000 0.0000 0.0000 0.0000 3.0450
#
#
#
# Elastic Compliance Matrix: (Units=1/GPa)
#
#
# Indices 1 2 3 4 5 6 
#
# 1 0.024246 0.002260 -0.014585 0.000000 0.000000 0.000000
# 2 0.002260 0.024246 -0.014585 0.000000 0.000000 0.000000
# 3 -0.014585 -0.014585 0.030949 0.000000 0.000000 0.000000
# 4 0.000000 0.000000 0.000000 0.092267 0.000000 0.000000
# 5 0.000000 0.000000 0.000000 0.000000 0.092267 0.000000
# 6 0.000000 0.000000 0.000000 0.000000 0.000000 0.328405
#
#
# Mechanical properties :
#
#
# Convention : Reuss Voigt Hill
#
# Bulk Modulus (GPa) = 39.02948 41.28832 40.15890
# Shear Modulus (GPa) = 7.63663 11.65539 9.64601
#
# Velocity S-wave (km/s) = 2.55586 3.15755 2.87250
# Velocity P-wave (km/s) = 6.48815 6.97222 6.73454
#
# Compressibility (1/GPa) = 0.02562166
#
# Stress axis : x y z
#
# Youngs Moduli (GPa) = 41.24437 41.24437 32.31091
#
# Poissons Ratio (x) = -0.09322 0.47125
# Poissons Ratio (y) = -0.09322 0.47125
# Poissons Ratio (z) = 0.60154 0.60154
#
# Static dielectric constant tensor:
#      x y z
#    x 1.362560 0.000000 0.000000 
#    y 0.000000 1.362560 0.000000 
#    z 0.000000 0.000000 1.415170 
# 
# From -- ./inp_files/7722.got.cif
#   From: 2010.05.17/outbox.cif.g08.bks.cpg/sg131_4_cif.got.tgz:7722.got - 2010.05.20 12:21:01.
