data_PCOD9566310
_publ_section_title
;
Structure prediction by ZEFSAII (Michael W. Deem and Ramdas Pophale) SiO2 
 PCOD9566310
Probable space group: P 42/M M C
;
_chemical_formula_sum "Si O2"
_cell_formula_units_Z 120
_cell_length_a 20.561104
_cell_length_b 20.561104
_cell_length_c 15.993979
_cell_angle_alpha 90.000000
_cell_angle_beta 90.000000
_cell_angle_gamma 90.000000
_cell_volume 6761.598531
_symmetry_space_group_name_H-M "P 42/M M C"
_symmetry_group_IT_number 131
_symmetry_cell_setting 'tetragonal'
loop_
_space_group_symop_operation_xyz
x,y,z
-x,-y,z
-y,x,1/2+z
y,-x,1/2+z
-x,y,-z
x,-y,-z
y,x,1/2-z
-y,-x,1/2-z
-x,-y,-z
x,y,-z
y,-x,1/2-z
-y,x,1/2-z
x,-y,z
-x,y,z
-y,-x,1/2+z
y,x,1/2+z
loop_
_atom_site_type_symbol
_atom_site_label
_atom_site_fract_x
_atom_site_fract_y
_atom_site_fract_z
Si Si1 0.692093 0.427779 0.900140
Si Si2 0.155036 0.761757 0.592951
Si Si3 0.072807 0.182516 0.261190
Si Si4 0.077441 0.500000 0.898834
Si Si5 0.109416 0.243292 0.909432
Si Si6 0.334205 0.762177 0.196695
Si Si7 0.576102 0.668135 0.100831
Si Si8 0.377676 0.165312 0.648503
O O1 0.692165 0.500000 0.863092
O O2 0.627528 0.388558 0.875850
O O3 0.761361 0.395089 0.881088
O O4 0.688879 0.432402 0.000000
O O5 0.129776 0.747735 0.500000
O O6 0.101407 0.773313 0.664199
O O7 0.195838 0.828416 0.589742
O O8 0.206786 0.708652 0.623567
O O9 0.122044 0.122044 0.250000
O O10 0.072800 0.222448 0.174397
O O11 0.000000 0.160767 0.280715
O O12 0.116589 0.437513 0.864610
O O13 0.000000 0.500000 0.878934
O O14 0.083347 0.500000 0.000000
O O15 0.136024 0.316118 0.899231
O O16 0.076441 0.236767 0.000000
O O17 0.287990 0.712011 0.250000
O O18 0.396189 0.726889 0.156479
O O19 0.355995 0.820529 0.256886
O O20 0.500000 0.654343 0.116536
O O21 0.582636 0.679894 0.000000
#
# Coordination Sequence:
#
# PCOD9566310 Si02
#       8
#    16  16  16   8  16  16  16  16
#     4  10  19  32  53  79 108 151 202 244 291 358
#     4  10  19  36  59  85 116 148 189 246 302 345
#     4  10  21  38  57  86 122 156 198 238 282 346
#     4  11  26  44  58  82 120 158 196 235 290 374
#     4  10  19  33  58  87 116 148 183 233 292 345
#     4  12  20  35  56  88 117 144 193 250 306 364
#     4  10  22  37  53  78 115 156 201 256 309 353
#     4  12  21  35  60  85 116 150 191 239 293 361
#
# _framework density 17.747281999999998
#
# number of rings (size 3 to 8) (size 9 to 14) (size 15 to 20)
#    0.000    1.400    4.667    2.000    0.933    3.600 
#    0.000    1.333    0.000    0.000    0.000    3.733 
#    0.000    1.067    0.000    0.000    0.000    0.000 
#
# Total GULP energy -669129.245265 kJ/mol
# GULP energy per Si atom -5576.077044 kJ/mol
# Density = 1.770689 g / cm^3
# Si number density = 17.747282 Si / 1000 Ang^3
#
#
#
# Elastic Constant Matrix: (Units=GPa)
#
#
# Indices 1 2 3 4 5 6 
#
# 1 93.7107 40.2600 38.9783 0.0000 0.0000 0.0000
# 2 40.2600 93.7103 38.9783 0.0000 0.0000 0.0000
# 3 38.9783 38.9783 92.5846 0.0000 0.0000 0.0000
# 4 0.0000 0.0000 0.0000 -0.2191 0.0000 0.0000
# 5 0.0000 0.0000 0.0000 0.0000 -0.2174 0.0000
# 6 0.0000 0.0000 0.0000 0.0000 0.0000 8.6183
#
#
#
# Elastic Compliance Matrix: (Units=1/GPa)
#
#
# Indices 1 2 3 4 5 6 
#
# 1 0.014298 -0.004411 -0.004162 0.000000 0.000000 0.000000
# 2 -0.004411 0.014298 -0.004162 0.000000 0.000000 0.000000
# 3 -0.004162 -0.004162 0.014305 0.000000 0.000000 0.000000
# 4 0.000000 0.000000 0.000000 -4.563945 0.000000 0.000000
# 5 0.000000 0.000000 0.000000 0.000000 -4.600032 0.000000
# 6 0.000000 0.000000 0.000000 0.000000 0.000000 0.116032
#
#
# Mechanical properties :
#
#
# Convention : Reuss Voigt Hill
#
# Bulk Modulus (GPa) = 57.37422 57.38211 57.37816
# Shear Modulus (GPa) = -0.55718 12.42229 5.93255
#
# Velocity S-wave (km/s) = -0.56092 2.64854 1.83031
# Velocity P-wave (km/s) = 5.65501 6.46189 6.07187
#
# Compressibility (1/GPa) = 0.01742943
#
# Stress axis : x y z
#
# Youngs Moduli (GPa) = 69.94207 69.94180 69.90337
#
# Poissons Ratio (x) = 0.30854 0.29095
# Poissons Ratio (y) = 0.30854 0.29095
# Poissons Ratio (z) = 0.29111 0.29111
#
# Static dielectric constant tensor:
#      x y z
#    x 1.596920 0.000000 0.000000 
#    y 0.000000 1.596920 0.000000 
#    z 0.000000 0.000000 1.651700 
# 
# From -- ./inp_files/6331.got.cif
#   From: 2010.05.17/outbox.cif.g08.bks.cpg/sg131_4_cif.got.tgz:6331.got - 2010.05.20 12:21:01.
