data_PCOD9566042
_publ_section_title
;
Structure prediction by ZEFSAII (Michael W. Deem and Ramdas Pophale) SiO2 
 PCOD9566042
Probable space group: P 42/M M C
;
_chemical_formula_sum "Si O2"
_cell_formula_units_Z 80
_cell_length_a 17.601750
_cell_length_b 17.601750
_cell_length_c 18.280608
_cell_angle_alpha 90.000000
_cell_angle_beta 90.000000
_cell_angle_gamma 90.000000
_cell_volume 5663.727276
_symmetry_space_group_name_H-M "P 42/M M C"
_symmetry_group_IT_number 131
_symmetry_cell_setting 'tetragonal'
loop_
_space_group_symop_operation_xyz
x,y,z
-x,-y,z
-y,x,1/2+z
y,-x,1/2+z
-x,y,-z
x,-y,-z
y,x,1/2-z
-y,-x,1/2-z
-x,-y,-z
x,y,-z
y,-x,1/2-z
-y,x,1/2-z
x,-y,z
-x,y,z
-y,-x,1/2+z
y,x,1/2+z
loop_
_atom_site_type_symbol
_atom_site_label
_atom_site_fract_x
_atom_site_fract_y
_atom_site_fract_z
Si Si1 0.090527 0.332070 0.417011
Si Si2 0.584518 0.908156 0.229080
Si Si3 0.308384 0.092072 0.361075
Si Si4 0.844773 0.833896 0.413028
Si Si5 0.586991 0.908220 0.500000
Si Si6 0.088269 0.000000 0.088737
O O1 0.101458 0.360169 0.500000
O O2 0.109618 0.390953 0.353488
O O3 0.139043 0.255629 0.406995
O O4 0.000000 0.312721 0.410378
O O5 0.500000 0.879596 0.246625
O O6 0.648626 0.885197 0.286850
O O7 0.581596 0.000000 0.234444
O O8 0.228714 0.133881 0.372773
O O9 0.364839 0.111891 0.428136
O O10 0.296900 0.000000 0.361932
O O11 0.835587 0.851516 0.500000
O O12 0.922194 0.873519 0.385867
O O13 0.500000 0.879776 0.500000
O O14 0.582391 0.000000 0.500000
O O15 0.000000 0.000000 0.106631
O O16 0.096513 0.000000 0.000000
#
# Coordination Sequence:
#
# PCOD9566042 Si02
#       6
#    16  16  16  16   8   8
#     4   9  17  30  46  62  81 110 144 184 228 265
#     4   9  18  31  45  62  81 103 138 187 236 277
#     4  10  18  27  41  62  86 114 148 188 224 267
#     4  10  17  27  41  61  87 115 153 189 221 259
#     4   9  16  26  40  57  81 113 148 186 225 263
#     4   9  16  24  38  58  83 117 154 196 228 249
#
# _framework density 14.124974
#
# number of rings (size 3 to 8) (size 9 to 14) (size 15 to 20)
#    0.000    2.600    2.000    1.200    0.000    4.400 
#    0.000    2.000    0.000    0.000    0.000    0.000 
#    0.000    0.000    0.000    0.000    0.000   18.000 
#
# Total GULP energy -445586.829294 kJ/mol
# GULP energy per Si atom -5569.835366 kJ/mol
# Density = 1.409282 g / cm^3
# Si number density = 14.124974 Si / 1000 Ang^3
#
#
#
# Elastic Constant Matrix: (Units=GPa)
#
#
# Indices 1 2 3 4 5 6 
#
# 1 59.9725 22.7234 26.0047 0.0000 0.0000 0.0000
# 2 22.7234 59.9725 26.0047 0.0000 0.0000 0.0000
# 3 26.0047 26.0047 63.4618 0.0000 0.0000 0.0000
# 4 0.0000 0.0000 0.0000 13.7123 0.0000 0.0000
# 5 0.0000 0.0000 0.0000 0.0000 13.7123 0.0000
# 6 0.0000 0.0000 0.0000 0.0000 0.0000 4.9690
#
#
#
# Elastic Compliance Matrix: (Units=1/GPa)
#
#
# Indices 1 2 3 4 5 6 
#
# 1 0.021569 -0.005278 -0.006675 0.000000 0.000000 0.000000
# 2 -0.005278 0.021569 -0.006675 0.000000 0.000000 0.000000
# 3 -0.006675 -0.006675 0.021228 0.000000 0.000000 0.000000
# 4 0.000000 0.000000 0.000000 0.072927 0.000000 0.000000
# 5 0.000000 0.000000 0.000000 0.000000 0.072927 0.000000
# 6 0.000000 0.000000 0.000000 0.000000 0.000000 0.201248
#
#
# Mechanical properties :
#
#
# Convention : Reuss Voigt Hill
#
# Bulk Modulus (GPa) = 36.88935 36.98581 36.93758
# Shear Modulus (GPa) = 10.92271 13.72364 12.32317
#
# Velocity S-wave (km/s) = 2.78383 3.12041 2.95691
# Velocity P-wave (km/s) = 6.04202 6.26292 6.15346
#
# Compressibility (1/GPa) = 0.02710810
#
# Stress axis : x y z
#
# Youngs Moduli (GPa) = 46.36370 46.36370 47.10691
#
# Poissons Ratio (x) = 0.24470 0.31446
# Poissons Ratio (y) = 0.24470 0.31446
# Poissons Ratio (z) = 0.30950 0.30950
#
# Static dielectric constant tensor:
#      x y z
#    x 1.448810 0.000000 0.000000 
#    y 0.000000 1.448810 0.000000 
#    z 0.000000 0.000000 1.493840 
# 
# From -- ./inp_files/7864.got.cif
#   From: 2010.05.17/outbox.cif.g08.bks.cpg/sg131_4_cif.got.tgz:7864.got - 2010.05.20 12:21:01.
