data_PCOD9566240
_publ_section_title
;
Structure prediction by ZEFSAII (Michael W. Deem and Ramdas Pophale) SiO2 
 PCOD9566240
Probable space group: P 42/M M C
;
_chemical_formula_sum "Si O2"
_cell_formula_units_Z 96
_cell_length_a 18.502847
_cell_length_b 18.502847
_cell_length_c 17.030669
_cell_angle_alpha 90.000000
_cell_angle_beta 90.000000
_cell_angle_gamma 90.000000
_cell_volume 5830.540597
_symmetry_space_group_name_H-M "P 42/M M C"
_symmetry_group_IT_number 131
_symmetry_cell_setting 'tetragonal'
loop_
_space_group_symop_operation_xyz
x,y,z
-x,-y,z
-y,x,1/2+z
y,-x,1/2+z
-x,y,-z
x,-y,-z
y,x,1/2-z
-y,-x,1/2-z
-x,-y,-z
x,y,-z
y,-x,1/2-z
-y,x,1/2-z
x,-y,z
-x,y,z
-y,-x,1/2+z
y,x,1/2+z
loop_
_atom_site_type_symbol
_atom_site_label
_atom_site_fract_x
_atom_site_fract_y
_atom_site_fract_z
Si Si1 0.000000 0.645185 0.405207
Si Si2 0.584358 0.844306 0.905740
Si Si3 0.717436 0.083044 0.308457
Si Si4 0.580160 0.912258 0.590632
Si Si5 0.207686 0.714744 0.315731
Si Si6 0.184358 0.000000 0.094790
Si Si7 0.852393 0.161243 0.906385
O O1 0.073754 0.605992 0.380620
O O2 0.000000 0.730234 0.386704
O O3 0.000000 0.640917 0.500000
O O4 0.500000 0.832149 0.891137
O O5 0.637780 0.792635 0.857753
O O6 0.597009 0.838657 0.000000
O O7 0.647844 0.110143 0.357514
O O8 0.724263 0.134568 0.234617
O O9 0.789407 0.090314 0.360990
O O10 0.705237 0.000000 0.287747
O O11 0.589000 0.889532 0.500000
O O12 0.500000 0.889594 0.618105
O O13 0.580646 0.000000 0.590426
O O14 0.268192 0.731808 0.250000
O O15 0.199169 0.776553 0.381899
O O16 0.150259 0.923151 0.119541
O O17 0.179978 0.000000 0.000000
O O18 0.862237 0.163717 0.000000
#
# Coordination Sequence:
#
# PCOD9566240 Si02
#       7
#     8  16  16  16  16   8  16
#     4   9  15  26  45  69  96 122 155 200 244 291
#     4  10  19  31  50  76 103 132 169 209 247 292
#     4  10  21  32  45  67  93 119 155 204 253 298
#     4   8  14  27  46  64  84 113 148 185 227 277
#     4  10  21  33  46  68  98 133 161 191 241 304
#     4   9  16  27  49  69  83 113 155 201 250 297
#     4  10  19  33  51  66  83 117 164 208 249 296
#
# _framework density 16.465025000000001
#
# number of rings (size 3 to 8) (size 9 to 14) (size 15 to 20)
#    0.000    2.500    1.667    1.750    2.333    2.667 
#    0.000    0.417    0.000    1.500    0.000    0.000 
#    0.000    0.333    0.000    1.833    0.000    1.833 
#
# Total GULP energy -535017.018314 kJ/mol
# GULP energy per Si atom -5573.093941 kJ/mol
# Density = 1.642755 g / cm^3
# Si number density = 16.465025 Si / 1000 Ang^3
#
#
#
# Elastic Constant Matrix: (Units=GPa)
#
#
# Indices 1 2 3 4 5 6 
#
# 1 61.8246 14.6841 19.9745 0.0000 0.0000 0.0000
# 2 14.6841 61.8250 19.9745 0.0000 0.0000 0.0000
# 3 19.9745 19.9745 48.7167 0.0000 0.0000 0.0000
# 4 0.0000 0.0000 0.0000 20.9767 0.0000 0.0000
# 5 0.0000 0.0000 0.0000 0.0000 20.9769 0.0000
# 6 0.0000 0.0000 0.0000 0.0000 0.0000 7.3923
#
#
#
# Elastic Compliance Matrix: (Units=1/GPa)
#
#
# Indices 1 2 3 4 5 6 
#
# 1 0.018922 -0.002291 -0.006819 0.000000 0.000000 0.000000
# 2 -0.002291 0.018922 -0.006819 0.000000 0.000000 0.000000
# 3 -0.006819 -0.006819 0.026119 0.000000 0.000000 0.000000
# 4 0.000000 0.000000 0.000000 0.047672 0.000000 0.000000
# 5 0.000000 0.000000 0.000000 0.000000 0.047671 0.000000
# 6 0.000000 0.000000 0.000000 0.000000 0.000000 0.135276
#
#
# Mechanical properties :
#
#
# Convention : Reuss Voigt Hill
#
# Bulk Modulus (GPa) = 31.14811 31.29252 31.22031
# Shear Modulus (GPa) = 14.83060 17.71806 16.27433
#
# Velocity S-wave (km/s) = 3.00448 3.28396 3.14732
# Velocity P-wave (km/s) = 5.56728 5.78151 5.67541
#
# Compressibility (1/GPa) = 0.03210468
#
# Stress axis : x y z
#
# Youngs Moduli (GPa) = 52.84840 52.84881 38.28697
#
# Poissons Ratio (x) = 0.12108 0.26108
# Poissons Ratio (y) = 0.12108 0.26107
# Poissons Ratio (z) = 0.36037 0.36037
#
# Static dielectric constant tensor:
#      x y z
#    x 1.563900 0.000000 0.000000 
#    y 0.000000 1.563900 0.000000 
#    z 0.000000 0.000000 1.592230 
# 
# From -- ./inp_files/8008.got.cif
#   From: 2010.05.17/outbox.cif.g08.bks.cpg/sg131_5_cif.got.tgz:8008.got - 2010.05.20 12:21:01.
