data_PCOD9566346
_publ_section_title
;
Structure prediction by ZEFSAII (Michael W. Deem and Ramdas Pophale) SiO2 
 PCOD9566346
Probable space group: P 42/M M C
;
_chemical_formula_sum "Si O2"
_cell_formula_units_Z 120
_cell_length_a 17.697436
_cell_length_b 17.697436
_cell_length_c 20.126596
_cell_angle_alpha 90.000000
_cell_angle_beta 90.000000
_cell_angle_gamma 90.000000
_cell_volume 6303.634591
_symmetry_space_group_name_H-M "P 42/M M C"
_symmetry_group_IT_number 131
_symmetry_cell_setting 'tetragonal'
loop_
_space_group_symop_operation_xyz
x,y,z
-x,-y,z
-y,x,1/2+z
y,-x,1/2+z
-x,y,-z
x,-y,-z
y,x,1/2-z
-y,-x,1/2-z
-x,-y,-z
x,y,-z
y,-x,1/2-z
-y,x,1/2-z
x,-y,z
-x,y,z
-y,-x,1/2+z
y,x,1/2+z
loop_
_atom_site_type_symbol
_atom_site_label
_atom_site_fract_x
_atom_site_fract_y
_atom_site_fract_z
Si Si1 0.415329 0.752287 0.716916
Si Si2 0.500000 0.410383 0.075732
Si Si3 0.196774 0.912135 0.789688
Si Si4 0.676043 0.368145 0.647687
Si Si5 0.089964 0.731726 0.424313
Si Si6 0.413478 0.909283 0.426972
Si Si7 0.413931 0.173958 0.920608
Si Si8 0.356190 0.086956 0.285843
O O1 0.500000 0.744439 0.691578
O O2 0.357988 0.714110 0.664206
O O3 0.404125 0.702545 0.782706
O O4 0.401035 0.839076 0.738235
O O5 0.500000 0.500000 0.073636
O O6 0.425290 0.382005 0.113252
O O7 0.500000 0.379921 0.000000
O O8 0.136610 0.863391 0.750000
O O9 0.215572 0.882305 0.864026
O O10 0.274880 0.909863 0.748202
O O11 0.173699 0.000000 0.794338
O O12 0.750767 0.371719 0.603239
O O13 0.118502 0.745354 0.500000
O O14 0.107404 0.644769 0.404827
O O15 0.000000 0.740991 0.426031
O O16 0.392096 0.879583 0.500000
O O17 0.500000 0.884060 0.411741
O O18 0.358685 0.896890 0.365169
O O19 0.417410 0.000000 0.432199
O O20 0.500000 0.169573 0.893964
O O21 0.420369 0.175565 0.000000
O O22 0.385415 0.000000 0.276287
#
# Coordination Sequence:
#
# PCOD9566346 Si02
#       8
#    16   8  16  16  16  16  16  16
#     4  11  23  37  55  82 112 151 195 241 296 355
#     4  11  22  40  64  82 109 153 203 260 312 352
#     4  10  22  39  62  88 118 155 194 243 298 356
#     4  11  22  37  55  80 113 149 194 252 297 351
#     4   9  19  36  59  90 124 158 198 242 295 361
#     4   8  14  28  51  77 110 153 192 227 273 332
#     4  10  19  33  56  83 115 158 200 239 294 354
#     4  10  21  36  58  88 120 153 192 239 297 359
#
# _framework density 19.036636000000001
#
# number of rings (size 3 to 8) (size 9 to 14) (size 15 to 20)
#    0.000    2.067    1.333    2.400    3.733    1.200 
#    0.000    4.000    0.000   10.800    0.000    1.867 
#    0.000    0.000    0.000    0.000    0.000    0.000 
#
# Total GULP energy -668415.471326 kJ/mol
# GULP energy per Si atom -5570.128928 kJ/mol
# Density = 1.899331 g / cm^3
# Si number density = 19.036636 Si / 1000 Ang^3
#
#
#
# Elastic Constant Matrix: (Units=GPa)
#
#
# Indices 1 2 3 4 5 6 
#
# 1 64.3232 33.2793 39.9782 0.0000 0.0000 0.0000
# 2 33.2793 64.3225 39.9782 0.0000 0.0000 0.0000
# 3 39.9782 39.9782 95.4001 0.0000 0.0000 0.0000
# 4 0.0000 0.0000 0.0000 22.3775 0.0000 0.0000
# 5 0.0000 0.0000 0.0000 0.0000 22.3776 0.0000
# 6 0.0000 0.0000 0.0000 0.0000 0.0000 14.0821
#
#
#
# Elastic Compliance Matrix: (Units=1/GPa)
#
#
# Indices 1 2 3 4 5 6 
#
# 1 0.023907 -0.008306 -0.006538 0.000000 0.000000 0.000000
# 2 -0.008306 0.023907 -0.006538 0.000000 0.000000 0.000000
# 3 -0.006538 -0.006538 0.015962 0.000000 0.000000 0.000000
# 4 0.000000 0.000000 0.000000 0.044688 0.000000 0.000000
# 5 0.000000 0.000000 0.000000 0.000000 0.044688 0.000000
# 6 0.000000 0.000000 0.000000 0.000000 0.000000 0.071012
#
#
# Mechanical properties :
#
#
# Convention : Reuss Voigt Hill
#
# Bulk Modulus (GPa) = 47.58942 50.05747 48.82344
# Shear Modulus (GPa) = 18.25275 19.15478 18.70376
#
# Velocity S-wave (km/s) = 3.09984 3.17552 3.13791
# Velocity P-wave (km/s) = 6.15347 6.30854 6.23148
#
# Compressibility (1/GPa) = 0.02101308
#
# Stress axis : x y z
#
# Youngs Moduli (GPa) = 41.82867 41.82802 62.64967
#
# Poissons Ratio (x) = 0.34741 0.40960
# Poissons Ratio (y) = 0.34741 0.40961
# Poissons Ratio (z) = 0.27347 0.27348
#
# Static dielectric constant tensor:
#      x y z
#    x 1.667460 0.000000 0.000000 
#    y 0.000000 1.667460 0.000000 
#    z 0.000000 0.000000 1.727530 
# 
# From -- ./inp_files/10113.got.cif
#   From: 2010.05.17/outbox.cif.g08.bks.cpg/sg131_6_cif.got.tgz:10113.got - 2010.05.20 12:21:01.
