data_PCOD9566795
_publ_section_title
;
Structure prediction by ZEFSAII (Michael W. Deem and Ramdas Pophale) SiO2 
 PCOD9566795
Probable space group: P 42/M M C
;
_chemical_formula_sum "Si O2"
_cell_formula_units_Z 72
_cell_length_a 20.400132
_cell_length_b 20.400132
_cell_length_c 9.205303
_cell_angle_alpha 90.000000
_cell_angle_beta 90.000000
_cell_angle_gamma 90.000000
_cell_volume 3830.928473
_symmetry_space_group_name_H-M "P 42/M M C"
_symmetry_group_IT_number 131
_symmetry_cell_setting 'tetragonal'
loop_
_space_group_symop_operation_xyz
x,y,z
-x,-y,z
-y,x,1/2+z
y,-x,1/2+z
-x,y,-z
x,-y,-z
y,x,1/2-z
-y,-x,1/2-z
-x,-y,-z
x,y,-z
y,-x,1/2-z
-y,x,1/2-z
x,-y,z
-x,y,z
-y,-x,1/2+z
y,x,1/2+z
loop_
_atom_site_type_symbol
_atom_site_label
_atom_site_fract_x
_atom_site_fract_y
_atom_site_fract_z
Si Si1 0.500000 0.922649 0.325604
Si Si2 0.843792 0.069350 0.335398
Si Si3 0.422538 0.679013 0.824594
Si Si4 0.687990 0.073844 0.666782
Si Si5 0.168466 0.392806 0.673327
O O1 0.500000 0.918380 0.500000
O O2 0.440632 0.881675 0.256778
O O3 0.500000 0.000000 0.287373
O O4 0.870040 0.129961 0.250000
O O5 0.867702 0.072309 0.500000
O O6 0.765857 0.069018 0.339663
O O7 0.865952 0.000000 0.269256
O O8 0.373442 0.626559 0.750000
O O9 0.500000 0.668886 0.787426
O O10 0.404031 0.755052 0.787371
O O11 0.416785 0.672916 0.000000
O O12 0.664361 0.085107 0.500000
O O13 0.673561 0.134741 0.772285
O O14 0.663840 0.000000 0.710556
O O15 0.163897 0.401964 0.500000
#
# Coordination Sequence:
#
# PCOD9566795 Si02
#       5
#     8  16  16  16  16
#     4  11  23  37  57  87 122 161 202 239 281 340
#     4   9  19  35  53  74 104 142 184 236 293 346
#     4  10  23  44  65  89 122 155 193 244 299 356
#     4   9  19  36  55  78 113 154 196 239 284 343
#     4  11  22  38  59  86 122 155 191 242 290 340
#
# _framework density 18.7944
#
# number of rings (size 3 to 8) (size 9 to 14) (size 15 to 20)
#    0.000    2.111    1.111    3.000    0.000    8.889 
#    0.000    8.889    0.000    0.000    0.000    0.000 
#    0.000    0.000    0.000    0.000    0.000    0.000 
#
# Total GULP energy -400849.051259 kJ/mol
# GULP energy per Si atom -5567.347934 kJ/mol
# Density = 1.875162 g / cm^3
# Si number density = 18.794400 Si / 1000 Ang^3
#
#
#
# Elastic Constant Matrix: (Units=GPa)
#
#
# Indices 1 2 3 4 5 6 
#
# 1 114.5305 70.5073 53.8379 0.0000 0.0000 0.0000
# 2 70.5073 114.5257 53.8370 0.0000 0.0000 0.0000
# 3 53.8379 53.8370 61.8455 0.0000 0.0000 0.0000
# 4 0.0000 0.0000 0.0000 32.3900 0.0000 0.0000
# 5 0.0000 0.0000 0.0000 0.0000 32.3907 0.0000
# 6 0.0000 0.0000 0.0000 0.0000 0.0000 33.2518
#
#
#
# Elastic Compliance Matrix: (Units=1/GPa)
#
#
# Indices 1 2 3 4 5 6 
#
# 1 0.016834 -0.005882 -0.009534 0.000000 0.000000 0.000000
# 2 -0.005882 0.016835 -0.009535 0.000000 0.000000 0.000000
# 3 -0.009534 -0.009535 0.032769 0.000000 0.000000 0.000000
# 4 0.000000 0.000000 0.000000 0.030874 0.000000 0.000000
# 5 0.000000 0.000000 0.000000 0.000000 0.030873 0.000000
# 6 0.000000 0.000000 0.000000 0.000000 0.000000 0.030074
#
#
# Mechanical properties :
#
#
# Convention : Reuss Voigt Hill
#
# Bulk Modulus (GPa) = 60.47197 71.91848 66.19523
# Shear Modulus (GPa) = 23.40033 27.12112 25.26072
#
# Velocity S-wave (km/s) = 3.53238 3.80286 3.67011
# Velocity P-wave (km/s) = 6.99159 7.59153 7.29773
#
# Compressibility (1/GPa) = 0.01653659
#
# Stress axis : x y z
#
# Youngs Moduli (GPa) = 59.40305 59.40014 30.51668
#
# Poissons Ratio (x) = 0.34939 0.29095
# Poissons Ratio (y) = 0.34941 0.29096
# Poissons Ratio (z) = 0.56636 0.56636
#
# Static dielectric constant tensor:
#      x y z
#    x 1.765150 0.000000 0.000000 
#    y 0.000000 1.765160 0.000000 
#    z 0.000000 0.000000 1.631140 
# 
# From -- ./inp_files/1793.got.cif
#   From: 2010.05.17/outbox.cif.g08.bks.cpg/sg131_1_cif.got.tgz:1793.got - 2010.05.20 12:21:01.
