data_PCOD9566933
_publ_section_title
;
Structure prediction by ZEFSAII (Michael W. Deem and Ramdas Pophale) SiO2 
 PCOD9566933
Probable space group: P 42/M C M
;
_chemical_formula_sum "Si O2"
_cell_formula_units_Z 48
_cell_length_a 21.256566
_cell_length_b 21.256566
_cell_length_c 8.621745
_cell_angle_alpha 90.000000
_cell_angle_beta 90.000000
_cell_angle_gamma 90.000000
_cell_volume 3895.663039
_symmetry_space_group_name_H-M "P 42/M C M"
_symmetry_group_IT_number 132
_symmetry_cell_setting 'tetragonal'
loop_
_space_group_symop_operation_xyz
x,y,z
-y,x,1/2+z
-x,-y,z
y,-x,1/2+z
x,-y,1/2-z
-x,y,1/2-z
y,x,-z
-y,-x,-z
-x,-y,-z
y,-x,1/2-z
x,y,-z
-y,x,1/2-z
-x,y,1/2+z
x,-y,1/2+z
-y,-x,z
y,x,z
loop_
_atom_site_type_symbol
_atom_site_label
_atom_site_fract_x
_atom_site_fract_y
_atom_site_fract_z
Si Si1 0.064972 0.571810 0.185399
Si Si2 0.194551 0.571541 0.685186
Si Si3 0.429536 0.674038 0.814381
O O1 0.065494 0.500000 0.250000
O O2 0.130452 0.600611 0.246255
O O3 0.000000 0.600418 0.250000
O O4 0.064039 0.570026 0.000000
O O5 0.196190 0.500000 0.750000
O O6 0.191232 0.570289 0.500000
O O7 0.261294 0.597650 0.742479
O O8 0.500000 0.663974 0.750000
O O9 0.384242 0.615759 0.778062
O O10 0.433403 0.681465 0.000000
#
# Coordination Sequence:
#
# PCOD9566933 Si02
#       3
#    16  16  16
#     4  10  16  23  34  50  71  91 111 131 155 189
#     4  10  17  26  39  53  69  88 109 133 165 203
#     4  10  20  32  44  56  69  86 110 142 181 222
#
# _framework density 12.321394
#
# number of rings (size 3 to 8) (size 9 to 14) (size 15 to 20)
#    0.000    2.000    0.000   12.000    0.000    3.000 
#    0.000    1.667    0.000    0.000    0.000    0.000 
#    0.000    0.000    0.000    0.000    0.000    0.000 
#
# Total GULP energy -267315.001111 kJ/mol
# GULP energy per Si atom -5569.062523 kJ/mol
# Density = 1.229335 g / cm^3
# Si number density = 12.321394 Si / 1000 Ang^3
#
#
#
# Elastic Constant Matrix: (Units=GPa)
#
#
# Indices 1 2 3 4 5 6 
#
# 1 69.2828 33.4534 38.6834 0.0000 0.0000 0.0000
# 2 33.4534 69.2828 38.6834 0.0000 0.0000 0.0000
# 3 38.6834 38.6834 117.3547 0.0000 0.0000 0.0000
# 4 0.0000 0.0000 0.0000 14.5817 0.0000 0.0000
# 5 0.0000 0.0000 0.0000 0.0000 14.5817 0.0000
# 6 0.0000 0.0000 0.0000 0.0000 0.0000 -0.0786
#
#
#
# Elastic Compliance Matrix: (Units=1/GPa)
#
#
# Indices 1 2 3 4 5 6 
#
# 1 0.020429 -0.007481 -0.004268 0.000000 0.000000 0.000000
# 2 -0.007481 0.020429 -0.004268 0.000000 0.000000 0.000000
# 3 -0.004268 -0.004268 0.011335 0.000000 0.000000 0.000000
# 4 0.000000 0.000000 0.000000 0.068579 0.000000 0.000000
# 5 0.000000 0.000000 0.000000 0.000000 0.068579 0.000000
# 6 0.000000 0.000000 0.000000 0.000000 0.000000-12.722001
#
#
# Mechanical properties :
#
#
# Convention : Reuss Voigt Hill
#
# Bulk Modulus (GPa) = 49.60682 53.06227 51.33455
# Shear Modulus (GPa) = -0.40020 15.49030 7.54505
#
# Velocity S-wave (km/s) = -0.57053 3.54953 2.47726
# Velocity P-wave (km/s) = 6.31776 7.74322 7.06653
#
# Compressibility (1/GPa) = 0.02015852
#
# Stress axis : x y z
#
# Youngs Moduli (GPa) = 48.95041 48.95041 88.22372
#
# Poissons Ratio (x) = 0.36621 0.37653
# Poissons Ratio (y) = 0.36621 0.37653
# Poissons Ratio (z) = 0.20892 0.20892
#
# Static dielectric constant tensor:
#      x y z
#    x 1.423860 0.000000 0.000000 
#    y 0.000000 1.423860 0.000000 
#    z 0.000000 0.000000 1.410070 
# 
# From -- ./inp_files/1094.got.cif
#   From: 2010.05.17/outbox.cif.g08.bks.cpg/sg132_1_cif.got.tgz:1094.got - 2010.05.20 12:30:18.
