data_PCOD9566493
_publ_section_title
;
Structure prediction by ZEFSAII (Michael W. Deem and Ramdas Pophale) SiO2 
 PCOD9566493
Probable space group: P 42/M M C
;
_chemical_formula_sum "Si O2"
_cell_formula_units_Z 120
_cell_length_a 28.085086
_cell_length_b 28.085086
_cell_length_c 8.833866
_cell_angle_alpha 90.000000
_cell_angle_beta 90.000000
_cell_angle_gamma 90.000000
_cell_volume 6967.906644
_symmetry_space_group_name_H-M "P 42/M M C"
_symmetry_group_IT_number 131
_symmetry_cell_setting 'tetragonal'
loop_
_space_group_symop_operation_xyz
x,y,z
-x,-y,z
-y,x,1/2+z
y,-x,1/2+z
-x,y,-z
x,-y,-z
y,x,1/2-z
-y,-x,1/2-z
-x,-y,-z
x,y,-z
y,-x,1/2-z
-y,x,1/2-z
x,-y,z
-x,y,z
-y,-x,1/2+z
y,x,1/2+z
loop_
_atom_site_type_symbol
_atom_site_label
_atom_site_fract_x
_atom_site_fract_y
_atom_site_fract_z
Si Si1 0.771691 0.055771 0.680549
Si Si2 0.123758 0.580186 0.680333
Si Si3 0.784763 0.715189 0.675309
Si Si4 0.681273 0.118970 0.679901
Si Si5 0.443828 0.227677 0.319708
Si Si6 0.295960 0.633080 0.325111
Si Si7 0.944643 0.871359 0.680598
Si Si8 0.943860 0.500000 0.182187
O O1 0.778871 0.060997 0.500000
O O2 0.724472 0.084262 0.721728
O O3 0.819481 0.072080 0.763600
O O4 0.765062 0.000000 0.714121
O O5 0.124783 0.574709 0.500000
O O6 0.109715 0.633258 0.728964
O O7 0.177080 0.570003 0.743659
O O8 0.085396 0.544688 0.752926
O O9 0.761457 0.761457 0.750000
O O10 0.798538 0.722784 0.500000
O O11 0.828362 0.697770 0.775245
O O12 0.744592 0.674163 0.677154
O O13 0.672320 0.115336 0.500000
O O14 0.436251 0.223136 0.500000
O O15 0.500000 0.235893 0.292067
O O16 0.411351 0.270733 0.257441
O O17 0.342380 0.657621 0.250000
O O18 0.305785 0.621263 0.500000
O O19 0.912128 0.912128 0.750000
O O20 0.942754 0.873446 0.500000
O O21 0.000000 0.876628 0.728562
O O22 0.000000 0.500000 0.223903
O O23 0.940940 0.500000 0.000000
#
# Coordination Sequence:
#
# PCOD9566493 Si02
#       8
#    16  16  16  16  16  16  16   8
#     4   9  20  39  59  78 102 136 177 220 268 323
#     4  12  24  38  58  84 114 145 185 238 294 351
#     4  10  20  33  50  75 107 142 180 222 272 327
#     4  11  22  36  57  81 108 143 185 231 279 333
#     4  11  22  36  58  85 117 156 199 241 289 346
#     4  10  20  34  54  80 114 153 192 235 285 338
#     4  10  21  37  59  86 114 145 179 218 268 327
#     4  11  25  45  65  83 107 143 187 239 300 359
#
# _framework density 17.221816
#
# number of rings (size 3 to 8) (size 9 to 14) (size 15 to 20)
#    0.000    1.533    2.000    3.400    0.000    5.467 
#    0.000    2.000    0.000    0.000    0.000    0.000 
#    0.000    0.267    0.000    2.800    0.000    1.200 
#
# Total GULP energy -670171.027343 kJ/mol
# GULP energy per Si atom -5584.758561 kJ/mol
# Density = 1.718262 g / cm^3
# Si number density = 17.221816 Si / 1000 Ang^3
#
#
#
# Elastic Constant Matrix: (Units=GPa)
#
#
# Indices 1 2 3 4 5 6 
#
# 1 96.0610 74.9736 54.0392 0.0000 0.0000 0.0000
# 2 74.9736 96.0624 54.0394 0.0000 0.0000 0.0000
# 3 54.0392 54.0394 90.9527 0.0000 0.0000 0.0000
# 4 0.0000 0.0000 0.0000 25.1142 0.0000 0.0000
# 5 0.0000 0.0000 0.0000 0.0000 25.1143 0.0000
# 6 0.0000 0.0000 0.0000 0.0000 0.0000 17.2658
#
#
#
# Elastic Compliance Matrix: (Units=1/GPa)
#
#
# Indices 1 2 3 4 5 6 
#
# 1 0.028391 -0.019029 -0.005562 0.000000 0.000000 0.000000
# 2 -0.019029 0.028391 -0.005562 0.000000 0.000000 0.000000
# 3 -0.005562 -0.005562 0.017604 0.000000 0.000000 0.000000
# 4 0.000000 0.000000 0.000000 0.039818 0.000000 0.000000
# 5 0.000000 0.000000 0.000000 0.000000 0.039818 0.000000
# 6 0.000000 0.000000 0.000000 0.000000 0.000000 0.057918
#
#
# Mechanical properties :
#
#
# Convention : Reuss Voigt Hill
#
# Bulk Modulus (GPa) = 71.02925 72.13116 71.58021
# Shear Modulus (GPa) = 18.05448 20.16712 19.11080
#
# Velocity S-wave (km/s) = 3.24133 3.42573 3.33481
# Velocity P-wave (km/s) = 7.43920 7.59092 7.51544
#
# Compressibility (1/GPa) = 0.01407871
#
# Stress axis : x y z
#
# Youngs Moduli (GPa) = 35.22242 35.22303 56.80483
#
# Poissons Ratio (x) = 0.67027 0.31596
# Poissons Ratio (y) = 0.67026 0.31595
# Poissons Ratio (z) = 0.19591 0.19591
#
# Static dielectric constant tensor:
#      x y z
#    x 1.575150 0.000000 0.000000 
#    y 0.000000 1.575150 0.000000 
#    z 0.000000 0.000000 1.581900 
# 
# From -- ./inp_files/2633.got.cif
#   From: 2010.05.17/outbox.cif.g08.bks.cpg/sg131_2_cif.got.tgz:2633.got - 2010.05.20 12:21:01.
