data_PCOD9566926
_publ_section_title
;
Structure prediction by ZEFSAII (Michael W. Deem and Ramdas Pophale) SiO2 
 PCOD9566926
Probable space group: P 42/M M C
;
_chemical_formula_sum "Si O2"
_cell_formula_units_Z 96
_cell_length_a 24.000000
_cell_length_b 24.000000
_cell_length_c 9.000000
_cell_angle_alpha 90.000000
_cell_angle_beta 90.000000
_cell_angle_gamma 90.000000
_cell_volume 5184.000000
_symmetry_space_group_name_H-M "P 42/M M C"
_symmetry_group_IT_number 131
_symmetry_cell_setting 'tetragonal'
loop_
_space_group_symop_operation_xyz
x,y,z
-x,-y,z
-y,x,1/2+z
y,-x,1/2+z
-x,y,-z
x,-y,-z
y,x,1/2-z
-y,-x,1/2-z
-x,-y,-z
x,y,-z
y,-x,1/2-z
-y,x,1/2-z
x,-y,z
-x,y,z
-y,-x,1/2+z
y,x,1/2+z
loop_
_atom_site_type_symbol
_atom_site_label
_atom_site_fract_x
_atom_site_fract_y
_atom_site_fract_z
Si Si1 0.062791 0.433486 0.829972
Si Si2 0.648554 0.730487 0.322561
Si Si3 0.938792 0.272954 0.680402
Si Si4 0.643659 0.434394 0.674929
Si Si5 0.849523 0.361887 0.323092
Si Si6 0.938270 0.145025 0.321781
O O1 0.063913 0.500000 0.834753
O O2 0.110372 0.412466 0.721313
O O3 0.000000 0.417346 0.783434
O O4 0.072022 0.413379 0.000000
O O5 0.704125 0.704125 0.250000
O O6 0.651462 0.728093 0.500000
O O7 0.599010 0.691660 0.260541
O O8 0.638146 0.792143 0.263843
O O9 0.939804 0.275303 0.500000
O O10 0.887154 0.309659 0.727131
O O11 0.932202 0.209094 0.723798
O O12 0.000000 0.291892 0.732111
O O13 0.586896 0.413105 0.750000
O O14 0.644709 0.419543 0.500000
O O15 0.650707 0.500000 0.688751
O O16 0.839664 0.360057 0.500000
O O17 0.892154 0.107847 0.250000
O O18 0.934869 0.143187 0.500000
O O19 0.000000 0.125788 0.278010
#
# Coordination Sequence:
#
# PCOD9566926 Si02
#       6
#    16  16  16  16  16  16
#     4   9  19  36  55  77 110 148 183 224 274 322
#     4  11  23  40  59  79 109 146 183 225 273 323
#     4   8  16  32  52  74 101 133 169 214 267 315
#     4  10  21  38  61  88 117 148 183 223 265 311
#     4  11  21  34  56  83 108 138 180 225 270 327
#     4   9  18  33  51  71  98 130 164 204 251 305
#
# _framework density 18.518519000000001
#
# number of rings (size 3 to 8) (size 9 to 14) (size 15 to 20)
#    0.000    2.333    0.000    5.500    0.000    4.667 
#    0.000    5.833    0.000    2.000    0.000    0.000 
#    0.000    0.000    0.000    0.000    0.000    0.000 
#
# Total GULP energy -535253.668556 kJ/mol
# GULP energy per Si atom -5575.559047 kJ/mol
# Density = 1.847637 g / cm^3
# Si number density = 18.518519 Si / 1000 Ang^3
#
#
#
# Elastic Constant Matrix: (Units=GPa)
#
#
# Indices 1 2 3 4 5 6 
#
# 1 88.7291 49.3595 45.8952 0.0000 0.0000 0.0000
# 2 49.3595 88.7049 45.8918 0.0000 0.0000 0.0000
# 3 45.8952 45.8918 94.0148 0.0000 0.0000 0.0000
# 4 0.0000 0.0000 0.0000 -79.6031 0.0000 0.0000
# 5 0.0000 0.0000 0.0000 0.0000 -80.0160 0.0000
# 6 0.0000 0.0000 0.0000 0.0000 0.0000 13.4849
#
#
#
# Elastic Compliance Matrix: (Units=1/GPa)
#
#
# Indices 1 2 3 4 5 6 
#
# 1 0.018062 -0.007343 -0.005233 0.000000 0.000000 0.000000
# 2 -0.007343 0.018068 -0.005235 0.000000 0.000000 0.000000
# 3 -0.005233 -0.005235 0.015746 0.000000 0.000000 0.000000
# 4 0.000000 0.000000 0.000000 -0.012562 0.000000 0.000000
# 5 0.000000 0.000000 0.000000 0.000000 -0.012498 0.000000
# 6 0.000000 0.000000 0.000000 0.000000 0.000000 0.074157
#
#
# Mechanical properties :
#
#
# Convention : Reuss Voigt Hill
#
# Bulk Modulus (GPa) = 61.52162 61.52685 61.52424
# Shear Modulus (GPa) = 35.20811 -20.54001 7.33405
#
# Velocity S-wave (km/s) = 4.36505 -3.33402 1.99223
# Velocity P-wave (km/s) = 7.66151 4.29834 6.21186
#
# Compressibility (1/GPa) = 0.01625445
#
# Stress axis : x y z
#
# Youngs Moduli (GPa) = 55.36501 55.34758 63.50688
#
# Poissons Ratio (x) = 0.40643 0.33232
# Poissons Ratio (y) = 0.40656 0.33244
# Poissons Ratio (z) = 0.28971 0.28973
#
# Static dielectric constant tensor:
#      x y z
#    x 1.644450 0.000000 0.000000 
#    y 0.000000 1.644450 0.000000 
#    z 0.000000 0.000000 1.629190 
# 
# From -- ./inp_files/2275.got.cif
#   From: 2010.05.17/outbox.ucp.g08.bks.cvg/sg131_2_cif.got.tgz:2275.got - 2010.06.11 11:38:44.
