data_PCOD9566239
_publ_section_title
;
Structure prediction by ZEFSAII (Michael W. Deem and Ramdas Pophale) SiO2 
 PCOD9566239
Probable space group: P 42/M M C
;
_chemical_formula_sum "Si O2"
_cell_formula_units_Z 80
_cell_length_a 16.468861
_cell_length_b 16.468861
_cell_length_c 15.005220
_cell_angle_alpha 90.000000
_cell_angle_beta 90.000000
_cell_angle_gamma 90.000000
_cell_volume 4069.766526
_symmetry_space_group_name_H-M "P 42/M M C"
_symmetry_group_IT_number 131
_symmetry_cell_setting 'tetragonal'
loop_
_space_group_symop_operation_xyz
x,y,z
-x,-y,z
-y,x,1/2+z
y,-x,1/2+z
-x,y,-z
x,-y,-z
y,x,1/2-z
-y,-x,1/2-z
-x,-y,-z
x,y,-z
y,-x,1/2-z
-y,x,1/2-z
x,-y,z
-x,y,z
-y,-x,1/2+z
y,x,1/2+z
loop_
_atom_site_type_symbol
_atom_site_label
_atom_site_fract_x
_atom_site_fract_y
_atom_site_fract_z
Si Si1 0.586468 0.373542 0.150803
Si Si2 0.411432 0.183976 0.792641
Si Si3 0.093556 0.089308 0.642394
Si Si4 0.821654 0.742529 0.600237
Si Si5 0.763448 0.371687 0.901371
O O1 0.590867 0.409134 0.250000
O O2 0.500000 0.394256 0.109096
O O3 0.588685 0.275952 0.167313
O O4 0.669027 0.398167 0.103054
O O5 0.500000 0.147865 0.815892
O O6 0.327676 0.148788 0.832228
O O7 0.405590 0.192306 0.685706
O O8 0.093292 0.093292 0.750000
O O9 0.136733 0.170268 0.610017
O O10 0.000000 0.091197 0.613031
O O11 0.127558 0.000000 0.616939
O O12 0.833453 0.711076 0.500000
O O13 0.725733 0.759712 0.611745
O O14 0.796244 0.390102 0.000000
#
# Coordination Sequence:
#
# PCOD9566239 Si02
#       5
#    16  16  16  16  16
#     4   8  14  24  37  55  82 118 161 209 261 316
#     4   9  17  30  47  65  90 127 173 227 279 324
#     4   9  18  33  54  81 114 150 180 205 244 308
#     4  10  19  31  50  75 105 141 180 224 270 319
#     4   9  17  28  44  67  93 125 168 219 274 325
#
# _framework density 19.657147999999999
#
# number of rings (size 3 to 8) (size 9 to 14) (size 15 to 20)
#    0.000    3.000    0.000    3.600    0.000    2.200 
#    0.000    5.000    0.000    0.600    0.000    7.000 
#    0.000    0.000    0.000   17.200    0.000    1.800 
#
# Total GULP energy -445660.125816 kJ/mol
# GULP energy per Si atom -5570.751573 kJ/mol
# Density = 1.961241 g / cm^3
# Si number density = 19.657148 Si / 1000 Ang^3
#
#
#
# Elastic Constant Matrix: (Units=GPa)
#
#
# Indices 1 2 3 4 5 6 
#
# 1 72.1562 41.9638 18.0625 0.0000 0.0000 0.0000
# 2 41.9638 72.1560 18.0625 0.0000 0.0000 0.0000
# 3 18.0625 18.0625 82.1942 0.0000 0.0000 0.0000
# 4 0.0000 0.0000 0.0000 7.4935 0.0000 0.0000
# 5 0.0000 0.0000 0.0000 0.0000 7.4932 0.0000
# 6 0.0000 0.0000 0.0000 0.0000 0.0000 -0.7350
#
#
#
# Elastic Compliance Matrix: (Units=1/GPa)
#
#
# Indices 1 2 3 4 5 6 
#
# 1 0.021269 -0.011852 -0.002070 0.000000 0.000000 0.000000
# 2 -0.011852 0.021269 -0.002070 0.000000 0.000000 0.000000
# 3 -0.002070 -0.002070 0.013076 0.000000 0.000000 0.000000
# 4 0.000000 0.000000 0.000000 0.133448 0.000000 0.000000
# 5 0.000000 0.000000 0.000000 0.000000 0.133454 0.000000
# 6 0.000000 0.000000 0.000000 0.000000 0.000000 -1.360617
#
#
# Mechanical properties :
#
#
# Convention : Reuss Voigt Hill
#
# Bulk Modulus (GPa) = 42.31338 42.52044 42.41691
# Shear Modulus (GPa) = -5.00881 12.74487 3.86803
#
# Velocity S-wave (km/s) = -1.59800 2.54905 1.40429
# Velocity P-wave (km/s) = 4.26235 5.50831 4.92489
#
# Compressibility (1/GPa) = 0.02363319
#
# Stress axis : x y z
#
# Youngs Moduli (GPa) = 47.01589 47.01576 76.47648
#
# Poissons Ratio (x) = 0.55721 0.15828
# Poissons Ratio (y) = 0.55721 0.15828
# Poissons Ratio (z) = 0.09730 0.09731
#
# Static dielectric constant tensor:
#      x y z
#    x 1.705960 0.000000 0.000000 
#    y 0.000000 1.705960 0.000000 
#    z 0.000000 0.000000 1.732600 
# 
# From -- ./inp_files/5717.got.cif
#   From: 2010.05.17/outbox.cif.g08.bks.cpg/sg131_3_cif.got.tgz:5717.got - 2010.05.20 12:21:01.
