data_PCOD9566302
_publ_section_title
;
Structure prediction by ZEFSAII (Michael W. Deem and Ramdas Pophale) SiO2 
 PCOD9566302
Probable space group: P 42/M M C
;
_chemical_formula_sum "Si O2"
_cell_formula_units_Z 112
_cell_length_a 13.368218
_cell_length_b 13.368218
_cell_length_c 27.450016
_cell_angle_alpha 90.000000
_cell_angle_beta 90.000000
_cell_angle_gamma 90.000000
_cell_volume 4905.571840
_symmetry_space_group_name_H-M "P 42/M M C"
_symmetry_group_IT_number 131
_symmetry_cell_setting 'tetragonal'
loop_
_space_group_symop_operation_xyz
x,y,z
-x,-y,z
-y,x,1/2+z
y,-x,1/2+z
-x,y,-z
x,-y,-z
y,x,1/2-z
-y,-x,1/2-z
-x,-y,-z
x,y,-z
y,-x,1/2-z
-y,x,1/2-z
x,-y,z
-x,y,z
-y,-x,1/2+z
y,x,1/2+z
loop_
_atom_site_type_symbol
_atom_site_label
_atom_site_fract_x
_atom_site_fract_y
_atom_site_fract_z
Si Si1 0.881148 0.320198 0.946857
Si Si2 0.176755 0.384366 0.557065
Si Si3 0.810923 0.182913 0.197333
Si Si4 0.292555 0.382991 0.298244
Si Si5 0.108179 0.820671 0.407949
Si Si6 0.620321 0.610560 0.902676
Si Si7 0.879386 0.391780 0.157770
O O1 0.864935 0.202210 0.936915
O O2 0.843884 0.374600 0.898027
O O3 0.000000 0.339284 0.948007
O O4 0.841036 0.348899 0.000000
O O5 0.152471 0.380494 0.500000
O O6 0.163734 0.500000 0.573546
O O7 0.115923 0.299237 0.584671
O O8 0.292885 0.353559 0.565111
O O9 0.849843 0.150158 0.250000
O O10 0.690544 0.196996 0.199446
O O11 0.842029 0.123667 0.149387
O O12 0.846386 0.296857 0.188331
O O13 0.353765 0.353765 0.250000
O O14 0.267653 0.500000 0.298685
O O15 0.358368 0.360817 0.346536
O O16 0.000000 0.856253 0.424531
O O17 0.657741 0.500000 0.915098
O O18 0.500000 0.605369 0.907188
O O19 0.845347 0.500000 0.175905
O O20 0.000000 0.391484 0.156995
#
# Coordination Sequence:
#
# PCOD9566302 Si02
#       7
#    16  16  16  16  16  16  16
#     4   9  19  37  61  90 120 147 181 228 283 345
#     4  10  21  37  54  76 112 154 197 242 282 325
#     4  10  22  38  58  84 110 148 189 236 288 341
#     4  10  19  32  51  77 111 145 182 230 281 334
#     4  11  23  40  60  83 112 147 190 238 286 336
#     4   9  17  30  49  73 105 146 188 231 279 331
#     4   9  19  37  60  86 118 153 188 230 282 344
#
# _framework density 22.83118
#
# number of rings (size 3 to 8) (size 9 to 14) (size 15 to 20)
#    0.000    2.286    1.429    0.857    0.000    6.429 
#    0.000    4.286    0.000    1.714    0.000    2.000 
#    0.000    0.000    0.000    0.000    0.000    0.000 
#
# Total GULP energy -625833.476985 kJ/mol
# GULP energy per Si atom -5587.798902 kJ/mol
# Density = 2.277922 g / cm^3
# Si number density = 22.831180 Si / 1000 Ang^3
#
#
#
# Elastic Constant Matrix: (Units=GPa)
#
#
# Indices 1 2 3 4 5 6 
#
# 1 47.9560 -11.8852 -4.0492 0.0000 0.0000 0.0000
# 2 -11.8852 47.9561 -4.0491 0.0000 0.0000 0.0000
# 3 -4.0492 -4.0491 99.9746 0.0000 0.0000 0.0000
# 4 0.0000 0.0000 0.0000 4.3256 0.0000 0.0000
# 5 0.0000 0.0000 0.0000 0.0000 4.3255 0.0000
# 6 0.0000 0.0000 0.0000 0.0000 0.0000 10.0723
#
#
#
# Elastic Compliance Matrix: (Units=1/GPa)
#
#
# Indices 1 2 3 4 5 6 
#
# 1 0.022344 0.005633 0.001133 0.000000 0.000000 0.000000
# 2 0.005633 0.022344 0.001133 0.000000 0.000000 0.000000
# 3 0.001133 0.001133 0.010094 0.000000 0.000000 0.000000
# 4 0.000000 0.000000 0.000000 0.231184 0.000000 0.000000
# 5 0.000000 0.000000 0.000000 0.000000 0.231185 0.000000
# 6 0.000000 0.000000 0.000000 0.000000 0.000000 0.099282
#
#
# Mechanical properties :
#
#
# Convention : Reuss Voigt Hill
#
# Bulk Modulus (GPa) = 14.16791 17.32443 15.74617
# Shear Modulus (GPa) = 8.01074 18.13603 13.07338
#
# Velocity S-wave (km/s) = 1.87518 2.82149 2.39553
# Velocity P-wave (km/s) = 3.30263 4.26836 3.81617
#
# Compressibility (1/GPa) = 0.07058203
#
# Stress axis : x y z
#
# Youngs Moduli (GPa) = 44.75425 44.75433 99.06554
#
# Poissons Ratio (x) = -0.25212 -0.11226
# Poissons Ratio (y) = -0.25212 -0.11225
# Poissons Ratio (z) = -0.05071 -0.05071
#
# Static dielectric constant tensor:
#      x y z
#    x 1.878090 0.000000 0.000000 
#    y 0.000000 1.878090 0.000000 
#    z 0.000000 0.000000 1.833520 
# 
# From -- ./inp_files/12498.got.cif
#   From: 2010.05.17/outbox.cif.g08.bks.cpg/sg131_7_cif.got.tgz:12498.got - 2010.05.20 12:21:01.
