data_PCOD9566574
_publ_section_title
;
Structure prediction by ZEFSAII (Michael W. Deem and Ramdas Pophale) SiO2 
 PCOD9566574
Probable space group: P 42/M M C
;
_chemical_formula_sum "Si O2"
_cell_formula_units_Z 80
_cell_length_a 23.071246
_cell_length_b 23.071246
_cell_length_c 8.037209
_cell_angle_alpha 90.000000
_cell_angle_beta 90.000000
_cell_angle_gamma 90.000000
_cell_volume 4278.064831
_symmetry_space_group_name_H-M "P 42/M M C"
_symmetry_group_IT_number 131
_symmetry_cell_setting 'tetragonal'
loop_
_space_group_symop_operation_xyz
x,y,z
-x,-y,z
-y,x,1/2+z
y,-x,1/2+z
-x,y,-z
x,-y,-z
y,x,1/2-z
-y,-x,1/2-z
-x,-y,-z
x,y,-z
y,-x,1/2-z
-y,x,1/2-z
x,-y,z
-x,y,z
-y,-x,1/2+z
y,x,1/2+z
loop_
_atom_site_type_symbol
_atom_site_label
_atom_site_fract_x
_atom_site_fract_y
_atom_site_fract_z
Si Si1 0.937572 0.429748 0.307006
Si Si2 0.000000 0.221545 0.308961
Si Si3 0.812302 0.564836 0.805345
Si Si4 0.224540 0.684588 0.199649
Si Si5 0.871154 0.777598 0.302445
Si Si6 0.093226 0.000000 0.301382
O O1 0.931401 0.411811 0.500000
O O2 0.940360 0.500000 0.305916
O O3 0.879611 0.416252 0.209619
O O4 0.000000 0.408167 0.244300
O O5 0.936112 0.234689 0.233440
O O6 0.000000 0.151984 0.300489
O O7 0.000000 0.243618 0.500000
O O8 0.805931 0.500000 0.731610
O O9 0.778077 0.619165 0.733012
O O10 0.798051 0.560181 0.000000
O O11 0.282403 0.717598 0.250000
O O12 0.171533 0.724457 0.261821
O O13 0.220373 0.683158 0.000000
O O14 0.836207 0.836207 0.250000
O O15 0.877687 0.782339 0.500000
O O16 0.055213 0.944788 0.250000
O O17 0.103700 0.000000 0.500000
#
# Coordination Sequence:
#
# PCOD9566574 Si02
#       6
#    16   8  16  16  16   8
#     4   8  14  25  41  63  92 126 162 198 238 283
#     4  10  21  35  50  70  92 117 154 200 248 295
#     4   9  18  32  50  73 100 129 162 200 241 286
#     4  10  20  35  54  74  98 130 166 201 241 288
#     4  10  20  35  53  71  94 124 161 202 247 297
#     4  11  21  32  47  66  90 117 145 185 240 304
#
# _framework density 18.700044999999999
#
# number of rings (size 3 to 8) (size 9 to 14) (size 15 to 20)
#    0.000    2.500    0.000    4.800    0.000    5.200 
#    1.800    2.000    0.000    0.000    0.000    0.000 
#    0.000    0.400    0.000    5.000    0.000    0.000 
#
# Total GULP energy -445712.803154 kJ/mol
# GULP energy per Si atom -5571.410039 kJ/mol
# Density = 1.865748 g / cm^3
# Si number density = 18.700045 Si / 1000 Ang^3
#
#
#
# Elastic Constant Matrix: (Units=GPa)
#
#
# Indices 1 2 3 4 5 6 
#
# 1 114.9841 46.0714 2.2386 0.0000 0.0000 0.0000
# 2 46.0714 114.9902 2.2461 0.0000 0.0000 0.0000
# 3 2.2386 2.2461 31.7206 0.0000 0.0000 0.0000
# 4 0.0000 0.0000 0.0000 898.8060 0.0000 0.0000
# 5 0.0000 0.0000 0.0000 0.0000 911.5271 0.0000
# 6 0.0000 0.0000 0.0000 0.0000 0.0000 11.7153
#
#
#
# Elastic Compliance Matrix: (Units=1/GPa)
#
#
# Indices 1 2 3 4 5 6 
#
# 1 0.010366 -0.004145 -0.000438 0.000000 0.000000 0.000000
# 2 -0.004145 0.010366 -0.000441 0.000000 0.000000 0.000000
# 3 -0.000438 -0.000441 0.031587 0.000000 0.000000 0.000000
# 4 0.000000 0.000000 0.000000 0.001113 0.000000 0.000000
# 5 0.000000 0.000000 0.000000 0.000000 0.001097 0.000000
# 6 0.000000 0.000000 0.000000 0.000000 0.000000 0.085359
#
#
# Mechanical properties :
#
#
# Convention : Reuss Voigt Hill
#
# Bulk Modulus (GPa) = 23.65710 40.31190 31.98450
# Shear Modulus (GPa) = 30.48299 378.48561 204.48430
#
# Velocity S-wave (km/s) = 4.04183 14.24211 10.46838
# Velocity P-wave (km/s) = 5.87028 17.08959 12.77721
#
# Compressibility (1/GPa) = 0.04227061
#
# Stress axis : x y z
#
# Youngs Moduli (GPa) = 96.46877 96.47301 31.65819
#
# Poissons Ratio (x) = 0.39985 0.01387
# Poissons Ratio (y) = 0.39983 0.01398
# Poissons Ratio (z) = 0.04226 0.04259
#
# Static dielectric constant tensor:
#      x y z
#    x 1.683870 0.000000 0.000000 
#    y 0.000000 1.683870 0.000000 
#    z 0.000000 0.000000 1.664400 
# 
# From -- ./inp_files/2083.got.cif
#   From: 2010.05.17/outbox.cif.g08.bks.cpg/sg131_2_cif.got.tgz:2083.got - 2010.05.20 12:21:01.
