data_PCOD9566376
_publ_section_title
;
Structure prediction by ZEFSAII (Michael W. Deem and Ramdas Pophale) SiO2 
 PCOD9566376
Probable space group: P 42/M M C
;
_chemical_formula_sum "Si O2"
_cell_formula_units_Z 96
_cell_length_a 15.104232
_cell_length_b 15.104232
_cell_length_c 21.465763
_cell_angle_alpha 90.000000
_cell_angle_beta 90.000000
_cell_angle_gamma 90.000000
_cell_volume 4897.152468
_symmetry_space_group_name_H-M "P 42/M M C"
_symmetry_group_IT_number 131
_symmetry_cell_setting 'tetragonal'
loop_
_space_group_symop_operation_xyz
x,y,z
-x,-y,z
-y,x,1/2+z
y,-x,1/2+z
-x,y,-z
x,-y,-z
y,x,1/2-z
-y,-x,1/2-z
-x,-y,-z
x,y,-z
y,-x,1/2-z
-y,x,1/2-z
x,-y,z
-x,y,z
-y,-x,1/2+z
y,x,1/2+z
loop_
_atom_site_type_symbol
_atom_site_label
_atom_site_fract_x
_atom_site_fract_y
_atom_site_fract_z
Si Si1 0.599198 0.859325 0.898582
Si Si2 0.101102 0.394447 0.252979
Si Si3 0.262645 0.899278 0.574526
Si Si4 0.348126 0.399268 0.427358
Si Si5 0.604607 0.220894 0.359698
Si Si6 0.093387 0.205707 0.427507
O O1 0.500000 0.895336 0.912423
O O2 0.614284 0.869317 0.824492
O O3 0.598207 0.758025 0.920782
O O4 0.688083 0.899589 0.926499
O O5 0.094360 0.500000 0.242440
O O6 0.178238 0.362663 0.206028
O O7 0.000000 0.358983 0.244395
O O8 0.256600 0.903157 0.500000
O O9 0.348681 0.843485 0.591291
O O10 0.179045 0.842841 0.599432
O O11 0.264529 0.000000 0.598074
O O12 0.370804 0.378665 0.500000
O O13 0.380226 0.500000 0.413913
O O14 0.376540 0.322102 0.379920
O O15 0.500000 0.211629 0.361655
O O16 0.090905 0.179653 0.500000
O O17 0.000000 0.179612 0.397714
#
# Coordination Sequence:
#
# PCOD9566376 Si02
#       6
#    16  16  16  16  16  16
#     4  10  19  34  58  84 114 150 189 235 291 352
#     4   9  19  35  55  83 117 150 190 241 292 343
#     4  10  21  37  55  78 111 148 190 241 293 346
#     4  10  21  37  57  84 121 159 196 243 298 356
#     4  11  22  37  59  84 113 151 197 244 295 353
#     4  10  20  34  54  82 114 148 189 233 284 351
#
# _framework density 19.603227
#
# number of rings (size 3 to 8) (size 9 to 14) (size 15 to 20)
#    0.000    2.000    1.667    2.000    0.000    5.667 
#    0.000    4.167    0.000    0.000    0.000    4.667 
#    0.000    4.000    0.000    0.000    0.000    0.000 
#
# Total GULP energy -534621.374960 kJ/mol
# GULP energy per Si atom -5568.972656 kJ/mol
# Density = 1.955861 g / cm^3
# Si number density = 19.603227 Si / 1000 Ang^3
#
#
#
# Elastic Constant Matrix: (Units=GPa)
#
#
# Indices 1 2 3 4 5 6 
#
# 1 75.6963 11.1354 12.6676 0.0000 0.0000 0.0000
# 2 11.1354 75.6963 12.6676 0.0000 0.0000 0.0000
# 3 12.6676 12.6676 57.8690 0.0000 0.0000 0.0000
# 4 0.0000 0.0000 0.0000 -63.3449 0.0000 0.0000
# 5 0.0000 0.0000 0.0000 0.0000 -63.3449 0.0000
# 6 0.0000 0.0000 0.0000 0.0000 0.0000 0.0149
#
#
#
# Elastic Compliance Matrix: (Units=1/GPa)
#
#
# Indices 1 2 3 4 5 6 
#
# 1 0.013896 -0.001593 -0.002693 0.000000 0.000000 0.000000
# 2 -0.001593 0.013896 -0.002693 0.000000 0.000000 0.000000
# 3 -0.002693 -0.002693 0.018459 0.000000 0.000000 0.000000
# 4 0.000000 0.000000 0.000000 -0.015787 0.000000 0.000000
# 5 0.000000 0.000000 0.000000 0.000000 -0.015787 0.000000
# 6 0.000000 0.000000 0.000000 0.000000 0.000000 67.317334
#
#
# Mechanical properties :
#
#
# Convention : Reuss Voigt Hill
#
# Bulk Modulus (GPa) = 30.96742 31.35588 31.16165
# Shear Modulus (GPa) = 0.07423 -13.81559 -6.87068
#
# Velocity S-wave (km/s) = 0.19481 -2.65761 -1.87416
# Velocity P-wave (km/s) = 3.98522 2.57153 3.35371
#
# Compressibility (1/GPa) = 0.03229200
#
# Stress axis : x y z
#
# Youngs Moduli (GPa) = 71.96443 71.96443 54.17286
#
# Poissons Ratio (x) = 0.11467 0.14589
# Poissons Ratio (y) = 0.11467 0.14589
# Poissons Ratio (z) = 0.19380 0.19380
#
# Static dielectric constant tensor:
#      x y z
#    x 1.725970 0.000000 0.000000 
#    y 0.000000 1.725970 0.000000 
#    z 0.000000 0.000000 1.710960 
# 
# From -- ./inp_files/9782.got.cif
#   From: 2010.05.17/outbox.cif.g08.bks.cpg/sg131_5_cif.got.tgz:9782.got - 2010.05.20 12:21:01.
