data_PCOD9566398
_publ_section_title
;
Structure prediction by ZEFSAII (Michael W. Deem and Ramdas Pophale) SiO2 
 PCOD9566398
Probable space group: P 42/M M C
;
_chemical_formula_sum "Si O2"
_cell_formula_units_Z 52
_cell_length_a 11.893040
_cell_length_b 11.893040
_cell_length_c 19.895751
_cell_angle_alpha 90.000000
_cell_angle_beta 90.000000
_cell_angle_gamma 90.000000
_cell_volume 2814.142572
_symmetry_space_group_name_H-M "P 42/M M C"
_symmetry_group_IT_number 131
_symmetry_cell_setting 'tetragonal'
loop_
_space_group_symop_operation_xyz
x,y,z
-x,-y,z
-y,x,1/2+z
y,-x,1/2+z
-x,y,-z
x,-y,-z
y,x,1/2-z
-y,-x,1/2-z
-x,-y,-z
x,y,-z
y,-x,1/2-z
-y,x,1/2-z
x,-y,z
-x,y,z
-y,-x,1/2+z
y,x,1/2+z
loop_
_atom_site_type_symbol
_atom_site_label
_atom_site_fract_x
_atom_site_fract_y
_atom_site_fract_z
Si Si1 0.773308 0.500000 0.145568
Si Si2 0.500000 0.737021 0.500000
Si Si3 0.500000 0.127670 0.216399
Si Si4 0.247063 0.291009 0.352202
Si Si5 0.866821 0.133180 0.250000
Si Si6 0.365851 0.743233 0.000000
O O1 0.809483 0.500000 0.067816
O O2 0.865792 0.500000 0.203146
O O3 0.706731 0.617346 0.153974
O O4 0.609396 0.658260 0.500000
O O5 0.392490 0.192316 0.188585
O O6 0.500000 0.000000 0.192964
O O7 0.198570 0.180977 0.315272
O O8 0.216082 0.309043 0.430553
O O9 0.000000 0.153160 0.257503
O O10 0.500000 0.765339 0.000000
#
# Coordination Sequence:
#
# PCOD9566398 Si02
#       6
#     8   4   8  16   8   8
#     4  10  20  36  58  89 125 158 198 246 304 368
#     4   8  19  32  55  82 126 172 197 235 296 370
#     4  12  22  36  59  86 123 163 204 258 307 359
#     4  11  22  38  61  93 123 161 199 252 312 372
#     4  11  24  44  66  85 116 164 214 259 302 360
#     4  10  19  36  57  88 129 162 199 243 308 376
#
# _framework density 18.478097999999999
#
# number of rings (size 3 to 8) (size 9 to 14) (size 15 to 20)
#    0.000    1.385    4.615    1.154    0.000    0.615 
#    0.000    6.538    0.000    7.385    0.000    0.000 
#    0.000    0.000    0.000    0.000    0.000    0.000 
#
# Total GULP energy -289913.521553 kJ/mol
# GULP energy per Si atom -5575.260030 kJ/mol
# Density = 1.843604 g / cm^3
# Si number density = 18.478098 Si / 1000 Ang^3
#
#
#
# Elastic Constant Matrix: (Units=GPa)
#
#
# Indices 1 2 3 4 5 6 
#
# 1 91.9340 36.9669 47.8045 0.0000 0.0000 0.0000
# 2 36.9669 91.9330 47.8043 0.0000 0.0000 0.0000
# 3 47.8045 47.8043 166.1630 0.0000 0.0000 0.0000
# 4 0.0000 0.0000 0.0000 6.6193 0.0000 0.0000
# 5 0.0000 0.0000 0.0000 0.0000 6.6181 0.0000
# 6 0.0000 0.0000 0.0000 0.0000 0.0000 11.4416
#
#
#
# Elastic Compliance Matrix: (Units=1/GPa)
#
#
# Indices 1 2 3 4 5 6 
#
# 1 0.014028 -0.004165 -0.002837 0.000000 0.000000 0.000000
# 2 -0.004165 0.014028 -0.002837 0.000000 0.000000 0.000000
# 3 -0.002837 -0.002837 0.007651 0.000000 0.000000 0.000000
# 4 0.000000 0.000000 0.000000 0.151073 0.000000 0.000000
# 5 0.000000 0.000000 0.000000 0.000000 0.151101 0.000000
# 6 0.000000 0.000000 0.000000 0.000000 0.000000 0.087400
#
#
# Mechanical properties :
#
#
# Convention : Reuss Voigt Hill
#
# Bulk Modulus (GPa) = 62.39780 68.35349 65.37564
# Shear Modulus (GPa) = 11.10364 19.43275 15.26820
#
# Velocity S-wave (km/s) = 2.45400 3.24646 2.87764
# Velocity P-wave (km/s) = 6.47081 7.15014 6.81894
#
# Compressibility (1/GPa) = 0.01602621
#
# Stress axis : x y z
#
# Youngs Moduli (GPa) = 71.28799 71.28715 130.70526
#
# Poissons Ratio (x) = 0.29692 0.37086
# Poissons Ratio (y) = 0.29693 0.37086
# Poissons Ratio (z) = 0.20227 0.20227
#
# Static dielectric constant tensor:
#      x y z
#    x 1.630700 0.000000 0.000000 
#    y 0.000000 1.630700 0.000000 
#    z 0.000000 0.000000 1.673500 
# 
# From -- ./inp_files/9104.got.cif
#   From: 2010.05.17/outbox.cif.g08.bks.cpg/sg131_5_cif.got.tgz:9104.got - 2010.05.20 12:21:01.
