data_PCOD9566638
_publ_section_title
;
Structure prediction by ZEFSAII (Michael W. Deem and Ramdas Pophale) SiO2 
 PCOD9566638
Probable space group: P 42/M M C
;
_chemical_formula_sum "Si O2"
_cell_formula_units_Z 40
_cell_length_a 11.998828
_cell_length_b 11.998828
_cell_length_c 14.226752
_cell_angle_alpha 90.000000
_cell_angle_beta 90.000000
_cell_angle_gamma 90.000000
_cell_volume 2048.252137
_symmetry_space_group_name_H-M "P 42/M M C"
_symmetry_group_IT_number 131
_symmetry_cell_setting 'tetragonal'
loop_
_space_group_symop_operation_xyz
x,y,z
-x,-y,z
-y,x,1/2+z
y,-x,1/2+z
-x,y,-z
x,-y,-z
y,x,1/2-z
-y,-x,1/2-z
-x,-y,-z
x,y,-z
y,-x,1/2-z
-y,x,1/2-z
x,-y,z
-x,y,z
-y,-x,1/2+z
y,x,1/2+z
loop_
_atom_site_type_symbol
_atom_site_label
_atom_site_fract_x
_atom_site_fract_y
_atom_site_fract_z
Si Si1 0.000000 0.130135 0.614348
Si Si2 0.778459 0.238058 0.887031
Si Si3 0.631085 0.631085 0.750000
Si Si4 0.373959 0.000000 0.614122
O O1 0.888323 0.194357 0.642346
O O2 0.000000 0.126718 0.500000
O O3 0.000000 0.000000 0.643675
O O4 0.674401 0.294601 0.836606
O O5 0.888146 0.309067 0.860230
O O6 0.766678 0.241014 0.000000
O O7 0.648691 0.500000 0.768203
O O8 0.500000 0.000000 0.649883
O O9 0.377400 0.000000 0.500000
#
# Coordination Sequence:
#
# PCOD9566638 Si02
#       4
#     8  16   8   8
#     4   9  16  33  61  93 125 154 183 227 295 367
#     4  10  20  37  61  89 120 153 192 241 299 357
#     4  11  26  44  59  80 112 156 211 256 292 347
#     4   9  16  28  53  87 117 148 189 235 284 339
#
# _framework density 19.528845
#
# number of rings (size 3 to 8) (size 9 to 14) (size 15 to 20)
#    0.000    2.200    2.000    1.200    0.000    4.800 
#    0.000    5.000    0.000    3.600    0.000    0.000 
#    0.000    0.000    0.000    0.000    0.000    0.000 
#
# Total GULP energy -223445.418043 kJ/mol
# GULP energy per Si atom -5586.135451 kJ/mol
# Density = 1.948440 g / cm^3
# Si number density = 19.528845 Si / 1000 Ang^3
#
#
#
# Elastic Constant Matrix: (Units=GPa)
#
#
# Indices 1 2 3 4 5 6 
#
# 1 150.1204 74.0436 32.8365 0.0000 0.0000 0.0000
# 2 74.0436 150.1204 32.8365 0.0000 0.0000 0.0000
# 3 32.8365 32.8365 76.6473 0.0000 0.0000 0.0000
# 4 0.0000 0.0000 0.0000 60.7078 0.0000 0.0000
# 5 0.0000 0.0000 0.0000 0.0000 60.7078 0.0000
# 6 0.0000 0.0000 0.0000 0.0000 0.0000 33.1963
#
#
#
# Elastic Compliance Matrix: (Units=1/GPa)
#
#
# Indices 1 2 3 4 5 6 
#
# 1 0.009123 -0.004022 -0.002185 0.000000 0.000000 0.000000
# 2 -0.004022 0.009123 -0.002185 0.000000 0.000000 0.000000
# 3 -0.002185 -0.002185 0.014919 0.000000 0.000000 0.000000
# 4 0.000000 0.000000 0.000000 0.016472 0.000000 0.000000
# 5 0.000000 0.000000 0.000000 0.000000 0.016472 0.000000
# 6 0.000000 0.000000 0.000000 0.000000 0.000000 0.030124
#
#
# Mechanical properties :
#
#
# Convention : Reuss Voigt Hill
#
# Bulk Modulus (GPa) = 61.04968 72.92461 66.98715
# Shear Modulus (GPa) = 42.20158 46.73379 44.46769
#
# Velocity S-wave (km/s) = 4.65369 4.89720 4.77700
# Velocity P-wave (km/s) = 7.75918 8.33066 8.04999
#
# Compressibility (1/GPa) = 0.01638010
#
# Stress axis : x y z
#
# Youngs Moduli (GPa) = 109.61366 109.61366 67.02718
#
# Poissons Ratio (x) = 0.44083 0.14648
# Poissons Ratio (y) = 0.44083 0.14648
# Poissons Ratio (z) = 0.23955 0.23955
#
# Static dielectric constant tensor:
#      x y z
#    x 1.665550 0.000000 0.000000 
#    y 0.000000 1.665550 0.000000 
#    z 0.000000 0.000000 1.725130 
# 
# From -- ./inp_files/5031.got.cif
#   From: 2010.05.17/outbox.cif.g08.bks.cpg/sg131_3_cif.got.tgz:5031.got - 2010.05.20 12:21:01.
