data_PCOD9566404
_publ_section_title
;
Structure prediction by ZEFSAII (Michael W. Deem and Ramdas Pophale) SiO2 
 PCOD9566404
Probable space group: P 42/M M C
;
_chemical_formula_sum "Si O2"
_cell_formula_units_Z 96
_cell_length_a 15.451475
_cell_length_b 15.451475
_cell_length_c 20.061784
_cell_angle_alpha 90.000000
_cell_angle_beta 90.000000
_cell_angle_gamma 90.000000
_cell_volume 4789.712405
_symmetry_space_group_name_H-M "P 42/M M C"
_symmetry_group_IT_number 131
_symmetry_cell_setting 'tetragonal'
loop_
_space_group_symop_operation_xyz
x,y,z
-x,-y,z
-y,x,1/2+z
y,-x,1/2+z
-x,y,-z
x,-y,-z
y,x,1/2-z
-y,-x,1/2-z
-x,-y,-z
x,y,-z
y,-x,1/2-z
-y,x,1/2-z
x,-y,z
-x,y,z
-y,-x,1/2+z
y,x,1/2+z
loop_
_atom_site_type_symbol
_atom_site_label
_atom_site_fract_x
_atom_site_fract_y
_atom_site_fract_z
Si Si1 0.186189 0.091953 0.195454
Si Si2 0.401534 0.708687 0.421699
Si Si3 0.900737 0.827186 0.075253
Si Si4 0.615443 0.901896 0.781990
Si Si5 0.600504 0.698046 0.811414
Si Si6 0.902908 0.369500 0.876995
O O1 0.161226 0.161226 0.250000
O O2 0.150297 0.110460 0.123176
O O3 0.287476 0.092022 0.193472
O O4 0.153320 0.000000 0.221630
O O5 0.384416 0.694636 0.500000
O O6 0.500000 0.679428 0.406054
O O7 0.334210 0.656174 0.375484
O O8 0.400563 0.812836 0.408737
O O9 0.900373 0.733154 0.109514
O O10 0.000000 0.855762 0.072507
O O11 0.867274 0.820097 0.000000
O O12 0.592714 0.803413 0.805043
O O13 0.610283 0.899061 0.701495
O O14 0.582576 0.000000 0.800155
O O15 0.654214 0.654214 0.750000
O O16 0.500000 0.666921 0.812779
O O17 0.000000 0.397710 0.900999
#
# Coordination Sequence:
#
# PCOD9566404 Si02
#       6
#    16  16  16  16  16  16
#     4  11  20  32  51  74 105 150 200 250 306 368
#     4  11  25  43  64  96 135 173 216 266 322 385
#     4  10  20  32  47  72 108 152 202 253 306 368
#     4  10  21  38  64  94 124 157 202 262 319 371
#     4  12  25  43  69  97 128 169 218 269 321 380
#     4  10  19  36  61  89 124 166 208 254 313 379
#
# _framework density 20.042956
#
# number of rings (size 3 to 8) (size 9 to 14) (size 15 to 20)
#    0.000    1.333    3.333    3.000    0.000    4.667 
#    0.000    4.167    0.000    1.500    0.000    1.167 
#    0.000    0.000    0.000    0.000    0.000    0.000 
#
# Total GULP energy -534679.457453 kJ/mol
# GULP energy per Si atom -5569.577682 kJ/mol
# Density = 1.999734 g / cm^3
# Si number density = 20.042956 Si / 1000 Ang^3
#
#
#
# Elastic Constant Matrix: (Units=GPa)
#
#
# Indices 1 2 3 4 5 6 
#
# 1 134.2026 37.8905 44.6437 0.0000 0.0000 0.0000
# 2 37.8905 134.2026 44.6437 0.0000 0.0000 0.0000
# 3 44.6437 44.6437 88.9775 0.0000 0.0000 0.0000
# 4 0.0000 0.0000 0.0000 -780.4463 0.0000 0.0000
# 5 0.0000 0.0000 0.0000 0.0000 -780.4463 0.0000
# 6 0.0000 0.0000 0.0000 0.0000 0.0000 3133.9653
#
#
#
# Elastic Compliance Matrix: (Units=1/GPa)
#
#
# Indices 1 2 3 4 5 6 
#
# 1 0.009119 -0.001264 -0.003942 0.000000 0.000000 0.000000
# 2 -0.001264 0.009119 -0.003942 0.000000 0.000000 0.000000
# 3 -0.003942 -0.003942 0.015194 0.000000 0.000000 0.000000
# 4 0.000000 0.000000 0.000000 -0.001281 0.000000 0.000000
# 5 0.000000 0.000000 0.000000 0.000000 -0.001281 0.000000
# 6 0.000000 0.000000 0.000000 0.000000 0.000000 0.000319
#
#
# Mechanical properties :
#
#
# Convention : Reuss Voigt Hill
#
# Bulk Modulus (GPa) = 66.05279 67.97093 67.01186
# Shear Modulus (GPa) = 91.69395 329.96153 210.82774
#
# Velocity S-wave (km/s) = 6.77112 12.84463 10.26724
# Velocity P-wave (km/s) = 9.70350 15.93630 13.19325
#
# Compressibility (1/GPa) = 0.01513941
#
# Stress axis : x y z
#
# Youngs Moduli (GPa) = 109.65673 109.65673 65.81493
#
# Poissons Ratio (x) = 0.13856 0.25942
# Poissons Ratio (y) = 0.13856 0.25942
# Poissons Ratio (z) = 0.43222 0.43222
#
# Static dielectric constant tensor:
#      x y z
#    x 1.746140 0.000000 0.000000 
#    y 0.000000 1.746140 0.000000 
#    z 0.000000 0.000000 1.669830 
# 
# From -- ./inp_files/9764.got.cif
#   From: 2010.05.17/outbox.cif.g08.bks.cpg/sg131_5_cif.got.tgz:9764.got - 2010.05.20 12:21:01.
