data_PCOD9566569
_publ_section_title
;
Structure prediction by ZEFSAII (Michael W. Deem and Ramdas Pophale) SiO2 
 PCOD9566569
Probable space group: P 42/M M C
;
_chemical_formula_sum "Si O2"
_cell_formula_units_Z 96
_cell_length_a 15.185935
_cell_length_b 15.185935
_cell_length_c 21.694465
_cell_angle_alpha 90.000000
_cell_angle_beta 90.000000
_cell_angle_gamma 90.000000
_cell_volume 5003.017453
_symmetry_space_group_name_H-M "P 42/M M C"
_symmetry_group_IT_number 131
_symmetry_cell_setting 'tetragonal'
loop_
_space_group_symop_operation_xyz
x,y,z
-x,-y,z
-y,x,1/2+z
y,-x,1/2+z
-x,y,-z
x,-y,-z
y,x,1/2-z
-y,-x,1/2-z
-x,-y,-z
x,y,-z
y,-x,1/2-z
-y,x,1/2-z
x,-y,z
-x,y,z
-y,-x,1/2+z
y,x,1/2+z
loop_
_atom_site_type_symbol
_atom_site_label
_atom_site_fract_x
_atom_site_fract_y
_atom_site_fract_z
Si Si1 0.400695 0.500000 0.074529
Si Si2 0.897630 0.597668 0.696840
Si Si3 0.151873 0.101368 0.679394
Si Si4 0.399262 0.897082 0.000000
Si Si5 0.749140 0.367512 0.928131
Si Si6 0.098283 0.364057 0.837381
Si Si7 0.729102 0.166322 0.891957
O O1 0.500000 0.500000 0.099194
O O2 0.341274 0.415512 0.090800
O O3 0.407211 0.500000 0.000000
O O4 0.881375 0.500000 0.671289
O O5 0.889969 0.595892 0.770055
O O6 0.834061 0.670804 0.669787
O O7 0.000000 0.621496 0.682929
O O8 0.124284 0.124284 0.750000
O O9 0.258294 0.103685 0.673784
O O10 0.123829 0.177747 0.630399
O O11 0.123884 0.000000 0.666242
O O12 0.337165 0.876760 0.058735
O O13 0.500000 0.856824 0.000000
O O14 0.412499 0.000000 0.000000
O O15 0.828964 0.395363 0.884825
O O16 0.744040 0.263059 0.918644
O O17 0.764649 0.387379 0.000000
O O18 0.000000 0.383695 0.859831
#
# Coordination Sequence:
#
# PCOD9566569 Si02
#       7
#     8  16  16   8  16  16  16
#     4   9  20  38  57  79 113 155 198 243 283 334
#     4  10  20  34  56  87 116 145 182 233 300 356
#     4  10  20  36  58  83 115 156 202 247 292 343
#     4  11  24  40  61  88 118 150 184 240 313 367
#     4  10  21  37  57  84 114 152 198 239 289 350
#     4   9  19  35  58  86 116 150 189 241 299 356
#     4  11  21  38  59  85 118 152 196 244 292 351
#
# _framework density 19.188419
#
# number of rings (size 3 to 8) (size 9 to 14) (size 15 to 20)
#    0.000    2.000    2.500    1.000    1.167    3.833 
#    0.000    0.417    0.000    2.000    0.000    0.000 
#    0.000    0.000    0.000    0.000    0.000    0.000 
#
# Total GULP energy -534957.669499 kJ/mol
# GULP energy per Si atom -5572.475724 kJ/mol
# Density = 1.914475 g / cm^3
# Si number density = 19.188419 Si / 1000 Ang^3
#
#
#
# Elastic Constant Matrix: (Units=GPa)
#
#
# Indices 1 2 3 4 5 6 
#
# 1 97.9897 32.1171 44.7604 0.0000 0.0000 0.0000
# 2 32.1171 97.9897 44.7604 0.0000 0.0000 0.0000
# 3 44.7604 44.7604 73.2203 0.0000 0.0000 0.0000
# 4 0.0000 0.0000 0.0000 -22.3032 0.0000 0.0000
# 5 0.0000 0.0000 0.0000 0.0000 -22.3032 0.0000
# 6 0.0000 0.0000 0.0000 0.0000 0.0000 -40.2591
#
#
#
# Elastic Compliance Matrix: (Units=1/GPa)
#
#
# Indices 1 2 3 4 5 6 
#
# 1 0.014223 -0.000957 -0.008110 0.000000 0.000000 0.000000
# 2 -0.000957 0.014223 -0.008110 0.000000 0.000000 0.000000
# 3 -0.008110 -0.008110 0.023572 0.000000 0.000000 0.000000
# 4 0.000000 0.000000 0.000000 -0.044837 0.000000 0.000000
# 5 0.000000 0.000000 0.000000 0.000000 -0.044837 0.000000
# 6 0.000000 0.000000 0.000000 0.000000 0.000000 -0.024839
#
#
# Mechanical properties :
#
#
# Convention : Reuss Voigt Hill
#
# Bulk Modulus (GPa) = 56.60660 56.94172 56.77416
# Shear Modulus (GPa) = -224.70278 -7.13564 -115.91921
#
# Velocity S-wave (km/s) = -10.83317 -1.93049 -7.78089
# Velocity P-wave (km/s) = 11.26554 4.97699 7.14639
#
# Compressibility (1/GPa) = 0.01766579
#
# Stress axis : x y z
#
# Youngs Moduli (GPa) = 70.30706 70.30706 42.42256
#
# Poissons Ratio (x) = 0.06732 0.34403
# Poissons Ratio (y) = 0.06732 0.34403
# Poissons Ratio (z) = 0.57016 0.57016
#
# Static dielectric constant tensor:
#      x y z
#    x 1.701320 0.000000 0.000000 
#    y 0.000000 1.701320 0.000000 
#    z 0.000000 0.000000 1.676190 
# 
# From -- ./inp_files/11191.got.cif
#   From: 2010.05.17/outbox.cif.g08.bks.cpg/sg131_6_cif.got.tgz:11191.got - 2010.05.20 12:21:01.
