data_PCOD9566278
_publ_section_title
;
Structure prediction by ZEFSAII (Michael W. Deem and Ramdas Pophale) SiO2 
 PCOD9566278
Probable space group: P 42/M M C
;
_chemical_formula_sum "Si O2"
_cell_formula_units_Z 120
_cell_length_a 28.438982
_cell_length_b 28.438982
_cell_length_c 8.800223
_cell_angle_alpha 90.000000
_cell_angle_beta 90.000000
_cell_angle_gamma 90.000000
_cell_volume 7117.406492
_symmetry_space_group_name_H-M "P 42/M M C"
_symmetry_group_IT_number 131
_symmetry_cell_setting 'tetragonal'
loop_
_space_group_symop_operation_xyz
x,y,z
-x,-y,z
-y,x,1/2+z
y,-x,1/2+z
-x,y,-z
x,-y,-z
y,x,1/2-z
-y,-x,1/2-z
-x,-y,-z
x,y,-z
y,-x,1/2-z
-y,x,1/2-z
x,-y,z
-x,y,z
-y,-x,1/2+z
y,x,1/2+z
loop_
_atom_site_type_symbol
_atom_site_label
_atom_site_fract_x
_atom_site_fract_y
_atom_site_fract_z
Si Si1 0.443984 0.725777 0.178358
Si Si2 0.794505 0.865053 0.817440
Si Si3 0.372779 0.554520 0.818830
Si Si4 0.214304 0.718269 0.318513
Si Si5 0.055388 0.269242 0.816715
Si Si6 0.815422 0.614309 0.316319
Si Si7 0.083788 0.624134 0.816710
Si Si8 0.000000 0.554643 0.814752
O O1 0.500000 0.729723 0.192032
O O2 0.429183 0.678868 0.265668
O O3 0.420882 0.774229 0.231009
O O4 0.432115 0.719684 0.000000
O O5 0.842699 0.842699 0.750000
O O6 0.754020 0.827210 0.773598
O O7 0.772693 0.913619 0.754913
O O8 0.798255 0.866943 0.000000
O O9 0.412613 0.587388 0.750000
O O10 0.378422 0.500000 0.768699
O O11 0.375316 0.555743 0.000000
O O12 0.262058 0.737943 0.250000
O O13 0.217490 0.719301 0.500000
O O14 0.201423 0.666250 0.270726
O O15 0.072484 0.321832 0.767222
O O16 0.000000 0.265088 0.780667
O O17 0.060434 0.267158 0.000000
O O18 0.819865 0.612441 0.500000
O O19 0.866082 0.607590 0.243812
O O20 0.044710 0.586188 0.768083
O O21 0.083618 0.625240 0.000000
O O22 0.000000 0.500000 0.763682
O O23 0.000000 0.553337 0.000000
#
# Coordination Sequence:
#
# PCOD9566278 Si02
#       8
#    16  16  16  16  16  16  16   8
#     4   9  19  36  55  72  96 133 170 207 255 309
#     4  10  19  32  50  73 103 139 174 212 260 310
#     4  10  21  37  58  83 110 138 168 206 252 306
#     4   9  18  30  44  65  94 126 159 198 244 296
#     4  10  19  32  51  75 105 140 180 222 266 318
#     4  10  20  34  50  72 101 131 168 215 263 313
#     4  10  19  32  51  74  98 131 175 223 272 325
#     4   9  18  34  53  73  99 131 171 223 280 331
#
# _framework density 16.860074999999998
#
# number of rings (size 3 to 8) (size 9 to 14) (size 15 to 20)
#    0.000    2.333    2.000    0.800    0.000    3.867 
#    0.000    2.333    0.000    0.400    0.000    0.000 
#    0.000    0.267    0.000    2.800    0.000    1.200 
#
# Total GULP energy -668992.031754 kJ/mol
# GULP energy per Si atom -5574.933598 kJ/mol
# Density = 1.682170 g / cm^3
# Si number density = 16.860075 Si / 1000 Ang^3
#
#
#
# Elastic Constant Matrix: (Units=GPa)
#
#
# Indices 1 2 3 4 5 6 
#
# 1 109.5359 76.8339 34.0650 0.0000 0.0000 0.0000
# 2 76.8339 109.5403 34.0652 0.0000 0.0000 0.0000
# 3 34.0650 34.0652 15.9249 0.0000 0.0000 0.0000
# 4 0.0000 0.0000 0.0000 22.5488 0.0000 0.0000
# 5 0.0000 0.0000 0.0000 0.0000 22.5483 0.0000
# 6 0.0000 0.0000 0.0000 0.0000 0.0000 29.9128
#
#
#
# Elastic Compliance Matrix: (Units=1/GPa)
#
#
# Indices 1 2 3 4 5 6 
#
# 1 0.027595 -0.002984 -0.052646 0.000000 0.000000 0.000000
# 2 -0.002984 0.027592 -0.052641 0.000000 0.000000 0.000000
# 3 -0.052646 -0.052641 0.288017 0.000000 0.000000 0.000000
# 4 0.000000 0.000000 0.000000 0.044348 0.000000 0.000000
# 5 0.000000 0.000000 0.000000 0.000000 0.044349 0.000000
# 6 0.000000 0.000000 0.000000 0.000000 0.000000 0.033431
#
#
# Mechanical properties :
#
#
# Convention : Reuss Voigt Hill
#
# Bulk Modulus (GPa) = 7.89503 58.32548 33.11025
# Shear Modulus (GPa) = 6.90518 21.00445 13.95481
#
# Velocity S-wave (km/s) = 2.02595 3.53343 2.88007
# Velocity P-wave (km/s) = 3.18833 7.16350 5.54442
#
# Compressibility (1/GPa) = 0.12666194
#
# Stress axis : x y z
#
# Youngs Moduli (GPa) = 36.23867 36.24193 3.47202
#
# Poissons Ratio (x) = 0.10813 0.18279
# Poissons Ratio (y) = 0.10812 0.18277
# Poissons Ratio (z) = 1.90782 1.90782
#
# Static dielectric constant tensor:
#      x y z
#    x 1.566740 0.000000 0.000000 
#    y 0.000000 1.566740 0.000000 
#    z 0.000000 0.000000 1.571050 
# 
# From -- ./inp_files/2644.got.cif
#   From: 2010.05.17/outbox.cif.g08.bks.cpg/sg131_2_cif.got.tgz:2644.got - 2010.05.20 12:21:01.
