data_PCOD9566379
_publ_section_title
;
Structure prediction by ZEFSAII (Michael W. Deem and Ramdas Pophale) SiO2 
 PCOD9566379
Probable space group: P 42/M M C
;
_chemical_formula_sum "Si O2"
_cell_formula_units_Z 84
_cell_length_a 11.404559
_cell_length_b 11.404559
_cell_length_c 35.840540
_cell_angle_alpha 90.000000
_cell_angle_beta 90.000000
_cell_angle_gamma 90.000000
_cell_volume 4661.562775
_symmetry_space_group_name_H-M "P 42/M M C"
_symmetry_group_IT_number 131
_symmetry_cell_setting 'tetragonal'
loop_
_space_group_symop_operation_xyz
x,y,z
-x,-y,z
-y,x,1/2+z
y,-x,1/2+z
-x,y,-z
x,-y,-z
y,x,1/2-z
-y,-x,1/2-z
-x,-y,-z
x,y,-z
y,-x,1/2-z
-y,x,1/2-z
x,-y,z
-x,y,z
-y,-x,1/2+z
y,x,1/2+z
loop_
_atom_site_type_symbol
_atom_site_label
_atom_site_fract_x
_atom_site_fract_y
_atom_site_fract_z
Si Si1 0.742236 0.859343 0.353259
Si Si2 0.753786 0.141545 0.077175
Si Si3 0.235129 0.500000 0.180833
Si Si4 0.638893 0.867037 0.000000
Si Si5 0.252859 0.137161 0.785823
Si Si6 0.500000 0.500000 0.805067
Si Si7 0.500000 0.756205 0.228524
Si Si8 0.860916 0.000000 0.540279
O O1 0.782231 0.765494 0.385282
O O2 0.614966 0.824773 0.336807
O O3 0.832928 0.830894 0.320234
O O4 0.745333 0.000000 0.362563
O O5 0.676661 0.179097 0.040994
O O6 0.883541 0.162692 0.061903
O O7 0.734436 0.000000 0.084377
O O8 0.375437 0.500000 0.173411
O O9 0.224017 0.500000 0.226407
O O10 0.500000 0.871852 0.000000
O O11 0.690959 0.000000 0.000000
O O12 0.198801 0.198801 0.750000
O O13 0.383399 0.189197 0.789352
O O14 0.261737 0.000000 0.779996
O O15 0.500000 0.619566 0.781425
O O16 0.802485 0.000000 0.500000
O O17 0.000000 0.000000 0.535606
#
# Coordination Sequence:
#
# PCOD9566379 Si02
#       8
#    16  16   8   8  16   4   8   8
#     4  12  25  40  60  90 128 164 203 258 317 379
#     4  10  19  34  58  89 123 161 200 238 298 373
#     4  12  24  42  65  88 114 155 215 269 320 359
#     4   9  18  35  59  88 125 163 202 252 303 359
#     4  12  25  40  61  89 125 166 206 256 317 380
#     4  12  21  44  76  88 106 149 220 289 314 360
#     4  12  22  44  69  91 111 155 225 281 314 357
#     4   9  14  26  54  85 113 151 201 244 275 349
#
# _framework density 18.019708999999999
#
# number of rings (size 3 to 8) (size 9 to 14) (size 15 to 20)
#    0.000    0.952    5.714    2.571    0.000    2.857 
#    3.429    0.000    0.000    0.571    0.000    2.667 
#    0.000    0.000    0.000    0.000    0.000    0.000 
#
# Total GULP energy -467797.521522 kJ/mol
# GULP energy per Si atom -5569.018113 kJ/mol
# Density = 1.797869 g / cm^3
# Si number density = 18.019709 Si / 1000 Ang^3
#
#
#
# Elastic Constant Matrix: (Units=GPa)
#
#
# Indices 1 2 3 4 5 6 
#
# 1 91.4944 29.5801 11.5433 0.0000 0.0000 0.0000
# 2 29.5801 91.4944 11.5433 0.0000 0.0000 0.0000
# 3 11.5433 11.5433 73.6497 0.0000 0.0000 0.0000
# 4 0.0000 0.0000 0.0000 -26.1091 0.0000 0.0000
# 5 0.0000 0.0000 0.0000 0.0000 -26.1091 0.0000
# 6 0.0000 0.0000 0.0000 0.0000 0.0000 15.4411
#
#
#
# Elastic Compliance Matrix: (Units=1/GPa)
#
#
# Indices 1 2 3 4 5 6 
#
# 1 0.012333 -0.003819 -0.001334 0.000000 0.000000 0.000000
# 2 -0.003819 0.012333 -0.001334 0.000000 0.000000 0.000000
# 3 -0.001334 -0.001334 0.013996 0.000000 0.000000 0.000000
# 4 0.000000 0.000000 0.000000 -0.038301 0.000000 0.000000
# 5 0.000000 0.000000 0.000000 0.000000 -0.038301 0.000000
# 6 0.000000 0.000000 0.000000 0.000000 0.000000 0.064762
#
#
# Mechanical properties :
#
#
# Convention : Reuss Voigt Hill
#
# Bulk Modulus (GPa) = 38.93148 40.21908 39.57528
# Shear Modulus (GPa) = 103.39369 6.24272 54.81820
#
# Velocity S-wave (km/s) = 7.58305 1.86330 5.52153
# Velocity P-wave (km/s) = 9.91575 5.19588 7.91578
#
# Compressibility (1/GPa) = 0.02568616
#
# Stress axis : x y z
#
# Youngs Moduli (GPa) = 81.08592 81.08592 71.44864
#
# Poissons Ratio (x) = 0.30965 0.09534
# Poissons Ratio (y) = 0.30965 0.09534
# Poissons Ratio (z) = 0.10820 0.10820
#
# Static dielectric constant tensor:
#      x y z
#    x 1.620270 0.000000 0.000000 
#    y 0.000000 1.620270 0.000000 
#    z 0.000000 0.000000 1.750620 
# 
# From -- ./inp_files/13633.got.cif
#   From: 2010.05.17/outbox.cif.g08.bks.cpg/sg131_7_cif.got.tgz:13633.got - 2010.05.20 12:21:01.
