data_PCOD9566301
_publ_section_title
;
Structure prediction by ZEFSAII (Michael W. Deem and Ramdas Pophale) SiO2 
 PCOD9566301
Probable space group: P 42/M M C
;
_chemical_formula_sum "Si O2"
_cell_formula_units_Z 120
_cell_length_a 27.540447
_cell_length_b 27.540447
_cell_length_c 8.190657
_cell_angle_alpha 90.000000
_cell_angle_beta 90.000000
_cell_angle_gamma 90.000000
_cell_volume 6212.418569
_symmetry_space_group_name_H-M "P 42/M M C"
_symmetry_group_IT_number 131
_symmetry_cell_setting 'tetragonal'
loop_
_space_group_symop_operation_xyz
x,y,z
-x,-y,z
-y,x,1/2+z
y,-x,1/2+z
-x,y,-z
x,-y,-z
y,x,1/2-z
-y,-x,1/2-z
-x,-y,-z
x,y,-z
y,-x,1/2-z
-y,x,1/2-z
x,-y,z
-x,y,z
-y,-x,1/2+z
y,x,1/2+z
loop_
_atom_site_type_symbol
_atom_site_label
_atom_site_fract_x
_atom_site_fract_y
_atom_site_fract_z
Si Si1 0.052577 0.342241 0.690656
Si Si2 0.866086 0.055120 0.696933
Si Si3 0.267033 0.345404 0.697111
Si Si4 0.445408 0.769227 0.193473
Si Si5 0.500000 0.055874 0.196394
Si Si6 0.584511 0.873836 0.689296
Si Si7 0.082348 0.242622 0.807985
Si Si8 0.810987 0.267781 0.303363
O O1 0.055592 0.354933 0.500000
O O2 0.099797 0.364728 0.774836
O O3 0.054228 0.284636 0.713636
O O4 0.000000 0.360207 0.753458
O O5 0.906517 0.093484 0.750000
O O6 0.865500 0.054862 0.500000
O O7 0.811913 0.071061 0.749606
O O8 0.875953 0.000000 0.753221
O O9 0.312788 0.312788 0.750000
O O10 0.267181 0.345980 0.500000
O O11 0.263320 0.400742 0.758476
O O12 0.217657 0.316791 0.746212
O O13 0.500000 0.763219 0.262239
O O14 0.428360 0.824972 0.214937
O O15 0.448488 0.759771 0.000000
O O16 0.546144 0.084950 0.261112
O O17 0.500000 0.000000 0.248423
O O18 0.500000 0.057336 0.000000
O O19 0.580185 0.861882 0.500000
O O20 0.138477 0.255892 0.780647
O O21 0.070039 0.245712 0.000000
O O22 0.774452 0.225549 0.250000
O O23 0.817698 0.268622 0.500000
#
# Coordination Sequence:
#
# PCOD9566301 Si02
#       8
#    16  16  16  16   8  16  16  16
#     4  11  24  40  57  77 104 141 184 228 279 337
#     4  10  23  42  62  85 112 140 171 212 265 327
#     4   9  19  34  53  79 110 149 189 228 277 328
#     4  10  20  36  58  81 111 150 190 231 279 339
#     4  11  23  39  57  75 103 147 197 249 302 351
#     4  12  24  37  56  82 110 143 189 242 295 341
#     4  11  22  37  58  83 111 142 176 219 273 330
#     4  10  19  32  51  77 111 145 182 222 264 322
#
# _framework density 19.316147999999998
#
# number of rings (size 3 to 8) (size 9 to 14) (size 15 to 20)
#    0.000    1.533    0.667    4.600    0.000    8.400 
#    0.000    0.667    0.000    0.000    0.000    0.000 
#    0.000    0.267    0.000    3.333    0.000    0.000 
#
# Total GULP energy -670401.582029 kJ/mol
# GULP energy per Si atom -5586.679850 kJ/mol
# Density = 1.927218 g / cm^3
# Si number density = 19.316148 Si / 1000 Ang^3
#
#
#
# Elastic Constant Matrix: (Units=GPa)
#
#
# Indices 1 2 3 4 5 6 
#
# 1 128.3695 40.6167 -5.0975 0.0000 0.0000 0.0000
# 2 40.6167 128.3607 -5.1068 0.0000 0.0000 0.0000
# 3 -5.0975 -5.1068 16.3010 0.0000 0.0000 0.0000
# 4 0.0000 0.0000 0.0000 19.0501 0.0000 0.0000
# 5 0.0000 0.0000 0.0000 0.0000 19.0494 0.0000
# 6 0.0000 0.0000 0.0000 0.0000 0.0000 19.7256
#
#
#
# Elastic Compliance Matrix: (Units=1/GPa)
#
#
# Indices 1 2 3 4 5 6 
#
# 1 0.008714 -0.002682 0.001885 0.000000 0.000000 0.000000
# 2 -0.002682 0.008715 0.001891 0.000000 0.000000 0.000000
# 3 0.001885 0.001891 0.062528 0.000000 0.000000 0.000000
# 4 0.000000 0.000000 0.000000 0.052493 0.000000 0.000000
# 5 0.000000 0.000000 0.000000 0.000000 0.052495 0.000000
# 6 0.000000 0.000000 0.000000 0.000000 0.000000 0.050696
#
#
# Mechanical properties :
#
#
# Convention : Reuss Voigt Hill
#
# Bulk Modulus (GPa) = 12.17392 37.09512 24.63452
# Shear Modulus (GPa) = 19.16934 27.73960 23.45447
#
# Velocity S-wave (km/s) = 3.15366 3.79368 3.48838
# Velocity P-wave (km/s) = 4.42457 6.19962 5.38573
#
# Compressibility (1/GPa) = 0.08214284
#
# Stress axis : x y z
#
# Youngs Moduli (GPa) = 114.76428 114.75107 15.99295
#
# Poissons Ratio (x) = 0.30779 -0.03014
# Poissons Ratio (y) = 0.30782 -0.03025
# Poissons Ratio (z) = -0.21627 -0.21703
#
# Static dielectric constant tensor:
#      x y z
#    x 1.677520 0.000000 0.000000 
#    y 0.000000 1.677520 0.000000 
#    z 0.000000 0.000000 1.679680 
# 
# From -- ./inp_files/2649.got.cif
#   From: 2010.05.17/outbox.cif.g08.bks.cpg/sg131_2_cif.got.tgz:2649.got - 2010.05.20 12:21:01.
