data_PCOD9566482
_publ_section_title
;
Structure prediction by ZEFSAII (Michael W. Deem and Ramdas Pophale) SiO2 
 PCOD9566482
Probable space group: P 42/M M C
;
_chemical_formula_sum "Si O2"
_cell_formula_units_Z 112
_cell_length_a 15.703946
_cell_length_b 15.703946
_cell_length_c 22.517072
_cell_angle_alpha 90.000000
_cell_angle_beta 90.000000
_cell_angle_gamma 90.000000
_cell_volume 5553.023392
_symmetry_space_group_name_H-M "P 42/M M C"
_symmetry_group_IT_number 131
_symmetry_cell_setting 'tetragonal'
loop_
_space_group_symop_operation_xyz
x,y,z
-x,-y,z
-y,x,1/2+z
y,-x,1/2+z
-x,y,-z
x,-y,-z
y,x,1/2-z
-y,-x,1/2-z
-x,-y,-z
x,y,-z
y,-x,1/2-z
-y,x,1/2-z
x,-y,z
-x,y,z
-y,-x,1/2+z
y,x,1/2+z
loop_
_atom_site_type_symbol
_atom_site_label
_atom_site_fract_x
_atom_site_fract_y
_atom_site_fract_z
Si Si1 0.407063 0.158400 0.089138
Si Si2 0.896992 0.590341 0.725493
Si Si3 0.230986 0.094650 0.234968
Si Si4 0.905595 0.223999 0.407596
Si Si5 0.360726 0.593306 0.430263
Si Si6 0.251042 0.902388 0.429036
Si Si7 0.218119 0.595185 0.927469
O O1 0.500000 0.125672 0.067907
O O2 0.409362 0.144456 0.160269
O O3 0.318407 0.117313 0.068449
O O4 0.403155 0.258200 0.074452
O O5 0.876852 0.500000 0.754696
O O6 0.872865 0.677441 0.757141
O O7 0.000000 0.594864 0.717216
O O8 0.156486 0.156486 0.250000
O O9 0.235257 0.091105 0.163617
O O10 0.215392 0.000000 0.257861
O O11 0.834044 0.153567 0.419660
O O12 0.000000 0.198578 0.427743
O O13 0.384105 0.591914 0.500000
O O14 0.387234 0.500000 0.405378
O O15 0.393103 0.683898 0.406102
O O16 0.261776 0.908996 0.500000
O O17 0.330752 0.845728 0.406765
O O18 0.247320 0.000000 0.405950
O O19 0.188475 0.500000 0.912762
O O20 0.221526 0.601483 0.000000
#
# Coordination Sequence:
#
# PCOD9566482 Si02
#       7
#    16  16  16  16  16  16  16
#     4   9  15  25  44  68  94 122 151 185 224 270
#     4   8  14  26  45  68  91 116 151 190 223 264
#     4   9  18  31  48  72  98 124 153 188 233 281
#     4  10  20  33  50  72  97 126 160 194 234 285
#     4   9  16  25  40  65  96 126 153 185 231 284
#     4  10  21  36  51  67  90 122 163 208 246 278
#     4   9  17  30  48  67  87 116 156 199 241 284
#
# _framework density 20.169194000000001
#
# number of rings (size 3 to 8) (size 9 to 14) (size 15 to 20)
#    0.000    2.857    1.429    1.286    0.000    2.714 
#    0.000    5.000    0.000    2.143    0.000   12.000 
#    0.000    0.286    0.000    0.000    0.000    0.000 
#
# Total GULP energy -623820.359340 kJ/mol
# GULP energy per Si atom -5569.824637 kJ/mol
# Density = 2.012329 g / cm^3
# Si number density = 20.169194 Si / 1000 Ang^3
#
#
#
# Elastic Constant Matrix: (Units=GPa)
#
#
# Indices 1 2 3 4 5 6 
#
# 1 160.0035 102.9528 5.5117 0.0000 0.0000 0.0000
# 2 102.9528 160.0035 5.5117 0.0000 0.0000 0.0000
# 3 5.5117 5.5117 30.8068 0.0000 0.0000 0.0000
# 4 0.0000 0.0000 0.0000 16.6600 0.0000 0.0000
# 5 0.0000 0.0000 0.0000 0.0000 16.6600 0.0000
# 6 0.0000 0.0000 0.0000 0.0000 0.0000 14.5715
#
#
#
# Elastic Compliance Matrix: (Units=1/GPa)
#
#
# Indices 1 2 3 4 5 6 
#
# 1 0.010680 -0.006848 -0.000686 0.000000 0.000000 0.000000
# 2 -0.006848 0.010680 -0.000686 0.000000 0.000000 0.000000
# 3 -0.000686 -0.000686 0.032706 0.000000 0.000000 0.000000
# 4 0.000000 0.000000 0.000000 0.060024 0.000000 0.000000
# 5 0.000000 0.000000 0.000000 0.000000 0.060024 0.000000
# 6 0.000000 0.000000 0.000000 0.000000 0.000000 0.068627
#
#
# Mechanical properties :
#
#
# Convention : Reuss Voigt Hill
#
# Bulk Modulus (GPa) = 26.57680 64.30738 45.44209
# Shear Modulus (GPa) = 18.40116 25.36745 21.88431
#
# Velocity S-wave (km/s) = 3.02377 3.55030 3.29756
# Velocity P-wave (km/s) = 5.03949 6.98279 6.08916
#
# Compressibility (1/GPa) = 0.03762680
#
# Stress axis : x y z
#
# Youngs Moduli (GPa) = 93.63329 93.63329 30.57578
#
# Poissons Ratio (x) = 0.64123 0.02096
# Poissons Ratio (y) = 0.64123 0.02096
# Poissons Ratio (z) = 0.06419 0.06419
#
# Static dielectric constant tensor:
#      x y z
#    x 1.739420 0.000000 0.000000 
#    y 0.000000 1.739420 0.000000 
#    z 0.000000 0.000000 1.785510 
# 
# From -- ./inp_files/12494.got.cif
#   From: 2010.05.17/outbox.cif.g08.bks.cpg/sg131_7_cif.got.tgz:12494.got - 2010.05.20 12:21:01.
