data_PCOD9566824
_publ_section_title
;
Structure prediction by ZEFSAII (Michael W. Deem and Ramdas Pophale) SiO2 
 PCOD9566824
Probable space group: P 42/M M C
;
_chemical_formula_sum "Si O2"
_cell_formula_units_Z 64
_cell_length_a 21.368797
_cell_length_b 21.368797
_cell_length_c 8.694147
_cell_angle_alpha 90.000000
_cell_angle_beta 90.000000
_cell_angle_gamma 90.000000
_cell_volume 3969.969093
_symmetry_space_group_name_H-M "P 42/M M C"
_symmetry_group_IT_number 131
_symmetry_cell_setting 'tetragonal'
loop_
_space_group_symop_operation_xyz
x,y,z
-x,-y,z
-y,x,1/2+z
y,-x,1/2+z
-x,y,-z
x,-y,-z
y,x,1/2-z
-y,-x,1/2-z
-x,-y,-z
x,y,-z
y,-x,1/2-z
-y,x,1/2-z
x,-y,z
-x,y,z
-y,-x,1/2+z
y,x,1/2+z
loop_
_atom_site_type_symbol
_atom_site_label
_atom_site_fract_x
_atom_site_fract_y
_atom_site_fract_z
Si Si1 0.000000 0.401180 0.175762
Si Si2 0.427092 0.137819 0.818384
Si Si3 0.748624 0.000000 0.322839
Si Si4 0.680836 0.224372 0.683271
Si Si5 0.129615 0.782911 0.318253
O O1 0.933400 0.419087 0.253474
O O2 0.000000 0.326299 0.172471
O O3 0.000000 0.424584 0.000000
O O4 0.500000 0.154274 0.798112
O O5 0.382931 0.191505 0.744284
O O6 0.412191 0.135240 0.000000
O O7 0.769858 0.940111 0.229919
O O8 0.770836 0.000000 0.500000
O O9 0.710364 0.289636 0.750000
O O10 0.677725 0.230022 0.500000
O O11 0.731857 0.172612 0.733025
O O12 0.151467 0.848534 0.250000
O O13 0.139946 0.778778 0.500000
#
# Coordination Sequence:
#
# PCOD9566824 Si02
#       5
#     8  16   8  16  16
#     4  11  22  34  51  74 104 141 181 218 257 303
#     4  11  23  37  53  75 106 143 180 217 259 308
#     4  11  21  34  52  76 102 130 168 215 258 308
#     4  11  21  35  54  76 102 134 172 216 260 304
#     4  11  21  34  53  75  99 129 165 211 262 311
#
# _framework density 16.121033000000001
#
# number of rings (size 3 to 8) (size 9 to 14) (size 15 to 20)
#    0.000    1.000    2.500    7.875    0.000    4.500 
#    0.000    0.000    0.000    0.375    0.000    2.625 
#    0.000    0.500    0.000    5.250    0.000    2.250 
#
# Total GULP energy -356951.512295 kJ/mol
# GULP energy per Si atom -5577.367380 kJ/mol
# Density = 1.608434 g / cm^3
# Si number density = 16.121033 Si / 1000 Ang^3
#
#
#
# Elastic Constant Matrix: (Units=GPa)
#
#
# Indices 1 2 3 4 5 6 
#
# 1 84.0972 51.0411 56.3788 0.0000 0.0000 0.0000
# 2 51.0411 84.0943 56.3751 0.0000 0.0000 0.0000
# 3 56.3788 56.3751 155.5922 0.0000 0.0000 0.0000
# 4 0.0000 0.0000 0.0000 22.1991 0.0000 0.0000
# 5 0.0000 0.0000 0.0000 0.0000 22.1999 0.0000
# 6 0.0000 0.0000 0.0000 0.0000 0.0000 -12.8157
#
#
#
# Elastic Compliance Matrix: (Units=1/GPa)
#
#
# Indices 1 2 3 4 5 6 
#
# 1 0.020430 -0.009823 -0.003843 0.000000 0.000000 0.000000
# 2 -0.009823 0.020430 -0.003843 0.000000 0.000000 0.000000
# 3 -0.003843 -0.003843 0.009212 0.000000 0.000000 0.000000
# 4 0.000000 0.000000 0.000000 0.045047 0.000000 0.000000
# 5 0.000000 0.000000 0.000000 0.000000 0.045045 0.000000
# 6 0.000000 0.000000 0.000000 0.000000 0.000000 -0.078029
#
#
# Mechanical properties :
#
#
# Convention : Reuss Voigt Hill
#
# Bulk Modulus (GPa) = 66.43399 72.37485 69.40442
# Shear Modulus (GPa) = 48.93748 16.98256 32.96002
#
# Velocity S-wave (km/s) = 5.51563 3.24920 4.52656
# Velocity P-wave (km/s) = 9.04776 7.68560 8.39436
#
# Compressibility (1/GPa) = 0.01505254
#
# Stress axis : x y z
#
# Youngs Moduli (GPa) = 48.94832 48.94821 108.55306
#
# Poissons Ratio (x) = 0.48083 0.41722
# Poissons Ratio (y) = 0.48083 0.41715
# Poissons Ratio (z) = 0.18813 0.18810
#
# Static dielectric constant tensor:
#      x y z
#    x 1.603380 0.000000 0.000000 
#    y 0.000000 1.603420 0.000000 
#    z 0.000000 0.000000 1.556170 
# 
# From -- ./inp_files/1671.got.cif
#   From: 2010.05.17/outbox.cif.g08.bks.cpg/sg131_1_cif.got.tgz:1671.got - 2010.05.20 12:21:01.
