data_PCOD9566896
_publ_section_title
;
Structure prediction by ZEFSAII (Michael W. Deem and Ramdas Pophale) SiO2 
 PCOD9566896
Probable space group: P 42/M M C
;
_chemical_formula_sum "Si O2"
_cell_formula_units_Z 88
_cell_length_a 23.796654
_cell_length_b 23.796654
_cell_length_c 14.287409
_cell_angle_alpha 90.000000
_cell_angle_beta 90.000000
_cell_angle_gamma 90.000000
_cell_volume 8090.684564
_symmetry_space_group_name_H-M "P 42/M M C"
_symmetry_group_IT_number 131
_symmetry_cell_setting 'tetragonal'
loop_
_space_group_symop_operation_xyz
x,y,z
-x,-y,z
-y,x,1/2+z
y,-x,1/2+z
-x,y,-z
x,-y,-z
y,x,1/2-z
-y,-x,1/2-z
-x,-y,-z
x,y,-z
y,-x,1/2-z
-y,x,1/2-z
x,-y,z
-x,y,z
-y,-x,1/2+z
y,x,1/2+z
loop_
_atom_site_type_symbol
_atom_site_label
_atom_site_fract_x
_atom_site_fract_y
_atom_site_fract_z
Si Si1 0.432170 0.828362 0.218005
Si Si2 0.564864 0.500000 0.114381
Si Si3 0.435045 0.286183 0.112933
Si Si4 0.363350 0.607305 0.885857
Si Si5 0.568413 0.936606 0.108585
Si Si6 0.432243 0.240373 0.608781
O O1 0.500000 0.832930 0.218566
O O2 0.419387 0.774591 0.153115
O O3 0.410802 0.886573 0.174931
O O4 0.415434 0.809841 0.322237
O O5 0.500000 0.500000 0.142607
O O6 0.598443 0.555075 0.144854
O O7 0.565282 0.500000 0.000000
O O8 0.500000 0.298620 0.141029
O O9 0.392922 0.335161 0.144185
O O10 0.434286 0.284175 0.000000
O O11 0.298669 0.596597 0.860781
O O12 0.364119 0.606908 0.000000
O O13 0.500000 0.936336 0.111123
O O14 0.586185 0.000000 0.134221
O O15 0.583751 0.926122 0.000000
O O16 0.419753 0.229531 0.500000
O O17 0.500000 0.248820 0.616135
#
# Coordination Sequence:
#
# PCOD9566896 Si02
#       6
#    16   8  16  16  16  16
#     4   9  16  24  35  49  61  78  94 113 142 178
#     4   9  14  20  32  46  56  70  98 135 172 206
#     4   9  16  24  33  47  64  77  93 123 163 203
#     4   9  15  23  33  44  57  76 103 133 164 195
#     4   8  13  22  37  55  71  81  87  98 123 168
#     4   9  16  26  36  44  55  76 106 134 153 174
#
# _framework density 10.876707
#
# number of rings (size 3 to 8) (size 9 to 14) (size 15 to 20)
#    0.000    3.182    0.909    1.636    0.000    5.091 
#    0.000    0.000    0.000    0.545    0.000    3.818 
#    0.000    0.000    0.000    0.000    0.000    0.182 
#
# Total GULP energy -490088.967644 kJ/mol
# GULP energy per Si atom -5569.192814 kJ/mol
# Density = 1.085195 g / cm^3
# Si number density = 10.876707 Si / 1000 Ang^3
#
#
#
# Elastic Constant Matrix: (Units=GPa)
#
#
# Indices 1 2 3 4 5 6 
#
# 1 64.1861 21.7651 31.3415 0.0000 0.0000 0.0000
# 2 21.7651 64.1861 31.3415 0.0000 0.0000 0.0000
# 3 31.3415 31.3415 53.7445 0.0000 0.0000 0.0000
# 4 0.0000 0.0000 0.0000 9.1883 0.0000 0.0000
# 5 0.0000 0.0000 0.0000 0.0000 9.1883 0.0000
# 6 0.0000 0.0000 0.0000 0.0000 0.0000 2.3754
#
#
#
# Elastic Compliance Matrix: (Units=1/GPa)
#
#
# Indices 1 2 3 4 5 6 
#
# 1 0.021909 -0.001665 -0.011806 0.000000 0.000000 0.000000
# 2 -0.001665 0.021909 -0.011806 0.000000 0.000000 0.000000
# 3 -0.011806 -0.011806 0.032376 0.000000 0.000000 0.000000
# 4 0.000000 0.000000 0.000000 0.108834 0.000000 0.000000
# 5 0.000000 0.000000 0.000000 0.000000 0.108834 0.000000
# 6 0.000000 0.000000 0.000000 0.000000 0.000000 0.420977
#
#
# Mechanical properties :
#
#
# Convention : Reuss Voigt Hill
#
# Bulk Modulus (GPa) = 38.99901 39.00145 39.00023
# Shear Modulus (GPa) = 6.46047 10.66164 8.56106
#
# Velocity S-wave (km/s) = 2.43980 3.13425 2.80857
# Velocity P-wave (km/s) = 6.62346 7.00241 6.81557
#
# Compressibility (1/GPa) = 0.02564168
#
# Stress axis : x y z
#
# Youngs Moduli (GPa) = 45.64405 45.64405 30.88750
#
# Poissons Ratio (x) = 0.07598 0.36464
# Poissons Ratio (y) = 0.07598 0.36464
# Poissons Ratio (z) = 0.53885 0.53885
#
# Static dielectric constant tensor:
#      x y z
#    x 1.332930 0.000000 0.000000 
#    y 0.000000 1.332930 0.000000 
#    z 0.000000 0.000000 1.403060 
# 
# From -- ./inp_files/6184.got.cif
#   From: 2010.05.17/outbox.cif.g08.bks.cpg/sg131_4_cif.got.tgz:6184.got - 2010.05.20 12:21:01.
