data_PCOD9566498
_publ_section_title
;
Structure prediction by ZEFSAII (Michael W. Deem and Ramdas Pophale) SiO2 
 PCOD9566498
Probable space group: P 42/M M C
;
_chemical_formula_sum "Si O2"
_cell_formula_units_Z 96
_cell_length_a 24.510915
_cell_length_b 24.510915
_cell_length_c 8.369010
_cell_angle_alpha 90.000000
_cell_angle_beta 90.000000
_cell_angle_gamma 90.000000
_cell_volume 5027.975289
_symmetry_space_group_name_H-M "P 42/M M C"
_symmetry_group_IT_number 131
_symmetry_cell_setting 'tetragonal'
loop_
_space_group_symop_operation_xyz
x,y,z
-x,-y,z
-y,x,1/2+z
y,-x,1/2+z
-x,y,-z
x,-y,-z
y,x,1/2-z
-y,-x,1/2-z
-x,-y,-z
x,y,-z
y,-x,1/2-z
-y,x,1/2-z
x,-y,z
-x,y,z
-y,-x,1/2+z
y,x,1/2+z
loop_
_atom_site_type_symbol
_atom_site_label
_atom_site_fract_x
_atom_site_fract_y
_atom_site_fract_z
Si Si1 0.797554 0.439761 0.806882
Si Si2 0.560289 0.079915 0.187403
Si Si3 0.750954 0.139723 0.180289
Si Si4 0.760624 0.679568 0.189321
Si Si5 0.148828 0.936002 0.806159
Si Si6 0.673944 0.060764 0.323436
O O1 0.772096 0.500000 0.775815
O O2 0.855406 0.439384 0.718271
O O3 0.769691 0.382959 0.756938
O O4 0.806571 0.436966 0.000000
O O5 0.500000 0.060674 0.233384
O O6 0.609996 0.058537 0.290618
O O7 0.568575 0.068048 0.000000
O O8 0.722127 0.191816 0.259178
O O9 0.802372 0.105385 0.250126
O O10 0.702445 0.095887 0.189154
O O11 0.765611 0.155331 0.000000
O O12 0.704539 0.704539 0.250000
O O13 0.760816 0.678814 0.000000
O O14 0.092798 0.907203 0.750000
O O15 0.154265 0.000000 0.755551
O O16 0.151137 0.936152 0.000000
O O17 0.683810 0.085077 0.500000
O O18 0.696591 0.000000 0.320889
#
# Coordination Sequence:
#
# PCOD9566498 Si02
#       6
#    16  16  16  16  16  16
#     4   9  18  34  55  77 106 146 187 226 270 322
#     4  10  20  33  51  74 100 134 179 229 277 322
#     4  11  22  38  59  81 109 143 179 222 273 327
#     4  11  22  35  55  84 117 149 185 226 271 323
#     4  10  23  42  62  85 110 137 171 213 267 329
#     4  11  23  36  51  73 102 139 183 228 275 329
#
# _framework density 19.093173
#
# number of rings (size 3 to 8) (size 9 to 14) (size 15 to 20)
#    0.000    1.667    1.667    3.000    0.000    7.167 
#    0.000    2.500    0.000    0.000    0.000    0.000 
#    0.000    0.333    0.000    4.167    0.000    0.000 
#
# Total GULP energy -535315.027535 kJ/mol
# GULP energy per Si atom -5576.198203 kJ/mol
# Density = 1.904972 g / cm^3
# Si number density = 19.093173 Si / 1000 Ang^3
#
#
#
# Elastic Constant Matrix: (Units=GPa)
#
#
# Indices 1 2 3 4 5 6 
#
# 1 103.0413 70.4519 13.5947 0.0000 0.0000 0.0000
# 2 70.4519 103.0365 13.5947 0.0000 0.0000 0.0000
# 3 13.5947 13.5947 22.9278 0.0000 0.0000 0.0000
# 4 0.0000 0.0000 0.0000 22.7441 0.0000 0.0000
# 5 0.0000 0.0000 0.0000 0.0000 22.7445 0.0000
# 6 0.0000 0.0000 0.0000 0.0000 0.0000 -104.9564
#
#
#
# Elastic Compliance Matrix: (Units=1/GPa)
#
#
# Indices 1 2 3 4 5 6 
#
# 1 0.018520 -0.012166 -0.003768 0.000000 0.000000 0.000000
# 2 -0.012166 0.018521 -0.003768 0.000000 0.000000 0.000000
# 3 -0.003768 -0.003768 0.048083 0.000000 0.000000 0.000000
# 4 0.000000 0.000000 0.000000 0.043967 0.000000 0.000000
# 5 0.000000 0.000000 0.000000 0.000000 0.043967 0.000000
# 6 0.000000 0.000000 0.000000 0.000000 0.000000 -0.009528
#
#
# Mechanical properties :
#
#
# Convention : Reuss Voigt Hill
#
# Bulk Modulus (GPa) = 21.87173 47.14314 34.50743
# Shear Modulus (GPa) = 22.91735 -3.13593 9.89071
#
# Velocity S-wave (km/s) = 3.46828 -1.28297 2.27848
# Velocity P-wave (km/s) = 5.24583 4.74869 5.00344
#
# Compressibility (1/GPa) = 0.04572111
#
# Stress axis : x y z
#
# Youngs Moduli (GPa) = 53.99480 53.99207 20.79721
#
# Poissons Ratio (x) = 0.65688 0.07835
# Poissons Ratio (y) = 0.65692 0.07837
# Poissons Ratio (z) = 0.20343 0.20345
#
# Static dielectric constant tensor:
#      x y z
#    x 1.691830 0.000000 0.000000 
#    y 0.000000 1.691830 0.000000 
#    z 0.000000 0.000000 1.673990 
# 
# From -- ./inp_files/2173.got.cif
#   From: 2010.05.17/outbox.cif.g08.bks.cpg/sg131_2_cif.got.tgz:2173.got - 2010.05.20 12:21:01.
