data_PCOD9566015
_publ_section_title
;
Structure prediction by ZEFSAII (Michael W. Deem and Ramdas Pophale) SiO2 
 PCOD9566015
Probable space group: P 4/N C C
;
_chemical_formula_sum "Si O2"
_cell_formula_units_Z 80
_cell_length_a 10.307333
_cell_length_b 10.307333
_cell_length_c 30.192411
_cell_angle_alpha 90.000000
_cell_angle_beta 90.000000
_cell_angle_gamma 90.000000
_cell_volume 3207.675366
_symmetry_space_group_name_H-M "P 4/N C C"
_symmetry_group_IT_number 130
_symmetry_cell_setting 'tetragonal'
loop_
_space_group_symop_operation_xyz
x,y,z
1/2-y,x,z
1/2-x,1/2-y,z
y,1/2-x,z
1/2+x,-y,1/2-z
-x,1/2+y,1/2-z
1/2+y,1/2+x,1/2-z
-y,-x,1/2-z
-x,-y,-z
1/2+y,-x,-z
1/2+x,1/2+y,-z
-y,1/2+x,-z
1/2-x,y,1/2+z
x,1/2-y,1/2+z
1/2-y,1/2-x,1/2+z
y,x,1/2+z
loop_
_atom_site_type_symbol
_atom_site_label
_atom_site_fract_x
_atom_site_fract_y
_atom_site_fract_z
Si Si1 0.547921 0.035089 0.801391
Si Si2 0.543792 0.816723 0.115514
Si Si3 0.533441 0.703693 0.424534
Si Si4 0.200482 0.897130 0.166031
Si Si5 0.535892 0.695548 0.521389
O O1 0.564853 0.064853 0.750000
O O2 0.438406 0.927353 0.807815
O O3 0.515193 0.146340 0.837472
O O4 0.691029 0.999692 0.817976
O O5 0.594741 0.671273 0.114272
O O6 0.468958 0.832485 0.068668
O O7 0.654538 0.602323 0.420794
O O8 0.430894 0.682193 0.385588
O O9 0.471946 0.683125 0.473369
O O10 0.250000 0.750000 0.173682
O O11 0.660969 0.599742 0.521039
#
# Coordination Sequence:
#
# PCOD9566015 Si02
#       5
#    16  16  16  16  16
#     4  12  29  46  70 100 139 193 244 304 370 429
#     4   9  18  38  67 101 137 181 237 293 354 428
#     4   9  16  36  68 106 140 183 237 289 353 435
#     4  12  27  47  75 102 149 189 240 304 370 435
#     4   7  12  26  61  99 133 179 227 279 350 419
#
# _framework density 24.940180000000002
#
# number of rings (size 3 to 8) (size 9 to 14) (size 15 to 20)
#    0.000    2.200    2.000    3.600    5.600    0.400 
#    0.000    1.000    4.400    0.000    0.000    0.000 
#    0.000    0.000    0.000    0.000    0.000    0.000 
#
# Total GULP energy -446796.086963 kJ/mol
# GULP energy per Si atom -5584.951087 kJ/mol
# Density = 2.488342 g / cm^3
# Si number density = 24.940180 Si / 1000 Ang^3
#
#
#
# Elastic Constant Matrix: (Units=GPa)
#
#
# Indices 1 2 3 4 5 6 
#
# 1 44.9357 10.8800 1.5594 0.0000 0.0000 0.0000
# 2 10.8800 44.9357 1.5594 0.0000 0.0000 0.0000
# 3 1.5594 1.5594 220.0015 0.0000 0.0000 0.0000
# 4 0.0000 0.0000 0.0000 26.0088 0.0000 0.0000
# 5 0.0000 0.0000 0.0000 0.0000 26.0088 0.0000
# 6 0.0000 0.0000 0.0000 0.0000 0.0000 10.0820
#
#
#
# Elastic Compliance Matrix: (Units=1/GPa)
#
#
# Indices 1 2 3 4 5 6 
#
# 1 0.023643 -0.005720 -0.000127 0.000000 0.000000 0.000000
# 2 -0.005720 0.023643 -0.000127 0.000000 0.000000 0.000000
# 3 -0.000127 -0.000127 0.004547 0.000000 0.000000 0.000000
# 4 0.000000 0.000000 0.000000 0.038449 0.000000 0.000000
# 5 0.000000 0.000000 0.000000 0.000000 0.038449 0.000000
# 6 0.000000 0.000000 0.000000 0.000000 0.000000 0.099186
#
#
# Mechanical properties :
#
#
# Convention : Reuss Voigt Hill
#
# Bulk Modulus (GPa) = 25.07176 37.54115 31.30645
# Shear Modulus (GPa) = 19.75025 32.14486 25.94756
#
# Velocity S-wave (km/s) = 2.81713 3.59399 3.22901
# Velocity P-wave (km/s) = 4.54491 5.68397 5.14605
#
# Compressibility (1/GPa) = 0.03988552
#
# Stress axis : x y z
#
# Youngs Moduli (GPa) = 42.29502 42.29502 219.91438
#
# Poissons Ratio (x) = 0.24194 0.02794
# Poissons Ratio (y) = 0.24194 0.02794
# Poissons Ratio (z) = 0.00537 0.00537
#
# Static dielectric constant tensor:
#      x y z
#    x 2.023590 0.000000 0.000000 
#    y 0.000000 2.023590 0.000000 
#    z 0.000000 0.000000 2.014210 
# 
# From -- ./inp_files/4775.got.cif
#   From: 2010.05.17/outbox.cif.g08.bks.cpg/sg130_3_cif.got.tgz:4775.got - 2010.05.20 12:17:35.
