data_PCOD9566016
_publ_section_title
;
Structure prediction by ZEFSAII (Michael W. Deem and Ramdas Pophale) SiO2 
 PCOD9566016
Probable space group: P 4/N C C
;
_chemical_formula_sum "Si O2"
_cell_formula_units_Z 64
_cell_length_a 10.457448
_cell_length_b 10.457448
_cell_length_c 24.408175
_cell_angle_alpha 90.000000
_cell_angle_beta 90.000000
_cell_angle_gamma 90.000000
_cell_volume 2669.234539
_symmetry_space_group_name_H-M "P 4/N C C"
_symmetry_group_IT_number 130
_symmetry_cell_setting 'tetragonal'
loop_
_space_group_symop_operation_xyz
x,y,z
1/2-y,x,z
1/2-x,1/2-y,z
y,1/2-x,z
1/2+x,-y,1/2-z
-x,1/2+y,1/2-z
1/2+y,1/2+x,1/2-z
-y,-x,1/2-z
-x,-y,-z
1/2+y,-x,-z
1/2+x,1/2+y,-z
-y,1/2+x,-z
1/2-x,y,1/2+z
x,1/2-y,1/2+z
1/2-y,1/2-x,1/2+z
y,x,1/2+z
loop_
_atom_site_type_symbol
_atom_site_label
_atom_site_fract_x
_atom_site_fract_y
_atom_site_fract_z
Si Si1 0.461774 0.303723 0.467968
Si Si2 0.183290 0.452054 0.586525
Si Si3 0.454791 0.531480 0.313889
Si Si4 0.102340 0.797102 0.643171
O O1 0.338577 0.398862 0.463366
O O2 0.521335 0.331864 0.528128
O O3 0.563260 0.321431 0.419772
O O4 0.096403 0.326743 0.584579
O O5 0.146332 0.509621 0.644623
O O6 0.441541 0.558460 0.250000
O O7 0.559463 0.421922 0.323477
O O8 0.312737 0.504788 0.335823
O O9 0.250000 0.750000 0.649227
#
# Coordination Sequence:
#
# PCOD9566016 Si02
#       4
#    16  16  16  16
#     4   9  18  43  75 107 149 190 245 311 381 453
#     4   9  20  43  74 104 145 194 242 312 376 446
#     4  12  29  47  71 106 153 202 258 311 374 460
#     4  12  27  48  76 111 152 200 252 321 385 453
#
# _framework density 23.976913
#
# number of rings (size 3 to 8) (size 9 to 14) (size 15 to 20)
#    0.000    1.500    2.500    3.000    7.000    1.500 
#    4.500    0.000    0.000    0.000    0.000    0.000 
#    0.000    0.000    0.000    0.000    0.000    0.000 
#
# Total GULP energy -357455.207973 kJ/mol
# GULP energy per Si atom -5585.237625 kJ/mol
# Density = 2.392234 g / cm^3
# Si number density = 23.976913 Si / 1000 Ang^3
#
#
#
# Elastic Constant Matrix: (Units=GPa)
#
#
# Indices 1 2 3 4 5 6 
#
# 1 76.3611 30.8159 21.3093 0.0000 0.0000 0.0000
# 2 30.8159 76.3608 21.3089 0.0000 0.0000 0.0000
# 3 21.3093 21.3089 210.5115 0.0000 0.0000 0.0000
# 4 0.0000 0.0000 0.0000 28.2579 0.0000 0.0000
# 5 0.0000 0.0000 0.0000 0.0000 28.2576 0.0000
# 6 0.0000 0.0000 0.0000 0.0000 0.0000 -31.0696
#
#
#
# Elastic Compliance Matrix: (Units=1/GPa)
#
#
# Indices 1 2 3 4 5 6 
#
# 1 0.015839 -0.006117 -0.000984 0.000000 0.000000 0.000000
# 2 -0.006117 0.015839 -0.000984 0.000000 0.000000 0.000000
# 3 -0.000984 -0.000984 0.004950 0.000000 0.000000 0.000000
# 4 0.000000 0.000000 0.000000 0.035388 0.000000 0.000000
# 5 0.000000 0.000000 0.000000 0.000000 0.035389 0.000000
# 6 0.000000 0.000000 0.000000 0.000000 0.000000 -0.032186
#
#
# Mechanical properties :
#
#
# Convention : Reuss Voigt Hill
#
# Bulk Modulus (GPa) = 48.88398 56.67799 52.78098
# Shear Modulus (GPa) = 50.91202 24.40912 37.66057
#
# Velocity S-wave (km/s) = 4.61301 3.19411 3.96751
# Velocity P-wave (km/s) = 6.98608 6.10680 6.56119
#
# Compressibility (1/GPa) = 0.02045660
#
# Stress axis : x y z
#
# Youngs Moduli (GPa) = 63.13539 63.13526 202.03809
#
# Poissons Ratio (x) = 0.38622 0.19883
# Poissons Ratio (y) = 0.38622 0.19882
# Poissons Ratio (z) = 0.06213 0.06213
#
# Static dielectric constant tensor:
#      x y z
#    x 1.990950 0.000000 0.000000 
#    y 0.000000 1.990950 0.000000 
#    z 0.000000 0.000000 1.904490 
# 
# From -- ./inp_files/3488.got.cif
#   From: 2010.05.17/outbox.cif.g08.bks.cpg/sg130_2_cif.got.tgz:3488.got - 2010.05.20 12:17:35.
