data_PCOD9566127
_publ_section_title
;
Structure prediction by ZEFSAII (Michael W. Deem and Ramdas Pophale) SiO2 
 PCOD9566127
Probable space group: P 42/M M C
;
_chemical_formula_sum "Si O2"
_cell_formula_units_Z 80
_cell_length_a 16.630532
_cell_length_b 16.630532
_cell_length_c 16.484359
_cell_angle_alpha 90.000000
_cell_angle_beta 90.000000
_cell_angle_gamma 90.000000
_cell_volume 4559.154908
_symmetry_space_group_name_H-M "P 42/M M C"
_symmetry_group_IT_number 131
_symmetry_cell_setting 'tetragonal'
loop_
_space_group_symop_operation_xyz
x,y,z
-x,-y,z
-y,x,1/2+z
y,-x,1/2+z
-x,y,-z
x,-y,-z
y,x,1/2-z
-y,-x,1/2-z
-x,-y,-z
x,y,-z
y,-x,1/2-z
-y,x,1/2-z
x,-y,z
-x,y,z
-y,-x,1/2+z
y,x,1/2+z
loop_
_atom_site_type_symbol
_atom_site_label
_atom_site_fract_x
_atom_site_fract_y
_atom_site_fract_z
Si Si1 0.500000 0.752613 0.596160
Si Si2 0.095880 0.906799 0.346389
Si Si3 0.739771 0.324051 0.166766
Si Si4 0.086254 0.500000 0.189955
Si Si5 0.910224 0.674340 0.751824
Si Si6 0.253500 0.841564 0.089889
O O1 0.500000 0.740639 0.500000
O O2 0.586051 0.724522 0.633565
O O3 0.500000 0.845874 0.622458
O O4 0.109262 0.890739 0.250000
O O5 0.143776 0.841856 0.397930
O O6 0.000000 0.897127 0.360287
O O7 0.115611 0.000000 0.362503
O O8 0.691367 0.308634 0.250000
O O9 0.833595 0.307764 0.191391
O O10 0.722548 0.251370 0.105159
O O11 0.091032 0.578015 0.245664
O O12 0.000000 0.500000 0.148185
O O13 0.891942 0.707805 0.663089
O O14 0.000000 0.700944 0.778150
O O15 0.277028 0.867087 0.000000
#
# Coordination Sequence:
#
# PCOD9566127 Si02
#       6
#     8  16  16   8  16  16
#     4  10  18  31  54  80 104 129 159 199 247 289
#     4   9  18  32  47  61  82 120 168 210 248 291
#     4   9  19  34  51  72  98 129 162 193 233 293
#     4   8  16  31  49  70  97 129 163 195 229 279
#     4   9  17  31  50  68  90 124 161 192 227 278
#     4  11  21  30  43  67  96 122 155 201 245 281
#
# _framework density 17.547111999999998
#
# number of rings (size 3 to 8) (size 9 to 14) (size 15 to 20)
#    0.000    2.600    0.000    3.600    0.000    4.600 
#    0.000    1.500    0.000    5.700    0.000    2.800 
#    0.000    0.000    0.000    0.000    0.000    0.000 
#
# Total GULP energy -445545.237245 kJ/mol
# GULP energy per Si atom -5569.315466 kJ/mol
# Density = 1.750717 g / cm^3
# Si number density = 17.547112 Si / 1000 Ang^3
#
#
#
# Elastic Constant Matrix: (Units=GPa)
#
#
# Indices 1 2 3 4 5 6 
#
# 1 55.4774 21.6375 21.9800 0.0000 0.0000 0.0000
# 2 21.6375 55.4786 21.9812 0.0000 0.0000 0.0000
# 3 21.9800 21.9812 68.8036 0.0000 0.0000 0.0000
# 4 0.0000 0.0000 0.0000 10.2731 0.0000 0.0000
# 5 0.0000 0.0000 0.0000 0.0000 10.2732 0.0000
# 6 0.0000 0.0000 0.0000 0.0000 0.0000 15.8963
#
#
#
# Elastic Compliance Matrix: (Units=1/GPa)
#
#
# Indices 1 2 3 4 5 6 
#
# 1 0.022703 -0.006848 -0.005065 0.000000 0.000000 0.000000
# 2 -0.006848 0.022703 -0.005065 0.000000 0.000000 0.000000
# 3 -0.005065 -0.005065 0.017770 0.000000 0.000000 0.000000
# 4 0.000000 0.000000 0.000000 0.097342 0.000000 0.000000
# 5 0.000000 0.000000 0.000000 0.000000 0.097341 0.000000
# 6 0.000000 0.000000 0.000000 0.000000 0.000000 0.062908
#
#
# Mechanical properties :
#
#
# Convention : Reuss Voigt Hill
#
# Bulk Modulus (GPa) = 34.22335 34.55079 34.38707
# Shear Modulus (GPa) = 13.71884 14.89923 14.30904
#
# Velocity S-wave (km/s) = 2.79915 2.91709 2.85873
# Velocity P-wave (km/s) = 5.47659 5.57485 5.52594
#
# Compressibility (1/GPa) = 0.02921981
#
# Stress axis : x y z
#
# Youngs Moduli (GPa) = 44.04737 44.04771 56.27309
#
# Poissons Ratio (x) = 0.30162 0.28502
# Poissons Ratio (y) = 0.30162 0.28505
# Poissons Ratio (z) = 0.22310 0.22312
#
# Static dielectric constant tensor:
#      x y z
#    x 1.626970 0.000000 0.000000 
#    y 0.000000 1.626970 0.000000 
#    z 0.000000 0.000000 1.587190 
# 
# From -- ./inp_files/5757.got.cif
#   From: 2010.05.17/outbox.cif.g08.bks.cpg/sg131_3_cif.got.tgz:5757.got - 2010.05.20 12:21:01.
