data_PCOD9566738
_publ_section_title
;
Structure prediction by ZEFSAII (Michael W. Deem and Ramdas Pophale) SiO2 
 PCOD9566738
Probable space group: P 42/M M C
;
_chemical_formula_sum "Si O2"
_cell_formula_units_Z 48
_cell_length_a 7.943455
_cell_length_b 7.943455
_cell_length_c 38.457636
_cell_angle_alpha 90.000000
_cell_angle_beta 90.000000
_cell_angle_gamma 90.000000
_cell_volume 2426.618274
_symmetry_space_group_name_H-M "P 42/M M C"
_symmetry_group_IT_number 131
_symmetry_cell_setting 'tetragonal'
loop_
_space_group_symop_operation_xyz
x,y,z
-x,-y,z
-y,x,1/2+z
y,-x,1/2+z
-x,y,-z
x,-y,-z
y,x,1/2-z
-y,-x,1/2-z
-x,-y,-z
x,y,-z
y,-x,1/2-z
-y,x,1/2-z
x,-y,z
-x,y,z
-y,-x,1/2+z
y,x,1/2+z
loop_
_atom_site_type_symbol
_atom_site_label
_atom_site_fract_x
_atom_site_fract_y
_atom_site_fract_z
Si Si1 0.800024 0.800024 0.750000
Si Si2 0.816666 0.701837 0.075656
Si Si3 0.500000 0.799253 0.802536
Si Si4 0.500000 0.700192 0.118065
Si Si5 0.201911 0.305298 0.500000
O O1 0.669084 0.757300 0.780805
O O2 0.000000 0.777440 0.758587
O O3 0.821260 0.500000 0.080220
O O4 0.665827 0.770637 0.099217
O O5 0.000000 0.770385 0.085054
O O6 0.779721 0.735882 0.035264
O O7 0.500000 0.724766 0.840888
O O8 0.500000 0.000000 0.806430
O O9 0.500000 0.500000 0.111305
O O10 0.258340 0.500000 0.500000
O O11 0.000000 0.301297 0.500000
#
# Coordination Sequence:
#
# PCOD9566738 Si02
#       5
#     8  16   8   8   8
#     4   9  20  39  60  88 122 151 190 241 288 348
#     4  10  21  38  58  81 112 152 195 238 290 347
#     4  10  22  38  61  89 116 154 193 229 289 353
#     4  10  22  37  55  84 117 148 186 238 286 339
#     4  11  22  35  56  83 111 148 197 246 289 341
#
# _framework density 19.780615000000001
#
# number of rings (size 3 to 8) (size 9 to 14) (size 15 to 20)
#    0.000    2.000    1.667    1.000    2.333    6.000 
#    0.000    0.000    0.000    0.000    0.000    0.000 
#    0.000    0.000    0.000    0.000    0.000    0.000 
#
# Total GULP energy -267950.429578 kJ/mol
# GULP energy per Si atom -5582.300616 kJ/mol
# Density = 1.973559 g / cm^3
# Si number density = 19.780615 Si / 1000 Ang^3
#
#
#
# Elastic Constant Matrix: (Units=GPa)
#
#
# Indices 1 2 3 4 5 6 
#
# 1 93.3673 42.2337 53.8191 0.0000 0.0000 0.0000
# 2 42.2337 93.3673 53.8191 0.0000 0.0000 0.0000
# 3 53.8191 53.8191 127.0737 0.0000 0.0000 0.0000
# 4 0.0000 0.0000 0.0000 213.7846 0.0000 0.0000
# 5 0.0000 0.0000 0.0000 0.0000 213.7846 0.0000
# 6 0.0000 0.0000 0.0000 0.0000 0.0000 12.3594
#
#
#
# Elastic Compliance Matrix: (Units=1/GPa)
#
#
# Indices 1 2 3 4 5 6 
#
# 1 0.015333 -0.004224 -0.004705 0.000000 0.000000 0.000000
# 2 -0.004224 0.015333 -0.004705 0.000000 0.000000 0.000000
# 3 -0.004705 -0.004705 0.011855 0.000000 0.000000 0.000000
# 4 0.000000 0.000000 0.000000 0.004678 0.000000 0.000000
# 5 0.000000 0.000000 0.000000 0.000000 0.004678 0.000000
# 6 0.000000 0.000000 0.000000 0.000000 0.000000 0.080910
#
#
# Mechanical properties :
#
#
# Convention : Reuss Voigt Hill
#
# Bulk Modulus (GPa) = 65.55968 68.17245 66.86606
# Shear Modulus (GPa) = 30.27756 98.91479 64.59617
#
# Velocity S-wave (km/s) = 3.91662 7.07916 5.72077
# Velocity P-wave (km/s) = 7.32588 10.06769 8.80417
#
# Compressibility (1/GPa) = 0.01525328
#
# Stress axis : x y z
#
# Youngs Moduli (GPa) = 65.21862 65.21862 84.35287
#
# Poissons Ratio (x) = 0.27546 0.39689
# Poissons Ratio (y) = 0.27546 0.39689
# Poissons Ratio (z) = 0.30686 0.30686
#
# Static dielectric constant tensor:
#      x y z
#    x 1.721870 0.000000 0.000000 
#    y 0.000000 1.721870 0.000000 
#    z 0.000000 0.000000 1.639900 
# 
# From -- ./inp_files/12955.got.cif
#   From: 2010.05.17/outbox.cif.g08.bks.cpg/sg131_7_cif.got.tgz:12955.got - 2010.05.20 12:21:01.
