data_PCOD9566108
_publ_section_title
;
Structure prediction by ZEFSAII (Michael W. Deem and Ramdas Pophale) SiO2 
 PCOD9566108
Probable space group: P 42/M M C
;
_chemical_formula_sum "Si O2"
_cell_formula_units_Z 96
_cell_length_a 18.933559
_cell_length_b 18.933559
_cell_length_c 15.892455
_cell_angle_alpha 90.000000
_cell_angle_beta 90.000000
_cell_angle_gamma 90.000000
_cell_volume 5697.121808
_symmetry_space_group_name_H-M "P 42/M M C"
_symmetry_group_IT_number 131
_symmetry_cell_setting 'tetragonal'
loop_
_space_group_symop_operation_xyz
x,y,z
-x,-y,z
-y,x,1/2+z
y,-x,1/2+z
-x,y,-z
x,-y,-z
y,x,1/2-z
-y,-x,1/2-z
-x,-y,-z
x,y,-z
y,-x,1/2-z
-y,x,1/2-z
x,-y,z
-x,y,z
-y,-x,1/2+z
y,x,1/2+z
loop_
_atom_site_type_symbol
_atom_site_label
_atom_site_fract_x
_atom_site_fract_y
_atom_site_fract_z
Si Si1 0.654797 0.770836 0.238112
Si Si2 0.281757 0.416096 0.094873
Si Si3 0.084099 0.780166 0.090227
Si Si4 0.080273 0.707110 0.735925
Si Si5 0.582271 0.674425 0.097553
Si Si6 0.864031 0.921662 0.837021
O O1 0.730628 0.730628 0.250000
O O2 0.617762 0.761560 0.328658
O O3 0.662365 0.851955 0.210312
O O4 0.610867 0.729180 0.166890
O O5 0.277472 0.500000 0.099977
O O6 0.363050 0.390571 0.104773
O O7 0.259503 0.394020 0.000000
O O8 0.097807 0.729382 0.168057
O O9 0.119086 0.856118 0.103971
O O10 0.000000 0.792438 0.092049
O O11 0.104495 0.750107 0.000000
O O12 0.079706 0.781358 0.686358
O O13 0.000000 0.678058 0.731321
O O14 0.500000 0.657269 0.112742
O O15 0.587823 0.699808 0.000000
O O16 0.905774 0.905774 0.750000
O O17 0.882319 0.000000 0.868206
#
# Coordination Sequence:
#
# PCOD9566108 Si02
#       6
#    16  16  16  16  16  16
#     4  10  18  30  50  73  96 125 162 203 243 282
#     4   9  18  31  48  75 108 136 160 186 222 273
#     4   9  17  27  39  58  83 109 140 182 232 288
#     4   9  18  32  47  62  83 115 157 202 245 285
#     4   9  18  32  51  76 103 131 161 189 223 274
#     4   9  16  26  39  55  77 107 142 181 229 286
#
# _framework density 16.850614
#
# number of rings (size 3 to 8) (size 9 to 14) (size 15 to 20)
#    0.000    2.833    0.000    3.500    0.000    2.500 
#    0.000    6.667    0.000    6.500    0.000    2.333 
#    0.000    0.000    0.000    0.000    0.000    0.000 
#
# Total GULP energy -534479.574011 kJ/mol
# GULP energy per Si atom -5567.495563 kJ/mol
# Density = 1.681226 g / cm^3
# Si number density = 16.850614 Si / 1000 Ang^3
#
#
#
# Elastic Constant Matrix: (Units=GPa)
#
#
# Indices 1 2 3 4 5 6 
#
# 1 50.1920 12.7359 2.7626 0.0000 0.0000 0.0000
# 2 12.7359 50.1920 2.7626 0.0000 0.0000 0.0000
# 3 2.7626 2.7626 37.0433 0.0000 0.0000 0.0000
# 4 0.0000 0.0000 0.0000 6.3204 0.0000 0.0000
# 5 0.0000 0.0000 0.0000 0.0000 6.3204 0.0000
# 6 0.0000 0.0000 0.0000 0.0000 0.0000 11.1679
#
#
#
# Elastic Compliance Matrix: (Units=1/GPa)
#
#
# Indices 1 2 3 4 5 6 
#
# 1 0.021347 -0.005351 -0.001193 0.000000 0.000000 0.000000
# 2 -0.005351 0.021347 -0.001193 0.000000 0.000000 0.000000
# 3 -0.001193 -0.001193 0.027173 0.000000 0.000000 0.000000
# 4 0.000000 0.000000 0.000000 0.158217 0.000000 0.000000
# 5 0.000000 0.000000 0.000000 0.000000 0.158217 0.000000
# 6 0.000000 0.000000 0.000000 0.000000 0.000000 0.089542
#
#
# Mechanical properties :
#
#
# Convention : Reuss Voigt Hill
#
# Bulk Modulus (GPa) = 18.38454 19.32771 18.85612
# Shear Modulus (GPa) = 9.81452 12.70617 11.26035
#
# Velocity S-wave (km/s) = 2.41600 2.74897 2.58785
# Velocity P-wave (km/s) = 4.32629 4.64443 4.48818
#
# Compressibility (1/GPa) = 0.05439353
#
# Stress axis : x y z
#
# Youngs Moduli (GPa) = 46.84517 46.84517 36.80079
#
# Poissons Ratio (x) = 0.25067 0.04390
# Poissons Ratio (y) = 0.25067 0.04390
# Poissons Ratio (z) = 0.05588 0.05588
#
# Static dielectric constant tensor:
#      x y z
#    x 1.566570 0.000000 0.000000 
#    y 0.000000 1.566570 0.000000 
#    z 0.000000 0.000000 1.663140 
# 
# From -- ./inp_files/7916.got.cif
#   From: 2010.05.17/outbox.cif.g08.bks.cpg/sg131_4_cif.got.tgz:7916.got - 2010.05.20 12:21:01.
