data_PCOD9566580
_publ_section_title
;
Structure prediction by ZEFSAII (Michael W. Deem and Ramdas Pophale) SiO2 
 PCOD9566580
Probable space group: P 42/M M C
;
_chemical_formula_sum "Si O2"
_cell_formula_units_Z 40
_cell_length_a 12.856968
_cell_length_b 12.856968
_cell_length_c 13.995585
_cell_angle_alpha 90.000000
_cell_angle_beta 90.000000
_cell_angle_gamma 90.000000
_cell_volume 2313.492959
_symmetry_space_group_name_H-M "P 42/M M C"
_symmetry_group_IT_number 131
_symmetry_cell_setting 'tetragonal'
loop_
_space_group_symop_operation_xyz
x,y,z
-x,-y,z
-y,x,1/2+z
y,-x,1/2+z
-x,y,-z
x,-y,-z
y,x,1/2-z
-y,-x,1/2-z
-x,-y,-z
x,y,-z
y,-x,1/2-z
-y,x,1/2-z
x,-y,z
-x,y,z
-y,-x,1/2+z
y,x,1/2+z
loop_
_atom_site_type_symbol
_atom_site_label
_atom_site_fract_x
_atom_site_fract_y
_atom_site_fract_z
Si Si1 0.000000 0.882899 0.384861
Si Si2 0.751707 0.202947 0.113439
Si Si3 0.378335 0.124758 0.721729
O O1 0.895232 0.824021 0.358883
O O2 0.000000 0.885048 0.500000
O O3 0.000000 0.000000 0.350985
O O4 0.814223 0.304806 0.147253
O O5 0.650244 0.178702 0.176838
O O6 0.733353 0.203626 0.000000
O O7 0.500000 0.136868 0.700276
O O8 0.356366 0.000000 0.723557
#
# Coordination Sequence:
#
# PCOD9566580 Si02
#       3
#     8  16  16
#     4   9  16  28  49  77 108 139 173 214 266 332
#     4  10  20  35  54  80 111 147 187 227 276 331
#     4  10  21  36  54  81 115 149 186 229 277 330
#
# _framework density 17.289874999999999
#
# number of rings (size 3 to 8) (size 9 to 14) (size 15 to 20)
#    0.000    2.200    2.000    1.200    0.000    4.000 
#    0.000    4.000    0.000    9.600    0.000   11.200 
#    0.000    0.000    0.000    0.000    0.000    0.000 
#
# Total GULP energy -222990.352800 kJ/mol
# GULP energy per Si atom -5574.758820 kJ/mol
# Density = 1.725052 g / cm^3
# Si number density = 17.289875 Si / 1000 Ang^3
#
#
#
# Elastic Constant Matrix: (Units=GPa)
#
#
# Indices 1 2 3 4 5 6 
#
# 1 86.6762 22.7563 2.3080 0.0000 0.0000 0.0000
# 2 22.7563 86.6762 2.3080 0.0000 0.0000 0.0000
# 3 2.3080 2.3080 72.3747 0.0000 0.0000 0.0000
# 4 0.0000 0.0000 0.0000 14.4063 0.0000 0.0000
# 5 0.0000 0.0000 0.0000 0.0000 14.4063 0.0000
# 6 0.0000 0.0000 0.0000 0.0000 0.0000 24.4821
#
#
#
# Elastic Compliance Matrix: (Units=1/GPa)
#
#
# Indices 1 2 3 4 5 6 
#
# 1 0.012397 -0.003247 -0.000292 0.000000 0.000000 0.000000
# 2 -0.003247 0.012397 -0.000292 0.000000 0.000000 0.000000
# 3 -0.000292 -0.000292 0.013836 0.000000 0.000000 0.000000
# 4 0.000000 0.000000 0.000000 0.069414 0.000000 0.000000
# 5 0.000000 0.000000 0.000000 0.000000 0.069414 0.000000
# 6 0.000000 0.000000 0.000000 0.000000 0.000000 0.040846
#
#
# Mechanical properties :
#
#
# Convention : Reuss Voigt Hill
#
# Bulk Modulus (GPa) = 32.29022 33.38573 32.83798
# Shear Modulus (GPa) = 21.16050 25.21594 23.18822
#
# Velocity S-wave (km/s) = 3.50218 3.82307 3.66614
# Velocity P-wave (km/s) = 5.92199 6.23211 6.07903
#
# Compressibility (1/GPa) = 0.03096913
#
# Stress axis : x y z
#
# Youngs Moduli (GPa) = 80.66165 80.66165 72.27738
#
# Poissons Ratio (x) = 0.26192 0.02109
# Poissons Ratio (y) = 0.26192 0.02109
# Poissons Ratio (z) = 0.02354 0.02354
#
# Static dielectric constant tensor:
#      x y z
#    x 1.579290 0.000000 0.000000 
#    y 0.000000 1.579290 0.000000 
#    z 0.000000 0.000000 1.610820 
# 
# From -- ./inp_files/4977.got.cif
#   From: 2010.05.17/outbox.cif.g08.bks.cpg/sg131_3_cif.got.tgz:4977.got - 2010.05.20 12:21:01.
