data_PCOD9566020
_publ_section_title
;
Structure prediction by ZEFSAII (Michael W. Deem and Ramdas Pophale) SiO2 
 PCOD9566020
Probable space group: P 4/N C C
;
_chemical_formula_sum "Si O2"
_cell_formula_units_Z 96
_cell_length_a 24.000000
_cell_length_b 24.000000
_cell_length_c 9.000000
_cell_angle_alpha 90.000000
_cell_angle_beta 90.000000
_cell_angle_gamma 90.000000
_cell_volume 5184.000000
_symmetry_space_group_name_H-M "P 4/N C C"
_symmetry_group_IT_number 130
_symmetry_cell_setting 'tetragonal'
loop_
_space_group_symop_operation_xyz
x,y,z
1/2-y,x,z
1/2-x,1/2-y,z
y,1/2-x,z
1/2+x,-y,1/2-z
-x,1/2+y,1/2-z
1/2+y,1/2+x,1/2-z
-y,-x,1/2-z
-x,-y,-z
1/2+y,-x,-z
1/2+x,1/2+y,-z
-y,1/2+x,-z
1/2-x,y,1/2+z
x,1/2-y,1/2+z
1/2-y,1/2-x,1/2+z
y,x,1/2+z
loop_
_atom_site_type_symbol
_atom_site_label
_atom_site_fract_x
_atom_site_fract_y
_atom_site_fract_z
Si Si1 0.382388 0.174777 0.443287
Si Si2 0.481839 0.764395 0.305525
Si Si3 0.208075 0.102913 0.780213
Si Si4 0.826470 0.005978 0.592394
Si Si5 0.126962 0.843471 0.084946
Si Si6 0.286032 0.864388 0.340400
O O1 0.375662 0.195058 0.613234
O O2 0.335976 0.131654 0.389778
O O3 0.382650 0.229895 0.338631
O O4 0.444840 0.149019 0.427120
O O5 0.535499 0.794836 0.232318
O O6 0.491031 0.773782 0.479326
O O7 0.420715 0.785533 0.258189
O O8 0.486351 0.700541 0.253937
O O9 0.857362 0.062589 0.549357
O O10 0.136568 0.863433 0.250000
O O11 0.139481 0.776556 0.094810
O O12 0.170605 0.870402 0.973991
O O13 0.310933 0.810933 0.250000
#
# Coordination Sequence:
#
# PCOD9566020 Si02
#       6
#    16  16  16  16  16  16
#     4  10  20  36  58  85 114 143 178 218 264 316
#     4   9  19  34  55  76 103 143 183 219 259 316
#     4  10  20  36  57  86 113 144 178 217 265 314
#     4   9  19  35  54  76 104 141 185 219 259 316
#     4  11  23  34  51  79 106 143 180 225 274 326
#     4  11  21  36  53  75 108 142 181 221 276 325
#
# _framework density 18.518519000000001
#
# number of rings (size 3 to 8) (size 9 to 14) (size 15 to 20)
#    0.000    2.000    1.667    2.000    7.000    3.667 
#    0.000    1.667    0.000    2.000    0.000    0.000 
#    0.000    0.000    0.000    0.000    0.000    0.000 
#
# Total GULP energy -534988.030621 kJ/mol
# GULP energy per Si atom -5572.791986 kJ/mol
# Density = 1.847637 g / cm^3
# Si number density = 18.518519 Si / 1000 Ang^3
#
#
#
# Elastic Constant Matrix: (Units=GPa)
#
#
# Indices 1 2 3 4 5 6 
#
# 1 58.2692 24.2154 0.9679 0.0000 0.0000 0.0000
# 2 24.2154 58.2676 0.9683 0.0000 0.0000 0.0000
# 3 0.9679 0.9683 65.5160 0.0000 0.0000 0.0000
# 4 0.0000 0.0000 0.0000 27.0052 0.0000 0.0000
# 5 0.0000 0.0000 0.0000 0.0000 27.0048 0.0000
# 6 0.0000 0.0000 0.0000 0.0000 0.0000 2.2841
#
#
#
# Elastic Compliance Matrix: (Units=1/GPa)
#
#
# Indices 1 2 3 4 5 6 
#
# 1 0.020747 -0.008619 -0.000179 0.000000 0.000000 0.000000
# 2 -0.008619 0.020747 -0.000179 0.000000 0.000000 0.000000
# 3 -0.000179 -0.000179 0.015269 0.000000 0.000000 0.000000
# 4 0.000000 0.000000 0.000000 0.037030 0.000000 0.000000
# 5 0.000000 0.000000 0.000000 0.000000 0.037030 0.000000
# 6 0.000000 0.000000 0.000000 0.000000 0.000000 0.437816
#
#
# Mechanical properties :
#
#
# Convention : Reuss Voigt Hill
#
# Bulk Modulus (GPa) = 25.76819 26.03954 25.90387
# Shear Modulus (GPa) = 8.33987 21.65222 14.99604
#
# Velocity S-wave (km/s) = 2.12445 3.42310 2.84876
# Velocity P-wave (km/s) = 4.46797 5.45118 4.98388
#
# Compressibility (1/GPa) = 0.03880753
#
# Stress axis : x y z
#
# Youngs Moduli (GPa) = 48.20059 48.19931 65.49332
#
# Poissons Ratio (x) = 0.41544 0.01173
# Poissons Ratio (y) = 0.41545 0.01174
# Poissons Ratio (z) = 0.00863 0.00864
#
# Static dielectric constant tensor:
#      x y z
#    x 1.644650 0.000000 0.000000 
#    y 0.000000 1.644650 0.000000 
#    z 0.000000 0.000000 1.695120 
# 
# From -- ./inp_files/905.got.cif
#   From: 2010.05.17/outbox.ucp.g08.bks.cvg/sg130_1_cif.got.tgz:905.got - 2010.06.11 11:38:29.
