data_PCOD9566421
_publ_section_title
;
Structure prediction by ZEFSAII (Michael W. Deem and Ramdas Pophale) SiO2 
 PCOD9566421
Probable space group: P 42/M M C
;
_chemical_formula_sum "Si O2"
_cell_formula_units_Z 96
_cell_length_a 25.497892
_cell_length_b 25.497892
_cell_length_c 9.407005
_cell_angle_alpha 90.000000
_cell_angle_beta 90.000000
_cell_angle_gamma 90.000000
_cell_volume 6115.893715
_symmetry_space_group_name_H-M "P 42/M M C"
_symmetry_group_IT_number 131
_symmetry_cell_setting 'tetragonal'
loop_
_space_group_symop_operation_xyz
x,y,z
-x,-y,z
-y,x,1/2+z
y,-x,1/2+z
-x,y,-z
x,-y,-z
y,x,1/2-z
-y,-x,1/2-z
-x,-y,-z
x,y,-z
y,-x,1/2-z
-y,x,1/2-z
x,-y,z
-x,y,z
-y,-x,1/2+z
y,x,1/2+z
loop_
_atom_site_type_symbol
_atom_site_label
_atom_site_fract_x
_atom_site_fract_y
_atom_site_fract_z
Si Si1 0.437646 0.860433 0.168872
Si Si2 0.062037 0.638766 0.170285
Si Si3 0.561567 0.638933 0.670961
Si Si4 0.242841 0.436410 0.837617
Si Si5 0.062821 0.860853 0.332013
Si Si6 0.063638 0.757471 0.162883
O O1 0.500000 0.867587 0.197042
O O2 0.403712 0.904727 0.245549
O O3 0.421506 0.804242 0.234475
O O4 0.430015 0.861334 0.000000
O O5 0.079354 0.698501 0.205309
O O6 0.000000 0.633888 0.201354
O O7 0.068395 0.632381 0.000000
O O8 0.596738 0.596738 0.750000
O O9 0.565576 0.633698 0.500000
O O10 0.500000 0.633194 0.708032
O O11 0.579186 0.698452 0.706457
O O12 0.244162 0.500000 0.841162
O O13 0.232743 0.418801 0.000000
O O14 0.094146 0.905855 0.250000
O O15 0.073333 0.862759 0.500000
O O16 0.078986 0.804661 0.265788
O O17 0.000000 0.866618 0.311289
O O18 0.000000 0.756404 0.160732
O O19 0.080710 0.767532 0.000000
#
# Coordination Sequence:
#
# PCOD9566421 Si02
#       6
#    16  16  16  16  16  16
#     4  10  20  31  45  69  98 125 154 191 235 277
#     4   9  18  32  50  71  94 124 159 190 226 275
#     4   9  18  31  47  69  95 123 155 190 230 275
#     4   8  15  30  49  65  85 118 159 196 228 270
#     4  10  20  32  48  71  97 126 158 191 231 277
#     4   8  15  30  50  69  90 118 155 196 232 270
#
# _framework density 15.696806
#
# number of rings (size 3 to 8) (size 9 to 14) (size 15 to 20)
#    0.000    3.000    0.000    3.000    0.000    4.667 
#    0.000    6.667    0.000    1.000    0.000    4.667 
#    0.000    0.000    0.000    0.000    0.000    0.000 
#
# Total GULP energy -534675.889923 kJ/mol
# GULP energy per Si atom -5569.540520 kJ/mol
# Density = 1.566108 g / cm^3
# Si number density = 15.696806 Si / 1000 Ang^3
#
#
#
# Elastic Constant Matrix: (Units=GPa)
#
#
# Indices 1 2 3 4 5 6 
#
# 1 89.4388 64.0372 68.5860 0.0000 0.0000 0.0000
# 2 64.0372 89.4320 68.5861 0.0000 0.0000 0.0000
# 3 68.5860 68.5861 81.2056 0.0000 0.0000 0.0000
# 4 0.0000 0.0000 0.0000 24.8580 0.0000 0.0000
# 5 0.0000 0.0000 0.0000 0.0000 24.8583 0.0000
# 6 0.0000 0.0000 0.0000 0.0000 0.0000 -5.3522
#
#
#
# Elastic Compliance Matrix: (Units=1/GPa)
#
#
# Indices 1 2 3 4 5 6 
#
# 1 0.032975 -0.006395 -0.022449 0.000000 0.000000 0.000000
# 2 -0.006395 0.032982 -0.022456 0.000000 0.000000 0.000000
# 3 -0.022449 -0.022456 0.050241 0.000000 0.000000 0.000000
# 4 0.000000 0.000000 0.000000 0.040228 0.000000 0.000000
# 5 0.000000 0.000000 0.000000 0.000000 0.040228 0.000000
# 6 0.000000 0.000000 0.000000 0.000000 0.000000 -0.186838
#
#
# Mechanical properties :
#
#
# Convention : Reuss Voigt Hill
#
# Bulk Modulus (GPa) = 73.53809 73.61058 73.57433
# Shear Modulus (GPa) = 42.75412 12.79729 27.77571
#
# Velocity S-wave (km/s) = 5.22461 2.85841 4.21112
# Velocity P-wave (km/s) = 9.12942 7.60862 8.40349
#
# Compressibility (1/GPa) = 0.01359840
#
# Stress axis : x y z
#
# Youngs Moduli (GPa) = 30.32637 30.31971 19.90406
#
# Poissons Ratio (x) = 0.19388 0.44683
# Poissons Ratio (y) = 0.19393 0.44696
# Poissons Ratio (z) = 0.68081 0.68084
#
# Static dielectric constant tensor:
#      x y z
#    x 1.515790 0.000000 0.000000 
#    y 0.000000 1.515790 0.000000 
#    z 0.000000 0.000000 1.518830 
# 
# From -- ./inp_files/2217.got.cif
#   From: 2010.05.17/outbox.cif.g08.bks.cpg/sg131_2_cif.got.tgz:2217.got - 2010.05.20 12:21:01.
