data_PCOD9566116
_publ_section_title
;
Structure prediction by ZEFSAII (Michael W. Deem and Ramdas Pophale) SiO2 
 PCOD9566116
Probable space group: P 42/M M C
;
_chemical_formula_sum "Si O2"
_cell_formula_units_Z 42
_cell_length_a 11.379018
_cell_length_b 11.379018
_cell_length_c 15.319170
_cell_angle_alpha 90.000000
_cell_angle_beta 90.000000
_cell_angle_gamma 90.000000
_cell_volume 1983.557546
_symmetry_space_group_name_H-M "P 42/M M C"
_symmetry_group_IT_number 131
_symmetry_cell_setting 'tetragonal'
loop_
_space_group_symop_operation_xyz
x,y,z
-x,-y,z
-y,x,1/2+z
y,-x,1/2+z
-x,y,-z
x,-y,-z
y,x,1/2-z
-y,-x,1/2-z
-x,-y,-z
x,y,-z
y,-x,1/2-z
-y,x,1/2-z
x,-y,z
-x,y,z
-y,-x,1/2+z
y,x,1/2+z
loop_
_atom_site_type_symbol
_atom_site_label
_atom_site_fract_x
_atom_site_fract_y
_atom_site_fract_z
Si Si1 0.751874 0.750093 0.645113
Si Si2 0.500000 0.249568 0.342100
Si Si3 0.861411 0.500000 0.348712
Si Si4 0.500000 0.500000 0.750000
Si Si5 0.869080 0.000000 0.604389
O O1 0.738727 0.738727 0.750000
O O2 0.621182 0.765294 0.608181
O O3 0.808832 0.624950 0.617205
O O4 0.815111 0.874069 0.630206
O O5 0.500000 0.166330 0.255799
O O6 0.500000 0.383313 0.307190
O O7 0.000000 0.500000 0.363670
O O8 0.870635 0.000000 0.500000
O O9 0.000000 0.000000 0.640408
#
# Coordination Sequence:
#
# PCOD9566116 Si02
#       5
#    16   8   8   2   8
#     4  10  21  35  60  87 117 154 201 248 301 361
#     4  10  18  30  54  87 119 148 191 249 305 345
#     4  10  18  30  51  85 116 144 196 249 282 349
#     4  12  12  36  52  88 134 152 176 256 326 328
#     4  11  26  43  57  83 125 164 200 248 301 360
#
# _framework density 21.174078999999999
#
# number of rings (size 3 to 8) (size 9 to 14) (size 15 to 20)
#    0.000    1.714    5.714    1.143   13.333    0.000 
#    0.000    2.857    0.000    3.429    0.000    4.000 
#    0.000    0.000    0.000    0.000    0.000    0.000 
#
# Total GULP energy -234095.954910 kJ/mol
# GULP energy per Si atom -5573.713212 kJ/mol
# Density = 2.112589 g / cm^3
# Si number density = 21.174079 Si / 1000 Ang^3
#
#
#
# Elastic Constant Matrix: (Units=GPa)
#
#
# Indices 1 2 3 4 5 6 
#
# 1 229.4256 115.4301 2.1351 0.0000 0.0000 0.0000
# 2 115.4301 229.4256 2.1351 0.0000 0.0000 0.0000
# 3 2.1351 2.1351 37.7342 0.0000 0.0000 0.0000
# 4 0.0000 0.0000 0.0000 84.0298 0.0000 0.0000
# 5 0.0000 0.0000 0.0000 0.0000 84.0298 0.0000
# 6 0.0000 0.0000 0.0000 0.0000 0.0000 45.0020
#
#
#
# Elastic Compliance Matrix: (Units=1/GPa)
#
#
# Indices 1 2 3 4 5 6 
#
# 1 0.005837 -0.002935 -0.000164 0.000000 0.000000 0.000000
# 2 -0.002935 0.005837 -0.000164 0.000000 0.000000 0.000000
# 3 -0.000164 -0.000164 0.026520 0.000000 0.000000 0.000000
# 4 0.000000 0.000000 0.000000 0.011901 0.000000 0.000000
# 5 0.000000 0.000000 0.000000 0.000000 0.011901 0.000000
# 6 0.000000 0.000000 0.000000 0.000000 0.000000 0.022221
#
#
# Mechanical properties :
#
#
# Convention : Reuss Voigt Hill
#
# Bulk Modulus (GPa) = 31.57900 81.77619 56.67760
# Shear Modulus (GPa) = 49.35886 67.73797 58.54842
#
# Velocity S-wave (km/s) = 4.83338 5.66219 5.26413
# Velocity P-wave (km/s) = 6.78934 9.02508 7.98584
#
# Compressibility (1/GPa) = 0.03166661
#
# Stress axis : x y z
#
# Youngs Moduli (GPa) = 171.31977 171.31977 37.70772
#
# Poissons Ratio (x) = 0.50286 0.00619
# Poissons Ratio (y) = 0.50286 0.00619
# Poissons Ratio (z) = 0.02813 0.02813
#
# Static dielectric constant tensor:
#      x y z
#    x 1.856610 0.000000 0.000000 
#    y 0.000000 1.856610 0.000000 
#    z 0.000000 0.000000 1.758030 
# 
# From -- ./inp_files/6955.got.cif
#   From: 2010.05.17/outbox.cif.g08.bks.cpg/sg131_4_cif.got.tgz:6955.got - 2010.05.20 12:21:01.
