data_PCOD9566368
_publ_section_title
;
Structure prediction by ZEFSAII (Michael W. Deem and Ramdas Pophale) SiO2 
 PCOD9566368
Probable space group: P 42/M M C
;
_chemical_formula_sum "Si O2"
_cell_formula_units_Z 72
_cell_length_a 20.676171
_cell_length_b 20.676171
_cell_length_c 9.815035
_cell_angle_alpha 90.000000
_cell_angle_beta 90.000000
_cell_angle_gamma 90.000000
_cell_volume 4195.967186
_symmetry_space_group_name_H-M "P 42/M M C"
_symmetry_group_IT_number 131
_symmetry_cell_setting 'tetragonal'
loop_
_space_group_symop_operation_xyz
x,y,z
-x,-y,z
-y,x,1/2+z
y,-x,1/2+z
-x,y,-z
x,-y,-z
y,x,1/2-z
-y,-x,1/2-z
-x,-y,-z
x,y,-z
y,-x,1/2-z
-y,x,1/2-z
x,-y,z
-x,y,z
-y,-x,1/2+z
y,x,1/2+z
loop_
_atom_site_type_symbol
_atom_site_label
_atom_site_fract_x
_atom_site_fract_y
_atom_site_fract_z
Si Si1 0.100967 0.349060 0.162971
Si Si2 0.357186 0.251217 0.734485
Si Si3 0.576858 0.333880 0.500000
Si Si4 0.000000 0.241824 0.837287
Si Si5 0.576507 0.300816 0.000000
Si Si6 0.000000 0.423297 0.657406
Si Si7 0.092701 0.000000 0.669374
O O1 0.176958 0.348497 0.193545
O O2 0.063883 0.282369 0.200446
O O3 0.062262 0.399832 0.256341
O O4 0.091503 0.360823 0.000000
O O5 0.289052 0.289052 0.750000
O O6 0.400655 0.290444 0.626757
O O7 0.395259 0.262017 0.873074
O O8 0.500000 0.347641 0.500000
O O9 0.625723 0.395045 0.500000
O O10 0.000000 0.168063 0.796304
O O11 0.000000 0.240782 0.000000
O O12 0.500000 0.303089 0.000000
O O13 0.000000 0.500000 0.651628
O O14 0.000000 0.398680 0.500000
O O15 0.059612 0.940389 0.750000
O O16 0.083392 0.000000 0.500000
#
# Coordination Sequence:
#
# PCOD9566368 Si02
#       7
#    16  16   8   8   8   8   8
#     4  10  20  39  60  80 109 148 191 234 277 330
#     4  10  21  37  58  83 114 147 188 240 289 338
#     4  10  20  37  58  83 109 143 194 240 280 342
#     4   8  18  35  57  79 106 143 182 226 272 319
#     4  10  22  37  54  81 117 151 182 230 294 350
#     4  10  23  39  54  81 116 144 180 230 282 335
#     4  10  19  34  56  81 114 146 181 224 266 315
#
# _framework density 17.159333
#
# number of rings (size 3 to 8) (size 9 to 14) (size 15 to 20)
#    0.000    2.222    1.111    2.333    1.556    3.778 
#    0.000    4.444    0.000    4.000    0.000    0.000 
#    0.000    0.000    0.000    0.000    0.000    0.000 
#
# Total GULP energy -400975.090134 kJ/mol
# GULP energy per Si atom -5569.098474 kJ/mol
# Density = 1.712028 g / cm^3
# Si number density = 17.159333 Si / 1000 Ang^3
#
#
#
# Elastic Constant Matrix: (Units=GPa)
#
#
# Indices 1 2 3 4 5 6 
#
# 1 134.7202 50.9908 46.6156 0.0000 0.0000 0.0000
# 2 50.9908 134.7209 46.6153 0.0000 0.0000 0.0000
# 3 46.6156 46.6153 138.1999 0.0000 0.0000 0.0000
# 4 0.0000 0.0000 0.0000 32.2867 0.0000 0.0000
# 5 0.0000 0.0000 0.0000 0.0000 32.2867 0.0000
# 6 0.0000 0.0000 0.0000 0.0000 0.0000 8.8487
#
#
#
# Elastic Compliance Matrix: (Units=1/GPa)
#
#
# Indices 1 2 3 4 5 6 
#
# 1 0.009213 -0.002730 -0.002187 0.000000 0.000000 0.000000
# 2 -0.002730 0.009213 -0.002187 0.000000 0.000000 0.000000
# 3 -0.002187 -0.002187 0.008711 0.000000 0.000000 0.000000
# 4 0.000000 0.000000 0.000000 0.030972 0.000000 0.000000
# 5 0.000000 0.000000 0.000000 0.000000 0.030973 0.000000
# 6 0.000000 0.000000 0.000000 0.000000 0.000000 0.113011
#
#
# Mechanical properties :
#
#
# Convention : Reuss Voigt Hill
#
# Bulk Modulus (GPa) = 77.34209 77.34274 77.34241
# Shear Modulus (GPa) = 22.66454 32.24571 27.45512
#
# Velocity S-wave (km/s) = 3.63826 4.33967 4.00435
# Velocity P-wave (km/s) = 7.92591 8.38340 8.15786
#
# Compressibility (1/GPa) = 0.01292957
#
# Stress axis : x y z
#
# Youngs Moduli (GPa) = 108.54442 108.54518 114.79802
#
# Poissons Ratio (x) = 0.29637 0.25101
# Poissons Ratio (y) = 0.29637 0.25101
# Poissons Ratio (z) = 0.23734 0.23734
#
# Static dielectric constant tensor:
#      x y z
#    x 1.574950 0.000000 0.000000 
#    y 0.000000 1.574950 0.000000 
#    z 0.000000 0.000000 1.404600 
# 
# From -- ./inp_files/1926.got.cif
#   From: 2010.05.17/outbox.cif.g08.bks.cpg/sg131_1_cif.got.tgz:1926.got - 2010.05.20 12:21:01.
