data_PCOD9566455
_publ_section_title
;
Structure prediction by ZEFSAII (Michael W. Deem and Ramdas Pophale) SiO2 
 PCOD9566455
Probable space group: P 42/M M C
;
_chemical_formula_sum "Si O2"
_cell_formula_units_Z 72
_cell_length_a 13.791894
_cell_length_b 13.791894
_cell_length_c 22.407009
_cell_angle_alpha 90.000000
_cell_angle_beta 90.000000
_cell_angle_gamma 90.000000
_cell_volume 4262.179245
_symmetry_space_group_name_H-M "P 42/M M C"
_symmetry_group_IT_number 131
_symmetry_cell_setting 'tetragonal'
loop_
_space_group_symop_operation_xyz
x,y,z
-x,-y,z
-y,x,1/2+z
y,-x,1/2+z
-x,y,-z
x,-y,-z
y,x,1/2-z
-y,-x,1/2-z
-x,-y,-z
x,y,-z
y,-x,1/2-z
-y,x,1/2-z
x,-y,z
-x,y,z
-y,-x,1/2+z
y,x,1/2+z
loop_
_atom_site_type_symbol
_atom_site_label
_atom_site_fract_x
_atom_site_fract_y
_atom_site_fract_z
Si Si1 0.860630 0.860630 0.750000
Si Si2 0.102931 0.000000 0.857830
Si Si3 0.000000 0.298632 0.570899
Si Si4 0.608004 0.811396 0.866758
Si Si5 0.610820 0.316516 0.684416
Si Si6 0.110705 0.365812 0.234781
O O1 0.891238 0.912437 0.810678
O O2 0.883412 0.749409 0.759526
O O3 0.190783 0.000000 0.902646
O O4 0.000000 0.000000 0.889281
O O5 0.101291 0.344418 0.595317
O O6 0.000000 0.302911 0.500000
O O7 0.500000 0.793167 0.889843
O O8 0.657441 0.704980 0.856559
O O9 0.601160 0.858555 0.800765
O O10 0.638360 0.361641 0.750000
O O11 0.500000 0.348480 0.668406
O O12 0.606925 0.199764 0.692078
O O13 0.000000 0.393182 0.220082
#
# Coordination Sequence:
#
# PCOD9566455 Si02
#       6
#     8   8   8  16  16  16
#     4  12  15  28  50  80 115 150 184 224 272 335
#     4  12  20  32  55  86 112 153 189 218 273 336
#     4  12  25  41  58  81 115 148 193 247 286 331
#     4  11  21  35  54  74 101 143 194 239 286 344
#     4  10  20  32  49  79 116 150 186 232 293 360
#     4  11  17  27  47  74 113 150 184 225 283 345
#
# _framework density 16.892766000000002
#
# number of rings (size 3 to 8) (size 9 to 14) (size 15 to 20)
#    0.000    0.889    8.889    3.000    0.000    4.000 
#    0.000    0.000    0.000    0.667    0.000    1.556 
#    0.000    0.000    0.000    8.667    0.000    0.000 
#
# Total GULP energy -400853.610723 kJ/mol
# GULP energy per Si atom -5567.411260 kJ/mol
# Density = 1.685432 g / cm^3
# Si number density = 16.892766 Si / 1000 Ang^3
#
#
#
# Elastic Constant Matrix: (Units=GPa)
#
#
# Indices 1 2 3 4 5 6 
#
# 1 171.0099 48.2359 40.2529 0.0000 0.0000 0.0000
# 2 48.2359 171.0097 40.2532 0.0000 0.0000 0.0000
# 3 40.2529 40.2532 65.1816 0.0000 0.0000 0.0000
# 4 0.0000 0.0000 0.0000 -24.0629 0.0000 0.0000
# 5 0.0000 0.0000 0.0000 0.0000 -24.0631 0.0000
# 6 0.0000 0.0000 0.0000 0.0000 0.0000 -2.6910
#
#
#
# Elastic Compliance Matrix: (Units=1/GPa)
#
#
# Indices 1 2 3 4 5 6 
#
# 1 0.007022 -0.001123 -0.003643 0.000000 0.000000 0.000000
# 2 -0.001123 0.007022 -0.003643 0.000000 0.000000 0.000000
# 3 -0.003643 -0.003643 0.019841 0.000000 0.000000 0.000000
# 4 0.000000 0.000000 0.000000 -0.041558 0.000000 0.000000
# 5 0.000000 0.000000 0.000000 0.000000 -0.041557 0.000000
# 6 0.000000 0.000000 0.000000 0.000000 0.000000 -0.371614
#
#
# Mechanical properties :
#
#
# Convention : Reuss Voigt Hill
#
# Bulk Modulus (GPa) = 58.59155 73.85392 66.22274
# Shear Modulus (GPa) = -12.55215 8.40054 -2.07580
#
# Velocity S-wave (km/s) = -2.72885 2.23241 -1.10972
# Velocity P-wave (km/s) = 4.98306 7.10345 6.13555
#
# Compressibility (1/GPa) = 0.01706731
#
# Stress axis : x y z
#
# Youngs Moduli (GPa) = 142.41231 142.41184 50.40088
#
# Poissons Ratio (x) = 0.15995 0.18360
# Poissons Ratio (y) = 0.15995 0.18360
# Poissons Ratio (z) = 0.51877 0.51877
#
# Static dielectric constant tensor:
#      x y z
#    x 1.508030 0.000000 0.000000 
#    y 0.000000 1.508020 0.000000 
#    z 0.000000 0.000000 1.511940 
# 
# From -- ./inp_files/7658.got.cif
#   From: 2010.05.17/outbox.cif.g08.bks.cpg/sg131_4_cif.got.tgz:7658.got - 2010.05.20 12:21:01.
