data_PCOD9566166
_publ_section_title
;
Structure prediction by ZEFSAII (Michael W. Deem and Ramdas Pophale) SiO2 
 PCOD9566166
Probable space group: P 42/M M C
;
_chemical_formula_sum "Si O2"
_cell_formula_units_Z 80
_cell_length_a 23.768114
_cell_length_b 23.768114
_cell_length_c 7.823238
_cell_angle_alpha 90.000000
_cell_angle_beta 90.000000
_cell_angle_gamma 90.000000
_cell_volume 4419.528983
_symmetry_space_group_name_H-M "P 42/M M C"
_symmetry_group_IT_number 131
_symmetry_cell_setting 'tetragonal'
loop_
_space_group_symop_operation_xyz
x,y,z
-x,-y,z
-y,x,1/2+z
y,-x,1/2+z
-x,y,-z
x,-y,-z
y,x,1/2-z
-y,-x,1/2-z
-x,-y,-z
x,y,-z
y,-x,1/2-z
-y,x,1/2-z
x,-y,z
-x,y,z
-y,-x,1/2+z
y,x,1/2+z
loop_
_atom_site_type_symbol
_atom_site_label
_atom_site_fract_x
_atom_site_fract_y
_atom_site_fract_z
Si Si1 0.500000 0.589592 0.201824
Si Si2 0.287380 0.500000 0.290582
Si Si3 0.916264 0.562617 0.199756
Si Si4 0.689665 0.939396 0.202380
Si Si5 0.276439 0.183923 0.205658
Si Si6 0.401667 0.206982 0.792471
O O1 0.553966 0.553966 0.250000
O O2 0.500000 0.650499 0.279776
O O3 0.500000 0.595454 0.000000
O O4 0.286735 0.500000 0.500000
O O5 0.256471 0.557152 0.239614
O O6 0.931986 0.500000 0.267451
O O7 0.937128 0.621568 0.278030
O O8 0.849478 0.570207 0.221016
O O9 0.931373 0.563425 0.000000
O O10 0.717692 0.881281 0.269333
O O11 0.708423 0.000000 0.274832
O O12 0.701141 0.939831 0.000000
O O13 0.222913 0.222913 0.250000
O O14 0.336386 0.211101 0.260669
O O15 0.277196 0.181097 0.000000
O O16 0.402120 0.202173 0.000000
#
# Coordination Sequence:
#
# PCOD9566166 Si02
#       6
#     8   8  16  16  16  16
#     4  10  20  35  50  64  82 107 139 181 238 299
#     4   9  17  30  51  70  85 111 152 197 236 276
#     4  10  19  29  43  67  98 127 155 192 240 281
#     4   9  19  35  52  69  91 125 169 205 230 270
#     4   9  18  31  49  72  96 123 155 192 237 283
#     4   9  17  31  49  67  89 123 162 195 228 274
#
# _framework density 18.101476999999999
#
# number of rings (size 3 to 8) (size 9 to 14) (size 15 to 20)
#    0.000    2.700    1.000    2.400    0.000    6.000 
#    0.000    4.000    0.000    0.000    0.000    0.000 
#    0.000    0.400    0.000    5.000    0.000    0.000 
#
# Total GULP energy -445518.170382 kJ/mol
# GULP energy per Si atom -5568.977130 kJ/mol
# Density = 1.806028 g / cm^3
# Si number density = 18.101477 Si / 1000 Ang^3
#
#
#
# Elastic Constant Matrix: (Units=GPa)
#
#
# Indices 1 2 3 4 5 6 
#
# 1 145.2965 80.1876 5.4742 0.0000 0.0000 0.0000
# 2 80.1876 145.2965 5.4742 0.0000 0.0000 0.0000
# 3 5.4742 5.4742 22.9803 0.0000 0.0000 0.0000
# 4 0.0000 0.0000 0.0000 74.4794 0.0000 0.0000
# 5 0.0000 0.0000 0.0000 0.0000 74.4794 0.0000
# 6 0.0000 0.0000 0.0000 0.0000 0.0000 -10.2458
#
#
#
# Elastic Compliance Matrix: (Units=1/GPa)
#
#
# Indices 1 2 3 4 5 6 
#
# 1 0.009923 -0.005436 -0.001069 0.000000 0.000000 0.000000
# 2 -0.005436 0.009923 -0.001069 0.000000 0.000000 0.000000
# 3 -0.001069 -0.001069 0.044025 0.000000 0.000000 0.000000
# 4 0.000000 0.000000 0.000000 0.013427 0.000000 0.000000
# 5 0.000000 0.000000 0.000000 0.000000 0.013427 0.000000
# 6 0.000000 0.000000 0.000000 0.000000 0.000000 -0.097601
#
#
# Mechanical properties :
#
#
# Convention : Reuss Voigt Hill
#
# Bulk Modulus (GPa) = 20.52414 55.09392 37.80903
# Shear Modulus (GPa) = 203.99225 42.57178 123.28201
#
# Velocity S-wave (km/s) = 10.62725 4.85484 8.26159
# Velocity P-wave (km/s) = 12.72586 7.86944 10.58007
#
# Compressibility (1/GPa) = 0.04872311
#
# Stress axis : x y z
#
# Youngs Moduli (GPa) = 100.77766 100.77766 22.71449
#
# Poissons Ratio (x) = 0.54783 0.02428
# Poissons Ratio (y) = 0.54783 0.02428
# Poissons Ratio (z) = 0.10771 0.10771
#
# Static dielectric constant tensor:
#      x y z
#    x 1.687390 0.000000 0.000000 
#    y 0.000000 1.687390 0.000000 
#    z 0.000000 0.000000 1.676560 
# 
# From -- ./inp_files/2129.got.cif
#   From: 2010.05.17/outbox.cif.g08.bks.cpg/sg131_2_cif.got.tgz:2129.got - 2010.05.20 12:21:01.
