data_PCOD9566943
_publ_section_title
;
Structure prediction by ZEFSAII (Michael W. Deem and Ramdas Pophale) SiO2 
 PCOD9566943
Probable space group: P 42/M C M
;
_chemical_formula_sum "Si O2"
_cell_formula_units_Z 96
_cell_length_a 19.991176
_cell_length_b 19.991176
_cell_length_c 17.337804
_cell_angle_alpha 90.000000
_cell_angle_beta 90.000000
_cell_angle_gamma 90.000000
_cell_volume 6929.003399
_symmetry_space_group_name_H-M "P 42/M C M"
_symmetry_group_IT_number 132
_symmetry_cell_setting 'tetragonal'
loop_
_space_group_symop_operation_xyz
x,y,z
-y,x,1/2+z
-x,-y,z
y,-x,1/2+z
x,-y,1/2-z
-x,y,1/2-z
y,x,-z
-y,-x,-z
-x,-y,-z
y,-x,1/2-z
x,y,-z
-y,x,1/2-z
-x,y,1/2+z
x,-y,1/2+z
-y,-x,z
y,x,z
loop_
_atom_site_type_symbol
_atom_site_label
_atom_site_fract_x
_atom_site_fract_y
_atom_site_fract_z
Si Si1 0.863840 0.237975 0.655974
Si Si2 0.351137 0.063598 0.410828
Si Si3 0.971967 0.862113 0.090306
Si Si4 0.097200 0.627890 0.587750
Si Si5 0.775615 0.939474 0.306523
Si Si6 0.919196 0.509331 0.661598
O O1 0.792441 0.207560 0.635610
O O2 0.918508 0.198180 0.603600
O O3 0.871048 0.316229 0.642242
O O4 0.882236 0.217596 0.743322
O O5 0.347700 0.083450 0.500000
O O6 0.282519 0.077377 0.366426
O O7 0.416780 0.094135 0.370542
O O8 0.360721 0.983011 0.408388
O O9 0.930177 0.930177 0.108852
O O10 0.032232 0.840310 0.147197
O O11 0.991318 0.864662 0.000000
O O12 0.118344 0.639777 0.500000
O O13 0.109886 0.551775 0.612349
O O14 0.752321 0.000000 0.250000
O O15 0.898782 0.500000 0.750000
O O16 0.000000 0.500000 0.658785
#
# Coordination Sequence:
#
# PCOD9566943 Si02
#       6
#    16  16  16  16  16  16
#     4  10  19  28  40  56  74  97 125 159 199 241
#     4  10  17  25  38  56  76 101 125 147 182 232
#     4   9  16  26  41  59  74  90 116 151 195 247
#     4  10  17  26  38  55  78 101 127 158 186 225
#     4  10  17  26  41  55  76  97 123 153 193 237
#     4   9  17  24  36  53  79 106 126 147 177 219
#
# _framework density 13.854806
#
# number of rings (size 3 to 8) (size 9 to 14) (size 15 to 20)
#    0.000    2.333    3.333    2.500    2.333    3.000 
#    0.000    0.000    0.000    2.500    0.000    4.667 
#    0.000    0.667    0.000    1.833    0.000    0.000 
#
# Total GULP energy -534579.999346 kJ/mol
# GULP energy per Si atom -5568.541660 kJ/mol
# Density = 1.382327 g / cm^3
# Si number density = 13.854806 Si / 1000 Ang^3
#
#
#
# Elastic Constant Matrix: (Units=GPa)
#
#
# Indices 1 2 3 4 5 6 
#
# 1 35.0927 32.0141 26.6203 0.0000 0.0000 0.0000
# 2 32.0141 35.0927 26.6203 0.0000 0.0000 0.0000
# 3 26.6203 26.6203 91.5450 0.0000 0.0000 0.0000
# 4 0.0000 0.0000 0.0000 6.1261 0.0000 0.0000
# 5 0.0000 0.0000 0.0000 0.0000 6.1261 0.0000
# 6 0.0000 0.0000 0.0000 0.0000 0.0000 7.1914
#
#
#
# Elastic Compliance Matrix: (Units=1/GPa)
#
#
# Indices 1 2 3 4 5 6 
#
# 1 0.172097 -0.152726 -0.005633 0.000000 0.000000 0.000000
# 2 -0.152726 0.172097 -0.005633 0.000000 0.000000 0.000000
# 3 -0.005633 -0.005633 0.014199 0.000000 0.000000 0.000000
# 4 0.000000 0.000000 0.000000 0.163237 0.000000 0.000000
# 5 0.000000 0.000000 0.000000 0.000000 0.163237 0.000000
# 6 0.000000 0.000000 0.000000 0.000000 0.000000 0.139056
#
#
# Mechanical properties :
#
#
# Convention : Reuss Voigt Hill
#
# Bulk Modulus (GPa) = 32.88445 36.91552 34.89999
# Shear Modulus (GPa) = 4.30277 8.98708 6.64493
#
# Velocity S-wave (km/s) = 1.76419 2.54965 2.19238
# Velocity P-wave (km/s) = 5.28549 5.94727 5.62612
#
# Compressibility (1/GPa) = 0.03040951
#
# Stress axis : x y z
#
# Youngs Moduli (GPa) = 5.81069 5.81069 70.42523
#
# Poissons Ratio (x) = 0.88744 0.39669
# Poissons Ratio (y) = 0.88744 0.39669
# Poissons Ratio (z) = 0.03273 0.03273
#
# Static dielectric constant tensor:
#      x y z
#    x 1.448210 0.000000 0.000000 
#    y 0.000000 1.448210 0.000000 
#    z 0.000000 0.000000 1.486110 
# 
# From -- ./inp_files/5018.got.cif
#   From: 2010.05.17/outbox.cif.g08.bks.cpg/sg132_3_cif.got.tgz:5018.got - 2010.05.20 12:30:18.
