data_PCOD9566194
_publ_section_title
;
Structure prediction by ZEFSAII (Michael W. Deem and Ramdas Pophale) SiO2 
 PCOD9566194
Probable space group: P 42/M M C
;
_chemical_formula_sum "Si O2"
_cell_formula_units_Z 96
_cell_length_a 15.219032
_cell_length_b 15.219032
_cell_length_c 23.476455
_cell_angle_alpha 90.000000
_cell_angle_beta 90.000000
_cell_angle_gamma 90.000000
_cell_volume 5437.591505
_symmetry_space_group_name_H-M "P 42/M M C"
_symmetry_group_IT_number 131
_symmetry_cell_setting 'tetragonal'
loop_
_space_group_symop_operation_xyz
x,y,z
-x,-y,z
-y,x,1/2+z
y,-x,1/2+z
-x,y,-z
x,-y,-z
y,x,1/2-z
-y,-x,1/2-z
-x,-y,-z
x,y,-z
y,-x,1/2-z
-y,x,1/2-z
x,-y,z
-x,y,z
-y,-x,1/2+z
y,x,1/2+z
loop_
_atom_site_type_symbol
_atom_site_label
_atom_site_fract_x
_atom_site_fract_y
_atom_site_fract_z
Si Si1 0.500000 0.399894 0.568856
Si Si2 0.778475 0.900304 0.286978
Si Si3 0.101529 0.095558 0.399208
Si Si4 0.258474 0.354110 0.069078
Si Si5 0.158108 0.718325 0.565033
Si Si6 0.602040 0.000000 0.069940
Si Si7 0.897933 0.600103 0.848426
O O1 0.500000 0.500000 0.590569
O O2 0.500000 0.405236 0.500000
O O3 0.583843 0.340448 0.584082
O O4 0.826881 0.826881 0.250000
O O5 0.832656 0.902127 0.346097
O O6 0.677083 0.882191 0.302441
O O7 0.785336 0.000000 0.262403
O O8 0.121111 0.182724 0.434415
O O9 0.000000 0.099529 0.380207
O O10 0.113490 0.000000 0.427955
O O11 0.278537 0.255414 0.089672
O O12 0.170205 0.385829 0.100108
O O13 0.246917 0.355417 0.000000
O O14 0.169890 0.688738 0.500000
O O15 0.086042 0.653721 0.591157
O O16 0.500000 0.000000 0.084858
O O17 0.608060 0.000000 0.000000
O O18 0.887958 0.500000 0.827171
O O19 0.000000 0.610972 0.866906
#
# Coordination Sequence:
#
# PCOD9566194 Si02
#       7
#     8  16  16  16  16   8  16
#     4   9  18  32  49  71 101 137 178 224 261 287
#     4  10  20  35  55  79 101 129 168 214 262 305
#     4  10  19  30  47  73 103 133 167 206 249 303
#     4  10  19  31  50  77 109 143 177 213 257 311
#     4  10  19  30  46  70 102 138 174 208 249 305
#     4   9  18  32  47  63  91 137 186 222 251 289
#     4  10  20  34  54  81 110 140 174 208 254 319
#
# _framework density 17.654875000000001
#
# number of rings (size 3 to 8) (size 9 to 14) (size 15 to 20)
#    0.000    2.167    3.333    0.500    0.000    2.167 
#    0.000    6.667    0.000    2.000    0.000    0.000 
#    0.000    0.000    0.000    0.000    0.000    0.000 
#
# Total GULP energy -534678.308970 kJ/mol
# GULP energy per Si atom -5569.565718 kJ/mol
# Density = 1.761469 g / cm^3
# Si number density = 17.654875 Si / 1000 Ang^3
#
#
#
# Elastic Constant Matrix: (Units=GPa)
#
#
# Indices 1 2 3 4 5 6 
#
# 1 160.2228 78.1803 24.5734 0.0000 0.0000 0.0000
# 2 78.1803 160.2228 24.5734 0.0000 0.0000 0.0000
# 3 24.5734 24.5734 22.9877 0.0000 0.0000 0.0000
# 4 0.0000 0.0000 0.0000 37.0555 0.0000 0.0000
# 5 0.0000 0.0000 0.0000 0.0000 37.0555 0.0000
# 6 0.0000 0.0000 0.0000 0.0000 0.0000 17.8022
#
#
#
# Elastic Compliance Matrix: (Units=1/GPa)
#
#
# Indices 1 2 3 4 5 6 
#
# 1 0.008785 -0.003404 -0.005751 0.000000 0.000000 0.000000
# 2 -0.003404 0.008785 -0.005751 0.000000 0.000000 0.000000
# 3 -0.005751 -0.005751 0.055798 0.000000 0.000000 0.000000
# 4 0.000000 0.000000 0.000000 0.026987 0.000000 0.000000
# 5 0.000000 0.000000 0.000000 0.000000 0.026987 0.000000
# 6 0.000000 0.000000 0.000000 0.000000 0.000000 0.056173
#
#
# Mechanical properties :
#
#
# Convention : Reuss Voigt Hill
#
# Bulk Modulus (GPa) = 22.96070 66.45421 44.70746
# Shear Modulus (GPa) = 21.94483 32.78973 27.36728
#
# Velocity S-wave (km/s) = 3.52943 4.31427 3.94144
# Velocity P-wave (km/s) = 5.44451 7.90820 6.78905
#
# Compressibility (1/GPa) = 0.04355267
#
# Stress axis : x y z
#
# Youngs Moduli (GPa) = 113.83673 113.83673 17.92191
#
# Poissons Ratio (x) = 0.38753 0.10308
# Poissons Ratio (y) = 0.38753 0.10308
# Poissons Ratio (z) = 0.65471 0.65471
#
# Static dielectric constant tensor:
#      x y z
#    x 1.619720 0.000000 0.000000 
#    y 0.000000 1.619720 0.000000 
#    z 0.000000 0.000000 1.590170 
# 
# From -- ./inp_files/11170.got.cif
#   From: 2010.05.17/outbox.cif.g08.bks.cpg/sg131_6_cif.got.tgz:11170.got - 2010.05.20 12:21:01.
