data_PCOD9566197
_publ_section_title
;
Structure prediction by ZEFSAII (Michael W. Deem and Ramdas Pophale) SiO2 
 PCOD9566197
Probable space group: P 42/M M C
;
_chemical_formula_sum "Si O2"
_cell_formula_units_Z 104
_cell_length_a 27.354965
_cell_length_b 27.354965
_cell_length_c 8.798753
_cell_angle_alpha 90.000000
_cell_angle_beta 90.000000
_cell_angle_gamma 90.000000
_cell_volume 6584.055047
_symmetry_space_group_name_H-M "P 42/M M C"
_symmetry_group_IT_number 131
_symmetry_cell_setting 'tetragonal'
loop_
_space_group_symop_operation_xyz
x,y,z
-x,-y,z
-y,x,1/2+z
y,-x,1/2+z
-x,y,-z
x,-y,-z
y,x,1/2-z
-y,-x,1/2-z
-x,-y,-z
x,y,-z
y,-x,1/2-z
-y,x,1/2-z
x,-y,z
-x,y,z
-y,-x,1/2+z
y,x,1/2+z
loop_
_atom_site_type_symbol
_atom_site_label
_atom_site_fract_x
_atom_site_fract_y
_atom_site_fract_z
Si Si1 0.687213 0.158859 0.181782
Si Si2 0.554652 0.760588 0.318043
Si Si3 0.135363 0.210529 0.181425
Si Si4 0.865804 0.579171 0.316692
Si Si5 0.268807 0.344702 0.317728
Si Si6 0.056152 0.868600 0.183448
Si Si7 0.944421 0.500000 0.684891
O O1 0.734422 0.136831 0.260584
O O2 0.636642 0.131332 0.218771
O O3 0.678467 0.215801 0.224743
O O4 0.694001 0.157403 0.000000
O O5 0.559535 0.759635 0.500000
O O6 0.500000 0.742994 0.277599
O O7 0.559568 0.816458 0.260174
O O8 0.599935 0.731993 0.244102
O O9 0.181293 0.181293 0.250000
O O10 0.087391 0.179467 0.227118
O O11 0.138849 0.209638 0.000000
O O12 0.859551 0.574760 0.500000
O O13 0.912425 0.547238 0.271028
O O14 0.311569 0.311569 0.250000
O O15 0.271448 0.345414 0.500000
O O16 0.085331 0.914670 0.250000
O O17 0.000000 0.866602 0.233501
O O18 0.056962 0.871709 0.000000
O O19 0.946343 0.500000 0.500000
O O20 0.000000 0.500000 0.740901
#
# Coordination Sequence:
#
# PCOD9566197 Si02
#       7
#    16  16  16  16  16  16   8
#     4   9  18  30  45  68  94 122 155 193 233 277
#     4  10  19  30  47  70  95 125 162 202 241 285
#     4  10  19  31  49  69  91 122 153 184 222 271
#     4   9  17  30  48  67  90 120 158 200 243 291
#     4  10  20  32  47  69  99 131 161 197 241 287
#     4   9  19  35  52  71  94 118 147 182 222 272
#     4   9  16  28  49  71  89 115 155 203 250 293
#
# _framework density 15.795736
#
# number of rings (size 3 to 8) (size 9 to 14) (size 15 to 20)
#    0.000    2.538    0.769    2.769    0.000    6.308 
#    0.000    1.538    0.000    1.846    0.000    0.000 
#    0.000    0.308    0.000    3.231    0.000    1.385 
#
# Total GULP energy -579836.752918 kJ/mol
# GULP energy per Si atom -5575.353393 kJ/mol
# Density = 1.575978 g / cm^3
# Si number density = 15.795736 Si / 1000 Ang^3
#
#
#
# Elastic Constant Matrix: (Units=GPa)
#
#
# Indices 1 2 3 4 5 6 
#
# 1 134.6939 78.3606 36.3478 0.0000 0.0000 0.0000
# 2 78.3606 134.6908 36.3473 0.0000 0.0000 0.0000
# 3 36.3478 36.3473 27.0331 0.0000 0.0000 0.0000
# 4 0.0000 0.0000 0.0000 20.6382 0.0000 0.0000
# 5 0.0000 0.0000 0.0000 0.0000 20.6387 0.0000
# 6 0.0000 0.0000 0.0000 0.0000 0.0000 17.8720
#
#
#
# Elastic Compliance Matrix: (Units=1/GPa)
#
#
# Indices 1 2 3 4 5 6 
#
# 1 0.013212 -0.004540 -0.011660 0.000000 0.000000 0.000000
# 2 -0.004540 0.013212 -0.011660 0.000000 0.000000 0.000000
# 3 -0.011660 -0.011660 0.068348 0.000000 0.000000 0.000000
# 4 0.000000 0.000000 0.000000 0.048454 0.000000 0.000000
# 5 0.000000 0.000000 0.000000 0.000000 0.048453 0.000000
# 6 0.000000 0.000000 0.000000 0.000000 0.000000 0.055953
#
#
# Mechanical properties :
#
#
# Convention : Reuss Voigt Hill
#
# Bulk Modulus (GPa) = 25.60760 66.50324 46.05542
# Shear Modulus (GPa) = 15.80427 21.52058 18.66243
#
# Velocity S-wave (km/s) = 3.16656 3.69512 3.44100
# Velocity P-wave (km/s) = 5.44210 7.77165 6.70876
#
# Compressibility (1/GPa) = 0.03905090
#
# Stress axis : x y z
#
# Youngs Moduli (GPa) = 75.68873 75.68739 14.63103
#
# Poissons Ratio (x) = 0.34361 0.17060
# Poissons Ratio (y) = 0.34362 0.17060
# Poissons Ratio (z) = 0.88256 0.88254
#
# Static dielectric constant tensor:
#      x y z
#    x 1.520100 0.000000 0.000000 
#    y 0.000000 1.520100 0.000000 
#    z 0.000000 0.000000 1.528530 
# 
# From -- ./inp_files/2545.got.cif
#   From: 2010.05.17/outbox.cif.g08.bks.cpg/sg131_2_cif.got.tgz:2545.got - 2010.05.20 12:21:01.
