data_PCOD9566733
_publ_section_title
;
Structure prediction by ZEFSAII (Michael W. Deem and Ramdas Pophale) SiO2 
 PCOD9566733
Probable space group: P 42/M M C
;
_chemical_formula_sum "Si O2"
_cell_formula_units_Z 96
_cell_length_a 24.910434
_cell_length_b 24.910434
_cell_length_c 8.472987
_cell_angle_alpha 90.000000
_cell_angle_beta 90.000000
_cell_angle_gamma 90.000000
_cell_volume 5257.740268
_symmetry_space_group_name_H-M "P 42/M M C"
_symmetry_group_IT_number 131
_symmetry_cell_setting 'tetragonal'
loop_
_space_group_symop_operation_xyz
x,y,z
-x,-y,z
-y,x,1/2+z
y,-x,1/2+z
-x,y,-z
x,-y,-z
y,x,1/2-z
-y,-x,1/2-z
-x,-y,-z
x,y,-z
y,-x,1/2-z
-y,x,1/2-z
x,-y,z
-x,y,z
-y,-x,1/2+z
y,x,1/2+z
loop_
_atom_site_type_symbol
_atom_site_label
_atom_site_fract_x
_atom_site_fract_y
_atom_site_fract_z
Si Si1 0.856477 0.059261 0.689710
Si Si2 0.060691 0.731978 0.190700
Si Si3 0.940426 0.438002 0.307782
Si Si4 0.145206 0.352408 0.688566
Si Si5 0.353342 0.438062 0.190872
Si Si6 0.649219 0.733609 0.688770
O O1 0.894623 0.105378 0.750000
O O2 0.857702 0.059151 0.500000
O O3 0.794397 0.066615 0.735083
O O4 0.873892 0.000000 0.745204
O O5 0.108487 0.698060 0.264328
O O6 0.000000 0.714939 0.238928
O O7 0.063199 0.727912 0.000000
O O8 0.940558 0.436030 0.500000
O O9 0.934538 0.500000 0.262129
O O10 0.890988 0.402354 0.252399
O O11 0.000000 0.419450 0.256009
O O12 0.149263 0.355272 0.500000
O O13 0.205130 0.351618 0.755298
O O14 0.405252 0.405252 0.250000
O O15 0.351843 0.500000 0.244277
O O16 0.301382 0.402855 0.241279
O O17 0.354275 0.438138 0.000000
O O18 0.700953 0.700953 0.750000
O O19 0.650217 0.732882 0.500000
#
# Coordination Sequence:
#
# PCOD9566733 Si02
#       6
#    16  16  16  16  16  16
#     4   9  19  35  53  74 100 130 164 202 247 300
#     4   9  19  36  54  72 100 137 174 216 265 310
#     4   8  15  29  48  72 105 140 171 208 252 296
#     4  11  21  32  52  81 106 133 174 218 261 314
#     4   9  19  36  57  81 109 141 176 215 259 306
#     4  10  21  38  56  74 102 139 176 215 259 307
#
# _framework density 18.258794000000002
#
# number of rings (size 3 to 8) (size 9 to 14) (size 15 to 20)
#    0.000    2.667    0.000    3.000    0.000    4.667 
#    0.000    5.000    0.000    1.500    0.000    5.833 
#    0.000    0.000    0.000    0.000    0.000    0.000 
#
# Total GULP energy -535330.280864 kJ/mol
# GULP energy per Si atom -5576.357092 kJ/mol
# Density = 1.821724 g / cm^3
# Si number density = 18.258794 Si / 1000 Ang^3
#
#
#
# Elastic Constant Matrix: (Units=GPa)
#
#
# Indices 1 2 3 4 5 6 
#
# 1 168.8021 106.7263 29.0865 0.0000 0.0000 0.0000
# 2 106.7263 168.7952 29.0873 0.0000 0.0000 0.0000
# 3 29.0865 29.0873 20.1603 0.0000 0.0000 0.0000
# 4 0.0000 0.0000 0.0000 14.0723 0.0000 0.0000
# 5 0.0000 0.0000 0.0000 0.0000 14.0708 0.0000
# 6 0.0000 0.0000 0.0000 0.0000 0.0000 32.3795
#
#
#
# Elastic Compliance Matrix: (Units=1/GPa)
#
#
# Indices 1 2 3 4 5 6 
#
# 1 0.010664 -0.005445 -0.007530 0.000000 0.000000 0.000000
# 2 -0.005445 0.010665 -0.007531 0.000000 0.000000 0.000000
# 3 -0.007530 -0.007531 0.071332 0.000000 0.000000 0.000000
# 4 0.000000 0.000000 0.000000 0.071061 0.000000 0.000000
# 5 0.000000 0.000000 0.000000 0.000000 0.071069 0.000000
# 6 0.000000 0.000000 0.000000 0.000000 0.000000 0.030884
#
#
# Mechanical properties :
#
#
# Convention : Reuss Voigt Hill
#
# Bulk Modulus (GPa) = 19.36141 76.39530 47.87836
# Shear Modulus (GPa) = 15.43661 24.96169 20.19915
#
# Velocity S-wave (km/s) = 2.91079 3.70145 3.32967
# Velocity P-wave (km/s) = 4.68229 7.75879 6.40791
#
# Compressibility (1/GPa) = 0.05164913
#
# Stress axis : x y z
#
# Youngs Moduli (GPa) = 93.76966 93.76288 14.01892
#
# Poissons Ratio (x) = 0.51058 0.10556
# Poissons Ratio (y) = 0.51061 0.10558
# Poissons Ratio (z) = 0.70605 0.70616
#
# Static dielectric constant tensor:
#      x y z
#    x 1.622080 0.000000 0.000000 
#    y 0.000000 1.622080 0.000000 
#    z 0.000000 0.000000 1.632120 
# 
# From -- ./inp_files/2204.got.cif
#   From: 2010.05.17/outbox.cif.g08.bks.cpg/sg131_2_cif.got.tgz:2204.got - 2010.05.20 12:21:01.
