data_PCOD9566402
_publ_section_title
;
Structure prediction by ZEFSAII (Michael W. Deem and Ramdas Pophale) SiO2 
 PCOD9566402
Probable space group: P 42/M M C
;
_chemical_formula_sum "Si O2"
_cell_formula_units_Z 64
_cell_length_a 11.016324
_cell_length_b 11.016324
_cell_length_c 29.719329
_cell_angle_alpha 90.000000
_cell_angle_beta 90.000000
_cell_angle_gamma 90.000000
_cell_volume 3606.719772
_symmetry_space_group_name_H-M "P 42/M M C"
_symmetry_group_IT_number 131
_symmetry_cell_setting 'tetragonal'
loop_
_space_group_symop_operation_xyz
x,y,z
-x,-y,z
-y,x,1/2+z
y,-x,1/2+z
-x,y,-z
x,-y,-z
y,x,1/2-z
-y,-x,1/2-z
-x,-y,-z
x,y,-z
y,-x,1/2-z
-y,x,1/2-z
x,-y,z
-x,y,z
-y,-x,1/2+z
y,x,1/2+z
loop_
_atom_site_type_symbol
_atom_site_label
_atom_site_fract_x
_atom_site_fract_y
_atom_site_fract_z
Si Si1 0.639730 0.747243 0.792953
Si Si2 0.865015 0.000000 0.912722
Si Si3 0.641855 0.362631 0.610773
Si Si4 0.265923 0.137290 0.447924
Si Si5 0.000000 0.360473 0.343610
O O1 0.721144 0.721144 0.750000
O O2 0.500000 0.725864 0.779235
O O3 0.664250 0.664520 0.836609
O O4 0.651242 0.881897 0.812656
O O5 0.861300 0.120699 0.942356
O O6 0.748679 0.000000 0.879646
O O7 0.000000 0.000000 0.889673
O O8 0.694216 0.500000 0.602333
O O9 0.500000 0.369880 0.601902
O O10 0.690797 0.250877 0.581637
O O11 0.300691 0.152888 0.500000
O O12 0.306326 0.000000 0.433719
O O13 0.000000 0.500000 0.362400
#
# Coordination Sequence:
#
# PCOD9566402 Si02
#       5
#    16   8  16  16   8
#     4  10  20  37  59  82 111 147 185 225 275 332
#     4  10  19  36  60  84 112 144 188 231 279 331
#     4  10  21  37  58  83 111 147 192 237 279 329
#     4  10  21  37  58  83 113 149 187 228 280 340
#     4  10  20  37  59  83 114 150 183 231 286 336
#
# _framework density 17.744655000000002
#
# number of rings (size 3 to 8) (size 9 to 14) (size 15 to 20)
#    0.000    2.000    2.500    1.125    0.000    4.250 
#    4.500    2.500    0.000    2.250    0.000    0.000 
#    0.000    0.000    0.000    0.000    0.000    0.000 
#
# Total GULP energy -356547.916362 kJ/mol
# GULP energy per Si atom -5571.061193 kJ/mol
# Density = 1.770427 g / cm^3
# Si number density = 17.744655 Si / 1000 Ang^3
#
#
#
# Elastic Constant Matrix: (Units=GPa)
#
#
# Indices 1 2 3 4 5 6 
#
# 1 74.4860 34.0232 33.8915 0.0000 0.0000 0.0000
# 2 34.0232 74.4860 33.8915 0.0000 0.0000 0.0000
# 3 33.8915 33.8915 67.3523 0.0000 0.0000 0.0000
# 4 0.0000 0.0000 0.0000 29.5984 0.0000 0.0000
# 5 0.0000 0.0000 0.0000 0.0000 29.5984 0.0000
# 6 0.0000 0.0000 0.0000 0.0000 0.0000 22.7936
#
#
#
# Elastic Compliance Matrix: (Units=1/GPa)
#
#
# Indices 1 2 3 4 5 6 
#
# 1 0.019077 -0.005637 -0.006763 0.000000 0.000000 0.000000
# 2 -0.005637 0.019077 -0.006763 0.000000 0.000000 0.000000
# 3 -0.006763 -0.006763 0.021654 0.000000 0.000000 0.000000
# 4 0.000000 0.000000 0.000000 0.033786 0.000000 0.000000
# 5 0.000000 0.000000 0.000000 0.000000 0.033786 0.000000
# 6 0.000000 0.000000 0.000000 0.000000 0.000000 0.043872
#
#
# Mechanical properties :
#
#
# Convention : Reuss Voigt Hill
#
# Bulk Modulus (GPa) = 46.55068 46.65965 46.60517
# Shear Modulus (GPa) = 23.06921 24.03262 23.55091
#
# Velocity S-wave (km/s) = 3.60955 3.68415 3.64704
# Velocity P-wave (km/s) = 6.60775 6.66704 6.63746
#
# Compressibility (1/GPa) = 0.02148196
#
# Stress axis : x y z
#
# Youngs Moduli (GPa) = 52.41816 52.41816 46.18103
#
# Poissons Ratio (x) = 0.29546 0.31234
# Poissons Ratio (y) = 0.29546 0.31234
# Poissons Ratio (z) = 0.35452 0.35452
#
# Static dielectric constant tensor:
#      x y z
#    x 1.637740 0.000000 0.000000 
#    y 0.000000 1.637740 0.000000 
#    z 0.000000 0.000000 1.561480 
# 
# From -- ./inp_files/10808.got.cif
#   From: 2010.05.17/outbox.cif.g08.bks.cpg/sg131_6_cif.got.tgz:10808.got - 2010.05.20 12:21:01.
