data_PCOD9566476
_publ_section_title
;
Structure prediction by ZEFSAII (Michael W. Deem and Ramdas Pophale) SiO2 
 PCOD9566476
Probable space group: P 42/M M C
;
_chemical_formula_sum "Si O2"
_cell_formula_units_Z 112
_cell_length_a 14.691013
_cell_length_b 14.691013
_cell_length_c 30.136249
_cell_angle_alpha 90.000000
_cell_angle_beta 90.000000
_cell_angle_gamma 90.000000
_cell_volume 6504.181947
_symmetry_space_group_name_H-M "P 42/M M C"
_symmetry_group_IT_number 131
_symmetry_cell_setting 'tetragonal'
loop_
_space_group_symop_operation_xyz
x,y,z
-x,-y,z
-y,x,1/2+z
y,-x,1/2+z
-x,y,-z
x,-y,-z
y,x,1/2-z
-y,-x,1/2-z
-x,-y,-z
x,y,-z
y,-x,1/2-z
-y,x,1/2-z
x,-y,z
-x,y,z
-y,-x,1/2+z
y,x,1/2+z
loop_
_atom_site_type_symbol
_atom_site_label
_atom_site_fract_x
_atom_site_fract_y
_atom_site_fract_z
Si Si1 0.893552 0.602699 0.673997
Si Si2 0.697209 0.396507 0.948328
Si Si3 0.890758 0.197254 0.293417
Si Si4 0.100434 0.332416 0.948505
Si Si5 0.228005 0.395427 0.585747
Si Si6 0.902858 0.250983 0.548572
Si Si7 0.157890 0.895378 0.615220
O O1 0.882330 0.500000 0.693433
O O2 0.878242 0.692979 0.703341
O O3 0.825044 0.609337 0.632519
O O4 0.000000 0.608295 0.659239
O O5 0.669673 0.500000 0.941432
O O6 0.806713 0.388225 0.943014
O O7 0.644206 0.329366 0.915702
O O8 0.677370 0.372156 0.000000
O O9 0.845960 0.154041 0.250000
O O10 0.845097 0.149149 0.336220
O O11 0.000000 0.180081 0.294567
O O12 0.104289 0.253606 0.911450
O O13 0.000000 0.377169 0.944157
O O14 0.103507 0.297918 0.000000
O O15 0.226314 0.500000 0.570928
O O16 0.174247 0.324877 0.555088
O O17 0.895076 0.208744 0.500000
O O18 0.899209 0.173068 0.584964
O O19 0.000000 0.299140 0.551830
O O20 0.126283 0.000000 0.617276
#
# Coordination Sequence:
#
# PCOD9566476 Si02
#       7
#    16  16  16  16  16  16  16
#     4   9  18  35  61  87 108 137 179 223 269 323
#     4  10  20  33  49  71 102 140 182 226 273 324
#     4  11  22  36  55  81 113 144 177 217 265 322
#     4   9  17  31  53  77 101 137 185 229 269 316
#     4  11  21  35  55  76 104 140 179 227 278 323
#     4  11  22  34  50  75 108 146 186 222 261 312
#     4  11  21  34  53  76 109 148 183 221 263 314
#
# _framework density 17.21969
#
# number of rings (size 3 to 8) (size 9 to 14) (size 15 to 20)
#    0.000    1.714    2.857    2.143    0.000    5.286 
#    0.000    3.571    0.000    3.429    0.000    4.000 
#    0.000    0.000    0.000    0.000    0.000    0.000 
#
# Total GULP energy -623907.486093 kJ/mol
# GULP energy per Si atom -5570.602554 kJ/mol
# Density = 1.718050 g / cm^3
# Si number density = 17.219690 Si / 1000 Ang^3
#
#
#
# Elastic Constant Matrix: (Units=GPa)
#
#
# Indices 1 2 3 4 5 6 
#
# 1 94.1651 34.7751 34.2250 0.0000 0.0000 0.0000
# 2 34.7751 94.1667 34.2257 0.0000 0.0000 0.0000
# 3 34.2250 34.2257 100.4306 0.0000 0.0000 0.0000
# 4 0.0000 0.0000 0.0000 18.9059 0.0000 0.0000
# 5 0.0000 0.0000 0.0000 0.0000 18.9063 0.0000
# 6 0.0000 0.0000 0.0000 0.0000 0.0000 4.6603
#
#
#
# Elastic Compliance Matrix: (Units=1/GPa)
#
#
# Indices 1 2 3 4 5 6 
#
# 1 0.013153 -0.003685 -0.003227 0.000000 0.000000 0.000000
# 2 -0.003685 0.013153 -0.003227 0.000000 0.000000 0.000000
# 3 -0.003227 -0.003227 0.012156 0.000000 0.000000 0.000000
# 4 0.000000 0.000000 0.000000 0.052894 0.000000 0.000000
# 5 0.000000 0.000000 0.000000 0.000000 0.052892 0.000000
# 6 0.000000 0.000000 0.000000 0.000000 0.000000 0.214576
#
#
# Mechanical properties :
#
#
# Convention : Reuss Voigt Hill
#
# Bulk Modulus (GPa) = 54.98615 55.02378 55.00496
# Shear Modulus (GPa) = 12.98152 20.86362 16.92257
#
# Velocity S-wave (km/s) = 2.74866 3.48460 3.13828
# Velocity P-wave (km/s) = 6.48652 6.94358 6.71894
#
# Compressibility (1/GPa) = 0.01818640
#
# Stress axis : x y z
#
# Youngs Moduli (GPa) = 76.02758 76.02861 82.26150
#
# Poissons Ratio (x) = 0.28013 0.26543
# Poissons Ratio (y) = 0.28013 0.26544
# Poissons Ratio (z) = 0.24532 0.24532
#
# Static dielectric constant tensor:
#      x y z
#    x 1.606390 0.000000 0.000000 
#    y 0.000000 1.606390 0.000000 
#    z 0.000000 0.000000 1.562380 
# 
# From -- ./inp_files/12474.got.cif
#   From: 2010.05.17/outbox.cif.g08.bks.cpg/sg131_7_cif.got.tgz:12474.got - 2010.05.20 12:21:01.
