data_PCOD9566052
_publ_section_title
;
Structure prediction by ZEFSAII (Michael W. Deem and Ramdas Pophale) SiO2 
 PCOD9566052
Probable space group: P 42/M M C
;
_chemical_formula_sum "Si O2"
_cell_formula_units_Z 120
_cell_length_a 22.763707
_cell_length_b 22.763707
_cell_length_c 14.937383
_cell_angle_alpha 90.000000
_cell_angle_beta 90.000000
_cell_angle_gamma 90.000000
_cell_volume 7740.348071
_symmetry_space_group_name_H-M "P 42/M M C"
_symmetry_group_IT_number 131
_symmetry_cell_setting 'tetragonal'
loop_
_space_group_symop_operation_xyz
x,y,z
-x,-y,z
-y,x,1/2+z
y,-x,1/2+z
-x,y,-z
x,-y,-z
y,x,1/2-z
-y,-x,1/2-z
-x,-y,-z
x,y,-z
y,-x,1/2-z
-y,x,1/2-z
x,-y,z
-x,y,z
-y,-x,1/2+z
y,x,1/2+z
loop_
_atom_site_type_symbol
_atom_site_label
_atom_site_fract_x
_atom_site_fract_y
_atom_site_fract_z
Si Si1 0.129701 0.567507 0.393616
Si Si2 0.759993 0.356853 0.394449
Si Si3 0.899492 0.431915 0.105521
Si Si4 0.273264 0.818816 0.751986
Si Si5 0.066795 0.655986 0.740345
Si Si6 0.432859 0.567142 0.750000
Si Si7 0.218534 0.365935 0.104105
Si Si8 0.646972 0.376273 0.894220
O O1 0.118094 0.572687 0.500000
O O2 0.120721 0.500000 0.366885
O O3 0.197221 0.587709 0.378855
O O4 0.090179 0.612036 0.336953
O O5 0.762030 0.342715 0.500000
O O6 0.787806 0.305009 0.336258
O O7 0.692110 0.365848 0.371009
O O8 0.911554 0.500000 0.128951
O O9 0.929347 0.383992 0.169614
O O10 0.830315 0.416261 0.116631
O O11 0.913951 0.424238 0.000000
O O12 0.207630 0.792371 0.750000
O O13 0.289405 0.887772 0.756167
O O14 0.311092 0.796874 0.666691
O O15 0.000000 0.673800 0.725131
O O16 0.500000 0.575870 0.776840
O O17 0.391962 0.583207 0.832888
O O18 0.284178 0.386414 0.123827
O O19 0.216846 0.348006 0.000000
O O20 0.636397 0.384234 0.000000
#
# Coordination Sequence:
#
# PCOD9566052 Si02
#       8
#    16  16  16  16  16   8  16  16
#     4   9  18  31  46  66  93 125 157 187 221 263
#     4   9  17  29  48  73  95 110 137 186 234 276
#     4   9  18  31  46  66  93 125 157 187 221 263
#     4  10  17  29  50  69  93 121 148 176 224 272
#     4  10  21  33  45  66  94 123 157 193 221 254
#     4  11  26  42  48  56  80 112 146 182 226 290
#     4   9  17  29  48  73  95 110 137 186 234 276
#     4  10  19  33  55  74  86 106 138 184 240 290
#
# _framework density 15.503178999999999
#
# number of rings (size 3 to 8) (size 9 to 14) (size 15 to 20)
#    0.000    2.467    1.333    1.200    0.000    3.200 
#    0.000    4.667    0.000    0.000    0.000    0.000 
#    0.000    0.267    0.000    0.000    0.000    0.000 
#
# Total GULP energy -668992.027008 kJ/mol
# GULP energy per Si atom -5574.933558 kJ/mol
# Density = 1.546789 g / cm^3
# Si number density = 15.503179 Si / 1000 Ang^3
#
#
#
# Elastic Constant Matrix: (Units=GPa)
#
#
# Indices 1 2 3 4 5 6 
#
# 1 22.7056 63.1848 5.6975 0.0000 0.0000 0.0000
# 2 63.1848 22.7144 5.7033 0.0000 0.0000 0.0000
# 3 5.6975 5.7033 17.2878 0.0000 0.0000 0.0000
# 4 0.0000 0.0000 0.0000 13.1569 0.0000 0.0000
# 5 0.0000 0.0000 0.0000 0.0000 13.1564 0.0000
# 6 0.0000 0.0000 0.0000 0.0000 0.0000 11.2287
#
#
#
# Elastic Compliance Matrix: (Units=1/GPa)
#
#
# Indices 1 2 3 4 5 6 
#
# 1 -0.006267 0.018441 -0.004018 0.000000 0.000000 0.000000
# 2 0.018441 -0.006265 -0.004011 0.000000 0.000000 0.000000
# 3 -0.004018 -0.004011 0.060492 0.000000 0.000000 0.000000
# 4 0.000000 0.000000 0.000000 0.076006 0.000000 0.000000
# 5 0.000000 0.000000 0.000000 0.000000 0.076009 0.000000
# 6 0.000000 0.000000 0.000000 0.000000 0.000000 0.089057
#
#
# Mechanical properties :
#
#
# Convention : Reuss Voigt Hill
#
# Bulk Modulus (GPa) = 14.53835 23.54210 19.04022
# Shear Modulus (GPa) = 17.17412 6.71656 11.94534
#
# Velocity S-wave (km/s) = 3.33194 2.08369 2.77882
# Velocity P-wave (km/s) = 4.91940 4.58338 4.75436
#
# Compressibility (1/GPa) = 0.06878360
#
# Stress axis : x y z
#
# Youngs Moduli (GPa) = -159.57558 -159.61388 16.53121
#
# Poissons Ratio (x) = 2.94342 0.06643
# Poissons Ratio (y) = 2.94271 0.06630
# Poissons Ratio (z) = -0.64123 -0.64016
#
# Static dielectric constant tensor:
#      x y z
#    x 1.511250 0.000000 0.000000 
#    y 0.000000 1.511260 0.000000 
#    z 0.000000 0.000000 1.542680 
# 
# From -- ./inp_files/6436.got.cif
#   From: 2010.05.17/outbox.cif.g08.bks.cpg/sg131_4_cif.got.tgz:6436.got - 2010.05.20 12:21:01.
