data_PCOD9566354
_publ_section_title
;
Structure prediction by ZEFSAII (Michael W. Deem and Ramdas Pophale) SiO2 
 PCOD9566354
Probable space group: P 42/M M C
;
_chemical_formula_sum "Si O2"
_cell_formula_units_Z 88
_cell_length_a 12.639765
_cell_length_b 12.639765
_cell_length_c 31.499367
_cell_angle_alpha 90.000000
_cell_angle_beta 90.000000
_cell_angle_gamma 90.000000
_cell_volume 5032.454136
_symmetry_space_group_name_H-M "P 42/M M C"
_symmetry_group_IT_number 131
_symmetry_cell_setting 'tetragonal'
loop_
_space_group_symop_operation_xyz
x,y,z
-x,-y,z
-y,x,1/2+z
y,-x,1/2+z
-x,y,-z
x,-y,-z
y,x,1/2-z
-y,-x,1/2-z
-x,-y,-z
x,y,-z
y,-x,1/2-z
-y,x,1/2-z
x,-y,z
-x,y,z
-y,-x,1/2+z
y,x,1/2+z
loop_
_atom_site_type_symbol
_atom_site_label
_atom_site_fract_x
_atom_site_fract_y
_atom_site_fract_z
Si Si1 0.375665 0.121692 0.650878
Si Si2 0.269291 0.710041 0.405577
Si Si3 0.880408 0.121628 0.949042
Si Si4 0.878485 0.625050 0.669344
Si Si5 0.500000 0.627558 0.948787
Si Si6 0.285095 0.874880 0.258779
O O1 0.500000 0.116286 0.658001
O O2 0.351587 0.206124 0.614380
O O3 0.324760 0.160000 0.695168
O O4 0.339439 0.000000 0.641709
O O5 0.195121 0.784467 0.434545
O O6 0.196584 0.672539 0.366331
O O7 0.320618 0.607035 0.428366
O O8 0.000000 0.154053 0.935028
O O9 0.864354 0.000000 0.934672
O O10 0.882077 0.121165 0.000000
O O11 0.881037 0.500000 0.663290
O O12 0.841278 0.648191 0.717490
O O13 0.000000 0.665401 0.665268
O O14 0.500000 0.500000 0.941317
O O15 0.500000 0.644497 0.000000
O O16 0.169269 0.830732 0.250000
O O17 0.289951 0.000000 0.260115
#
# Coordination Sequence:
#
# PCOD9566354 Si02
#       6
#    16  16  16  16   8  16
#     4  10  21  36  56  81 109 144 191 239 280 327
#     4  12  20  36  60  83 108 144 187 232 278 339
#     4   9  19  36  57  83 114 144 176 219 275 339
#     4  10  20  34  53  79 110 144 183 224 267 322
#     4  11  26  44  59  81 113 149 188 240 305 355
#     4  10  19  34  53  76 111 150 184 221 273 329
#
# _framework density 17.486498999999998
#
# number of rings (size 3 to 8) (size 9 to 14) (size 15 to 20)
#    0.000    1.727    2.727    3.273    0.000    2.364 
#    0.000    0.000    0.000    2.182    0.000    8.909 
#    0.000    0.000    0.000    0.000    0.000    0.000 
#
# Total GULP energy -490139.410556 kJ/mol
# GULP energy per Si atom -5569.766029 kJ/mol
# Density = 1.744670 g / cm^3
# Si number density = 17.486499 Si / 1000 Ang^3
#
#
#
# Elastic Constant Matrix: (Units=GPa)
#
#
# Indices 1 2 3 4 5 6 
#
# 1 100.3009 32.9741 46.7439 0.0000 0.0000 0.0000
# 2 32.9741 100.3046 46.7446 0.0000 0.0000 0.0000
# 3 46.7439 46.7446 88.7692 0.0000 0.0000 0.0000
# 4 0.0000 0.0000 0.0000 29.1689 0.0000 0.0000
# 5 0.0000 0.0000 0.0000 0.0000 29.1697 0.0000
# 6 0.0000 0.0000 0.0000 0.0000 0.0000 27.3508
#
#
#
# Elastic Compliance Matrix: (Units=1/GPa)
#
#
# Indices 1 2 3 4 5 6 
#
# 1 0.013376 -0.001477 -0.006265 0.000000 0.000000 0.000000
# 2 -0.001477 0.013375 -0.006265 0.000000 0.000000 0.000000
# 3 -0.006265 -0.006265 0.017864 0.000000 0.000000 0.000000
# 4 0.000000 0.000000 0.000000 0.034283 0.000000 0.000000
# 5 0.000000 0.000000 0.000000 0.000000 0.034282 0.000000
# 6 0.000000 0.000000 0.000000 0.000000 0.000000 0.036562
#
#
# Mechanical properties :
#
#
# Convention : Reuss Voigt Hill
#
# Bulk Modulus (GPa) = 60.24659 60.25557 60.25108
# Shear Modulus (GPa) = 27.27919 27.99867 27.63893
#
# Velocity S-wave (km/s) = 3.95399 4.00579 3.97997
# Velocity P-wave (km/s) = 7.44133 7.47852 7.45995
#
# Compressibility (1/GPa) = 0.01659845
#
# Stress axis : x y z
#
# Youngs Moduli (GPa) = 74.76332 74.76633 55.97992
#
# Poissons Ratio (x) = 0.11045 0.35074
# Poissons Ratio (y) = 0.11044 0.35073
# Poissons Ratio (z) = 0.46842 0.46843
#
# Static dielectric constant tensor:
#      x y z
#    x 1.602270 0.000000 0.000000 
#    y 0.000000 1.602270 0.000000 
#    z 0.000000 0.000000 1.599890 
# 
# From -- ./inp_files/13549.got.cif
#   From: 2010.05.17/outbox.cif.g08.bks.cpg/sg131_7_cif.got.tgz:13549.got - 2010.05.20 12:21:01.
