data_PCOD9566141
_publ_section_title
;
Structure prediction by ZEFSAII (Michael W. Deem and Ramdas Pophale) SiO2 
 PCOD9566141
Probable space group: P 42/M M C
;
_chemical_formula_sum "Si O2"
_cell_formula_units_Z 80
_cell_length_a 12.917701
_cell_length_b 12.917701
_cell_length_c 28.003723
_cell_angle_alpha 90.000000
_cell_angle_beta 90.000000
_cell_angle_gamma 90.000000
_cell_volume 4672.897221
_symmetry_space_group_name_H-M "P 42/M M C"
_symmetry_group_IT_number 131
_symmetry_cell_setting 'tetragonal'
loop_
_space_group_symop_operation_xyz
x,y,z
-x,-y,z
-y,x,1/2+z
y,-x,1/2+z
-x,y,-z
x,-y,-z
y,x,1/2-z
-y,-x,1/2-z
-x,-y,-z
x,y,-z
y,-x,1/2-z
-y,x,1/2-z
x,-y,z
-x,y,z
-y,-x,1/2+z
y,x,1/2+z
loop_
_atom_site_type_symbol
_atom_site_label
_atom_site_fract_x
_atom_site_fract_y
_atom_site_fract_z
Si Si1 0.500000 0.878874 0.889702
Si Si2 0.680379 0.500000 0.444333
Si Si3 0.275668 0.875665 0.367421
Si Si4 0.622183 0.270831 0.555443
Si Si5 0.384059 0.124962 0.733155
Si Si6 0.710949 0.122686 0.169624
O O1 0.500000 0.802559 0.934403
O O2 0.604129 0.857424 0.859259
O O3 0.500000 0.000000 0.901962
O O4 0.652072 0.500000 0.500000
O O5 0.640316 0.611232 0.425779
O O6 0.323730 0.816282 0.412613
O O7 0.346738 0.857212 0.320560
O O8 0.173404 0.811102 0.354041
O O9 0.263644 0.000000 0.373756
O O10 0.658214 0.267206 0.500000
O O11 0.500000 0.251949 0.555943
O O12 0.500000 0.165845 0.740219
O O13 0.310747 0.160140 0.776325
O O14 0.388500 0.000000 0.738364
O O15 0.725603 0.000000 0.170415
#
# Coordination Sequence:
#
# PCOD9566141 Si02
#       6
#     8   8  16  16  16  16
#     4  10  18  32  57  84 106 137 178 219 266 320
#     4  10  19  35  58  83 109 136 175 228 281 326
#     4  11  22  34  52  79 110 145 185 228 269 318
#     4  10  21  37  57  80 106 140 180 225 277 332
#     4   9  17  31  51  76 105 138 179 223 265 314
#     4  10  19  34  55  78 107 144 182 219 268 327
#
# _framework density 17.119999
#
# number of rings (size 3 to 8) (size 9 to 14) (size 15 to 20)
#    0.000    2.000    3.000    1.500    0.000    3.400 
#    0.000    1.000    0.000    4.200    0.000    1.400 
#    0.000    0.000    0.000    0.000    0.000    0.000 
#
# Total GULP energy -445499.928738 kJ/mol
# GULP energy per Si atom -5568.749109 kJ/mol
# Density = 1.708103 g / cm^3
# Si number density = 17.119999 Si / 1000 Ang^3
#
#
#
# Elastic Constant Matrix: (Units=GPa)
#
#
# Indices 1 2 3 4 5 6 
#
# 1 93.4493 45.4503 41.0253 0.0000 0.0000 0.0000
# 2 45.4503 93.4493 41.0253 0.0000 0.0000 0.0000
# 3 41.0253 41.0253 56.9747 0.0000 0.0000 0.0000
# 4 0.0000 0.0000 0.0000 27.9875 0.0000 0.0000
# 5 0.0000 0.0000 0.0000 0.0000 27.9875 0.0000
# 6 0.0000 0.0000 0.0000 0.0000 0.0000 21.5737
#
#
#
# Elastic Compliance Matrix: (Units=1/GPa)
#
#
# Indices 1 2 3 4 5 6 
#
# 1 0.016681 -0.004153 -0.009021 0.000000 0.000000 0.000000
# 2 -0.004153 0.016681 -0.009021 0.000000 0.000000 0.000000
# 3 -0.009021 -0.009021 0.030543 0.000000 0.000000 0.000000
# 4 0.000000 0.000000 0.000000 0.035730 0.000000 0.000000
# 5 0.000000 0.000000 0.000000 0.000000 0.035730 0.000000
# 6 0.000000 0.000000 0.000000 0.000000 0.000000 0.046353
#
#
# Mechanical properties :
#
#
# Convention : Reuss Voigt Hill
#
# Bulk Modulus (GPa) = 51.24197 55.43057 53.33627
# Shear Modulus (GPa) = 21.49483 23.26793 22.38138
#
# Velocity S-wave (km/s) = 3.54720 3.69061 3.61962
# Velocity P-wave (km/s) = 6.83907 7.11398 6.97788
#
# Compressibility (1/GPa) = 0.01951525
#
# Stress axis : x y z
#
# Youngs Moduli (GPa) = 59.94803 59.94803 32.74034
#
# Poissons Ratio (x) = 0.24894 0.29536
# Poissons Ratio (y) = 0.24894 0.29536
# Poissons Ratio (z) = 0.54081 0.54081
#
# Static dielectric constant tensor:
#      x y z
#    x 1.582200 0.000000 0.000000 
#    y 0.000000 1.582200 0.000000 
#    z 0.000000 0.000000 1.597570 
# 
# From -- ./inp_files/13444.got.cif
#   From: 2010.05.17/outbox.cif.g08.bks.cpg/sg131_7_cif.got.tgz:13444.got - 2010.05.20 12:21:01.
