data_PCOD9566338
_publ_section_title
;
Structure prediction by ZEFSAII (Michael W. Deem and Ramdas Pophale) SiO2 
 PCOD9566338
Probable space group: P 42/M M C
;
_chemical_formula_sum "Si O2"
_cell_formula_units_Z 120
_cell_length_a 27.702877
_cell_length_b 27.702877
_cell_length_c 9.425245
_cell_angle_alpha 90.000000
_cell_angle_beta 90.000000
_cell_angle_gamma 90.000000
_cell_volume 7233.398564
_symmetry_space_group_name_H-M "P 42/M M C"
_symmetry_group_IT_number 131
_symmetry_cell_setting 'tetragonal'
loop_
_space_group_symop_operation_xyz
x,y,z
-x,-y,z
-y,x,1/2+z
y,-x,1/2+z
-x,y,-z
x,-y,-z
y,x,1/2-z
-y,-x,1/2-z
-x,-y,-z
x,y,-z
y,-x,1/2-z
-y,x,1/2-z
x,-y,z
-x,y,z
-y,-x,1/2+z
y,x,1/2+z
loop_
_atom_site_type_symbol
_atom_site_label
_atom_site_fract_x
_atom_site_fract_y
_atom_site_fract_z
Si Si1 0.374798 0.812140 0.664676
Si Si2 0.782328 0.282729 0.661484
Si Si3 0.000000 0.557201 0.329803
Si Si4 0.942681 0.733672 0.831485
Si Si5 0.722307 0.442875 0.835206
Si Si6 0.133638 0.798213 0.664866
Si Si7 0.372782 0.557793 0.666826
Si Si8 0.379187 0.923036 0.667171
O O1 0.358953 0.807688 0.500000
O O2 0.329948 0.802756 0.765315
O O3 0.414739 0.771687 0.691739
O O4 0.391865 0.866865 0.682887
O O5 0.737790 0.262211 0.750000
O O6 0.768337 0.291670 0.500000
O O7 0.823900 0.242003 0.663952
O O8 0.045102 0.585423 0.261369
O O9 0.000000 0.500000 0.295366
O O10 0.000000 0.561926 0.500000
O O11 0.910856 0.771748 0.743395
O O12 0.930493 0.677604 0.794837
O O13 0.000000 0.740555 0.810264
O O14 0.931973 0.739150 0.000000
O O15 0.729997 0.500000 0.817329
O O16 0.678705 0.427728 0.733778
O O17 0.708380 0.434504 0.000000
O O18 0.156269 0.843732 0.750000
O O19 0.122879 0.809985 0.500000
O O20 0.414260 0.585741 0.750000
O O21 0.374543 0.568447 0.500000
O O22 0.377642 0.500000 0.685722
O O23 0.383445 0.936416 0.500000
#
# Coordination Sequence:
#
# PCOD9566338 Si02
#       8
#    16  16   8  16  16  16  16  16
#     4  10  20  34  55  79 103 132 173 223 269 318
#     4  10  20  32  48  72 103 138 174 211 257 310
#     4  11  25  41  55  75 105 139 177 229 290 343
#     4  10  19  33  54  80 111 145 183 227 277 329
#     4   9  19  36  55  75 100 131 167 209 258 309
#     4  10  20  33  51  76 107 145 183 222 268 318
#     4  10  21  37  58  83 109 138 170 206 253 310
#     4  10  20  36  57  80 104 136 179 228 280 336
#
# _framework density 16.589713
#
# number of rings (size 3 to 8) (size 9 to 14) (size 15 to 20)
#    0.000    2.067    2.000    1.400    0.000    5.467 
#    0.000    2.000    0.000    1.600    0.000    0.000 
#    0.000    0.267    0.000    2.800    0.000    1.200 
#
# Total GULP energy -669505.767050 kJ/mol
# GULP energy per Si atom -5579.214725 kJ/mol
# Density = 1.655195 g / cm^3
# Si number density = 16.589713 Si / 1000 Ang^3
#
#
#
# Elastic Constant Matrix: (Units=GPa)
#
#
# Indices 1 2 3 4 5 6 
#
# 1 77.8426 54.1289 70.8609 0.0000 0.0000 0.0000
# 2 54.1289 77.8537 70.8613 0.0000 0.0000 0.0000
# 3 70.8609 70.8613 111.8518 0.0000 0.0000 0.0000
# 4 0.0000 0.0000 0.0000 15.9156 0.0000 0.0000
# 5 0.0000 0.0000 0.0000 0.0000 15.9167 0.0000
# 6 0.0000 0.0000 0.0000 0.0000 0.0000 19.9484
#
#
#
# Elastic Compliance Matrix: (Units=1/GPa)
#
#
# Indices 1 2 3 4 5 6 
#
# 1 0.032936 -0.009229 -0.015019 0.000000 0.000000 0.000000
# 2 -0.009229 0.032925 -0.015012 0.000000 0.000000 0.000000
# 3 -0.015019 -0.015012 0.027966 0.000000 0.000000 0.000000
# 4 0.000000 0.000000 0.000000 0.062831 0.000000 0.000000
# 5 0.000000 0.000000 0.000000 0.000000 0.062827 0.000000
# 6 0.000000 0.000000 0.000000 0.000000 0.000000 0.050129
#
#
# Mechanical properties :
#
#
# Convention : Reuss Voigt Hill
#
# Bulk Modulus (GPa) = 65.33115 73.25002 69.29058
# Shear Modulus (GPa) = 14.15485 15.13596 14.64540
#
# Velocity S-wave (km/s) = 2.92418 3.02382 2.97442
# Velocity P-wave (km/s) = 7.13212 7.51273 7.32490
#
# Compressibility (1/GPa) = 0.01530663
#
# Stress axis : x y z
#
# Youngs Moduli (GPa) = 30.36211 30.37196 35.75832
#
# Poissons Ratio (x) = 0.28031 0.53704
# Poissons Ratio (y) = 0.28022 0.53680
# Poissons Ratio (z) = 0.45600 0.45594
#
# Static dielectric constant tensor:
#      x y z
#    x 1.543940 0.000000 0.000000 
#    y 0.000000 1.543950 0.000000 
#    z 0.000000 0.000000 1.560900 
# 
# From -- ./inp_files/2623.got.cif
#   From: 2010.05.17/outbox.cif.g08.bks.cpg/sg131_2_cif.got.tgz:2623.got - 2010.05.20 12:21:01.
