data_PCOD9566036
_publ_section_title
;
Structure prediction by ZEFSAII (Michael W. Deem and Ramdas Pophale) SiO2 
 PCOD9566036
Probable space group: P 42/M M C
;
_chemical_formula_sum "Si O2"
_cell_formula_units_Z 104
_cell_length_a 22.451730
_cell_length_b 22.451730
_cell_length_c 13.963406
_cell_angle_alpha 90.000000
_cell_angle_beta 90.000000
_cell_angle_gamma 90.000000
_cell_volume 7038.676210
_symmetry_space_group_name_H-M "P 42/M M C"
_symmetry_group_IT_number 131
_symmetry_cell_setting 'tetragonal'
loop_
_space_group_symop_operation_xyz
x,y,z
-x,-y,z
-y,x,1/2+z
y,-x,1/2+z
-x,y,-z
x,-y,-z
y,x,1/2-z
-y,-x,1/2-z
-x,-y,-z
x,y,-z
y,-x,1/2-z
-y,x,1/2-z
x,-y,z
-x,y,z
-y,-x,1/2+z
y,x,1/2+z
loop_
_atom_site_type_symbol
_atom_site_label
_atom_site_fract_x
_atom_site_fract_y
_atom_site_fract_z
Si Si1 0.000000 0.428127 0.752379
Si Si2 0.274600 0.315591 0.889463
Si Si3 0.777941 0.777941 0.250000
Si Si4 0.128888 0.725292 0.387286
Si Si5 0.321402 0.000000 0.885863
Si Si6 0.222089 0.380971 0.392978
Si Si7 0.235859 0.567856 0.809225
Si Si8 0.893648 0.428217 0.893307
O O1 0.942548 0.411045 0.815765
O O2 0.000000 0.500000 0.735229
O O3 0.000000 0.386792 0.660062
O O4 0.229540 0.278065 0.822729
O O5 0.335747 0.278174 0.886565
O O6 0.280119 0.381563 0.847221
O O7 0.255295 0.317313 0.000000
O O8 0.769085 0.836021 0.184474
O O9 0.132909 0.743655 0.500000
O O10 0.060658 0.713290 0.360284
O O11 0.165146 0.662697 0.381764
O O12 0.327465 0.000000 0.000000
O O13 0.220451 0.407110 0.500000
O O14 0.226386 0.425105 0.304365
O O15 0.251420 0.500000 0.833581
O O16 0.173041 0.584024 0.859119
O O17 0.898407 0.500000 0.898696
O O18 0.904889 0.404369 0.000000
#
# Coordination Sequence:
#
# PCOD9566036 Si02
#       8
#     8  16   8  16   8  16  16  16
#     4  10  19  29  44  59  79 120 168 201 226 258
#     4  10  18  29  46  63  83 113 146 185 225 270
#     4  10  16  30  52  68  86 115 157 192 224 272
#     4   9  17  30  49  69  89 120 154 189 230 271
#     4  10  20  32  45  64  96 122 150 196 238 276
#     4   9  17  31  47  63  84 115 153 182 220 274
#     4  11  19  28  42  63  89 113 141 183 234 273
#     4   9  18  30  41  54  77 111 151 190 223 260
#
# _framework density 14.775506
#
# number of rings (size 3 to 8) (size 9 to 14) (size 15 to 20)
#    0.000    2.308    3.077    3.000    0.000    2.308 
#    0.000    0.000    0.000    5.538    0.000    0.000 
#    0.000    5.231    0.000   16.308    0.000    0.000 
#
# Total GULP energy -579281.919892 kJ/mol
# GULP energy per Si atom -5570.018461 kJ/mol
# Density = 1.474188 g / cm^3
# Si number density = 14.775506 Si / 1000 Ang^3
#
#
#
# Elastic Constant Matrix: (Units=GPa)
#
#
# Indices 1 2 3 4 5 6 
#
# 1 64.9380 23.2619 26.2715 0.0000 0.0000 0.0000
# 2 23.2619 64.9380 26.2715 0.0000 0.0000 0.0000
# 3 26.2715 26.2715 81.3759 0.0000 0.0000 0.0000
# 4 0.0000 0.0000 0.0000 20.8668 0.0000 0.0000
# 5 0.0000 0.0000 0.0000 0.0000 20.8668 0.0000
# 6 0.0000 0.0000 0.0000 0.0000 0.0000 6.2848
#
#
#
# Elastic Compliance Matrix: (Units=1/GPa)
#
#
# Indices 1 2 3 4 5 6 
#
# 1 0.019016 -0.004978 -0.004532 0.000000 0.000000 0.000000
# 2 -0.004978 0.019016 -0.004532 0.000000 0.000000 0.000000
# 3 -0.004532 -0.004532 0.015215 0.000000 0.000000 0.000000
# 4 0.000000 0.000000 0.000000 0.047923 0.000000 0.000000
# 5 0.000000 0.000000 0.000000 0.000000 0.047923 0.000000
# 6 0.000000 0.000000 0.000000 0.000000 0.000000 0.159114
#
#
# Mechanical properties :
#
#
# Convention : Reuss Voigt Hill
#
# Bulk Modulus (GPa) = 39.74179 40.31798 40.02988
# Shear Modulus (GPa) = 14.50623 18.63348 16.56986
#
# Velocity S-wave (km/s) = 3.13673 3.55506 3.35243
# Velocity P-wave (km/s) = 6.33042 6.64812 6.49122
#
# Compressibility (1/GPa) = 0.02516243
#
# Stress axis : x y z
#
# Youngs Moduli (GPa) = 52.58693 52.58693 65.72531
#
# Poissons Ratio (x) = 0.26180 0.29786
# Poissons Ratio (y) = 0.26180 0.29786
# Poissons Ratio (z) = 0.23832 0.23832
#
# Static dielectric constant tensor:
#      x y z
#    x 1.490620 0.000000 0.000000 
#    y 0.000000 1.490620 0.000000 
#    z 0.000000 0.000000 1.530370 
# 
# From -- ./inp_files/6305.got.cif
#   From: 2010.05.17/outbox.cif.g08.bks.cpg/sg131_4_cif.got.tgz:6305.got - 2010.05.20 12:21:01.
