data_PCOD9566365
_publ_section_title
;
Structure prediction by ZEFSAII (Michael W. Deem and Ramdas Pophale) SiO2 
 PCOD9566365
Probable space group: P 42/M M C
;
_chemical_formula_sum "Si O2"
_cell_formula_units_Z 80
_cell_length_a 12.190306
_cell_length_b 12.190306
_cell_length_c 31.553900
_cell_angle_alpha 90.000000
_cell_angle_beta 90.000000
_cell_angle_gamma 90.000000
_cell_volume 4689.021884
_symmetry_space_group_name_H-M "P 42/M M C"
_symmetry_group_IT_number 131
_symmetry_cell_setting 'tetragonal'
loop_
_space_group_symop_operation_xyz
x,y,z
-x,-y,z
-y,x,1/2+z
y,-x,1/2+z
-x,y,-z
x,-y,-z
y,x,1/2-z
-y,-x,1/2-z
-x,-y,-z
x,y,-z
y,-x,1/2-z
-y,x,1/2-z
x,-y,z
-x,y,z
-y,-x,1/2+z
y,x,1/2+z
loop_
_atom_site_type_symbol
_atom_site_label
_atom_site_fract_x
_atom_site_fract_y
_atom_site_fract_z
Si Si1 0.630922 0.129934 0.359864
Si Si2 0.366720 0.000000 0.203528
Si Si3 0.261216 0.226889 0.072365
Si Si4 0.626365 0.630634 0.500000
Si Si5 0.000000 0.631992 0.394608
Si Si6 0.121906 0.128367 0.500000
Si Si7 0.801324 0.630441 0.762688
O O1 0.500000 0.146794 0.367854
O O2 0.704707 0.207970 0.389293
O O3 0.651824 0.159542 0.310656
O O4 0.653325 0.000000 0.366634
O O5 0.333521 0.000000 0.154809
O O6 0.330932 0.893826 0.229649
O O7 0.500000 0.000000 0.204181
O O8 0.331307 0.307145 0.041831
O O9 0.324127 0.115167 0.086080
O O10 0.165715 0.185075 0.041515
O O11 0.500000 0.672469 0.500000
O O12 0.622699 0.500000 0.500000
O O13 0.000000 0.500000 0.397760
O O14 0.000000 0.179385 0.500000
O O15 0.112319 0.000000 0.500000
O O16 0.691035 0.691035 0.750000
O O17 0.789699 0.500000 0.758624
#
# Coordination Sequence:
#
# PCOD9566365 Si02
#       7
#    16   8  16   8   8   8  16
#     4  10  20  36  58  85 113 146 190 237 286 341
#     4   9  18  34  53  75 106 146 184 220 275 332
#     4  11  21  36  57  84 108 148 188 236 282 336
#     4  10  22  39  58  80 113 151 187 234 294 351
#     4  11  22  35  54  83 114 146 193 237 273 336
#     4  10  20  36  53  75 108 141 178 223 279 338
#     4  10  19  34  56  80 111 149 187 231 284 338
#
# _framework density 17.061126000000002
#
# number of rings (size 3 to 8) (size 9 to 14) (size 15 to 20)
#    0.000    1.800    2.000    3.000    0.000    0.200 
#    0.000    2.500    0.000    7.500    0.000    0.000 
#    0.000    0.000    0.000    0.000    0.000    0.000 
#
# Total GULP energy -446001.693689 kJ/mol
# GULP energy per Si atom -5575.021171 kJ/mol
# Density = 1.702229 g / cm^3
# Si number density = 17.061126 Si / 1000 Ang^3
#
#
#
# Elastic Constant Matrix: (Units=GPa)
#
#
# Indices 1 2 3 4 5 6 
#
# 1 97.4749 57.9101 64.5611 0.0000 0.0000 0.0000
# 2 57.9101 97.4749 64.5611 0.0000 0.0000 0.0000
# 3 64.5611 64.5611 124.8092 0.0000 0.0000 0.0000
# 4 0.0000 0.0000 0.0000 -240.2431 0.0000 0.0000
# 5 0.0000 0.0000 0.0000 0.0000 -240.2431 0.0000
# 6 0.0000 0.0000 0.0000 0.0000 0.0000 18.2417
#
#
#
# Elastic Compliance Matrix: (Units=1/GPa)
#
#
# Indices 1 2 3 4 5 6 
#
# 1 0.018281 -0.006994 -0.005839 0.000000 0.000000 0.000000
# 2 -0.006994 0.018281 -0.005839 0.000000 0.000000 0.000000
# 3 -0.005839 -0.005839 0.014053 0.000000 0.000000 0.000000
# 4 0.000000 0.000000 0.000000 -0.004162 0.000000 0.000000
# 5 0.000000 0.000000 0.000000 0.000000 -0.004162 0.000000
# 6 0.000000 0.000000 0.000000 0.000000 0.000000 0.054819
#
#
# Mechanical properties :
#
#
# Convention : Reuss Voigt Hill
#
# Bulk Modulus (GPa) = 75.34261 77.09151 76.21706
# Shear Modulus (GPa) = 36.00314 -83.60043 -23.79865
#
# Velocity S-wave (km/s) = 4.59872 -7.00763 -3.73889
# Velocity P-wave (km/s) = 8.51199 4.49359 5.11183
#
# Compressibility (1/GPa) = 0.01327270
#
# Stress axis : x y z
#
# Youngs Moduli (GPa) = 54.70076 54.70076 71.16005
#
# Poissons Ratio (x) = 0.38256 0.41549
# Poissons Ratio (y) = 0.38256 0.41549
# Poissons Ratio (z) = 0.31939 0.31939
#
# Static dielectric constant tensor:
#      x y z
#    x 1.568600 0.000000 0.000000 
#    y 0.000000 1.568600 0.000000 
#    z 0.000000 0.000000 1.562720 
# 
# From -- ./inp_files/13491.got.cif
#   From: 2010.05.17/outbox.cif.g08.bks.cpg/sg131_7_cif.got.tgz:13491.got - 2010.05.20 12:21:01.
