data_PCOD9566050
_publ_section_title
;
Structure prediction by ZEFSAII (Michael W. Deem and Ramdas Pophale) SiO2 
 PCOD9566050
Probable space group: P 42/M M C
;
_chemical_formula_sum "Si O2"
_cell_formula_units_Z 112
_cell_length_a 19.257390
_cell_length_b 19.257390
_cell_length_c 18.659904
_cell_angle_alpha 90.000000
_cell_angle_beta 90.000000
_cell_angle_gamma 90.000000
_cell_volume 6919.970718
_symmetry_space_group_name_H-M "P 42/M M C"
_symmetry_group_IT_number 131
_symmetry_cell_setting 'tetragonal'
loop_
_space_group_symop_operation_xyz
x,y,z
-x,-y,z
-y,x,1/2+z
y,-x,1/2+z
-x,y,-z
x,-y,-z
y,x,1/2-z
-y,-x,1/2-z
-x,-y,-z
x,y,-z
y,-x,1/2-z
-y,x,1/2-z
x,-y,z
-x,y,z
-y,-x,1/2+z
y,x,1/2+z
loop_
_atom_site_type_symbol
_atom_site_label
_atom_site_fract_x
_atom_site_fract_y
_atom_site_fract_z
Si Si1 0.338496 0.786741 0.330841
Si Si2 0.580405 0.672188 0.414390
Si Si3 0.080246 0.788019 0.319303
Si Si4 0.079400 0.692096 0.083322
Si Si5 0.921746 0.164076 0.845063
Si Si6 0.289473 0.421979 0.414278
Si Si7 0.689744 0.794529 0.835222
O O1 0.395632 0.737899 0.367653
O O2 0.340621 0.862099 0.366670
O O3 0.263583 0.750122 0.345301
O O4 0.340579 0.789664 0.245202
O O5 0.588232 0.686751 0.500000
O O6 0.500000 0.654011 0.401877
O O7 0.636026 0.612328 0.395477
O O8 0.086544 0.798434 0.232827
O O9 0.108471 0.860770 0.350713
O O10 0.131433 0.726705 0.343082
O O11 0.000000 0.776037 0.336225
O O12 0.083705 0.774961 0.097025
O O13 0.000000 0.671921 0.101391
O O14 0.092228 0.676682 0.000000
O O15 0.000000 0.134572 0.846533
O O16 0.286898 0.424319 0.500000
O O17 0.283700 0.500000 0.385842
O O18 0.228968 0.371627 0.386972
#
# Coordination Sequence:
#
# PCOD9566050 Si02
#       7
#    16  16  16  16  16  16  16
#     4  10  17  30  48  69  99 128 164 204 241 282
#     4   9  18  31  49  76 105 131 157 188 233 287
#     4  10  17  28  46  69  96 126 163 211 256 286
#     4  10  18  27  44  69  96 130 168 202 237 281
#     4   9  16  28  43  65  98 130 163 201 243 293
#     4   9  19  35  54  75  98 126 158 194 239 293
#     4  10  18  30  49  72  94 125 166 208 249 286
#
# _framework density 16.185039
#
# number of rings (size 3 to 8) (size 9 to 14) (size 15 to 20)
#    0.000    2.429    2.857    1.286    0.000    1.714 
#    0.000    2.857    0.000    2.571    0.000   11.000 
#    0.000    0.000    0.000    0.000    0.000    0.000 
#
# Total GULP energy -623954.037983 kJ/mol
# GULP energy per Si atom -5571.018196 kJ/mol
# Density = 1.614820 g / cm^3
# Si number density = 16.185039 Si / 1000 Ang^3
#
#
#
# Elastic Constant Matrix: (Units=GPa)
#
#
# Indices 1 2 3 4 5 6 
#
# 1 94.9538 56.2263 21.4603 0.0000 0.0000 0.0000
# 2 56.2263 94.9538 21.4603 0.0000 0.0000 0.0000
# 3 21.4603 21.4603 21.6411 0.0000 0.0000 0.0000
# 4 0.0000 0.0000 0.0000 18.9821 0.0000 0.0000
# 5 0.0000 0.0000 0.0000 0.0000 18.9821 0.0000
# 6 0.0000 0.0000 0.0000 0.0000 0.0000 12.1266
#
#
#
# Elastic Compliance Matrix: (Units=1/GPa)
#
#
# Indices 1 2 3 4 5 6 
#
# 1 0.017514 -0.008307 -0.009130 0.000000 0.000000 0.000000
# 2 -0.008307 0.017514 -0.009130 0.000000 0.000000 0.000000
# 3 -0.009130 -0.009130 0.064315 0.000000 0.000000 0.000000
# 4 0.000000 0.000000 0.000000 0.052681 0.000000 0.000000
# 5 0.000000 0.000000 0.000000 0.000000 0.052681 0.000000
# 6 0.000000 0.000000 0.000000 0.000000 0.000000 0.082463
#
#
# Mechanical properties :
#
#
# Convention : Reuss Voigt Hill
#
# Bulk Modulus (GPa) = 21.64052 45.53806 33.58929
# Shear Modulus (GPa) = 14.05659 17.51163 15.78411
#
# Velocity S-wave (km/s) = 2.95022 3.29289 3.12625
# Velocity P-wave (km/s) = 5.00048 6.53104 5.81632
#
# Compressibility (1/GPa) = 0.04620962
#
# Stress axis : x y z
#
# Youngs Moduli (GPa) = 57.09718 57.09718 15.54847
#
# Poissons Ratio (x) = 0.47433 0.14195
# Poissons Ratio (y) = 0.47433 0.14195
# Poissons Ratio (z) = 0.52128 0.52128
#
# Static dielectric constant tensor:
#      x y z
#    x 1.539300 0.000000 0.000000 
#    y 0.000000 1.539300 0.000000 
#    z 0.000000 0.000000 1.543870 
# 
# From -- ./inp_files/10041.got.cif
#   From: 2010.05.17/outbox.cif.g08.bks.cpg/sg131_6_cif.got.tgz:10041.got - 2010.05.20 12:21:01.
