data_PCOD9566143
_publ_section_title
;
Structure prediction by ZEFSAII (Michael W. Deem and Ramdas Pophale) SiO2 
 PCOD9566143
Probable space group: P 42/M M C
;
_chemical_formula_sum "Si O2"
_cell_formula_units_Z 104
_cell_length_a 18.048909
_cell_length_b 18.048909
_cell_length_c 18.054725
_cell_angle_alpha 90.000000
_cell_angle_beta 90.000000
_cell_angle_gamma 90.000000
_cell_volume 5881.563476
_symmetry_space_group_name_H-M "P 42/M M C"
_symmetry_group_IT_number 131
_symmetry_cell_setting 'tetragonal'
loop_
_space_group_symop_operation_xyz
x,y,z
-x,-y,z
-y,x,1/2+z
y,-x,1/2+z
-x,y,-z
x,-y,-z
y,x,1/2-z
-y,-x,1/2-z
-x,-y,-z
x,y,-z
y,-x,1/2-z
-y,x,1/2-z
x,-y,z
-x,y,z
-y,-x,1/2+z
y,x,1/2+z
loop_
_atom_site_type_symbol
_atom_site_label
_atom_site_fract_x
_atom_site_fract_y
_atom_site_fract_z
Si Si1 0.167681 0.317307 0.705927
Si Si2 0.620010 0.202410 0.416358
Si Si3 0.083847 0.500000 0.910125
Si Si4 0.587875 0.296117 0.278380
Si Si5 0.833874 0.766805 0.148049
Si Si6 0.414589 0.911013 0.915459
Si Si7 0.086279 0.917316 0.160269
O O1 0.226725 0.377549 0.733874
O O2 0.133802 0.275707 0.778603
O O3 0.211450 0.250120 0.667946
O O4 0.116325 0.357758 0.646665
O O5 0.598365 0.220024 0.500000
O O6 0.569739 0.133964 0.388506
O O7 0.606974 0.271954 0.362687
O O8 0.703708 0.173018 0.412729
O O9 0.000000 0.500000 0.881023
O O10 0.078912 0.500000 0.000000
O O11 0.632170 0.367831 0.250000
O O12 0.500000 0.302557 0.269650
O O13 0.874299 0.843695 0.130820
O O14 0.500000 0.887545 0.900026
O O15 0.414141 0.000000 0.915654
O O16 0.396051 0.886559 0.000000
O O17 0.089139 0.910862 0.250000
O O18 0.000000 0.916006 0.139149
O O19 0.116024 0.000000 0.140961
#
# Coordination Sequence:
#
# PCOD9566143 Si02
#       7
#    16  16   8  16  16  16  16
#     4  10  18  33  51  77 109 143 178 228 283 328
#     4  10  20  36  59  83 114 157 190 231 291 346
#     4   9  18  34  56  84 115 147 188 231 277 343
#     4  11  21  38  60  83 112 144 187 233 280 344
#     4  10  19  33  53  80 110 141 187 241 283 340
#     4   9  19  35  53  76 110 151 189 224 271 336
#     4   9  17  30  49  74 106 146 190 237 290 337
#
# _framework density 17.682372999999998
#
# number of rings (size 3 to 8) (size 9 to 14) (size 15 to 20)
#    0.000    2.231    5.385    1.385    0.000    2.615 
#    0.000    2.308    0.000    0.923    0.000    2.154 
#    0.000    0.615    0.000    3.385    0.000    0.000 
#
# Total GULP energy -579048.776608 kJ/mol
# GULP energy per Si atom -5567.776698 kJ/mol
# Density = 1.764213 g / cm^3
# Si number density = 17.682373 Si / 1000 Ang^3
#
#
#
# Elastic Constant Matrix: (Units=GPa)
#
#
# Indices 1 2 3 4 5 6 
#
# 1 99.4782 48.8167 34.4301 0.0000 0.0000 0.0000
# 2 48.8167 99.4795 34.4291 0.0000 0.0000 0.0000
# 3 34.4301 34.4291 57.9522 0.0000 0.0000 0.0000
# 4 0.0000 0.0000 0.0000 17.8672 0.0000 0.0000
# 5 0.0000 0.0000 0.0000 0.0000 17.8675 0.0000
# 6 0.0000 0.0000 0.0000 0.0000 0.0000 33.0172
#
#
#
# Elastic Compliance Matrix: (Units=1/GPa)
#
#
# Indices 1 2 3 4 5 6 
#
# 1 0.014526 -0.005213 -0.005533 0.000000 0.000000 0.000000
# 2 -0.005213 0.014525 -0.005532 0.000000 0.000000 0.000000
# 3 -0.005533 -0.005532 0.023829 0.000000 0.000000 0.000000
# 4 0.000000 0.000000 0.000000 0.055968 0.000000 0.000000
# 5 0.000000 0.000000 0.000000 0.000000 0.055967 0.000000
# 6 0.000000 0.000000 0.000000 0.000000 0.000000 0.030287
#
#
# Mechanical properties :
#
#
# Convention : Reuss Voigt Hill
#
# Bulk Modulus (GPa) = 49.20289 54.69574 51.94931
# Shear Modulus (GPa) = 21.32798 23.03265 22.18032
#
# Velocity S-wave (km/s) = 3.47677 3.61304 3.54556
# Velocity P-wave (km/s) = 6.63352 6.95736 6.79737
#
# Compressibility (1/GPa) = 0.02032401
#
# Stress axis : x y z
#
# Youngs Moduli (GPa) = 68.84382 68.84601 41.96523
#
# Poissons Ratio (x) = 0.35891 0.23218
# Poissons Ratio (y) = 0.35890 0.23216
# Poissons Ratio (z) = 0.38089 0.38086
#
# Static dielectric constant tensor:
#      x y z
#    x 1.608200 0.000000 0.000000 
#    y 0.000000 1.608200 0.000000 
#    z 0.000000 0.000000 1.629060 
# 
# From -- ./inp_files/8065.got.cif
#   From: 2010.05.17/outbox.cif.g08.bks.cpg/sg131_5_cif.got.tgz:8065.got - 2010.05.20 12:21:01.
