data_PCOD9566589
_publ_section_title
;
Structure prediction by ZEFSAII (Michael W. Deem and Ramdas Pophale) SiO2 
 PCOD9566589
Probable space group: P 42/M M C
;
_chemical_formula_sum "Si O2"
_cell_formula_units_Z 88
_cell_length_a 17.879168
_cell_length_b 17.879168
_cell_length_c 14.027627
_cell_angle_alpha 90.000000
_cell_angle_beta 90.000000
_cell_angle_gamma 90.000000
_cell_volume 4484.136452
_symmetry_space_group_name_H-M "P 42/M M C"
_symmetry_group_IT_number 131
_symmetry_cell_setting 'tetragonal'
loop_
_space_group_symop_operation_xyz
x,y,z
-x,-y,z
-y,x,1/2+z
y,-x,1/2+z
-x,y,-z
x,-y,-z
y,x,1/2-z
-y,-x,1/2-z
-x,-y,-z
x,y,-z
y,-x,1/2-z
-y,x,1/2-z
x,-y,z
-x,y,z
-y,-x,1/2+z
y,x,1/2+z
loop_
_atom_site_type_symbol
_atom_site_label
_atom_site_fract_x
_atom_site_fract_y
_atom_site_fract_z
Si Si1 0.191272 0.585167 0.894501
Si Si2 0.696638 0.585683 0.717228
Si Si3 0.914932 0.309769 0.213010
Si Si4 0.167035 0.865199 0.388856
Si Si5 0.912991 0.000000 0.885143
Si Si6 0.809562 0.689137 0.390480
O O1 0.162366 0.500000 0.893310
O O2 0.253148 0.589363 0.812755
O O3 0.127188 0.642784 0.867405
O O4 0.221576 0.601003 0.000000
O O5 0.616851 0.616851 0.750000
O O6 0.695884 0.500000 0.682993
O O7 0.737016 0.643261 0.644577
O O8 0.908161 0.223720 0.179696
O O9 0.873425 0.326554 0.312482
O O10 0.000000 0.331441 0.221011
O O11 0.173008 0.889996 0.500000
O O12 0.195592 0.779276 0.385218
O O13 0.079676 0.874938 0.360375
O O14 0.000000 0.000000 0.855261
O O15 0.912105 0.000000 0.000000
O O16 0.827519 0.670085 0.500000
#
# Coordination Sequence:
#
# PCOD9566589 Si02
#       6
#    16  16  16  16   8  16
#     4   9  19  37  59  83 115 152 186 227 288 358
#     4  10  21  38  62  93 124 153 189 232 285 351
#     4  11  22  34  54  84 115 147 194 252 306 358
#     4  10  20  35  56  81 113 153 199 251 310 375
#     4   9  18  32  52  80 114 152 194 247 316 384
#     4  10  22  40  60  80 111 159 210 250 286 345
#
# _framework density 19.624737
#
# number of rings (size 3 to 8) (size 9 to 14) (size 15 to 20)
#    0.000    2.091    0.000    3.818    1.273    5.636 
#    0.000    0.909    0.000    0.000    0.000    8.909 
#    0.000    0.000    0.000    0.000    0.000    0.000 
#
# Total GULP energy -491135.021537 kJ/mol
# GULP energy per Si atom -5581.079790 kJ/mol
# Density = 1.958007 g / cm^3
# Si number density = 19.624737 Si / 1000 Ang^3
#
#
#
# Elastic Constant Matrix: (Units=GPa)
#
#
# Indices 1 2 3 4 5 6 
#
# 1 86.6499 44.9490 16.2332 0.0000 0.0000 0.0000
# 2 44.9490 86.6499 16.2332 0.0000 0.0000 0.0000
# 3 16.2332 16.2332 98.2561 0.0000 0.0000 0.0000
# 4 0.0000 0.0000 0.0000 17.3375 0.0000 0.0000
# 5 0.0000 0.0000 0.0000 0.0000 17.3375 0.0000
# 6 0.0000 0.0000 0.0000 0.0000 0.0000 14.8085
#
#
#
# Elastic Compliance Matrix: (Units=1/GPa)
#
#
# Indices 1 2 3 4 5 6 
#
# 1 0.015951 -0.008029 -0.001309 0.000000 0.000000 0.000000
# 2 -0.008029 0.015951 -0.001309 0.000000 0.000000 0.000000
# 3 -0.001309 -0.001309 0.010610 0.000000 0.000000 0.000000
# 4 0.000000 0.000000 0.000000 0.057678 0.000000 0.000000
# 5 0.000000 0.000000 0.000000 0.000000 0.057678 0.000000
# 6 0.000000 0.000000 0.000000 0.000000 0.000000 0.067529
#
#
# Mechanical properties :
#
#
# Convention : Reuss Voigt Hill
#
# Bulk Modulus (GPa) = 47.12912 47.37630 47.25271
# Shear Modulus (GPa) = 19.70334 22.83940 21.27137
#
# Velocity S-wave (km/s) = 3.17204 3.41516 3.29584
# Velocity P-wave (km/s) = 6.12234 6.30433 6.21401
#
# Compressibility (1/GPa) = 0.02121830
#
# Stress axis : x y z
#
# Youngs Moduli (GPa) = 62.69194 62.69194 94.25127
#
# Poissons Ratio (x) = 0.50337 0.12335
# Poissons Ratio (y) = 0.50337 0.12335
# Poissons Ratio (z) = 0.08205 0.08205
#
# Static dielectric constant tensor:
#      x y z
#    x 1.693330 0.000000 0.000000 
#    y 0.000000 1.693330 0.000000 
#    z 0.000000 0.000000 1.708070 
# 
# From -- ./inp_files/5890.got.cif
#   From: 2010.05.17/outbox.cif.g08.bks.cpg/sg131_3_cif.got.tgz:5890.got - 2010.05.20 12:21:01.
