data_PCOD9566490
_publ_section_title
;
Structure prediction by ZEFSAII (Michael W. Deem and Ramdas Pophale) SiO2 
 PCOD9566490
Probable space group: P 42/M M C
;
_chemical_formula_sum "Si O2"
_cell_formula_units_Z 120
_cell_length_a 28.200152
_cell_length_b 28.200152
_cell_length_c 8.877024
_cell_angle_alpha 90.000000
_cell_angle_beta 90.000000
_cell_angle_gamma 90.000000
_cell_volume 7059.440667
_symmetry_space_group_name_H-M "P 42/M M C"
_symmetry_group_IT_number 131
_symmetry_cell_setting 'tetragonal'
loop_
_space_group_symop_operation_xyz
x,y,z
-x,-y,z
-y,x,1/2+z
y,-x,1/2+z
-x,y,-z
x,-y,-z
y,x,1/2-z
-y,-x,1/2-z
-x,-y,-z
x,y,-z
y,-x,1/2-z
-y,x,1/2-z
x,-y,z
-x,y,z
-y,-x,1/2+z
y,x,1/2+z
loop_
_atom_site_type_symbol
_atom_site_label
_atom_site_fract_x
_atom_site_fract_y
_atom_site_fract_z
Si Si1 0.944300 0.227502 0.179643
Si Si2 0.444095 0.229156 0.680032
Si Si3 0.633204 0.296052 0.174652
Si Si4 0.128124 0.055287 0.179799
Si Si5 0.119059 0.316822 0.179452
Si Si6 0.126618 0.417042 0.319279
Si Si7 0.784298 0.715035 0.674883
Si Si8 0.500000 0.054691 0.183061
O O1 0.928619 0.179778 0.262796
O O2 0.915878 0.274304 0.223503
O O3 0.000000 0.234216 0.210350
O O4 0.938317 0.220604 0.000000
O O5 0.437553 0.226660 0.500000
O O6 0.500000 0.236214 0.712197
O O7 0.411728 0.271710 0.744554
O O8 0.428752 0.178363 0.750108
O O9 0.657934 0.342067 0.250000
O O10 0.673591 0.255111 0.178910
O O11 0.622303 0.305838 0.000000
O O12 0.087625 0.087625 0.250000
O O13 0.122483 0.000000 0.225209
O O14 0.126314 0.057858 0.000000
O O15 0.110106 0.365780 0.264155
O O16 0.171379 0.301129 0.227992
O O17 0.116144 0.323927 0.000000
O O18 0.131538 0.418142 0.500000
O O19 0.086662 0.454959 0.272667
O O20 0.760767 0.760767 0.750000
O O21 0.797114 0.722739 0.500000
O O22 0.500000 0.000000 0.236607
O O23 0.500000 0.052714 0.000000
#
# Coordination Sequence:
#
# PCOD9566490 Si02
#       8
#    16  16  16  16  16  16  16   8
#     4   9  20  39  58  75 100 136 174 214 264 319
#     4  11  22  35  55  82 114 150 190 234 282 334
#     4  10  20  34  54  79 111 149 186 226 273 326
#     4  10  21  37  59  86 113 142 176 214 260 318
#     4  11  22  35  54  78 105 137 176 224 273 324
#     4  11  21  35  55  78 105 139 182 232 284 341
#     4  10  20  33  50  74 104 138 174 213 260 315
#     4   9  20  38  57  77 103 137 179 231 290 347
#
# _framework density 16.998512999999999
#
# number of rings (size 3 to 8) (size 9 to 14) (size 15 to 20)
#    0.000    1.800    2.000    2.400    0.000    4.933 
#    0.000    0.667    0.000    2.800    0.000    0.000 
#    0.000    0.267    0.000    2.800    0.000    1.200 
#
# Total GULP energy -669837.621593 kJ/mol
# GULP energy per Si atom -5581.980180 kJ/mol
# Density = 1.695982 g / cm^3
# Si number density = 16.998513 Si / 1000 Ang^3
#
#
#
# Elastic Constant Matrix: (Units=GPa)
#
#
# Indices 1 2 3 4 5 6 
#
# 1 100.6260 85.1213 48.2843 0.0000 0.0000 0.0000
# 2 85.1213 100.6245 48.2839 0.0000 0.0000 0.0000
# 3 48.2843 48.2839 66.1706 0.0000 0.0000 0.0000
# 4 0.0000 0.0000 0.0000 23.3219 0.0000 0.0000
# 5 0.0000 0.0000 0.0000 0.0000 23.3217 0.0000
# 6 0.0000 0.0000 0.0000 0.0000 0.0000 18.1438
#
#
#
# Elastic Compliance Matrix: (Units=1/GPa)
#
#
# Indices 1 2 3 4 5 6 
#
# 1 0.036587 -0.027913 -0.006330 0.000000 0.000000 0.000000
# 2 -0.027913 0.036587 -0.006330 0.000000 0.000000 0.000000
# 3 -0.006330 -0.006330 0.024350 0.000000 0.000000 0.000000
# 4 0.000000 0.000000 0.000000 0.042878 0.000000 0.000000
# 5 0.000000 0.000000 0.000000 0.000000 0.042878 0.000000
# 6 0.000000 0.000000 0.000000 0.000000 0.000000 0.055115
#
#
# Mechanical properties :
#
#
# Convention : Reuss Voigt Hill
#
# Bulk Modulus (GPa) = 61.04977 70.08888 65.56932
# Shear Modulus (GPa) = 15.38465 18.67293 17.02879
#
# Velocity S-wave (km/s) = 3.01168 3.31796 3.16853
# Velocity P-wave (km/s) = 6.93443 7.48334 7.21411
#
# Compressibility (1/GPa) = 0.01638008
#
# Stress axis : x y z
#
# Youngs Moduli (GPa) = 27.33233 27.33196 41.06811
#
# Poissons Ratio (x) = 0.76290 0.25995
# Poissons Ratio (y) = 0.76292 0.25995
# Poissons Ratio (z) = 0.17300 0.17300
#
# Static dielectric constant tensor:
#      x y z
#    x 1.569130 0.000000 0.000000 
#    y 0.000000 1.569130 0.000000 
#    z 0.000000 0.000000 1.572510 
# 
# From -- ./inp_files/2690.got.cif
#   From: 2010.05.17/outbox.cif.g08.bks.cpg/sg131_2_cif.got.tgz:2690.got - 2010.05.20 12:21:01.
