data_PCOD9566048
_publ_section_title
;
Structure prediction by ZEFSAII (Michael W. Deem and Ramdas Pophale) SiO2 
 PCOD9566048
Probable space group: P 42/M M C
;
_chemical_formula_sum "Si O2"
_cell_formula_units_Z 56
_cell_length_a 27.477137
_cell_length_b 27.477137
_cell_length_c 5.244922
_cell_angle_alpha 90.000000
_cell_angle_beta 90.000000
_cell_angle_gamma 90.000000
_cell_volume 3959.879698
_symmetry_space_group_name_H-M "P 42/M M C"
_symmetry_group_IT_number 131
_symmetry_cell_setting 'tetragonal'
loop_
_space_group_symop_operation_xyz
x,y,z
-x,-y,z
-y,x,1/2+z
y,-x,1/2+z
-x,y,-z
x,-y,-z
y,x,1/2-z
-y,-x,1/2-z
-x,-y,-z
x,y,-z
y,-x,1/2-z
-y,x,1/2-z
x,-y,z
-x,y,z
-y,-x,1/2+z
y,x,1/2+z
loop_
_atom_site_type_symbol
_atom_site_label
_atom_site_fract_x
_atom_site_fract_y
_atom_site_fract_z
Si Si1 0.744743 0.554952 0.500000
Si Si2 0.554616 0.188312 0.500000
Si Si3 0.892748 0.297112 0.500000
Si Si4 0.706530 0.340327 0.500000
Si Si5 0.705008 0.000000 0.000000
Si Si6 0.634917 0.894329 0.500000
Si Si7 0.637203 0.000000 0.500000
Si Si8 0.785999 0.738904 0.500000
O O1 0.723304 0.500000 0.500000
O O2 0.778207 0.559244 0.750498
O O3 0.710048 0.601595 0.500000
O O4 0.500000 0.167239 0.500000
O O5 0.595222 0.147399 0.500000
O O6 0.890445 0.331119 0.750615
O O7 0.844099 0.265147 0.500000
O O8 0.946087 0.270987 0.500000
O O9 0.679532 0.320469 0.750000
O O10 0.760101 0.314572 0.500000
O O11 0.671313 0.000000 0.250696
O O12 0.610889 0.948180 0.500000
O O13 0.766178 0.766178 0.250000
#
# Coordination Sequence:
#
# PCOD9566048 Si02
#       8
#     8   8   8   8   4   8   4   8
#     4  10  20  33  47  64  86 111 139 170 201 240
#     4  10  19  29  43  61  81 108 141 170 203 248
#     4  10  18  29  45  60  80 108 141 178 208 245
#     4  10  19  30  45  65  89 112 137 166 201 248
#     4   8  16  28  42  60  75 100 142 179 210 238
#     4  10  17  28  43  58  77 104 138 176 216 244
#     4   8  16  26  39  58  76  96 132 180 216 247
#     4  10  19  28  40  62  88 113 137 164 206 254
#
# _framework density 14.141845
#
# number of rings (size 3 to 8) (size 9 to 14) (size 15 to 20)
#    0.000    2.286    0.000    4.286    0.000    2.286 
#    0.000    0.357    0.000    0.000    0.000    9.000 
#    0.000    1.714    0.000    0.000    0.000    2.143 
#
# Total GULP energy -311913.997531 kJ/mol
# GULP energy per Si atom -5569.892813 kJ/mol
# Density = 1.410966 g / cm^3
# Si number density = 14.141845 Si / 1000 Ang^3
#
#
#
# Elastic Constant Matrix: (Units=GPa)
#
#
# Indices 1 2 3 4 5 6 
#
# 1 83.2179 37.4588 19.6349 0.0000 0.0000 0.0000
# 2 37.4588 83.2187 19.6349 0.0000 0.0000 0.0000
# 3 19.6349 19.6349 116.3993 0.0000 0.0000 0.0000
# 4 0.0000 0.0000 0.0000 16.2613 0.0000 0.0000
# 5 0.0000 0.0000 0.0000 0.0000 16.2626 0.0000
# 6 0.0000 0.0000 0.0000 0.0000 0.0000 16.1362
#
#
#
# Elastic Compliance Matrix: (Units=1/GPa)
#
#
# Indices 1 2 3 4 5 6 
#
# 1 0.015311 -0.006543 -0.001479 0.000000 0.000000 0.000000
# 2 -0.006543 0.015311 -0.001479 0.000000 0.000000 0.000000
# 3 -0.001479 -0.001479 0.009090 0.000000 0.000000 0.000000
# 4 0.000000 0.000000 0.000000 0.061496 0.000000 0.000000
# 5 0.000000 0.000000 0.000000 0.000000 0.061491 0.000000
# 6 0.000000 0.000000 0.000000 0.000000 0.000000 0.061972
#
#
# Mechanical properties :
#
#
# Convention : Reuss Voigt Hill
#
# Bulk Modulus (GPa) = 48.28640 48.47702 48.38171
# Shear Modulus (GPa) = 19.95411 23.47252 21.71332
#
# Velocity S-wave (km/s) = 3.76040 4.07847 3.92266
# Velocity P-wave (km/s) = 7.28510 7.51879 7.40286
#
# Compressibility (1/GPa) = 0.02070976
#
# Stress axis : x y z
#
# Youngs Moduli (GPa) = 65.31380 65.31446 110.00983
#
# Poissons Ratio (x) = 0.42734 0.16271
# Poissons Ratio (y) = 0.42733 0.16270
# Poissons Ratio (z) = 0.09660 0.09660
#
# Static dielectric constant tensor:
#      x y z
#    x 1.470260 0.000000 0.000000 
#    y 0.000000 1.470260 0.000000 
#    z 0.000000 0.000000 1.468640 
# 
# From -- ./inp_files/251.got.cif
#   From: 2010.05.17/outbox.cif.g08.bks.cpg/sg131_1_cif.got.tgz:251.got - 2010.05.20 12:21:01.
