data_PCOD9566557
_publ_section_title
;
Structure prediction by ZEFSAII (Michael W. Deem and Ramdas Pophale) SiO2 
 PCOD9566557
Probable space group: P 42/M M C
;
_chemical_formula_sum "Si O2"
_cell_formula_units_Z 96
_cell_length_a 14.281106
_cell_length_b 14.281106
_cell_length_c 23.000485
_cell_angle_alpha 90.000000
_cell_angle_beta 90.000000
_cell_angle_gamma 90.000000
_cell_volume 4690.948653
_symmetry_space_group_name_H-M "P 42/M M C"
_symmetry_group_IT_number 131
_symmetry_cell_setting 'tetragonal'
loop_
_space_group_symop_operation_xyz
x,y,z
-x,-y,z
-y,x,1/2+z
y,-x,1/2+z
-x,y,-z
x,-y,-z
y,x,1/2-z
-y,-x,1/2-z
-x,-y,-z
x,y,-z
y,-x,1/2-z
-y,x,1/2-z
x,-y,z
-x,y,z
-y,-x,1/2+z
y,x,1/2+z
loop_
_atom_site_type_symbol
_atom_site_label
_atom_site_fract_x
_atom_site_fract_y
_atom_site_fract_z
Si Si1 0.609330 0.191191 0.835051
Si Si2 0.606372 0.890299 0.713145
Si Si3 0.251904 0.888402 0.613874
Si Si4 0.397654 0.241972 0.562587
Si Si5 0.748005 0.111913 0.930225
Si Si6 0.609228 0.399010 0.165710
O O1 0.500000 0.182707 0.850333
O O2 0.628376 0.124322 0.780629
O O3 0.669588 0.165322 0.891601
O O4 0.624468 0.295752 0.809047
O O5 0.500000 0.850270 0.702383
O O6 0.693464 0.858214 0.673432
O O7 0.598872 0.000000 0.700615
O O8 0.321029 0.837743 0.568892
O O9 0.152174 0.842779 0.599113
O O10 0.248507 0.000000 0.610357
O O11 0.387563 0.288523 0.500000
O O12 0.500000 0.196213 0.565960
O O13 0.396139 0.321251 0.611212
O O14 0.738986 0.000000 0.923291
O O15 0.744032 0.131549 0.000000
O O16 0.624509 0.500000 0.197254
O O17 0.500000 0.400209 0.148329
#
# Coordination Sequence:
#
# PCOD9566557 Si02
#       6
#    16  16  16  16  16  16
#     4  10  20  38  66  94 123 163 206 249 303 365
#     4   9  19  37  63  95 125 155 201 259 311 363
#     4  11  23  40  62  85 115 157 204 255 314 373
#     4  10  20  34  54  83 119 156 197 246 296 354
#     4  11  25  43  62  89 125 160 203 261 316 369
#     4   9  18  33  55  87 124 160 199 239 286 353
#
# _framework density 20.464943000000002
#
# number of rings (size 3 to 8) (size 9 to 14) (size 15 to 20)
#    0.000    2.000    1.667    1.500    0.000    5.000 
#    0.000    5.833    0.000    1.000    0.000    7.000 
#    0.000    0.000    0.000    0.000    0.000    0.000 
#
# Total GULP energy -534808.089310 kJ/mol
# GULP energy per Si atom -5570.917597 kJ/mol
# Density = 2.041836 g / cm^3
# Si number density = 20.464943 Si / 1000 Ang^3
#
#
#
# Elastic Constant Matrix: (Units=GPa)
#
#
# Indices 1 2 3 4 5 6 
#
# 1 108.6557 27.3915 32.0645 0.0000 0.0000 0.0000
# 2 27.3915 108.6557 32.0645 0.0000 0.0000 0.0000
# 3 32.0645 32.0645 86.3190 0.0000 0.0000 0.0000
# 4 0.0000 0.0000 0.0000 17.2266 0.0000 0.0000
# 5 0.0000 0.0000 0.0000 0.0000 17.2266 0.0000
# 6 0.0000 0.0000 0.0000 0.0000 0.0000 23.0068
#
#
#
# Elastic Compliance Matrix: (Units=1/GPa)
#
#
# Indices 1 2 3 4 5 6 
#
# 1 0.010608 -0.001697 -0.003310 0.000000 0.000000 0.000000
# 2 -0.001697 0.010608 -0.003310 0.000000 0.000000 0.000000
# 3 -0.003310 -0.003310 0.014044 0.000000 0.000000 0.000000
# 4 0.000000 0.000000 0.000000 0.058050 0.000000 0.000000
# 5 0.000000 0.000000 0.000000 0.000000 0.058050 0.000000
# 6 0.000000 0.000000 0.000000 0.000000 0.000000 0.043465
#
#
# Mechanical properties :
#
#
# Convention : Reuss Voigt Hill
#
# Bulk Modulus (GPa) = 53.69029 54.07458 53.88244
# Shear Modulus (GPa) = 22.97070 25.63264 24.30167
#
# Velocity S-wave (km/s) = 3.35392 3.54293 3.44972
# Velocity P-wave (km/s) = 6.42577 6.57395 6.50029
#
# Compressibility (1/GPa) = 0.01862534
#
# Stress axis : x y z
#
# Youngs Moduli (GPa) = 94.26768 94.26768 71.20465
#
# Poissons Ratio (x) = 0.16002 0.23569
# Poissons Ratio (y) = 0.16002 0.23569
# Poissons Ratio (z) = 0.31202 0.31202
#
# Static dielectric constant tensor:
#      x y z
#    x 1.773410 0.000000 0.000000 
#    y 0.000000 1.773410 0.000000 
#    z 0.000000 0.000000 1.762950 
# 
# From -- ./inp_files/9748.got.cif
#   From: 2010.05.17/outbox.cif.g08.bks.cpg/sg131_5_cif.got.tgz:9748.got - 2010.05.20 12:21:01.
