data_PCOD9566055
_publ_section_title
;
Structure prediction by ZEFSAII (Michael W. Deem and Ramdas Pophale) SiO2 
 PCOD9566055
Probable space group: P 42/M M C
;
_chemical_formula_sum "Si O2"
_cell_formula_units_Z 96
_cell_length_a 18.061906
_cell_length_b 18.061906
_cell_length_c 16.476527
_cell_angle_alpha 90.000000
_cell_angle_beta 90.000000
_cell_angle_gamma 90.000000
_cell_volume 5375.177744
_symmetry_space_group_name_H-M "P 42/M M C"
_symmetry_group_IT_number 131
_symmetry_cell_setting 'tetragonal'
loop_
_space_group_symop_operation_xyz
x,y,z
-x,-y,z
-y,x,1/2+z
y,-x,1/2+z
-x,y,-z
x,-y,-z
y,x,1/2-z
-y,-x,1/2-z
-x,-y,-z
x,y,-z
y,-x,1/2-z
-y,x,1/2-z
x,-y,z
-x,y,z
-y,-x,1/2+z
y,x,1/2+z
loop_
_atom_site_type_symbol
_atom_site_label
_atom_site_fract_x
_atom_site_fract_y
_atom_site_fract_z
Si Si1 0.349074 0.334360 0.595079
Si Si2 0.083582 0.000000 0.401822
Si Si3 0.415872 0.825816 0.409765
Si Si4 0.665481 0.085401 0.286291
Si Si5 0.791536 0.284718 0.672138
Si Si6 0.198323 0.127283 0.596137
Si Si7 0.500000 0.587147 0.598719
O O1 0.342918 0.353033 0.500000
O O2 0.365629 0.246414 0.601613
O O3 0.268953 0.341270 0.635871
O O4 0.422505 0.376061 0.627480
O O5 0.129245 0.925606 0.380819
O O6 0.079625 0.000000 0.500000
O O7 0.000000 0.000000 0.369548
O O8 0.401093 0.856808 0.500000
O O9 0.500000 0.798788 0.409114
O O10 0.402038 0.883598 0.339343
O O11 0.677551 0.135413 0.207322
O O12 0.734303 0.099187 0.348119
O O13 0.659310 0.000000 0.267090
O O14 0.751758 0.248243 0.750000
O O15 0.810940 0.214685 0.614726
O O16 0.212893 0.117416 0.500000
O O17 0.500000 0.500000 0.616695
O O18 0.500000 0.596644 0.500000
#
# Coordination Sequence:
#
# PCOD9566055 Si02
#       7
#    16   8  16  16  16  16   8
#     4  10  17  31  57  82 109 145 183 220 267 330
#     4   9  18  30  46  70  97 127 164 218 285 338
#     4  10  19  32  54  84 108 136 177 224 274 326
#     4  11  22  35  51  73 107 145 185 228 279 328
#     4  10  20  32  50  73 103 142 184 224 267 323
#     4  10  18  31  52  74  97 131 178 229 277 329
#     4   9  18  32  56  90 121 145 172 218 272 327
#
# _framework density 17.859874999999999
#
# number of rings (size 3 to 8) (size 9 to 14) (size 15 to 20)
#    0.000    2.000    5.000    1.000    0.000    2.000 
#    0.000    1.667    1.833    1.500    0.000    0.000 
#    0.000    0.000    0.000   10.167    0.000    0.000 
#
# Total GULP energy -535015.485994 kJ/mol
# GULP energy per Si atom -5573.077979 kJ/mol
# Density = 1.781922 g / cm^3
# Si number density = 17.859875 Si / 1000 Ang^3
#
#
#
# Elastic Constant Matrix: (Units=GPa)
#
#
# Indices 1 2 3 4 5 6 
#
# 1 84.3190 23.1582 30.3879 0.0000 0.0000 0.0000
# 2 23.1582 84.3192 30.3879 0.0000 0.0000 0.0000
# 3 30.3879 30.3879 38.0597 0.0000 0.0000 0.0000
# 4 0.0000 0.0000 0.0000 17.5073 0.0000 0.0000
# 5 0.0000 0.0000 0.0000 0.0000 17.5069 0.0000
# 6 0.0000 0.0000 0.0000 0.0000 0.0000 22.2898
#
#
#
# Elastic Compliance Matrix: (Units=1/GPa)
#
#
# Indices 1 2 3 4 5 6 
#
# 1 0.016657 0.000306 -0.013544 0.000000 0.000000 0.000000
# 2 0.000306 0.016657 -0.013544 0.000000 0.000000 0.000000
# 3 -0.013544 -0.013544 0.047902 0.000000 0.000000 0.000000
# 4 0.000000 0.000000 0.000000 0.057119 0.000000 0.000000
# 5 0.000000 0.000000 0.000000 0.000000 0.057120 0.000000
# 6 0.000000 0.000000 0.000000 0.000000 0.000000 0.044864
#
#
# Mechanical properties :
#
#
# Convention : Reuss Voigt Hill
#
# Bulk Modulus (GPa) = 36.16249 41.61843 38.89046
# Shear Modulus (GPa) = 16.49634 19.64505 18.07070
#
# Velocity S-wave (km/s) = 3.04246 3.32015 3.18434
# Velocity P-wave (km/s) = 5.71262 6.16857 5.94496
#
# Compressibility (1/GPa) = 0.02765296
#
# Stress axis : x y z
#
# Youngs Moduli (GPa) = 60.03626 60.03634 20.87610
#
# Poissons Ratio (x) = -0.01839 0.28274
# Poissons Ratio (y) = -0.01839 0.28274
# Poissons Ratio (z) = 0.81311 0.81311
#
# Static dielectric constant tensor:
#      x y z
#    x 1.631300 0.000000 0.000000 
#    y 0.000000 1.631300 0.000000 
#    z 0.000000 0.000000 1.626610 
# 
# From -- ./inp_files/8014.got.cif
#   From: 2010.05.17/outbox.cif.g08.bks.cpg/sg131_5_cif.got.tgz:8014.got - 2010.05.20 12:21:01.
