data_PCOD9566996
_publ_section_title
;
Structure prediction by ZEFSAII (Michael W. Deem and Ramdas Pophale) SiO2 
 PCOD9566996
Probable space group: P 42/M C M
;
_chemical_formula_sum "Si O2"
_cell_formula_units_Z 112
_cell_length_a 19.496836
_cell_length_b 19.496836
_cell_length_c 19.484330
_cell_angle_alpha 90.000000
_cell_angle_beta 90.000000
_cell_angle_gamma 90.000000
_cell_volume 7406.512389
_symmetry_space_group_name_H-M "P 42/M C M"
_symmetry_group_IT_number 132
_symmetry_cell_setting 'tetragonal'
loop_
_space_group_symop_operation_xyz
x,y,z
-y,x,1/2+z
-x,-y,z
y,-x,1/2+z
x,-y,1/2-z
-x,y,1/2-z
y,x,-z
-y,-x,-z
-x,-y,-z
y,-x,1/2-z
x,y,-z
-y,x,1/2-z
-x,y,1/2+z
x,-y,1/2+z
-y,-x,z
y,x,z
loop_
_atom_site_type_symbol
_atom_site_label
_atom_site_fract_x
_atom_site_fract_y
_atom_site_fract_z
Si Si1 0.259370 0.630586 0.680316
Si Si2 0.940919 0.628875 0.921481
Si Si3 0.075997 0.812323 0.769945
Si Si4 0.530404 0.187629 0.418035
Si Si5 0.667608 0.948787 0.314509
Si Si6 0.565051 0.174865 0.794961
Si Si7 0.744871 0.149397 0.638428
O O1 0.332499 0.667502 0.680547
O O2 0.244749 0.579820 0.616583
O O3 0.239442 0.592309 0.750844
O O4 0.202738 0.690377 0.670339
O O5 0.885446 0.569275 0.905106
O O6 0.900094 0.700256 0.909014
O O7 0.007984 0.633257 0.875135
O O8 0.960249 0.620821 0.000000
O O9 0.127392 0.872608 0.791761
O O10 0.069102 0.748247 0.822380
O O11 0.107561 0.778432 0.700791
O O12 0.000000 0.837379 0.750000
O O13 0.522205 0.195438 0.500000
O O14 0.462639 0.189132 0.371264
O O15 0.623897 0.881765 0.298331
O O16 0.665574 0.000000 0.250000
O O17 0.500000 0.148886 0.750000
O O18 0.804416 0.195585 0.604664
#
# Coordination Sequence:
#
# PCOD9566996 Si02
#       7
#    16  16  16  16  16  16  16
#     4   9  16  28  48  72  93 120 161 200 233 274
#     4  10  19  30  43  64  90 120 160 196 230 288
#     4  10  18  29  48  69  89 114 153 204 258 308
#     4   9  19  32  44  66 101 132 156 190 237 288
#     4  11  18  30  45  63  87 121 158 198 239 288
#     4  10  19  29  45  67  94 126 158 194 236 280
#     4   9  15  27  45  66  87 111 147 196 250 290
#
# _framework density 15.121827
#
# number of rings (size 3 to 8) (size 9 to 14) (size 15 to 20)
#    0.000    2.286    4.286    1.714    0.000    3.286 
#    0.000    4.286    0.000    0.857    0.000    2.000 
#    0.000   25.429    0.000   11.571    0.000    0.429 
#
# Total GULP energy -623518.485797 kJ/mol
# GULP energy per Si atom -5567.129337 kJ/mol
# Density = 1.508741 g / cm^3
# Si number density = 15.121827 Si / 1000 Ang^3
#
#
#
# Elastic Constant Matrix: (Units=GPa)
#
#
# Indices 1 2 3 4 5 6 
#
# 1 52.8578 23.0515 22.3420 0.0000 0.0000 0.0000
# 2 23.0515 52.8578 22.3420 0.0000 0.0000 0.0000
# 3 22.3420 22.3420 76.2806 0.0000 0.0000 0.0000
# 4 0.0000 0.0000 0.0000 12.3222 0.0000 0.0000
# 5 0.0000 0.0000 0.0000 0.0000 12.3222 0.0000
# 6 0.0000 0.0000 0.0000 0.0000 0.0000 11.6436
#
#
#
# Elastic Compliance Matrix: (Units=1/GPa)
#
#
# Indices 1 2 3 4 5 6 
#
# 1 0.024734 -0.008816 -0.004662 0.000000 0.000000 0.000000
# 2 -0.008816 0.024734 -0.004662 0.000000 0.000000 0.000000
# 3 -0.004662 -0.004662 0.015841 0.000000 0.000000 0.000000
# 4 0.000000 0.000000 0.000000 0.081154 0.000000 0.000000
# 5 0.000000 0.000000 0.000000 0.000000 0.081154 0.000000
# 6 0.000000 0.000000 0.000000 0.000000 0.000000 0.085884
#
#
# Mechanical properties :
#
#
# Convention : Reuss Voigt Hill
#
# Bulk Modulus (GPa) = 34.44998 35.27415 34.86207
# Shear Modulus (GPa) = 13.90980 14.87496 14.39238
#
# Velocity S-wave (km/s) = 3.03619 3.13976 3.08841
# Velocity P-wave (km/s) = 5.92641 6.04330 5.98514
#
# Compressibility (1/GPa) = 0.02902759
#
# Stress axis : x y z
#
# Youngs Moduli (GPa) = 40.43009 40.43009 63.12895
#
# Poissons Ratio (x) = 0.35643 0.29433
# Poissons Ratio (y) = 0.35643 0.29433
# Poissons Ratio (z) = 0.18850 0.18850
#
# Static dielectric constant tensor:
#      x y z
#    x 1.520410 0.000000 0.000000 
#    y 0.000000 1.520410 0.000000 
#    z 0.000000 0.000000 1.501010 
# 
# From -- ./inp_files/6801.got.cif
#   From: 2010.05.17/outbox.cif.g08.bks.cpg/sg132_4_cif.got.tgz:6801.got - 2010.05.20 12:30:18.
