data_PCOD9566105
_publ_section_title
;
Structure prediction by ZEFSAII (Michael W. Deem and Ramdas Pophale) SiO2 
 PCOD9566105
Probable space group: P 42/M M C
;
_chemical_formula_sum "Si O2"
_cell_formula_units_Z 80
_cell_length_a 18.150733
_cell_length_b 18.150733
_cell_length_c 13.326334
_cell_angle_alpha 90.000000
_cell_angle_beta 90.000000
_cell_angle_gamma 90.000000
_cell_volume 4390.348855
_symmetry_space_group_name_H-M "P 42/M M C"
_symmetry_group_IT_number 131
_symmetry_cell_setting 'tetragonal'
loop_
_space_group_symop_operation_xyz
x,y,z
-x,-y,z
-y,x,1/2+z
y,-x,1/2+z
-x,y,-z
x,-y,-z
y,x,1/2-z
-y,-x,1/2-z
-x,-y,-z
x,y,-z
y,-x,1/2-z
-y,x,1/2-z
x,-y,z
-x,y,z
-y,-x,1/2+z
y,x,1/2+z
loop_
_atom_site_type_symbol
_atom_site_label
_atom_site_fract_x
_atom_site_fract_y
_atom_site_fract_z
Si Si1 0.582431 0.245143 0.309319
Si Si2 0.916937 0.391584 0.884213
Si Si3 0.079912 0.223323 0.830082
Si Si4 0.720501 0.335313 0.611757
Si Si5 0.225754 0.860135 0.112622
O O1 0.500000 0.269288 0.336707
O O2 0.585421 0.156538 0.324920
O O3 0.647725 0.285434 0.370520
O O4 0.603251 0.268233 0.196126
O O5 0.915799 0.303047 0.880362
O O6 0.000000 0.413462 0.849345
O O7 0.909269 0.415152 0.000000
O O8 0.090141 0.237182 0.710560
O O9 0.144511 0.173122 0.871964
O O10 0.000000 0.190289 0.848829
O O11 0.719020 0.365817 0.500000
O O12 0.790578 0.280822 0.621659
O O13 0.233927 0.891388 0.000000
#
# Coordination Sequence:
#
# PCOD9566105 Si02
#       5
#    16  16  16  16  16
#     4  11  21  35  56  81 109 142 177 214 260 311
#     4  10  19  31  49  77 113 145 172 206 252 309
#     4  10  18  30  49  75 105 134 169 213 262 307
#     4  10  20  37  56  78 105 135 178 223 259 302
#     4  10  18  32  54  74  97 134 177 220 259 299
#
# _framework density 18.221786999999999
#
# number of rings (size 3 to 8) (size 9 to 14) (size 15 to 20)
#    0.000    1.800    4.000    2.400    0.000    4.000 
#    0.000    1.000    0.000   10.200    0.000   12.600 
#    0.000    0.000    0.000    0.000    0.000    0.000 
#
# Total GULP energy -446050.036213 kJ/mol
# GULP energy per Si atom -5575.625453 kJ/mol
# Density = 1.818031 g / cm^3
# Si number density = 18.221787 Si / 1000 Ang^3
#
#
#
# Elastic Constant Matrix: (Units=GPa)
#
#
# Indices 1 2 3 4 5 6 
#
# 1 60.2155 13.1737 3.9388 0.0000 0.0000 0.0000
# 2 13.1737 60.2155 3.9388 0.0000 0.0000 0.0000
# 3 3.9388 3.9388 82.1272 0.0000 0.0000 0.0000
# 4 0.0000 0.0000 0.0000 -14.8615 0.0000 0.0000
# 5 0.0000 0.0000 0.0000 0.0000 -14.8615 0.0000
# 6 0.0000 0.0000 0.0000 0.0000 0.0000 5.6387
#
#
#
# Elastic Compliance Matrix: (Units=1/GPa)
#
#
# Indices 1 2 3 4 5 6 
#
# 1 0.017477 -0.003781 -0.000657 0.000000 0.000000 0.000000
# 2 -0.003781 0.017477 -0.000657 0.000000 0.000000 0.000000
# 3 -0.000657 -0.000657 0.012239 0.000000 0.000000 0.000000
# 4 0.000000 0.000000 0.000000 -0.067288 0.000000 0.000000
# 5 0.000000 0.000000 0.000000 0.000000 -0.067288 0.000000
# 6 0.000000 0.000000 0.000000 0.000000 0.000000 0.177345
#
#
# Mechanical properties :
#
#
# Convention : Reuss Voigt Hill
#
# Bulk Modulus (GPa) = 27.02361 27.18455 27.10408
# Shear Modulus (GPa) = 44.44997 7.28363 25.86680
#
# Velocity S-wave (km/s) = 4.94437 2.00147 3.77178
# Velocity P-wave (km/s) = 6.88900 4.50469 5.82025
#
# Compressibility (1/GPa) = 0.03700468
#
# Stress axis : x y z
#
# Youngs Moduli (GPa) = 57.21782 57.21782 81.70445
#
# Poissons Ratio (x) = 0.21632 0.05367
# Poissons Ratio (y) = 0.21632 0.05367
# Poissons Ratio (z) = 0.03759 0.03759
#
# Static dielectric constant tensor:
#      x y z
#    x 1.616770 0.000000 0.000000 
#    y 0.000000 1.616770 0.000000 
#    z 0.000000 0.000000 1.665130 
# 
# From -- ./inp_files/5694.got.cif
#   From: 2010.05.17/outbox.cif.g08.bks.cpg/sg131_3_cif.got.tgz:5694.got - 2010.05.20 12:21:01.
