data_PCOD9566184
_publ_section_title
;
Structure prediction by ZEFSAII (Michael W. Deem and Ramdas Pophale) SiO2 
 PCOD9566184
Probable space group: P 42/M M C
;
_chemical_formula_sum "Si O2"
_cell_formula_units_Z 80
_cell_length_a 23.188261
_cell_length_b 23.188261
_cell_length_c 8.427804
_cell_angle_alpha 90.000000
_cell_angle_beta 90.000000
_cell_angle_gamma 90.000000
_cell_volume 4531.591849
_symmetry_space_group_name_H-M "P 42/M M C"
_symmetry_group_IT_number 131
_symmetry_cell_setting 'tetragonal'
loop_
_space_group_symop_operation_xyz
x,y,z
-x,-y,z
-y,x,1/2+z
y,-x,1/2+z
-x,y,-z
x,-y,-z
y,x,1/2-z
-y,-x,1/2-z
-x,-y,-z
x,y,-z
y,-x,1/2-z
-y,x,1/2-z
x,-y,z
-x,y,z
-y,-x,1/2+z
y,x,1/2+z
loop_
_atom_site_type_symbol
_atom_site_label
_atom_site_fract_x
_atom_site_fract_y
_atom_site_fract_z
Si Si1 0.775779 0.000000 0.181174
Si Si2 0.127350 0.220147 0.811293
Si Si3 0.000000 0.654103 0.184867
Si Si4 0.221421 0.563237 0.315750
Si Si5 0.308679 0.216068 0.808853
Si Si6 0.099177 0.436872 0.818306
O O1 0.791619 0.938460 0.259159
O O2 0.706756 0.000000 0.197553
O O3 0.795196 0.000000 0.000000
O O4 0.169542 0.169542 0.750000
O O5 0.155370 0.280462 0.748298
O O6 0.130043 0.222530 0.000000
O O7 0.945172 0.613656 0.207148
O O8 0.000000 0.675059 0.000000
O O9 0.239084 0.563100 0.500000
O O10 0.239730 0.500000 0.247529
O O11 0.233775 0.627236 0.249100
O O12 0.152195 0.563736 0.300311
O O13 0.263958 0.263958 0.750000
O O14 0.310264 0.214194 0.000000
O O15 0.070876 0.500000 0.808193
O O16 0.121915 0.431759 0.000000
#
# Coordination Sequence:
#
# PCOD9566184 Si02
#       6
#     8  16   8  16  16  16
#     4  12  24  37  53  76 103 130 162 201 246 295
#     4  11  22  38  58  80 105 133 166 205 250 299
#     4  10  19  30  44  64  91 123 160 201 240 281
#     4   9  18  31  45  63  90 124 161 200 243 291
#     4  10  19  32  51  74 101 133 168 207 251 299
#     4   9  17  28  42  60  85 120 160 200 240 281
#
# _framework density 17.653841
#
# number of rings (size 3 to 8) (size 9 to 14) (size 15 to 20)
#    0.000    2.000    0.000    6.000    0.000    6.800 
#    0.000    0.000    0.000    3.300    0.000    2.100 
#    0.000    0.400    0.000    5.000    0.000    0.000 
#
# Total GULP energy -445613.954125 kJ/mol
# GULP energy per Si atom -5570.174427 kJ/mol
# Density = 1.761366 g / cm^3
# Si number density = 17.653841 Si / 1000 Ang^3
#
#
#
# Elastic Constant Matrix: (Units=GPa)
#
#
# Indices 1 2 3 4 5 6 
#
# 1 93.4305 25.4578 17.7807 0.0000 0.0000 0.0000
# 2 25.4578 93.4305 17.7807 0.0000 0.0000 0.0000
# 3 17.7807 17.7807 58.7278 0.0000 0.0000 0.0000
# 4 0.0000 0.0000 0.0000 27.8559 0.0000 0.0000
# 5 0.0000 0.0000 0.0000 0.0000 27.8559 0.0000
# 6 0.0000 0.0000 0.0000 0.0000 0.0000 39.3934
#
#
#
# Elastic Compliance Matrix: (Units=1/GPa)
#
#
# Indices 1 2 3 4 5 6 
#
# 1 0.011980 -0.002731 -0.002800 0.000000 0.000000 0.000000
# 2 -0.002731 0.011980 -0.002800 0.000000 0.000000 0.000000
# 3 -0.002800 -0.002800 0.018723 0.000000 0.000000 0.000000
# 4 0.000000 0.000000 0.000000 0.035899 0.000000 0.000000
# 5 0.000000 0.000000 0.000000 0.000000 0.035899 0.000000
# 6 0.000000 0.000000 0.000000 0.000000 0.000000 0.025385
#
#
# Mechanical properties :
#
#
# Convention : Reuss Voigt Hill
#
# Bulk Modulus (GPa) = 38.43177 40.84745 39.63961
# Shear Modulus (GPa) = 30.26556 31.32567 30.79562
#
# Velocity S-wave (km/s) = 4.14501 4.21698 4.18115
# Velocity P-wave (km/s) = 6.68768 6.84827 6.76845
#
# Compressibility (1/GPa) = 0.02602014
#
# Stress axis : x y z
#
# Youngs Moduli (GPa) = 83.47019 83.47019 53.40926
#
# Poissons Ratio (x) = 0.22800 0.14956
# Poissons Ratio (y) = 0.22800 0.14956
# Poissons Ratio (z) = 0.23374 0.23374
#
# Static dielectric constant tensor:
#      x y z
#    x 1.632550 0.000000 0.000000 
#    y 0.000000 1.632550 0.000000 
#    z 0.000000 0.000000 1.635230 
# 
# From -- ./inp_files/2119.got.cif
#   From: 2010.05.17/outbox.cif.g08.bks.cpg/sg131_2_cif.got.tgz:2119.got - 2010.05.20 12:21:01.
