data_PCOD9566236
_publ_section_title
;
Structure prediction by ZEFSAII (Michael W. Deem and Ramdas Pophale) SiO2 
 PCOD9566236
Probable space group: P 42/M M C
;
_chemical_formula_sum "Si O2"
_cell_formula_units_Z 72
_cell_length_a 12.529831
_cell_length_b 12.529831
_cell_length_c 29.214363
_cell_angle_alpha 90.000000
_cell_angle_beta 90.000000
_cell_angle_gamma 90.000000
_cell_volume 4586.557558
_symmetry_space_group_name_H-M "P 42/M M C"
_symmetry_group_IT_number 131
_symmetry_cell_setting 'tetragonal'
loop_
_space_group_symop_operation_xyz
x,y,z
-x,-y,z
-y,x,1/2+z
y,-x,1/2+z
-x,y,-z
x,-y,-z
y,x,1/2-z
-y,-x,1/2-z
-x,-y,-z
x,y,-z
y,-x,1/2-z
-y,x,1/2-z
x,-y,z
-x,y,z
-y,-x,1/2+z
y,x,1/2+z
loop_
_atom_site_type_symbol
_atom_site_label
_atom_site_fract_x
_atom_site_fract_y
_atom_site_fract_z
Si Si1 0.720824 0.127761 0.581692
Si Si2 0.500000 0.626950 0.641218
Si Si3 0.704214 0.246343 0.676669
Si Si4 0.500000 0.766787 0.552561
Si Si5 0.877689 0.870449 0.500000
Si Si6 0.875426 0.372651 0.734344
O O1 0.734496 0.184261 0.630515
O O2 0.605592 0.163672 0.562492
O O3 0.810933 0.160859 0.545025
O O4 0.723285 0.000000 0.586594
O O5 0.500000 0.500000 0.643402
O O6 0.395235 0.676428 0.665075
O O7 0.500000 0.670940 0.589181
O O8 0.801370 0.313504 0.697569
O O9 0.665306 0.164678 0.715816
O O10 0.500000 0.731721 0.500000
O O11 0.000000 0.832791 0.500000
O O12 0.879780 0.000000 0.500000
O O13 0.861523 0.500000 0.731139
O O14 0.000000 0.347587 0.728307
#
# Coordination Sequence:
#
# PCOD9566236 Si02
#       6
#    16   8  16   8   8  16
#     4  10  19  31  50  75 104 133 168 214 258 309
#     4  10  20  34  51  76 108 135 171 213 263 317
#     4  10  20  34  52  77 103 136 172 216 262 314
#     4  10  19  31  50  77 105 134 171 207 261 312
#     4   9  18  31  47  69  97 131 168 206 250 302
#     4  10  20  35  53  75 103 135 174 217 263 313
#
# _framework density 15.698047000000001
#
# number of rings (size 3 to 8) (size 9 to 14) (size 15 to 20)
#    0.000    2.111    2.222    1.667    0.000    1.556 
#    0.000    0.000    0.000   10.667    0.000    0.000 
#    0.000    7.111    0.000    0.000    0.000    0.000 
#
# Total GULP energy -401639.026043 kJ/mol
# GULP energy per Si atom -5578.319806 kJ/mol
# Density = 1.566232 g / cm^3
# Si number density = 15.698047 Si / 1000 Ang^3
#
#
#
# Elastic Constant Matrix: (Units=GPa)
#
#
# Indices 1 2 3 4 5 6 
#
# 1 120.2258 62.3969 67.8711 0.0000 0.0000 0.0000
# 2 62.3969 120.2258 67.8711 0.0000 0.0000 0.0000
# 3 67.8711 67.8711 134.1822 0.0000 0.0000 0.0000
# 4 0.0000 0.0000 0.0000 17.7126 0.0000 0.0000
# 5 0.0000 0.0000 0.0000 0.0000 17.7126 0.0000
# 6 0.0000 0.0000 0.0000 0.0000 0.0000 18.3491
#
#
#
# Elastic Compliance Matrix: (Units=1/GPa)
#
#
# Indices 1 2 3 4 5 6 
#
# 1 0.013034 -0.004259 -0.004438 0.000000 0.000000 0.000000
# 2 -0.004259 0.013034 -0.004438 0.000000 0.000000 0.000000
# 3 -0.004438 -0.004438 0.011943 0.000000 0.000000 0.000000
# 4 0.000000 0.000000 0.000000 0.056457 0.000000 0.000000
# 5 0.000000 0.000000 0.000000 0.000000 0.056457 0.000000
# 6 0.000000 0.000000 0.000000 0.000000 0.000000 0.054499
#
#
# Mechanical properties :
#
#
# Convention : Reuss Voigt Hill
#
# Bulk Modulus (GPa) = 85.18951 85.65692 85.42322
# Shear Modulus (GPa) = 21.22184 22.52117 21.87151
#
# Velocity S-wave (km/s) = 3.68078 3.79178 3.73669
# Velocity P-wave (km/s) = 8.51173 8.59383 8.55288
#
# Compressibility (1/GPa) = 0.01173853
#
# Stress axis : x y z
#
# Youngs Moduli (GPa) = 76.72473 76.72473 83.73401
#
# Poissons Ratio (x) = 0.32675 0.37165
# Poissons Ratio (y) = 0.32675 0.37165
# Poissons Ratio (z) = 0.34054 0.34054
#
# Static dielectric constant tensor:
#      x y z
#    x 1.500240 0.000000 0.000000 
#    y 0.000000 1.500240 0.000000 
#    z 0.000000 0.000000 1.514270 
# 
# From -- ./inp_files/12142.got.cif
#   From: 2010.05.17/outbox.cif.g08.bks.cpg/sg131_7_cif.got.tgz:12142.got - 2010.05.20 12:21:01.
