data_PCOD9566106
_publ_section_title
;
Structure prediction by ZEFSAII (Michael W. Deem and Ramdas Pophale) SiO2 
 PCOD9566106
Probable space group: P 42/M M C
;
_chemical_formula_sum "Si O2"
_cell_formula_units_Z 88
_cell_length_a 17.702274
_cell_length_b 17.702274
_cell_length_c 14.578256
_cell_angle_alpha 90.000000
_cell_angle_beta 90.000000
_cell_angle_gamma 90.000000
_cell_volume 4568.395441
_symmetry_space_group_name_H-M "P 42/M M C"
_symmetry_group_IT_number 131
_symmetry_cell_setting 'tetragonal'
loop_
_space_group_symop_operation_xyz
x,y,z
-x,-y,z
-y,x,1/2+z
y,-x,1/2+z
-x,y,-z
x,-y,-z
y,x,1/2-z
-y,-x,1/2-z
-x,-y,-z
x,y,-z
y,-x,1/2-z
-y,x,1/2-z
x,-y,z
-x,y,z
-y,-x,1/2+z
y,x,1/2+z
loop_
_atom_site_type_symbol
_atom_site_label
_atom_site_fract_x
_atom_site_fract_y
_atom_site_fract_z
Si Si1 0.000000 0.910986 0.612003
Si Si2 0.834074 0.139421 0.611297
Si Si3 0.414562 0.160019 0.794375
Si Si4 0.415525 0.773787 0.602974
Si Si5 0.275383 0.000000 0.389262
Si Si6 0.708941 0.746590 0.891863
Si Si7 0.408758 0.000000 0.245443
O O1 0.920499 0.874033 0.643178
O O2 0.000000 0.907812 0.500000
O O3 0.000000 0.000000 0.636215
O O4 0.837528 0.139103 0.500000
O O5 0.776836 0.071967 0.635369
O O6 0.793607 0.217113 0.638365
O O7 0.500000 0.173663 0.824719
O O8 0.412962 0.165904 0.683754
O O9 0.360347 0.221627 0.835800
O O10 0.392358 0.074484 0.813907
O O11 0.406879 0.805740 0.500000
O O12 0.500000 0.738705 0.607747
O O13 0.343071 0.721342 0.618529
O O14 0.287829 0.000000 0.500000
O O15 0.352900 0.000000 0.332492
O O16 0.698143 0.760841 0.000000
O O17 0.500000 0.000000 0.266680
#
# Coordination Sequence:
#
# PCOD9566106 Si02
#       7
#     8  16  16  16   8  16   8
#     4   9  14  25  44  67 101 142 182 226 273 315
#     4   9  17  28  46  75 105 138 180 223 269 323
#     4  10  21  37  55  76 108 147 185 227 275 323
#     4   9  18  34  57  84 113 142 173 219 280 341
#     4  10  18  30  49  75 108 137 167 215 277 335
#     4  10  20  34  55  83 110 140 186 229 267 328
#     4  10  22  36  49  70 100 138 184 228 273 324
#
# _framework density 19.262781
#
# number of rings (size 3 to 8) (size 9 to 14) (size 15 to 20)
#    0.000    2.455    0.909    1.636    0.000    3.455 
#    0.000    3.182    0.000    2.182    0.000    5.091 
#    0.000    0.000    0.000    0.000    0.000    0.000 
#
# Total GULP energy -490850.515608 kJ/mol
# GULP energy per Si atom -5577.846768 kJ/mol
# Density = 1.921894 g / cm^3
# Si number density = 19.262781 Si / 1000 Ang^3
#
#
#
# Elastic Constant Matrix: (Units=GPa)
#
#
# Indices 1 2 3 4 5 6 
#
# 1 103.8937 46.9999 19.2048 0.0000 0.0000 0.0000
# 2 46.9999 103.8937 19.2048 0.0000 0.0000 0.0000
# 3 19.2048 19.2048 37.1210 0.0000 0.0000 0.0000
# 4 0.0000 0.0000 0.0000 3.8530 0.0000 0.0000
# 5 0.0000 0.0000 0.0000 0.0000 3.8530 0.0000
# 6 0.0000 0.0000 0.0000 0.0000 0.0000 10.7156
#
#
#
# Elastic Compliance Matrix: (Units=1/GPa)
#
#
# Indices 1 2 3 4 5 6 
#
# 1 0.012604 -0.004972 -0.003949 0.000000 0.000000 0.000000
# 2 -0.004972 0.012604 -0.003949 0.000000 0.000000 0.000000
# 3 -0.003949 -0.003949 0.031025 0.000000 0.000000 0.000000
# 4 0.000000 0.000000 0.000000 0.259541 0.000000 0.000000
# 5 0.000000 0.000000 0.000000 0.000000 0.259541 0.000000
# 6 0.000000 0.000000 0.000000 0.000000 0.000000 0.093322
#
#
# Mechanical properties :
#
#
# Convention : Reuss Voigt Hill
#
# Bulk Modulus (GPa) = 32.79255 46.19192 39.49223
# Shear Modulus (GPa) = 7.09682 14.31757 10.70720
#
# Velocity S-wave (km/s) = 1.92151 2.72927 2.36020
# Velocity P-wave (km/s) = 4.68868 5.82785 5.28902
#
# Compressibility (1/GPa) = 0.03049473
#
# Stress axis : x y z
#
# Youngs Moduli (GPa) = 79.33705 79.33705 32.23251
#
# Poissons Ratio (x) = 0.39448 0.12727
# Poissons Ratio (y) = 0.39448 0.12727
# Poissons Ratio (z) = 0.31327 0.31327
#
# Static dielectric constant tensor:
#      x y z
#    x 1.673470 0.000000 0.000000 
#    y 0.000000 1.673470 0.000000 
#    z 0.000000 0.000000 1.707500 
# 
# From -- ./inp_files/5942.got.cif
#   From: 2010.05.17/outbox.cif.g08.bks.cpg/sg131_3_cif.got.tgz:5942.got - 2010.05.20 12:21:01.
