data_PCOD9566722
_publ_section_title
;
Structure prediction by ZEFSAII (Michael W. Deem and Ramdas Pophale) SiO2 
 PCOD9566722
Probable space group: P 42/M M C
;
_chemical_formula_sum "Si O2"
_cell_formula_units_Z 72
_cell_length_a 20.721680
_cell_length_b 20.721680
_cell_length_c 8.542993
_cell_angle_alpha 90.000000
_cell_angle_beta 90.000000
_cell_angle_gamma 90.000000
_cell_volume 3668.258866
_symmetry_space_group_name_H-M "P 42/M M C"
_symmetry_group_IT_number 131
_symmetry_cell_setting 'tetragonal'
loop_
_space_group_symop_operation_xyz
x,y,z
-x,-y,z
-y,x,1/2+z
y,-x,1/2+z
-x,y,-z
x,-y,-z
y,x,1/2-z
-y,-x,1/2-z
-x,-y,-z
x,y,-z
y,-x,1/2-z
-y,x,1/2-z
x,-y,z
-x,y,z
-y,-x,1/2+z
y,x,1/2+z
loop_
_atom_site_type_symbol
_atom_site_label
_atom_site_fract_x
_atom_site_fract_y
_atom_site_fract_z
Si Si1 0.672338 0.894825 0.314903
Si Si2 0.000000 0.573889 0.686382
Si Si3 0.571864 0.191545 0.816558
Si Si4 0.429215 0.330344 0.318761
Si Si5 0.180095 0.924502 0.310471
O O1 0.673690 0.906437 0.500000
O O2 0.618601 0.941283 0.240212
O O3 0.636911 0.828621 0.273629
O O4 0.746299 0.905254 0.259878
O O5 0.000000 0.500000 0.747623
O O6 0.000000 0.569608 0.500000
O O7 0.500000 0.165596 0.764581
O O8 0.568378 0.267151 0.787263
O O9 0.577954 0.175443 0.000000
O O10 0.376916 0.376916 0.250000
O O11 0.416726 0.312113 0.500000
O O12 0.500000 0.361237 0.314252
O O13 0.125917 0.874084 0.250000
O O14 0.178728 0.922101 0.500000
O O15 0.168750 0.000000 0.264761
#
# Coordination Sequence:
#
# PCOD9566722 Si02
#       5
#    16   8  16  16  16
#     4  11  22  39  61  87 124 162 201 250 299 359
#     4  11  23  37  57  89 126 163 206 251 297 354
#     4  10  21  37  57  84 120 159 202 251 299 356
#     4  10  21  37  57  81 110 148 195 246 303 364
#     4  10  23  44  66  92 124 157 200 252 307 369
#
# _framework density 19.627839999999999
#
# number of rings (size 3 to 8) (size 9 to 14) (size 15 to 20)
#    0.000    1.667    1.111    3.000    0.000    9.778 
#    0.000    4.444    0.000    0.000    0.000    0.000 
#    0.000    0.000    0.000    0.000    0.000    0.000 
#
# Total GULP energy -401181.142733 kJ/mol
# GULP energy per Si atom -5571.960316 kJ/mol
# Density = 1.958317 g / cm^3
# Si number density = 19.627840 Si / 1000 Ang^3
#
#
#
# Elastic Constant Matrix: (Units=GPa)
#
#
# Indices 1 2 3 4 5 6 
#
# 1 126.1079 92.2024 22.8406 0.0000 0.0000 0.0000
# 2 92.2024 126.1075 22.8405 0.0000 0.0000 0.0000
# 3 22.8406 22.8405 43.1658 0.0000 0.0000 0.0000
# 4 0.0000 0.0000 0.0000 40.1216 0.0000 0.0000
# 5 0.0000 0.0000 0.0000 0.0000 40.1225 0.0000
# 6 0.0000 0.0000 0.0000 0.0000 0.0000 21.8027
#
#
#
# Elastic Compliance Matrix: (Units=1/GPa)
#
#
# Indices 1 2 3 4 5 6 
#
# 1 0.017322 -0.012172 -0.002726 0.000000 0.000000 0.000000
# 2 -0.012172 0.017322 -0.002726 0.000000 0.000000 0.000000
# 3 -0.002726 -0.002726 0.026051 0.000000 0.000000 0.000000
# 4 0.000000 0.000000 0.000000 0.024924 0.000000 0.000000
# 5 0.000000 0.000000 0.000000 0.000000 0.024924 0.000000
# 6 0.000000 0.000000 0.000000 0.000000 0.000000 0.045866
#
#
# Mechanical properties :
#
#
# Convention : Reuss Voigt Hill
#
# Bulk Modulus (GPa) = 39.29188 63.46092 51.37640
# Shear Modulus (GPa) = 24.98273 30.90920 27.94596
#
# Velocity S-wave (km/s) = 3.57153 3.97263 3.77741
# Velocity P-wave (km/s) = 6.08849 7.31059 6.72735
#
# Compressibility (1/GPa) = 0.02545055
#
# Stress axis : x y z
#
# Youngs Moduli (GPa) = 57.72859 57.72844 38.38647
#
# Poissons Ratio (x) = 0.70264 0.10463
# Poissons Ratio (y) = 0.70264 0.10462
# Poissons Ratio (z) = 0.15734 0.15734
#
# Static dielectric constant tensor:
#      x y z
#    x 2.129930 0.000000 0.000000 
#    y 0.000000 2.129900 0.000000 
#    z 0.000000 0.000000 1.695270 
# 
# From -- ./inp_files/1811.got.cif
#   From: 2010.05.17/outbox.cif.g08.bks.cpg/sg131_1_cif.got.tgz:1811.got - 2010.05.20 12:21:01.
