data_PCOD9566502
_publ_section_title
;
Structure prediction by ZEFSAII (Michael W. Deem and Ramdas Pophale) SiO2 
 PCOD9566502
Probable space group: P 42/M M C
;
_chemical_formula_sum "Si O2"
_cell_formula_units_Z 56
_cell_length_a 13.406986
_cell_length_b 13.406986
_cell_length_c 18.028476
_cell_angle_alpha 90.000000
_cell_angle_beta 90.000000
_cell_angle_gamma 90.000000
_cell_volume 3240.569408
_symmetry_space_group_name_H-M "P 42/M M C"
_symmetry_group_IT_number 131
_symmetry_cell_setting 'tetragonal'
loop_
_space_group_symop_operation_xyz
x,y,z
-x,-y,z
-y,x,1/2+z
y,-x,1/2+z
-x,y,-z
x,-y,-z
y,x,1/2-z
-y,-x,1/2-z
-x,-y,-z
x,y,-z
y,-x,1/2-z
-y,x,1/2-z
x,-y,z
-x,y,z
-y,-x,1/2+z
y,x,1/2+z
loop_
_atom_site_type_symbol
_atom_site_label
_atom_site_fract_x
_atom_site_fract_y
_atom_site_fract_z
Si Si1 0.260527 0.306033 0.585670
Si Si2 0.114046 0.617654 0.868279
Si Si3 0.730137 0.884715 0.782597
Si Si4 0.387273 0.500000 0.589931
O O1 0.231950 0.321050 0.500000
O O2 0.321667 0.202419 0.592719
O O3 0.168466 0.300748 0.641649
O O4 0.329577 0.398983 0.610142
O O5 0.126573 0.500000 0.880286
O O6 0.122437 0.645585 0.781085
O O7 0.000000 0.644937 0.890924
O O8 0.823923 0.823923 0.750000
O O9 0.753791 0.000000 0.793907
O O10 0.500000 0.500000 0.618841
O O11 0.392182 0.500000 0.500000
#
# Coordination Sequence:
#
# PCOD9566502 Si02
#       4
#    16  16  16   8
#     4  10  20  33  51  77 108 139 175 218 265 319
#     4   9  18  33  54  76  99 132 173 219 267 311
#     4   9  19  35  54  75 101 134 173 218 263 316
#     4   9  18  32  49  71 105 147 177 204 254 318
#
# _framework density 17.280913999999999
#
# number of rings (size 3 to 8) (size 9 to 14) (size 15 to 20)
#    0.000    2.714    0.000    0.857    2.000    3.143 
#    0.000    1.429    0.000    2.571    0.000    8.000 
#    0.000    0.000    0.000    0.000    0.000    0.000 
#
# Total GULP energy -312174.032233 kJ/mol
# GULP energy per Si atom -5574.536290 kJ/mol
# Density = 1.724158 g / cm^3
# Si number density = 17.280914 Si / 1000 Ang^3
#
#
#
# Elastic Constant Matrix: (Units=GPa)
#
#
# Indices 1 2 3 4 5 6 
#
# 1 68.6434 10.8492 21.0321 0.0000 0.0000 0.0000
# 2 10.8492 68.6434 21.0321 0.0000 0.0000 0.0000
# 3 21.0321 21.0321 65.9280 0.0000 0.0000 0.0000
# 4 0.0000 0.0000 0.0000 8.4104 0.0000 0.0000
# 5 0.0000 0.0000 0.0000 0.0000 8.4104 0.0000
# 6 0.0000 0.0000 0.0000 0.0000 0.0000 16.4027
#
#
#
# Elastic Compliance Matrix: (Units=1/GPa)
#
#
# Indices 1 2 3 4 5 6 
#
# 1 0.016219 -0.001084 -0.004828 0.000000 0.000000 0.000000
# 2 -0.001084 0.016219 -0.004828 0.000000 0.000000 0.000000
# 3 -0.004828 -0.004828 0.018249 0.000000 0.000000 0.000000
# 4 0.000000 0.000000 0.000000 0.118900 0.000000 0.000000
# 5 0.000000 0.000000 0.000000 0.000000 0.118900 0.000000
# 6 0.000000 0.000000 0.000000 0.000000 0.000000 0.060965
#
#
# Mechanical properties :
#
#
# Convention : Reuss Voigt Hill
#
# Bulk Modulus (GPa) = 34.24054 34.33794 34.28924
# Shear Modulus (GPa) = 13.13481 16.66481 14.89981
#
# Velocity S-wave (km/s) = 2.75994 3.10876 2.93953
# Velocity P-wave (km/s) = 5.47845 5.72708 5.60415
#
# Compressibility (1/GPa) = 0.02920515
#
# Stress axis : x y z
#
# Youngs Moduli (GPa) = 61.65714 61.65714 54.79867
#
# Poissons Ratio (x) = 0.06684 0.26458
# Poissons Ratio (y) = 0.06684 0.26458
# Poissons Ratio (z) = 0.29769 0.29769
#
# Static dielectric constant tensor:
#      x y z
#    x 1.573620 0.000000 0.000000 
#    y 0.000000 1.573620 0.000000 
#    z 0.000000 0.000000 1.589790 
# 
# From -- ./inp_files/9002.got.cif
#   From: 2010.05.17/outbox.cif.g08.bks.cpg/sg131_5_cif.got.tgz:9002.got - 2010.05.20 12:21:01.
