data_PCOD9566424
_publ_section_title
;
Structure prediction by ZEFSAII (Michael W. Deem and Ramdas Pophale) SiO2 
 PCOD9566424
Probable space group: P 42/M M C
;
_chemical_formula_sum "Si O2"
_cell_formula_units_Z 112
_cell_length_a 14.299250
_cell_length_b 14.299250
_cell_length_c 32.610874
_cell_angle_alpha 90.000000
_cell_angle_beta 90.000000
_cell_angle_gamma 90.000000
_cell_volume 6667.898139
_symmetry_space_group_name_H-M "P 42/M M C"
_symmetry_group_IT_number 131
_symmetry_cell_setting 'tetragonal'
loop_
_space_group_symop_operation_xyz
x,y,z
-x,-y,z
-y,x,1/2+z
y,-x,1/2+z
-x,y,-z
x,-y,-z
y,x,1/2-z
-y,-x,1/2-z
-x,-y,-z
x,y,-z
y,-x,1/2-z
-y,x,1/2-z
x,-y,z
-x,y,z
-y,-x,1/2+z
y,x,1/2+z
loop_
_atom_site_type_symbol
_atom_site_label
_atom_site_fract_x
_atom_site_fract_y
_atom_site_fract_z
Si Si1 0.765933 0.387866 0.749908
Si Si2 0.890442 0.113694 0.294475
Si Si3 0.887927 0.212267 0.123062
Si Si4 0.886883 0.395124 0.582005
Si Si5 0.608722 0.109723 0.330566
Si Si6 0.112195 0.796941 0.453965
Si Si7 0.106617 0.386385 0.673510
O O1 0.671766 0.328235 0.750000
O O2 0.749230 0.500000 0.747150
O O3 0.826704 0.372056 0.790987
O O4 0.827799 0.358247 0.710679
O O5 0.853747 0.146254 0.250000
O O6 0.840190 0.145987 0.335593
O O7 0.000000 0.135392 0.297562
O O8 0.882699 0.000000 0.293271
O O9 0.867801 0.320717 0.132625
O O10 0.846677 0.168204 0.082160
O O11 0.000000 0.200552 0.121085
O O12 0.852738 0.500000 0.572835
O O13 0.865560 0.313425 0.550473
O O14 0.857476 0.364324 0.627855
O O15 0.000000 0.400751 0.584294
O O16 0.500000 0.120284 0.341614
O O17 0.624228 0.000000 0.319361
O O18 0.133532 0.829682 0.500000
O O19 0.000000 0.808241 0.447354
O O20 0.102107 0.500000 0.674408
O O21 0.000000 0.352289 0.678638
#
# Coordination Sequence:
#
# PCOD9566424 Si02
#       7
#    16  16  16  16  16  16  16
#     4  10  20  31  47  72 102 137 171 203 243 295
#     4   8  14  26  43  64  94 129 161 193 230 275
#     4  10  20  33  50  71  96 129 168 207 246 292
#     4   8  15  29  48  70  97 129 163 201 244 285
#     4   9  19  36  54  71  94 127 170 218 260 294
#     4  10  21  34  49  74 105 136 167 197 240 303
#     4   8  14  27  47  69  94 126 165 206 244 283
#
# _framework density 16.796897000000001
#
# number of rings (size 3 to 8) (size 9 to 14) (size 15 to 20)
#    0.000    3.000    0.000    2.143    2.000    3.857 
#    0.000    2.143    0.000    0.429    0.000    2.000 
#    0.000    2.571    0.000    1.286    0.000    0.143 
#
# Total GULP energy -624576.815262 kJ/mol
# GULP energy per Si atom -5576.578708 kJ/mol
# Density = 1.675867 g / cm^3
# Si number density = 16.796897 Si / 1000 Ang^3
#
#
#
# Elastic Constant Matrix: (Units=GPa)
#
#
# Indices 1 2 3 4 5 6 
#
# 1 59.6783 30.9030 50.9395 0.0000 0.0000 0.0000
# 2 30.9030 59.6769 50.9393 0.0000 0.0000 0.0000
# 3 50.9395 50.9393 123.8399 0.0000 0.0000 0.0000
# 4 0.0000 0.0000 0.0000 20.8425 0.0000 0.0000
# 5 0.0000 0.0000 0.0000 0.0000 20.8420 0.0000
# 6 0.0000 0.0000 0.0000 0.0000 0.0000 16.8973
#
#
#
# Elastic Compliance Matrix: (Units=1/GPa)
#
#
# Indices 1 2 3 4 5 6 
#
# 1 0.027648 -0.007104 -0.008451 0.000000 0.000000 0.000000
# 2 -0.007104 0.027649 -0.008451 0.000000 0.000000 0.000000
# 3 -0.008451 -0.008451 0.015027 0.000000 0.000000 0.000000
# 4 0.000000 0.000000 0.000000 0.047979 0.000000 0.000000
# 5 0.000000 0.000000 0.000000 0.000000 0.047980 0.000000
# 6 0.000000 0.000000 0.000000 0.000000 0.000000 0.059181
#
#
# Mechanical properties :
#
#
# Convention : Reuss Voigt Hill
#
# Bulk Modulus (GPa) = 44.81579 56.52876 50.67228
# Shear Modulus (GPa) = 17.79906 19.07723 18.43814
#
# Velocity S-wave (km/s) = 3.25878 3.37376 3.31677
# Velocity P-wave (km/s) = 6.39519 6.99312 6.70083
#
# Compressibility (1/GPa) = 0.02231356
#
# Stress axis : x y z
#
# Youngs Moduli (GPa) = 36.16850 36.16738 66.54667
#
# Poissons Ratio (x) = 0.25694 0.56236
# Poissons Ratio (y) = 0.25695 0.56238
# Poissons Ratio (z) = 0.30564 0.30564
#
# Static dielectric constant tensor:
#      x y z
#    x 1.587120 0.000000 0.000000 
#    y 0.000000 1.587120 0.000000 
#    z 0.000000 0.000000 1.565750 
# 
# From -- ./inp_files/13851.got.cif
#   From: 2010.05.17/outbox.cif.g08.bks.cpg/sg131_7_cif.got.tgz:13851.got - 2010.05.20 12:21:01.
