data_PCOD9566951
_publ_section_title
;
Structure prediction by ZEFSAII (Michael W. Deem and Ramdas Pophale) SiO2 
 PCOD9566951
Probable space group: P 42/M C M
;
_chemical_formula_sum "Si O2"
_cell_formula_units_Z 96
_cell_length_a 24.330040
_cell_length_b 24.330040
_cell_length_c 8.284240
_cell_angle_alpha 90.000000
_cell_angle_beta 90.000000
_cell_angle_gamma 90.000000
_cell_volume 4903.862880
_symmetry_space_group_name_H-M "P 42/M C M"
_symmetry_group_IT_number 132
_symmetry_cell_setting 'tetragonal'
loop_
_space_group_symop_operation_xyz
x,y,z
-y,x,1/2+z
-x,-y,z
y,-x,1/2+z
x,-y,1/2-z
-x,y,1/2-z
y,x,-z
-y,-x,-z
-x,-y,-z
y,-x,1/2-z
x,y,-z
-y,x,1/2-z
-x,y,1/2+z
x,-y,1/2+z
-y,-x,z
y,x,z
loop_
_atom_site_type_symbol
_atom_site_label
_atom_site_fract_x
_atom_site_fract_y
_atom_site_fract_z
Si Si1 0.443562 0.641190 0.193956
Si Si2 0.679165 0.235142 0.691614
Si Si3 0.440624 0.936486 0.308167
Si Si4 0.063100 0.321292 0.693845
Si Si5 0.558367 0.766979 0.306701
Si Si6 0.233856 0.850951 0.189873
O O1 0.500000 0.614449 0.250000
O O2 0.392624 0.607377 0.256929
O O3 0.443127 0.703463 0.251355
O O4 0.441914 0.642567 0.000000
O O5 0.685712 0.226860 0.500000
O O6 0.702777 0.297224 0.726864
O O7 0.617785 0.217635 0.739099
O O8 0.720160 0.195814 0.787504
O O9 0.500000 0.914074 0.250000
O O10 0.440342 0.934477 0.500000
O O11 0.381565 0.914151 0.247521
O O12 0.440272 0.000000 0.250000
O O13 0.065179 0.321094 0.500000
O O14 0.096318 0.267507 0.755622
O O15 0.000000 0.318252 0.750000
O O16 0.500000 0.791393 0.250000
O O17 0.559990 0.770297 0.500000
O O18 0.177655 0.822346 0.256828
O O19 0.223948 0.860953 0.000000
#
# Coordination Sequence:
#
# PCOD9566951 Si02
#       6
#    16  16  16  16  16  16
#     4   9  18  30  42  57  76 100 131 168 215 272
#     4  10  20  33  51  74  97 123 158 200 246 297
#     4  10  17  27  44  67  98 135 177 221 265 312
#     4  10  19  32  52  78 108 141 178 218 263 314
#     4  10  19  32  49  67  89 116 149 192 241 294
#     4   9  19  36  56  77 103 137 175 213 253 299
#
# _framework density 19.576402999999999
#
# number of rings (size 3 to 8) (size 9 to 14) (size 15 to 20)
#    0.000    2.333    0.000    5.000    0.000    4.167 
#    0.000    1.667    0.000    4.000    0.000    0.000 
#    0.000    0.333    0.000    4.167    0.000    0.000 
#
# Total GULP energy -534620.219120 kJ/mol
# GULP energy per Si atom -5568.960616 kJ/mol
# Density = 1.953185 g / cm^3
# Si number density = 19.576403 Si / 1000 Ang^3
#
#
#
# Elastic Constant Matrix: (Units=GPa)
#
#
# Indices 1 2 3 4 5 6 
#
# 1 89.0334 44.8986 6.6234 0.0000 0.0000 0.0000
# 2 44.8986 89.0334 6.6234 0.0000 0.0000 0.0000
# 3 6.6234 6.6234 45.1064 0.0000 0.0000 0.0000
# 4 0.0000 0.0000 0.0000 96.2034 0.0000 0.0000
# 5 0.0000 0.0000 0.0000 0.0000 96.2034 0.0000
# 6 0.0000 0.0000 0.0000 0.0000 0.0000 13.3251
#
#
#
# Elastic Compliance Matrix: (Units=1/GPa)
#
#
# Indices 1 2 3 4 5 6 
#
# 1 0.015117 -0.007541 -0.001113 0.000000 0.000000 0.000000
# 2 -0.007541 0.015117 -0.001113 0.000000 0.000000 0.000000
# 3 -0.001113 -0.001113 0.022497 0.000000 0.000000 0.000000
# 4 0.000000 0.000000 0.000000 0.010395 0.000000 0.000000
# 5 0.000000 0.000000 0.000000 0.000000 0.010395 0.000000
# 6 0.000000 0.000000 0.000000 0.000000 0.000000 0.075047
#
#
# Mechanical properties :
#
#
# Convention : Reuss Voigt Hill
#
# Bulk Modulus (GPa) = 30.12100 37.71822 33.91961
# Shear Modulus (GPa) = 27.90728 52.14822 40.02775
#
# Velocity S-wave (km/s) = 3.77975 5.16683 4.52673
# Velocity P-wave (km/s) = 5.87099 7.40971 6.68477
#
# Compressibility (1/GPa) = 0.03319943
#
# Stress axis : x y z
#
# Youngs Moduli (GPa) = 66.14980 66.14980 44.45133
#
# Poissons Ratio (x) = 0.49882 0.04945
# Poissons Ratio (y) = 0.49882 0.04945
# Poissons Ratio (z) = 0.07359 0.07359
#
# Static dielectric constant tensor:
#      x y z
#    x 1.809780 0.000000 0.000000 
#    y 0.000000 1.809780 0.000000 
#    z 0.000000 0.000000 1.669310 
# 
# From -- ./inp_files/1753.got.cif
#   From: 2010.05.17/outbox.cif.g08.bks.cpg/sg132_1_cif.got.tgz:1753.got - 2010.05.20 12:30:18.
