data_PCOD9566317
_publ_section_title
;
Structure prediction by ZEFSAII (Michael W. Deem and Ramdas Pophale) SiO2 
 PCOD9566317
Probable space group: P 42/M M C
;
_chemical_formula_sum "Si O2"
_cell_formula_units_Z 104
_cell_length_a 15.262318
_cell_length_b 15.262318
_cell_length_c 23.714489
_cell_angle_alpha 90.000000
_cell_angle_beta 90.000000
_cell_angle_gamma 90.000000
_cell_volume 5524.013956
_symmetry_space_group_name_H-M "P 42/M M C"
_symmetry_group_IT_number 131
_symmetry_cell_setting 'tetragonal'
loop_
_space_group_symop_operation_xyz
x,y,z
-x,-y,z
-y,x,1/2+z
y,-x,1/2+z
-x,y,-z
x,-y,-z
y,x,1/2-z
-y,-x,1/2-z
-x,-y,-z
x,y,-z
y,-x,1/2-z
-y,x,1/2-z
x,-y,z
-x,y,z
-y,-x,1/2+z
y,x,1/2+z
loop_
_atom_site_type_symbol
_atom_site_label
_atom_site_fract_x
_atom_site_fract_y
_atom_site_fract_z
Si Si1 0.818100 0.897454 0.565922
Si Si2 0.280996 0.903596 0.066296
Si Si3 0.395390 0.350308 0.315162
Si Si4 0.096000 0.602596 0.741471
Si Si5 0.843711 0.658225 0.855570
Si Si6 0.599242 0.781383 0.138583
Si Si7 0.104792 0.500000 0.064119
O O1 0.787408 0.892246 0.500000
O O2 0.892872 0.824041 0.571765
O O3 0.745626 0.863409 0.609797
O O4 0.839737 0.000000 0.575940
O O5 0.332266 0.824271 0.095865
O O6 0.307625 0.000000 0.087487
O O7 0.300727 0.899463 0.000000
O O8 0.376792 0.376792 0.250000
O O9 0.500000 0.361943 0.325711
O O10 0.366136 0.251329 0.330119
O O11 0.323254 0.400264 0.353174
O O12 0.106384 0.500000 0.757220
O O13 0.098990 0.655245 0.799180
O O14 0.173511 0.623302 0.698455
O O15 0.000000 0.612514 0.714720
O O16 0.866086 0.583195 0.900253
O O17 0.500000 0.809630 0.124829
O O18 0.000000 0.500000 0.061690
O O19 0.138716 0.500000 0.000000
#
# Coordination Sequence:
#
# PCOD9566317 Si02
#       7
#    16  16  16  16  16  16   8
#     4  10  21  37  59  88 123 163 205 248 298 361
#     4  10  22  41  65  92 122 157 201 255 313 374
#     4  12  24  41  62  88 124 164 209 262 317 373
#     4  10  19  32  54  85 118 150 189 246 308 366
#     4  12  20  35  56  84 121 163 205 252 308 367
#     4  11  23  40  62  88 117 154 202 259 319 378
#     4  11  22  34  54  88 127 165 208 256 310 379
#
# _framework density 18.826889000000001
#
# number of rings (size 3 to 8) (size 9 to 14) (size 15 to 20)
#    0.000    1.154    4.615    2.769    0.000    3.846 
#    0.000    2.308    0.000    0.000    0.000    1.077 
#    0.000    4.923    0.000    0.000    0.000    0.000 
#
# Total GULP energy -579642.317168 kJ/mol
# GULP energy per Si atom -5573.483819 kJ/mol
# Density = 1.878404 g / cm^3
# Si number density = 18.826889 Si / 1000 Ang^3
#
#
#
# Elastic Constant Matrix: (Units=GPa)
#
#
# Indices 1 2 3 4 5 6 
#
# 1 100.9555 29.9040 38.8366 0.0000 0.0000 0.0000
# 2 29.9040 100.9555 38.8366 0.0000 0.0000 0.0000
# 3 38.8366 38.8366 77.4979 0.0000 0.0000 0.0000
# 4 0.0000 0.0000 0.0000 23.2805 0.0000 0.0000
# 5 0.0000 0.0000 0.0000 0.0000 23.2805 0.0000
# 6 0.0000 0.0000 0.0000 0.0000 0.0000 31.4129
#
#
#
# Elastic Compliance Matrix: (Units=1/GPa)
#
#
# Indices 1 2 3 4 5 6 
#
# 1 0.012476 -0.001599 -0.005451 0.000000 0.000000 0.000000
# 2 -0.001599 0.012476 -0.005451 0.000000 0.000000 0.000000
# 3 -0.005451 -0.005451 0.018367 0.000000 0.000000 0.000000
# 4 0.000000 0.000000 0.000000 0.042954 0.000000 0.000000
# 5 0.000000 0.000000 0.000000 0.000000 0.042954 0.000000
# 6 0.000000 0.000000 0.000000 0.000000 0.000000 0.031834
#
#
# Mechanical properties :
#
#
# Convention : Reuss Voigt Hill
#
# Bulk Modulus (GPa) = 54.59221 54.95145 54.77183
# Shear Modulus (GPa) = 26.01890 27.05022 26.53456
#
# Velocity S-wave (km/s) = 3.72157 3.79461 3.75827
# Velocity P-wave (km/s) = 6.89396 6.96059 6.92736
#
# Compressibility (1/GPa) = 0.01831763
#
# Stress axis : x y z
#
# Youngs Moduli (GPa) = 80.15537 80.15537 54.44600
#
# Poissons Ratio (x) = 0.12813 0.29678
# Poissons Ratio (y) = 0.12813 0.29678
# Poissons Ratio (z) = 0.43692 0.43692
#
# Static dielectric constant tensor:
#      x y z
#    x 1.691680 0.000000 0.000000 
#    y 0.000000 1.691680 0.000000 
#    z 0.000000 0.000000 1.635590 
# 
# From -- ./inp_files/11295.got.cif
#   From: 2010.05.17/outbox.cif.g08.bks.cpg/sg131_6_cif.got.tgz:11295.got - 2010.05.20 12:21:01.
