data_PCOD9566739
_publ_section_title
;
Structure prediction by ZEFSAII (Michael W. Deem and Ramdas Pophale) SiO2 
 PCOD9566739
Probable space group: P 42/M M C
;
_chemical_formula_sum "Si O2"
_cell_formula_units_Z 112
_cell_length_a 14.608423
_cell_length_b 14.608423
_cell_length_c 27.381725
_cell_angle_alpha 90.000000
_cell_angle_beta 90.000000
_cell_angle_gamma 90.000000
_cell_volume 5843.425023
_symmetry_space_group_name_H-M "P 42/M M C"
_symmetry_group_IT_number 131
_symmetry_cell_setting 'tetragonal'
loop_
_space_group_symop_operation_xyz
x,y,z
-x,-y,z
-y,x,1/2+z
y,-x,1/2+z
-x,y,-z
x,-y,-z
y,x,1/2-z
-y,-x,1/2-z
-x,-y,-z
x,y,-z
y,-x,1/2-z
-y,x,1/2-z
x,-y,z
-x,y,z
-y,-x,1/2+z
y,x,1/2+z
loop_
_atom_site_type_symbol
_atom_site_label
_atom_site_fract_x
_atom_site_fract_y
_atom_site_fract_z
Si Si1 0.611173 0.900719 0.443326
Si Si2 0.607420 0.285044 0.393682
Si Si3 0.258385 0.391511 0.221557
Si Si4 0.891184 0.270199 0.621208
Si Si5 0.256308 0.890217 0.236797
Si Si6 0.762906 0.608509 0.556248
Si Si7 0.895968 0.888838 0.945043
O O1 0.637788 0.893122 0.500000
O O2 0.500000 0.900738 0.442158
O O3 0.640969 0.812861 0.413886
O O4 0.641096 0.000000 0.424483
O O5 0.500000 0.295586 0.405092
O O6 0.617798 0.281450 0.335618
O O7 0.666861 0.360778 0.420549
O O8 0.339587 0.339587 0.250000
O O9 0.251262 0.500000 0.232979
O O10 0.165375 0.336367 0.235004
O O11 0.873953 0.272234 0.678908
O O12 0.838847 0.346794 0.590842
O O13 0.861451 0.174302 0.596672
O O14 0.000000 0.279633 0.614179
O O15 0.161206 0.838794 0.250000
O O16 0.255116 0.000000 0.245673
O O17 0.770376 0.640521 0.500000
O O18 0.771410 0.500000 0.556551
O O19 0.000000 0.858044 0.937006
O O20 0.897659 0.000000 0.945134
O O21 0.867573 0.860894 0.000000
#
# Coordination Sequence:
#
# PCOD9566739 Si02
#       7
#    16  16  16  16  16  16  16
#     4   8  14  27  50  80 112 143 173 206 249 313
#     4  10  21  38  60  83 111 149 185 225 286 351
#     4  10  22  40  61  85 113 146 191 250 306 356
#     4  10  21  38  59  81 111 154 196 234 283 339
#     4  10  22  39  59  85 118 157 199 245 296 349
#     4  11  24  39  57  84 116 150 191 239 285 333
#     4   8  14  27  50  79 108 138 175 221 271 324
#
# _framework density 19.166840000000001
#
# number of rings (size 3 to 8) (size 9 to 14) (size 15 to 20)
#    0.000    2.429    0.000    3.429    0.000    6.286 
#    0.000    7.857    0.000    2.571    0.000    0.000 
#    0.000    0.000    0.000    0.000    0.000    0.000 
#
# Total GULP energy -625156.170054 kJ/mol
# GULP energy per Si atom -5581.751518 kJ/mol
# Density = 1.912322 g / cm^3
# Si number density = 19.166840 Si / 1000 Ang^3
#
#
#
# Elastic Constant Matrix: (Units=GPa)
#
#
# Indices 1 2 3 4 5 6 
#
# 1 98.5326 35.6278 40.4489 0.0000 0.0000 0.0000
# 2 35.6278 98.5319 40.4503 0.0000 0.0000 0.0000
# 3 40.4489 40.4503 82.4134 0.0000 0.0000 0.0000
# 4 0.0000 0.0000 0.0000 -19.6618 0.0000 0.0000
# 5 0.0000 0.0000 0.0000 0.0000 -19.6625 0.0000
# 6 0.0000 0.0000 0.0000 0.0000 0.0000 23.3774
#
#
#
# Elastic Compliance Matrix: (Units=1/GPa)
#
#
# Indices 1 2 3 4 5 6 
#
# 1 0.013242 -0.002655 -0.005196 0.000000 0.000000 0.000000
# 2 -0.002655 0.013242 -0.005197 0.000000 0.000000 0.000000
# 3 -0.005196 -0.005197 0.017235 0.000000 0.000000 0.000000
# 4 0.000000 0.000000 0.000000 -0.050860 0.000000 0.000000
# 5 0.000000 0.000000 0.000000 0.000000 -0.050858 0.000000
# 6 0.000000 0.000000 0.000000 0.000000 0.000000 0.042776
#
#
# Mechanical properties :
#
#
# Convention : Reuss Voigt Hill
#
# Bulk Modulus (GPa) = 56.74127 56.94800 56.84464
# Shear Modulus (GPa) = 298.55958 7.67402 153.11680
#
# Velocity S-wave (km/s) = 12.49428 2.00312 8.94761
# Velocity P-wave (km/s) = 15.42111 5.92674 11.68197
#
# Compressibility (1/GPa) = 0.01762386
#
# Stress axis : x y z
#
# Youngs Moduli (GPa) = 75.51735 75.51534 58.02203
#
# Poissons Ratio (x) = 0.20049 0.30149
# Poissons Ratio (y) = 0.20049 0.30152
# Poissons Ratio (z) = 0.39240 0.39242
#
# Static dielectric constant tensor:
#      x y z
#    x 1.680190 0.000000 0.000000 
#    y 0.000000 1.680190 0.000000 
#    z 0.000000 0.000000 1.645160 
# 
# From -- ./inp_files/11276.got.cif
#   From: 2010.05.17/outbox.cif.g08.bks.cpg/sg131_6_cif.got.tgz:11276.got - 2010.05.20 12:21:01.
