data_PCOD9566985
_publ_section_title
;
Structure prediction by ZEFSAII (Michael W. Deem and Ramdas Pophale) SiO2 
 PCOD9566985
Probable space group: P 42/M C M
;
_chemical_formula_sum "Si O2"
_cell_formula_units_Z 72
_cell_length_a 11.630029
_cell_length_b 11.630029
_cell_length_c 26.578877
_cell_angle_alpha 90.000000
_cell_angle_beta 90.000000
_cell_angle_gamma 90.000000
_cell_volume 3594.994437
_symmetry_space_group_name_H-M "P 42/M C M"
_symmetry_group_IT_number 132
_symmetry_cell_setting 'tetragonal'
loop_
_space_group_symop_operation_xyz
x,y,z
-y,x,1/2+z
-x,-y,z
y,-x,1/2+z
x,-y,1/2-z
-x,y,1/2-z
y,x,-z
-y,-x,-z
-x,-y,-z
y,-x,1/2-z
x,y,-z
-y,x,1/2-z
-x,y,1/2+z
x,-y,1/2+z
-y,-x,z
y,x,z
loop_
_atom_site_type_symbol
_atom_site_label
_atom_site_fract_x
_atom_site_fract_y
_atom_site_fract_z
Si Si1 0.193474 0.000000 0.250000
Si Si2 0.510385 0.685373 0.909515
Si Si3 0.732936 0.450951 0.803223
Si Si4 0.363412 0.036890 0.663661
Si Si5 0.391738 0.083877 0.445913
O O1 0.277688 0.975889 0.297706
O O2 0.108803 0.108803 0.258887
O O3 0.412989 0.587012 0.907670
O O4 0.624555 0.624555 0.930835
O O5 0.533162 0.722535 0.851582
O O6 0.450387 0.791919 0.936536
O O7 0.768197 0.500000 0.750000
O O8 0.612465 0.387536 0.796083
O O9 0.830747 0.362609 0.819314
O O10 0.329270 0.040872 0.604810
O O11 0.500000 0.000000 0.667589
O O12 0.330093 0.083695 0.500000
O O13 0.500000 0.000000 0.449368
#
# Coordination Sequence:
#
# PCOD9566985 Si02
#       5
#     8  16  16  16  16
#     4  11  23  38  58  82 109 141 176 222 278 329
#     4   9  18  31  48  75 108 138 171 213 262 314
#     4  10  18  28  46  72 104 139 171 207 254 310
#     4  10  20  36  56  79 106 137 176 218 261 315
#     4   9  19  36  55  76 105 142 182 220 260 310
#
# _framework density 20.027847999999999
#
# number of rings (size 3 to 8) (size 9 to 14) (size 15 to 20)
#    0.000    2.333    0.000    3.000    0.000    2.889 
#    0.000   13.333    0.000    2.000    0.000    1.556 
#    0.000    0.000    0.000    0.000    0.000    0.000 
#
# Total GULP energy -400864.525767 kJ/mol
# GULP energy per Si atom -5567.562858 kJ/mol
# Density = 1.998226 g / cm^3
# Si number density = 20.027848 Si / 1000 Ang^3
#
#
#
# Elastic Constant Matrix: (Units=GPa)
#
#
# Indices 1 2 3 4 5 6 
#
# 1 52.5201 13.7548 20.0439 0.0000 0.0000 0.0000
# 2 13.7548 52.5201 20.0439 0.0000 0.0000 0.0000
# 3 20.0439 20.0439 165.7209 0.0000 0.0000 0.0000
# 4 0.0000 0.0000 0.0000 9.6222 0.0000 0.0000
# 5 0.0000 0.0000 0.0000 0.0000 9.6222 0.0000
# 6 0.0000 0.0000 0.0000 0.0000 0.0000 13.5139
#
#
#
# Elastic Compliance Matrix: (Units=1/GPa)
#
#
# Indices 1 2 3 4 5 6 
#
# 1 0.021038 -0.004758 -0.001969 0.000000 0.000000 0.000000
# 2 -0.004758 0.021038 -0.001969 0.000000 0.000000 0.000000
# 3 -0.001969 -0.001969 0.006511 0.000000 0.000000 0.000000
# 4 0.000000 0.000000 0.000000 0.103927 0.000000 0.000000
# 5 0.000000 0.000000 0.000000 0.000000 0.103927 0.000000
# 6 0.000000 0.000000 0.000000 0.000000 0.000000 0.073998
#
#
# Mechanical properties :
#
#
# Convention : Reuss Voigt Hill
#
# Bulk Modulus (GPa) = 32.05763 42.04959 37.05361
# Shear Modulus (GPa) = 13.95759 21.01288 17.48523
#
# Velocity S-wave (km/s) = 2.64277 3.24262 2.95794
# Velocity P-wave (km/s) = 5.03523 5.92120 5.49610
#
# Compressibility (1/GPa) = 0.03119382
#
# Stress axis : x y z
#
# Youngs Moduli (GPa) = 47.53307 47.53307 153.59681
#
# Poissons Ratio (x) = 0.22618 0.30244
# Poissons Ratio (y) = 0.22618 0.30244
# Poissons Ratio (z) = 0.09359 0.09359
#
# Static dielectric constant tensor:
#      x y z
#    x 1.731760 0.000000 0.000000 
#    y 0.000000 1.731760 0.000000 
#    z 0.000000 0.000000 1.807410 
# 
# From -- ./inp_files/9742.got.cif
#   From: 2010.05.17/outbox.cif.g08.bks.cpg/sg132_5_cif.got.tgz:9742.got - 2010.05.20 12:30:18.
