data_PCOD9566929
_publ_section_title
;
Structure prediction by ZEFSAII (Michael W. Deem and Ramdas Pophale) SiO2 
 PCOD9566929
Probable space group: P 42/M M C
;
_chemical_formula_sum "Si O2"
_cell_formula_units_Z 56
_cell_length_a 12.000000
_cell_length_b 12.000000
_cell_length_c 24.000000
_cell_angle_alpha 90.000000
_cell_angle_beta 90.000000
_cell_angle_gamma 90.000000
_cell_volume 3456.000000
_symmetry_space_group_name_H-M "P 42/M M C"
_symmetry_group_IT_number 131
_symmetry_cell_setting 'tetragonal'
loop_
_space_group_symop_operation_xyz
x,y,z
-x,-y,z
-y,x,1/2+z
y,-x,1/2+z
-x,y,-z
x,-y,-z
y,x,1/2-z
-y,-x,1/2-z
-x,-y,-z
x,y,-z
y,-x,1/2-z
-y,x,1/2-z
x,-y,z
-x,y,z
-y,-x,1/2+z
y,x,1/2+z
loop_
_atom_site_type_symbol
_atom_site_label
_atom_site_fract_x
_atom_site_fract_y
_atom_site_fract_z
Si Si1 0.724848 0.759015 0.904797
Si Si2 0.000000 0.625600 0.434241
Si Si3 0.869784 0.130350 0.816452
Si Si4 0.365709 0.865567 0.500000
Si Si5 0.366158 0.500000 0.566982
O O1 0.688705 0.884832 0.921412
O O2 0.791253 0.782455 0.847852
O O3 0.610878 0.687641 0.906386
O O4 0.807916 0.696187 0.947525
O O5 0.000000 0.500000 0.408819
O O6 0.000000 0.612779 0.500000
O O7 0.859418 0.140582 0.750000
O O8 0.000000 0.148005 0.831396
O O9 0.843781 0.000000 0.830189
O O10 0.500000 0.841479 0.500000
O O11 0.352596 0.000000 0.500000
O O12 0.500000 0.500000 0.572352
O O13 0.339833 0.500000 0.500000
#
# Coordination Sequence:
#
# PCOD9566929 Si02
#       5
#    16   8  16   8   8
#     4  12  20  35  58  84 112 144 186 230 280 333
#     4  11  20  32  50  86 120 142 170 225 290 337
#     4   9  19  36  58  84 114 149 185 224 278 340
#     4  11  24  38  53  78 114 154 188 223 274 337
#     4  11  22  37  59  83 111 154 194 225 272 335
#
# _framework density 16.203703999999998
#
# number of rings (size 3 to 8) (size 9 to 14) (size 15 to 20)
#    0.000    1.286    5.714    2.571    0.000    0.000 
#    0.000    0.714    6.286    0.000    0.000    0.000 
#    0.000    0.000    0.000    0.000    0.000    0.000 
#
# Total GULP energy -312121.104693 kJ/mol
# GULP energy per Si atom -5573.591155 kJ/mol
# Density = 1.616682 g / cm^3
# Si number density = 16.203704 Si / 1000 Ang^3
#
#
#
# Elastic Constant Matrix: (Units=GPa)
#
#
# Indices 1 2 3 4 5 6 
#
# 1 125.7415 66.8545 45.4218 0.0000 0.0000 0.0000
# 2 66.8545 125.7415 45.4218 0.0000 0.0000 0.0000
# 3 45.4218 45.4218 64.5653 0.0000 0.0000 0.0000
# 4 0.0000 0.0000 0.0000 23.3843 0.0000 0.0000
# 5 0.0000 0.0000 0.0000 0.0000 23.3843 0.0000
# 6 0.0000 0.0000 0.0000 0.0000 0.0000 37.3808
#
#
#
# Elastic Compliance Matrix: (Units=1/GPa)
#
#
# Indices 1 2 3 4 5 6 
#
# 1 0.012376 -0.004605 -0.005467 0.000000 0.000000 0.000000
# 2 -0.004605 0.012376 -0.005467 0.000000 0.000000 0.000000
# 3 -0.005467 -0.005467 0.023180 0.000000 0.000000 0.000000
# 4 0.000000 0.000000 0.000000 0.042764 0.000000 0.000000
# 5 0.000000 0.000000 0.000000 0.000000 0.042764 0.000000
# 6 0.000000 0.000000 0.000000 0.000000 0.000000 0.026752
#
#
# Mechanical properties :
#
#
# Convention : Reuss Voigt Hill
#
# Bulk Modulus (GPa) = 59.33146 70.16050 64.74598
# Shear Modulus (GPa) = 25.39260 27.38654 26.38957
#
# Velocity S-wave (km/s) = 3.96294 4.11559 4.03999
# Velocity P-wave (km/s) = 7.59179 8.12263 7.86169
#
# Compressibility (1/GPa) = 0.01685447
#
# Stress axis : x y z
#
# Youngs Moduli (GPa) = 80.80007 80.80007 43.14075
#
# Poissons Ratio (x) = 0.37212 0.23584
# Poissons Ratio (y) = 0.37212 0.23584
# Poissons Ratio (z) = 0.44171 0.44171
#
# Static dielectric constant tensor:
#      x y z
#    x 1.555680 0.000000 0.000000 
#    y 0.000000 1.555680 0.000000 
#    z 0.000000 0.000000 1.538300 
# 
# From -- ./inp_files/10707.got.cif
#   From: 2010.05.17/outbox.ucp.g08.bks.cvg/sg131_6_cif.got.tgz:10707.got - 2010.06.11 11:38:44.
