data_PCOD9566164
_publ_section_title
;
Structure prediction by ZEFSAII (Michael W. Deem and Ramdas Pophale) SiO2 
 PCOD9566164
Probable space group: P 42/M M C
;
_chemical_formula_sum "Si O2"
_cell_formula_units_Z 112
_cell_length_a 14.706311
_cell_length_b 14.706311
_cell_length_c 25.374499
_cell_angle_alpha 90.000000
_cell_angle_beta 90.000000
_cell_angle_gamma 90.000000
_cell_volume 5487.884570
_symmetry_space_group_name_H-M "P 42/M M C"
_symmetry_group_IT_number 131
_symmetry_cell_setting 'tetragonal'
loop_
_space_group_symop_operation_xyz
x,y,z
-x,-y,z
-y,x,1/2+z
y,-x,1/2+z
-x,y,-z
x,-y,-z
y,x,1/2-z
-y,-x,1/2-z
-x,-y,-z
x,y,-z
y,-x,1/2-z
-y,x,1/2-z
x,-y,z
-x,y,z
-y,-x,1/2+z
y,x,1/2+z
loop_
_atom_site_type_symbol
_atom_site_label
_atom_site_fract_x
_atom_site_fract_y
_atom_site_fract_z
Si Si1 0.397164 0.146028 0.834157
Si Si2 0.598006 0.719979 0.408922
Si Si3 0.651253 0.899874 0.362514
Si Si4 0.399645 0.640612 0.810396
Si Si5 0.810913 0.302739 0.440482
Si Si6 0.822058 0.902124 0.560661
Si Si7 0.103474 0.742860 0.754137
O O1 0.500000 0.110513 0.827741
O O2 0.397066 0.250869 0.815665
O O3 0.366640 0.150252 0.894944
O O4 0.320107 0.102673 0.797553
O O5 0.500000 0.695657 0.434695
O O6 0.596604 0.825831 0.394385
O O7 0.602300 0.669490 0.352782
O O8 0.699040 0.703179 0.434160
O O9 0.744312 0.906681 0.395710
O O10 0.679486 0.869596 0.303852
O O11 0.610111 0.000000 0.359208
O O12 0.382706 0.617295 0.750000
O O13 0.500000 0.609141 0.825515
O O14 0.829214 0.332907 0.500000
O O15 0.855560 0.201685 0.433112
O O16 0.786638 0.901740 0.500000
O O17 0.873960 0.000000 0.565325
O O18 0.175340 0.824661 0.750000
O O19 0.000000 0.775219 0.764397
#
# Coordination Sequence:
#
# PCOD9566164 Si02
#       7
#    16  16  16  16  16  16  16
#     4  10  21  37  56  79 108 143 189 243 292 338
#     4  10  19  29  43  67 101 136 176 232 290 345
#     4   9  18  31  48  72 103 142 185 223 266 329
#     4  10  19  30  46  66  92 130 175 223 275 335
#     4   9  18  33  52  73 101 142 194 246 298 359
#     4   8  13  24  45  72 102 135 174 225 280 336
#     4  11  22  37  59  86 120 157 190 231 286 348
#
# _framework density 20.408591000000001
#
# number of rings (size 3 to 8) (size 9 to 14) (size 15 to 20)
#    0.000    2.429    0.000    4.286    0.000    4.000 
#    0.000    1.429    0.000    0.429    0.000   15.000 
#    0.000    0.000    0.000   37.714    0.000    0.000 
#
# Total GULP energy -623516.684695 kJ/mol
# GULP energy per Si atom -5567.113256 kJ/mol
# Density = 2.036214 g / cm^3
# Si number density = 20.408591 Si / 1000 Ang^3
#
#
#
# Elastic Constant Matrix: (Units=GPa)
#
#
# Indices 1 2 3 4 5 6 
#
# 1 48.1461 17.5391 10.6497 0.0000 0.0000 0.0000
# 2 17.5391 48.1444 10.6500 0.0000 0.0000 0.0000
# 3 10.6497 10.6500 80.3315 0.0000 0.0000 0.0000
# 4 0.0000 0.0000 0.0000 -7.2409 0.0000 0.0000
# 5 0.0000 0.0000 0.0000 0.0000 -7.2388 0.0000
# 6 0.0000 0.0000 0.0000 0.0000 0.0000 26.6950
#
#
#
# Elastic Compliance Matrix: (Units=1/GPa)
#
#
# Indices 1 2 3 4 5 6 
#
# 1 0.024290 -0.008382 -0.002109 0.000000 0.000000 0.000000
# 2 -0.008382 0.024291 -0.002109 0.000000 0.000000 0.000000
# 3 -0.002109 -0.002109 0.013008 0.000000 0.000000 0.000000
# 4 0.000000 0.000000 0.000000 -0.138103 0.000000 0.000000
# 5 0.000000 0.000000 0.000000 0.000000 -0.138144 0.000000
# 6 0.000000 0.000000 0.000000 0.000000 0.000000 0.037460
#
#
# Mechanical properties :
#
#
# Convention : Reuss Voigt Hill
#
# Bulk Modulus (GPa) = 27.48157 28.25550 27.86853
# Shear Modulus (GPa) = -35.74791 11.62860 -12.05965
#
# Velocity S-wave (km/s) = -4.18977 2.38962 -2.43350
# Velocity P-wave (km/s) = 3.14811 4.63559 2.40604
#
# Compressibility (1/GPa) = 0.03638803
#
# Stress axis : x y z
#
# Youngs Moduli (GPa) = 41.16880 41.16723 76.87805
#
# Poissons Ratio (x) = 0.34508 0.16213
# Poissons Ratio (y) = 0.34510 0.16215
# Poissons Ratio (z) = 0.08682 0.08683
#
# Static dielectric constant tensor:
#      x y z
#    x 1.766690 0.000000 0.000000 
#    y 0.000000 1.766690 0.000000 
#    z 0.000000 0.000000 1.692350 
# 
# From -- ./inp_files/11271.got.cif
#   From: 2010.05.17/outbox.cif.g08.bks.cpg/sg131_6_cif.got.tgz:11271.got - 2010.05.20 12:21:01.
