data_PCOD9566919
_publ_section_title
;
Structure prediction by ZEFSAII (Michael W. Deem and Ramdas Pophale) SiO2 
 PCOD9566919
Probable space group: P 42/M M C
;
_chemical_formula_sum "Si O2"
_cell_formula_units_Z 88
_cell_length_a 18.000000
_cell_length_b 18.000000
_cell_length_c 15.000000
_cell_angle_alpha 90.000000
_cell_angle_beta 90.000000
_cell_angle_gamma 90.000000
_cell_volume 4860.000000
_symmetry_space_group_name_H-M "P 42/M M C"
_symmetry_group_IT_number 131
_symmetry_cell_setting 'tetragonal'
loop_
_space_group_symop_operation_xyz
x,y,z
-x,-y,z
-y,x,1/2+z
y,-x,1/2+z
-x,y,-z
x,-y,-z
y,x,1/2-z
-y,-x,1/2-z
-x,-y,-z
x,y,-z
y,-x,1/2-z
-y,x,1/2-z
x,-y,z
-x,y,z
-y,-x,1/2+z
y,x,1/2+z
loop_
_atom_site_type_symbol
_atom_site_label
_atom_site_fract_x
_atom_site_fract_y
_atom_site_fract_z
Si Si1 0.912956 0.080579 0.642648
Si Si2 0.089009 0.758249 0.597034
Si Si3 0.583503 0.500000 0.391038
Si Si4 0.680927 0.363083 0.603182
Si Si5 0.790306 0.410862 0.102219
Si Si6 0.685827 0.808660 0.767730
O O1 0.912470 0.087531 0.750000
O O2 0.881782 0.156815 0.604670
O O3 0.000000 0.077995 0.616140
O O4 0.879921 0.000000 0.618705
O O5 0.111333 0.728798 0.500000
O O6 0.120493 0.710057 0.676415
O O7 0.000000 0.761447 0.601688
O O8 0.500000 0.500000 0.358682
O O9 0.580933 0.500000 0.500000
O O10 0.629169 0.571260 0.363768
O O11 0.703198 0.375380 0.500000
O O12 0.628576 0.290473 0.604128
O O13 0.751440 0.356510 0.666938
O O14 0.787031 0.500000 0.118891
O O15 0.828189 0.363528 0.181437
O O16 0.818704 0.401124 0.000000
O O17 0.761451 0.761451 0.750000
#
# Coordination Sequence:
#
# PCOD9566919 Si02
#       6
#    16  16   8  16  16  16
#     4   8  14  26  45  70 102 138 174 211 250 294
#     4  10  20  33  51  75 104 140 178 216 261 312
#     4   9  16  26  44  72 106 140 168 199 246 300
#     4   9  17  29  47  73 105 139 170 202 246 303
#     4   9  18  33  53  74  97 128 168 213 261 313
#     4  10  20  33  51  74 103 136 174 214 256 307
#
# _framework density 18.106995999999999
#
# number of rings (size 3 to 8) (size 9 to 14) (size 15 to 20)
#    0.000    2.818    0.000    2.182    1.273    3.273 
#    0.000    1.818    0.000    1.091    0.000    2.545 
#    0.000    0.000    0.000    0.000    0.000    0.364 
#
# Total GULP energy -489987.878689 kJ/mol
# GULP energy per Si atom -5568.044076 kJ/mol
# Density = 1.806578 g / cm^3
# Si number density = 18.106996 Si / 1000 Ang^3
#
#
#
# Elastic Constant Matrix: (Units=GPa)
#
#
# Indices 1 2 3 4 5 6 
#
# 1 44.6093 29.4572 42.5480 0.0000 0.0000 0.0000
# 2 29.4572 44.6091 42.5481 0.0000 0.0000 0.0000
# 3 42.5480 42.5481 115.3227 0.0000 0.0000 0.0000
# 4 0.0000 0.0000 0.0000 19.4982 0.0000 0.0000
# 5 0.0000 0.0000 0.0000 0.0000 19.4980 0.0000
# 6 0.0000 0.0000 0.0000 0.0000 0.0000 6.8554
#
#
#
# Elastic Compliance Matrix: (Units=1/GPa)
#
#
# Indices 1 2 3 4 5 6 
#
# 1 0.044716 -0.021281 -0.008646 0.000000 0.000000 0.000000
# 2 -0.021281 0.044717 -0.008647 0.000000 0.000000 0.000000
# 3 -0.008646 -0.008647 0.015052 0.000000 0.000000 0.000000
# 4 0.000000 0.000000 0.000000 0.051287 0.000000 0.000000
# 5 0.000000 0.000000 0.000000 0.000000 0.051287 0.000000
# 6 0.000000 0.000000 0.000000 0.000000 0.000000 0.145870
#
#
# Mechanical properties :
#
#
# Convention : Reuss Voigt Hill
#
# Bulk Modulus (GPa) = 36.58098 48.18305 42.38202
# Shear Modulus (GPa) = 11.38461 15.16952 13.27707
#
# Velocity S-wave (km/s) = 2.51019 2.89757 2.71081
# Velocity P-wave (km/s) = 5.35238 6.15325 5.76673
#
# Compressibility (1/GPa) = 0.02733661
#
# Stress axis : x y z
#
# Youngs Moduli (GPa) = 22.36313 22.36295 66.43851
#
# Poissons Ratio (x) = 0.47591 0.57445
# Poissons Ratio (y) = 0.47591 0.57446
# Poissons Ratio (z) = 0.19336 0.19336
#
# Static dielectric constant tensor:
#      x y z
#    x 1.616620 0.000000 0.000000 
#    y 0.000000 1.616620 0.000000 
#    z 0.000000 0.000000 1.683310 
# 
# From -- ./inp_files/5856.got.cif
#   From: 2010.05.17/outbox.ucp.g08.bks.cvg/sg131_3_cif.got.tgz:5856.got - 2010.06.11 11:38:44.
