data_PCOD9566433
_publ_section_title
;
Structure prediction by ZEFSAII (Michael W. Deem and Ramdas Pophale) SiO2 
 PCOD9566433
Probable space group: P 42/M M C
;
_chemical_formula_sum "Si O2"
_cell_formula_units_Z 88
_cell_length_a 14.328016
_cell_length_b 14.328016
_cell_length_c 23.993686
_cell_angle_alpha 90.000000
_cell_angle_beta 90.000000
_cell_angle_gamma 90.000000
_cell_volume 4925.712806
_symmetry_space_group_name_H-M "P 42/M M C"
_symmetry_group_IT_number 131
_symmetry_cell_setting 'tetragonal'
loop_
_space_group_symop_operation_xyz
x,y,z
-x,-y,z
-y,x,1/2+z
y,-x,1/2+z
-x,y,-z
x,-y,-z
y,x,1/2-z
-y,-x,1/2-z
-x,-y,-z
x,y,-z
y,-x,1/2-z
-y,x,1/2-z
x,-y,z
-x,y,z
-y,-x,1/2+z
y,x,1/2+z
loop_
_atom_site_type_symbol
_atom_site_label
_atom_site_fract_x
_atom_site_fract_y
_atom_site_fract_z
Si Si1 0.104984 0.395858 0.718632
Si Si2 0.606845 0.772861 0.329988
Si Si3 0.235615 0.807503 0.155098
Si Si4 0.890280 0.892752 0.433235
Si Si5 0.387977 0.895082 0.439774
Si Si6 0.111075 0.888926 0.750000
O O1 0.115178 0.500000 0.694974
O O2 0.173241 0.388863 0.771469
O O3 0.123062 0.317449 0.673087
O O4 0.000000 0.386348 0.740823
O O5 0.500000 0.734342 0.335109
O O6 0.705048 0.719010 0.334433
O O7 0.623747 0.841026 0.382562
O O8 0.186443 0.829153 0.096473
O O9 0.151530 0.830467 0.198230
O O10 0.881804 0.888618 0.500000
O O11 0.000000 0.877953 0.418888
O O12 0.868178 0.000000 0.416002
O O13 0.355587 0.855532 0.500000
O O14 0.500000 0.901518 0.443919
O O15 0.350150 0.000000 0.435534
O O16 0.000000 0.874169 0.742443
#
# Coordination Sequence:
#
# PCOD9566433 Si02
#       6
#    16  16  16  16  16   8
#     4  10  20  34  52  74 100 130 167 213 266 317
#     4  10  20  32  46  68 100 135 170 212 261 308
#     4  12  21  33  53  75 100 136 174 215 253 308
#     4   9  19  35  53  75 106 142 175 207 250 311
#     4   8  14  25  41  62  91 128 166 201 239 289
#     4  11  22  32  46  74 106 131 160 204 252 301
#
# _framework density 17.865435999999999
#
# number of rings (size 3 to 8) (size 9 to 14) (size 15 to 20)
#    0.000    2.091    1.818    3.818    0.000    6.545 
#    0.000    1.818    0.000    1.091    0.000    5.091 
#    0.000    0.000    0.000    6.182    0.000    3.091 
#
# Total GULP energy -489895.279296 kJ/mol
# GULP energy per Si atom -5566.991810 kJ/mol
# Density = 1.782477 g / cm^3
# Si number density = 17.865436 Si / 1000 Ang^3
#
#
#
# Elastic Constant Matrix: (Units=GPa)
#
#
# Indices 1 2 3 4 5 6 
#
# 1 70.1789 0.5251 7.7767 0.0000 0.0000 0.0000
# 2 0.5251 70.1793 7.7768 0.0000 0.0000 0.0000
# 3 7.7767 7.7768 57.8522 0.0000 0.0000 0.0000
# 4 0.0000 0.0000 0.0000 17.5756 0.0000 0.0000
# 5 0.0000 0.0000 0.0000 0.0000 17.5755 0.0000
# 6 0.0000 0.0000 0.0000 0.0000 0.0000 12.2014
#
#
#
# Elastic Compliance Matrix: (Units=1/GPa)
#
#
# Indices 1 2 3 4 5 6 
#
# 1 0.014466 0.000109 -0.001959 0.000000 0.000000 0.000000
# 2 0.000109 0.014465 -0.001959 0.000000 0.000000 0.000000
# 3 -0.001959 -0.001959 0.017812 0.000000 0.000000 0.000000
# 4 0.000000 0.000000 0.000000 0.056897 0.000000 0.000000
# 5 0.000000 0.000000 0.000000 0.000000 0.056897 0.000000
# 6 0.000000 0.000000 0.000000 0.000000 0.000000 0.081958
#
#
# Mechanical properties :
#
#
# Convention : Reuss Voigt Hill
#
# Bulk Modulus (GPa) = 25.55954 25.59640 25.57797
# Shear Modulus (GPa) = 19.00018 21.61265 20.30641
#
# Velocity S-wave (km/s) = 3.26470 3.48191 3.37505
# Velocity P-wave (km/s) = 5.34310 5.52480 5.43471
#
# Compressibility (1/GPa) = 0.03912434
#
# Stress axis : x y z
#
# Youngs Moduli (GPa) = 69.12964 69.13005 56.14151
#
# Poissons Ratio (x) = -0.00753 0.10999
# Poissons Ratio (y) = -0.00753 0.10999
# Poissons Ratio (z) = 0.13544 0.13544
#
# Static dielectric constant tensor:
#      x y z
#    x 1.671240 0.000000 0.000000 
#    y 0.000000 1.671240 0.000000 
#    z 0.000000 0.000000 1.643530 
# 
# From -- ./inp_files/11057.got.cif
#   From: 2010.05.17/outbox.cif.g08.bks.cpg/sg131_6_cif.got.tgz:11057.got - 2010.05.20 12:21:01.
