data_PCOD9566128
_publ_section_title
;
Structure prediction by ZEFSAII (Michael W. Deem and Ramdas Pophale) SiO2 
 PCOD9566128
Probable space group: P 42/M M C
;
_chemical_formula_sum "Si O2"
_cell_formula_units_Z 42
_cell_length_a 12.094866
_cell_length_b 12.094866
_cell_length_c 14.745726
_cell_angle_alpha 90.000000
_cell_angle_beta 90.000000
_cell_angle_gamma 90.000000
_cell_volume 2157.090082
_symmetry_space_group_name_H-M "P 42/M M C"
_symmetry_group_IT_number 131
_symmetry_cell_setting 'tetragonal'
loop_
_space_group_symop_operation_xyz
x,y,z
-x,-y,z
-y,x,1/2+z
y,-x,1/2+z
-x,y,-z
x,-y,-z
y,x,1/2-z
-y,-x,1/2-z
-x,-y,-z
x,y,-z
y,-x,1/2-z
-y,x,1/2-z
x,-y,z
-x,y,z
-y,-x,1/2+z
y,x,1/2+z
loop_
_atom_site_type_symbol
_atom_site_label
_atom_site_fract_x
_atom_site_fract_y
_atom_site_fract_z
Si Si1 0.764195 0.000000 0.347820
Si Si2 0.000000 0.000000 0.250000
Si Si3 0.000000 0.366305 0.336801
Si Si4 0.372137 0.369206 0.000000
Si Si5 0.246658 0.772672 0.140752
O O1 0.761963 0.120057 0.393196
O O2 0.886132 0.000000 0.303660
O O3 0.669559 0.000000 0.269793
O O4 0.109262 0.306010 0.375754
O O5 0.000000 0.500000 0.347898
O O6 0.316064 0.318392 0.911246
O O7 0.500000 0.337854 0.000000
O O8 0.361548 0.500000 0.000000
O O9 0.242786 0.757215 0.250000
#
# Coordination Sequence:
#
# PCOD9566128 Si02
#       5
#     8   2   8   8  16
#     4  10  18  33  62  89 122 159 195 243 313 370
#     4  12  12  36  60  94 132 156 190 252 296 390
#     4  10  18  31  56  89 117 150 196 242 295 359
#     4  11  26  44  60  83 120 166 215 259 299 356
#     4  10  21  39  62  91 120 159 199 252 313 370
#
# _framework density 19.470675
#
# number of rings (size 3 to 8) (size 9 to 14) (size 15 to 20)
#    0.000    1.714    5.714    1.143    0.000    9.143 
#    0.000    4.762    0.000    3.429    0.000    0.000 
#    0.000    0.000    0.000    0.000    0.000    0.000 
#
# Total GULP energy -234213.533245 kJ/mol
# GULP energy per Si atom -5576.512696 kJ/mol
# Density = 1.942636 g / cm^3
# Si number density = 19.470675 Si / 1000 Ang^3
#
#
#
# Elastic Constant Matrix: (Units=GPa)
#
#
# Indices 1 2 3 4 5 6 
#
# 1 103.7219 70.7927 20.6414 0.0000 0.0000 0.0000
# 2 70.7927 103.7217 20.6410 0.0000 0.0000 0.0000
# 3 20.6414 20.6410 66.2163 0.0000 0.0000 0.0000
# 4 0.0000 0.0000 0.0000 -1.0019 0.0000 0.0000
# 5 0.0000 0.0000 0.0000 0.0000 -0.9897 0.0000
# 6 0.0000 0.0000 0.0000 0.0000 0.0000 35.0524
#
#
#
# Elastic Compliance Matrix: (Units=1/GPa)
#
#
# Indices 1 2 3 4 5 6 
#
# 1 0.018277 -0.012091 -0.001929 0.000000 0.000000 0.000000
# 2 -0.012091 0.018277 -0.001928 0.000000 0.000000 0.000000
# 3 -0.001929 -0.001928 0.016304 0.000000 0.000000 0.000000
# 4 0.000000 0.000000 0.000000 -0.998101 0.000000 0.000000
# 5 0.000000 0.000000 0.000000 0.000000 -1.010410 0.000000
# 6 0.000000 0.000000 0.000000 0.000000 0.000000 0.028529
#
#
# Mechanical properties :
#
#
# Convention : Reuss Voigt Hill
#
# Bulk Modulus (GPa) = 47.70245 55.31223 51.50734
# Shear Modulus (GPa) = -2.64797 17.38448 7.36826
#
# Velocity S-wave (km/s) = -1.16745 2.99131 1.94743
# Velocity P-wave (km/s) = 4.76818 6.35612 5.61853
#
# Compressibility (1/GPa) = 0.02096328
#
# Stress axis : x y z
#
# Youngs Moduli (GPa) = 54.71250 54.71256 61.33352
#
# Poissons Ratio (x) = 0.66153 0.11828
# Poissons Ratio (y) = 0.66153 0.11827
# Poissons Ratio (z) = 0.10552 0.10550
#
# Static dielectric constant tensor:
#      x y z
#    x 1.635130 0.000000 0.000000 
#    y 0.000000 1.635130 0.000000 
#    z 0.000000 0.000000 1.771860 
# 
# From -- ./inp_files/6964.got.cif
#   From: 2010.05.17/outbox.cif.g08.bks.cpg/sg131_4_cif.got.tgz:6964.got - 2010.05.20 12:21:01.
