data_PCOD9566295
_publ_section_title
;
Structure prediction by ZEFSAII (Michael W. Deem and Ramdas Pophale) SiO2 
 PCOD9566295
Probable space group: P 42/M M C
;
_chemical_formula_sum "Si O2"
_cell_formula_units_Z 120
_cell_length_a 28.565597
_cell_length_b 28.565597
_cell_length_c 8.206703
_cell_angle_alpha 90.000000
_cell_angle_beta 90.000000
_cell_angle_gamma 90.000000
_cell_volume 6696.614925
_symmetry_space_group_name_H-M "P 42/M M C"
_symmetry_group_IT_number 131
_symmetry_cell_setting 'tetragonal'
loop_
_space_group_symop_operation_xyz
x,y,z
-x,-y,z
-y,x,1/2+z
y,-x,1/2+z
-x,y,-z
x,-y,-z
y,x,1/2-z
-y,-x,1/2-z
-x,-y,-z
x,y,-z
y,-x,1/2-z
-y,x,1/2-z
x,-y,z
-x,y,z
-y,-x,1/2+z
y,x,1/2+z
loop_
_atom_site_type_symbol
_atom_site_label
_atom_site_fract_x
_atom_site_fract_y
_atom_site_fract_z
Si Si1 0.693211 0.123114 0.320606
Si Si2 0.767851 0.944055 0.809174
Si Si3 0.222022 0.554620 0.302662
Si Si4 0.946252 0.444626 0.500000
Si Si5 0.361139 0.711500 0.197032
Si Si6 0.871471 0.946516 0.803355
Si Si7 0.117352 0.582661 0.187578
Si Si8 0.282694 0.217969 0.184701
O O1 0.703285 0.142570 0.500000
O O2 0.726056 0.079447 0.286921
O O3 0.638716 0.112494 0.311235
O O4 0.705583 0.164326 0.198968
O O5 0.819720 0.930401 0.749030
O O6 0.765787 0.000000 0.799405
O O7 0.763508 0.931137 0.000000
O O8 0.217074 0.558662 0.500000
O O9 0.230659 0.500000 0.263686
O O10 0.264979 0.589071 0.252888
O O11 0.171551 0.569555 0.228350
O O12 0.950887 0.500000 0.500000
O O13 0.916487 0.433280 0.335569
O O14 0.000000 0.424640 0.500000
O O15 0.338498 0.661503 0.250000
O O16 0.323516 0.750100 0.261625
O O17 0.362848 0.710205 0.000000
O O18 0.911794 0.911794 0.750000
O O19 0.879389 0.000000 0.746857
O O20 0.869746 0.947841 0.000000
O O21 0.106810 0.566595 0.000000
O O22 0.232435 0.232435 0.250000
O O23 0.282730 0.232611 0.000000
#
# Coordination Sequence:
#
# PCOD9566295 Si02
#       8
#    16  16  16   8  16  16  16  16
#     4  11  23  36  54  80 109 140 181 228 276 335
#     4   9  20  38  57  75  99 135 174 217 271 328
#     4  10  19  34  58  86 117 155 200 245 296 355
#     4  11  26  46  66  86 112 150 192 242 308 368
#     4   9  18  31  50  76 109 149 188 230 280 337
#     4   9  19  36  56  80 108 137 173 215 264 325
#     4  11  24  40  61  89 119 149 192 248 299 357
#     4  10  19  32  51  74 105 141 179 218 264 319
#
# _framework density 17.919502000000001
#
# number of rings (size 3 to 8) (size 9 to 14) (size 15 to 20)
#    0.000    2.067    2.000    2.000    1.867    4.667 
#    0.000    5.333    0.000    0.000    0.000    0.000 
#    0.000    0.267    0.000    3.333    0.000    0.000 
#
# Total GULP energy -668404.969326 kJ/mol
# GULP energy per Si atom -5570.041411 kJ/mol
# Density = 1.787872 g / cm^3
# Si number density = 17.919502 Si / 1000 Ang^3
#
#
#
# Elastic Constant Matrix: (Units=GPa)
#
#
# Indices 1 2 3 4 5 6 
#
# 1 87.0267 55.5530 31.4187 0.0000 0.0000 0.0000
# 2 55.5530 87.0282 31.4184 0.0000 0.0000 0.0000
# 3 31.4187 31.4184 59.7073 0.0000 0.0000 0.0000
# 4 0.0000 0.0000 0.0000 17.0566 0.0000 0.0000
# 5 0.0000 0.0000 0.0000 0.0000 17.0565 0.0000
# 6 0.0000 0.0000 0.0000 0.0000 0.0000 -7.6855
#
#
#
# Elastic Compliance Matrix: (Units=1/GPa)
#
#
# Indices 1 2 3 4 5 6 
#
# 1 0.020452 -0.011320 -0.004805 0.000000 0.000000 0.000000
# 2 -0.011320 0.020451 -0.004805 0.000000 0.000000 0.000000
# 3 -0.004805 -0.004805 0.021805 0.000000 0.000000 0.000000
# 4 0.000000 0.000000 0.000000 0.058628 0.000000 0.000000
# 5 0.000000 0.000000 0.000000 0.000000 0.058629 0.000000
# 6 0.000000 0.000000 0.000000 0.000000 0.000000 -0.130116
#
#
# Mechanical properties :
#
#
# Convention : Reuss Voigt Hill
#
# Bulk Modulus (GPa) = 47.96658 52.28249 50.12454
# Shear Modulus (GPa) = 50.67955 12.97700 31.82827
#
# Velocity S-wave (km/s) = 5.32383 2.69398 4.21905
# Velocity P-wave (km/s) = 8.03846 6.23830 7.19490
#
# Compressibility (1/GPa) = 0.02084785
#
# Stress axis : x y z
#
# Youngs Moduli (GPa) = 48.89555 48.89681 45.86071
#
# Poissons Ratio (x) = 0.55353 0.22037
# Poissons Ratio (y) = 0.55351 0.22035
# Poissons Ratio (z) = 0.23495 0.23493
#
# Static dielectric constant tensor:
#      x y z
#    x 1.614770 0.000000 0.000000 
#    y 0.000000 1.614770 0.000000 
#    z 0.000000 0.000000 1.652030 
# 
# From -- ./inp_files/2666.got.cif
#   From: 2010.05.17/outbox.cif.g08.bks.cpg/sg131_2_cif.got.tgz:2666.got - 2010.05.20 12:21:01.
