data_PCOD9566913
_publ_section_title
;
Structure prediction by ZEFSAII (Michael W. Deem and Ramdas Pophale) SiO2 
 PCOD9566913
Probable space group: P 42/M M C
;
_chemical_formula_sum "Si O2"
_cell_formula_units_Z 120
_cell_length_a 15.000000
_cell_length_b 15.000000
_cell_length_c 30.000000
_cell_angle_alpha 90.000000
_cell_angle_beta 90.000000
_cell_angle_gamma 90.000000
_cell_volume 6750.000000
_symmetry_space_group_name_H-M "P 42/M M C"
_symmetry_group_IT_number 131
_symmetry_cell_setting 'tetragonal'
loop_
_space_group_symop_operation_xyz
x,y,z
-x,-y,z
-y,x,1/2+z
y,-x,1/2+z
-x,y,-z
x,-y,-z
y,x,1/2-z
-y,-x,1/2-z
-x,-y,-z
x,y,-z
y,-x,1/2-z
-y,x,1/2-z
x,-y,z
-x,y,z
-y,-x,1/2+z
y,x,1/2+z
loop_
_atom_site_type_symbol
_atom_site_label
_atom_site_fract_x
_atom_site_fract_y
_atom_site_fract_z
Si Si1 0.400335 0.721684 0.719577
Si Si2 0.789268 0.606927 0.877441
Si Si3 0.098841 0.241014 0.847421
Si Si4 0.708835 0.674742 0.551611
Si Si5 0.398732 0.500000 0.554049
Si Si6 0.897590 0.607001 0.580681
Si Si7 0.749786 0.898103 0.844365
Si Si8 0.900005 0.322777 0.753129
O O1 0.333453 0.666548 0.750000
O O2 0.500000 0.687152 0.724924
O O3 0.379311 0.727518 0.666803
O O4 0.393014 0.823469 0.736271
O O5 0.796773 0.500000 0.884580
O O6 0.879493 0.659791 0.865360
O O7 0.749440 0.663370 0.918103
O O8 0.176535 0.172302 0.860307
O O9 0.101798 0.253124 0.793952
O O10 0.000000 0.212142 0.860785
O O11 0.688987 0.692211 0.500000
O O12 0.656410 0.586301 0.566961
O O13 0.814123 0.652183 0.555477
O O14 0.500000 0.500000 0.570843
O O15 0.402384 0.500000 0.500000
O O16 0.884905 0.500000 0.582941
O O17 0.892691 0.658009 0.627909
O O18 0.000000 0.621453 0.563654
O O19 0.725860 0.881009 0.793160
O O20 0.782853 0.000000 0.848784
O O21 0.000000 0.360658 0.750925
#
# Coordination Sequence:
#
# PCOD9566913 Si02
#       8
#    16  16  16  16   8  16  16  16
#     4  10  21  36  53  74 106 146 185 226 266 315
#     4  10  21  38  56  78 108 140 182 232 280 324
#     4  10  19  33  55  80 108 144 183 224 273 325
#     4  11  21  36  58  81 107 143 180 223 279 334
#     4   9  18  32  51  79 109 135 174 222 267 321
#     4  10  21  36  55  82 114 147 181 218 266 325
#     4  10  19  33  52  78 115 148 181 223 264 319
#     4   9  18  32  52  77 106 142 181 224 272 317
#
# _framework density 17.777778000000001
#
# number of rings (size 3 to 8) (size 9 to 14) (size 15 to 20)
#    0.000    2.067    2.000    2.400    0.000    2.533 
#    1.200    4.667    0.000    2.800    0.000    0.933 
#    0.000    2.133    0.000    0.000    0.000    0.000 
#
# Total GULP energy -668276.703677 kJ/mol
# GULP energy per Si atom -5568.972531 kJ/mol
# Density = 1.773731 g / cm^3
# Si number density = 17.777778 Si / 1000 Ang^3
#
#
#
# Elastic Constant Matrix: (Units=GPa)
#
#
# Indices 1 2 3 4 5 6 
#
# 1 63.1393 21.7299 37.7153 0.0000 0.0000 0.0000
# 2 21.7299 63.1393 37.7146 0.0000 0.0000 0.0000
# 3 37.7153 37.7146 62.7346 0.0000 0.0000 0.0000
# 4 0.0000 0.0000 0.0000 15.7479 0.0000 0.0000
# 5 0.0000 0.0000 0.0000 0.0000 15.7479 0.0000
# 6 0.0000 0.0000 0.0000 0.0000 0.0000 13.4956
#
#
#
# Elastic Compliance Matrix: (Units=1/GPa)
#
#
# Indices 1 2 3 4 5 6 
#
# 1 0.024726 0.000577 -0.015212 0.000000 0.000000 0.000000
# 2 0.000577 0.024725 -0.015211 0.000000 0.000000 0.000000
# 3 -0.015212 -0.015211 0.034230 0.000000 0.000000 0.000000
# 4 0.000000 0.000000 0.000000 0.063501 0.000000 0.000000
# 5 0.000000 0.000000 0.000000 0.000000 0.063500 0.000000
# 6 0.000000 0.000000 0.000000 0.000000 0.000000 0.074098
#
#
# Mechanical properties :
#
#
# Convention : Reuss Voigt Hill
#
# Bulk Modulus (GPa) = 41.68557 42.59252 42.13904
# Shear Modulus (GPa) = 14.18566 15.12184 14.65375
#
# Velocity S-wave (km/s) = 2.82785 2.91968 2.87413
# Velocity P-wave (km/s) = 5.84477 5.94780 5.89651
#
# Compressibility (1/GPa) = 0.02398912
#
# Stress axis : x y z
#
# Youngs Moduli (GPa) = 40.44331 40.44412 29.21440
#
# Poissons Ratio (x) = -0.02332 0.44440
# Poissons Ratio (y) = -0.02332 0.44438
# Poissons Ratio (z) = 0.61521 0.61520
#
# Static dielectric constant tensor:
#      x y z
#    x 1.618700 0.000000 0.000000 
#    y 0.000000 1.618700 0.000000 
#    z 0.000000 0.000000 1.612890 
# 
# From -- ./inp_files/13965.got.cif
#   From: 2010.05.17/outbox.ucp.g08.bks.cvg/sg131_7_cif.got.tgz:13965.got - 2010.06.11 11:38:44.
