data_PCOD9566457
_publ_section_title
;
Structure prediction by ZEFSAII (Michael W. Deem and Ramdas Pophale) SiO2 
 PCOD9566457
Probable space group: P 42/M M C
;
_chemical_formula_sum "Si O2"
_cell_formula_units_Z 112
_cell_length_a 13.893119
_cell_length_b 13.893119
_cell_length_c 30.067483
_cell_angle_alpha 90.000000
_cell_angle_beta 90.000000
_cell_angle_gamma 90.000000
_cell_volume 5803.588151
_symmetry_space_group_name_H-M "P 42/M M C"
_symmetry_group_IT_number 131
_symmetry_cell_setting 'tetragonal'
loop_
_space_group_symop_operation_xyz
x,y,z
-x,-y,z
-y,x,1/2+z
y,-x,1/2+z
-x,y,-z
x,-y,-z
y,x,1/2-z
-y,-x,1/2-z
-x,-y,-z
x,y,-z
y,-x,1/2-z
-y,x,1/2-z
x,-y,z
-x,y,z
-y,-x,1/2+z
y,x,1/2+z
loop_
_atom_site_type_symbol
_atom_site_label
_atom_site_fract_x
_atom_site_fract_y
_atom_site_fract_z
Si Si1 0.389645 0.204803 0.314825
Si Si2 0.704042 0.700970 0.450780
Si Si3 0.892614 0.294806 0.672205
Si Si4 0.208631 0.891931 0.074502
Si Si5 0.883084 0.000000 0.449049
Si Si6 0.390234 0.305757 0.144665
Si Si7 0.212589 0.212589 0.750000
Si Si8 0.616060 0.890633 0.408062
O O1 0.500000 0.184803 0.302757
O O2 0.376797 0.313140 0.333238
O O3 0.314847 0.198624 0.274768
O O4 0.360483 0.137316 0.356696
O O5 0.673479 0.668758 0.500000
O O6 0.817701 0.723764 0.450463
O O7 0.689701 0.631732 0.408358
O O8 0.655400 0.803642 0.438178
O O9 0.894935 0.240163 0.625371
O O10 0.800935 0.365572 0.664777
O O11 0.865436 0.219322 0.710931
O O12 0.000000 0.336509 0.679818
O O13 0.099742 0.854274 0.072606
O O14 0.212542 0.000000 0.056054
O O15 0.851140 0.000000 0.500000
O O16 0.000000 0.000000 0.448319
O O17 0.500000 0.329408 0.153690
O O18 0.500000 0.888231 0.411056
O O19 0.646873 0.000000 0.418885
#
# Coordination Sequence:
#
# PCOD9566457 Si02
#       8
#    16  16  16  16   8  16   8  16
#     4   9  19  36  56  77 103 132 165 212 268 318
#     4  10  20  32  50  78 106 136 173 214 261 310
#     4   9  19  36  53  72 103 141 176 212 260 308
#     4   9  18  33  49  68 100 139 172 211 257 300
#     4   9  16  26  44  70  95 125 167 213 254 292
#     4   9  19  36  55  75 102 137 175 214 259 315
#     4  10  20  34  52  82 110 134 168 220 262 314
#     4   9  19  36  55  75 102 137 174 211 255 312
#
# _framework density 19.298407000000001
#
# number of rings (size 3 to 8) (size 9 to 14) (size 15 to 20)
#    0.000    2.786    0.000    1.286    1.000    5.143 
#    1.286    0.714    0.000    0.000    0.000    8.000 
#    0.000    0.000    0.000    0.000    0.000    0.000 
#
# Total GULP energy -623968.550463 kJ/mol
# GULP energy per Si atom -5571.147772 kJ/mol
# Density = 1.925448 g / cm^3
# Si number density = 19.298407 Si / 1000 Ang^3
#
#
#
# Elastic Constant Matrix: (Units=GPa)
#
#
# Indices 1 2 3 4 5 6 
#
# 1 27.8311 2.9454 -3.8392 0.0000 0.0000 0.0000
# 2 2.9454 27.8311 -3.8392 0.0000 0.0000 0.0000
# 3 -3.8392 -3.8392 65.9649 0.0000 0.0000 0.0000
# 4 0.0000 0.0000 0.0000 -8.0091 0.0000 0.0000
# 5 0.0000 0.0000 0.0000 0.0000 -8.0091 0.0000
# 6 0.0000 0.0000 0.0000 0.0000 0.0000 13.2821
#
#
#
# Elastic Compliance Matrix: (Units=1/GPa)
#
#
# Indices 1 2 3 4 5 6 
#
# 1 0.036577 -0.003606 0.001919 0.000000 0.000000 0.000000
# 2 -0.003606 0.036577 0.001919 0.000000 0.000000 0.000000
# 3 0.001919 0.001919 0.015383 0.000000 0.000000 0.000000
# 4 0.000000 0.000000 0.000000 -0.124859 0.000000 0.000000
# 5 0.000000 0.000000 0.000000 0.000000 -0.124859 0.000000
# 6 0.000000 0.000000 0.000000 0.000000 0.000000 0.075289
#
#
# Mechanical properties :
#
#
# Convention : Reuss Voigt Hill
#
# Bulk Modulus (GPa) = 11.23584 12.46233 11.84908
# Shear Modulus (GPa) = -88.20434 7.87681 -40.16377
#
# Velocity S-wave (km/s) = -6.76792 2.02249 -4.56696
# Velocity P-wave (km/s) = 7.43224 3.45335 4.65363
#
# Compressibility (1/GPa) = 0.08900094
#
# Stress axis : x y z
#
# Youngs Moduli (GPa) = 27.33924 27.33924 65.00705
#
# Poissons Ratio (x) = 0.09860 -0.12475
# Poissons Ratio (y) = 0.09860 -0.12475
# Poissons Ratio (z) = -0.05246 -0.05246
#
# Static dielectric constant tensor:
#      x y z
#    x 1.685560 0.000000 0.000000 
#    y 0.000000 1.685560 0.000000 
#    z 0.000000 0.000000 1.648890 
# 
# From -- ./inp_files/12531.got.cif
#   From: 2010.05.17/outbox.cif.g08.bks.cpg/sg131_7_cif.got.tgz:12531.got - 2010.05.20 12:21:01.
