data_PCOD9566685
_publ_section_title
;
Structure prediction by ZEFSAII (Michael W. Deem and Ramdas Pophale) SiO2 
 PCOD9566685
Probable space group: P 42/M M C
;
_chemical_formula_sum "Si O2"
_cell_formula_units_Z 96
_cell_length_a 24.398610
_cell_length_b 24.398610
_cell_length_c 7.380597
_cell_angle_alpha 90.000000
_cell_angle_beta 90.000000
_cell_angle_gamma 90.000000
_cell_volume 4393.611604
_symmetry_space_group_name_H-M "P 42/M M C"
_symmetry_group_IT_number 131
_symmetry_cell_setting 'tetragonal'
loop_
_space_group_symop_operation_xyz
x,y,z
-x,-y,z
-y,x,1/2+z
y,-x,1/2+z
-x,y,-z
x,-y,-z
y,x,1/2-z
-y,-x,1/2-z
-x,-y,-z
x,y,-z
y,-x,1/2-z
-y,x,1/2-z
x,-y,z
-x,y,z
-y,-x,1/2+z
y,x,1/2+z
loop_
_atom_site_type_symbol
_atom_site_label
_atom_site_fract_x
_atom_site_fract_y
_atom_site_fract_z
Si Si1 0.413153 0.222758 0.221391
Si Si2 0.637170 0.000000 0.221396
Si Si3 0.099482 0.439855 0.719875
Si Si4 0.116289 0.206229 0.716564
Si Si5 0.346854 0.560536 0.716633
Si Si6 0.708491 0.201196 0.215285
Si Si7 0.235565 0.000000 0.221527
O O1 0.437171 0.163462 0.277357
O O2 0.432242 0.283415 0.281367
O O3 0.350660 0.216225 0.282957
O O4 0.417750 0.223853 0.000000
O O5 0.605939 0.055782 0.279636
O O6 0.700649 0.000000 0.274890
O O7 0.635971 0.000000 0.000000
O O8 0.101140 0.435665 0.500000
O O9 0.077861 0.500000 0.767380
O O10 0.153510 0.153510 0.750000
O O11 0.114382 0.212298 0.500000
O O12 0.148283 0.259819 0.787493
O O13 0.054906 0.206006 0.784200
O O14 0.389207 0.610794 0.750000
O O15 0.343062 0.558593 0.500000
O O16 0.366524 0.500000 0.779245
O O17 0.748973 0.251028 0.250000
O O18 0.701859 0.193353 0.000000
O O19 0.235084 0.000000 0.000000
#
# Coordination Sequence:
#
# PCOD9566685 Si02
#       7
#    16   8  16  16  16  16   8
#     4   9  16  27  43  63  88 119 154 188 224 271
#     4   9  15  22  35  59  90 124 160 190 217 258
#     4   9  15  22  34  55  87 124 157 188 220 255
#     4   9  17  29  45  66  91 119 150 183 220 262
#     4  10  21  36  53  72  93 119 153 193 240 294
#     4   9  16  26  42  64  89 116 145 178 218 263
#     4   9  16  27  43  61  84 115 149 182 217 260
#
# _framework density 21.849905
#
# number of rings (size 3 to 8) (size 9 to 14) (size 15 to 20)
#    0.000    2.833    0.000    2.250    0.000    7.500 
#    0.000    1.250    0.000    0.250    0.000    1.750 
#    0.000    0.000    0.000    1.500    0.000   39.417 
#
# Total GULP energy -535336.929320 kJ/mol
# GULP energy per Si atom -5576.426347 kJ/mol
# Density = 2.180017 g / cm^3
# Si number density = 21.849905 Si / 1000 Ang^3
#
#
#
# Elastic Constant Matrix: (Units=GPa)
#
#
# Indices 1 2 3 4 5 6 
#
# 1 151.3765 64.6335 2.1869 0.0000 0.0000 0.0000
# 2 64.6335 151.3776 2.1850 0.0000 0.0000 0.0000
# 3 2.1869 2.1850 75.2867 0.0000 0.0000 0.0000
# 4 0.0000 0.0000 0.0000 -63.7476 0.0000 0.0000
# 5 0.0000 0.0000 0.0000 0.0000 -63.8168 0.0000
# 6 0.0000 0.0000 0.0000 0.0000 0.0000 -7.8347
#
#
#
# Elastic Compliance Matrix: (Units=1/GPa)
#
#
# Indices 1 2 3 4 5 6 
#
# 1 0.008080 -0.003448 -0.000135 0.000000 0.000000 0.000000
# 2 -0.003448 0.008080 -0.000134 0.000000 0.000000 0.000000
# 3 -0.000135 -0.000134 0.013290 0.000000 0.000000 0.000000
# 4 0.000000 0.000000 0.000000 -0.015687 0.000000 0.000000
# 5 0.000000 0.000000 0.000000 0.000000 -0.015670 0.000000
# 6 0.000000 0.000000 0.000000 0.000000 0.000000 -0.127637
#
#
# Mechanical properties :
#
#
# Convention : Reuss Voigt Hill
#
# Bulk Modulus (GPa) = 45.42017 57.33904 51.37960
# Shear Modulus (GPa) = -43.56551 -6.47746 -25.02148
#
# Velocity S-wave (km/s) = -4.47010 -1.72365 -3.38768
# Velocity P-wave (km/s) = 2.41038 4.72630 2.87472
#
# Compressibility (1/GPa) = 0.02201665
#
# Stress axis : x y z
#
# Youngs Moduli (GPa) = 123.75913 123.76014 75.24250
#
# Poissons Ratio (x) = 0.42673 0.01013
# Poissons Ratio (y) = 0.42673 0.01011
# Poissons Ratio (z) = 0.01666 0.01663
#
# Static dielectric constant tensor:
#      x y z
#    x 1.872260 0.000000 0.000000 
#    y 0.000000 1.872330 0.000000 
#    z 0.000000 0.000000 1.887790 
# 
# From -- ./inp_files/4351.got.cif
#   From: 2010.05.17/outbox.cif.g08.bks.cpg/sg131_3_cif.got.tgz:4351.got - 2010.05.20 12:21:01.
