data_PCOD9566918
_publ_section_title
;
Structure prediction by ZEFSAII (Michael W. Deem and Ramdas Pophale) SiO2 
 PCOD9566918
Probable space group: P 42/M M C
;
_chemical_formula_sum "Si O2"
_cell_formula_units_Z 58
_cell_length_a 18.000000
_cell_length_b 18.000000
_cell_length_c 9.000000
_cell_angle_alpha 90.000000
_cell_angle_beta 90.000000
_cell_angle_gamma 90.000000
_cell_volume 2916.000000
_symmetry_space_group_name_H-M "P 42/M M C"
_symmetry_group_IT_number 131
_symmetry_cell_setting 'tetragonal'
loop_
_space_group_symop_operation_xyz
x,y,z
-x,-y,z
-y,x,1/2+z
y,-x,1/2+z
-x,y,-z
x,-y,-z
y,x,1/2-z
-y,-x,1/2-z
-x,-y,-z
x,y,-z
y,-x,1/2-z
-y,x,1/2-z
x,-y,z
-x,y,z
-y,-x,1/2+z
y,x,1/2+z
loop_
_atom_site_type_symbol
_atom_site_label
_atom_site_fract_x
_atom_site_fract_y
_atom_site_fract_z
Si Si1 0.500000 0.329739 0.327967
Si Si2 0.194764 0.083742 0.172164
Si Si3 0.500000 0.500000 0.750000
Si Si4 0.639208 0.246798 0.180842
Si Si5 0.085073 0.354767 0.178479
O O1 0.500000 0.304021 0.500000
O O2 0.500000 0.419536 0.329506
O O3 0.572067 0.298083 0.242062
O O4 0.138799 0.138799 0.250000
O O5 0.269631 0.082433 0.267777
O O6 0.164387 0.000000 0.170855
O O7 0.210853 0.104591 0.000000
O O8 0.714851 0.285150 0.250000
O O9 0.621348 0.162539 0.240534
O O10 0.643296 0.247375 0.000000
O O11 0.000000 0.384738 0.214615
O O12 0.093770 0.361945 0.000000
#
# Coordination Sequence:
#
# PCOD9566918 Si02
#       5
#     8  16   2  16  16
#     4  12  26  45  71 104 141 177 221 267 322 388
#     4  10  20  33  50  74 106 146 194 250 314 382
#     4  12  26  44  80 106 146 184 214 268 318 380
#     4  12  25  42  66  97 135 175 221 271 325 390
#     4  10  21  39  63  89 120 161 211 267 326 384
#
# _framework density 19.890260999999999
#
# number of rings (size 3 to 8) (size 9 to 14) (size 15 to 20)
#    0.000    1.103    1.379    5.586    0.000    4.690 
#    0.000    2.069    0.000    4.138    0.000    0.000 
#    0.000    0.000    0.000    0.000    0.000    0.000 
#
# Total GULP energy -323604.162135 kJ/mol
# GULP energy per Si atom -5579.382106 kJ/mol
# Density = 1.984499 g / cm^3
# Si number density = 19.890261 Si / 1000 Ang^3
#
#
#
# Elastic Constant Matrix: (Units=GPa)
#
#
# Indices 1 2 3 4 5 6 
#
# 1 106.0029 25.5151 33.7114 0.0000 0.0000 0.0000
# 2 25.5151 106.0051 33.7117 0.0000 0.0000 0.0000
# 3 33.7114 33.7117 156.4434 0.0000 0.0000 0.0000
# 4 0.0000 0.0000 0.0000 29.0531 0.0000 0.0000
# 5 0.0000 0.0000 0.0000 0.0000 29.0531 0.0000
# 6 0.0000 0.0000 0.0000 0.0000 0.0000 39.7465
#
#
#
# Elastic Compliance Matrix: (Units=1/GPa)
#
#
# Indices 1 2 3 4 5 6 
#
# 1 0.010486 -0.001938 -0.001842 0.000000 0.000000 0.000000
# 2 -0.001938 0.010486 -0.001842 0.000000 0.000000 0.000000
# 3 -0.001842 -0.001842 0.007186 0.000000 0.000000 0.000000
# 4 0.000000 0.000000 0.000000 0.034420 0.000000 0.000000
# 5 0.000000 0.000000 0.000000 0.000000 0.034420 0.000000
# 6 0.000000 0.000000 0.000000 0.000000 0.000000 0.025159
#
#
# Mechanical properties :
#
#
# Convention : Reuss Voigt Hill
#
# Bulk Modulus (GPa) = 59.12383 61.59196 60.35790
# Shear Modulus (GPa) = 35.96122 37.93806 36.94964
#
# Velocity S-wave (km/s) = 4.25665 4.37208 4.31475
# Velocity P-wave (km/s) = 7.34495 7.51797 7.43197
#
# Compressibility (1/GPa) = 0.01691365
#
# Stress axis : x y z
#
# Youngs Moduli (GPa) = 95.36513 95.36716 139.16118
#
# Poissons Ratio (x) = 0.18484 0.25633
# Poissons Ratio (y) = 0.18484 0.25632
# Poissons Ratio (z) = 0.17566 0.17566
#
# Static dielectric constant tensor:
#      x y z
#    x 1.734890 0.000000 0.000000 
#    y 0.000000 1.734880 0.000000 
#    z 0.000000 0.000000 1.677100 
# 
# From -- ./inp_files/1295.got.cif
#   From: 2010.05.17/outbox.ucp.g08.bks.cvg/sg131_1_cif.got.tgz:1295.got - 2010.06.11 11:38:44.
