data_PCOD9566043
_publ_section_title
;
Structure prediction by ZEFSAII (Michael W. Deem and Ramdas Pophale) SiO2 
 PCOD9566043
Probable space group: P 42/M M C
;
_chemical_formula_sum "Si O2"
_cell_formula_units_Z 96
_cell_length_a 13.717413
_cell_length_b 13.717413
_cell_length_c 33.648680
_cell_angle_alpha 90.000000
_cell_angle_beta 90.000000
_cell_angle_gamma 90.000000
_cell_volume 6331.585282
_symmetry_space_group_name_H-M "P 42/M M C"
_symmetry_group_IT_number 131
_symmetry_cell_setting 'tetragonal'
loop_
_space_group_symop_operation_xyz
x,y,z
-x,-y,z
-y,x,1/2+z
y,-x,1/2+z
-x,y,-z
x,-y,-z
y,x,1/2-z
-y,-x,1/2-z
-x,-y,-z
x,y,-z
y,-x,1/2-z
-y,x,1/2-z
x,-y,z
-x,y,z
-y,-x,1/2+z
y,x,1/2+z
loop_
_atom_site_type_symbol
_atom_site_label
_atom_site_fract_x
_atom_site_fract_y
_atom_site_fract_z
Si Si1 0.116160 0.391771 0.755494
Si Si2 0.805317 0.696441 0.164314
Si Si3 0.891031 0.382498 0.916636
Si Si4 0.382116 0.690844 0.456380
Si Si5 0.112761 0.195626 0.290009
Si Si6 0.617419 0.611172 0.628526
O O1 0.143153 0.500000 0.741961
O O2 0.167923 0.365501 0.796686
O O3 0.134829 0.306408 0.724098
O O4 0.000000 0.389408 0.763091
O O5 0.867262 0.662306 0.126375
O O6 0.827394 0.807708 0.176611
O O7 0.693441 0.674273 0.152852
O O8 0.886898 0.500000 0.912510
O O9 0.802584 0.354971 0.945826
O O10 0.000000 0.356339 0.929882
O O11 0.345503 0.661832 0.500000
O O12 0.500000 0.687163 0.457975
O O13 0.355650 0.627120 0.417971
O O14 0.133109 0.133109 0.250000
O O15 0.000000 0.186500 0.301618
O O16 0.636253 0.500000 0.640422
O O17 0.500000 0.629242 0.631944
#
# Coordination Sequence:
#
# PCOD9566043 Si02
#       6
#    16  16  16  16  16  16
#     4   9  16  27  44  62  77  95 124 162 201 240
#     4  10  17  27  42  58  79 105 133 163 196 238
#     4   9  16  25  39  60  83 105 130 161 197 236
#     4   8  14  24  37  55  81 112 141 163 186 224
#     4   9  19  32  44  60  80 104 134 169 209 249
#     4   9  17  27  39  58  84 113 141 165 191 225
#
# _framework density 15.16208
#
# number of rings (size 3 to 8) (size 9 to 14) (size 15 to 20)
#    0.000    3.000    0.000    3.000    0.000    3.500 
#    0.000    3.333    0.000    0.000    0.000    8.167 
#    0.000   10.667    0.000   12.000    0.000    1.333 
#
# Total GULP energy -534443.798775 kJ/mol
# GULP energy per Si atom -5567.122904 kJ/mol
# Density = 1.512757 g / cm^3
# Si number density = 15.162080 Si / 1000 Ang^3
#
#
#
# Elastic Constant Matrix: (Units=GPa)
#
#
# Indices 1 2 3 4 5 6 
#
# 1 32.5953 0.3586 -4.7978 0.0000 0.0000 0.0000
# 2 0.3586 32.5953 -4.7978 0.0000 0.0000 0.0000
# 3 -4.7978 -4.7978 25.2102 0.0000 0.0000 0.0000
# 4 0.0000 0.0000 0.0000 6.7378 0.0000 0.0000
# 5 0.0000 0.0000 0.0000 0.0000 6.7378 0.0000
# 6 0.0000 0.0000 0.0000 0.0000 0.0000 12.8501
#
#
#
# Elastic Compliance Matrix: (Units=1/GPa)
#
#
# Indices 1 2 3 4 5 6 
#
# 1 0.031573 0.000553 0.006114 0.000000 0.000000 0.000000
# 2 0.000553 0.031573 0.006114 0.000000 0.000000 0.000000
# 3 0.006114 0.006114 0.041994 0.000000 0.000000 0.000000
# 4 0.000000 0.000000 0.000000 0.148416 0.000000 0.000000
# 5 0.000000 0.000000 0.000000 0.000000 0.148416 0.000000
# 6 0.000000 0.000000 0.000000 0.000000 0.000000 0.077821
#
#
# Mechanical properties :
#
#
# Convention : Reuss Voigt Hill
#
# Bulk Modulus (GPa) = 7.65109 7.99187 7.82148
# Shear Modulus (GPa) = 10.04420 11.90765 10.97593
#
# Velocity S-wave (km/s) = 2.57661 2.80546 2.69347
# Velocity P-wave (km/s) = 3.72949 3.97197 3.85264
#
# Compressibility (1/GPa) = 0.13070033
#
# Stress axis : x y z
#
# Youngs Moduli (GPa) = 31.67250 31.67250 23.81321
#
# Poissons Ratio (x) = -0.01750 -0.14559
# Poissons Ratio (y) = -0.01750 -0.14559
# Poissons Ratio (z) = -0.19364 -0.19364
#
# Static dielectric constant tensor:
#      x y z
#    x 1.511890 0.000000 0.000000 
#    y 0.000000 1.511890 0.000000 
#    z 0.000000 0.000000 1.499910 
# 
# From -- ./inp_files/13735.got.cif
#   From: 2010.05.17/outbox.cif.g08.bks.cpg/sg131_7_cif.got.tgz:13735.got - 2010.05.20 12:21:01.
