data_PCOD9566417
_publ_section_title
;
Structure prediction by ZEFSAII (Michael W. Deem and Ramdas Pophale) SiO2 
 PCOD9566417
Probable space group: P 42/M M C
;
_chemical_formula_sum "Si O2"
_cell_formula_units_Z 96
_cell_length_a 25.487378
_cell_length_b 25.487378
_cell_length_c 9.458846
_cell_angle_alpha 90.000000
_cell_angle_beta 90.000000
_cell_angle_gamma 90.000000
_cell_volume 6144.527251
_symmetry_space_group_name_H-M "P 42/M M C"
_symmetry_group_IT_number 131
_symmetry_cell_setting 'tetragonal'
loop_
_space_group_symop_operation_xyz
x,y,z
-x,-y,z
-y,x,1/2+z
y,-x,1/2+z
-x,y,-z
x,-y,-z
y,x,1/2-z
-y,-x,1/2-z
-x,-y,-z
x,y,-z
y,-x,1/2-z
-y,x,1/2-z
x,-y,z
-x,y,z
-y,-x,1/2+z
y,x,1/2+z
loop_
_atom_site_type_symbol
_atom_site_label
_atom_site_fract_x
_atom_site_fract_y
_atom_site_fract_z
Si Si1 0.363382 0.439868 0.331436
Si Si2 0.635102 0.838830 0.667326
Si Si3 0.940899 0.761912 0.663195
Si Si4 0.760555 0.837301 0.331699
Si Si5 0.941245 0.365394 0.662601
Si Si6 0.439046 0.760240 0.831817
O O1 0.399199 0.399199 0.250000
O O2 0.370792 0.434822 0.500000
O O3 0.376180 0.500000 0.292012
O O4 0.301622 0.431635 0.303324
O O5 0.626590 0.838407 0.500000
O O6 0.697742 0.831536 0.692002
O O7 0.618875 0.894669 0.734424
O O8 0.601338 0.794525 0.743851
O O9 0.930646 0.777713 0.500000
O O10 0.893633 0.777101 0.766086
O O11 0.942112 0.698259 0.663933
O O12 0.000000 0.779406 0.702509
O O13 0.792543 0.792543 0.250000
O O14 0.769903 0.835385 0.500000
O O15 0.930791 0.381285 0.500000
O O16 0.000000 0.383074 0.701903
O O17 0.500000 0.773069 0.799602
O O18 0.431401 0.768520 0.000000
#
# Coordination Sequence:
#
# PCOD9566417 Si02
#       6
#    16  16  16  16  16  16
#     4   9  19  35  53  74  98 122 150 185 226 272
#     4  10  20  31  46  70  95 121 154 192 236 279
#     4   8  14  26  44  64  87 118 155 192 230 273
#     4  10  20  31  43  64  96 129 158 190 230 275
#     4   8  14  26  45  67  90 119 154 188 225 274
#     4   9  19  36  54  69  89 121 158 192 226 270
#
# _framework density 15.623659999999999
#
# number of rings (size 3 to 8) (size 9 to 14) (size 15 to 20)
#    0.000    3.000    0.000    3.000    0.000    4.833 
#    0.000    9.167    0.000    0.500    0.000    3.500 
#    0.000    0.333    0.000    3.500    0.000    1.833 
#
# Total GULP energy -534693.457704 kJ/mol
# GULP energy per Si atom -5569.723518 kJ/mol
# Density = 1.558810 g / cm^3
# Si number density = 15.623660 Si / 1000 Ang^3
#
#
#
# Elastic Constant Matrix: (Units=GPa)
#
#
# Indices 1 2 3 4 5 6 
#
# 1 80.4132 68.8942 72.8884 0.0000 0.0000 0.0000
# 2 68.8942 80.4132 72.8884 0.0000 0.0000 0.0000
# 3 72.8884 72.8884 91.5109 0.0000 0.0000 0.0000
# 4 0.0000 0.0000 0.0000 20.5511 0.0000 0.0000
# 5 0.0000 0.0000 0.0000 0.0000 20.5511 0.0000
# 6 0.0000 0.0000 0.0000 0.0000 0.0000 -7.2872
#
#
#
# Elastic Compliance Matrix: (Units=1/GPa)
#
#
# Indices 1 2 3 4 5 6 
#
# 1 0.058468 -0.028344 -0.023994 0.000000 0.000000 0.000000
# 2 -0.028344 0.058468 -0.023994 0.000000 0.000000 0.000000
# 3 -0.023994 -0.023994 0.049150 0.000000 0.000000 0.000000
# 4 0.000000 0.000000 0.000000 0.048659 0.000000 0.000000
# 5 0.000000 0.000000 0.000000 0.000000 0.048659 0.000000
# 6 0.000000 0.000000 0.000000 0.000000 0.000000 -0.137228
#
#
# Mechanical properties :
#
#
# Convention : Reuss Voigt Hill
#
# Bulk Modulus (GPa) = 74.50087 75.74217 75.12152
# Shear Modulus (GPa) = 17.64818 9.27409 13.46113
#
# Velocity S-wave (km/s) = 3.36457 2.43902 2.93846
# Velocity P-wave (km/s) = 7.92981 7.51772 7.72652
#
# Compressibility (1/GPa) = 0.01342266
#
# Stress axis : x y z
#
# Youngs Moduli (GPa) = 17.10326 17.10326 20.34596
#
# Poissons Ratio (x) = 0.48478 0.48818
# Poissons Ratio (y) = 0.48478 0.48818
# Poissons Ratio (z) = 0.41037 0.41037
#
# Static dielectric constant tensor:
#      x y z
#    x 1.512840 0.000000 0.000000 
#    y 0.000000 1.512840 0.000000 
#    z 0.000000 0.000000 1.514420 
# 
# From -- ./inp_files/2178.got.cif
#   From: 2010.05.17/outbox.cif.g08.bks.cpg/sg131_2_cif.got.tgz:2178.got - 2010.05.20 12:21:01.
