data_PCOD9566079
_publ_section_title
;
Structure prediction by ZEFSAII (Michael W. Deem and Ramdas Pophale) SiO2 
 PCOD9566079
Probable space group: P 42/M M C
;
_chemical_formula_sum "Si O2"
_cell_formula_units_Z 112
_cell_length_a 15.261747
_cell_length_b 15.261747
_cell_length_c 24.565497
_cell_angle_alpha 90.000000
_cell_angle_beta 90.000000
_cell_angle_gamma 90.000000
_cell_volume 5721.818198
_symmetry_space_group_name_H-M "P 42/M M C"
_symmetry_group_IT_number 131
_symmetry_cell_setting 'tetragonal'
loop_
_space_group_symop_operation_xyz
x,y,z
-x,-y,z
-y,x,1/2+z
y,-x,1/2+z
-x,y,-z
x,-y,-z
y,x,1/2-z
-y,-x,1/2-z
-x,-y,-z
x,y,-z
y,-x,1/2-z
-y,x,1/2-z
x,-y,z
-x,y,z
-y,-x,1/2+z
y,x,1/2+z
loop_
_atom_site_type_symbol
_atom_site_label
_atom_site_fract_x
_atom_site_fract_y
_atom_site_fract_z
Si Si1 0.736153 0.100434 0.366232
Si Si2 0.401879 0.602594 0.897313
Si Si3 0.098177 0.773723 0.626643
Si Si4 0.714181 0.598158 0.710994
Si Si5 0.106492 0.402635 0.563823
Si Si6 0.789286 0.397184 0.938320
Si Si7 0.139399 0.713445 0.257853
O O1 0.829062 0.150048 0.375661
O O2 0.663924 0.158676 0.396915
O O3 0.711039 0.098798 0.301886
O O4 0.739314 0.000000 0.385447
O O5 0.398523 0.500000 0.877927
O O6 0.500000 0.613636 0.921477
O O7 0.392760 0.672774 0.848776
O O8 0.315873 0.614853 0.933527
O O9 0.131714 0.685416 0.595969
O O10 0.089095 0.749412 0.690198
O O11 0.000000 0.796168 0.605855
O O12 0.657413 0.657413 0.750000
O O13 0.701542 0.500000 0.728597
O O14 0.814211 0.625562 0.720640
O O15 0.130442 0.394932 0.500000
O O16 0.137132 0.500000 0.583192
O O17 0.000000 0.404529 0.566716
O O18 0.806366 0.500000 0.927124
O O19 0.816513 0.377527 0.000000
O O20 0.217155 0.782846 0.250000
#
# Coordination Sequence:
#
# PCOD9566079 Si02
#       7
#    16  16  16  16  16  16  16
#     4  11  24  41  60  82 109 143 190 248 302 345
#     4   9  17  30  52  85 121 152 183 222 273 338
#     4  10  20  36  60  88 118 151 186 226 280 349
#     4  10  18  28  46  74 112 154 191 228 273 331
#     4   8  15  30  53  82 117 154 186 214 250 310
#     4  10  22  41  63  84 109 147 195 243 290 339
#     4   9  19  35  53  76 107 144 184 230 283 338
#
# _framework density 19.574197000000002
#
# number of rings (size 3 to 8) (size 9 to 14) (size 15 to 20)
#    0.000    2.429    0.000    3.857    0.000    4.714 
#    0.000    2.857    0.000    5.143    0.000    3.000 
#    0.000    0.000    0.000    0.000    0.000    0.000 
#
# Total GULP energy -623918.869774 kJ/mol
# GULP energy per Si atom -5570.704194 kJ/mol
# Density = 1.952964 g / cm^3
# Si number density = 19.574197 Si / 1000 Ang^3
#
#
#
# Elastic Constant Matrix: (Units=GPa)
#
#
# Indices 1 2 3 4 5 6 
#
# 1 98.4819 42.3440 37.6856 0.0000 0.0000 0.0000
# 2 42.3440 98.4826 37.6856 0.0000 0.0000 0.0000
# 3 37.6856 37.6856 57.5732 0.0000 0.0000 0.0000
# 4 0.0000 0.0000 0.0000 16.9688 0.0000 0.0000
# 5 0.0000 0.0000 0.0000 0.0000 16.9689 0.0000
# 6 0.0000 0.0000 0.0000 0.0000 0.0000 17.3367
#
#
#
# Elastic Compliance Matrix: (Units=1/GPa)
#
#
# Indices 1 2 3 4 5 6 
#
# 1 0.014372 -0.003442 -0.007155 0.000000 0.000000 0.000000
# 2 -0.003442 0.014372 -0.007154 0.000000 0.000000 0.000000
# 3 -0.007155 -0.007154 0.026735 0.000000 0.000000 0.000000
# 4 0.000000 0.000000 0.000000 0.058932 0.000000 0.000000
# 5 0.000000 0.000000 0.000000 0.000000 0.058931 0.000000
# 6 0.000000 0.000000 0.000000 0.000000 0.000000 0.057681
#
#
# Mechanical properties :
#
#
# Convention : Reuss Voigt Hill
#
# Bulk Modulus (GPa) = 50.05603 54.44091 52.24847
# Shear Modulus (GPa) = 18.30275 19.37638 18.83957
#
# Velocity S-wave (km/s) = 3.06117 3.14967 3.10573
# Velocity P-wave (km/s) = 6.17433 6.41094 6.29375
#
# Compressibility (1/GPa) = 0.01997761
#
# Stress axis : x y z
#
# Youngs Moduli (GPa) = 69.58124 69.58187 37.40362
#
# Poissons Ratio (x) = 0.23947 0.26761
# Poissons Ratio (y) = 0.23947 0.26760
# Poissons Ratio (z) = 0.49782 0.49782
#
# Static dielectric constant tensor:
#      x y z
#    x 1.586540 0.000000 0.000000 
#    y 0.000000 1.586560 0.000000 
#    z 0.000000 0.000000 1.677670 
# 
# From -- ./inp_files/11245.got.cif
#   From: 2010.05.17/outbox.cif.g08.bks.cpg/sg131_6_cif.got.tgz:11245.got - 2010.05.20 12:21:01.
