data_PCOD9566393
_publ_section_title
;
Structure prediction by ZEFSAII (Michael W. Deem and Ramdas Pophale) SiO2 
 PCOD9566393
Probable space group: P 42/M M C
;
_chemical_formula_sum "Si O2"
_cell_formula_units_Z 112
_cell_length_a 15.069647
_cell_length_b 15.069647
_cell_length_c 25.063312
_cell_angle_alpha 90.000000
_cell_angle_beta 90.000000
_cell_angle_gamma 90.000000
_cell_volume 5691.734309
_symmetry_space_group_name_H-M "P 42/M M C"
_symmetry_group_IT_number 131
_symmetry_cell_setting 'tetragonal'
loop_
_space_group_symop_operation_xyz
x,y,z
-x,-y,z
-y,x,1/2+z
y,-x,1/2+z
-x,y,-z
x,-y,-z
y,x,1/2-z
-y,-x,1/2-z
-x,-y,-z
x,y,-z
y,-x,1/2-z
-y,x,1/2-z
x,-y,z
-x,y,z
-y,-x,1/2+z
y,x,1/2+z
loop_
_atom_site_type_symbol
_atom_site_label
_atom_site_fract_x
_atom_site_fract_y
_atom_site_fract_z
Si Si1 0.899811 0.674085 0.734780
Si Si2 0.820405 0.901331 0.853854
Si Si3 0.340829 0.901605 0.937243
Si Si4 0.100386 0.712098 0.860099
Si Si5 0.705863 0.598429 0.587558
Si Si6 0.598412 0.716642 0.212788
Si Si7 0.773455 0.604959 0.939680
O O1 0.889823 0.765272 0.701278
O O2 0.889032 0.687924 0.797802
O O3 0.822268 0.610403 0.715674
O O4 0.000000 0.642198 0.724058
O O5 0.746162 0.899055 0.900265
O O6 0.882295 0.817424 0.862988
O O7 0.861301 0.000000 0.853480
O O8 0.392638 0.811417 0.923742
O O9 0.382626 0.000000 0.927908
O O10 0.318807 0.897478 0.000000
O O11 0.167712 0.657842 0.896904
O O12 0.000000 0.691127 0.876079
O O13 0.677495 0.500000 0.571223
O O14 0.691658 0.608777 0.651100
O O15 0.650896 0.677121 0.561346
O O16 0.670964 0.670964 0.250000
O O17 0.500000 0.691084 0.231068
O O18 0.768226 0.500000 0.927183
O O19 0.809624 0.614122 0.000000
#
# Coordination Sequence:
#
# PCOD9566393 Si02
#       7
#    16  16  16  16  16  16  16
#     4  10  20  36  60  88 120 160 202 247 297 353
#     4  10  19  35  60  89 124 163 198 238 292 357
#     4  10  20  35  58  88 123 161 196 233 286 355
#     4  11  23  38  61  91 120 157 206 252 300 354
#     4  11  23  39  63  93 122 155 199 249 301 365
#     4  11  23  38  58  85 121 162 201 244 297 360
#     4  11  25  45  66  86 114 154 201 257 315 364
#
# _framework density 19.677658000000001
#
# number of rings (size 3 to 8) (size 9 to 14) (size 15 to 20)
#    0.000    1.429    2.857    2.571    0.000    5.286 
#    0.000    6.429    0.000    2.571    0.000    3.000 
#    0.000    0.000    0.000    0.000    0.000    0.000 
#
# Total GULP energy -625396.636349 kJ/mol
# GULP energy per Si atom -5583.898539 kJ/mol
# Density = 1.963287 g / cm^3
# Si number density = 19.677658 Si / 1000 Ang^3
#
#
#
# Elastic Constant Matrix: (Units=GPa)
#
#
# Indices 1 2 3 4 5 6 
#
# 1 81.0863 31.5828 34.8125 0.0000 0.0000 0.0000
# 2 31.5828 81.0863 34.8125 0.0000 0.0000 0.0000
# 3 34.8125 34.8125 88.6676 0.0000 0.0000 0.0000
# 4 0.0000 0.0000 0.0000 6.0050 0.0000 0.0000
# 5 0.0000 0.0000 0.0000 0.0000 6.0050 0.0000
# 6 0.0000 0.0000 0.0000 0.0000 0.0000 -4.9808
#
#
#
# Elastic Compliance Matrix: (Units=1/GPa)
#
#
# Indices 1 2 3 4 5 6 
#
# 1 0.015960 -0.004241 -0.004601 0.000000 0.000000 0.000000
# 2 -0.004241 0.015960 -0.004601 0.000000 0.000000 0.000000
# 3 -0.004601 -0.004601 0.014891 0.000000 0.000000 0.000000
# 4 0.000000 0.000000 0.000000 0.166528 0.000000 0.000000
# 5 0.000000 0.000000 0.000000 0.000000 0.166528 0.000000
# 6 0.000000 0.000000 0.000000 0.000000 0.000000 -0.200771
#
#
# Mechanical properties :
#
#
# Convention : Reuss Voigt Hill
#
# Bulk Modulus (GPa) = 50.18945 50.36173 50.27559
# Shear Modulus (GPa) = 23.51579 11.38133 17.44856
#
# Velocity S-wave (km/s) = 3.46070 2.40758 2.98101
# Velocity P-wave (km/s) = 6.44436 5.77733 6.11994
#
# Compressibility (1/GPa) = 0.01992451
#
# Stress axis : x y z
#
# Youngs Moduli (GPa) = 62.65784 62.65784 67.15492
#
# Poissons Ratio (x) = 0.26573 0.30898
# Poissons Ratio (y) = 0.26573 0.30898
# Poissons Ratio (z) = 0.28829 0.28829
#
# Static dielectric constant tensor:
#      x y z
#    x 1.688730 0.000000 0.000000 
#    y 0.000000 1.688730 0.000000 
#    z 0.000000 0.000000 1.679740 
# 
# From -- ./inp_files/11270.got.cif
#   From: 2010.05.17/outbox.cif.g08.bks.cpg/sg131_6_cif.got.tgz:11270.got - 2010.05.20 12:21:01.
