data_PCOD9566209
_publ_section_title
;
Structure prediction by ZEFSAII (Michael W. Deem and Ramdas Pophale) SiO2 
 PCOD9566209
Probable space group: P 42/M M C
;
_chemical_formula_sum "Si O2"
_cell_formula_units_Z 112
_cell_length_a 14.412536
_cell_length_b 14.412536
_cell_length_c 26.920628
_cell_angle_alpha 90.000000
_cell_angle_beta 90.000000
_cell_angle_gamma 90.000000
_cell_volume 5591.984990
_symmetry_space_group_name_H-M "P 42/M M C"
_symmetry_group_IT_number 131
_symmetry_cell_setting 'tetragonal'
loop_
_space_group_symop_operation_xyz
x,y,z
-x,-y,z
-y,x,1/2+z
y,-x,1/2+z
-x,y,-z
x,-y,-z
y,x,1/2-z
-y,-x,1/2-z
-x,-y,-z
x,y,-z
y,-x,1/2-z
-y,x,1/2-z
x,-y,z
-x,y,z
-y,-x,1/2+z
y,x,1/2+z
loop_
_atom_site_type_symbol
_atom_site_label
_atom_site_fract_x
_atom_site_fract_y
_atom_site_fract_z
Si Si1 0.104905 0.848622 0.914436
Si Si2 0.107150 0.361388 0.053565
Si Si3 0.107470 0.111802 0.696487
Si Si4 0.891627 0.611124 0.654578
Si Si5 0.105187 0.301466 0.446387
Si Si6 0.235602 0.387423 0.749381
Si Si7 0.105060 0.392384 0.837523
O O1 0.103998 0.749235 0.940694
O O2 0.128345 0.841288 0.855539
O O3 0.190827 0.899615 0.939066
O O4 0.000000 0.887688 0.918049
O O5 0.145331 0.391434 0.106712
O O6 0.000000 0.394251 0.053326
O O7 0.148571 0.386660 0.000000
O O8 0.144908 0.144908 0.750000
O O9 0.000000 0.142382 0.689158
O O10 0.105261 0.000000 0.702176
O O11 0.891919 0.500000 0.649383
O O12 0.853969 0.655840 0.603692
O O13 0.826992 0.634456 0.701058
O O14 0.000000 0.639608 0.662723
O O15 0.149506 0.321762 0.500000
O O16 0.000000 0.338296 0.447716
O O17 0.331042 0.331042 0.750000
O O18 0.249143 0.500000 0.750940
O O19 0.174605 0.355298 0.796691
O O20 0.093494 0.500000 0.823837
O O21 0.000000 0.350271 0.837568
#
# Coordination Sequence:
#
# PCOD9566209 Si02
#       7
#    16  16  16  16  16  16  16
#     4  10  19  31  45  65 101 145 182 217 265 326
#     4   9  18  31  46  68 100 137 175 215 262 312
#     4   8  14  26  42  57  79 118 169 220 258 291
#     4   9  19  38  61  82 108 143 183 233 287 330
#     4  10  21  34  49  74 103 136 186 237 277 321
#     4  10  21  37  60  88 116 145 179 220 274 340
#     4   9  18  34  56  81 108 139 178 221 262 313
#
# _framework density 20.028666999999999
#
# number of rings (size 3 to 8) (size 9 to 14) (size 15 to 20)
#    0.000    2.714    0.000    1.714    2.000    4.143 
#    2.571    3.571    0.000    0.000    0.000    0.000 
#    0.000    2.571    0.000    6.286    0.000    0.286 
#
# Total GULP energy -624351.336068 kJ/mol
# GULP energy per Si atom -5574.565501 kJ/mol
# Density = 1.998308 g / cm^3
# Si number density = 20.028667 Si / 1000 Ang^3
#
#
#
# Elastic Constant Matrix: (Units=GPa)
#
#
# Indices 1 2 3 4 5 6 
#
# 1 60.7313 20.5335 45.1416 0.0000 0.0000 0.0000
# 2 20.5335 60.7313 45.1416 0.0000 0.0000 0.0000
# 3 45.1416 45.1416 193.3058 0.0000 0.0000 0.0000
# 4 0.0000 0.0000 0.0000 3.8279 0.0000 0.0000
# 5 0.0000 0.0000 0.0000 0.0000 3.8279 0.0000
# 6 0.0000 0.0000 0.0000 0.0000 0.0000 15.2540
#
#
#
# Elastic Compliance Matrix: (Units=1/GPa)
#
#
# Indices 1 2 3 4 5 6 
#
# 1 0.020747 -0.004130 -0.003880 0.000000 0.000000 0.000000
# 2 -0.004130 0.020747 -0.003880 0.000000 0.000000 0.000000
# 3 -0.003880 -0.003880 0.006985 0.000000 0.000000 0.000000
# 4 0.000000 0.000000 0.000000 0.261242 0.000000 0.000000
# 5 0.000000 0.000000 0.000000 0.000000 0.261242 0.000000
# 6 0.000000 0.000000 0.000000 0.000000 0.000000 0.065556
#
#
# Mechanical properties :
#
#
# Convention : Reuss Voigt Hill
#
# Bulk Modulus (GPa) = 40.49088 59.60022 50.04555
# Shear Modulus (GPa) = 7.47906 18.17874 12.82890
#
# Velocity S-wave (km/s) = 1.93450 3.01597 2.53361
# Velocity P-wave (km/s) = 5.02494 6.47689 5.79656
#
# Compressibility (1/GPa) = 0.02469692
#
# Stress axis : x y z
#
# Youngs Moduli (GPa) = 48.20047 48.20047 143.15459
#
# Poissons Ratio (x) = 0.19908 0.55549
# Poissons Ratio (y) = 0.19908 0.55549
# Poissons Ratio (z) = 0.18703 0.18703
#
# Static dielectric constant tensor:
#      x y z
#    x 1.724760 0.000000 0.000000 
#    y 0.000000 1.724760 0.000000 
#    z 0.000000 0.000000 1.769670 
# 
# From -- ./inp_files/11268.got.cif
#   From: 2010.05.17/outbox.cif.g08.bks.cpg/sg131_6_cif.got.tgz:11268.got - 2010.05.20 12:21:01.
