data_PCOD9566944
_publ_section_title
;
Structure prediction by ZEFSAII (Michael W. Deem and Ramdas Pophale) SiO2 
 PCOD9566944
Probable space group: P 42/M C M
;
_chemical_formula_sum "Si O2"
_cell_formula_units_Z 46
_cell_length_a 14.102853
_cell_length_b 14.102853
_cell_length_c 10.081401
_cell_angle_alpha 90.000000
_cell_angle_beta 90.000000
_cell_angle_gamma 90.000000
_cell_volume 2005.094510
_symmetry_space_group_name_H-M "P 42/M C M"
_symmetry_group_IT_number 132
_symmetry_cell_setting 'tetragonal'
loop_
_space_group_symop_operation_xyz
x,y,z
-y,x,1/2+z
-x,-y,z
y,-x,1/2+z
x,-y,1/2-z
-x,y,1/2-z
y,x,-z
-y,-x,-z
-x,-y,-z
y,-x,1/2-z
x,y,-z
-y,x,1/2-z
-x,y,1/2+z
x,-y,1/2+z
-y,-x,z
y,x,z
loop_
_atom_site_type_symbol
_atom_site_label
_atom_site_fract_x
_atom_site_fract_y
_atom_site_fract_z
Si Si1 0.139240 0.296016 0.000000
Si Si2 0.400880 0.400880 0.000000
Si Si3 0.213875 0.941732 0.000000
Si Si4 0.330771 0.829875 0.217012
Si Si5 0.500000 0.500000 0.250000
Si Si6 0.274034 0.559440 0.000000
O O1 0.131526 0.351967 0.862231
O O2 0.054175 0.218772 0.000000
O O3 0.236788 0.236788 0.000000
O O4 0.439643 0.439643 0.143834
O O5 0.299917 0.449310 0.000000
O O6 0.272983 0.904178 0.126895
O O7 0.113284 0.886717 0.000000
O O8 0.257754 0.742247 0.231446
O O9 0.413538 0.786079 0.128421
O O10 0.370902 0.629099 0.000000
#
# Coordination Sequence:
#
# PCOD9566944 Si02
#       6
#     8   4   8  16   2   8
#     4  10  17  26  38  62  98 135 191 260 295 340
#     4  11  20  36  58  80 116 150 176 202 248 336
#     4   9  16  27  40  59  91 144 196 240 304 357
#     4   8  16  27  43  63  88 128 189 231 292 333
#     4  10  20  34  52  90 116 138 176 194 252 322
#     4   9  15  31  52  67  91 139 185 204 260 338
#
# _framework density 22.941562000000001
#
# number of rings (size 3 to 8) (size 9 to 14) (size 15 to 20)
#    0.000    2.957    1.739    3.130    0.000    0.348 
#    0.000    3.478    0.000    6.261    0.000    0.000 
#    0.000    0.000    0.000   75.130   33.391    0.000 
#
# Total GULP energy -256650.685284 kJ/mol
# GULP energy per Si atom -5579.362724 kJ/mol
# Density = 2.288935 g / cm^3
# Si number density = 22.941562 Si / 1000 Ang^3
#
#
#
# Elastic Constant Matrix: (Units=GPa)
#
#
# Indices 1 2 3 4 5 6 
#
# 1 43.3627 10.2269 33.5273 0.0000 0.0000 0.0000
# 2 10.2269 43.3623 33.5273 0.0000 0.0000 0.0000
# 3 33.5273 33.5273 223.9639 0.0000 0.0000 0.0000
# 4 0.0000 0.0000 0.0000 6.4886 0.0000 0.0000
# 5 0.0000 0.0000 0.0000 0.0000 6.4891 0.0000
# 6 0.0000 0.0000 0.0000 0.0000 0.0000 30.0694
#
#
#
# Elastic Compliance Matrix: (Units=1/GPa)
#
#
# Indices 1 2 3 4 5 6 
#
# 1 0.026570 -0.003609 -0.003437 0.000000 0.000000 0.000000
# 2 -0.003609 0.026570 -0.003437 0.000000 0.000000 0.000000
# 3 -0.003437 -0.003437 0.005494 0.000000 0.000000 0.000000
# 4 0.000000 0.000000 0.000000 0.154117 0.000000 0.000000
# 5 0.000000 0.000000 0.000000 0.000000 0.154105 0.000000
# 6 0.000000 0.000000 0.000000 0.000000 0.000000 0.033256
#
#
# Mechanical properties :
#
#
# Convention : Reuss Voigt Hill
#
# Bulk Modulus (GPa) = 26.54797 51.69467 39.12132
# Shear Modulus (GPa) = 11.53040 24.16990 17.85015
#
# Velocity S-wave (km/s) = 2.24430 3.24935 2.79242
# Velocity P-wave (km/s) = 4.27937 6.05474 5.24275
#
# Compressibility (1/GPa) = 0.03766766
#
# Stress axis : x y z
#
# Youngs Moduli (GPa) = 37.63635 37.63595 182.01236
#
# Poissons Ratio (x) = 0.13582 0.62563
# Poissons Ratio (y) = 0.13582 0.62564
# Poissons Ratio (z) = 0.12937 0.12937
#
# Static dielectric constant tensor:
#      x y z
#    x 1.860860 0.000000 0.000000 
#    y 0.000000 1.860860 0.000000 
#    z 0.000000 0.000000 1.900780 
# 
# From -- ./inp_files/818.got.cif
#   From: 2010.05.17/outbox.cif.g08.bks.cpg/sg132_1_cif.got.tgz:818.got - 2010.05.20 12:30:18.
