data_PCOD9566605
_publ_section_title
;
Structure prediction by ZEFSAII (Michael W. Deem and Ramdas Pophale) SiO2 
 PCOD9566605
Probable space group: P 42/M M C
;
_chemical_formula_sum "Si O2"
_cell_formula_units_Z 88
_cell_length_a 13.431764
_cell_length_b 13.431764
_cell_length_c 28.433180
_cell_angle_alpha 90.000000
_cell_angle_beta 90.000000
_cell_angle_gamma 90.000000
_cell_volume 5129.694949
_symmetry_space_group_name_H-M "P 42/M M C"
_symmetry_group_IT_number 131
_symmetry_cell_setting 'tetragonal'
loop_
_space_group_symop_operation_xyz
x,y,z
-x,-y,z
-y,x,1/2+z
y,-x,1/2+z
-x,y,-z
x,-y,-z
y,x,1/2-z
-y,-x,1/2-z
-x,-y,-z
x,y,-z
y,-x,1/2-z
-y,x,1/2-z
x,-y,z
-x,y,z
-y,-x,1/2+z
y,x,1/2+z
loop_
_atom_site_type_symbol
_atom_site_label
_atom_site_fract_x
_atom_site_fract_y
_atom_site_fract_z
Si Si1 0.262799 0.617118 0.711060
Si Si2 0.878893 0.000000 0.053411
Si Si3 0.195015 0.882654 0.611001
Si Si4 0.614841 0.386976 0.615680
Si Si5 0.806423 0.615607 0.944063
Si Si6 0.211297 0.882439 0.204850
O O1 0.335321 0.664680 0.750000
O O2 0.250219 0.500000 0.718835
O O3 0.313295 0.631296 0.659830
O O4 0.160335 0.678421 0.713945
O O5 0.848132 0.101425 0.079196
O O6 0.000000 0.000000 0.052908
O O7 0.843661 0.000000 0.000000
O O8 0.299419 0.863704 0.584888
O O9 0.180101 0.829840 0.660761
O O10 0.183822 0.000000 0.618619
O O11 0.630753 0.500000 0.599041
O O12 0.500000 0.379597 0.632491
O O13 0.626321 0.306619 0.574655
O O14 0.836930 0.500000 0.934650
O O15 0.814855 0.631822 0.000000
O O16 0.144779 0.855222 0.250000
O O17 0.208661 0.000000 0.195414
#
# Coordination Sequence:
#
# PCOD9566605 Si02
#       6
#    16   8  16  16  16  16
#     4  10  20  35  58  86 114 144 180 224 275 331
#     4   9  18  32  54  80 103 135 185 241 286 323
#     4  11  21  36  56  80 110 145 191 239 284 337
#     4   9  17  31  53  80 109 141 179 223 270 324
#     4  10  21  36  54  79 113 150 188 233 288 347
#     4  11  23  39  59  84 113 148 187 230 282 341
#
# _framework density 17.155017000000001
#
# number of rings (size 3 to 8) (size 9 to 14) (size 15 to 20)
#    0.000    1.909    2.727    1.636    0.000    4.000 
#    0.000    2.727    0.000    2.182    0.000    0.000 
#    0.000    5.818    0.000    0.000    0.000    0.000 
#
# Total GULP energy -490684.244199 kJ/mol
# GULP energy per Si atom -5575.957320 kJ/mol
# Density = 1.711597 g / cm^3
# Si number density = 17.155017 Si / 1000 Ang^3
#
#
#
# Elastic Constant Matrix: (Units=GPa)
#
#
# Indices 1 2 3 4 5 6 
#
# 1 71.5119 47.2780 31.8377 0.0000 0.0000 0.0000
# 2 47.2780 71.5133 31.8427 0.0000 0.0000 0.0000
# 3 31.8377 31.8427 92.4729 0.0000 0.0000 0.0000
# 4 0.0000 0.0000 0.0000 22.3094 0.0000 0.0000
# 5 0.0000 0.0000 0.0000 0.0000 22.3095 0.0000
# 6 0.0000 0.0000 0.0000 0.0000 0.0000 17.8158
#
#
#
# Elastic Compliance Matrix: (Units=1/GPa)
#
#
# Indices 1 2 3 4 5 6 
#
# 1 0.025793 -0.015470 -0.003553 0.000000 0.000000 0.000000
# 2 -0.015470 0.025794 -0.003556 0.000000 0.000000 0.000000
# 3 -0.003553 -0.003556 0.013262 0.000000 0.000000 0.000000
# 4 0.000000 0.000000 0.000000 0.044824 0.000000 0.000000
# 5 0.000000 0.000000 0.000000 0.000000 0.044824 0.000000
# 6 0.000000 0.000000 0.000000 0.000000 0.000000 0.056130
#
#
# Mechanical properties :
#
#
# Convention : Reuss Voigt Hill
#
# Bulk Modulus (GPa) = 50.78545 50.82388 50.80467
# Shear Modulus (GPa) = 19.05860 20.78959 19.92410
#
# Velocity S-wave (km/s) = 3.33673 3.48496 3.41165
# Velocity P-wave (km/s) = 6.67182 6.77376 6.72298
#
# Compressibility (1/GPa) = 0.01969068
#
# Stress axis : x y z
#
# Youngs Moduli (GPa) = 38.77006 38.76874 75.40428
#
# Poissons Ratio (x) = 0.59974 0.26794
# Poissons Ratio (y) = 0.59977 0.26813
# Poissons Ratio (z) = 0.13777 0.13786
#
# Static dielectric constant tensor:
#      x y z
#    x 1.576140 0.000000 0.000000 
#    y 0.000000 1.576140 0.000000 
#    z 0.000000 0.000000 1.570360 
# 
# From -- ./inp_files/13557.got.cif
#   From: 2010.05.17/outbox.cif.g08.bks.cpg/sg131_7_cif.got.tgz:13557.got - 2010.05.20 12:21:01.
