data_PCOD9566405
_publ_section_title
;
Structure prediction by ZEFSAII (Michael W. Deem and Ramdas Pophale) SiO2 
 PCOD9566405
Probable space group: P 42/M M C
;
_chemical_formula_sum "Si O2"
_cell_formula_units_Z 60
_cell_length_a 11.429915
_cell_length_b 11.429915
_cell_length_c 21.599846
_cell_angle_alpha 90.000000
_cell_angle_beta 90.000000
_cell_angle_gamma 90.000000
_cell_volume 2821.867750
_symmetry_space_group_name_H-M "P 42/M M C"
_symmetry_group_IT_number 131
_symmetry_cell_setting 'tetragonal'
loop_
_space_group_symop_operation_xyz
x,y,z
-x,-y,z
-y,x,1/2+z
y,-x,1/2+z
-x,y,-z
x,-y,-z
y,x,1/2-z
-y,-x,1/2-z
-x,-y,-z
x,y,-z
y,-x,1/2-z
-y,x,1/2-z
x,-y,z
-x,y,z
-y,-x,1/2+z
y,x,1/2+z
loop_
_atom_site_type_symbol
_atom_site_label
_atom_site_fract_x
_atom_site_fract_y
_atom_site_fract_z
Si Si1 0.361238 0.784750 0.703129
Si Si2 0.500000 0.804351 0.935144
Si Si3 0.000000 0.500000 0.335717
Si Si4 0.744072 0.238983 0.569396
Si Si5 0.000000 0.861711 0.608981
Si Si6 0.256463 0.000000 0.764458
O O1 0.320372 0.679629 0.750000
O O2 0.500000 0.806245 0.713114
O O3 0.335784 0.782340 0.629521
O O4 0.273063 0.887577 0.722882
O O5 0.500000 0.886746 0.877302
O O6 0.379330 0.737133 0.934190
O O7 0.500000 0.872321 0.000000
O O8 0.000000 0.379078 0.301047
O O9 0.714043 0.192996 0.500000
O O10 0.879430 0.198387 0.583774
O O11 0.000000 0.842000 0.683364
O O12 0.000000 0.000000 0.594358
#
# Coordination Sequence:
#
# PCOD9566405 Si02
#       6
#    16   8   4  16   8   8
#     4  12  26  44  70 100 134 176 228 279 339 404
#     4  10  19  36  65  98 123 168 226 265 327 391
#     4  12  15  34  68  88 123 160 212 284 314 352
#     4  11  25  44  68  97 137 179 223 279 331 398
#     4  12  25  43  68 102 140 175 216 274 350 410
#     4  12  24  44  69  98 132 173 231 278 323 395
#
# _framework density 21.262513999999999
#
# number of rings (size 3 to 8) (size 9 to 14) (size 15 to 20)
#    0.000    0.533    6.667    0.600    3.733    4.000 
#    2.400    0.000    0.000    4.000    0.000    0.000 
#    0.000    0.000    0.000    0.000    0.000    0.000 
#
# Total GULP energy -334260.170856 kJ/mol
# GULP energy per Si atom -5571.002848 kJ/mol
# Density = 2.121412 g / cm^3
# Si number density = 21.262514 Si / 1000 Ang^3
#
#
#
# Elastic Constant Matrix: (Units=GPa)
#
#
# Indices 1 2 3 4 5 6 
#
# 1 85.2137 7.7154 19.3129 0.0000 0.0000 0.0000
# 2 7.7154 85.2146 19.3129 0.0000 0.0000 0.0000
# 3 19.3129 19.3129 148.7220 0.0000 0.0000 0.0000
# 4 0.0000 0.0000 0.0000 42.9389 0.0000 0.0000
# 5 0.0000 0.0000 0.0000 0.0000 42.9388 0.0000
# 6 0.0000 0.0000 0.0000 0.0000 0.0000 11.3260
#
#
#
# Elastic Compliance Matrix: (Units=1/GPa)
#
#
# Indices 1 2 3 4 5 6 
#
# 1 0.012139 -0.000764 -0.001477 0.000000 0.000000 0.000000
# 2 -0.000764 0.012139 -0.001477 0.000000 0.000000 0.000000
# 3 -0.001477 -0.001477 0.007108 0.000000 0.000000 0.000000
# 4 0.000000 0.000000 0.000000 0.023289 0.000000 0.000000
# 5 0.000000 0.000000 0.000000 0.000000 0.023289 0.000000
# 6 0.000000 0.000000 0.000000 0.000000 0.000000 0.088292
#
#
# Mechanical properties :
#
#
# Convention : Reuss Voigt Hill
#
# Bulk Modulus (GPa) = 41.75591 45.75919 43.75755
# Shear Modulus (GPa) = 27.52156 37.62803 32.57479
#
# Velocity S-wave (km/s) = 3.60164 4.21133 3.91836
# Velocity P-wave (km/s) = 6.08084 6.72420 6.41060
#
# Compressibility (1/GPa) = 0.02394870
#
# Stress axis : x y z
#
# Youngs Moduli (GPa) = 82.37788 82.37882 140.69472
#
# Poissons Ratio (x) = 0.06296 0.20782
# Poissons Ratio (y) = 0.06296 0.20782
# Poissons Ratio (z) = 0.12168 0.12168
#
# Static dielectric constant tensor:
#      x y z
#    x 1.756900 0.000000 0.000000 
#    y 0.000000 1.756900 0.000000 
#    z 0.000000 0.000000 1.889670 
# 
# From -- ./inp_files/9216.got.cif
#   From: 2010.05.17/outbox.cif.g08.bks.cpg/sg131_5_cif.got.tgz:9216.got - 2010.05.20 12:21:01.
