data_PCOD9566273
_publ_section_title
;
Structure prediction by ZEFSAII (Michael W. Deem and Ramdas Pophale) SiO2 
 PCOD9566273
Probable space group: P 42/M M C
;
_chemical_formula_sum "Si O2"
_cell_formula_units_Z 104
_cell_length_a 27.038995
_cell_length_b 27.038995
_cell_length_c 8.069735
_cell_angle_alpha 90.000000
_cell_angle_beta 90.000000
_cell_angle_gamma 90.000000
_cell_volume 5899.841769
_symmetry_space_group_name_H-M "P 42/M M C"
_symmetry_group_IT_number 131
_symmetry_cell_setting 'tetragonal'
loop_
_space_group_symop_operation_xyz
x,y,z
-x,-y,z
-y,x,1/2+z
y,-x,1/2+z
-x,y,-z
x,-y,-z
y,x,1/2-z
-y,-x,1/2-z
-x,-y,-z
x,y,-z
y,-x,1/2-z
-y,x,1/2-z
x,-y,z
-x,y,z
-y,-x,1/2+z
y,x,1/2+z
loop_
_atom_site_type_symbol
_atom_site_label
_atom_site_fract_x
_atom_site_fract_y
_atom_site_fract_z
Si Si1 0.151330 0.683176 0.806794
Si Si2 0.415107 0.108990 0.191088
Si Si3 0.445621 0.218158 0.301470
Si Si4 0.261236 0.658398 0.800989
Si Si5 0.945130 0.130490 0.699439
Si Si6 0.000000 0.559124 0.307315
Si Si7 0.865811 0.789186 0.698587
O O1 0.120959 0.642862 0.705491
O O2 0.209082 0.684347 0.753736
O O3 0.129163 0.736642 0.781806
O O4 0.150501 0.668085 0.000000
O O5 0.438034 0.159346 0.267365
O O6 0.425277 0.054024 0.263429
O O7 0.431770 0.107495 0.000000
O O8 0.445969 0.223765 0.500000
O O9 0.500000 0.232587 0.236777
O O10 0.398356 0.250549 0.240807
O O11 0.308616 0.691385 0.750000
O O12 0.263413 0.656397 0.000000
O O13 0.921092 0.078909 0.750000
O O14 0.945972 0.132836 0.500000
O O15 0.908344 0.173421 0.756939
O O16 0.000000 0.136727 0.764096
O O17 0.000000 0.500000 0.306337
O O18 0.000000 0.576931 0.500000
O O19 0.814494 0.814494 0.750000
O O20 0.867596 0.784338 0.500000
#
# Coordination Sequence:
#
# PCOD9566273 Si02
#       7
#    16  16  16  16  16   8  16
#     4  10  20  34  49  68  97 128 161 198 240 290
#     4  10  19  32  50  71  94 123 162 206 248 291
#     4   9  18  33  50  69  98 133 165 199 243 293
#     4   9  18  30  46  69  96 127 158 194 236 281
#     4   9  19  35  52  71  94 118 146 183 226 279
#     4   9  18  32  49  69  93 121 157 203 250 293
#     4  10  19  32  51  72  94 122 155 189 229 280
#
# _framework density 17.627590999999999
#
# number of rings (size 3 to 8) (size 9 to 14) (size 15 to 20)
#    0.000    2.538    0.000    3.231    0.000    6.308 
#    1.385    2.308    0.000    2.769    0.000    0.000 
#    0.000    0.308    0.000    3.846    0.000    0.000 
#
# Total GULP energy -579237.386747 kJ/mol
# GULP energy per Si atom -5569.590257 kJ/mol
# Density = 1.758747 g / cm^3
# Si number density = 17.627591 Si / 1000 Ang^3
#
#
#
# Elastic Constant Matrix: (Units=GPa)
#
#
# Indices 1 2 3 4 5 6 
#
# 1 112.2317 48.0740 4.0028 0.0000 0.0000 0.0000
# 2 48.0740 112.2383 4.0029 0.0000 0.0000 0.0000
# 3 4.0028 4.0029 17.7359 0.0000 0.0000 0.0000
# 4 0.0000 0.0000 0.0000 15.1244 0.0000 0.0000
# 5 0.0000 0.0000 0.0000 0.0000 15.1231 0.0000
# 6 0.0000 0.0000 0.0000 0.0000 0.0000 14.4139
#
#
#
# Elastic Compliance Matrix: (Units=1/GPa)
#
#
# Indices 1 2 3 4 5 6 
#
# 1 0.010948 -0.004638 -0.001424 0.000000 0.000000 0.000000
# 2 -0.004638 0.010947 -0.001424 0.000000 0.000000 0.000000
# 3 -0.001424 -0.001424 0.057026 0.000000 0.000000 0.000000
# 4 0.000000 0.000000 0.000000 0.066118 0.000000 0.000000
# 5 0.000000 0.000000 0.000000 0.000000 0.066124 0.000000
# 6 0.000000 0.000000 0.000000 0.000000 0.000000 0.069377
#
#
# Mechanical properties :
#
#
# Convention : Reuss Voigt Hill
#
# Bulk Modulus (GPa) = 15.63768 39.37391 27.50579
# Shear Modulus (GPa) = 15.78141 21.34070 18.56106
#
# Velocity S-wave (km/s) = 2.99535 3.48320 3.24845
# Velocity P-wave (km/s) = 4.56653 6.20983 5.45047
#
# Compressibility (1/GPa) = 0.06394810
#
# Stress axis : x y z
#
# Youngs Moduli (GPa) = 91.34301 91.34838 17.53599
#
# Poissons Ratio (x) = 0.42371 0.02497
# Poissons Ratio (y) = 0.42368 0.02497
# Poissons Ratio (z) = 0.13007 0.13007
#
# Static dielectric constant tensor:
#      x y z
#    x 1.613600 0.000000 0.000000 
#    y 0.000000 1.613600 0.000000 
#    z 0.000000 0.000000 1.648330 
# 
# From -- ./inp_files/2554.got.cif
#   From: 2010.05.17/outbox.cif.g08.bks.cpg/sg131_2_cif.got.tgz:2554.got - 2010.05.20 12:21:01.
