data_PCOD9566940
_publ_section_title
;
Structure prediction by ZEFSAII (Michael W. Deem and Ramdas Pophale) SiO2 
 PCOD9566940
Probable space group: P 42/M C M
;
_chemical_formula_sum "Si O2"
_cell_formula_units_Z 76
_cell_length_a 14.666043
_cell_length_b 14.666043
_cell_length_c 19.240255
_cell_angle_alpha 90.000000
_cell_angle_beta 90.000000
_cell_angle_gamma 90.000000
_cell_volume 4138.440653
_symmetry_space_group_name_H-M "P 42/M C M"
_symmetry_group_IT_number 132
_symmetry_cell_setting 'tetragonal'
loop_
_space_group_symop_operation_xyz
x,y,z
-y,x,1/2+z
-x,-y,z
y,-x,1/2+z
x,-y,1/2-z
-x,y,1/2-z
y,x,-z
-y,-x,-z
-x,-y,-z
y,-x,1/2-z
x,y,-z
-y,x,1/2-z
-x,y,1/2+z
x,-y,1/2+z
-y,-x,z
y,x,z
loop_
_atom_site_type_symbol
_atom_site_label
_atom_site_fract_x
_atom_site_fract_y
_atom_site_fract_z
Si Si1 0.500000 0.500000 0.098112
Si Si2 0.500000 0.000000 0.623855
Si Si3 0.496196 0.718545 0.419041
Si Si4 0.171214 0.418409 0.198911
Si Si5 0.897659 0.752002 0.280398
Si Si6 0.136429 0.349670 0.422045
O O1 0.500716 0.388005 0.094520
O O2 0.553191 0.071233 0.671950
O O3 0.427780 0.058548 0.580977
O O4 0.473876 0.734049 0.500000
O O5 0.423308 0.764139 0.367684
O O6 0.592796 0.771010 0.406931
O O7 0.202133 0.500000 0.250000
O O8 0.160194 0.324336 0.238608
O O9 0.848655 0.848655 0.272055
O O10 0.888591 0.719666 0.360710
O O11 0.000000 0.751421 0.250000
O O12 0.142004 0.311463 0.500000
#
# Coordination Sequence:
#
# PCOD9566940 Si02
#       6
#     4   8  16  16  16  16
#     4  12  25  44  57  78 141 200 213 238 289 356
#     4  10  16  34  64  90 130 154 192 258 332 356
#     4  10  22  36  57  86 126 178 221 249 291 358
#     4  11  19  37  62  89 124 160 207 263 314 358
#     4  12  25  43  66  90 124 165 203 263 330 389
#     4  10  21  36  64  98 122 157 212 263 306 365
#
# _framework density 18.364405000000001
#
# number of rings (size 3 to 8) (size 9 to 14) (size 15 to 20)
#    0.000    1.263    6.316    1.579    2.947    1.474 
#    0.000    0.526    0.000    1.895    0.000    1.474 
#    0.000    0.000    0.000    0.000    0.000    0.000 
#
# Total GULP energy -423172.169666 kJ/mol
# GULP energy per Si atom -5568.054864 kJ/mol
# Density = 1.832261 g / cm^3
# Si number density = 18.364405 Si / 1000 Ang^3
#
#
#
# Elastic Constant Matrix: (Units=GPa)
#
#
# Indices 1 2 3 4 5 6 
#
# 1 102.3435 33.9438 53.0401 0.0000 0.0000 0.0000
# 2 33.9438 102.3435 53.0401 0.0000 0.0000 0.0000
# 3 53.0401 53.0401 109.3293 0.0000 0.0000 0.0000
# 4 0.0000 0.0000 0.0000 2.5335 0.0000 0.0000
# 5 0.0000 0.0000 0.0000 0.0000 2.5335 0.0000
# 6 0.0000 0.0000 0.0000 0.0000 0.0000 21.4440
#
#
#
# Elastic Compliance Matrix: (Units=1/GPa)
#
#
# Indices 1 2 3 4 5 6 
#
# 1 0.013205 -0.001415 -0.005719 0.000000 0.000000 0.000000
# 2 -0.001415 0.013205 -0.005719 0.000000 0.000000 0.000000
# 3 -0.005719 -0.005719 0.014696 0.000000 0.000000 0.000000
# 4 0.000000 0.000000 0.000000 0.394712 0.000000 0.000000
# 5 0.000000 0.000000 0.000000 0.000000 0.394712 0.000000
# 6 0.000000 0.000000 0.000000 0.000000 0.000000 0.046633
#
#
# Mechanical properties :
#
#
# Convention : Reuss Voigt Hill
#
# Bulk Modulus (GPa) = 64.94841 66.00715 65.47778
# Shear Modulus (GPa) = 5.50659 16.90169 11.20414
#
# Velocity S-wave (km/s) = 1.73350 3.03702 2.47270
# Velocity P-wave (km/s) = 6.28092 6.95119 6.62454
#
# Compressibility (1/GPa) = 0.01539684
#
# Stress axis : x y z
#
# Youngs Moduli (GPa) = 75.73133 75.73133 68.04509
#
# Poissons Ratio (x) = 0.10719 0.38918
# Poissons Ratio (y) = 0.10719 0.38918
# Poissons Ratio (z) = 0.43314 0.43314
#
# Static dielectric constant tensor:
#      x y z
#    x 1.633140 0.000000 0.000000 
#    y 0.000000 1.633140 0.000000 
#    z 0.000000 0.000000 1.673180 
# 
# From -- ./inp_files/7683.got.cif
#   From: 2010.05.17/outbox.cif.g08.bks.cpg/sg132_4_cif.got.tgz:7683.got - 2010.05.20 12:30:18.
