data_PCOD9566764
_publ_section_title
;
Structure prediction by ZEFSAII (Michael W. Deem and Ramdas Pophale) SiO2 
 PCOD9566764
Probable space group: P 42/M M C
;
_chemical_formula_sum "Si O2"
_cell_formula_units_Z 80
_cell_length_a 12.128012
_cell_length_b 12.128012
_cell_length_c 30.200725
_cell_angle_alpha 90.000000
_cell_angle_beta 90.000000
_cell_angle_gamma 90.000000
_cell_volume 4442.184626
_symmetry_space_group_name_H-M "P 42/M M C"
_symmetry_group_IT_number 131
_symmetry_cell_setting 'tetragonal'
loop_
_space_group_symop_operation_xyz
x,y,z
-x,-y,z
-y,x,1/2+z
y,-x,1/2+z
-x,y,-z
x,-y,-z
y,x,1/2-z
-y,-x,1/2-z
-x,-y,-z
x,y,-z
y,-x,1/2-z
-y,x,1/2-z
x,-y,z
-x,y,z
-y,-x,1/2+z
y,x,1/2+z
loop_
_atom_site_type_symbol
_atom_site_label
_atom_site_fract_x
_atom_site_fract_y
_atom_site_fract_z
Si Si1 0.628265 0.806798 0.814608
Si Si2 0.630035 0.630035 0.750000
Si Si3 0.130903 0.368326 0.949754
Si Si4 0.000000 0.136466 0.181856
Si Si5 0.187358 0.198123 0.385706
Si Si6 0.000000 0.634212 0.757152
Si Si7 0.129242 0.000000 0.052002
O O1 0.500000 0.797033 0.824046
O O2 0.671315 0.693214 0.793243
O O3 0.691006 0.832240 0.859127
O O4 0.641960 0.895349 0.775459
O O5 0.649656 0.500000 0.754052
O O6 0.143184 0.500000 0.946309
O O7 0.185713 0.306281 0.908567
O O8 0.000000 0.342307 0.947335
O O9 0.167083 0.336360 0.000000
O O10 0.894782 0.156752 0.150557
O O11 0.000000 0.248205 0.214417
O O12 0.000000 0.000000 0.195320
O O13 0.105834 0.182743 0.426345
O O14 0.000000 0.500000 0.774178
O O15 0.000000 0.000000 0.063927
O O16 0.138520 0.000000 0.000000
#
# Coordination Sequence:
#
# PCOD9566764 Si02
#       7
#    16   8  16   8  16   8   8
#     4  10  22  39  57  78 106 148 194 235 278 336
#     4   9  18  36  58  78 101 134 184 236 279 328
#     4   9  18  33  54  82 116 151 189 236 292 357
#     4  12  24  37  53  91 127 146 182 248 309 348
#     4  12  20  36  55  82 115 146 183 235 287 350
#     4  10  23  43  59  75 110 162 200 224 280 356
#     4  11  21  36  57  80 111 149 182 218 274 346
#
# _framework density 18.009156000000001
#
# number of rings (size 3 to 8) (size 9 to 14) (size 15 to 20)
#    0.000    1.600    3.000    3.000    0.000    3.200 
#    1.800    0.000    0.000    3.000    0.000    1.400 
#    0.000    0.000    0.000    0.000    0.000    0.000 
#
# Total GULP energy -445433.047582 kJ/mol
# GULP energy per Si atom -5567.913095 kJ/mol
# Density = 1.796817 g / cm^3
# Si number density = 18.009156 Si / 1000 Ang^3
#
#
#
# Elastic Constant Matrix: (Units=GPa)
#
#
# Indices 1 2 3 4 5 6 
#
# 1 61.0664 24.9006 35.0597 0.0000 0.0000 0.0000
# 2 24.9006 61.0664 35.0597 0.0000 0.0000 0.0000
# 3 35.0597 35.0597 64.9713 0.0000 0.0000 0.0000
# 4 0.0000 0.0000 0.0000 25.0679 0.0000 0.0000
# 5 0.0000 0.0000 0.0000 0.0000 25.0679 0.0000
# 6 0.0000 0.0000 0.0000 0.0000 0.0000 -24.1692
#
#
#
# Elastic Compliance Matrix: (Units=1/GPa)
#
#
# Indices 1 2 3 4 5 6 
#
# 1 0.024214 -0.003437 -0.011212 0.000000 0.000000 0.000000
# 2 -0.003437 0.024214 -0.011212 0.000000 0.000000 0.000000
# 3 -0.011212 -0.011212 0.027492 0.000000 0.000000 0.000000
# 4 0.000000 0.000000 0.000000 0.039892 0.000000 0.000000
# 5 0.000000 0.000000 0.000000 0.000000 0.039892 0.000000
# 6 0.000000 0.000000 0.000000 0.000000 0.000000 -0.041375
#
#
# Mechanical properties :
#
#
# Convention : Reuss Voigt Hill
#
# Bulk Modulus (GPa) = 41.32403 41.90490 41.61447
# Shear Modulus (GPa) = 28.71673 11.33226 20.02449
#
# Velocity S-wave (km/s) = 3.99753 2.51121 3.33814
# Velocity P-wave (km/s) = 6.65604 5.63271 6.16564
#
# Compressibility (1/GPa) = 0.02419899
#
# Stress axis : x y z
#
# Youngs Moduli (GPa) = 41.29859 41.29859 36.37472
#
# Poissons Ratio (x) = 0.14193 0.40783
# Poissons Ratio (y) = 0.14193 0.40783
# Poissons Ratio (z) = 0.46303 0.46303
#
# Static dielectric constant tensor:
#      x y z
#    x 1.695180 0.000000 0.000000 
#    y 0.000000 1.695180 0.000000 
#    z 0.000000 0.000000 1.611360 
# 
# From -- ./inp_files/13485.got.cif
#   From: 2010.05.17/outbox.cif.g08.bks.cpg/sg131_7_cif.got.tgz:13485.got - 2010.05.20 12:21:01.
