data_PCOD9566232
_publ_section_title
;
Structure prediction by ZEFSAII (Michael W. Deem and Ramdas Pophale) SiO2 
 PCOD9566232
Probable space group: P 42/M M C
;
_chemical_formula_sum "Si O2"
_cell_formula_units_Z 96
_cell_length_a 15.426494
_cell_length_b 15.426494
_cell_length_c 24.318294
_cell_angle_alpha 90.000000
_cell_angle_beta 90.000000
_cell_angle_gamma 90.000000
_cell_volume 5787.187772
_symmetry_space_group_name_H-M "P 42/M M C"
_symmetry_group_IT_number 131
_symmetry_cell_setting 'tetragonal'
loop_
_space_group_symop_operation_xyz
x,y,z
-x,-y,z
-y,x,1/2+z
y,-x,1/2+z
-x,y,-z
x,-y,-z
y,x,1/2-z
-y,-x,1/2-z
-x,-y,-z
x,y,-z
y,-x,1/2-z
-y,x,1/2-z
x,-y,z
-x,y,z
-y,-x,1/2+z
y,x,1/2+z
loop_
_atom_site_type_symbol
_atom_site_label
_atom_site_fract_x
_atom_site_fract_y
_atom_site_fract_z
Si Si1 0.216746 0.843421 0.395460
Si Si2 0.598613 0.101809 0.566474
Si Si3 0.226940 0.902923 0.721892
Si Si4 0.593816 0.897070 0.768101
Si Si5 0.103496 0.899811 0.000000
Si Si6 0.596693 0.104235 0.000000
Si Si7 0.897479 0.680962 0.383249
O O1 0.317984 0.844658 0.412955
O O2 0.212204 0.905256 0.342974
O O3 0.155950 0.869375 0.446806
O O4 0.172129 0.755898 0.373590
O O5 0.599789 0.104921 0.500000
O O6 0.500000 0.126534 0.584087
O O7 0.611229 0.000000 0.582067
O O8 0.155136 0.844865 0.750000
O O9 0.322289 0.865197 0.735278
O O10 0.223521 0.000000 0.745384
O O11 0.500000 0.858985 0.754359
O O12 0.613447 0.889690 0.833204
O O13 0.589672 0.000000 0.755988
O O14 0.000000 0.905204 0.000000
O O15 0.137854 0.000000 0.000000
O O16 0.643970 0.125106 0.943291
O O17 0.500000 0.140761 0.000000
O O18 0.590669 0.000000 0.000000
O O19 0.000000 0.708526 0.383991
#
# Coordination Sequence:
#
# PCOD9566232 Si02
#       7
#    16  16  16  16   8   8  16
#     4  12  21  34  54  75 105 139 176 220 267 311
#     4   9  18  33  52  73  98 131 172 219 273 321
#     4  11  23  37  52  74 105 143 185 223 260 309
#     4   9  18  35  56  75 100 137 179 224 271 316
#     4  11  23  35  48  71 102 142 189 222 252 302
#     4   9  17  29  47  74 104 135 170 208 259 316
#     4  10  19  31  49  75 108 142 173 209 258 317
#
# _framework density 16.588367999999999
#
# number of rings (size 3 to 8) (size 9 to 14) (size 15 to 20)
#    0.000    1.833    2.500    3.500    0.000    4.167 
#    0.000    1.667    0.000    0.000    0.000    0.000 
#    0.000    5.000    0.000    0.000    0.000    0.000 
#
# Total GULP energy -534793.261028 kJ/mol
# GULP energy per Si atom -5570.763136 kJ/mol
# Density = 1.655061 g / cm^3
# Si number density = 16.588368 Si / 1000 Ang^3
#
#
#
# Elastic Constant Matrix: (Units=GPa)
#
#
# Indices 1 2 3 4 5 6 
#
# 1 92.5734 40.8601 14.1087 0.0000 0.0000 0.0000
# 2 40.8601 92.5715 14.1079 0.0000 0.0000 0.0000
# 3 14.1087 14.1079 71.0636 0.0000 0.0000 0.0000
# 4 0.0000 0.0000 0.0000 13.1317 0.0000 0.0000
# 5 0.0000 0.0000 0.0000 0.0000 13.1298 0.0000
# 6 0.0000 0.0000 0.0000 0.0000 0.0000 -0.3883
#
#
#
# Elastic Compliance Matrix: (Units=1/GPa)
#
#
# Indices 1 2 3 4 5 6 
#
# 1 0.013580 -0.005757 -0.001553 0.000000 0.000000 0.000000
# 2 -0.005757 0.013580 -0.001553 0.000000 0.000000 0.000000
# 3 -0.001553 -0.001553 0.014689 0.000000 0.000000 0.000000
# 4 0.000000 0.000000 0.000000 0.076152 0.000000 0.000000
# 5 0.000000 0.000000 0.000000 0.000000 0.076163 0.000000
# 6 0.000000 0.000000 0.000000 0.000000 0.000000 -2.575172
#
#
# Mechanical properties :
#
#
# Convention : Reuss Voigt Hill
#
# Bulk Modulus (GPa) = 41.45598 43.81798 42.63698
# Shear Modulus (GPa) = -2.12293 17.65007 7.76357
#
# Velocity S-wave (km/s) = -1.13250 3.26544 2.16571
# Velocity P-wave (km/s) = 4.83065 6.37885 5.65796
#
# Compressibility (1/GPa) = 0.02412197
#
# Stress axis : x y z
#
# Youngs Moduli (GPa) = 73.63674 73.63543 68.08018
#
# Poissons Ratio (x) = 0.42395 0.10574
# Poissons Ratio (y) = 0.42396 0.10573
# Poissons Ratio (z) = 0.11437 0.11435
#
# Static dielectric constant tensor:
#      x y z
#    x 1.574310 0.000000 0.000000 
#    y 0.000000 1.574310 0.000000 
#    z 0.000000 0.000000 1.619360 
# 
# From -- ./inp_files/11151.got.cif
#   From: 2010.05.17/outbox.cif.g08.bks.cpg/sg131_6_cif.got.tgz:11151.got - 2010.05.20 12:21:01.
