data_PCOD9566216
_publ_section_title
;
Structure prediction by ZEFSAII (Michael W. Deem and Ramdas Pophale) SiO2 
 PCOD9566216
Probable space group: P 42/M M C
;
_chemical_formula_sum "Si O2"
_cell_formula_units_Z 80
_cell_length_a 17.931644
_cell_length_b 17.931644
_cell_length_c 14.203221
_cell_angle_alpha 90.000000
_cell_angle_beta 90.000000
_cell_angle_gamma 90.000000
_cell_volume 4566.958456
_symmetry_space_group_name_H-M "P 42/M M C"
_symmetry_group_IT_number 131
_symmetry_cell_setting 'tetragonal'
loop_
_space_group_symop_operation_xyz
x,y,z
-x,-y,z
-y,x,1/2+z
y,-x,1/2+z
-x,y,-z
x,-y,-z
y,x,1/2-z
-y,-x,1/2-z
-x,-y,-z
x,y,-z
y,-x,1/2-z
-y,x,1/2-z
x,-y,z
-x,y,z
-y,-x,1/2+z
y,x,1/2+z
loop_
_atom_site_type_symbol
_atom_site_label
_atom_site_fract_x
_atom_site_fract_y
_atom_site_fract_z
Si Si1 0.263644 0.411863 0.892308
Si Si2 0.207633 0.669235 0.725859
Si Si3 0.415134 0.668478 0.886604
Si Si4 0.089505 0.755538 0.612276
Si Si5 0.088882 0.920757 0.613324
O O1 0.257141 0.500000 0.888101
O O2 0.204052 0.373553 0.824570
O O3 0.348201 0.388941 0.862315
O O4 0.254505 0.386562 0.000000
O O5 0.259571 0.740430 0.750000
O O6 0.254750 0.614118 0.658207
O O7 0.133927 0.696526 0.674258
O O8 0.500000 0.650671 0.855858
O O9 0.416575 0.673321 0.000000
O O10 0.105485 0.747032 0.500000
O O11 0.115062 0.839169 0.642666
O O12 0.000000 0.750914 0.622645
O O13 0.097235 0.921622 0.500000
O O14 0.000000 0.922188 0.631161
O O15 0.120137 0.000000 0.650012
#
# Coordination Sequence:
#
# PCOD9566216 Si02
#       5
#    16  16  16  16  16
#     4   9  18  32  50  72  97 128 166 202 237 283
#     4  10  19  31  47  69  98 132 164 198 238 291
#     4   9  17  29  48  75 103 128 153 186 236 296
#     4   9  17  30  50  74  98 127 164 207 255 301
#     4   7  10  19  38  65  95 123 149 180 225 284
#
# _framework density 17.517129000000001
#
# number of rings (size 3 to 8) (size 9 to 14) (size 15 to 20)
#    0.000    3.200    0.000    3.000    0.000    1.200 
#    0.000    3.000    0.000    6.600    0.000    8.400 
#    0.000    0.000    0.000    5.000    0.000    0.400 
#
# Total GULP energy -445376.608286 kJ/mol
# GULP energy per Si atom -5567.207604 kJ/mol
# Density = 1.747726 g / cm^3
# Si number density = 17.517129 Si / 1000 Ang^3
#
#
#
# Elastic Constant Matrix: (Units=GPa)
#
#
# Indices 1 2 3 4 5 6 
#
# 1 58.4541 41.0181 43.2303 0.0000 0.0000 0.0000
# 2 41.0181 58.4534 43.2301 0.0000 0.0000 0.0000
# 3 43.2303 43.2301 78.3769 0.0000 0.0000 0.0000
# 4 0.0000 0.0000 0.0000 17.9022 0.0000 0.0000
# 5 0.0000 0.0000 0.0000 0.0000 17.9020 0.0000
# 6 0.0000 0.0000 0.0000 0.0000 0.0000 16.9019
#
#
#
# Elastic Compliance Matrix: (Units=1/GPa)
#
#
# Indices 1 2 3 4 5 6 
#
# 1 0.038332 -0.019021 -0.010652 0.000000 0.000000 0.000000
# 2 -0.019021 0.038333 -0.010652 0.000000 0.000000 0.000000
# 3 -0.010652 -0.010652 0.024509 0.000000 0.000000 0.000000
# 4 0.000000 0.000000 0.000000 0.055859 0.000000 0.000000
# 5 0.000000 0.000000 0.000000 0.000000 0.055860 0.000000
# 6 0.000000 0.000000 0.000000 0.000000 0.000000 0.059165
#
#
# Mechanical properties :
#
#
# Convention : Reuss Voigt Hill
#
# Bulk Modulus (GPa) = 48.71979 50.02682 49.37330
# Shear Modulus (GPa) = 13.90635 15.06162 14.48399
#
# Velocity S-wave (km/s) = 2.82063 2.93545 2.87861
# Velocity P-wave (km/s) = 6.20330 6.33324 6.26861
#
# Compressibility (1/GPa) = 0.02052554
#
# Stress axis : x y z
#
# Youngs Moduli (GPa) = 26.08765 26.08737 40.80138
#
# Poissons Ratio (x) = 0.49621 0.43460
# Poissons Ratio (y) = 0.49622 0.43460
# Poissons Ratio (z) = 0.27787 0.27787
#
# Static dielectric constant tensor:
#      x y z
#    x 1.596400 0.000000 0.000000 
#    y 0.000000 1.596400 0.000000 
#    z 0.000000 0.000000 1.655760 
# 
# From -- ./inp_files/5683.got.cif
#   From: 2010.05.17/outbox.cif.g08.bks.cpg/sg131_3_cif.got.tgz:5683.got - 2010.05.20 12:21:01.
