data_PCOD9566500
_publ_section_title
;
Structure prediction by ZEFSAII (Michael W. Deem and Ramdas Pophale) SiO2 
 PCOD9566500
Probable space group: P 42/M M C
;
_chemical_formula_sum "Si O2"
_cell_formula_units_Z 96
_cell_length_a 24.377060
_cell_length_b 24.377060
_cell_length_c 8.567039
_cell_angle_alpha 90.000000
_cell_angle_beta 90.000000
_cell_angle_gamma 90.000000
_cell_volume 5090.886287
_symmetry_space_group_name_H-M "P 42/M M C"
_symmetry_group_IT_number 131
_symmetry_cell_setting 'tetragonal'
loop_
_space_group_symop_operation_xyz
x,y,z
-x,-y,z
-y,x,1/2+z
y,-x,1/2+z
-x,y,-z
x,-y,-z
y,x,1/2-z
-y,-x,1/2-z
-x,-y,-z
x,y,-z
y,-x,1/2-z
-y,x,1/2-z
x,-y,z
-x,y,z
-y,-x,1/2+z
y,x,1/2+z
loop_
_atom_site_type_symbol
_atom_site_label
_atom_site_fract_x
_atom_site_fract_y
_atom_site_fract_z
Si Si1 0.799092 0.439355 0.813024
Si Si2 0.561165 0.080163 0.182262
Si Si3 0.751372 0.137392 0.177163
Si Si4 0.761709 0.681903 0.185512
Si Si5 0.148818 0.935564 0.687325
Si Si6 0.672947 0.060968 0.327683
O O1 0.772897 0.500000 0.787615
O O2 0.854914 0.438814 0.714843
O O3 0.770143 0.382017 0.772227
O O4 0.811704 0.436580 0.000000
O O5 0.500000 0.060780 0.220038
O O6 0.608983 0.058471 0.291341
O O7 0.571861 0.068547 0.000000
O O8 0.723120 0.190987 0.251318
O O9 0.801692 0.104979 0.257961
O O10 0.701626 0.094598 0.192967
O O11 0.767259 0.149522 0.000000
O O12 0.705161 0.705161 0.250000
O O13 0.763013 0.685634 0.000000
O O14 0.093262 0.906739 0.750000
O O15 0.148437 0.935308 0.500000
O O16 0.154931 0.000000 0.737521
O O17 0.682237 0.086239 0.500000
O O18 0.696231 0.000000 0.330790
#
# Coordination Sequence:
#
# PCOD9566500 Si02
#       6
#    16  16  16  16  16  16
#     4   9  18  34  56  79 107 148 192 232 277 331
#     4  10  20  33  51  75 103 137 181 233 283 329
#     4  12  24  39  60  85 115 148 185 230 282 336
#     4  11  22  36  57  85 119 153 190 233 278 333
#     4  11  25  45  68  92 118 147 181 224 277 341
#     4  11  23  37  53  74 103 142 188 234 281 336
#
# _framework density 18.857227999999999
#
# number of rings (size 3 to 8) (size 9 to 14) (size 15 to 20)
#    0.000    1.333    1.667    4.500    0.000    6.833 
#    0.000    2.500    0.000    0.000    0.000    0.000 
#    0.000    0.333    0.000    4.167    0.000    0.000 
#
# Total GULP energy -535639.046517 kJ/mol
# GULP energy per Si atom -5579.573401 kJ/mol
# Density = 1.881431 g / cm^3
# Si number density = 18.857228 Si / 1000 Ang^3
#
#
#
# Elastic Constant Matrix: (Units=GPa)
#
#
# Indices 1 2 3 4 5 6 
#
# 1 100.5514 67.2238 26.8285 0.0000 0.0000 0.0000
# 2 67.2238 100.5479 26.8285 0.0000 0.0000 0.0000
# 3 26.8285 26.8285 53.7407 0.0000 0.0000 0.0000
# 4 0.0000 0.0000 0.0000 24.6554 0.0000 0.0000
# 5 0.0000 0.0000 0.0000 0.0000 24.6555 0.0000
# 6 0.0000 0.0000 0.0000 0.0000 0.0000 -112.5203
#
#
#
# Elastic Compliance Matrix: (Units=1/GPa)
#
#
# Indices 1 2 3 4 5 6 
#
# 1 0.018549 -0.011457 -0.003541 0.000000 0.000000 0.000000
# 2 -0.011457 0.018550 -0.003541 0.000000 0.000000 0.000000
# 3 -0.003541 -0.003541 0.022143 0.000000 0.000000 0.000000
# 4 0.000000 0.000000 0.000000 0.040559 0.000000 0.000000
# 5 0.000000 0.000000 0.000000 0.000000 0.040559 0.000000
# 6 0.000000 0.000000 0.000000 0.000000 0.000000 -0.008887
#
#
# Mechanical properties :
#
#
# Convention : Reuss Voigt Hill
#
# Bulk Modulus (GPa) = 45.11544 55.17796 50.14670
# Shear Modulus (GPa) = 28.41886 -3.71126 12.35380
#
# Velocity S-wave (km/s) = 3.88629 -1.40441 2.56231
# Velocity P-wave (km/s) = 6.64186 5.16668 5.95017
#
# Compressibility (1/GPa) = 0.02216536
#
# Stress axis : x y z
#
# Youngs Moduli (GPa) = 53.91000 53.90788 45.16043
#
# Poissons Ratio (x) = 0.61762 0.15990
# Poissons Ratio (y) = 0.61764 0.15992
# Poissons Ratio (z) = 0.19088 0.19089
#
# Static dielectric constant tensor:
#      x y z
#    x 1.683380 0.000000 0.000000 
#    y 0.000000 1.683380 0.000000 
#    z 0.000000 0.000000 1.648300 
# 
# From -- ./inp_files/2199.got.cif
#   From: 2010.05.17/outbox.cif.g08.bks.cpg/sg131_2_cif.got.tgz:2199.got - 2010.05.20 12:21:01.
