data_PCOD9566440
_publ_section_title
;
Structure prediction by ZEFSAII (Michael W. Deem and Ramdas Pophale) SiO2 
 PCOD9566440
Probable space group: P 42/M M C
;
_chemical_formula_sum "Si O2"
_cell_formula_units_Z 88
_cell_length_a 19.069642
_cell_length_b 19.069642
_cell_length_c 13.686721
_cell_angle_alpha 90.000000
_cell_angle_beta 90.000000
_cell_angle_gamma 90.000000
_cell_volume 4977.193145
_symmetry_space_group_name_H-M "P 42/M M C"
_symmetry_group_IT_number 131
_symmetry_cell_setting 'tetragonal'
loop_
_space_group_symop_operation_xyz
x,y,z
-x,-y,z
-y,x,1/2+z
y,-x,1/2+z
-x,y,-z
x,-y,-z
y,x,1/2-z
-y,-x,1/2-z
-x,-y,-z
x,y,-z
y,-x,1/2-z
-y,x,1/2-z
x,-y,z
-x,y,z
-y,-x,1/2+z
y,x,1/2+z
loop_
_atom_site_type_symbol
_atom_site_label
_atom_site_fract_x
_atom_site_fract_y
_atom_site_fract_z
Si Si1 0.724763 0.577141 0.882736
Si Si2 0.580374 0.202315 0.115807
Si Si3 0.810505 0.692828 0.772422
Si Si4 0.918459 0.081542 0.750000
Si Si5 0.423929 0.370031 0.118360
Si Si6 0.916527 0.211612 0.886710
O O1 0.747805 0.500000 0.850468
O O2 0.774404 0.637834 0.845350
O O3 0.645576 0.591220 0.846979
O O4 0.723736 0.578341 0.000000
O O5 0.500000 0.179341 0.138287
O O6 0.644083 0.171452 0.178998
O O7 0.582986 0.286462 0.134822
O O8 0.591008 0.192063 0.000000
O O9 0.752499 0.752499 0.750000
O O10 0.875168 0.731480 0.823139
O O11 0.903843 0.135724 0.837308
O O12 0.000000 0.090567 0.720716
O O13 0.500000 0.394454 0.153647
O O14 0.424617 0.378310 0.000000
O O15 0.000000 0.224110 0.883505
O O16 0.894018 0.212915 0.000000
#
# Coordination Sequence:
#
# PCOD9566440 Si02
#       6
#    16  16  16   8  16  16
#     4  10  20  32  47  71 104 141 185 234 281 331
#     4   9  18  33  53  76 105 142 184 235 294 349
#     4  12  21  33  55  83 107 144 185 235 280 330
#     4   9  18  36  62  94 128 158 188 213 246 314
#     4   8  14  26  43  64  95 135 175 215 269 335
#     4  10  22  40  60  86 121 156 186 219 268 326
#
# _framework density 17.680648000000001
#
# number of rings (size 3 to 8) (size 9 to 14) (size 15 to 20)
#    0.000    2.273    2.727    2.182    0.000    1.455 
#    0.000    3.636    0.000    2.727    0.000    7.636 
#    0.000    0.000    0.000    0.000    0.000    0.000 
#
# Total GULP energy -491042.195611 kJ/mol
# GULP energy per Si atom -5580.024950 kJ/mol
# Density = 1.764041 g / cm^3
# Si number density = 17.680648 Si / 1000 Ang^3
#
#
#
# Elastic Constant Matrix: (Units=GPa)
#
#
# Indices 1 2 3 4 5 6 
#
# 1 70.0281 51.4695 49.5900 0.0000 0.0000 0.0000
# 2 51.4695 70.0272 49.5902 0.0000 0.0000 0.0000
# 3 49.5900 49.5902 112.8903 0.0000 0.0000 0.0000
# 4 0.0000 0.0000 0.0000 28.5963 0.0000 0.0000
# 5 0.0000 0.0000 0.0000 0.0000 28.5960 0.0000
# 6 0.0000 0.0000 0.0000 0.0000 0.0000 26.0077
#
#
#
# Elastic Compliance Matrix: (Units=1/GPa)
#
#
# Indices 1 2 3 4 5 6 
#
# 1 0.033358 -0.020526 -0.005637 0.000000 0.000000 0.000000
# 2 -0.020526 0.033359 -0.005637 0.000000 0.000000 0.000000
# 3 -0.005637 -0.005637 0.013810 0.000000 0.000000 0.000000
# 4 0.000000 0.000000 0.000000 0.034970 0.000000 0.000000
# 5 0.000000 0.000000 0.000000 0.000000 0.034970 0.000000
# 6 0.000000 0.000000 0.000000 0.000000 0.000000 0.038450
#
#
# Mechanical properties :
#
#
# Convention : Reuss Voigt Hill
#
# Bulk Modulus (GPa) = 59.07637 61.58279 60.32958
# Shear Modulus (GPa) = 19.36791 23.45973 21.41382
#
# Velocity S-wave (km/s) = 3.31332 3.64656 3.48393
# Velocity P-wave (km/s) = 6.93707 7.25507 7.09785
#
# Compressibility (1/GPa) = 0.01692724
#
# Stress axis : x y z
#
# Youngs Moduli (GPa) = 29.97786 29.97717 72.40910
#
# Poissons Ratio (x) = 0.61532 0.40814
# Poissons Ratio (y) = 0.61533 0.40817
# Poissons Ratio (z) = 0.16897 0.16898
#
# Static dielectric constant tensor:
#      x y z
#    x 1.583560 0.000000 0.000000 
#    y 0.000000 1.583560 0.000000 
#    z 0.000000 0.000000 1.668410 
# 
# From -- ./inp_files/5922.got.cif
#   From: 2010.05.17/outbox.cif.g08.bks.cpg/sg131_3_cif.got.tgz:5922.got - 2010.05.20 12:21:01.
