data_PCOD9566698
_publ_section_title
;
Structure prediction by ZEFSAII (Michael W. Deem and Ramdas Pophale) SiO2 
 PCOD9566698
Probable space group: P 42/M M C
;
_chemical_formula_sum "Si O2"
_cell_formula_units_Z 72
_cell_length_a 20.936513
_cell_length_b 20.936513
_cell_length_c 8.832300
_cell_angle_alpha 90.000000
_cell_angle_beta 90.000000
_cell_angle_gamma 90.000000
_cell_volume 3871.528978
_symmetry_space_group_name_H-M "P 42/M M C"
_symmetry_group_IT_number 131
_symmetry_cell_setting 'tetragonal'
loop_
_space_group_symop_operation_xyz
x,y,z
-x,-y,z
-y,x,1/2+z
y,-x,1/2+z
-x,y,-z
x,-y,-z
y,x,1/2-z
-y,-x,1/2-z
-x,-y,-z
x,y,-z
y,-x,1/2-z
-y,x,1/2-z
x,-y,z
-x,y,z
-y,-x,1/2+z
y,x,1/2+z
loop_
_atom_site_type_symbol
_atom_site_label
_atom_site_fract_x
_atom_site_fract_y
_atom_site_fract_z
Si Si1 0.076018 0.500000 0.182230
Si Si2 0.573819 0.675977 0.318143
Si Si3 0.818252 0.409900 0.323365
Si Si4 0.260186 0.171082 0.826049
Si Si5 0.832738 0.927842 0.680655
O O1 0.120648 0.557481 0.243962
O O2 0.000000 0.500000 0.228614
O O3 0.076456 0.500000 0.000000
O O4 0.626926 0.626926 0.250000
O O5 0.582488 0.678384 0.500000
O O6 0.500000 0.654886 0.287217
O O7 0.578764 0.748775 0.253412
O O8 0.814450 0.429213 0.500000
O O9 0.831394 0.335103 0.319316
O O10 0.235872 0.235872 0.750000
O O11 0.226084 0.114488 0.737061
O O12 0.238443 0.169080 0.000000
O O13 0.895013 0.895013 0.750000
O O14 0.836153 0.926255 0.500000
O O15 0.825870 0.000000 0.732700
#
# Coordination Sequence:
#
# PCOD9566698 Si02
#       5
#     8  16  16  16  16
#     4  11  25  43  63  89 122 161 204 251 305 367
#     4  11  24  41  64  94 128 169 215 262 316 375
#     4  11  23  40  64  91 122 160 204 254 308 368
#     4  10  21  36  57  86 115 149 191 239 292 347
#     4  10  21  36  55  80 110 147 190 237 292 353
#
# _framework density 18.597304000000001
#
# number of rings (size 3 to 8) (size 9 to 14) (size 15 to 20)
#    0.000    1.444    1.111    5.000    0.000   10.667 
#    0.000    6.667    0.000    0.000    0.000    0.000 
#    0.000    0.000    0.000    0.000    0.000    0.000 
#
# Total GULP energy -401734.247441 kJ/mol
# GULP energy per Si atom -5579.642326 kJ/mol
# Density = 1.855498 g / cm^3
# Si number density = 18.597304 Si / 1000 Ang^3
#
#
#
# Elastic Constant Matrix: (Units=GPa)
#
#
# Indices 1 2 3 4 5 6 
#
# 1 128.2415 39.4180 55.4498 0.0000 0.0000 0.0000
# 2 39.4180 128.2415 55.4498 0.0000 0.0000 0.0000
# 3 55.4498 55.4498 107.5888 0.0000 0.0000 0.0000
# 4 0.0000 0.0000 0.0000 38.1271 0.0000 0.0000
# 5 0.0000 0.0000 0.0000 0.0000 38.1271 0.0000
# 6 0.0000 0.0000 0.0000 0.0000 0.0000 -50.3502
#
#
#
# Elastic Compliance Matrix: (Units=1/GPa)
#
#
# Indices 1 2 3 4 5 6 
#
# 1 0.010154 -0.001104 -0.004664 0.000000 0.000000 0.000000
# 2 -0.001104 0.010154 -0.004664 0.000000 0.000000 0.000000
# 3 -0.004664 -0.004664 0.014102 0.000000 0.000000 0.000000
# 4 0.000000 0.000000 0.000000 0.026228 0.000000 0.000000
# 5 0.000000 0.000000 0.000000 0.000000 0.026228 0.000000
# 6 0.000000 0.000000 0.000000 0.000000 0.000000 -0.019861
#
#
# Mechanical properties :
#
#
# Convention : Reuss Voigt Hill
#
# Bulk Modulus (GPa) = 73.82687 73.85634 73.84161
# Shear Modulus (GPa) = 54.12132 19.43106 36.77619
#
# Velocity S-wave (km/s) = 5.40045 3.23589 4.45173
# Velocity P-wave (km/s) = 8.86963 7.33219 8.13730
#
# Compressibility (1/GPa) = 0.01354520
#
# Stress axis : x y z
#
# Youngs Moduli (GPa) = 98.48443 98.48443 70.91117
#
# Poissons Ratio (x) = 0.10877 0.33073
# Poissons Ratio (y) = 0.10877 0.33073
# Poissons Ratio (z) = 0.45933 0.45933
#
# Static dielectric constant tensor:
#      x y z
#    x 1.633550 0.000000 0.000000 
#    y 0.000000 1.633550 0.000000 
#    z 0.000000 0.000000 1.633060 
# 
# From -- ./inp_files/1791.got.cif
#   From: 2010.05.17/outbox.cif.g08.bks.cpg/sg131_1_cif.got.tgz:1791.got - 2010.05.20 12:21:01.
