data_PCOD9566357
_publ_section_title
;
Structure prediction by ZEFSAII (Michael W. Deem and Ramdas Pophale) SiO2 
 PCOD9566357
Probable space group: P 42/M M C
;
_chemical_formula_sum "Si O2"
_cell_formula_units_Z 96
_cell_length_a 23.643437
_cell_length_b 23.643437
_cell_length_c 9.366262
_cell_angle_alpha 90.000000
_cell_angle_beta 90.000000
_cell_angle_gamma 90.000000
_cell_volume 5235.853913
_symmetry_space_group_name_H-M "P 42/M M C"
_symmetry_group_IT_number 131
_symmetry_cell_setting 'tetragonal'
loop_
_space_group_symop_operation_xyz
x,y,z
-x,-y,z
-y,x,1/2+z
y,-x,1/2+z
-x,y,-z
x,-y,-z
y,x,1/2-z
-y,-x,1/2-z
-x,-y,-z
x,y,-z
y,-x,1/2-z
-y,x,1/2-z
x,-y,z
-x,y,z
-y,-x,1/2+z
y,x,1/2+z
loop_
_atom_site_type_symbol
_atom_site_label
_atom_site_fract_x
_atom_site_fract_y
_atom_site_fract_z
Si Si1 0.266447 0.808401 0.661025
Si Si2 0.902204 0.829232 0.160235
Si Si3 0.567835 0.348693 0.330668
Si Si4 0.000000 0.365496 0.664192
Si Si5 0.770490 0.000000 0.164711
Si Si6 0.873673 0.364289 0.328450
Si Si7 0.432389 0.237793 0.838482
O O1 0.246495 0.753506 0.750000
O O2 0.286146 0.794711 0.500000
O O3 0.211100 0.847638 0.646276
O O4 0.310928 0.846806 0.746949
O O5 0.883560 0.883560 0.250000
O O6 0.946706 0.794352 0.251640
O O7 0.922192 0.842066 0.000000
O O8 0.603213 0.396788 0.250000
O O9 0.577379 0.351412 0.500000
O O10 0.500000 0.355113 0.305337
O O11 0.585708 0.287323 0.268551
O O12 0.000000 0.297285 0.666606
O O13 0.937252 0.380403 0.722571
O O14 0.000000 0.386091 0.500000
O O15 0.788493 0.000000 0.000000
O O16 0.877986 0.352358 0.500000
O O17 0.825325 0.411132 0.306870
O O18 0.500000 0.237294 0.837734
O O19 0.412905 0.251883 0.000000
#
# Coordination Sequence:
#
# PCOD9566357 Si02
#       7
#    16  16  16   8   8  16  16
#     4  10  20  32  48  72 103 135 169 208 256 313
#     4  10  20  33  49  72 101 132 168 208 251 305
#     4  10  21  37  59  87 119 155 194 235 279 329
#     4   9  18  31  50  77 105 134 171 217 272 331
#     4  11  19  31  53  75 102 137 170 210 261 317
#     4  10  19  34  54  76 105 140 178 223 276 330
#     4   9  19  36  57  79 106 144 188 231 274 323
#
# _framework density 18.335117
#
# number of rings (size 3 to 8) (size 9 to 14) (size 15 to 20)
#    0.000    2.167    1.667    1.750    0.000    3.833 
#    0.000    1.667    0.000    2.750    0.000    1.750 
#    0.000    4.000    0.000    0.000    0.000    0.000 
#
# Total GULP energy -534813.682730 kJ/mol
# GULP energy per Si atom -5570.975862 kJ/mol
# Density = 1.829339 g / cm^3
# Si number density = 18.335117 Si / 1000 Ang^3
#
#
#
# Elastic Constant Matrix: (Units=GPa)
#
#
# Indices 1 2 3 4 5 6 
#
# 1 55.7888 40.9635 44.2111 0.0000 0.0000 0.0000
# 2 40.9635 55.7839 44.2123 0.0000 0.0000 0.0000
# 3 44.2111 44.2123 109.9526 0.0000 0.0000 0.0000
# 4 0.0000 0.0000 0.0000 39.8636 0.0000 0.0000
# 5 0.0000 0.0000 0.0000 0.0000 39.8790 0.0000
# 6 0.0000 0.0000 0.0000 0.0000 0.0000 37.1288
#
#
#
# Elastic Compliance Matrix: (Units=1/GPa)
#
#
# Indices 1 2 3 4 5 6 
#
# 1 0.041899 -0.025561 -0.006569 0.000000 0.000000 0.000000
# 2 -0.025561 0.041906 -0.006572 0.000000 0.000000 0.000000
# 3 -0.006569 -0.006572 0.014379 0.000000 0.000000 0.000000
# 4 0.000000 0.000000 0.000000 0.025086 0.000000 0.000000
# 5 0.000000 0.000000 0.000000 0.000000 0.025076 0.000000
# 6 0.000000 0.000000 0.000000 0.000000 0.000000 0.026933
#
#
# Mechanical properties :
#
#
# Convention : Reuss Voigt Hill
#
# Bulk Modulus (GPa) = 48.12700 53.36660 50.74680
# Shear Modulus (GPa) = 19.25968 29.51685 24.38827
#
# Velocity S-wave (km/s) = 3.24454 4.01665 3.65106
# Velocity P-wave (km/s) = 6.35150 7.11904 6.74620
#
# Compressibility (1/GPa) = 0.02077836
#
# Stress axis : x y z
#
# Youngs Moduli (GPa) = 23.86686 23.86320 69.54578
#
# Poissons Ratio (x) = 0.60997 0.45685
# Poissons Ratio (y) = 0.61006 0.45708
# Poissons Ratio (z) = 0.15678 0.15684
#
# Static dielectric constant tensor:
#      x y z
#    x 1.649380 0.000000 0.000000 
#    y 0.000000 1.649380 0.000000 
#    z 0.000000 0.000000 1.652150 
# 
# From -- ./inp_files/2305.got.cif
#   From: 2010.05.17/outbox.cif.g08.bks.cpg/sg131_2_cif.got.tgz:2305.got - 2010.05.20 12:21:01.
