data_PCOD9566767
_publ_section_title
;
Structure prediction by ZEFSAII (Michael W. Deem and Ramdas Pophale) SiO2 
 PCOD9566767
Probable space group: P 42/M M C
;
_chemical_formula_sum "Si O2"
_cell_formula_units_Z 96
_cell_length_a 16.111347
_cell_length_b 16.111347
_cell_length_c 18.815070
_cell_angle_alpha 90.000000
_cell_angle_beta 90.000000
_cell_angle_gamma 90.000000
_cell_volume 4883.931243
_symmetry_space_group_name_H-M "P 42/M M C"
_symmetry_group_IT_number 131
_symmetry_cell_setting 'tetragonal'
loop_
_space_group_symop_operation_xyz
x,y,z
-x,-y,z
-y,x,1/2+z
y,-x,1/2+z
-x,y,-z
x,-y,-z
y,x,1/2-z
-y,-x,1/2-z
-x,-y,-z
x,y,-z
y,-x,1/2-z
-y,x,1/2-z
x,-y,z
-x,y,z
-y,-x,1/2+z
y,x,1/2+z
loop_
_atom_site_type_symbol
_atom_site_label
_atom_site_fract_x
_atom_site_fract_y
_atom_site_fract_z
Si Si1 0.591291 0.864748 0.148217
Si Si2 0.591485 0.317081 0.084752
Si Si3 0.091911 0.161778 0.180788
Si Si4 0.905417 0.355984 0.805628
Si Si5 0.400951 0.765540 0.581063
Si Si6 0.095885 0.233503 0.581157
O O1 0.500000 0.895551 0.124581
O O2 0.593832 0.767512 0.129098
O O3 0.600771 0.881430 0.231842
O O4 0.672978 0.900640 0.110909
O O5 0.500000 0.356697 0.096821
O O6 0.674090 0.368283 0.101849
O O7 0.595179 0.297844 0.000000
O O8 0.105796 0.105796 0.250000
O O9 0.095161 0.256978 0.206329
O O10 0.167502 0.146342 0.127337
O O11 0.000000 0.146986 0.149698
O O12 0.838053 0.374317 0.865874
O O13 0.000000 0.379727 0.825572
O O14 0.372147 0.782294 0.500000
O O15 0.500000 0.762607 0.580735
O O16 0.125533 0.234263 0.500000
O O17 0.000000 0.206541 0.583283
#
# Coordination Sequence:
#
# PCOD9566767 Si02
#       6
#    16  16  16  16  16  16
#     4  11  22  38  61  87 119 160 205 252 306 368
#     4   9  19  36  59  88 119 153 196 246 303 368
#     4  11  23  41  65  90 119 160 210 259 311 372
#     4  11  24  40  60  87 118 157 208 259 307 366
#     4  10  22  39  60  88 121 159 202 251 312 374
#     4  11  24  40  59  89 126 160 200 252 310 372
#
# _framework density 19.656296999999999
#
# number of rings (size 3 to 8) (size 9 to 14) (size 15 to 20)
#    0.000    1.500    1.667    3.000    0.000    7.500 
#    0.000    5.833    0.000    0.000    0.000    2.333 
#    0.000    0.000    0.000    0.000    0.000    0.000 
#
# Total GULP energy -536027.689169 kJ/mol
# GULP energy per Si atom -5583.621762 kJ/mol
# Density = 1.961156 g / cm^3
# Si number density = 19.656297 Si / 1000 Ang^3
#
#
#
# Elastic Constant Matrix: (Units=GPa)
#
#
# Indices 1 2 3 4 5 6 
#
# 1 104.9131 44.2018 39.3418 0.0000 0.0000 0.0000
# 2 44.2018 104.9131 39.3418 0.0000 0.0000 0.0000
# 3 39.3418 39.3418 75.7257 0.0000 0.0000 0.0000
# 4 0.0000 0.0000 0.0000 72.2045 0.0000 0.0000
# 5 0.0000 0.0000 0.0000 0.0000 72.2045 0.0000
# 6 0.0000 0.0000 0.0000 0.0000 0.0000 -24.7905
#
#
#
# Elastic Compliance Matrix: (Units=1/GPa)
#
#
# Indices 1 2 3 4 5 6 
#
# 1 0.012855 -0.003616 -0.004800 0.000000 0.000000 0.000000
# 2 -0.003616 0.012855 -0.004800 0.000000 0.000000 0.000000
# 3 -0.004800 -0.004800 0.018193 0.000000 0.000000 0.000000
# 4 0.000000 0.000000 0.000000 0.013850 0.000000 0.000000
# 5 0.000000 0.000000 0.000000 0.000000 0.013850 0.000000
# 6 0.000000 0.000000 0.000000 0.000000 0.000000 -0.040338
#
#
# Mechanical properties :
#
#
# Convention : Reuss Voigt Hill
#
# Bulk Modulus (GPa) = 57.23692 59.03586 58.13639
# Shear Modulus (GPa) = 78.71475 34.76814 56.74144
#
# Velocity S-wave (km/s) = 6.33502 4.21028 5.37861
# Velocity P-wave (km/s) = 9.09352 7.33038 8.25913
#
# Compressibility (1/GPa) = 0.01747124
#
# Stress axis : x y z
#
# Youngs Moduli (GPa) = 77.78942 77.78942 54.96621
#
# Poissons Ratio (x) = 0.28130 0.26384
# Poissons Ratio (y) = 0.28130 0.26384
# Poissons Ratio (z) = 0.37339 0.37339
#
# Static dielectric constant tensor:
#      x y z
#    x 1.697880 0.000000 0.000000 
#    y 0.000000 1.697880 0.000000 
#    z 0.000000 0.000000 1.674990 
# 
# From -- ./inp_files/9752.got.cif
#   From: 2010.05.17/outbox.cif.g08.bks.cpg/sg131_5_cif.got.tgz:9752.got - 2010.05.20 12:21:01.
