data_PCOD9566416
_publ_section_title
;
Structure prediction by ZEFSAII (Michael W. Deem and Ramdas Pophale) SiO2 
 PCOD9566416
Probable space group: P 42/M M C
;
_chemical_formula_sum "Si O2"
_cell_formula_units_Z 96
_cell_length_a 25.740514
_cell_length_b 25.740514
_cell_length_c 9.018003
_cell_angle_alpha 90.000000
_cell_angle_beta 90.000000
_cell_angle_gamma 90.000000
_cell_volume 5975.094870
_symmetry_space_group_name_H-M "P 42/M M C"
_symmetry_group_IT_number 131
_symmetry_cell_setting 'tetragonal'
loop_
_space_group_symop_operation_xyz
x,y,z
-x,-y,z
-y,x,1/2+z
y,-x,1/2+z
-x,y,-z
x,-y,-z
y,x,1/2-z
-y,-x,1/2-z
-x,-y,-z
x,y,-z
y,-x,1/2-z
-y,x,1/2-z
x,-y,z
-x,y,z
-y,-x,1/2+z
y,x,1/2+z
loop_
_atom_site_type_symbol
_atom_site_label
_atom_site_fract_x
_atom_site_fract_y
_atom_site_fract_z
Si Si1 0.621810 0.941052 0.664742
Si Si2 0.441730 0.755810 0.324452
Si Si3 0.557887 0.137149 0.834156
Si Si4 0.249366 0.168663 0.822377
Si Si5 0.746550 0.058322 0.671782
Si Si6 0.747830 0.667568 0.322413
O O1 0.606411 0.922076 0.500000
O O2 0.599331 0.905196 0.790926
O O3 0.683882 0.942400 0.670109
O O4 0.602976 0.000000 0.680440
O O5 0.436403 0.747698 0.500000
O O6 0.500000 0.736654 0.279485
O O7 0.441386 0.816614 0.282982
O O8 0.389940 0.737605 0.240593
O O9 0.500000 0.114062 0.831626
O O10 0.566970 0.158600 0.000000
O O11 0.206591 0.206591 0.750000
O O12 0.240947 0.110301 0.762828
O O13 0.305696 0.195710 0.785715
O O14 0.244753 0.169410 0.000000
O O15 0.763703 0.064057 0.500000
O O16 0.763162 0.000000 0.723383
O O17 0.706191 0.706191 0.250000
O O18 0.743354 0.667488 0.500000
#
# Coordination Sequence:
#
# PCOD9566416 Si02
#       6
#    16  16  16  16  16  16
#     4   9  18  31  45  60  79 108 146 186 230 278
#     4  10  20  33  49  68  91 121 156 193 234 281
#     4  10  20  31  42  58  81 110 146 189 235 278
#     4  10  20  32  48  71  97 126 159 195 236 282
#     4   9  18  32  48  66  90 119 150 187 231 277
#     4  10  20  33  50  73 100 129 161 198 241 287
#
# _framework density 16.066690999999999
#
# number of rings (size 3 to 8) (size 9 to 14) (size 15 to 20)
#    0.000    2.333    0.000    4.000    0.000    8.333 
#    0.000    3.333    0.000    0.000    0.000    0.000 
#    0.000    0.667    0.000    7.000    0.000    3.000 
#
# Total GULP energy -534578.924013 kJ/mol
# GULP energy per Si atom -5568.530458 kJ/mol
# Density = 1.603012 g / cm^3
# Si number density = 16.066691 Si / 1000 Ang^3
#
#
#
# Elastic Constant Matrix: (Units=GPa)
#
#
# Indices 1 2 3 4 5 6 
#
# 1 77.2980 25.9456 32.9737 0.0000 0.0000 0.0000
# 2 25.9456 77.2980 32.9737 0.0000 0.0000 0.0000
# 3 32.9737 32.9737 57.8255 0.0000 0.0000 0.0000
# 4 0.0000 0.0000 0.0000 23.2090 0.0000 0.0000
# 5 0.0000 0.0000 0.0000 0.0000 23.2090 0.0000
# 6 0.0000 0.0000 0.0000 0.0000 0.0000 16.0341
#
#
#
# Elastic Compliance Matrix: (Units=1/GPa)
#
#
# Indices 1 2 3 4 5 6 
#
# 1 0.017354 -0.002119 -0.008687 0.000000 0.000000 0.000000
# 2 -0.002119 0.017354 -0.008687 0.000000 0.000000 0.000000
# 3 -0.008687 -0.008687 0.027201 0.000000 0.000000 0.000000
# 4 0.000000 0.000000 0.000000 0.043087 0.000000 0.000000
# 5 0.000000 0.000000 0.000000 0.000000 0.043087 0.000000
# 6 0.000000 0.000000 0.000000 0.000000 0.000000 0.062367
#
#
# Mechanical properties :
#
#
# Convention : Reuss Voigt Hill
#
# Bulk Modulus (GPa) = 43.62751 44.02307 43.82529
# Shear Modulus (GPa) = 19.44934 20.52566 19.98750
#
# Velocity S-wave (km/s) = 3.48305 3.57813 3.53091
# Velocity P-wave (km/s) = 6.58700 6.67311 6.63019
#
# Compressibility (1/GPa) = 0.02292132
#
# Stress axis : x y z
#
# Youngs Moduli (GPa) = 57.62322 57.62322 36.76335
#
# Poissons Ratio (x) = 0.12211 0.31938
# Poissons Ratio (y) = 0.12211 0.31938
# Poissons Ratio (z) = 0.50060 0.50060
#
# Static dielectric constant tensor:
#      x y z
#    x 1.550640 0.000000 0.000000 
#    y 0.000000 1.550640 0.000000 
#    z 0.000000 0.000000 1.561660 
# 
# From -- ./inp_files/2181.got.cif
#   From: 2010.05.17/outbox.cif.g08.bks.cpg/sg131_2_cif.got.tgz:2181.got - 2010.05.20 12:21:01.
