data_PCOD9566683
_publ_section_title
;
Structure prediction by ZEFSAII (Michael W. Deem and Ramdas Pophale) SiO2 
 PCOD9566683
Probable space group: P 42/M M C
;
_chemical_formula_sum "Si O2"
_cell_formula_units_Z 80
_cell_length_a 16.842881
_cell_length_b 16.842881
_cell_length_c 12.929464
_cell_angle_alpha 90.000000
_cell_angle_beta 90.000000
_cell_angle_gamma 90.000000
_cell_volume 3667.864486
_symmetry_space_group_name_H-M "P 42/M M C"
_symmetry_group_IT_number 131
_symmetry_cell_setting 'tetragonal'
loop_
_space_group_symop_operation_xyz
x,y,z
-x,-y,z
-y,x,1/2+z
y,-x,1/2+z
-x,y,-z
x,-y,-z
y,x,1/2-z
-y,-x,1/2-z
-x,-y,-z
x,y,-z
y,-x,1/2-z
-y,x,1/2-z
x,-y,z
-x,y,z
-y,-x,1/2+z
y,x,1/2+z
loop_
_atom_site_type_symbol
_atom_site_label
_atom_site_fract_x
_atom_site_fract_y
_atom_site_fract_z
Si Si1 0.414504 0.646448 0.379437
Si Si2 0.090456 0.247133 0.157421
Si Si3 0.189294 0.911162 0.113706
Si Si4 0.758872 0.593927 0.385040
Si Si5 0.590256 0.831223 0.329803
O O1 0.416057 0.622267 0.500000
O O2 0.500000 0.620273 0.333961
O O3 0.328744 0.616222 0.344660
O O4 0.412483 0.741784 0.373213
O O5 0.092631 0.241386 0.283006
O O6 0.135134 0.167533 0.120390
O O7 0.125870 0.332305 0.125918
O O8 0.000000 0.242525 0.124200
O O9 0.149643 0.000000 0.119826
O O10 0.228454 0.909159 0.000000
O O11 0.772010 0.629527 0.500000
O O12 0.758673 0.500000 0.396309
O O13 0.820094 0.608056 0.292865
O O14 0.500000 0.864245 0.343749
#
# Coordination Sequence:
#
# PCOD9566683 Si02
#       5
#    16  16  16  16  16
#     4   9  18  31  48  72 102 140 184 229 281 335
#     4  10  22  38  59  88 115 147 193 231 276 350
#     4   9  20  39  62  90 121 147 177 229 293 352
#     4   9  18  31  49  75 104 139 185 233 282 334
#     4  10  21  36  52  75 112 151 192 237 277 323
#
# _framework density 21.811057000000002
#
# number of rings (size 3 to 8) (size 9 to 14) (size 15 to 20)
#    0.000    2.600    0.000    0.600    5.600    3.200 
#    0.000    5.000    0.000    3.600    0.000    9.800 
#    0.000    0.000    0.000    0.000    0.000    0.000 
#
# Total GULP energy -445490.874915 kJ/mol
# GULP energy per Si atom -5568.635936 kJ/mol
# Density = 2.176141 g / cm^3
# Si number density = 21.811057 Si / 1000 Ang^3
#
#
#
# Elastic Constant Matrix: (Units=GPa)
#
#
# Indices 1 2 3 4 5 6 
#
# 1 95.8033 75.3939 0.1411 0.0000 0.0000 0.0000
# 2 75.3939 95.8033 0.1411 0.0000 0.0000 0.0000
# 3 0.1411 0.1411 102.0994 0.0000 0.0000 0.0000
# 4 0.0000 0.0000 0.0000 10.4249 0.0000 0.0000
# 5 0.0000 0.0000 0.0000 0.0000 10.4249 0.0000
# 6 0.0000 0.0000 0.0000 0.0000 0.0000 -76.8791
#
#
#
# Elastic Compliance Matrix: (Units=1/GPa)
#
#
# Indices 1 2 3 4 5 6 
#
# 1 0.027419 -0.021578 -0.000008 0.000000 0.000000 0.000000
# 2 -0.021578 0.027419 -0.000008 0.000000 0.000000 0.000000
# 3 -0.000008 -0.000008 0.009794 0.000000 0.000000 0.000000
# 4 0.000000 0.000000 0.000000 0.095924 0.000000 0.000000
# 5 0.000000 0.000000 0.000000 0.000000 0.095924 0.000000
# 6 0.000000 0.000000 0.000000 0.000000 0.000000 -0.013007
#
#
# Mechanical properties :
#
#
# Convention : Reuss Voigt Hill
#
# Bulk Modulus (GPa) = 46.63185 49.45091 48.04138
# Shear Modulus (GPa) = 17.01784 3.32948 10.17366
#
# Velocity S-wave (km/s) = 2.79631 1.23686 2.16208
# Velocity P-wave (km/s) = 5.64377 4.97608 5.32041
#
# Compressibility (1/GPa) = 0.02144457
#
# Stress axis : x y z
#
# Youngs Moduli (GPa) = 36.47090 36.47090 102.09920
#
# Poissons Ratio (x) = 0.78697 0.00082
# Poissons Ratio (y) = 0.78697 0.00082
# Poissons Ratio (z) = 0.00029 0.00029
#
# Static dielectric constant tensor:
#      x y z
#    x 1.784410 0.000000 0.000000 
#    y 0.000000 1.784410 0.000000 
#    z 0.000000 0.000000 1.918600 
# 
# From -- ./inp_files/5679.got.cif
#   From: 2010.05.17/outbox.cif.g08.bks.cpg/sg131_3_cif.got.tgz:5679.got - 2010.05.20 12:21:01.
