data_PCOD9566878
_publ_section_title
;
Structure prediction by ZEFSAII (Michael W. Deem and Ramdas Pophale) SiO2 
 PCOD9566878
Probable space group: P 42/M M C
;
_chemical_formula_sum "Si O2"
_cell_formula_units_Z 42
_cell_length_a 11.689638
_cell_length_b 11.689638
_cell_length_c 15.749047
_cell_angle_alpha 90.000000
_cell_angle_beta 90.000000
_cell_angle_gamma 90.000000
_cell_volume 2152.070051
_symmetry_space_group_name_H-M "P 42/M M C"
_symmetry_group_IT_number 131
_symmetry_cell_setting 'tetragonal'
loop_
_space_group_symop_operation_xyz
x,y,z
-x,-y,z
-y,x,1/2+z
y,-x,1/2+z
-x,y,-z
x,-y,-z
y,x,1/2-z
-y,-x,1/2-z
-x,-y,-z
x,y,-z
y,-x,1/2-z
-y,x,1/2-z
x,-y,z
-x,y,z
-y,-x,1/2+z
y,x,1/2+z
loop_
_atom_site_type_symbol
_atom_site_label
_atom_site_fract_x
_atom_site_fract_y
_atom_site_fract_z
Si Si1 0.261365 0.500000 0.346834
Si Si2 0.500000 0.500000 0.750000
Si Si3 0.500000 0.861922 0.332038
Si Si4 0.264878 0.244623 0.403772
Si Si5 0.866076 0.133925 0.750000
O O1 0.386568 0.500000 0.305162
O O2 0.172525 0.500000 0.267759
O O3 0.255383 0.381941 0.397699
O O4 0.611268 0.803425 0.374471
O O5 0.500000 0.000000 0.342138
O O6 0.242025 0.207422 0.500000
O O7 0.179177 0.196580 0.333408
O O8 0.000000 0.155217 0.760453
#
# Coordination Sequence:
#
# PCOD9566878 Si02
#       5
#     8   2   8  16   8
#     4  12  21  41  66  99 130 173 218 271 337 403
#     4  12  16  36  70  84 124 182 216 264 330 392
#     4  12  23  40  67  95 133 181 226 275 331 393
#     4  12  25  42  68 100 134 172 221 278 337 400
#     4  11  25  46  69  93 130 180 228 275 327 392
#
# _framework density 19.516092
#
# number of rings (size 3 to 8) (size 9 to 14) (size 15 to 20)
#    0.000    0.190    7.619    2.286    0.000    4.571 
#    0.000    4.762    0.000    3.429    0.000    0.000 
#    0.000    0.000    0.000    0.000    0.000    0.000 
#
# Total GULP energy -234861.818721 kJ/mol
# GULP energy per Si atom -5591.948065 kJ/mol
# Density = 1.947167 g / cm^3
# Si number density = 19.516092 Si / 1000 Ang^3
#
#
#
# Elastic Constant Matrix: (Units=GPa)
#
#
# Indices 1 2 3 4 5 6 
#
# 1 225.8629 -66.3305 38.1155 0.0000 0.0000 0.0000
# 2 -66.3305 225.8675 38.1172 0.0000 0.0000 0.0000
# 3 38.1155 38.1172 141.0216 0.0000 0.0000 0.0000
# 4 0.0000 0.0000 0.0000 -10.5541 0.0000 0.0000
# 5 0.0000 0.0000 0.0000 0.0000 -10.5578 0.0000
# 6 0.0000 0.0000 0.0000 0.0000 0.0000 27.1591
#
#
#
# Elastic Compliance Matrix: (Units=1/GPa)
#
#
# Indices 1 2 3 4 5 6 
#
# 1 0.005310 0.001888 -0.001945 0.000000 0.000000 0.000000
# 2 0.001888 0.005310 -0.001946 0.000000 0.000000 0.000000
# 3 -0.001945 -0.001946 0.008143 0.000000 0.000000 0.000000
# 4 0.000000 0.000000 0.000000 -0.094750 0.000000 0.000000
# 5 0.000000 0.000000 0.000000 0.000000 -0.094717 0.000000
# 6 0.000000 0.000000 0.000000 0.000000 0.000000 0.036820
#
#
# Mechanical properties :
#
#
# Convention : Reuss Voigt Hill
#
# Bulk Modulus (GPa) = 67.76643 68.06181 67.91412
# Shear Modulus (GPa) = -40.01335 40.06610 0.02638
#
# Velocity S-wave (km/s) = -4.53291 4.53590 0.11638
# Velocity P-wave (km/s) = 2.72074 7.89828 5.90700
#
# Compressibility (1/GPa) = 0.01475657
#
# Stress axis : x y z
#
# Youngs Moduli (GPa) = 188.31811 188.32140 122.80792
#
# Poissons Ratio (x) = -0.35550 0.23892
# Poissons Ratio (y) = -0.35550 0.23892
# Poissons Ratio (z) = 0.36637 0.36638
#
# Static dielectric constant tensor:
#      x y z
#    x 1.665990 0.000000 0.000000 
#    y 0.000000 1.666000 0.000000 
#    z 0.000000 0.000000 1.636750 
# 
# From -- ./inp_files/6951.got.cif
#   From: 2010.05.17/outbox.cif.g08.bks.cpg/sg131_4_cif.got.tgz:6951.got - 2010.05.20 12:21:01.
