data_PCOD9566385
_publ_section_title
;
Structure prediction by ZEFSAII (Michael W. Deem and Ramdas Pophale) SiO2 
 PCOD9566385
Probable space group: P 42/M M C
;
_chemical_formula_sum "Si O2"
_cell_formula_units_Z 72
_cell_length_a 14.555227
_cell_length_b 14.555227
_cell_length_c 18.632379
_cell_angle_alpha 90.000000
_cell_angle_beta 90.000000
_cell_angle_gamma 90.000000
_cell_volume 3947.355815
_symmetry_space_group_name_H-M "P 42/M M C"
_symmetry_group_IT_number 131
_symmetry_cell_setting 'tetragonal'
loop_
_space_group_symop_operation_xyz
x,y,z
-x,-y,z
-y,x,1/2+z
y,-x,1/2+z
-x,y,-z
x,-y,-z
y,x,1/2-z
-y,-x,1/2-z
-x,-y,-z
x,y,-z
y,-x,1/2-z
-y,x,1/2-z
x,-y,z
-x,y,z
-y,-x,1/2+z
y,x,1/2+z
loop_
_atom_site_type_symbol
_atom_site_label
_atom_site_fract_x
_atom_site_fract_y
_atom_site_fract_z
Si Si1 0.000000 0.395900 0.820522
Si Si2 0.315428 0.732551 0.868954
Si Si3 0.212297 0.000000 0.413016
Si Si4 0.814845 0.895130 0.913840
Si Si5 0.610699 0.609013 0.000000
Si Si6 0.800319 0.399292 0.229020
O O1 0.000000 0.313162 0.877603
O O2 0.909432 0.388872 0.772487
O O3 0.000000 0.500000 0.852824
O O4 0.268074 0.826336 0.895563
O O5 0.240021 0.675738 0.824338
O O6 0.388514 0.759702 0.808224
O O7 0.352708 0.666636 0.931446
O O8 0.154731 0.090421 0.391017
O O9 0.221161 0.000000 0.500000
O O10 0.806471 0.000000 0.886132
O O11 0.819437 0.900916 0.000000
O O12 0.500000 0.610979 0.000000
O O13 0.638118 0.500000 0.000000
O O14 0.776376 0.500000 0.200531
#
# Coordination Sequence:
#
# PCOD9566385 Si02
#       6
#     8  16   8  16   8  16
#     4  10  20  36  55  81 120 159 200 247 297 359
#     4  11  21  38  62  86 117 154 195 250 295 359
#     4  10  19  35  56  85 120 157 199 248 299 347
#     4  10  20  35  57  85 119 156 196 241 295 354
#     4  11  24  42  65  92 119 148 191 252 313 365
#     4  10  22  38  57  83 117 160 199 237 297 362
#
# _framework density 18.240057
#
# number of rings (size 3 to 8) (size 9 to 14) (size 15 to 20)
#    0.000    1.667    3.333    1.667    1.556    1.556 
#    0.000    0.000    0.000    6.000    0.000    0.000 
#    0.000    0.000    0.000    0.000    0.000    0.000 
#
# Total GULP energy -401356.750701 kJ/mol
# GULP energy per Si atom -5574.399315 kJ/mol
# Density = 1.819854 g / cm^3
# Si number density = 18.240057 Si / 1000 Ang^3
#
#
#
# Elastic Constant Matrix: (Units=GPa)
#
#
# Indices 1 2 3 4 5 6 
#
# 1 125.3335 55.8089 38.8868 0.0000 0.0000 0.0000
# 2 55.8089 125.3335 38.8868 0.0000 0.0000 0.0000
# 3 38.8868 38.8868 73.7473 0.0000 0.0000 0.0000
# 4 0.0000 0.0000 0.0000 21.6309 0.0000 0.0000
# 5 0.0000 0.0000 0.0000 0.0000 21.6309 0.0000
# 6 0.0000 0.0000 0.0000 0.0000 0.0000 27.4983
#
#
#
# Elastic Compliance Matrix: (Units=1/GPa)
#
#
# Indices 1 2 3 4 5 6 
#
# 1 0.010760 -0.003624 -0.003763 0.000000 0.000000 0.000000
# 2 -0.003624 0.010760 -0.003763 0.000000 0.000000 0.000000
# 3 -0.003763 -0.003763 0.017528 0.000000 0.000000 0.000000
# 4 0.000000 0.000000 0.000000 0.046230 0.000000 0.000000
# 5 0.000000 0.000000 0.000000 0.000000 0.046230 0.000000
# 6 0.000000 0.000000 0.000000 0.000000 0.000000 0.036366
#
#
# Mechanical properties :
#
#
# Convention : Reuss Voigt Hill
#
# Bulk Modulus (GPa) = 59.70542 65.73105 62.71823
# Shear Modulus (GPa) = 25.54205 26.87413 26.20809
#
# Velocity S-wave (km/s) = 3.74615 3.84260 3.79468
# Velocity P-wave (km/s) = 7.17745 7.47009 7.32523
#
# Compressibility (1/GPa) = 0.01674890
#
# Stress axis : x y z
#
# Youngs Moduli (GPa) = 92.93899 92.93899 57.05118
#
# Poissons Ratio (x) = 0.33678 0.21468
# Poissons Ratio (y) = 0.33678 0.21468
# Poissons Ratio (z) = 0.34972 0.34972
#
# Static dielectric constant tensor:
#      x y z
#    x 1.636490 0.000000 0.000000 
#    y 0.000000 1.636490 0.000000 
#    z 0.000000 0.000000 1.602450 
# 
# From -- ./inp_files/7676.got.cif
#   From: 2010.05.17/outbox.cif.g08.bks.cpg/sg131_4_cif.got.tgz:7676.got - 2010.05.20 12:21:01.
