data_PCOD9566658
_publ_section_title
;
Structure prediction by ZEFSAII (Michael W. Deem and Ramdas Pophale) SiO2 
 PCOD9566658
Probable space group: P 42/M M C
;
_chemical_formula_sum "Si O2"
_cell_formula_units_Z 92
_cell_length_a 15.416406
_cell_length_b 15.416406
_cell_length_c 18.949804
_cell_angle_alpha 90.000000
_cell_angle_beta 90.000000
_cell_angle_gamma 90.000000
_cell_volume 4503.716044
_symmetry_space_group_name_H-M "P 42/M M C"
_symmetry_group_IT_number 131
_symmetry_cell_setting 'tetragonal'
loop_
_space_group_symop_operation_xyz
x,y,z
-x,-y,z
-y,x,1/2+z
y,-x,1/2+z
-x,y,-z
x,-y,-z
y,x,1/2-z
-y,-x,1/2-z
-x,-y,-z
x,y,-z
y,-x,1/2-z
-y,x,1/2-z
x,-y,z
-x,y,z
-y,-x,1/2+z
y,x,1/2+z
loop_
_atom_site_type_symbol
_atom_site_label
_atom_site_fract_x
_atom_site_fract_y
_atom_site_fract_z
Si Si1 0.644758 0.283183 0.425211
Si Si2 0.139704 0.101670 0.832767
Si Si3 0.897193 0.500000 0.579855
Si Si4 0.177665 0.675846 0.639968
Si Si5 0.000000 0.400707 0.158056
Si Si6 0.000000 0.783685 0.915574
Si Si7 0.812022 0.401491 0.782002
Si Si8 0.500000 0.628189 0.500000
O O1 0.635339 0.232347 0.500000
O O2 0.742936 0.310144 0.413144
O O3 0.618457 0.228998 0.357562
O O4 0.577048 0.360933 0.439469
O O5 0.124504 0.124504 0.750000
O O6 0.239120 0.118543 0.854699
O O7 0.081381 0.166634 0.879560
O O8 0.117190 0.000000 0.842805
O O9 0.861467 0.500000 0.500000
O O10 0.869265 0.412352 0.618505
O O11 0.000000 0.500000 0.576277
O O12 0.214495 0.659422 0.718257
O O13 0.000000 0.318139 0.105922
O O14 0.085058 0.393273 0.206186
O O15 0.000000 0.500000 0.127637
O O16 0.000000 0.792982 0.000000
O O17 0.790216 0.500000 0.763252
#
# Coordination Sequence:
#
# PCOD9566658 Si02
#       8
#    16  16   8  16   8   8  16   4
#     4  10  20  40  64  92 132 176 222 273 343 415
#     4  12  26  46  72  97 134 189 239 288 352 417
#     4  11  26  45  64  97 140 183 222 282 360 423
#     4  12  24  40  69 101 135 176 234 288 338 419
#     4  10  24  38  63  96 142 182 224 280 355 423
#     4  12  27  47  68 105 143 179 238 298 347 419
#     4  11  21  38  61  98 131 176 224 279 339 406
#     4   8  20  38  68  88 126 180 222 274 344 427
#
# _framework density 20.427575999999998
#
# number of rings (size 3 to 8) (size 9 to 14) (size 15 to 20)
#    0.522    0.435    2.609    4.957    2.435    4.348 
#    0.000    1.739    0.000    1.043    0.000    1.217 
#    0.000    0.000    0.000    0.000    0.000    0.000 
#
# Total GULP energy -512474.908777 kJ/mol
# GULP energy per Si atom -5570.379443 kJ/mol
# Density = 2.038108 g / cm^3
# Si number density = 20.427576 Si / 1000 Ang^3
#
#
#
# Elastic Constant Matrix: (Units=GPa)
#
#
# Indices 1 2 3 4 5 6 
#
# 1 105.8891 25.7324 30.4798 0.0000 0.0000 0.0000
# 2 25.7324 105.8891 30.4798 0.0000 0.0000 0.0000
# 3 30.4798 30.4798 130.0098 0.0000 0.0000 0.0000
# 4 0.0000 0.0000 0.0000 13.1717 0.0000 0.0000
# 5 0.0000 0.0000 0.0000 0.0000 13.1717 0.0000
# 6 0.0000 0.0000 0.0000 0.0000 0.0000 14.2456
#
#
#
# Elastic Compliance Matrix: (Units=1/GPa)
#
#
# Indices 1 2 3 4 5 6 
#
# 1 0.010499 -0.001976 -0.001998 0.000000 0.000000 0.000000
# 2 -0.001976 0.010499 -0.001998 0.000000 0.000000 0.000000
# 3 -0.001998 -0.001998 0.008629 0.000000 0.000000 0.000000
# 4 0.000000 0.000000 0.000000 0.075920 0.000000 0.000000
# 5 0.000000 0.000000 0.000000 0.000000 0.075920 0.000000
# 6 0.000000 0.000000 0.000000 0.000000 0.000000 0.070197
#
#
# Mechanical properties :
#
#
# Convention : Reuss Voigt Hill
#
# Bulk Modulus (GPa) = 56.55471 57.24132 56.89802
# Shear Modulus (GPa) = 18.55264 25.12422 21.83843
#
# Velocity S-wave (km/s) = 3.01693 3.51082 3.27320
# Velocity P-wave (km/s) = 6.31517 6.67210 6.49609
#
# Compressibility (1/GPa) = 0.01768199
#
# Stress axis : x y z
#
# Youngs Moduli (GPa) = 95.24472 95.24472 115.89331
#
# Poissons Ratio (x) = 0.18823 0.23157
# Poissons Ratio (y) = 0.18823 0.23157
# Poissons Ratio (z) = 0.19031 0.19031
#
# Static dielectric constant tensor:
#      x y z
#    x 1.743430 0.000000 0.000000 
#    y 0.000000 1.743430 0.000000 
#    z 0.000000 0.000000 1.737410 
# 
# From -- ./inp_files/9834.got.cif
#   From: 2010.05.17/outbox.cif.g08.bks.cpg/sg131_5_cif.got.tgz:9834.got - 2010.05.20 12:21:01.
