data_PCOD9566624
_publ_section_title
;
Structure prediction by ZEFSAII (Michael W. Deem and Ramdas Pophale) SiO2 
 PCOD9566624
Probable space group: P 42/M M C
;
_chemical_formula_sum "Si O2"
_cell_formula_units_Z 40
_cell_length_a 8.021351
_cell_length_b 8.021351
_cell_length_c 30.232356
_cell_angle_alpha 90.000000
_cell_angle_beta 90.000000
_cell_angle_gamma 90.000000
_cell_volume 1945.212422
_symmetry_space_group_name_H-M "P 42/M M C"
_symmetry_group_IT_number 131
_symmetry_cell_setting 'tetragonal'
loop_
_space_group_symop_operation_xyz
x,y,z
-x,-y,z
-y,x,1/2+z
y,-x,1/2+z
-x,y,-z
x,-y,-z
y,x,1/2-z
-y,-x,1/2-z
-x,-y,-z
x,y,-z
y,-x,1/2-z
-y,x,1/2-z
x,-y,z
-x,y,z
-y,-x,1/2+z
y,x,1/2+z
loop_
_atom_site_type_symbol
_atom_site_label
_atom_site_fract_x
_atom_site_fract_y
_atom_site_fract_z
Si Si1 0.000000 0.698420 0.549943
Si Si2 0.805339 0.203556 0.298195
Si Si3 0.798831 0.318088 0.892794
O O1 0.835480 0.749722 0.576653
O O2 0.000000 0.500000 0.547398
O O3 0.000000 0.767547 0.500000
O O4 0.741434 0.258566 0.250000
O O5 0.712289 0.258899 0.342278
O O6 0.000000 0.250435 0.302793
O O7 0.800313 0.000000 0.296828
O O8 0.741336 0.500000 0.908483
O O9 0.000000 0.319258 0.891388
#
# Coordination Sequence:
#
# PCOD9566624 Si02
#       3
#     8  16  16
#     4  11  25  43  61  81 111 157 203 245 303 366
#     4   8  13  25  50  81 116 153 191 227 277 347
#     4  10  20  36  61  91 119 148 191 248 303 356
#
# _framework density 20.563305
#
# number of rings (size 3 to 8) (size 9 to 14) (size 15 to 20)
#    0.000    2.600    2.000    1.800    0.000    3.200 
#    0.000    6.000    0.000    0.000    0.000    0.000 
#    0.000    0.000    0.000    0.000    0.000    0.000 
#
# Total GULP energy -223183.191937 kJ/mol
# GULP energy per Si atom -5579.579798 kJ/mol
# Density = 2.051650 g / cm^3
# Si number density = 20.563305 Si / 1000 Ang^3
#
#
#
# Elastic Constant Matrix: (Units=GPa)
#
#
# Indices 1 2 3 4 5 6 
#
# 1 84.5664 26.8462 59.4024 0.0000 0.0000 0.0000
# 2 26.8462 84.5662 59.4023 0.0000 0.0000 0.0000
# 3 59.4024 59.4023 174.7002 0.0000 0.0000 0.0000
# 4 0.0000 0.0000 0.0000 -68.6638 0.0000 0.0000
# 5 0.0000 0.0000 0.0000 0.0000 -68.6641 0.0000
# 6 0.0000 0.0000 0.0000 0.0000 0.0000 -2.5758
#
#
#
# Elastic Compliance Matrix: (Units=1/GPa)
#
#
# Indices 1 2 3 4 5 6 
#
# 1 0.015703 -0.001622 -0.004788 0.000000 0.000000 0.000000
# 2 -0.001622 0.015703 -0.004788 0.000000 0.000000 0.000000
# 3 -0.004788 -0.004788 0.008980 0.000000 0.000000 0.000000
# 4 0.000000 0.000000 0.000000 -0.014564 0.000000 0.000000
# 5 0.000000 0.000000 0.000000 0.000000 -0.014564 0.000000
# 6 0.000000 0.000000 0.000000 0.000000 0.000000 -0.388234
#
#
# Mechanical properties :
#
#
# Convention : Reuss Voigt Hill
#
# Bulk Modulus (GPa) = 55.58384 70.57050 63.07717
# Shear Modulus (GPa) = -14.34382 -14.76861 -14.55622
#
# Velocity S-wave (km/s) = -2.64397 -2.68284 -2.66348
# Velocity P-wave (km/s) = 4.21527 4.97959 4.61329
#
# Compressibility (1/GPa) = 0.01799084
#
# Stress axis : x y z
#
# Youngs Moduli (GPa) = 63.68148 63.68136 111.35651
#
# Poissons Ratio (x) = 0.10328 0.53317
# Poissons Ratio (y) = 0.10328 0.53317
# Poissons Ratio (z) = 0.30491 0.30491
#
# Static dielectric constant tensor:
#      x y z
#    x 1.758060 0.000000 0.000000 
#    y 0.000000 1.758060 0.000000 
#    z 0.000000 0.000000 1.743050 
# 
# From -- ./inp_files/11699.got.cif
#   From: 2010.05.17/outbox.cif.g08.bks.cpg/sg131_6_cif.got.tgz:11699.got - 2010.05.20 12:21:01.
