data_PCOD9566835
_publ_section_title
;
Structure prediction by ZEFSAII (Michael W. Deem and Ramdas Pophale) SiO2 
 PCOD9566835
Probable space group: P 42/M M C
;
_chemical_formula_sum "Si O2"
_cell_formula_units_Z 50
_cell_length_a 22.089975
_cell_length_b 22.089975
_cell_length_c 7.864303
_cell_angle_alpha 90.000000
_cell_angle_beta 90.000000
_cell_angle_gamma 90.000000
_cell_volume 3837.520307
_symmetry_space_group_name_H-M "P 42/M M C"
_symmetry_group_IT_number 131
_symmetry_cell_setting 'tetragonal'
loop_
_space_group_symop_operation_xyz
x,y,z
-x,-y,z
-y,x,1/2+z
y,-x,1/2+z
-x,y,-z
x,-y,-z
y,x,1/2-z
-y,-x,1/2-z
-x,-y,-z
x,y,-z
y,-x,1/2-z
-y,x,1/2-z
x,-y,z
-x,y,z
-y,-x,1/2+z
y,x,1/2+z
loop_
_atom_site_type_symbol
_atom_site_label
_atom_site_fract_x
_atom_site_fract_y
_atom_site_fract_z
Si Si1 0.000000 0.128377 0.807563
Si Si2 0.926573 0.569025 0.000000
Si Si3 0.886673 0.791953 0.702347
Si Si4 0.072924 0.659068 0.300499
Si Si5 0.000000 0.000000 0.250000
O O1 0.059110 0.168924 0.781800
O O2 0.000000 0.069979 0.687398
O O3 0.000000 0.104128 0.000000
O O4 0.909749 0.606400 0.169329
O O5 0.904380 0.500000 0.000000
O O6 0.000000 0.566793 0.000000
O O7 0.823919 0.823919 0.750000
O O8 0.894768 0.795063 0.500000
O O9 0.895041 0.721934 0.749773
O O10 0.085420 0.645697 0.500000
O O11 0.000000 0.668713 0.287191
#
# Coordination Sequence:
#
# PCOD9566835 Si02
#       5
#     8   8  16  16   2
#     4  12  24  33  46  55  71 101 135 180 227 266
#     4   9  18  30  48  70  86 102 130 162 207 268
#     4  11  22  33  45  61  79 104 141 176 213 262
#     4   9  18  31  46  62  85 109 132 166 211 261
#     4  12  26  36  40  54  78  92 138 192 234 264
#
# _framework density 13.029248000000001
#
# number of rings (size 3 to 8) (size 9 to 14) (size 15 to 20)
#    0.000    1.760    3.200    1.680    4.480    1.920 
#    0.000    3.200    0.000    0.000    0.000    0.000 
#    0.000    0.000    0.000    0.000    0.000    0.000 
#
# Total GULP energy -278698.058814 kJ/mol
# GULP energy per Si atom -5573.961176 kJ/mol
# Density = 1.299959 g / cm^3
# Si number density = 13.029248 Si / 1000 Ang^3
#
#
#
# Elastic Constant Matrix: (Units=GPa)
#
#
# Indices 1 2 3 4 5 6 
#
# 1 87.8740 31.8405 40.7773 0.0000 0.0000 0.0000
# 2 31.8405 87.8740 40.7773 0.0000 0.0000 0.0000
# 3 40.7773 40.7773 72.2323 0.0000 0.0000 0.0000
# 4 0.0000 0.0000 0.0000 15.2989 0.0000 0.0000
# 5 0.0000 0.0000 0.0000 0.0000 15.2989 0.0000
# 6 0.0000 0.0000 0.0000 0.0000 0.0000 7.5471
#
#
#
# Elastic Compliance Matrix: (Units=1/GPa)
#
#
# Indices 1 2 3 4 5 6 
#
# 1 0.015710 -0.002137 -0.007662 0.000000 0.000000 0.000000
# 2 -0.002137 0.015710 -0.007662 0.000000 0.000000 0.000000
# 3 -0.007662 -0.007662 0.022496 0.000000 0.000000 0.000000
# 4 0.000000 0.000000 0.000000 0.065364 0.000000 0.000000
# 5 0.000000 0.000000 0.000000 0.000000 0.065364 0.000000
# 6 0.000000 0.000000 0.000000 0.000000 0.000000 0.132500
#
#
# Mechanical properties :
#
#
# Convention : Reuss Voigt Hill
#
# Bulk Modulus (GPa) = 52.65342 52.75227 52.70285
# Shear Modulus (GPa) = 13.95098 16.60136 15.27617
#
# Velocity S-wave (km/s) = 3.27577 3.57341 3.42782
# Velocity P-wave (km/s) = 7.40318 7.58954 7.49694
#
# Compressibility (1/GPa) = 0.01899212
#
# Stress axis : x y z
#
# Youngs Moduli (GPa) = 63.65444 63.65444 44.45314
#
# Poissons Ratio (x) = 0.13601 0.34062
# Poissons Ratio (y) = 0.13601 0.34062
# Poissons Ratio (z) = 0.48775 0.48775
#
# Static dielectric constant tensor:
#      x y z
#    x 1.409990 0.000000 0.000000 
#    y 0.000000 1.409990 0.000000 
#    z 0.000000 0.000000 1.508100 
# 
# From -- ./inp_files/1162.got.cif
#   From: 2010.05.17/outbox.cif.g08.bks.cpg/sg131_1_cif.got.tgz:1162.got - 2010.05.20 12:21:01.
