data_PCOD9566412
_publ_section_title
;
Structure prediction by ZEFSAII (Michael W. Deem and Ramdas Pophale) SiO2 
 PCOD9566412
Probable space group: P 42/M M C
;
_chemical_formula_sum "Si O2"
_cell_formula_units_Z 112
_cell_length_a 13.827169
_cell_length_b 13.827169
_cell_length_c 32.858790
_cell_angle_alpha 90.000000
_cell_angle_beta 90.000000
_cell_angle_gamma 90.000000
_cell_volume 6282.291859
_symmetry_space_group_name_H-M "P 42/M M C"
_symmetry_group_IT_number 131
_symmetry_cell_setting 'tetragonal'
loop_
_space_group_symop_operation_xyz
x,y,z
-x,-y,z
-y,x,1/2+z
y,-x,1/2+z
-x,y,-z
x,-y,-z
y,x,1/2-z
-y,-x,1/2-z
-x,-y,-z
x,y,-z
y,-x,1/2-z
-y,x,1/2-z
x,-y,z
-x,y,z
-y,-x,1/2+z
y,x,1/2+z
loop_
_atom_site_type_symbol
_atom_site_label
_atom_site_fract_x
_atom_site_fract_y
_atom_site_fract_z
Si Si1 0.196833 0.811233 0.293604
Si Si2 0.709372 0.383785 0.544131
Si Si3 0.886257 0.310119 0.415011
Si Si4 0.613482 0.284646 0.287398
Si Si5 0.385285 0.389770 0.626708
Si Si6 0.884258 0.390892 0.325162
Si Si7 0.883956 0.892033 0.375835
O O1 0.156237 0.843764 0.250000
O O2 0.312602 0.804858 0.288266
O O3 0.163018 0.700237 0.302560
O O4 0.163931 0.872195 0.332114
O O5 0.672764 0.349939 0.500000
O O6 0.698921 0.500000 0.544640
O O7 0.820260 0.354035 0.550185
O O8 0.659200 0.346759 0.585469
O O9 0.868196 0.370275 0.373232
O O10 0.859437 0.198713 0.404653
O O11 0.000000 0.314890 0.423730
O O12 0.647000 0.353000 0.250000
O O13 0.500000 0.262502 0.283782
O O14 0.631107 0.335760 0.330998
O O15 0.350019 0.500000 0.631421
O O16 0.500000 0.392724 0.620606
O O17 0.851913 0.500000 0.314376
O O18 0.000000 0.385950 0.318792
O O19 0.000000 0.886540 0.370160
O O20 0.859872 0.000000 0.390620
#
# Coordination Sequence:
#
# PCOD9566412 Si02
#       7
#    16  16  16  16  16  16  16
#     4  10  20  30  44  66  95 127 159 198 245 294
#     4  10  20  31  45  69 100 133 166 198 237 289
#     4   9  17  30  48  70  94 119 148 185 233 288
#     4  10  20  32  47  69  98 132 170 210 248 288
#     4   9  17  29  45  64  89 125 166 205 242 277
#     4   9  17  30  48  67  87 115 152 192 237 291
#     4   9  18  33  53  74  93 118 157 203 250 299
#
# _framework density 17.827888000000002
#
# number of rings (size 3 to 8) (size 9 to 14) (size 15 to 20)
#    0.000    2.571    0.000    3.857    0.000    7.286 
#    0.000    2.857    0.000    0.857    0.000    2.000 
#    0.000    0.000    0.000    5.143    0.000    0.143 
#
# Total GULP energy -624247.910792 kJ/mol
# GULP energy per Si atom -5573.642061 kJ/mol
# Density = 1.778731 g / cm^3
# Si number density = 17.827888 Si / 1000 Ang^3
#
#
#
# Elastic Constant Matrix: (Units=GPa)
#
#
# Indices 1 2 3 4 5 6 
#
# 1 30.1383 5.5586 8.8250 0.0000 0.0000 0.0000
# 2 5.5586 30.1379 8.8248 0.0000 0.0000 0.0000
# 3 8.8250 8.8248 86.0465 0.0000 0.0000 0.0000
# 4 0.0000 0.0000 0.0000 11.4984 0.0000 0.0000
# 5 0.0000 0.0000 0.0000 0.0000 11.4984 0.0000
# 6 0.0000 0.0000 0.0000 0.0000 0.0000 16.6749
#
#
#
# Elastic Compliance Matrix: (Units=1/GPa)
#
#
# Indices 1 2 3 4 5 6 
#
# 1 0.035097 -0.005587 -0.003027 0.000000 0.000000 0.000000
# 2 -0.005587 0.035098 -0.003027 0.000000 0.000000 0.000000
# 3 -0.003027 -0.003027 0.012242 0.000000 0.000000 0.000000
# 4 0.000000 0.000000 0.000000 0.086968 0.000000 0.000000
# 5 0.000000 0.000000 0.000000 0.000000 0.086969 0.000000
# 6 0.000000 0.000000 0.000000 0.000000 0.000000 0.059970
#
#
# Mechanical properties :
#
#
# Convention : Reuss Voigt Hill
#
# Bulk Modulus (GPa) = 16.90425 21.41550 19.15988
# Shear Modulus (GPa) = 13.91424 16.14195 15.02810
#
# Velocity S-wave (km/s) = 2.79673 3.01231 2.90652
# Velocity P-wave (km/s) = 4.46446 4.91295 4.69407
#
# Compressibility (1/GPa) = 0.05915671
#
# Stress axis : x y z
#
# Youngs Moduli (GPa) = 28.49238 28.49204 81.68314
#
# Poissons Ratio (x) = 0.15919 0.24722
# Poissons Ratio (y) = 0.15919 0.24722
# Poissons Ratio (z) = 0.08623 0.08623
#
# Static dielectric constant tensor:
#      x y z
#    x 1.637310 0.000000 0.000000 
#    y 0.000000 1.637310 0.000000 
#    z 0.000000 0.000000 1.639060 
# 
# From -- ./inp_files/13814.got.cif
#   From: 2010.05.17/outbox.cif.g08.bks.cpg/sg131_7_cif.got.tgz:13814.got - 2010.05.20 12:21:01.
