data_PCOD9566756
_publ_section_title
;
Structure prediction by ZEFSAII (Michael W. Deem and Ramdas Pophale) SiO2 
 PCOD9566756
Probable space group: P 42/M M C
;
_chemical_formula_sum "Si O2"
_cell_formula_units_Z 76
_cell_length_a 11.224013
_cell_length_b 11.224013
_cell_length_c 31.593818
_cell_angle_alpha 90.000000
_cell_angle_beta 90.000000
_cell_angle_gamma 90.000000
_cell_volume 3980.140784
_symmetry_space_group_name_H-M "P 42/M M C"
_symmetry_group_IT_number 131
_symmetry_cell_setting 'tetragonal'
loop_
_space_group_symop_operation_xyz
x,y,z
-x,-y,z
-y,x,1/2+z
y,-x,1/2+z
-x,y,-z
x,-y,-z
y,x,1/2-z
-y,-x,1/2-z
-x,-y,-z
x,y,-z
y,-x,1/2-z
-y,x,1/2-z
x,-y,z
-x,y,z
-y,-x,1/2+z
y,x,1/2+z
loop_
_atom_site_type_symbol
_atom_site_label
_atom_site_fract_x
_atom_site_fract_y
_atom_site_fract_z
Si Si1 0.140221 0.000000 0.304274
Si Si2 0.257432 0.500000 0.050868
Si Si3 0.859057 0.359362 0.325859
Si Si4 0.735870 0.757124 0.911472
Si Si5 0.500000 0.000000 0.407067
Si Si6 0.638410 0.000000 0.950485
Si Si7 0.780288 0.219713 0.750000
Si Si8 0.755728 0.000000 0.393591
O O1 0.201682 0.113309 0.283376
O O2 0.157524 0.000000 0.354161
O O3 0.000000 0.000000 0.295196
O O4 0.303327 0.626463 0.071018
O O5 0.117461 0.500000 0.063876
O O6 0.273560 0.500000 0.000000
O O7 0.858861 0.500000 0.334522
O O8 0.780145 0.295149 0.362008
O O9 0.803266 0.332913 0.279687
O O10 0.000000 0.319145 0.326834
O O11 0.877732 0.767487 0.918399
O O12 0.684251 0.874888 0.932877
O O13 0.617915 0.000000 0.378800
O O14 0.500000 0.000000 0.940760
O O15 0.660093 0.000000 0.000000
#
# Coordination Sequence:
#
# PCOD9566756 Si02
#       8
#     8   8  16  16   4   8   8   8
#     4  12  20  31  54  87 122 152 187 247 308 360
#     4  10  21  40  65  94 127 165 214 264 316 387
#     4  11  23  41  62  88 122 165 211 254 316 383
#     4  11  22  40  65  93 125 168 207 258 323 386
#     4   8  19  40  56  90 124 174 196 244 318 384
#     4  11  24  42  63  90 124 164 209 260 318 378
#     4  12  21  38  58  87 118 156 200 254 308 365
#     4  10  22  35  60  91 126 158 205 249 313 384
#
# _framework density 19.094799999999999
#
# number of rings (size 3 to 8) (size 9 to 14) (size 15 to 20)
#    0.000    1.158    5.263    1.421    1.474    0.000 
#    3.789    4.211    0.000    3.789    0.000    0.000 
#    0.000    0.000    0.000    0.000    0.000    0.000 
#
# Total GULP energy -423575.019835 kJ/mol
# GULP energy per Si atom -5573.355524 kJ/mol
# Density = 1.905134 g / cm^3
# Si number density = 19.094800 Si / 1000 Ang^3
#
#
#
# Elastic Constant Matrix: (Units=GPa)
#
#
# Indices 1 2 3 4 5 6 
#
# 1 108.9803 53.5537 31.8844 0.0000 0.0000 0.0000
# 2 53.5537 108.9803 31.8848 0.0000 0.0000 0.0000
# 3 31.8844 31.8848 98.5806 0.0000 0.0000 0.0000
# 4 0.0000 0.0000 0.0000 26.8820 0.0000 0.0000
# 5 0.0000 0.0000 0.0000 0.0000 26.8820 0.0000
# 6 0.0000 0.0000 0.0000 0.0000 0.0000 -19.6880
#
#
#
# Elastic Compliance Matrix: (Units=1/GPa)
#
#
# Indices 1 2 3 4 5 6 
#
# 1 0.012544 -0.005498 -0.002279 0.000000 0.000000 0.000000
# 2 -0.005498 0.012544 -0.002279 0.000000 0.000000 0.000000
# 3 -0.002279 -0.002279 0.011618 0.000000 0.000000 0.000000
# 4 0.000000 0.000000 0.000000 0.037200 0.000000 0.000000
# 5 0.000000 0.000000 0.000000 0.000000 0.037200 0.000000
# 6 0.000000 0.000000 0.000000 0.000000 0.000000 -0.050792
#
#
# Mechanical properties :
#
#
# Convention : Reuss Voigt Hill
#
# Bulk Modulus (GPa) = 60.25860 61.24300 60.75080
# Shear Modulus (GPa) = 58.16828 20.09642 39.13235
#
# Velocity S-wave (km/s) = 5.52531 3.24768 4.53191
# Velocity P-wave (km/s) = 8.50479 6.79750 7.69862
#
# Compressibility (1/GPa) = 0.01659514
#
# Stress axis : x y z
#
# Youngs Moduli (GPa) = 79.71741 79.71718 86.07091
#
# Poissons Ratio (x) = 0.43825 0.19617
# Poissons Ratio (y) = 0.43825 0.19618
# Poissons Ratio (z) = 0.18169 0.18169
#
# Static dielectric constant tensor:
#      x y z
#    x 1.711810 0.000000 0.000000 
#    y 0.000000 1.711810 0.000000 
#    z 0.000000 0.000000 1.670750 
# 
# From -- ./inp_files/13533.got.cif
#   From: 2010.05.17/outbox.cif.g08.bks.cpg/sg131_7_cif.got.tgz:13533.got - 2010.05.20 12:21:01.
