data_PCOD9566282
_publ_section_title
;
Structure prediction by ZEFSAII (Michael W. Deem and Ramdas Pophale) SiO2 
 PCOD9566282
Probable space group: P 42/M M C
;
_chemical_formula_sum "Si O2"
_cell_formula_units_Z 104
_cell_length_a 19.043638
_cell_length_b 19.043638
_cell_length_c 17.000105
_cell_angle_alpha 90.000000
_cell_angle_beta 90.000000
_cell_angle_gamma 90.000000
_cell_volume 6165.260600
_symmetry_space_group_name_H-M "P 42/M M C"
_symmetry_group_IT_number 131
_symmetry_cell_setting 'tetragonal'
loop_
_space_group_symop_operation_xyz
x,y,z
-x,-y,z
-y,x,1/2+z
y,-x,1/2+z
-x,y,-z
x,-y,-z
y,x,1/2-z
-y,-x,1/2-z
-x,-y,-z
x,y,-z
y,-x,1/2-z
-y,x,1/2-z
x,-y,z
-x,y,z
-y,-x,1/2+z
y,x,1/2+z
loop_
_atom_site_type_symbol
_atom_site_label
_atom_site_fract_x
_atom_site_fract_y
_atom_site_fract_z
Si Si1 0.082453 0.855246 0.827900
Si Si2 0.679700 0.384890 0.171083
Si Si3 0.293687 0.078434 0.249952
Si Si4 0.331284 0.757553 0.088834
Si Si5 0.419725 0.813946 0.766377
Si Si6 0.223898 0.883646 0.911434
Si Si7 0.581640 0.500000 0.905700
O O1 0.098476 0.901525 0.750000
O O2 0.097822 0.774386 0.802285
O O3 0.141557 0.876995 0.890709
O O4 0.000000 0.861066 0.849401
O O5 0.643363 0.356638 0.250000
O O6 0.693540 0.318612 0.115854
O O7 0.751796 0.418375 0.201861
O O8 0.624859 0.434628 0.127838
O O9 0.359850 0.129685 0.255841
O O10 0.262672 0.078037 0.160801
O O11 0.315334 0.000000 0.271262
O O12 0.390135 0.783074 0.150863
O O13 0.264267 0.808987 0.091459
O O14 0.358773 0.757258 0.000000
O O15 0.500000 0.839547 0.774300
O O16 0.233347 0.911742 0.000000
O O17 0.500000 0.500000 0.880543
O O18 0.583093 0.500000 0.000000
#
# Coordination Sequence:
#
# PCOD9566282 Si02
#       7
#    16  16  16  16  16  16   8
#     4   9  17  30  48  70  98 130 164 201 241 289
#     4  10  20  33  51  69  94 128 163 205 249 295
#     4   9  18  32  50  71  99 132 165 204 249 301
#     4   9  18  32  50  69  93 125 161 202 245 296
#     4  10  19  32  50  74  97 125 165 208 255 299
#     4   9  17  30  49  73  98 126 162 201 244 292
#     4  11  24  36  48  70  99 131 165 200 244 306
#
# _framework density 16.868711000000001
#
# number of rings (size 3 to 8) (size 9 to 14) (size 15 to 20)
#    0.000    2.538    0.769    1.385    1.077    5.692 
#    0.000    0.000    0.000    0.000    0.000    8.615 
#    0.000    0.615    0.000    0.000    0.000    0.000 
#
# Total GULP energy -579192.022105 kJ/mol
# GULP energy per Si atom -5569.154059 kJ/mol
# Density = 1.683032 g / cm^3
# Si number density = 16.868711 Si / 1000 Ang^3
#
#
#
# Elastic Constant Matrix: (Units=GPa)
#
#
# Indices 1 2 3 4 5 6 
#
# 1 86.6832 32.3281 12.4825 0.0000 0.0000 0.0000
# 2 32.3281 86.6820 12.4828 0.0000 0.0000 0.0000
# 3 12.4825 12.4828 30.4186 0.0000 0.0000 0.0000
# 4 0.0000 0.0000 0.0000 9.7493 0.0000 0.0000
# 5 0.0000 0.0000 0.0000 0.0000 9.7482 0.0000
# 6 0.0000 0.0000 0.0000 0.0000 0.0000 14.4945
#
#
#
# Elastic Compliance Matrix: (Units=1/GPa)
#
#
# Indices 1 2 3 4 5 6 
#
# 1 0.013796 -0.004602 -0.003773 0.000000 0.000000 0.000000
# 2 -0.004602 0.013796 -0.003773 0.000000 0.000000 0.000000
# 3 -0.003773 -0.003773 0.035971 0.000000 0.000000 0.000000
# 4 0.000000 0.000000 0.000000 0.102571 0.000000 0.000000
# 5 0.000000 0.000000 0.000000 0.000000 0.102583 0.000000
# 6 0.000000 0.000000 0.000000 0.000000 0.000000 0.068992
#
#
# Mechanical properties :
#
#
# Convention : Reuss Voigt Hill
#
# Bulk Modulus (GPa) = 25.46627 35.37452 30.42040
# Shear Modulus (GPa) = 13.33002 16.56444 14.94723
#
# Velocity S-wave (km/s) = 2.81414 3.13703 2.97996
# Velocity P-wave (km/s) = 5.06840 5.84271 5.46928
#
# Compressibility (1/GPa) = 0.03926763
#
# Stress axis : x y z
#
# Youngs Moduli (GPa) = 72.48594 72.48467 27.80012
#
# Poissons Ratio (x) = 0.33356 0.10488
# Poissons Ratio (y) = 0.33357 0.10489
# Poissons Ratio (z) = 0.27347 0.27349
#
# Static dielectric constant tensor:
#      x y z
#    x 1.565990 0.000000 0.000000 
#    y 0.000000 1.566000 0.000000 
#    z 0.000000 0.000000 1.567640 
# 
# From -- ./inp_files/8073.got.cif
#   From: 2010.05.17/outbox.cif.g08.bks.cpg/sg131_5_cif.got.tgz:8073.got - 2010.05.20 12:21:01.
