data_PCOD9566715
_publ_section_title
;
Structure prediction by ZEFSAII (Michael W. Deem and Ramdas Pophale) SiO2 
 PCOD9566715
Probable space group: P 42/M M C
;
_chemical_formula_sum "Si O2"
_cell_formula_units_Z 112
_cell_length_a 14.118315
_cell_length_b 14.118315
_cell_length_c 28.835153
_cell_angle_alpha 90.000000
_cell_angle_beta 90.000000
_cell_angle_gamma 90.000000
_cell_volume 5747.619307
_symmetry_space_group_name_H-M "P 42/M M C"
_symmetry_group_IT_number 131
_symmetry_cell_setting 'tetragonal'
loop_
_space_group_symop_operation_xyz
x,y,z
-x,-y,z
-y,x,1/2+z
y,-x,1/2+z
-x,y,-z
x,-y,-z
y,x,1/2-z
-y,-x,1/2-z
-x,-y,-z
x,y,-z
y,-x,1/2-z
-y,x,1/2-z
x,-y,z
-x,y,z
-y,-x,1/2+z
y,x,1/2+z
loop_
_atom_site_type_symbol
_atom_site_label
_atom_site_fract_x
_atom_site_fract_y
_atom_site_fract_z
Si Si1 0.613558 0.891435 0.870621
Si Si2 0.114103 0.816742 0.049047
Si Si3 0.268674 0.772816 0.803064
Si Si4 0.614093 0.267170 0.053910
Si Si5 0.294762 0.605585 0.870494
Si Si6 0.889691 0.395658 0.922875
Si Si7 0.890508 0.113322 0.351241
O O1 0.500000 0.886132 0.866333
O O2 0.660725 0.853381 0.823227
O O3 0.639809 0.823744 0.914199
O O4 0.640463 0.000000 0.879158
O O5 0.132023 0.703448 0.051815
O O6 0.144285 0.868262 0.095848
O O7 0.000000 0.827179 0.048385
O O8 0.151369 0.853801 0.000000
O O9 0.254629 0.745372 0.750000
O O10 0.306649 0.680603 0.830047
O O11 0.168142 0.814182 0.820654
O O12 0.500000 0.274861 0.054327
O O13 0.658045 0.354804 0.082328
O O14 0.643737 0.261631 0.000000
O O15 0.328397 0.500000 0.860317
O O16 0.182438 0.603496 0.880487
O O17 0.876983 0.500000 0.946056
O O18 0.000000 0.389811 0.909944
O O19 0.000000 0.134418 0.339409
O O20 0.878283 0.000000 0.348122
#
# Coordination Sequence:
#
# PCOD9566715 Si02
#       7
#    16  16  16  16  16  16  16
#     4   9  19  38  62  88 119 152 190 239 291 341
#     4   9  17  30  49  73 104 144 185 222 264 320
#     4  11  23  39  60  82 108 143 187 242 296 351
#     4   9  19  36  59  89 123 158 194 230 272 329
#     4  10  21  37  57  83 114 148 186 232 286 341
#     4   9  17  31  51  75 107 145 182 223 272 325
#     4  10  21  37  55  78 111 146 184 231 280 336
#
# _framework density 19.486329000000001
#
# number of rings (size 3 to 8) (size 9 to 14) (size 15 to 20)
#    0.000    2.429    1.429    0.429    0.000    3.714 
#    0.000    7.143    0.000    3.429    0.000    2.000 
#    0.000    0.000    0.000    0.000    0.000    0.000 
#
# Total GULP energy -624063.496718 kJ/mol
# GULP energy per Si atom -5571.995506 kJ/mol
# Density = 1.944198 g / cm^3
# Si number density = 19.486329 Si / 1000 Ang^3
#
#
#
# Elastic Constant Matrix: (Units=GPa)
#
#
# Indices 1 2 3 4 5 6 
#
# 1 79.0583 20.9984 23.7826 0.0000 0.0000 0.0000
# 2 20.9984 79.0583 23.7828 0.0000 0.0000 0.0000
# 3 23.7826 23.7828 118.0974 0.0000 0.0000 0.0000
# 4 0.0000 0.0000 0.0000 -2.9637 0.0000 0.0000
# 5 0.0000 0.0000 0.0000 0.0000 -2.9633 0.0000
# 6 0.0000 0.0000 0.0000 0.0000 0.0000 22.0297
#
#
#
# Elastic Compliance Matrix: (Units=1/GPa)
#
#
# Indices 1 2 3 4 5 6 
#
# 1 0.014138 -0.003086 -0.002226 0.000000 0.000000 0.000000
# 2 -0.003086 0.014138 -0.002226 0.000000 0.000000 0.000000
# 3 -0.002226 -0.002226 0.009364 0.000000 0.000000 0.000000
# 4 0.000000 0.000000 0.000000 -0.337412 0.000000 0.000000
# 5 0.000000 0.000000 0.000000 0.000000 -0.337460 0.000000
# 6 0.000000 0.000000 0.000000 0.000000 0.000000 0.045393
#
#
# Mechanical properties :
#
#
# Convention : Reuss Voigt Hill
#
# Bulk Modulus (GPa) = 44.31475 45.92686 45.12081
# Shear Modulus (GPa) = -8.78360 17.06389 4.14015
#
# Velocity S-wave (km/s) = -2.12541 2.96241 1.45920
# Velocity P-wave (km/s) = 4.09484 5.94315 5.10337
#
# Compressibility (1/GPa) = 0.02256585
#
# Stress axis : x y z
#
# Youngs Moduli (GPa) = 70.73139 70.73134 106.79148
#
# Poissons Ratio (x) = 0.21825 0.23769
# Poissons Ratio (y) = 0.21825 0.23769
# Poissons Ratio (z) = 0.15743 0.15743
#
# Static dielectric constant tensor:
#      x y z
#    x 1.722150 0.000000 0.000000 
#    y 0.000000 1.722150 0.000000 
#    z 0.000000 0.000000 1.667230 
# 
# From -- ./inp_files/11286.got.cif
#   From: 2010.05.17/outbox.cif.g08.bks.cpg/sg131_6_cif.got.tgz:11286.got - 2010.05.20 12:21:01.
