data_PCOD9566307
_publ_section_title
;
Structure prediction by ZEFSAII (Michael W. Deem and Ramdas Pophale) SiO2 
 PCOD9566307
Probable space group: P 42/M M C
;
_chemical_formula_sum "Si O2"
_cell_formula_units_Z 48
_cell_length_a 8.013321
_cell_length_b 8.013321
_cell_length_c 38.068956
_cell_angle_alpha 90.000000
_cell_angle_beta 90.000000
_cell_angle_gamma 90.000000
_cell_volume 2444.533804
_symmetry_space_group_name_H-M "P 42/M M C"
_symmetry_group_IT_number 131
_symmetry_cell_setting 'tetragonal'
loop_
_space_group_symop_operation_xyz
x,y,z
-x,-y,z
-y,x,1/2+z
y,-x,1/2+z
-x,y,-z
x,-y,-z
y,x,1/2-z
-y,-x,1/2-z
-x,-y,-z
x,y,-z
y,-x,1/2-z
-y,x,1/2-z
x,-y,z
-x,y,z
-y,-x,1/2+z
y,x,1/2+z
loop_
_atom_site_type_symbol
_atom_site_label
_atom_site_fract_x
_atom_site_fract_y
_atom_site_fract_z
Si Si1 0.702626 0.500000 0.087096
Si Si2 0.703547 0.811541 0.959521
Si Si3 0.696880 0.184005 0.213088
Si Si4 0.500000 0.196848 0.331956
O O1 0.500000 0.500000 0.086796
O O2 0.759549 0.334602 0.066271
O O3 0.759818 0.500000 0.127090
O O4 0.500000 0.810766 0.959119
O O5 0.756372 0.000000 0.949948
O O6 0.753059 0.779419 0.000000
O O7 0.788550 0.211451 0.250000
O O8 0.500000 0.188514 0.221049
O O9 0.734542 0.334290 0.186832
O O10 0.738099 0.000000 0.198693
O O11 0.500000 0.000000 0.326913
#
# Coordination Sequence:
#
# PCOD9566307 Si02
#       4
#     8  16  16   8
#     4  10  19  32  52  78 110 148 192 242 298 349
#     4   8  14  26  48  79 110 141 185 243 301 355
#     4  11  23  41  66  92 117 149 193 247 303 362
#     4  12  26  41  57  85 122 164 204 243 299 364
#
# _framework density 19.635645
#
# number of rings (size 3 to 8) (size 9 to 14) (size 15 to 20)
#    0.000    2.000    1.667    4.000    0.000    5.667 
#    0.000    3.333    0.000    2.000    0.000    2.333 
#    0.000    0.000    0.000    0.000    0.000    0.000 
#
# Total GULP energy -268079.170322 kJ/mol
# GULP energy per Si atom -5584.982715 kJ/mol
# Density = 1.959095 g / cm^3
# Si number density = 19.635645 Si / 1000 Ang^3
#
#
#
# Elastic Constant Matrix: (Units=GPa)
#
#
# Indices 1 2 3 4 5 6 
#
# 1 107.6410 46.4764 53.9366 0.0000 0.0000 0.0000
# 2 46.4764 107.6423 53.9378 0.0000 0.0000 0.0000
# 3 53.9366 53.9378 114.2527 0.0000 0.0000 0.0000
# 4 0.0000 0.0000 0.0000 -17.0953 0.0000 0.0000
# 5 0.0000 0.0000 0.0000 0.0000 -17.0957 0.0000
# 6 0.0000 0.0000 0.0000 0.0000 0.0000 -20.2555
#
#
#
# Elastic Compliance Matrix: (Units=1/GPa)
#
#
# Indices 1 2 3 4 5 6 
#
# 1 0.013020 -0.003329 -0.004575 0.000000 0.000000 0.000000
# 2 -0.003329 0.013020 -0.004575 0.000000 0.000000 0.000000
# 3 -0.004575 -0.004575 0.013072 0.000000 0.000000 0.000000
# 4 0.000000 0.000000 0.000000 -0.058495 0.000000 0.000000
# 5 0.000000 0.000000 0.000000 0.000000 -0.058494 0.000000
# 6 0.000000 0.000000 0.000000 0.000000 0.000000 -0.049369
#
#
# Mechanical properties :
#
#
# Convention : Reuss Voigt Hill
#
# Bulk Modulus (GPa) = 70.65160 70.91530 70.78345
# Shear Modulus (GPa) = -51.24452 0.78970 -25.22741
#
# Velocity S-wave (km/s) = -5.11413 0.63486 -3.58827
# Velocity P-wave (km/s) = 1.08947 6.06064 4.35421
#
# Compressibility (1/GPa) = 0.01415396
#
# Stress axis : x y z
#
# Youngs Moduli (GPa) = 76.80531 76.80545 76.49950
#
# Poissons Ratio (x) = 0.25570 0.34997
# Poissons Ratio (y) = 0.25570 0.34998
# Poissons Ratio (z) = 0.35137 0.35138
#
# Static dielectric constant tensor:
#      x y z
#    x 1.701770 0.000000 0.000000 
#    y 0.000000 1.701760 0.000000 
#    z 0.000000 0.000000 1.637600 
# 
# From -- ./inp_files/12926.got.cif
#   From: 2010.05.17/outbox.cif.g08.bks.cpg/sg131_7_cif.got.tgz:12926.got - 2010.05.20 12:21:01.
