data_PCOD9566511
_publ_section_title
;
Structure prediction by ZEFSAII (Michael W. Deem and Ramdas Pophale) SiO2 
 PCOD9566511
Probable space group: P 42/M M C
;
_chemical_formula_sum "Si O2"
_cell_formula_units_Z 96
_cell_length_a 24.963016
_cell_length_b 24.963016
_cell_length_c 7.794787
_cell_angle_alpha 90.000000
_cell_angle_beta 90.000000
_cell_angle_gamma 90.000000
_cell_volume 4857.338417
_symmetry_space_group_name_H-M "P 42/M M C"
_symmetry_group_IT_number 131
_symmetry_cell_setting 'tetragonal'
loop_
_space_group_symop_operation_xyz
x,y,z
-x,-y,z
-y,x,1/2+z
y,-x,1/2+z
-x,y,-z
x,-y,-z
y,x,1/2-z
-y,-x,1/2-z
-x,-y,-z
x,y,-z
y,-x,1/2-z
-y,x,1/2-z
x,-y,z
-x,y,z
-y,-x,1/2+z
y,x,1/2+z
loop_
_atom_site_type_symbol
_atom_site_label
_atom_site_fract_x
_atom_site_fract_y
_atom_site_fract_z
Si Si1 0.266443 0.647169 0.793109
Si Si2 0.647171 0.439059 0.793290
Si Si3 0.437602 0.940564 0.207217
Si Si4 0.147179 0.940113 0.795726
Si Si5 0.940141 0.731784 0.797278
Si Si6 0.854906 0.351023 0.203108
O O1 0.298515 0.701486 0.750000
O O2 0.303557 0.597964 0.729668
O O3 0.205465 0.645795 0.727200
O O4 0.264997 0.642840 0.000000
O O5 0.593108 0.406893 0.750000
O O6 0.648133 0.500000 0.729003
O O7 0.650986 0.441016 0.000000
O O8 0.500000 0.936435 0.255399
O O9 0.403820 0.890969 0.275065
O O10 0.418019 0.000000 0.263902
O O11 0.434739 0.939743 0.000000
O O12 0.103165 0.896836 0.750000
O O13 0.205622 0.927828 0.721746
O O14 0.131912 0.000000 0.736055
O O15 0.152868 0.941312 0.000000
O O16 0.892894 0.695661 0.722427
O O17 0.000000 0.722340 0.723992
O O18 0.943214 0.719538 0.000000
O O19 0.848483 0.340709 0.000000
#
# Coordination Sequence:
#
# PCOD9566511 Si02
#       6
#    16  16  16  16  16  16
#     4   9  19  35  52  72 101 134 167 205 249 297
#     4   9  18  33  52  73  99 131 164 200 244 291
#     4   9  19  35  52  73 105 141 174 211 255 302
#     4  10  21  36  54  76 101 131 167 205 250 305
#     4   9  18  33  51  72 101 132 163 206 255 299
#     4  10  20  33  53  80 104 131 171 214 255 301
#
# _framework density 19.763909999999999
#
# number of rings (size 3 to 8) (size 9 to 14) (size 15 to 20)
#    0.000    2.667    0.000    1.500    0.000    5.667 
#    0.000    7.500    0.000    0.000    0.000    0.000 
#    0.000    0.000    0.000    0.000    0.000    0.000 
#
# Total GULP energy -535477.519055 kJ/mol
# GULP energy per Si atom -5577.890823 kJ/mol
# Density = 1.971893 g / cm^3
# Si number density = 19.763910 Si / 1000 Ang^3
#
#
#
# Elastic Constant Matrix: (Units=GPa)
#
#
# Indices 1 2 3 4 5 6 
#
# 1 163.8926 104.5654 -0.7096 0.0000 0.0000 0.0000
# 2 104.5654 163.8869 -0.7077 0.0000 0.0000 0.0000
# 3 -0.7096 -0.7077 23.7422 0.0000 0.0000 0.0000
# 4 0.0000 0.0000 0.0000 23.7306 0.0000 0.0000
# 5 0.0000 0.0000 0.0000 0.0000 23.7252 0.0000
# 6 0.0000 0.0000 0.0000 0.0000 0.0000 28.1019
#
#
#
# Elastic Compliance Matrix: (Units=1/GPa)
#
#
# Indices 1 2 3 4 5 6 
#
# 1 0.010291 -0.006565 0.000112 0.000000 0.000000 0.000000
# 2 -0.006565 0.010291 0.000111 0.000000 0.000000 0.000000
# 3 0.000112 0.000111 0.042126 0.000000 0.000000 0.000000
# 4 0.000000 0.000000 0.000000 0.042140 0.000000 0.000000
# 5 0.000000 0.000000 0.000000 0.000000 0.042149 0.000000
# 6 0.000000 0.000000 0.000000 0.000000 0.000000 0.035585
#
#
# Mechanical properties :
#
#
# Convention : Reuss Voigt Hill
#
# Bulk Modulus (GPa) = 19.99129 61.97977 40.98553
# Shear Modulus (GPa) = 23.59141 31.66978 27.63059
#
# Velocity S-wave (km/s) = 3.45869 4.00735 3.74308
# Velocity P-wave (km/s) = 5.10755 7.26911 6.28200
#
# Compressibility (1/GPa) = 0.05002177
#
# Stress axis : x y z
#
# Youngs Moduli (GPa) = 97.17354 97.17019 23.73844
#
# Poissons Ratio (x) = 0.63797 -0.00266
# Poissons Ratio (y) = 0.63799 -0.00262
# Poissons Ratio (z) = -0.01087 -0.01074
#
# Static dielectric constant tensor:
#      x y z
#    x 1.684670 0.000000 0.000000 
#    y 0.000000 1.684670 0.000000 
#    z 0.000000 0.000000 1.709930 
# 
# From -- ./inp_files/2213.got.cif
#   From: 2010.05.17/outbox.cif.g08.bks.cpg/sg131_2_cif.got.tgz:2213.got - 2010.05.20 12:21:01.
