data_PCOD9566912
_publ_section_title
;
Structure prediction by ZEFSAII (Michael W. Deem and Ramdas Pophale) SiO2 
 PCOD9566912
Probable space group: P 42/M M C
;
_chemical_formula_sum "Si O2"
_cell_formula_units_Z 112
_cell_length_a 15.000000
_cell_length_b 15.000000
_cell_length_c 27.000000
_cell_angle_alpha 90.000000
_cell_angle_beta 90.000000
_cell_angle_gamma 90.000000
_cell_volume 6075.000000
_symmetry_space_group_name_H-M "P 42/M M C"
_symmetry_group_IT_number 131
_symmetry_cell_setting 'tetragonal'
loop_
_space_group_symop_operation_xyz
x,y,z
-x,-y,z
-y,x,1/2+z
y,-x,1/2+z
-x,y,-z
x,-y,-z
y,x,1/2-z
-y,-x,1/2-z
-x,-y,-z
x,y,-z
y,-x,1/2-z
-y,x,1/2-z
x,-y,z
-x,y,z
-y,-x,1/2+z
y,x,1/2+z
loop_
_atom_site_type_symbol
_atom_site_label
_atom_site_fract_x
_atom_site_fract_y
_atom_site_fract_z
Si Si1 0.106634 0.243493 0.274610
Si Si2 0.180897 0.901234 0.887878
Si Si3 0.635138 0.098439 0.058500
Si Si4 0.595940 0.719240 0.888077
Si Si5 0.258825 0.101505 0.556914
Si Si6 0.743672 0.603615 0.058617
Si Si7 0.252476 0.606042 0.270787
O O1 0.160452 0.160452 0.250000
O O2 0.111896 0.225467 0.333923
O O3 0.163406 0.333178 0.261121
O O4 0.000000 0.247752 0.262238
O O5 0.260486 0.900557 0.927906
O O6 0.119361 0.820327 0.904476
O O7 0.138795 0.000000 0.888076
O O8 0.598175 0.184083 0.086139
O O9 0.602428 0.000000 0.074417
O O10 0.620726 0.106688 0.000000
O O11 0.500000 0.677003 0.897865
O O12 0.671195 0.656799 0.910180
O O13 0.606172 0.734802 0.829920
O O14 0.227421 0.118460 0.500000
O O15 0.341861 0.165617 0.566187
O O16 0.287463 0.000000 0.559821
O O17 0.750217 0.500000 0.072041
O O18 0.721704 0.609234 0.000000
O O19 0.336815 0.663186 0.250000
O O20 0.248035 0.500000 0.255486
#
# Coordination Sequence:
#
# PCOD9566912 Si02
#       7
#    16  16  16  16  16  16  16
#     4  10  21  38  60  86 116 151 193 238 286 345
#     4  10  19  34  56  82 115 153 187 225 278 338
#     4  10  19  32  54  85 121 157 189 222 267 331
#     4  11  22  37  59  85 114 150 189 230 283 346
#     4  10  20  34  54  79 107 144 191 238 285 337
#     4  10  21  37  55  76 107 146 188 237 290 341
#     4  10  22  40  62  87 114 148 192 243 296 350
#
# _framework density 18.436214
#
# number of rings (size 3 to 8) (size 9 to 14) (size 15 to 20)
#    0.000    1.857    2.857    0.857    0.000    4.857 
#    0.000    7.857    0.000    0.000    0.000    4.000 
#    0.000    0.000    0.000    0.000    0.000    0.000 
#
# Total GULP energy -624491.542736 kJ/mol
# GULP energy per Si atom -5575.817346 kJ/mol
# Density = 1.839425 g / cm^3
# Si number density = 18.436214 Si / 1000 Ang^3
#
#
#
# Elastic Constant Matrix: (Units=GPa)
#
#
# Indices 1 2 3 4 5 6 
#
# 1 133.9048 67.8278 34.8395 0.0000 0.0000 0.0000
# 2 67.8278 133.9055 34.8396 0.0000 0.0000 0.0000
# 3 34.8395 34.8396 44.5618 0.0000 0.0000 0.0000
# 4 0.0000 0.0000 0.0000 14.8457 0.0000 0.0000
# 5 0.0000 0.0000 0.0000 0.0000 14.8448 0.0000
# 6 0.0000 0.0000 0.0000 0.0000 0.0000 -21.9190
#
#
#
# Elastic Compliance Matrix: (Units=1/GPa)
#
#
# Indices 1 2 3 4 5 6 
#
# 1 0.010962 -0.004171 -0.005309 0.000000 0.000000 0.000000
# 2 -0.004171 0.010962 -0.005309 0.000000 0.000000 0.000000
# 3 -0.005309 -0.005309 0.030743 0.000000 0.000000 0.000000
# 4 0.000000 0.000000 0.000000 0.067360 0.000000 0.000000
# 5 0.000000 0.000000 0.000000 0.000000 0.067364 0.000000
# 6 0.000000 0.000000 0.000000 0.000000 0.000000 -0.045622
#
#
# Mechanical properties :
#
#
# Convention : Reuss Voigt Hill
#
# Bulk Modulus (GPa) = 43.31399 65.26511 54.28955
# Shear Modulus (GPa) = 27.92611 13.21197 20.56904
#
# Velocity S-wave (km/s) = 3.89619 2.67990 3.34381
# Velocity P-wave (km/s) = 6.61705 6.71217 6.66478
#
# Compressibility (1/GPa) = 0.02308723
#
# Stress axis : x y z
#
# Youngs Moduli (GPa) = 91.22128 91.22163 32.52816
#
# Poissons Ratio (x) = 0.38053 0.17270
# Poissons Ratio (y) = 0.38052 0.17270
# Poissons Ratio (z) = 0.48432 0.48432
#
# Static dielectric constant tensor:
#      x y z
#    x 1.649070 0.000000 0.000000 
#    y 0.000000 1.649070 0.000000 
#    z 0.000000 0.000000 1.631960 
# 
# From -- ./inp_files/12501.got.cif
#   From: 2010.05.17/outbox.ucp.g08.bks.cvg/sg131_7_cif.got.tgz:12501.got - 2010.06.11 11:38:44.
