data_PCOD9566420
_publ_section_title
;
Structure prediction by ZEFSAII (Michael W. Deem and Ramdas Pophale) SiO2 
 PCOD9566420
Probable space group: P 42/M M C
;
_chemical_formula_sum "Si O2"
_cell_formula_units_Z 112
_cell_length_a 14.989387
_cell_length_b 14.989387
_cell_length_c 23.848777
_cell_angle_alpha 90.000000
_cell_angle_beta 90.000000
_cell_angle_gamma 90.000000
_cell_volume 5358.384299
_symmetry_space_group_name_H-M "P 42/M M C"
_symmetry_group_IT_number 131
_symmetry_cell_setting 'tetragonal'
loop_
_space_group_symop_operation_xyz
x,y,z
-x,-y,z
-y,x,1/2+z
y,-x,1/2+z
-x,y,-z
x,-y,-z
y,x,1/2-z
-y,-x,1/2-z
-x,-y,-z
x,y,-z
y,-x,1/2-z
-y,x,1/2-z
x,-y,z
-x,y,z
-y,-x,1/2+z
y,x,1/2+z
loop_
_atom_site_type_symbol
_atom_site_label
_atom_site_fract_x
_atom_site_fract_y
_atom_site_fract_z
Si Si1 0.760720 0.898008 0.064123
Si Si2 0.597287 0.662161 0.412700
Si Si3 0.600531 0.273377 0.284857
Si Si4 0.901417 0.106456 0.663698
Si Si5 0.868392 0.395459 0.063015
Si Si6 0.101507 0.700213 0.820496
Si Si7 0.788322 0.404697 0.566085
O O1 0.846344 0.897682 0.103383
O O2 0.683887 0.834939 0.089069
O O3 0.726753 0.000000 0.063051
O O4 0.781664 0.871423 0.000000
O O5 0.500000 0.625579 0.428113
O O6 0.598397 0.682496 0.346506
O O7 0.607249 0.760893 0.438353
O O8 0.682449 0.605335 0.428692
O O9 0.668416 0.331585 0.250000
O O10 0.500000 0.274529 0.262114
O O11 0.636635 0.173290 0.291599
O O12 0.803992 0.128234 0.688779
O O13 0.000000 0.131139 0.689267
O O14 0.901853 0.000000 0.658752
O O15 0.891936 0.500000 0.075707
O O16 0.896196 0.329759 0.113373
O O17 0.899916 0.374046 0.000000
O O18 0.000000 0.688176 0.801103
O O19 0.811563 0.404667 0.500000
O O20 0.816934 0.500000 0.590330
#
# Coordination Sequence:
#
# PCOD9566420 Si02
#       7
#    16  16  16  16  16  16  16
#     4   9  17  29  45  65  94 136 182 225 264 299
#     4   9  18  33  52  73 100 136 175 218 271 326
#     4  10  22  40  61  84 108 137 179 231 286 341
#     4   9  18  32  51  77 107 138 174 216 262 317
#     4   9  17  29  48  77 113 153 195 235 276 332
#     4  10  20  35  57  84 117 156 190 226 281 343
#     4  10  20  31  45  69 101 138 178 216 257 314
#
# _framework density 20.901823
#
# number of rings (size 3 to 8) (size 9 to 14) (size 15 to 20)
#    0.000    2.571    0.000    3.429    0.000    5.571 
#    0.000    7.857    0.000    0.857    0.000    2.000 
#    0.000    0.000    0.000    0.000    0.000    0.000 
#
# Total GULP energy -624652.746472 kJ/mol
# GULP energy per Si atom -5577.256665 kJ/mol
# Density = 2.085425 g / cm^3
# Si number density = 20.901823 Si / 1000 Ang^3
#
#
#
# Elastic Constant Matrix: (Units=GPa)
#
#
# Indices 1 2 3 4 5 6 
#
# 1 70.5458 21.3792 24.9166 0.0000 0.0000 0.0000
# 2 21.3792 70.5489 24.9161 0.0000 0.0000 0.0000
# 3 24.9166 24.9161 43.9177 0.0000 0.0000 0.0000
# 4 0.0000 0.0000 0.0000 13.2352 0.0000 0.0000
# 5 0.0000 0.0000 0.0000 0.0000 13.2367 0.0000
# 6 0.0000 0.0000 0.0000 0.0000 0.0000 -28.3509
#
#
#
# Elastic Compliance Matrix: (Units=1/GPa)
#
#
# Indices 1 2 3 4 5 6 
#
# 1 0.018025 -0.002314 -0.008913 0.000000 0.000000 0.000000
# 2 -0.002314 0.018024 -0.008912 0.000000 0.000000 0.000000
# 3 -0.008913 -0.008912 0.032883 0.000000 0.000000 0.000000
# 4 0.000000 0.000000 0.000000 0.075556 0.000000 0.000000
# 5 0.000000 0.000000 0.000000 0.000000 0.075547 0.000000
# 6 0.000000 0.000000 0.000000 0.000000 0.000000 -0.035272
#
#
# Mechanical properties :
#
#
# Convention : Reuss Voigt Hill
#
# Bulk Modulus (GPa) = 34.90229 36.38180 35.64204
# Shear Modulus (GPa) = 21.31350 7.21091 14.26220
#
# Velocity S-wave (km/s) = 3.19673 1.85940 2.61500
# Velocity P-wave (km/s) = 5.50998 4.69613 5.11926
#
# Compressibility (1/GPa) = 0.02865142
#
# Stress axis : x y z
#
# Youngs Moduli (GPa) = 55.47937 55.48310 30.41070
#
# Poissons Ratio (x) = 0.12840 0.27106
# Poissons Ratio (y) = 0.12839 0.27103
# Poissons Ratio (z) = 0.49451 0.49449
#
# Static dielectric constant tensor:
#      x y z
#    x 1.781510 0.000000 0.000000 
#    y 0.000000 1.781510 0.000000 
#    z 0.000000 0.000000 1.783840 
# 
# From -- ./inp_files/12416.got.cif
#   From: 2010.05.17/outbox.cif.g08.bks.cpg/sg131_7_cif.got.tgz:12416.got - 2010.05.20 12:21:01.
