data_PCOD9566094
_publ_section_title
;
Structure prediction by ZEFSAII (Michael W. Deem and Ramdas Pophale) SiO2 
 PCOD9566094
Probable space group: P 42/M M C
;
_chemical_formula_sum "Si O2"
_cell_formula_units_Z 112
_cell_length_a 15.035336
_cell_length_b 15.035336
_cell_length_c 23.140713
_cell_angle_alpha 90.000000
_cell_angle_beta 90.000000
_cell_angle_gamma 90.000000
_cell_volume 5231.220326
_symmetry_space_group_name_H-M "P 42/M M C"
_symmetry_group_IT_number 131
_symmetry_cell_setting 'tetragonal'
loop_
_space_group_symop_operation_xyz
x,y,z
-x,-y,z
-y,x,1/2+z
y,-x,1/2+z
-x,y,-z
x,-y,-z
y,x,1/2-z
-y,-x,1/2-z
-x,-y,-z
x,y,-z
y,-x,1/2-z
-y,x,1/2-z
x,-y,z
-x,y,z
-y,-x,1/2+z
y,x,1/2+z
loop_
_atom_site_type_symbol
_atom_site_label
_atom_site_fract_x
_atom_site_fract_y
_atom_site_fract_z
Si Si1 0.788061 0.102341 0.205309
Si Si2 0.607039 0.400235 0.187911
Si Si3 0.595828 0.893354 0.784619
Si Si4 0.902994 0.894349 0.411976
Si Si5 0.399834 0.300873 0.934263
Si Si6 0.793849 0.270336 0.061633
Si Si7 0.104378 0.396748 0.852990
O O1 0.830125 0.169876 0.250000
O O2 0.689063 0.133585 0.187633
O O3 0.855182 0.098909 0.152419
O O4 0.780670 0.000000 0.228307
O O5 0.640126 0.359875 0.250000
O O6 0.644565 0.500000 0.183345
O O7 0.500000 0.404465 0.196693
O O8 0.615065 0.357943 0.124272
O O9 0.500000 0.853837 0.802668
O O10 0.606868 0.879089 0.715844
O O11 0.589643 0.000000 0.793265
O O12 0.818039 0.851164 0.439895
O O13 0.000000 0.870406 0.436009
O O14 0.895662 0.000000 0.412145
O O15 0.500000 0.262232 0.929532
O O16 0.309822 0.244066 0.933904
O O17 0.399099 0.343362 0.000000
O O18 0.830680 0.332158 0.112558
O O19 0.805032 0.318847 0.000000
O O20 0.115341 0.500000 0.870292
O O21 0.000000 0.372489 0.862397
#
# Coordination Sequence:
#
# PCOD9566094 Si02
#       7
#    16  16  16  16  16  16  16
#     4  10  18  29  51  82 114 147 183 225 276 338
#     4   8  14  27  50  80 113 149 191 242 297 348
#     4   8  15  30  52  77 109 150 188 221 262 317
#     4  10  22  39  58  83 113 142 179 231 288 347
#     4   9  19  36  56  78 108 149 195 243 295 351
#     4  11  23  38  58  81 107 144 188 235 290 355
#     4   9  18  33  53  80 116 152 184 224 277 339
#
# _framework density 21.409918000000001
#
# number of rings (size 3 to 8) (size 9 to 14) (size 15 to 20)
#    0.000    2.714    0.000    3.000    0.000    4.429 
#    0.000    7.143    0.000    4.714    0.000    2.000 
#    0.000    1.429    0.000    0.000    0.000    0.000 
#
# Total GULP energy -623772.350999 kJ/mol
# GULP energy per Si atom -5569.395991 kJ/mol
# Density = 2.136119 g / cm^3
# Si number density = 21.409918 Si / 1000 Ang^3
#
#
#
# Elastic Constant Matrix: (Units=GPa)
#
#
# Indices 1 2 3 4 5 6 
#
# 1 72.9933 37.7246 20.0638 0.0000 0.0000 0.0000
# 2 37.7246 72.9917 20.0625 0.0000 0.0000 0.0000
# 3 20.0638 20.0625 98.5382 0.0000 0.0000 0.0000
# 4 0.0000 0.0000 0.0000 156.7929 0.0000 0.0000
# 5 0.0000 0.0000 0.0000 0.0000 156.8441 0.0000
# 6 0.0000 0.0000 0.0000 0.0000 0.0000 4.8001
#
#
#
# Elastic Compliance Matrix: (Units=1/GPa)
#
#
# Indices 1 2 3 4 5 6 
#
# 1 0.019053 -0.009301 -0.001986 0.000000 0.000000 0.000000
# 2 -0.009301 0.019053 -0.001985 0.000000 0.000000 0.000000
# 3 -0.001986 -0.001985 0.010957 0.000000 0.000000 0.000000
# 4 0.000000 0.000000 0.000000 0.006378 0.000000 0.000000
# 5 0.000000 0.000000 0.000000 0.000000 0.006376 0.000000
# 6 0.000000 0.000000 0.000000 0.000000 0.000000 0.208328
#
#
# Mechanical properties :
#
#
# Convention : Reuss Voigt Hill
#
# Bulk Modulus (GPa) = 44.40873 44.46944 44.43908
# Shear Modulus (GPa) = 16.43680 74.79891 45.61786
#
# Velocity S-wave (km/s) = 2.77378 5.91713 4.62095
# Velocity P-wave (km/s) = 5.57186 8.21577 7.01942
#
# Compressibility (1/GPa) = 0.02251810
#
# Stress axis : x y z
#
# Youngs Moduli (GPa) = 52.48558 52.48477 91.26682
#
# Poissons Ratio (x) = 0.48818 0.18123
# Poissons Ratio (y) = 0.48819 0.18120
# Poissons Ratio (z) = 0.10422 0.10420
#
# Static dielectric constant tensor:
#      x y z
#    x 1.817420 0.000000 0.000000 
#    y 0.000000 1.817420 0.000000 
#    z 0.000000 0.000000 1.899400 
# 
# From -- ./inp_files/11243.got.cif
#   From: 2010.05.17/outbox.cif.g08.bks.cpg/sg131_6_cif.got.tgz:11243.got - 2010.05.20 12:21:01.
