data_PCOD9566616
_publ_section_title
;
Structure prediction by ZEFSAII (Michael W. Deem and Ramdas Pophale) SiO2 
 PCOD9566616
Probable space group: P 42/M M C
;
_chemical_formula_sum "Si O2"
_cell_formula_units_Z 72
_cell_length_a 21.923301
_cell_length_b 21.923301
_cell_length_c 7.924831
_cell_angle_alpha 90.000000
_cell_angle_beta 90.000000
_cell_angle_gamma 90.000000
_cell_volume 3808.920453
_symmetry_space_group_name_H-M "P 42/M M C"
_symmetry_group_IT_number 131
_symmetry_cell_setting 'tetragonal'
loop_
_space_group_symop_operation_xyz
x,y,z
-x,-y,z
-y,x,1/2+z
y,-x,1/2+z
-x,y,-z
x,-y,-z
y,x,1/2-z
-y,-x,1/2-z
-x,-y,-z
x,y,-z
y,-x,1/2-z
-y,x,1/2-z
x,-y,z
-x,y,z
-y,-x,1/2+z
y,x,1/2+z
loop_
_atom_site_type_symbol
_atom_site_label
_atom_site_fract_x
_atom_site_fract_y
_atom_site_fract_z
Si Si1 0.927269 0.568749 0.500000
Si Si2 0.666220 0.765625 0.202732
Si Si3 0.901142 0.000000 0.197757
Si Si4 0.900884 0.340225 0.804474
Si Si5 0.568882 0.331773 0.203151
Si Si6 0.000000 0.240803 0.798750
O O1 0.901233 0.500000 0.500000
O O2 0.910439 0.605906 0.330984
O O3 0.000000 0.564720 0.500000
O O4 0.721224 0.721224 0.250000
O O5 0.674201 0.829696 0.292510
O O6 0.605343 0.728919 0.256951
O O7 0.664060 0.774635 0.000000
O O8 0.940352 0.059649 0.250000
O O9 0.830015 0.000000 0.248180
O O10 0.901966 0.000000 0.000000
O O11 0.941629 0.282022 0.748431
O O12 0.917156 0.355309 0.000000
O O13 0.610284 0.389717 0.250000
O O14 0.500000 0.335229 0.268342
O O15 0.566692 0.329812 0.000000
O O16 0.000000 0.239633 0.000000
#
# Coordination Sequence:
#
# PCOD9566616 Si02
#       6
#     8  16   8  16  16   8
#     4  11  24  42  66  92 124 164 209 257 317 382
#     4  10  20  36  58  86 120 159 200 251 305 364
#     4  11  23  40  65  92 131 171 212 263 314 368
#     4  11  23  41  64  92 127 164 208 260 314 373
#     4   9  19  35  54  78 109 146 188 237 294 354
#     4  10  23  41  64  91 125 163 208 255 305 369
#
# _framework density 18.902994
#
# number of rings (size 3 to 8) (size 9 to 14) (size 15 to 20)
#    0.000    1.778    2.222    2.000    1.556    3.778 
#    0.000    2.222    0.000    0.000    0.000    0.000 
#    0.000    0.000    0.000    0.000    0.000    0.000 
#
# Total GULP energy -401680.426201 kJ/mol
# GULP energy per Si atom -5578.894808 kJ/mol
# Density = 1.885997 g / cm^3
# Si number density = 18.902994 Si / 1000 Ang^3
#
#
#
# Elastic Constant Matrix: (Units=GPa)
#
#
# Indices 1 2 3 4 5 6 
#
# 1 156.8341 82.7765 36.9057 0.0000 0.0000 0.0000
# 2 82.7765 156.8311 36.9131 0.0000 0.0000 0.0000
# 3 36.9057 36.9131 83.8372 0.0000 0.0000 0.0000
# 4 0.0000 0.0000 0.0000 11.7711 0.0000 0.0000
# 5 0.0000 0.0000 0.0000 0.0000 11.7610 0.0000
# 6 0.0000 0.0000 0.0000 0.0000 0.0000 3.5339
#
#
#
# Elastic Compliance Matrix: (Units=1/GPa)
#
#
# Indices 1 2 3 4 5 6 
#
# 1 0.009166 -0.004337 -0.002125 0.000000 0.000000 0.000000
# 2 -0.004337 0.009166 -0.002126 0.000000 0.000000 0.000000
# 3 -0.002125 -0.002126 0.013800 0.000000 0.000000 0.000000
# 4 0.000000 0.000000 0.000000 0.084953 0.000000 0.000000
# 5 0.000000 0.000000 0.000000 0.000000 0.085027 0.000000
# 6 0.000000 0.000000 0.000000 0.000000 0.000000 0.282970
#
#
# Mechanical properties :
#
#
# Convention : Reuss Voigt Hill
#
# Bulk Modulus (GPa) = 66.87397 78.96589 72.91993
# Shear Modulus (GPa) = 9.85719 21.47368 15.66543
#
# Velocity S-wave (km/s) = 2.28603 3.37411 2.88189
# Velocity P-wave (km/s) = 6.51323 7.55278 7.05218
#
# Compressibility (1/GPa) = 0.01495350
#
# Stress axis : x y z
#
# Youngs Moduli (GPa) = 109.10475 109.09739 72.46617
#
# Poissons Ratio (x) = 0.47321 0.15399
# Poissons Ratio (y) = 0.47324 0.15409
# Poissons Ratio (z) = 0.23184 0.23199
#
# Static dielectric constant tensor:
#      x y z
#    x 1.605670 0.000000 0.000000 
#    y 0.000000 1.605680 0.000000 
#    z 0.000000 0.000000 2.004230 
# 
# From -- ./inp_files/1899.got.cif
#   From: 2010.05.17/outbox.cif.g08.bks.cpg/sg131_1_cif.got.tgz:1899.got - 2010.05.20 12:21:01.
