data_PCOD9566899
_publ_section_title
;
Structure prediction by ZEFSAII (Michael W. Deem and Ramdas Pophale) SiO2 
 PCOD9566899
Probable space group: P 42/M M C
;
_chemical_formula_sum "Si O2"
_cell_formula_units_Z 80
_cell_length_a 21.033572
_cell_length_b 21.033572
_cell_length_c 14.062731
_cell_angle_alpha 90.000000
_cell_angle_beta 90.000000
_cell_angle_gamma 90.000000
_cell_volume 6221.509009
_symmetry_space_group_name_H-M "P 42/M M C"
_symmetry_group_IT_number 131
_symmetry_cell_setting 'tetragonal'
loop_
_space_group_symop_operation_xyz
x,y,z
-x,-y,z
-y,x,1/2+z
y,-x,1/2+z
-x,y,-z
x,-y,-z
y,x,1/2-z
-y,-x,1/2-z
-x,-y,-z
x,y,-z
y,-x,1/2-z
-y,x,1/2-z
x,-y,z
-x,y,z
-y,-x,1/2+z
y,x,1/2+z
loop_
_atom_site_type_symbol
_atom_site_label
_atom_site_fract_x
_atom_site_fract_y
_atom_site_fract_z
Si Si1 0.573541 0.500000 0.115992
Si Si2 0.128840 0.423355 0.710882
Si Si3 0.000000 0.422198 0.610838
Si Si4 0.738207 0.426954 0.614648
Si Si5 0.576789 0.203158 0.389896
Si Si6 0.343192 0.379905 0.115988
O O1 0.500000 0.500000 0.144372
O O2 0.612425 0.561773 0.146678
O O3 0.573694 0.500000 0.000000
O O4 0.123546 0.500000 0.711437
O O5 0.191558 0.409072 0.649229
O O6 0.147208 0.404256 0.818061
O O7 0.063694 0.399868 0.664602
O O8 0.000000 0.500000 0.611884
O O9 0.000000 0.403686 0.500000
O O10 0.737364 0.427941 0.500000
O O11 0.724614 0.500000 0.646540
O O12 0.684825 0.377260 0.646925
O O13 0.592231 0.190540 0.500000
O O14 0.500000 0.211686 0.384169
O O15 0.607808 0.269943 0.358845
O O16 0.343550 0.380323 0.000000
#
# Coordination Sequence:
#
# PCOD9566899 Si02
#       6
#     8  16   8  16  16  16
#     4   9  14  20  32  50  68  91 129 168 198 229
#     4   9  17  27  40  56  69  88 110 139 182 235
#     4   9  16  28  45  61  75  85  98 126 175 238
#     4   9  16  25  36  53  74  93 119 157 197 232
#     4   9  16  27  39  51  69  95 125 152 178 215
#     4   9  15  23  35  50  69  97 129 159 192 225
#
# _framework density 12.858617000000001
#
# number of rings (size 3 to 8) (size 9 to 14) (size 15 to 20)
#    0.000    3.000    1.000    1.200    0.000    5.600 
#    0.000    0.500    0.000    3.000    0.000    0.000 
#    0.000    0.000    0.000    0.000    0.000    0.200 
#
# Total GULP energy -445841.464421 kJ/mol
# GULP energy per Si atom -5573.018305 kJ/mol
# Density = 1.282935 g / cm^3
# Si number density = 12.858617 Si / 1000 Ang^3
#
#
#
# Elastic Constant Matrix: (Units=GPa)
#
#
# Indices 1 2 3 4 5 6 
#
# 1 77.1366 29.5642 35.0534 0.0000 0.0000 0.0000
# 2 29.5642 77.1366 35.0534 0.0000 0.0000 0.0000
# 3 35.0534 35.0534 73.2684 0.0000 0.0000 0.0000
# 4 0.0000 0.0000 0.0000 12.9828 0.0000 0.0000
# 5 0.0000 0.0000 0.0000 0.0000 12.9828 0.0000
# 6 0.0000 0.0000 0.0000 0.0000 0.0000 3.5225
#
#
#
# Elastic Compliance Matrix: (Units=1/GPa)
#
#
# Indices 1 2 3 4 5 6 
#
# 1 0.017345 -0.003676 -0.006539 0.000000 0.000000 0.000000
# 2 -0.003676 0.017345 -0.006539 0.000000 0.000000 0.000000
# 3 -0.006539 -0.006539 0.019906 0.000000 0.000000 0.000000
# 4 0.000000 0.000000 0.000000 0.077025 0.000000 0.000000
# 5 0.000000 0.000000 0.000000 0.000000 0.077025 0.000000
# 6 0.000000 0.000000 0.000000 0.000000 0.000000 0.283891
#
#
# Mechanical properties :
#
#
# Convention : Reuss Voigt Hill
#
# Bulk Modulus (GPa) = 47.42635 47.43151 47.42893
# Shear Modulus (GPa) = 9.37956 14.42234 11.90095
#
# Velocity S-wave (km/s) = 2.70374 3.35268 3.04554
# Velocity P-wave (km/s) = 6.83447 7.20793 7.02368
#
# Compressibility (1/GPa) = 0.02108533
#
# Stress axis : x y z
#
# Youngs Moduli (GPa) = 57.65477 57.65477 50.23694
#
# Poissons Ratio (x) = 0.21194 0.32852
# Poissons Ratio (y) = 0.21194 0.32852
# Poissons Ratio (z) = 0.37703 0.37703
#
# Static dielectric constant tensor:
#      x y z
#    x 1.397720 0.000000 0.000000 
#    y 0.000000 1.397720 0.000000 
#    z 0.000000 0.000000 1.492820 
# 
# From -- ./inp_files/6045.got.cif
#   From: 2010.05.17/outbox.cif.g08.bks.cpg/sg131_4_cif.got.tgz:6045.got - 2010.05.20 12:21:01.
