data_PCOD9566632
_publ_section_title
;
Structure prediction by ZEFSAII (Michael W. Deem and Ramdas Pophale) SiO2 
 PCOD9566632
Probable space group: P 42/M M C
;
_chemical_formula_sum "Si O2"
_cell_formula_units_Z 72
_cell_length_a 14.201301
_cell_length_b 14.201301
_cell_length_c 17.682263
_cell_angle_alpha 90.000000
_cell_angle_beta 90.000000
_cell_angle_gamma 90.000000
_cell_volume 3566.104873
_symmetry_space_group_name_H-M "P 42/M M C"
_symmetry_group_IT_number 131
_symmetry_cell_setting 'tetragonal'
loop_
_space_group_symop_operation_xyz
x,y,z
-x,-y,z
-y,x,1/2+z
y,-x,1/2+z
-x,y,-z
x,-y,-z
y,x,1/2-z
-y,-x,1/2-z
-x,-y,-z
x,y,-z
y,-x,1/2-z
-y,x,1/2-z
x,-y,z
-x,y,z
-y,-x,1/2+z
y,x,1/2+z
loop_
_atom_site_type_symbol
_atom_site_label
_atom_site_fract_x
_atom_site_fract_y
_atom_site_fract_z
Si Si1 0.887634 0.891077 0.159845
Si Si2 0.291113 0.796645 0.589661
Si Si3 0.612338 0.103544 0.719640
Si Si4 0.235858 0.388095 0.357225
Si Si5 0.102220 0.611830 0.500000
O O1 0.874429 0.874429 0.250000
O O2 0.829815 0.814298 0.113136
O O3 0.000000 0.880458 0.145121
O O4 0.862733 0.000000 0.143677
O O5 0.302743 0.799077 0.500000
O O6 0.355750 0.867866 0.636564
O O7 0.311471 0.691492 0.622176
O O8 0.500000 0.098752 0.723901
O O9 0.638701 0.183141 0.780008
O O10 0.650702 0.000000 0.740109
O O11 0.261646 0.500000 0.356484
O O12 0.161520 0.371802 0.424964
O O13 0.089805 0.500000 0.500000
O O14 0.000000 0.658084 0.500000
#
# Coordination Sequence:
#
# PCOD9566632 Si02
#       5
#    16  16  16  16   8
#     4   9  19  36  55  75 105 148 194 237 279 328
#     4  12  24  36  54  84 116 152 191 232 285 342
#     4  10  22  40  62  85 111 150 198 245 289 333
#     4  10  20  37  58  83 115 147 183 231 289 349
#     4   9  16  28  50  80 112 141 170 216 280 343
#
# _framework density 20.190097000000002
#
# number of rings (size 3 to 8) (size 9 to 14) (size 15 to 20)
#    0.000    1.889    1.111    4.000    0.000    8.889 
#    0.000    2.222    0.000    0.667    0.000    4.667 
#    0.000    0.000    0.000    0.000    0.000    0.000 
#
# Total GULP energy -401796.231207 kJ/mol
# GULP energy per Si atom -5580.503211 kJ/mol
# Density = 2.014414 g / cm^3
# Si number density = 20.190097 Si / 1000 Ang^3
#
#
#
# Elastic Constant Matrix: (Units=GPa)
#
#
# Indices 1 2 3 4 5 6 
#
# 1 23.2817 -8.3205 5.0135 0.0000 0.0000 0.0000
# 2 -8.3205 23.2817 5.0135 0.0000 0.0000 0.0000
# 3 5.0135 5.0135 109.4617 0.0000 0.0000 0.0000
# 4 0.0000 0.0000 0.0000 -77.9831 0.0000 0.0000
# 5 0.0000 0.0000 0.0000 0.0000 -77.9831 0.0000
# 6 0.0000 0.0000 0.0000 0.0000 0.0000 19.6207
#
#
#
# Elastic Compliance Matrix: (Units=1/GPa)
#
#
# Indices 1 2 3 4 5 6 
#
# 1 0.050300 0.018656 -0.003158 0.000000 0.000000 0.000000
# 2 0.018656 0.050300 -0.003158 0.000000 0.000000 0.000000
# 3 -0.003158 -0.003158 0.009425 0.000000 0.000000 0.000000
# 4 0.000000 0.000000 0.000000 -0.012823 0.000000 0.000000
# 5 0.000000 0.000000 0.000000 0.000000 -0.012823 0.000000
# 6 0.000000 0.000000 0.000000 0.000000 0.000000 0.050967
#
#
# Mechanical properties :
#
#
# Convention : Reuss Voigt Hill
#
# Bulk Modulus (GPa) = 7.42369 17.71535 12.56952
# Shear Modulus (GPa) = 32.14066 -16.98122 7.57972
#
# Velocity S-wave (km/s) = 3.99419 -2.90326 1.93967
# Velocity P-wave (km/s) = 4.99563 1.56373 3.35493
#
# Compressibility (1/GPa) = 0.13470386
#
# Stress axis : x y z
#
# Youngs Moduli (GPa) = 19.88083 19.88083 106.10171
#
# Poissons Ratio (x) = -0.37090 0.33510
# Poissons Ratio (y) = -0.37090 0.33510
# Poissons Ratio (z) = 0.06279 0.06279
#
# Static dielectric constant tensor:
#      x y z
#    x 1.784750 0.000000 0.000000 
#    y 0.000000 1.784750 0.000000 
#    z 0.000000 0.000000 1.606710 
# 
# From -- ./inp_files/7585.got.cif
#   From: 2010.05.17/outbox.cif.g08.bks.cpg/sg131_4_cif.got.tgz:7585.got - 2010.05.20 12:21:01.
