data_PCOD9566941
_publ_section_title
;
Structure prediction by ZEFSAII (Michael W. Deem and Ramdas Pophale) SiO2 
 PCOD9566941
Probable space group: P 42/M C M
;
_chemical_formula_sum "Si O2"
_cell_formula_units_Z 56
_cell_length_a 17.136613
_cell_length_b 17.136613
_cell_length_c 9.563383
_cell_angle_alpha 90.000000
_cell_angle_beta 90.000000
_cell_angle_gamma 90.000000
_cell_volume 2808.416573
_symmetry_space_group_name_H-M "P 42/M C M"
_symmetry_group_IT_number 132
_symmetry_cell_setting 'tetragonal'
loop_
_space_group_symop_operation_xyz
x,y,z
-y,x,1/2+z
-x,-y,z
y,-x,1/2+z
x,-y,1/2-z
-x,y,1/2-z
y,x,-z
-y,-x,-z
-x,-y,-z
y,-x,1/2-z
x,y,-z
-y,x,1/2-z
-x,y,1/2+z
x,-y,1/2+z
-y,-x,z
y,x,z
loop_
_atom_site_type_symbol
_atom_site_label
_atom_site_fract_x
_atom_site_fract_y
_atom_site_fract_z
Si Si1 0.579802 0.579802 0.331043
Si Si2 0.039504 0.584514 0.500000
Si Si3 0.087366 0.279494 0.500000
Si Si4 0.317764 0.317764 0.849372
Si Si5 0.862776 0.315845 0.300794
Si Si6 0.937067 0.188819 0.500000
O O1 0.602489 0.500000 0.250000
O O2 0.571773 0.571773 0.500000
O O3 0.642772 0.642772 0.283384
O O4 0.089669 0.609584 0.362239
O O5 0.000000 0.500000 0.500000
O O6 0.972231 0.648452 0.500000
O O7 0.135334 0.293710 0.360709
O O8 0.030641 0.202972 0.500000
O O9 0.328913 0.225312 0.845384
O O10 0.348352 0.348352 0.000000
O O11 0.902355 0.239955 0.372320
O O12 0.896217 0.103784 0.500000
#
# Coordination Sequence:
#
# PCOD9566941 Si02
#       6
#     8   8   8   8  16   8
#     4  11  25  48  75 100 128 172 215 271 342 394
#     4  10  20  39  58  81 121 173 215 246 322 398
#     4  10  22  33  56  87 128 157 209 279 315 390
#     4  12  21  43  68  96 137 171 226 272 315 394
#     4  10  20  37  58  88 124 167 216 258 322 379
#     4  10  16  36  59  81 116 168 221 249 321 388
#
# _framework density 19.940062999999999
#
# number of rings (size 3 to 8) (size 9 to 14) (size 15 to 20)
#    0.000    1.857    4.286    5.143    2.000    2.286 
#    5.143    0.000    0.000    0.000    0.000    2.000 
#    0.000    1.143    0.000    0.000    0.000    0.000 
#
# Total GULP energy -311932.583375 kJ/mol
# GULP energy per Si atom -5570.224703 kJ/mol
# Density = 1.989468 g / cm^3
# Si number density = 19.940063 Si / 1000 Ang^3
#
#
#
# Elastic Constant Matrix: (Units=GPa)
#
#
# Indices 1 2 3 4 5 6 
#
# 1 78.4000 12.0224 19.7407 0.0000 0.0000 0.0000
# 2 12.0224 78.4004 19.7407 0.0000 0.0000 0.0000
# 3 19.7407 19.7407 195.7290 0.0000 0.0000 0.0000
# 4 0.0000 0.0000 0.0000 18.6666 0.0000 0.0000
# 5 0.0000 0.0000 0.0000 0.0000 18.6654 0.0000
# 6 0.0000 0.0000 0.0000 0.0000 0.0000 29.4929
#
#
#
# Elastic Compliance Matrix: (Units=1/GPa)
#
#
# Indices 1 2 3 4 5 6 
#
# 1 0.013317 -0.001748 -0.001167 0.000000 0.000000 0.000000
# 2 -0.001748 0.013317 -0.001167 0.000000 0.000000 0.000000
# 3 -0.001167 -0.001167 0.005344 0.000000 0.000000 0.000000
# 4 0.000000 0.000000 0.000000 0.053572 0.000000 0.000000
# 5 0.000000 0.000000 0.000000 0.000000 0.053575 0.000000
# 6 0.000000 0.000000 0.000000 0.000000 0.000000 0.033906
#
#
# Mechanical properties :
#
#
# Convention : Reuss Voigt Hill
#
# Bulk Modulus (GPa) = 41.99101 50.61520 46.30311
# Shear Modulus (GPa) = 26.43636 33.43336 29.93486
#
# Velocity S-wave (km/s) = 3.64509 4.09919 3.87879
# Velocity P-wave (km/s) = 6.23056 6.91688 6.58267
#
# Compressibility (1/GPa) = 0.02381462
#
# Stress axis : x y z
#
# Youngs Moduli (GPa) = 75.09201 75.09244 187.10958
#
# Poissons Ratio (x) = 0.13129 0.21832
# Poissons Ratio (y) = 0.13128 0.21831
# Poissons Ratio (z) = 0.08762 0.08762
#
# Static dielectric constant tensor:
#      x y z
#    x 1.724220 0.000000 0.000000 
#    y 0.000000 1.724220 0.000000 
#    z 0.000000 0.000000 1.746060 
# 
# From -- ./inp_files/1067.got.cif
#   From: 2010.05.17/outbox.cif.g08.bks.cpg/sg132_1_cif.got.tgz:1067.got - 2010.05.20 12:30:18.
