data_PCOD9566871
_publ_section_title
;
Structure prediction by ZEFSAII (Michael W. Deem and Ramdas Pophale) SiO2 
 PCOD9566871
Probable space group: P 42/M M C
;
_chemical_formula_sum "Si O2"
_cell_formula_units_Z 64
_cell_length_a 12.062817
_cell_length_b 12.062817
_cell_length_c 24.530259
_cell_angle_alpha 90.000000
_cell_angle_beta 90.000000
_cell_angle_gamma 90.000000
_cell_volume 3569.436107
_symmetry_space_group_name_H-M "P 42/M M C"
_symmetry_group_IT_number 131
_symmetry_cell_setting 'tetragonal'
loop_
_space_group_symop_operation_xyz
x,y,z
-x,-y,z
-y,x,1/2+z
y,-x,1/2+z
-x,y,-z
x,-y,-z
y,x,1/2-z
-y,-x,1/2-z
-x,-y,-z
x,y,-z
y,-x,1/2-z
-y,x,1/2-z
x,-y,z
-x,y,z
-y,-x,1/2+z
y,x,1/2+z
loop_
_atom_site_type_symbol
_atom_site_label
_atom_site_fract_x
_atom_site_fract_y
_atom_site_fract_z
Si Si1 0.373984 0.867230 0.701406
Si Si2 0.628098 0.500000 0.935050
Si Si3 0.876522 0.368030 0.678372
Si Si4 0.273663 0.754084 0.401454
Si Si5 0.865663 0.865640 0.000000
O O1 0.500000 0.824375 0.693726
O O2 0.334294 0.833219 0.761788
O O3 0.303745 0.833978 0.649130
O O4 0.379044 0.000000 0.704002
O O5 0.500000 0.500000 0.913174
O O6 0.696254 0.611451 0.919897
O O7 0.619722 0.500000 0.000000
O O8 0.884162 0.500000 0.681796
O O9 0.802266 0.336935 0.627621
O O10 0.000000 0.320920 0.670832
O O11 0.201976 0.814759 0.448271
O O12 0.000000 0.856641 0.000000
O O13 0.839786 0.000000 0.000000
#
# Coordination Sequence:
#
# PCOD9566871 Si02
#       5
#    16   8  16  16   8
#     4   9  18  33  55  84 116 146 186 233 277 332
#     4  11  24  40  56  84 120 152 190 241 288 333
#     4   9  19  35  56  83 114 150 190 234 277 332
#     4  12  20  38  60  84 111 157 191 229 290 353
#     4  11  26  43  59  84 114 145 190 250 297 337
#
# _framework density 17.930004
#
# number of rings (size 3 to 8) (size 9 to 14) (size 15 to 20)
#    0.000    1.750    2.500    4.500    0.000    0.000 
#    0.000    0.625    0.000    3.000    0.000   10.500 
#    0.000    0.000    0.000    0.000    0.000    0.000 
#
# Total GULP energy -356315.838700 kJ/mol
# GULP energy per Si atom -5567.434980 kJ/mol
# Density = 1.788919 g / cm^3
# Si number density = 17.930004 Si / 1000 Ang^3
#
#
#
# Elastic Constant Matrix: (Units=GPa)
#
#
# Indices 1 2 3 4 5 6 
#
# 1 92.8339 60.7336 55.7636 0.0000 0.0000 0.0000
# 2 60.7336 92.8339 55.7636 0.0000 0.0000 0.0000
# 3 55.7636 55.7636 138.5669 0.0000 0.0000 0.0000
# 4 0.0000 0.0000 0.0000 22.7324 0.0000 0.0000
# 5 0.0000 0.0000 0.0000 0.0000 22.7324 0.0000
# 6 0.0000 0.0000 0.0000 0.0000 0.0000 25.0493
#
#
#
# Elastic Compliance Matrix: (Units=1/GPa)
#
#
# Indices 1 2 3 4 5 6 
#
# 1 0.020177 -0.010976 -0.003703 0.000000 0.000000 0.000000
# 2 -0.010976 0.020177 -0.003703 0.000000 0.000000 0.000000
# 3 -0.003703 -0.003703 0.010197 0.000000 0.000000 0.000000
# 4 0.000000 0.000000 0.000000 0.043990 0.000000 0.000000
# 5 0.000000 0.000000 0.000000 0.000000 0.043990 0.000000
# 6 0.000000 0.000000 0.000000 0.000000 0.000000 0.039921
#
#
# Mechanical properties :
#
#
# Convention : Reuss Voigt Hill
#
# Bulk Modulus (GPa) = 72.52799 74.30625 73.41712
# Shear Modulus (GPa) = 22.74691 24.23439 23.49065
#
# Velocity S-wave (km/s) = 3.56568 3.68041 3.62350
# Velocity P-wave (km/s) = 7.58225 7.71965 7.65126
#
# Compressibility (1/GPa) = 0.01378778
#
# Stress axis : x y z
#
# Youngs Moduli (GPa) = 49.56229 49.56229 98.06905
#
# Poissons Ratio (x) = 0.54398 0.36312
# Poissons Ratio (y) = 0.54398 0.36312
# Poissons Ratio (z) = 0.18351 0.18351
#
# Static dielectric constant tensor:
#      x y z
#    x 1.635720 0.000000 0.000000 
#    y 0.000000 1.635720 0.000000 
#    z 0.000000 0.000000 1.605580 
# 
# From -- ./inp_files/10796.got.cif
#   From: 2010.05.17/outbox.cif.g08.bks.cpg/sg131_6_cif.got.tgz:10796.got - 2010.05.20 12:21:01.
