data_PCOD9566615
_publ_section_title
;
Structure prediction by ZEFSAII (Michael W. Deem and Ramdas Pophale) SiO2 
 PCOD9566615
Probable space group: P 42/M M C
;
_chemical_formula_sum "Si O2"
_cell_formula_units_Z 112
_cell_length_a 14.909916
_cell_length_b 14.909916
_cell_length_c 25.664477
_cell_angle_alpha 90.000000
_cell_angle_beta 90.000000
_cell_angle_gamma 90.000000
_cell_volume 5705.356833
_symmetry_space_group_name_H-M "P 42/M M C"
_symmetry_group_IT_number 131
_symmetry_cell_setting 'tetragonal'
loop_
_space_group_symop_operation_xyz
x,y,z
-x,-y,z
-y,x,1/2+z
y,-x,1/2+z
-x,y,-z
x,-y,-z
y,x,1/2-z
-y,-x,1/2-z
-x,-y,-z
x,y,-z
y,-x,1/2-z
-y,x,1/2-z
x,-y,z
-x,y,z
-y,-x,1/2+z
y,x,1/2+z
loop_
_atom_site_type_symbol
_atom_site_label
_atom_site_fract_x
_atom_site_fract_y
_atom_site_fract_z
Si Si1 0.106251 0.745072 0.758843
Si Si2 0.794634 0.899271 0.938528
Si Si3 0.403773 0.866030 0.939566
Si Si4 0.103159 0.743022 0.883104
Si Si5 0.674214 0.598353 0.604298
Si Si6 0.606941 0.743161 0.222152
Si Si7 0.773912 0.601679 0.939821
O O1 0.162496 0.837505 0.750000
O O2 0.108737 0.731731 0.821168
O O3 0.166214 0.664358 0.733818
O O4 0.000000 0.747826 0.743116
O O5 0.691296 0.899135 0.919295
O O6 0.850486 0.833581 0.902809
O O7 0.829597 0.000000 0.936414
O O8 0.794909 0.871044 0.000000
O O9 0.500000 0.893216 0.915564
O O10 0.399714 0.758703 0.934725
O O11 0.406052 0.892831 0.000000
O O12 0.156883 0.664960 0.911244
O O13 0.000000 0.743038 0.898858
O O14 0.631560 0.500000 0.602228
O O15 0.718828 0.610318 0.661009
O O16 0.611053 0.679208 0.589215
O O17 0.662021 0.662021 0.250000
O O18 0.500000 0.748956 0.236502
O O19 0.805173 0.500000 0.938263
O O20 0.762514 0.628720 0.000000
#
# Coordination Sequence:
#
# PCOD9566615 Si02
#       7
#    16  16  16  16  16  16  16
#     4  10  23  42  64  89 117 152 196 251 310 365
#     4  10  21  36  57  86 117 152 192 233 285 350
#     4   9  17  31  54  83 115 150 184 220 273 343
#     4  11  24  42  61  83 115 155 197 245 301 351
#     4  10  20  36  58  85 120 156 189 231 287 350
#     4  10  22  39  60  88 120 155 200 247 294 353
#     4  11  23  38  60  90 121 157 202 246 289 340
#
# _framework density 19.630673999999999
#
# number of rings (size 3 to 8) (size 9 to 14) (size 15 to 20)
#    0.000    1.857    1.429    2.571    0.000    6.571 
#    0.000    7.857    0.000    2.571    0.000    0.000 
#    0.000    0.000    0.000    0.000    0.000    0.000 
#
# Total GULP energy -624870.943329 kJ/mol
# GULP energy per Si atom -5579.204851 kJ/mol
# Density = 1.958599 g / cm^3
# Si number density = 19.630674 Si / 1000 Ang^3
#
#
#
# Elastic Constant Matrix: (Units=GPa)
#
#
# Indices 1 2 3 4 5 6 
#
# 1 126.0710 56.5024 35.7049 0.0000 0.0000 0.0000
# 2 56.5024 126.0709 35.7058 0.0000 0.0000 0.0000
# 3 35.7049 35.7058 57.1976 0.0000 0.0000 0.0000
# 4 0.0000 0.0000 0.0000 24.9168 0.0000 0.0000
# 5 0.0000 0.0000 0.0000 0.0000 24.9187 0.0000
# 6 0.0000 0.0000 0.0000 0.0000 0.0000 150.6232
#
#
#
# Elastic Compliance Matrix: (Units=1/GPa)
#
#
# Indices 1 2 3 4 5 6 
#
# 1 0.010810 -0.003564 -0.004524 0.000000 0.000000 0.000000
# 2 -0.003564 0.010811 -0.004524 0.000000 0.000000 0.000000
# 3 -0.004524 -0.004524 0.023131 0.000000 0.000000 0.000000
# 4 0.000000 0.000000 0.000000 0.040134 0.000000 0.000000
# 5 0.000000 0.000000 0.000000 0.000000 0.040130 0.000000
# 6 0.000000 0.000000 0.000000 0.000000 0.000000 0.006639
#
#
# Mechanical properties :
#
#
# Convention : Reuss Voigt Hill
#
# Bulk Modulus (GPa) = 51.20444 62.79621 57.00032
# Shear Modulus (GPa) = 30.60215 52.18686 41.39451
#
# Velocity S-wave (km/s) = 3.95257 5.16159 4.59700
# Velocity P-wave (km/s) = 6.85353 8.22077 7.56809
#
# Compressibility (1/GPa) = 0.01952956
#
# Stress axis : x y z
#
# Youngs Moduli (GPa) = 92.50357 92.50248 43.23203
#
# Poissons Ratio (x) = 0.32966 0.19556
# Poissons Ratio (y) = 0.32967 0.19557
# Poissons Ratio (z) = 0.41844 0.41846
#
# Static dielectric constant tensor:
#      x y z
#    x 1.838690 0.000000 0.000000 
#    y 0.000000 1.838520 0.000000 
#    z 0.000000 0.000000 1.694120 
# 
# From -- ./inp_files/11269.got.cif
#   From: 2010.05.17/outbox.cif.g08.bks.cpg/sg131_6_cif.got.tgz:11269.got - 2010.05.20 12:21:01.
