data_PCOD9566534
_publ_section_title
;
Structure prediction by ZEFSAII (Michael W. Deem and Ramdas Pophale) SiO2 
 PCOD9566534
Probable space group: P 42/M M C
;
_chemical_formula_sum "Si O2"
_cell_formula_units_Z 96
_cell_length_a 24.848017
_cell_length_b 24.848017
_cell_length_c 8.639458
_cell_angle_alpha 90.000000
_cell_angle_beta 90.000000
_cell_angle_gamma 90.000000
_cell_volume 5334.208274
_symmetry_space_group_name_H-M "P 42/M M C"
_symmetry_group_IT_number 131
_symmetry_cell_setting 'tetragonal'
loop_
_space_group_symop_operation_xyz
x,y,z
-x,-y,z
-y,x,1/2+z
y,-x,1/2+z
-x,y,-z
x,-y,-z
y,x,1/2-z
-y,-x,1/2-z
-x,-y,-z
x,y,-z
y,-x,1/2-z
-y,x,1/2-z
x,-y,z
-x,y,z
-y,-x,1/2+z
y,x,1/2+z
loop_
_atom_site_type_symbol
_atom_site_label
_atom_site_fract_x
_atom_site_fract_y
_atom_site_fract_z
Si Si1 0.269662 0.648437 0.813264
Si Si2 0.642378 0.438897 0.813244
Si Si3 0.438146 0.937950 0.186797
Si Si4 0.142980 0.937785 0.814538
Si Si5 0.853772 0.771800 0.814421
Si Si6 0.853300 0.351932 0.186898
O O1 0.297370 0.702631 0.750000
O O2 0.308372 0.599457 0.764317
O O3 0.208541 0.638019 0.764231
O O4 0.269958 0.651875 0.000000
O O5 0.588614 0.411387 0.750000
O O6 0.648798 0.500000 0.760800
O O7 0.640930 0.438329 0.000000
O O8 0.500000 0.925415 0.234797
O O9 0.394629 0.895763 0.248455
O O10 0.426616 0.000000 0.234369
O O11 0.437010 0.936746 0.000000
O O12 0.088540 0.911461 0.750000
O O13 0.190977 0.902138 0.745129
O O14 0.148007 0.000000 0.772328
O O15 0.143753 0.932694 0.000000
O O16 0.799365 0.799365 0.750000
O O17 0.863259 0.710178 0.767006
O O18 0.851032 0.773797 0.000000
O O19 0.855604 0.354747 0.000000
#
# Coordination Sequence:
#
# PCOD9566534 Si02
#       6
#    16  16  16  16  16  16
#     4   9  18  33  51  73 103 135 167 206 251 298
#     4   9  18  32  49  69  95 129 166 204 248 294
#     4   9  20  39  58  76 102 135 170 210 255 302
#     4  10  21  36  54  76 102 135 174 213 256 304
#     4  10  20  34  52  76 107 139 171 210 255 302
#     4  10  21  34  53  82 107 132 169 208 251 305
#
# _framework density 17.997046000000001
#
# number of rings (size 3 to 8) (size 9 to 14) (size 15 to 20)
#    0.000    2.500    0.000    3.000    0.000    6.000 
#    0.000    7.500    0.000    0.000    0.000    0.000 
#    0.000    0.000    0.000    0.000    0.000    0.000 
#
# Total GULP energy -535504.664738 kJ/mol
# GULP energy per Si atom -5578.173591 kJ/mol
# Density = 1.795608 g / cm^3
# Si number density = 17.997046 Si / 1000 Ang^3
#
#
#
# Elastic Constant Matrix: (Units=GPa)
#
#
# Indices 1 2 3 4 5 6 
#
# 1 160.0526 98.0519 32.7953 0.0000 0.0000 0.0000
# 2 98.0519 160.0343 32.7916 0.0000 0.0000 0.0000
# 3 32.7953 32.7916 21.2965 0.0000 0.0000 0.0000
# 4 0.0000 0.0000 0.0000 22.9337 0.0000 0.0000
# 5 0.0000 0.0000 0.0000 0.0000 22.9325 0.0000
# 6 0.0000 0.0000 0.0000 0.0000 0.0000 25.6405
#
#
#
# Elastic Compliance Matrix: (Units=1/GPa)
#
#
# Indices 1 2 3 4 5 6 
#
# 1 0.011248 -0.004883 -0.009802 0.000000 0.000000 0.000000
# 2 -0.004883 0.011249 -0.009801 0.000000 0.000000 0.000000
# 3 -0.009802 -0.009801 0.077142 0.000000 0.000000 0.000000
# 4 0.000000 0.000000 0.000000 0.043604 0.000000 0.000000
# 5 0.000000 0.000000 0.000000 0.000000 0.043606 0.000000
# 6 0.000000 0.000000 0.000000 0.000000 0.000000 0.039001
#
#
# Mechanical properties :
#
#
# Convention : Reuss Voigt Hill
#
# Bulk Modulus (GPa) = 19.73699 74.29566 47.01633
# Shear Modulus (GPa) = 17.14025 26.15098 21.64561
#
# Velocity S-wave (km/s) = 3.08943 3.81605 3.47180
# Velocity P-wave (km/s) = 4.86998 7.79667 6.50019
#
# Compressibility (1/GPa) = 0.05066629
#
# Stress axis : x y z
#
# Youngs Moduli (GPa) = 88.90540 88.89968 12.96306
#
# Poissons Ratio (x) = 0.43409 0.12707
# Poissons Ratio (y) = 0.43412 0.12705
# Poissons Ratio (z) = 0.87149 0.87129
#
# Static dielectric constant tensor:
#      x y z
#    x 1.607480 0.000000 0.000000 
#    y 0.000000 1.607480 0.000000 
#    z 0.000000 0.000000 1.613380 
# 
# From -- ./inp_files/2271.got.cif
#   From: 2010.05.17/outbox.cif.g08.bks.cpg/sg131_2_cif.got.tgz:2271.got - 2010.05.20 12:21:01.
