data_PCOD9566898
_publ_section_title
;
Structure prediction by ZEFSAII (Michael W. Deem and Ramdas Pophale) SiO2 
 PCOD9566898
Probable space group: P 42/M M C
;
_chemical_formula_sum "Si O2"
_cell_formula_units_Z 80
_cell_length_a 22.070083
_cell_length_b 22.070083
_cell_length_c 13.300645
_cell_angle_alpha 90.000000
_cell_angle_beta 90.000000
_cell_angle_gamma 90.000000
_cell_volume 6478.592068
_symmetry_space_group_name_H-M "P 42/M M C"
_symmetry_group_IT_number 131
_symmetry_cell_setting 'tetragonal'
loop_
_space_group_symop_operation_xyz
x,y,z
-x,-y,z
-y,x,1/2+z
y,-x,1/2+z
-x,y,-z
x,-y,-z
y,x,1/2-z
-y,-x,1/2-z
-x,-y,-z
x,y,-z
y,-x,1/2-z
-y,x,1/2-z
x,-y,z
-x,y,z
-y,-x,1/2+z
y,x,1/2+z
loop_
_atom_site_type_symbol
_atom_site_label
_atom_site_fract_x
_atom_site_fract_y
_atom_site_fract_z
Si Si1 0.070910 0.573941 0.500000
Si Si2 0.500000 0.570837 0.378451
Si Si3 0.851972 0.570735 0.688147
Si Si4 0.656089 0.389053 0.122310
Si Si5 0.573606 0.792584 0.383650
Si Si6 0.566852 0.713238 0.120457
O O1 0.077335 0.500000 0.500000
O O2 0.103754 0.596221 0.397686
O O3 0.000000 0.588115 0.500000
O O4 0.500000 0.500000 0.351147
O O5 0.500000 0.570830 0.500000
O O6 0.442096 0.609969 0.347407
O O7 0.869268 0.500000 0.699481
O O8 0.842383 0.594558 0.801859
O O9 0.783925 0.572965 0.644134
O O10 0.726034 0.402273 0.147336
O O11 0.623086 0.327317 0.154945
O O12 0.657062 0.389358 0.000000
O O13 0.589869 0.804852 0.500000
O O14 0.500000 0.788991 0.378943
O O15 0.500000 0.693162 0.158134
O O16 0.565017 0.706771 0.000000
#
# Coordination Sequence:
#
# PCOD9566898 Si02
#       6
#     8   8  16  16  16  16
#     4   9  16  28  46  64  76  79  91 121 165 222
#     4   9  14  20  30  44  62  85 121 164 202 229
#     4   9  16  26  40  55  68  85 103 129 169 217
#     4   9  15  22  32  46  64  90 123 157 190 215
#     4   9  16  26  37  49  67  92 120 146 167 203
#     4   9  15  23  34  49  68  86 112 152 193 229
#
# _framework density 12.348362
#
# number of rings (size 3 to 8) (size 9 to 14) (size 15 to 20)
#    0.000    3.000    2.000    0.600    0.000    3.200 
#    0.000    0.000    0.000    0.600    0.000    4.200 
#    0.000    0.000    0.000    0.200    0.000    0.400 
#
# Total GULP energy -445408.005606 kJ/mol
# GULP energy per Si atom -5567.600070 kJ/mol
# Density = 1.232026 g / cm^3
# Si number density = 12.348362 Si / 1000 Ang^3
#
#
#
# Elastic Constant Matrix: (Units=GPa)
#
#
# Indices 1 2 3 4 5 6 
#
# 1 35.4359 7.5088 27.7983 0.0000 0.0000 0.0000
# 2 7.5088 35.4359 27.7983 0.0000 0.0000 0.0000
# 3 27.7983 27.7983 95.9574 0.0000 0.0000 0.0000
# 4 0.0000 0.0000 0.0000 10.7465 0.0000 0.0000
# 5 0.0000 0.0000 0.0000 0.0000 10.7465 0.0000
# 6 0.0000 0.0000 0.0000 0.0000 0.0000 3.0026
#
#
#
# Elastic Compliance Matrix: (Units=1/GPa)
#
#
# Indices 1 2 3 4 5 6 
#
# 1 0.036534 0.000726 -0.010794 0.000000 0.000000 0.000000
# 2 0.000726 0.036534 -0.010794 0.000000 0.000000 0.000000
# 3 -0.010794 -0.010794 0.016675 0.000000 0.000000 0.000000
# 4 0.000000 0.000000 0.000000 0.093054 0.000000 0.000000
# 5 0.000000 0.000000 0.000000 0.000000 0.093054 0.000000
# 6 0.000000 0.000000 0.000000 0.000000 0.000000 0.333044
#
#
# Mechanical properties :
#
#
# Convention : Reuss Voigt Hill
#
# Bulk Modulus (GPa) = 20.82518 32.55999 26.69259
# Shear Modulus (GPa) = 7.50048 11.81403 9.65725
#
# Velocity S-wave (km/s) = 2.46724 3.09646 2.79958
# Velocity P-wave (km/s) = 5.00177 6.26172 5.66687
#
# Compressibility (1/GPa) = 0.04801879
#
# Stress axis : x y z
#
# Youngs Moduli (GPa) = 27.37210 27.37210 59.96958
#
# Poissons Ratio (x) = -0.01987 0.64730
# Poissons Ratio (y) = -0.01987 0.64730
# Poissons Ratio (z) = 0.29545 0.29545
#
# Static dielectric constant tensor:
#      x y z
#    x 1.377750 0.000000 0.000000 
#    y 0.000000 1.377750 0.000000 
#    z 0.000000 0.000000 1.515600 
# 
# From -- ./inp_files/6028.got.cif
#   From: 2010.05.17/outbox.cif.g08.bks.cpg/sg131_4_cif.got.tgz:6028.got - 2010.05.20 12:21:01.
