data_PCOD9566067
_publ_section_title
;
Structure prediction by ZEFSAII (Michael W. Deem and Ramdas Pophale) SiO2 
 PCOD9566067
Probable space group: P 42/M M C
;
_chemical_formula_sum "Si O2"
_cell_formula_units_Z 88
_cell_length_a 17.807610
_cell_length_b 17.807610
_cell_length_c 13.966146
_cell_angle_alpha 90.000000
_cell_angle_beta 90.000000
_cell_angle_gamma 90.000000
_cell_volume 4428.818160
_symmetry_space_group_name_H-M "P 42/M M C"
_symmetry_group_IT_number 131
_symmetry_cell_setting 'tetragonal'
loop_
_space_group_symop_operation_xyz
x,y,z
-x,-y,z
-y,x,1/2+z
y,-x,1/2+z
-x,y,-z
x,-y,-z
y,x,1/2-z
-y,-x,1/2-z
-x,-y,-z
x,y,-z
y,-x,1/2-z
-y,x,1/2-z
x,-y,z
-x,y,z
-y,-x,1/2+z
y,x,1/2+z
loop_
_atom_site_type_symbol
_atom_site_label
_atom_site_fract_x
_atom_site_fract_y
_atom_site_fract_z
Si Si1 0.500000 0.587152 0.115522
Si Si2 0.658648 0.085830 0.886942
Si Si3 0.800593 0.415531 0.242467
Si Si4 0.209411 0.915104 0.248424
Si Si5 0.088592 0.652288 0.890655
Si Si6 0.592217 0.665198 0.387235
O O1 0.500000 0.500000 0.145940
O O2 0.581312 0.619275 0.141833
O O3 0.500000 0.586691 0.000000
O O4 0.620905 0.155676 0.831857
O O5 0.744329 0.087633 0.850695
O O6 0.631457 0.000000 0.859580
O O7 0.650601 0.092808 0.000000
O O8 0.780637 0.500000 0.269216
O O9 0.864142 0.411923 0.160108
O O10 0.729184 0.381152 0.185998
O O11 0.143864 0.856137 0.250000
O O12 0.272300 0.898073 0.329082
O O13 0.182847 0.000000 0.264130
O O14 0.000000 0.636795 0.886197
O O15 0.110860 0.662300 0.000000
O O16 0.612060 0.678609 0.500000
O O17 0.500000 0.664209 0.385123
#
# Coordination Sequence:
#
# PCOD9566067 Si02
#       6
#     8  16  16  16  16  16
#     4   7  10  18  32  52  85 131 175 211 263 338
#     4   9  19  35  51  69 102 149 192 228 269 318
#     4  10  18  27  43  70 103 141 189 241 284 325
#     4   9  18  33  54  80 109 140 175 216 260 308
#     4   9  18  31  45  66 104 149 181 213 268 333
#     4   8  13  21  35  59  94 135 177 224 280 340
#
# _framework density 19.869859999999999
#
# number of rings (size 3 to 8) (size 9 to 14) (size 15 to 20)
#    0.000    3.182    0.000    3.273    0.000    3.818 
#    0.000    1.818    0.000    0.000    0.000    5.727 
#   43.636    3.636    8.727    0.000    0.000    0.000 
#
# Total GULP energy -490307.481028 kJ/mol
# GULP energy per Si atom -5571.675921 kJ/mol
# Density = 1.982464 g / cm^3
# Si number density = 19.869860 Si / 1000 Ang^3
#
#
#
# Elastic Constant Matrix: (Units=GPa)
#
#
# Indices 1 2 3 4 5 6 
#
# 1 110.8798 6.0652 40.5079 0.0000 0.0000 0.0000
# 2 6.0652 110.8628 40.5169 0.0000 0.0000 0.0000
# 3 40.5079 40.5169 123.7419 0.0000 0.0000 0.0000
# 4 0.0000 0.0000 0.0000 17.6528 0.0000 0.0000
# 5 0.0000 0.0000 0.0000 0.0000 17.6490 0.0000
# 6 0.0000 0.0000 0.0000 0.0000 0.0000 -5.5411
#
#
#
# Elastic Compliance Matrix: (Units=1/GPa)
#
#
# Indices 1 2 3 4 5 6 
#
# 1 0.010300 0.000760 -0.003620 0.000000 0.000000 0.000000
# 2 0.000760 0.010302 -0.003622 0.000000 0.000000 0.000000
# 3 -0.003620 -0.003622 0.010452 0.000000 0.000000 0.000000
# 4 0.000000 0.000000 0.000000 0.056648 0.000000 0.000000
# 5 0.000000 0.000000 0.000000 0.000000 0.056660 0.000000
# 6 0.000000 0.000000 0.000000 0.000000 0.000000 -0.180471
#
#
# Mechanical properties :
#
#
# Convention : Reuss Voigt Hill
#
# Bulk Modulus (GPa) = 55.28192 57.74052 56.51122
# Shear Modulus (GPa) = -292.19051 23.17845 -134.50603
#
# Velocity S-wave (km/s) = -12.13966 3.41913 -8.23653
# Velocity P-wave (km/s) = 12.98510 6.68653 7.87093
#
# Compressibility (1/GPa) = 0.01808910
#
# Stress axis : x y z
#
# Youngs Moduli (GPa) = 97.08835 97.06551 95.67105
#
# Poissons Ratio (x) = -0.07374 0.34638
# Poissons Ratio (y) = -0.07376 0.34652
# Poissons Ratio (z) = 0.35151 0.35157
#
# Static dielectric constant tensor:
#      x y z
#    x 1.725870 0.000000 0.000000 
#    y 0.000000 1.725870 0.000000 
#    z 0.000000 0.000000 1.720190 
# 
# From -- ./inp_files/5878.got.cif
#   From: 2010.05.17/outbox.cif.g08.bks.cpg/sg131_3_cif.got.tgz:5878.got - 2010.05.20 12:21:01.
