data_PCOD9566906
_publ_section_title
;
Structure prediction by ZEFSAII (Michael W. Deem and Ramdas Pophale) SiO2 
 PCOD9566906
Probable space group: P 42/M M C
;
_chemical_formula_sum "Si O2"
_cell_formula_units_Z 96
_cell_length_a 15.000000
_cell_length_b 15.000000
_cell_length_c 21.000000
_cell_angle_alpha 90.000000
_cell_angle_beta 90.000000
_cell_angle_gamma 90.000000
_cell_volume 4725.000000
_symmetry_space_group_name_H-M "P 42/M M C"
_symmetry_group_IT_number 131
_symmetry_cell_setting 'tetragonal'
loop_
_space_group_symop_operation_xyz
x,y,z
-x,-y,z
-y,x,1/2+z
y,-x,1/2+z
-x,y,-z
x,-y,-z
y,x,1/2-z
-y,-x,1/2-z
-x,-y,-z
x,y,-z
y,-x,1/2-z
-y,x,1/2-z
x,-y,z
-x,y,z
-y,-x,1/2+z
y,x,1/2+z
loop_
_atom_site_type_symbol
_atom_site_label
_atom_site_fract_x
_atom_site_fract_y
_atom_site_fract_z
Si Si1 0.404046 0.212519 0.624104
Si Si2 0.402647 0.372539 0.824524
Si Si3 0.642477 0.898948 0.251379
Si Si4 0.825691 0.403987 0.624176
Si Si5 0.790771 0.207989 0.927742
Si Si6 0.168766 0.900006 0.808150
O O1 0.500000 0.184094 0.596853
O O2 0.407549 0.317751 0.638441
O O3 0.391895 0.164413 0.692799
O O4 0.314271 0.199491 0.583631
O O5 0.392204 0.392204 0.750000
O O6 0.500000 0.403703 0.845742
O O7 0.400970 0.267298 0.837208
O O8 0.596755 0.894878 0.182323
O O9 0.742038 0.872449 0.230405
O O10 0.641254 0.000000 0.275660
O O11 0.830878 0.500000 0.589905
O O12 0.823398 0.312833 0.583716
O O13 0.843869 0.161680 0.869557
O O14 0.816665 0.185481 0.000000
O O15 0.100303 0.899698 0.750000
O O16 0.182734 0.000000 0.832253
#
# Coordination Sequence:
#
# PCOD9566906 Si02
#       6
#    16  16  16  16  16  16
#     4  11  21  33  53  78 113 157 200 242 285 340
#     4  10  18  28  44  71 108 144 184 242 302 343
#     4  10  19  32  54  84 115 147 184 235 295 343
#     4   9  18  31  50  76 110 150 195 243 290 342
#     4  10  22  38  57  82 120 163 198 241 292 345
#     4  10  20  38  66  93 118 146 184 238 298 355
#
# _framework density 20.317460000000001
#
# number of rings (size 3 to 8) (size 9 to 14) (size 15 to 20)
#    0.000    2.000    3.333    1.000    0.000    3.667 
#    0.000    0.000    0.000    2.000    0.000   11.667 
#    0.000    0.000    0.000    0.000    0.000    0.000 
#
# Total GULP energy -534587.209734 kJ/mol
# GULP energy per Si atom -5568.616768 kJ/mol
# Density = 2.027122 g / cm^3
# Si number density = 20.317460 Si / 1000 Ang^3
#
#
#
# Elastic Constant Matrix: (Units=GPa)
#
#
# Indices 1 2 3 4 5 6 
#
# 1 52.0035 39.6672 22.3037 0.0000 0.0000 0.0000
# 2 39.6672 52.0030 22.3025 0.0000 0.0000 0.0000
# 3 22.3037 22.3025 95.0491 0.0000 0.0000 0.0000
# 4 0.0000 0.0000 0.0000 13.6582 0.0000 0.0000
# 5 0.0000 0.0000 0.0000 0.0000 13.6593 0.0000
# 6 0.0000 0.0000 0.0000 0.0000 0.0000 2.2019
#
#
#
# Elastic Compliance Matrix: (Units=1/GPa)
#
#
# Indices 1 2 3 4 5 6 
#
# 1 0.046689 -0.034374 -0.002890 0.000000 0.000000 0.000000
# 2 -0.034374 0.046689 -0.002889 0.000000 0.000000 0.000000
# 3 -0.002890 -0.002889 0.011877 0.000000 0.000000 0.000000
# 4 0.000000 0.000000 0.000000 0.073216 0.000000 0.000000
# 5 0.000000 0.000000 0.000000 0.000000 0.073210 0.000000
# 6 0.000000 0.000000 0.000000 0.000000 0.000000 0.454148
#
#
# Mechanical properties :
#
#
# Convention : Reuss Voigt Hill
#
# Bulk Modulus (GPa) = 40.08354 40.84471 40.46413
# Shear Modulus (GPa) = 6.29365 13.55603 9.92484
#
# Velocity S-wave (km/s) = 1.76192 2.58585 2.21257
# Velocity P-wave (km/s) = 4.88985 5.39095 5.14650
#
# Compressibility (1/GPa) = 0.02494789
#
# Stress axis : x y z
#
# Youngs Moduli (GPa) = 21.41840 21.41842 84.19655
#
# Poissons Ratio (x) = 0.73624 0.24334
# Poissons Ratio (y) = 0.73624 0.24325
# Poissons Ratio (z) = 0.06190 0.06188
#
# Static dielectric constant tensor:
#      x y z
#    x 1.798810 0.000000 0.000000 
#    y 0.000000 1.798810 0.000000 
#    z 0.000000 0.000000 1.669990 
# 
# From -- ./inp_files/9758.got.cif
#   From: 2010.05.17/outbox.ucp.g08.bks.cvg/sg131_5_cif.got.tgz:9758.got - 2010.06.11 11:38:44.
