data_PCOD9566280
_publ_section_title
;
Structure prediction by ZEFSAII (Michael W. Deem and Ramdas Pophale) SiO2 
 PCOD9566280
Probable space group: P 42/M M C
;
_chemical_formula_sum "Si O2"
_cell_formula_units_Z 120
_cell_length_a 14.315997
_cell_length_b 14.315997
_cell_length_c 35.591912
_cell_angle_alpha 90.000000
_cell_angle_beta 90.000000
_cell_angle_gamma 90.000000
_cell_volume 7294.482998
_symmetry_space_group_name_H-M "P 42/M M C"
_symmetry_group_IT_number 131
_symmetry_cell_setting 'tetragonal'
loop_
_space_group_symop_operation_xyz
x,y,z
-x,-y,z
-y,x,1/2+z
y,-x,1/2+z
-x,y,-z
x,-y,-z
y,x,1/2-z
-y,-x,1/2-z
-x,-y,-z
x,y,-z
y,-x,1/2-z
-y,x,1/2-z
x,-y,z
-x,y,z
-y,-x,1/2+z
y,x,1/2+z
loop_
_atom_site_type_symbol
_atom_site_label
_atom_site_fract_x
_atom_site_fract_y
_atom_site_fract_z
Si Si1 0.611396 0.249586 0.955894
Si Si2 0.886257 0.892019 0.639375
Si Si3 0.609708 0.610500 0.388770
Si Si4 0.112157 0.233870 0.569375
Si Si5 0.208831 0.111353 0.215887
Si Si6 0.113046 0.104499 0.500000
Si Si7 0.391252 0.665199 0.694044
Si Si8 0.786304 0.398319 0.263407
O O1 0.500000 0.233601 0.954349
O O2 0.633440 0.331719 0.926046
O O3 0.669672 0.161973 0.940504
O O4 0.634457 0.268157 0.000000
O O5 0.858243 0.819431 0.607063
O O6 0.857948 0.845091 0.678409
O O7 0.000000 0.895775 0.638404
O O8 0.854719 0.000000 0.634851
O O9 0.625662 0.500000 0.380197
O O10 0.500000 0.622357 0.396539
O O11 0.631402 0.666564 0.350309
O O12 0.138671 0.162479 0.536397
O O13 0.000000 0.245806 0.569873
O O14 0.145575 0.145575 0.250000
O O15 0.310789 0.156338 0.221417
O O16 0.217396 0.000000 0.215238
O O17 0.000000 0.098810 0.500000
O O18 0.150325 0.000000 0.500000
O O19 0.500000 0.632656 0.696983
O O20 0.312941 0.603662 0.714635
O O21 0.386434 0.759591 0.719259
O O22 0.830390 0.500000 0.268909
#
# Coordination Sequence:
#
# PCOD9566280 Si02
#       8
#    16  16  16  16  16   8  16  16
#     4  10  21  34  48  71 105 143 176 206 246 305
#     4   9  19  35  54  75  98 128 170 223 272 306
#     4   9  18  32  51  74  98 130 171 214 257 297
#     4  10  19  32  50  74 103 134 168 209 256 310
#     4  11  22  37  54  74 102 140 185 223 260 308
#     4   9  16  28  49  73  96 123 157 205 263 312
#     4   9  17  32  53  77 103 129 167 213 259 306
#     4  10  20  33  51  78 110 140 169 209 263 317
#
# _framework density 16.450787999999999
#
# number of rings (size 3 to 8) (size 9 to 14) (size 15 to 20)
#    0.000    2.333    2.000    1.200    1.867    4.400 
#    0.000    4.667    0.000    2.400    0.000    0.000 
#    0.000    2.667    0.000    0.000    0.000    0.000 
#
# Total GULP energy -668104.247156 kJ/mol
# GULP energy per Si atom -5567.535393 kJ/mol
# Density = 1.641334 g / cm^3
# Si number density = 16.450788 Si / 1000 Ang^3
#
#
#
# Elastic Constant Matrix: (Units=GPa)
#
#
# Indices 1 2 3 4 5 6 
#
# 1 55.7732 28.6455 43.0004 0.0000 0.0000 0.0000
# 2 28.6455 55.7732 43.0004 0.0000 0.0000 0.0000
# 3 43.0004 43.0004 154.6917 0.0000 0.0000 0.0000
# 4 0.0000 0.0000 0.0000 23.4125 0.0000 0.0000
# 5 0.0000 0.0000 0.0000 0.0000 23.4125 0.0000
# 6 0.0000 0.0000 0.0000 0.0000 0.0000 17.0334
#
#
#
# Elastic Compliance Matrix: (Units=1/GPa)
#
#
# Indices 1 2 3 4 5 6 
#
# 1 0.026694 -0.010169 -0.004594 0.000000 0.000000 0.000000
# 2 -0.010169 0.026694 -0.004594 0.000000 0.000000 0.000000
# 3 -0.004594 -0.004594 0.009018 0.000000 0.000000 0.000000
# 4 0.000000 0.000000 0.000000 0.042712 0.000000 0.000000
# 5 0.000000 0.000000 0.000000 0.000000 0.042712 0.000000
# 6 0.000000 0.000000 0.000000 0.000000 0.000000 0.058708
#
#
# Mechanical properties :
#
#
# Convention : Reuss Voigt Hill
#
# Bulk Modulus (GPa) = 42.20375 55.05897 48.63136
# Shear Modulus (GPa) = 19.75121 22.87782 21.31452
#
# Velocity S-wave (km/s) = 3.46876 3.73323 3.60342
# Velocity P-wave (km/s) = 6.46168 7.21971 6.85119
#
# Compressibility (1/GPa) = 0.02369458
#
# Stress axis : x y z
#
# Youngs Moduli (GPa) = 37.46151 37.46151 110.88556
#
# Poissons Ratio (x) = 0.38093 0.50937
# Poissons Ratio (y) = 0.38093 0.50937
# Poissons Ratio (z) = 0.17209 0.17209
#
# Static dielectric constant tensor:
#      x y z
#    x 1.551630 0.000000 0.000000 
#    y 0.000000 1.551630 0.000000 
#    z 0.000000 0.000000 1.620630 
# 
# From -- ./inp_files/13944.got.cif
#   From: 2010.05.17/outbox.cif.g08.bks.cpg/sg131_7_cif.got.tgz:13944.got - 2010.05.20 12:21:01.
