data_PCOD9566989
_publ_section_title
;
Structure prediction by ZEFSAII (Michael W. Deem and Ramdas Pophale) SiO2 
 PCOD9566989
Probable space group: P 42/M C M
;
_chemical_formula_sum "Si O2"
_cell_formula_units_Z 112
_cell_length_a 20.092863
_cell_length_b 20.092863
_cell_length_c 17.155899
_cell_angle_alpha 90.000000
_cell_angle_beta 90.000000
_cell_angle_gamma 90.000000
_cell_volume 6926.233474
_symmetry_space_group_name_H-M "P 42/M C M"
_symmetry_group_IT_number 132
_symmetry_cell_setting 'tetragonal'
loop_
_space_group_symop_operation_xyz
x,y,z
-y,x,1/2+z
-x,-y,z
y,-x,1/2+z
x,-y,1/2-z
-x,y,1/2-z
y,x,-z
-y,-x,-z
-x,-y,-z
y,-x,1/2-z
x,y,-z
-y,x,1/2-z
-x,y,1/2+z
x,-y,1/2+z
-y,-x,z
y,x,z
loop_
_atom_site_type_symbol
_atom_site_label
_atom_site_fract_x
_atom_site_fract_y
_atom_site_fract_z
Si Si1 0.355114 0.062453 0.854038
Si Si2 0.697259 0.198614 0.593904
Si Si3 0.106746 0.502634 0.410614
Si Si4 0.326714 0.781288 0.093106
Si Si5 0.668601 0.435814 0.095132
Si Si6 0.745321 0.441924 0.407648
Si Si7 0.633814 0.082206 0.169654
O O1 0.308837 0.121369 0.885342
O O2 0.427360 0.072047 0.893246
O O3 0.362545 0.076530 0.762319
O O4 0.335007 0.985821 0.864479
O O5 0.694488 0.202233 0.500000
O O6 0.762537 0.237464 0.620998
O O7 0.631292 0.237892 0.624358
O O8 0.094791 0.482698 0.500000
O O9 0.185358 0.517654 0.401482
O O10 0.084682 0.443497 0.355246
O O11 0.258327 0.741674 0.107531
O O12 0.385675 0.729409 0.114304
O O13 0.334234 0.850242 0.137781
O O14 0.332658 0.793087 0.000000
O O15 0.600741 0.399260 0.120476
O O16 0.687848 0.509563 0.123926
O O17 0.666821 0.438434 0.000000
O O18 0.731780 0.432899 0.500000
#
# Coordination Sequence:
#
# PCOD9566989 Si02
#       7
#    16  16  16  16  16  16  16
#     4  10  22  32  42  64  92 121 157 188 225 275
#     4   9  18  33  50  64  82 114 160 206 234 262
#     4  10  18  29  45  64  88 122 158 189 222 264
#     4   9  17  28  44  67  91 118 152 184 221 272
#     4   8  12  20  36  59  86 112 142 182 222 264
#     4   8  13  23  40  62  83 109 146 185 228 266
#     4  11  20  31  44  63  95 126 147 184 230 274
#
# _framework density 16.170406
#
# number of rings (size 3 to 8) (size 9 to 14) (size 15 to 20)
#    0.000    2.714    1.429    3.429    0.000    4.571 
#    0.000    0.000    0.000    0.429    0.000    3.000 
#    0.000    0.571    0.000    6.286    0.000    4.571 
#
# Total GULP energy -623912.902517 kJ/mol
# GULP energy per Si atom -5570.650915 kJ/mol
# Density = 1.613360 g / cm^3
# Si number density = 16.170406 Si / 1000 Ang^3
#
#
#
# Elastic Constant Matrix: (Units=GPa)
#
#
# Indices 1 2 3 4 5 6 
#
# 1 33.4768 13.0139 3.1114 0.0000 0.0000 0.0000
# 2 13.0139 33.4768 3.1114 0.0000 0.0000 0.0000
# 3 3.1114 3.1114 8.2045 0.0000 0.0000 0.0000
# 4 0.0000 0.0000 0.0000 6.7926 0.0000 0.0000
# 5 0.0000 0.0000 0.0000 0.0000 6.7926 0.0000
# 6 0.0000 0.0000 0.0000 0.0000 0.0000 11.4173
#
#
#
# Elastic Compliance Matrix: (Units=1/GPa)
#
#
# Indices 1 2 3 4 5 6 
#
# 1 0.035764 -0.013104 -0.008593 0.000000 0.000000 0.000000
# 2 -0.013104 0.035764 -0.008593 0.000000 0.000000 0.000000
# 3 -0.008593 -0.008593 0.128402 0.000000 0.000000 0.000000
# 4 0.000000 0.000000 0.000000 0.147218 0.000000 0.000000
# 5 0.000000 0.000000 0.000000 0.000000 0.147218 0.000000
# 6 0.000000 0.000000 0.000000 0.000000 0.000000 0.087587
#
#
# Mechanical properties :
#
#
# Convention : Reuss Voigt Hill
#
# Bulk Modulus (GPa) = 7.17626 12.62573 9.90099
# Shear Modulus (GPa) = 7.25705 8.72861 7.99283
#
# Velocity S-wave (km/s) = 2.12076 2.32586 2.22567
# Velocity P-wave (km/s) = 3.23177 3.87785 3.56946
#
# Compressibility (1/GPa) = 0.13934830
#
# Stress axis : x y z
#
# Youngs Moduli (GPa) = 27.96081 27.96081 7.78804
#
# Poissons Ratio (x) = 0.36641 0.06693
# Poissons Ratio (y) = 0.36641 0.06693
# Poissons Ratio (z) = 0.24028 0.24028
#
# Static dielectric constant tensor:
#      x y z
#    x 1.559690 0.000000 0.000000 
#    y 0.000000 1.559690 0.000000 
#    z 0.000000 0.000000 1.550600 
# 
# From -- ./inp_files/6790.got.cif
#   From: 2010.05.17/outbox.cif.g08.bks.cpg/sg132_4_cif.got.tgz:6790.got - 2010.05.20 12:30:18.
