data_PCOD9566260
_publ_section_title
;
Structure prediction by ZEFSAII (Michael W. Deem and Ramdas Pophale) SiO2 
 PCOD9566260
Probable space group: P 42/M M C
;
_chemical_formula_sum "Si O2"
_cell_formula_units_Z 96
_cell_length_a 18.192712
_cell_length_b 18.192712
_cell_length_c 18.542497
_cell_angle_alpha 90.000000
_cell_angle_beta 90.000000
_cell_angle_gamma 90.000000
_cell_volume 6137.098678
_symmetry_space_group_name_H-M "P 42/M M C"
_symmetry_group_IT_number 131
_symmetry_cell_setting 'tetragonal'
loop_
_space_group_symop_operation_xyz
x,y,z
-x,-y,z
-y,x,1/2+z
y,-x,1/2+z
-x,y,-z
x,-y,-z
y,x,1/2-z
-y,-x,1/2-z
-x,-y,-z
x,y,-z
y,-x,1/2-z
-y,x,1/2-z
x,-y,z
-x,y,z
-y,-x,1/2+z
y,x,1/2+z
loop_
_atom_site_type_symbol
_atom_site_label
_atom_site_fract_x
_atom_site_fract_y
_atom_site_fract_z
Si Si1 0.586217 0.690452 0.081518
Si Si2 0.415831 0.087073 0.586426
Si Si3 0.312571 0.195956 0.838784
Si Si4 0.417144 0.911976 0.085019
Si Si5 0.200514 0.683762 0.831375
Si Si6 0.414072 0.654928 0.677912
O O1 0.500000 0.703462 0.082320
O O2 0.626181 0.744252 0.137416
O O3 0.605002 0.609750 0.110347
O O4 0.613788 0.702321 0.000000
O O5 0.411229 0.097174 0.500000
O O6 0.500000 0.107893 0.608295
O O7 0.353111 0.134510 0.624999
O O8 0.407567 0.000000 0.601175
O O9 0.346961 0.124896 0.877254
O O10 0.309009 0.182728 0.753404
O O11 0.236223 0.238554 0.857953
O O12 0.500000 0.889410 0.111237
O O13 0.413837 0.000000 0.091739
O O14 0.414850 0.893195 0.000000
O O15 0.267433 0.625697 0.833917
O O16 0.382304 0.617697 0.750000
O O17 0.500000 0.663930 0.684681
#
# Coordination Sequence:
#
# PCOD9566260 Si02
#       6
#    16  16  16  16  16  16
#     4  10  20  32  45  61  82 114 156 201 249 294
#     4   9  19  35  53  74  99 125 157 203 255 303
#     4  10  19  32  47  67  95 124 157 199 239 284
#     4   9  18  31  47  70  99 129 161 198 241 290
#     4  10  20  34  48  69  93 122 159 197 238 292
#     4  11  21  33  46  62  86 120 159 205 252 289
#
# _framework density 15.642571
#
# number of rings (size 3 to 8) (size 9 to 14) (size 15 to 20)
#    0.000    2.167    3.333    3.000    0.000    8.833 
#    0.000    2.500    0.000    0.000    0.000    0.000 
#    0.000    0.667    0.000    7.333    0.000    5.333 
#
# Total GULP energy -534534.659634 kJ/mol
# GULP energy per Si atom -5568.069371 kJ/mol
# Density = 1.560697 g / cm^3
# Si number density = 15.642571 Si / 1000 Ang^3
#
#
#
# Elastic Constant Matrix: (Units=GPa)
#
#
# Indices 1 2 3 4 5 6 
#
# 1 80.6119 11.8284 27.0972 0.0000 0.0000 0.0000
# 2 11.8284 80.6141 27.0947 0.0000 0.0000 0.0000
# 3 27.0972 27.0947 45.7752 0.0000 0.0000 0.0000
# 4 0.0000 0.0000 0.0000 24.3394 0.0000 0.0000
# 5 0.0000 0.0000 0.0000 0.0000 24.3396 0.0000
# 6 0.0000 0.0000 0.0000 0.0000 0.0000 30.1063
#
#
#
# Elastic Compliance Matrix: (Units=1/GPa)
#
#
# Indices 1 2 3 4 5 6 
#
# 1 0.015553 0.001014 -0.009807 0.000000 0.000000 0.000000
# 2 0.001014 0.015552 -0.009805 0.000000 0.000000 0.000000
# 3 -0.009807 -0.009805 0.033455 0.000000 0.000000 0.000000
# 4 0.000000 0.000000 0.000000 0.041086 0.000000 0.000000
# 5 0.000000 0.000000 0.000000 0.000000 0.041085 0.000000
# 6 0.000000 0.000000 0.000000 0.000000 0.000000 0.033216
#
#
# Mechanical properties :
#
#
# Convention : Reuss Voigt Hill
#
# Bulk Modulus (GPa) = 36.54562 37.67130 37.10846
# Shear Modulus (GPa) = 22.09809 25.15578 23.62693
#
# Velocity S-wave (km/s) = 3.76265 4.01454 3.89064
# Velocity P-wave (km/s) = 6.50311 6.75452 6.63000
#
# Compressibility (1/GPa) = 0.02736306
#
# Stress axis : x y z
#
# Youngs Moduli (GPa) = 64.29681 64.30198 29.89074
#
# Poissons Ratio (x) = -0.06521 0.29314
# Poissons Ratio (y) = -0.06520 0.29309
# Poissons Ratio (z) = 0.63056 0.63051
#
# Static dielectric constant tensor:
#      x y z
#    x 1.542440 0.000000 0.000000 
#    y 0.000000 1.542440 0.000000 
#    z 0.000000 0.000000 1.551740 
# 
# From -- ./inp_files/7963.got.cif
#   From: 2010.05.17/outbox.cif.g08.bks.cpg/sg131_4_cif.got.tgz:7963.got - 2010.05.20 12:21:01.
