data_PCOD9566694
_publ_section_title
;
Structure prediction by ZEFSAII (Michael W. Deem and Ramdas Pophale) SiO2 
 PCOD9566694
Probable space group: P 42/M M C
;
_chemical_formula_sum "Si O2"
_cell_formula_units_Z 64
_cell_length_a 14.204874
_cell_length_b 14.204874
_cell_length_c 17.171779
_cell_angle_alpha 90.000000
_cell_angle_beta 90.000000
_cell_angle_gamma 90.000000
_cell_volume 3464.894871
_symmetry_space_group_name_H-M "P 42/M M C"
_symmetry_group_IT_number 131
_symmetry_cell_setting 'tetragonal'
loop_
_space_group_symop_operation_xyz
x,y,z
-x,-y,z
-y,x,1/2+z
y,-x,1/2+z
-x,y,-z
x,-y,-z
y,x,1/2-z
-y,-x,1/2-z
-x,-y,-z
x,y,-z
y,-x,1/2-z
-y,x,1/2-z
x,-y,z
-x,y,z
-y,-x,1/2+z
y,x,1/2+z
loop_
_atom_site_type_symbol
_atom_site_label
_atom_site_fract_x
_atom_site_fract_y
_atom_site_fract_z
Si Si1 0.830892 0.606372 0.587416
Si Si2 0.892258 0.387171 0.000000
Si Si3 0.611491 0.500000 0.905278
Si Si4 0.252689 0.331344 0.132932
Si Si5 0.390271 0.103062 0.256016
O O1 0.870869 0.615232 0.500000
O O2 0.786656 0.500000 0.590231
O O3 0.758610 0.690680 0.602890
O O4 0.896950 0.610109 0.662389
O O5 0.831290 0.355054 0.926683
O O6 0.894415 0.500000 0.000000
O O7 0.000000 0.353254 0.000000
O O8 0.500000 0.500000 0.888596
O O9 0.667422 0.411461 0.870907
O O10 0.622590 0.500000 0.000000
O O11 0.194128 0.334900 0.213191
O O12 0.500000 0.114307 0.280612
O O13 0.357777 0.000000 0.284217
#
# Coordination Sequence:
#
# PCOD9566694 Si02
#       5
#    16   8   8  16  16
#     4  10  21  36  55  78 109 149 189 231 286 342
#     4  11  20  30  48  76 111 154 197 237 288 343
#     4  11  20  30  48  76 111 156 201 229 266 331
#     4  12  18  34  50  78 110 147 190 238 284 335
#     4  10  21  36  55  77 106 145 191 245 297 339
#
# _framework density 18.470979
#
# number of rings (size 3 to 8) (size 9 to 14) (size 15 to 20)
#    0.000    1.250    5.000    2.250    0.000    4.500 
#    0.000    2.500    0.000    0.000    0.000    0.000 
#    0.000   18.000    0.000    0.000    0.000    0.000 
#
# Total GULP energy -356760.961156 kJ/mol
# GULP energy per Si atom -5574.390018 kJ/mol
# Density = 1.842894 g / cm^3
# Si number density = 18.470979 Si / 1000 Ang^3
#
#
#
# Elastic Constant Matrix: (Units=GPa)
#
#
# Indices 1 2 3 4 5 6 
#
# 1 101.2718 37.8482 24.0416 0.0000 0.0000 0.0000
# 2 37.8482 101.2718 24.0416 0.0000 0.0000 0.0000
# 3 24.0416 24.0416 98.5877 0.0000 0.0000 0.0000
# 4 0.0000 0.0000 0.0000 41.4858 0.0000 0.0000
# 5 0.0000 0.0000 0.0000 0.0000 41.4858 0.0000
# 6 0.0000 0.0000 0.0000 0.0000 0.0000 10.4357
#
#
#
# Elastic Compliance Matrix: (Units=1/GPa)
#
#
# Indices 1 2 3 4 5 6 
#
# 1 0.011808 -0.003959 -0.001914 0.000000 0.000000 0.000000
# 2 -0.003959 0.011808 -0.001914 0.000000 0.000000 0.000000
# 3 -0.001914 -0.001914 0.011077 0.000000 0.000000 0.000000
# 4 0.000000 0.000000 0.000000 0.024105 0.000000 0.000000
# 5 0.000000 0.000000 0.000000 0.000000 0.024105 0.000000
# 6 0.000000 0.000000 0.000000 0.000000 0.000000 0.095825
#
#
# Mechanical properties :
#
#
# Convention : Reuss Voigt Hill
#
# Bulk Modulus (GPa) = 52.30325 52.55491 52.42908
# Shear Modulus (GPa) = 24.91595 33.02814 28.97205
#
# Velocity S-wave (km/s) = 3.67676 4.23319 3.96475
# Velocity P-wave (km/s) = 6.81195 7.23932 7.02888
#
# Compressibility (1/GPa) = 0.01911927
#
# Stress axis : x y z
#
# Youngs Moduli (GPa) = 84.68611 84.68611 90.27833
#
# Poissons Ratio (x) = 0.33524 0.17281
# Poissons Ratio (y) = 0.33524 0.17281
# Poissons Ratio (z) = 0.16211 0.16211
#
# Static dielectric constant tensor:
#      x y z
#    x 1.621480 0.000000 0.000000 
#    y 0.000000 1.621480 0.000000 
#    z 0.000000 0.000000 1.767980 
# 
# From -- ./inp_files/7357.got.cif
#   From: 2010.05.17/outbox.cif.g08.bks.cpg/sg131_4_cif.got.tgz:7357.got - 2010.05.20 12:21:01.
