data_PCOD9566561
_publ_section_title
;
Structure prediction by ZEFSAII (Michael W. Deem and Ramdas Pophale) SiO2 
 PCOD9566561
Probable space group: P 42/M M C
;
_chemical_formula_sum "Si O2"
_cell_formula_units_Z 96
_cell_length_a 14.613990
_cell_length_b 14.613990
_cell_length_c 25.551143
_cell_angle_alpha 90.000000
_cell_angle_beta 90.000000
_cell_angle_gamma 90.000000
_cell_volume 5456.924489
_symmetry_space_group_name_H-M "P 42/M M C"
_symmetry_group_IT_number 131
_symmetry_cell_setting 'tetragonal'
loop_
_space_group_symop_operation_xyz
x,y,z
-x,-y,z
-y,x,1/2+z
y,-x,1/2+z
-x,y,-z
x,-y,-z
y,x,1/2-z
-y,-x,1/2-z
-x,-y,-z
x,y,-z
y,-x,1/2-z
-y,x,1/2-z
x,-y,z
-x,y,z
-y,-x,1/2+z
y,x,1/2+z
loop_
_atom_site_type_symbol
_atom_site_label
_atom_site_fract_x
_atom_site_fract_y
_atom_site_fract_z
Si Si1 0.735156 0.896308 0.692591
Si Si2 0.601009 0.500000 0.437113
Si Si3 0.608458 0.608458 0.750000
Si Si4 0.237408 0.101855 0.182874
Si Si5 0.248428 0.392001 0.843281
Si Si6 0.608718 0.105735 0.899773
Si Si7 0.710558 0.318051 0.439949
O O1 0.748786 0.897325 0.755076
O O2 0.817852 0.833873 0.670375
O O3 0.639502 0.846563 0.682072
O O4 0.738789 0.000000 0.673169
O O5 0.500000 0.500000 0.413121
O O6 0.592269 0.500000 0.500000
O O7 0.657373 0.410850 0.424668
O O8 0.621832 0.500000 0.738223
O O9 0.672270 0.631025 0.800217
O O10 0.334599 0.114695 0.154192
O O11 0.203485 0.000000 0.167862
O O12 0.254858 0.500000 0.854321
O O13 0.253157 0.331736 0.896068
O O14 0.500000 0.123522 0.894942
O O15 0.656811 0.182619 0.935109
O O16 0.618663 0.000000 0.917707
O O17 0.689471 0.293181 0.500000
#
# Coordination Sequence:
#
# PCOD9566561 Si02
#       7
#    16   8   8  16  16  16  16
#     4  10  20  35  55  81 112 142 180 227 275 328
#     4   9  18  32  49  73 103 139 184 224 260 306
#     4   9  20  36  54  80 112 147 184 224 272 325
#     4   9  18  34  56  84 115 145 177 215 269 332
#     4  11  23  37  55  79 109 147 189 232 275 322
#     4  10  20  34  55  83 115 148 179 215 267 333
#     4  11  22  36  54  77 107 146 186 229 275 321
#
# _framework density 17.592327999999998
#
# number of rings (size 3 to 8) (size 9 to 14) (size 15 to 20)
#    0.000    2.000    2.500    1.500    1.167    2.667 
#    0.000    4.167    0.000    0.500    0.000    1.167 
#    0.000    2.667    0.000    0.000    0.000    0.000 
#
# Total GULP energy -534814.365505 kJ/mol
# GULP energy per Si atom -5570.982974 kJ/mol
# Density = 1.755229 g / cm^3
# Si number density = 17.592328 Si / 1000 Ang^3
#
#
#
# Elastic Constant Matrix: (Units=GPa)
#
#
# Indices 1 2 3 4 5 6 
#
# 1 74.6464 32.6682 32.9588 0.0000 0.0000 0.0000
# 2 32.6682 74.6464 32.9588 0.0000 0.0000 0.0000
# 3 32.9588 32.9588 64.5750 0.0000 0.0000 0.0000
# 4 0.0000 0.0000 0.0000 17.6513 0.0000 0.0000
# 5 0.0000 0.0000 0.0000 0.0000 17.6513 0.0000
# 6 0.0000 0.0000 0.0000 0.0000 0.0000 24.1451
#
#
#
# Elastic Compliance Matrix: (Units=1/GPa)
#
#
# Indices 1 2 3 4 5 6 
#
# 1 0.018698 -0.005124 -0.006928 0.000000 0.000000 0.000000
# 2 -0.005124 0.018698 -0.006928 0.000000 0.000000 0.000000
# 3 -0.006928 -0.006928 0.022558 0.000000 0.000000 0.000000
# 4 0.000000 0.000000 0.000000 0.056653 0.000000 0.000000
# 5 0.000000 0.000000 0.000000 0.000000 0.056653 0.000000
# 6 0.000000 0.000000 0.000000 0.000000 0.000000 0.041416
#
#
# Mechanical properties :
#
#
# Convention : Reuss Voigt Hill
#
# Bulk Modulus (GPa) = 45.46786 45.67104 45.56945
# Shear Modulus (GPa) = 19.23318 19.57502 19.40410
#
# Velocity S-wave (km/s) = 3.31005 3.33934 3.32473
# Velocity P-wave (km/s) = 6.36474 6.39417 6.37947
#
# Compressibility (1/GPa) = 0.02199356
#
# Stress axis : x y z
#
# Youngs Moduli (GPa) = 53.48192 53.48192 44.33029
#
# Poissons Ratio (x) = 0.27404 0.30712
# Poissons Ratio (y) = 0.27404 0.30712
# Poissons Ratio (z) = 0.37053 0.37053
#
# Static dielectric constant tensor:
#      x y z
#    x 1.620740 0.000000 0.000000 
#    y 0.000000 1.620740 0.000000 
#    z 0.000000 0.000000 1.606850 
# 
# From -- ./inp_files/11195.got.cif
#   From: 2010.05.17/outbox.cif.g08.bks.cpg/sg131_6_cif.got.tgz:11195.got - 2010.05.20 12:21:01.
