data_PCOD9566284
_publ_section_title
;
Structure prediction by ZEFSAII (Michael W. Deem and Ramdas Pophale) SiO2 
 PCOD9566284
Probable space group: P 42/M M C
;
_chemical_formula_sum "Si O2"
_cell_formula_units_Z 88
_cell_length_a 12.919657
_cell_length_b 12.919657
_cell_length_c 27.437245
_cell_angle_alpha 90.000000
_cell_angle_beta 90.000000
_cell_angle_gamma 90.000000
_cell_volume 4579.757357
_symmetry_space_group_name_H-M "P 42/M M C"
_symmetry_group_IT_number 131
_symmetry_cell_setting 'tetragonal'
loop_
_space_group_symop_operation_xyz
x,y,z
-x,-y,z
-y,x,1/2+z
y,-x,1/2+z
-x,y,-z
x,-y,-z
y,x,1/2-z
-y,-x,1/2-z
-x,-y,-z
x,y,-z
y,-x,1/2-z
-y,x,1/2-z
x,-y,z
-x,y,z
-y,-x,1/2+z
y,x,1/2+z
loop_
_atom_site_type_symbol
_atom_site_label
_atom_site_fract_x
_atom_site_fract_y
_atom_site_fract_z
Si Si1 0.880554 0.314621 0.836010
Si Si2 0.124072 0.383063 0.273593
Si Si3 0.184677 0.382103 0.558466
Si Si4 0.625210 0.884187 0.500000
Si Si5 0.768187 0.881572 0.859892
Si Si6 0.617496 0.271197 0.584871
O O1 0.860821 0.329457 0.778617
O O2 0.862725 0.197474 0.854467
O O3 0.791134 0.376105 0.864631
O O4 0.000000 0.348231 0.845731
O O5 0.166588 0.500000 0.274090
O O6 0.157634 0.313063 0.318722
O O7 0.000000 0.391283 0.279323
O O8 0.178017 0.368412 0.500000
O O9 0.150942 0.500000 0.569644
O O10 0.125593 0.294583 0.589381
O O11 0.302622 0.363614 0.576615
O O12 0.500000 0.891302 0.500000
O O13 0.653218 0.817110 0.453332
O O14 0.667319 0.000000 0.500000
O O15 0.797011 0.000000 0.850265
O O16 0.500000 0.301513 0.574344
#
# Coordination Sequence:
#
# PCOD9566284 Si02
#       6
#    16  16  16   8  16  16
#     4  10  20  33  52  79 109 141 178 219 261 311
#     4   9  17  31  52  77 104 134 169 209 256 307
#     4  10  21  36  54  77 103 133 175 225 272 319
#     4   9  16  26  43  67  96 131 167 201 241 293
#     4  10  21  36  54  76 104 139 180 224 269 317
#     4  10  19  32  50  76 107 138 172 209 257 318
#
# _framework density 19.214991999999999
#
# number of rings (size 3 to 8) (size 9 to 14) (size 15 to 20)
#    0.000    2.273    0.909    2.182    0.000    4.000 
#    0.000    1.818    0.000    3.273    0.000    2.545 
#    0.000   13.091    0.000    0.000    0.000    0.000 
#
# Total GULP energy -490380.610335 kJ/mol
# GULP energy per Si atom -5572.506936 kJ/mol
# Density = 1.917126 g / cm^3
# Si number density = 19.214992 Si / 1000 Ang^3
#
#
#
# Elastic Constant Matrix: (Units=GPa)
#
#
# Indices 1 2 3 4 5 6 
#
# 1 47.0906 -9.4215 -3.5626 0.0000 0.0000 0.0000
# 2 -9.4215 47.0906 -3.5626 0.0000 0.0000 0.0000
# 3 -3.5626 -3.5626 75.1200 0.0000 0.0000 0.0000
# 4 0.0000 0.0000 0.0000 19.7717 0.0000 0.0000
# 5 0.0000 0.0000 0.0000 0.0000 19.7717 0.0000
# 6 0.0000 0.0000 0.0000 0.0000 0.0000 10.5107
#
#
#
# Elastic Compliance Matrix: (Units=1/GPa)
#
#
# Indices 1 2 3 4 5 6 
#
# 1 0.022241 0.004546 0.001270 0.000000 0.000000 0.000000
# 2 0.004546 0.022241 0.001270 0.000000 0.000000 0.000000
# 3 0.001270 0.001270 0.013433 0.000000 0.000000 0.000000
# 4 0.000000 0.000000 0.000000 0.050577 0.000000 0.000000
# 5 0.000000 0.000000 0.000000 0.000000 0.050577 0.000000
# 6 0.000000 0.000000 0.000000 0.000000 0.000000 0.095141
#
#
# Mechanical properties :
#
#
# Convention : Reuss Voigt Hill
#
# Bulk Modulus (GPa) = 13.87181 15.13420 14.50301
# Shear Modulus (GPa) = 18.93461 22.40068 20.66765
#
# Velocity S-wave (km/s) = 3.14253 3.41807 3.28319
# Velocity P-wave (km/s) = 4.51688 4.84469 4.68365
#
# Compressibility (1/GPa) = 0.07208863
#
# Stress axis : x y z
#
# Youngs Moduli (GPa) = 44.96139 44.96139 74.44613
#
# Poissons Ratio (x) = -0.20439 -0.09458
# Poissons Ratio (y) = -0.20439 -0.09458
# Poissons Ratio (z) = -0.05712 -0.05712
#
# Static dielectric constant tensor:
#      x y z
#    x 1.685350 0.000000 0.000000 
#    y 0.000000 1.685350 0.000000 
#    z 0.000000 0.000000 1.707580 
# 
# From -- ./inp_files/13570.got.cif
#   From: 2010.05.17/outbox.cif.g08.bks.cpg/sg131_7_cif.got.tgz:13570.got - 2010.05.20 12:21:01.
