data_PCOD9566333
_publ_section_title
;
Structure prediction by ZEFSAII (Michael W. Deem and Ramdas Pophale) SiO2 
 PCOD9566333
Probable space group: P 42/M M C
;
_chemical_formula_sum "Si O2"
_cell_formula_units_Z 56
_cell_length_a 13.226226
_cell_length_b 13.226226
_cell_length_c 17.327928
_cell_angle_alpha 90.000000
_cell_angle_beta 90.000000
_cell_angle_gamma 90.000000
_cell_volume 3031.227368
_symmetry_space_group_name_H-M "P 42/M M C"
_symmetry_group_IT_number 131
_symmetry_cell_setting 'tetragonal'
loop_
_space_group_symop_operation_xyz
x,y,z
-x,-y,z
-y,x,1/2+z
y,-x,1/2+z
-x,y,-z
x,-y,-z
y,x,1/2-z
-y,-x,1/2-z
-x,-y,-z
x,y,-z
y,-x,1/2-z
-y,x,1/2-z
x,-y,z
-x,y,z
-y,-x,1/2+z
y,x,1/2+z
loop_
_atom_site_type_symbol
_atom_site_label
_atom_site_fract_x
_atom_site_fract_y
_atom_site_fract_z
Si Si1 0.751459 0.881075 0.144276
Si Si2 0.118364 0.294013 0.092219
Si Si3 0.224780 0.382848 0.769335
Si Si4 0.386939 0.877712 0.000000
O O1 0.850817 0.815933 0.126262
O O2 0.689830 0.850055 0.220369
O O3 0.675431 0.850564 0.075403
O O4 0.770950 0.000000 0.142630
O O5 0.190251 0.367409 0.142124
O O6 0.000000 0.315924 0.105504
O O7 0.135741 0.297208 0.000000
O O8 0.333764 0.333764 0.750000
O O9 0.217425 0.500000 0.747753
O O10 0.500000 0.836672 0.000000
O O11 0.392945 0.000000 0.000000
#
# Coordination Sequence:
#
# PCOD9566333 Si02
#       4
#    16  16  16   8
#     4  10  19  33  53  80 112 145 184 227 269 319
#     4  10  21  36  54  80 115 152 187 222 263 319
#     4  10  22  39  59  82 107 138 180 231 282 332
#     4   9  16  26  45  73 102 135 175 221 271 315
#
# _framework density 18.474364999999999
#
# number of rings (size 3 to 8) (size 9 to 14) (size 15 to 20)
#    0.000    2.143    1.429    1.714    0.000    4.857 
#    0.000    2.857    0.000    5.143    0.000    4.000 
#    0.000    0.000    0.000    0.000    0.000    0.000 
#
# Total GULP energy -312120.314179 kJ/mol
# GULP energy per Si atom -5573.577039 kJ/mol
# Density = 1.843232 g / cm^3
# Si number density = 18.474365 Si / 1000 Ang^3
#
#
#
# Elastic Constant Matrix: (Units=GPa)
#
#
# Indices 1 2 3 4 5 6 
#
# 1 61.4805 18.1156 26.7100 0.0000 0.0000 0.0000
# 2 18.1156 61.4805 26.7100 0.0000 0.0000 0.0000
# 3 26.7100 26.7100 103.3803 0.0000 0.0000 0.0000
# 4 0.0000 0.0000 0.0000 14.2996 0.0000 0.0000
# 5 0.0000 0.0000 0.0000 0.0000 14.2996 0.0000
# 6 0.0000 0.0000 0.0000 0.0000 0.0000 12.8427
#
#
#
# Elastic Compliance Matrix: (Units=1/GPa)
#
#
# Indices 1 2 3 4 5 6 
#
# 1 0.019130 -0.003931 -0.003927 0.000000 0.000000 0.000000
# 2 -0.003931 0.019130 -0.003927 0.000000 0.000000 0.000000
# 3 -0.003927 -0.003927 0.011702 0.000000 0.000000 0.000000
# 4 0.000000 0.000000 0.000000 0.069932 0.000000 0.000000
# 5 0.000000 0.000000 0.000000 0.000000 0.069932 0.000000
# 6 0.000000 0.000000 0.000000 0.000000 0.000000 0.077865
#
#
# Mechanical properties :
#
#
# Convention : Reuss Voigt Hill
#
# Bulk Modulus (GPa) = 37.88964 41.04586 39.46775
# Shear Modulus (GPa) = 16.66353 18.60877 17.63615
#
# Velocity S-wave (km/s) = 3.00656 3.17720 3.09306
# Velocity P-wave (km/s) = 5.71020 5.97708 5.84516
#
# Compressibility (1/GPa) = 0.02639244
#
# Stress axis : x y z
#
# Youngs Moduli (GPa) = 52.27518 52.27518 85.45418
#
# Poissons Ratio (x) = 0.20547 0.33557
# Poissons Ratio (y) = 0.20547 0.33557
# Poissons Ratio (z) = 0.20528 0.20528
#
# Static dielectric constant tensor:
#      x y z
#    x 1.633800 0.000000 0.000000 
#    y 0.000000 1.633800 0.000000 
#    z 0.000000 0.000000 1.689360 
# 
# From -- ./inp_files/7229.got.cif
#   From: 2010.05.17/outbox.cif.g08.bks.cpg/sg131_4_cif.got.tgz:7229.got - 2010.05.20 12:21:01.
