data_PCOD9566039
_publ_section_title
;
Structure prediction by ZEFSAII (Michael W. Deem and Ramdas Pophale) SiO2 
 PCOD9566039
Probable space group: P 42/M M C
;
_chemical_formula_sum "Si O2"
_cell_formula_units_Z 112
_cell_length_a 18.708074
_cell_length_b 18.708074
_cell_length_c 19.147351
_cell_angle_alpha 90.000000
_cell_angle_beta 90.000000
_cell_angle_gamma 90.000000
_cell_volume 6701.420299
_symmetry_space_group_name_H-M "P 42/M M C"
_symmetry_group_IT_number 131
_symmetry_cell_setting 'tetragonal'
loop_
_space_group_symop_operation_xyz
x,y,z
-x,-y,z
-y,x,1/2+z
y,-x,1/2+z
-x,y,-z
x,-y,-z
y,x,1/2-z
-y,-x,1/2-z
-x,-y,-z
x,y,-z
y,-x,1/2-z
-y,x,1/2-z
x,-y,z
-x,y,z
-y,-x,1/2+z
y,x,1/2+z
loop_
_atom_site_type_symbol
_atom_site_label
_atom_site_fract_x
_atom_site_fract_y
_atom_site_fract_z
Si Si1 0.208050 0.277682 0.317671
Si Si2 0.284535 0.581291 0.316747
Si Si3 0.919459 0.123668 0.083074
Si Si4 0.156095 0.267074 0.916558
Si Si5 0.331725 0.579333 0.154194
Si Si6 0.080850 0.819998 0.298738
Si Si7 0.179779 0.421473 0.916326
O O1 0.254011 0.254011 0.250000
O O2 0.223051 0.360528 0.330234
O O3 0.238232 0.227520 0.379375
O O4 0.127424 0.252050 0.303560
O O5 0.269210 0.500000 0.337344
O O6 0.301492 0.581445 0.233548
O O7 0.356394 0.612659 0.352229
O O8 0.904250 0.207859 0.097860
O O9 0.859853 0.082565 0.126602
O O10 0.000000 0.103992 0.103670
O O11 0.912380 0.112840 0.000000
O O12 0.141937 0.348307 0.892222
O O13 0.166206 0.268458 0.000000
O O14 0.362962 0.500000 0.143350
O O15 0.262865 0.587253 0.104773
O O16 0.126194 0.873807 0.250000
O O17 0.000000 0.810198 0.274980
O O18 0.156672 0.500000 0.889133
O O19 0.173333 0.423793 0.000000
#
# Coordination Sequence:
#
# PCOD9566039 Si02
#       7
#    16  16  16  16  16  16  16
#     4  10  17  31  48  64  87 115 150 182 214 256
#     4  10  17  26  43  64  86 114 147 184 220 254
#     4   9  18  31  47  68  93 120 146 174 214 263
#     4   9  16  27  44  63  85 115 150 185 216 254
#     4   9  16  26  39  60  89 114 142 180 224 263
#     4  10  21  33  49  71  94 119 144 175 215 262
#     4   9  15  23  39  60  82 112 148 184 219 255
#
# _framework density 16.712873999999999
#
# number of rings (size 3 to 8) (size 9 to 14) (size 15 to 20)
#    0.000    2.571    2.857    0.429    0.000    1.571 
#    0.000    2.143    0.000    2.571    0.000    5.000 
#    0.000   10.286    0.000    7.571    0.000    0.000 
#
# Total GULP energy -623643.697638 kJ/mol
# GULP energy per Si atom -5568.247300 kJ/mol
# Density = 1.667483 g / cm^3
# Si number density = 16.712874 Si / 1000 Ang^3
#
#
#
# Elastic Constant Matrix: (Units=GPa)
#
#
# Indices 1 2 3 4 5 6 
#
# 1 24.8927 87.8807 2.5994 0.0000 0.0000 0.0000
# 2 87.8807 24.8907 2.5979 0.0000 0.0000 0.0000
# 3 2.5994 2.5979 12.9862 0.0000 0.0000 0.0000
# 4 0.0000 0.0000 0.0000 13.8280 0.0000 0.0000
# 5 0.0000 0.0000 0.0000 0.0000 13.8279 0.0000
# 6 0.0000 0.0000 0.0000 0.0000 0.0000 7.3420
#
#
#
# Elastic Compliance Matrix: (Units=1/GPa)
#
#
# Indices 1 2 3 4 5 6 
#
# 1 -0.003463 0.012413 -0.001790 0.000000 0.000000 0.000000
# 2 0.012413 -0.003463 -0.001792 0.000000 0.000000 0.000000
# 3 -0.001790 -0.001792 0.077722 0.000000 0.000000 0.000000
# 4 0.000000 0.000000 0.000000 0.072317 0.000000 0.000000
# 5 0.000000 0.000000 0.000000 0.000000 0.072318 0.000000
# 6 0.000000 0.000000 0.000000 0.000000 0.000000 0.136202
#
#
# Mechanical properties :
#
#
# Convention : Reuss Voigt Hill
#
# Bulk Modulus (GPa) = 11.30482 27.65842 19.48162
# Shear Modulus (GPa) = 13.75679 4.97901 9.36790
#
# Velocity S-wave (km/s) = 2.87213 1.72789 2.37010
# Velocity P-wave (km/s) = 4.21636 4.53497 4.37856
#
# Compressibility (1/GPa) = 0.08845781
#
# Stress axis : x y z
#
# Youngs Moduli (GPa) = -288.78290 -288.76546 12.86639
#
# Poissons Ratio (x) = 3.58441 0.02303
# Poissons Ratio (y) = 3.58463 0.02306
# Poissons Ratio (z) = -0.51695 -0.51744
#
# Static dielectric constant tensor:
#      x y z
#    x 1.581310 0.000000 0.000000 
#    y 0.000000 1.581310 0.000000 
#    z 0.000000 0.000000 1.586160 
# 
# From -- ./inp_files/10078.got.cif
#   From: 2010.05.17/outbox.cif.g08.bks.cpg/sg131_6_cif.got.tgz:10078.got - 2010.05.20 12:21:01.
