data_PCOD9566807
_publ_section_title
;
Structure prediction by ZEFSAII (Michael W. Deem and Ramdas Pophale) SiO2 
 PCOD9566807
Probable space group: P 42/M M C
;
_chemical_formula_sum "Si O2"
_cell_formula_units_Z 64
_cell_length_a 12.187788
_cell_length_b 12.187788
_cell_length_c 28.359165
_cell_angle_alpha 90.000000
_cell_angle_beta 90.000000
_cell_angle_gamma 90.000000
_cell_volume 4212.532088
_symmetry_space_group_name_H-M "P 42/M M C"
_symmetry_group_IT_number 131
_symmetry_cell_setting 'tetragonal'
loop_
_space_group_symop_operation_xyz
x,y,z
-x,-y,z
-y,x,1/2+z
y,-x,1/2+z
-x,y,-z
x,-y,-z
y,x,1/2-z
-y,-x,1/2-z
-x,-y,-z
x,y,-z
y,-x,1/2-z
-y,x,1/2-z
x,-y,z
-x,y,z
-y,-x,1/2+z
y,x,1/2+z
loop_
_atom_site_type_symbol
_atom_site_label
_atom_site_fract_x
_atom_site_fract_y
_atom_site_fract_z
Si Si1 0.868610 0.500000 0.943471
Si Si2 0.302374 0.271331 0.600848
Si Si3 0.371884 0.367730 0.196106
Si Si4 0.371611 0.500000 0.443552
Si Si5 0.131372 0.125598 0.445297
O O1 0.809466 0.604489 0.920045
O O2 0.000000 0.500000 0.936136
O O3 0.848763 0.500000 0.000000
O O4 0.317872 0.295387 0.656037
O O5 0.318098 0.389331 0.576053
O O6 0.189456 0.213544 0.587337
O O7 0.341105 0.341105 0.250000
O O8 0.367530 0.500000 0.191704
O O9 0.500000 0.336499 0.188629
O O10 0.500000 0.500000 0.428631
O O11 0.367743 0.500000 0.500000
O O12 0.163942 0.144731 0.500000
O O13 0.000000 0.131917 0.442908
O O14 0.163580 0.000000 0.433639
#
# Coordination Sequence:
#
# PCOD9566807 Si02
#       5
#     8  16  16   8  16
#     4  11  22  31  44  73 111 142 167 205 255 308
#     4  12  19  31  51  75 102 134 171 207 256 306
#     4   9  17  31  50  74 101 132 171 206 246 306
#     4  11  20  28  42  71 109 139 156 187 249 316
#     4   9  19  36  55  73  97 135 179 215 248 295
#
# _framework density 15.192762
#
# number of rings (size 3 to 8) (size 9 to 14) (size 15 to 20)
#    0.000    1.750    3.750    4.500    0.000    2.000 
#    0.000    0.625    0.000    5.250    0.000    1.750 
#    0.000    0.000    0.000    0.000    0.000    0.000 
#
# Total GULP energy -357076.634488 kJ/mol
# GULP energy per Si atom -5579.322414 kJ/mol
# Density = 1.515818 g / cm^3
# Si number density = 15.192762 Si / 1000 Ang^3
#
#
#
# Elastic Constant Matrix: (Units=GPa)
#
#
# Indices 1 2 3 4 5 6 
#
# 1 68.2836 37.8322 51.9203 0.0000 0.0000 0.0000
# 2 37.8322 68.2836 51.9203 0.0000 0.0000 0.0000
# 3 51.9203 51.9203 124.4333 0.0000 0.0000 0.0000
# 4 0.0000 0.0000 0.0000 19.3418 0.0000 0.0000
# 5 0.0000 0.0000 0.0000 0.0000 19.3418 0.0000
# 6 0.0000 0.0000 0.0000 0.0000 0.0000 32.3589
#
#
#
# Elastic Compliance Matrix: (Units=1/GPa)
#
#
# Indices 1 2 3 4 5 6 
#
# 1 0.024383 -0.008456 -0.006645 0.000000 0.000000 0.000000
# 2 -0.008456 0.024383 -0.006645 0.000000 0.000000 0.000000
# 3 -0.006645 -0.006645 0.013582 0.000000 0.000000 0.000000
# 4 0.000000 0.000000 0.000000 0.051702 0.000000 0.000000
# 5 0.000000 0.000000 0.000000 0.000000 0.051702 0.000000
# 6 0.000000 0.000000 0.000000 0.000000 0.000000 0.030903
#
#
# Mechanical properties :
#
#
# Convention : Reuss Voigt Hill
#
# Bulk Modulus (GPa) = 53.04034 60.48291 56.76162
# Shear Modulus (GPa) = 20.28946 22.16368 21.22657
#
# Velocity S-wave (km/s) = 3.65837 3.82361 3.74190
# Velocity P-wave (km/s) = 7.26858 7.70650 7.49074
#
# Compressibility (1/GPa) = 0.01885358
#
# Stress axis : x y z
#
# Youngs Moduli (GPa) = 41.01234 41.01234 73.62623
#
# Poissons Ratio (x) = 0.34681 0.48928
# Poissons Ratio (y) = 0.34681 0.48928
# Poissons Ratio (z) = 0.27255 0.27255
#
# Static dielectric constant tensor:
#      x y z
#    x 1.501720 0.000000 0.000000 
#    y 0.000000 1.501720 0.000000 
#    z 0.000000 0.000000 1.509480 
# 
# From -- ./inp_files/11958.got.cif
#   From: 2010.05.17/outbox.cif.g08.bks.cpg/sg131_6_cif.got.tgz:11958.got - 2010.05.20 12:21:01.
