data_PCOD9566702
_publ_section_title
;
Structure prediction by ZEFSAII (Michael W. Deem and Ramdas Pophale) SiO2 
 PCOD9566702
Probable space group: P 42/M M C
;
_chemical_formula_sum "Si O2"
_cell_formula_units_Z 56
_cell_length_a 14.518537
_cell_length_b 14.518537
_cell_length_c 14.774186
_cell_angle_alpha 90.000000
_cell_angle_beta 90.000000
_cell_angle_gamma 90.000000
_cell_volume 3114.219887
_symmetry_space_group_name_H-M "P 42/M M C"
_symmetry_group_IT_number 131
_symmetry_cell_setting 'tetragonal'
loop_
_space_group_symop_operation_xyz
x,y,z
-x,-y,z
-y,x,1/2+z
y,-x,1/2+z
-x,y,-z
x,-y,-z
y,x,1/2-z
-y,-x,1/2-z
-x,-y,-z
x,y,-z
y,-x,1/2-z
-y,x,1/2-z
x,-y,z
-x,y,z
-y,-x,1/2+z
y,x,1/2+z
loop_
_atom_site_type_symbol
_atom_site_label
_atom_site_fract_x
_atom_site_fract_y
_atom_site_fract_z
Si Si1 0.216150 0.890333 0.675918
Si Si2 0.394346 0.335965 0.107746
Si Si3 0.779576 0.400176 0.784503
Si Si4 0.888052 0.894452 0.000000
O O1 0.145037 0.854964 0.750000
O O2 0.313797 0.841587 0.689942
O O3 0.166203 0.860020 0.584673
O O4 0.226563 0.000000 0.677508
O O5 0.500000 0.373035 0.115040
O O6 0.392606 0.250093 0.178541
O O7 0.312897 0.395468 0.153113
O O8 0.378395 0.318967 0.000000
O O9 0.823468 0.500000 0.798601
O O10 0.000000 0.899480 0.000000
O O11 0.854503 0.000000 0.000000
#
# Coordination Sequence:
#
# PCOD9566702 Si02
#       4
#    16  16  16   8
#     4  11  22  38  59  84 112 147 191 239 289 343
#     4   9  18  35  58  82 111 147 188 233 282 334
#     4  10  21  36  55  84 118 152 187 230 287 351
#     4   9  20  38  59  83 110 141 183 239 293 340
#
# _framework density 17.982032
#
# number of rings (size 3 to 8) (size 9 to 14) (size 15 to 20)
#    0.000    2.143    2.857    0.857    2.000    3.143 
#    0.000    4.286    0.000    2.571    0.000    4.000 
#    0.000    0.000    0.000    0.000    0.000    0.000 
#
# Total GULP energy -311740.917439 kJ/mol
# GULP energy per Si atom -5566.802097 kJ/mol
# Density = 1.794110 g / cm^3
# Si number density = 17.982032 Si / 1000 Ang^3
#
#
#
# Elastic Constant Matrix: (Units=GPa)
#
#
# Indices 1 2 3 4 5 6 
#
# 1 78.3102 34.6474 43.1277 0.0000 0.0000 0.0000
# 2 34.6474 78.3030 43.1275 0.0000 0.0000 0.0000
# 3 43.1277 43.1275 172.4629 0.0000 0.0000 0.0000
# 4 0.0000 0.0000 0.0000 17.1831 0.0000 0.0000
# 5 0.0000 0.0000 0.0000 0.0000 17.1832 0.0000
# 6 0.0000 0.0000 0.0000 0.0000 0.0000 15.2785
#
#
#
# Elastic Compliance Matrix: (Units=1/GPa)
#
#
# Indices 1 2 3 4 5 6 
#
# 1 0.016923 -0.005981 -0.002736 0.000000 0.000000 0.000000
# 2 -0.005981 0.016925 -0.002737 0.000000 0.000000 0.000000
# 3 -0.002736 -0.002737 0.007167 0.000000 0.000000 0.000000
# 4 0.000000 0.000000 0.000000 0.058197 0.000000 0.000000
# 5 0.000000 0.000000 0.000000 0.000000 0.058196 0.000000
# 6 0.000000 0.000000 0.000000 0.000000 0.000000 0.065451
#
#
# Mechanical properties :
#
#
# Convention : Reuss Voigt Hill
#
# Bulk Modulus (GPa) = 55.22806 63.43127 59.32967
# Shear Modulus (GPa) = 19.85687 23.80721 21.83204
#
# Velocity S-wave (km/s) = 3.32665 3.64255 3.48818
# Velocity P-wave (km/s) = 6.74797 7.28301 7.02059
#
# Compressibility (1/GPa) = 0.01810674
#
# Stress axis : x y z
#
# Youngs Moduli (GPa) = 59.09174 59.08549 139.52930
#
# Poissons Ratio (x) = 0.35339 0.38179
# Poissons Ratio (y) = 0.35342 0.38184
# Poissons Ratio (z) = 0.16169 0.16170
#
# Static dielectric constant tensor:
#      x y z
#    x 1.612640 0.000000 0.000000 
#    y 0.000000 1.612640 0.000000 
#    z 0.000000 0.000000 1.580380 
# 
# From -- ./inp_files/5319.got.cif
#   From: 2010.05.17/outbox.cif.g08.bks.cpg/sg131_3_cif.got.tgz:5319.got - 2010.05.20 12:21:01.
