data_PCOD9566008
_publ_section_title
;
Structure prediction by ZEFSAII (Michael W. Deem and Ramdas Pophale) SiO2 
 PCOD9566008
Probable space group: P 4/N C C
;
_chemical_formula_sum "Si O2"
_cell_formula_units_Z 56
_cell_length_a 15.119825
_cell_length_b 15.119825
_cell_length_c 9.675650
_cell_angle_alpha 90.000000
_cell_angle_beta 90.000000
_cell_angle_gamma 90.000000
_cell_volume 2211.941716
_symmetry_space_group_name_H-M "P 4/N C C"
_symmetry_group_IT_number 130
_symmetry_cell_setting 'tetragonal'
loop_
_space_group_symop_operation_xyz
x,y,z
1/2-y,x,z
1/2-x,1/2-y,z
y,1/2-x,z
1/2+x,-y,1/2-z
-x,1/2+y,1/2-z
1/2+y,1/2+x,1/2-z
-y,-x,1/2-z
-x,-y,-z
1/2+y,-x,-z
1/2+x,1/2+y,-z
-y,1/2+x,-z
1/2-x,y,1/2+z
x,1/2-y,1/2+z
1/2-y,1/2-x,1/2+z
y,x,1/2+z
loop_
_atom_site_type_symbol
_atom_site_label
_atom_site_fract_x
_atom_site_fract_y
_atom_site_fract_z
Si Si1 0.998719 0.640725 0.203337
Si Si2 0.250000 0.250000 0.979330
Si Si3 0.574989 0.174753 0.355503
Si Si4 0.410387 0.121383 0.529056
Si Si5 0.750000 0.250000 0.500000
O O1 0.077252 0.577252 0.250000
O O2 0.028917 0.741458 0.216900
O O3 0.966863 0.621230 0.047999
O O4 0.916880 0.620061 0.305590
O O5 0.153670 0.200415 0.985429
O O6 0.596719 0.096719 0.250000
O O7 0.508284 0.143078 0.473306
O O8 0.668772 0.209409 0.413511
#
# Coordination Sequence:
#
# PCOD9566008 Si02
#       5
#    16   4  16  16   4
#     4  12  27  48  76 115 153 206 265 333 405 488
#     4  12  28  54  76 114 156 222 276 334 404 490
#     4  12  25  47  77 115 158 210 266 335 411 494
#     4  12  28  48  79 106 160 205 274 331 408 476
#     4  12  26  48  80 114 164 212 266 334 420 512
#
# _framework density 25.317122999999999
#
# number of rings (size 3 to 8) (size 9 to 14) (size 15 to 20)
#    0.000    0.000    2.857    7.286    4.000    3.429 
#    0.000    0.000    0.000    0.000    0.000    0.000 
#    0.000    0.000    0.000    0.000    0.000    0.000 
#
# Total GULP energy -313404.852977 kJ/mol
# GULP energy per Si atom -5596.515232 kJ/mol
# Density = 2.525950 g / cm^3
# Si number density = 25.317123 Si / 1000 Ang^3
#
#
#
# Elastic Constant Matrix: (Units=GPa)
#
#
# Indices 1 2 3 4 5 6 
#
# 1 113.3390 22.9278 20.1956 0.0000 0.0000 0.0000
# 2 22.9278 113.3390 20.1956 0.0000 0.0000 0.0000
# 3 20.1956 20.1956 87.4554 0.0000 0.0000 0.0000
# 4 0.0000 0.0000 0.0000 24.3356 0.0000 0.0000
# 5 0.0000 0.0000 0.0000 0.0000 24.3356 0.0000
# 6 0.0000 0.0000 0.0000 0.0000 0.0000 69.8854
#
#
#
# Elastic Compliance Matrix: (Units=1/GPa)
#
#
# Indices 1 2 3 4 5 6 
#
# 1 0.009469 -0.001591 -0.001819 0.000000 0.000000 0.000000
# 2 -0.001591 0.009469 -0.001819 0.000000 0.000000 0.000000
# 3 -0.001819 -0.001819 0.012275 0.000000 0.000000 0.000000
# 4 0.000000 0.000000 0.000000 0.041092 0.000000 0.000000
# 5 0.000000 0.000000 0.000000 0.000000 0.041092 0.000000
# 6 0.000000 0.000000 0.000000 0.000000 0.000000 0.014309
#
#
# Mechanical properties :
#
#
# Convention : Reuss Voigt Hill
#
# Bulk Modulus (GPa) = 48.18476 48.97458 48.57967
# Shear Modulus (GPa) = 34.46294 40.43230 37.44762
#
# Velocity S-wave (km/s) = 3.69352 4.00063 3.85013
# Velocity P-wave (km/s) = 6.10436 6.38173 6.24458
#
# Compressibility (1/GPa) = 0.02075345
#
# Stress axis : x y z
#
# Youngs Moduli (GPa) = 105.60589 105.60589 81.46922
#
# Poissons Ratio (x) = 0.16806 0.14821
# Poissons Ratio (y) = 0.16806 0.14821
# Poissons Ratio (z) = 0.19211 0.19211
#
# Static dielectric constant tensor:
#      x y z
#    x 1.955140 0.000000 0.000000 
#    y 0.000000 1.955140 0.000000 
#    z 0.000000 0.000000 2.039040 
# 
# From -- ./inp_files/1452.got.cif
#   From: 2010.05.17/outbox.cif.g08.bks.cpg/sg130_1_cif.got.tgz:1452.got - 2010.05.20 12:17:35.
