data_PCOD9566082
_publ_section_title
;
Structure prediction by ZEFSAII (Michael W. Deem and Ramdas Pophale) SiO2 
 PCOD9566082
Probable space group: P 42/M M C
;
_chemical_formula_sum "Si O2"
_cell_formula_units_Z 88
_cell_length_a 14.307862
_cell_length_b 14.307862
_cell_length_c 27.774611
_cell_angle_alpha 90.000000
_cell_angle_beta 90.000000
_cell_angle_gamma 90.000000
_cell_volume 5685.877130
_symmetry_space_group_name_H-M "P 42/M M C"
_symmetry_group_IT_number 131
_symmetry_cell_setting 'tetragonal'
loop_
_space_group_symop_operation_xyz
x,y,z
-x,-y,z
-y,x,1/2+z
y,-x,1/2+z
-x,y,-z
x,-y,-z
y,x,1/2-z
-y,-x,1/2-z
-x,-y,-z
x,y,-z
y,-x,1/2-z
-y,x,1/2-z
x,-y,z
-x,y,z
-y,-x,1/2+z
y,x,1/2+z
loop_
_atom_site_type_symbol
_atom_site_label
_atom_site_fract_x
_atom_site_fract_y
_atom_site_fract_z
Si Si1 0.110500 0.253934 0.944081
Si Si2 0.112124 0.736944 0.588396
Si Si3 0.395221 0.886917 0.000000
Si Si4 0.889097 0.604567 0.674905
Si Si5 0.391204 0.241070 0.732531
Si Si6 0.891802 0.612102 0.855766
O O1 0.169626 0.167468 0.923735
O O2 0.126840 0.338763 0.906897
O O3 0.000000 0.233619 0.943165
O O4 0.135900 0.272959 0.000000
O O5 0.138418 0.662939 0.546998
O O6 0.136908 0.686848 0.638417
O O7 0.000000 0.751041 0.587012
O O8 0.500000 0.849601 0.000000
O O9 0.400809 0.000000 0.000000
O O10 0.871787 0.500000 0.653865
O O11 0.834057 0.610919 0.724372
O O12 0.000000 0.610686 0.683398
O O13 0.325290 0.325290 0.750000
O O14 0.500000 0.270379 0.726182
O O15 0.360605 0.184822 0.684456
O O16 0.887800 0.500000 0.860168
O O17 0.000000 0.635642 0.841571
#
# Coordination Sequence:
#
# PCOD9566082 Si02
#       6
#    16  16   8  16  16  16
#     4  10  20  32  46  66  92 122 157 194 229 271
#     4  10  18  29  44  65  94 125 153 183 222 270
#     4   9  16  26  41  61  86 117 151 185 221 260
#     4   9  17  29  47  70  93 117 148 187 228 269
#     4  10  19  31  48  70  96 123 150 182 224 275
#     4   9  18  33  52  71  91 117 152 196 241 275
#
# _framework density 15.476944
#
# number of rings (size 3 to 8) (size 9 to 14) (size 15 to 20)
#    0.000    2.455    0.909    2.182    0.000    5.273 
#    0.000    2.727    0.000    0.000    0.000    0.000 
#    0.000   13.818    0.000    0.000    0.000    0.000 
#
# Total GULP energy -490079.132117 kJ/mol
# GULP energy per Si atom -5569.081047 kJ/mol
# Density = 1.544172 g / cm^3
# Si number density = 15.476944 Si / 1000 Ang^3
#
#
#
# Elastic Constant Matrix: (Units=GPa)
#
#
# Indices 1 2 3 4 5 6 
#
# 1 54.5579 39.6788 44.8504 0.0000 0.0000 0.0000
# 2 39.6788 54.5579 44.8504 0.0000 0.0000 0.0000
# 3 44.8504 44.8504 95.0352 0.0000 0.0000 0.0000
# 4 0.0000 0.0000 0.0000 20.3487 0.0000 0.0000
# 5 0.0000 0.0000 0.0000 0.0000 20.3487 0.0000
# 6 0.0000 0.0000 0.0000 0.0000 0.0000 25.0206
#
#
#
# Elastic Compliance Matrix: (Units=1/GPa)
#
#
# Indices 1 2 3 4 5 6 
#
# 1 0.043238 -0.023971 -0.009092 0.000000 0.000000 0.000000
# 2 -0.023971 0.043238 -0.009092 0.000000 0.000000 0.000000
# 3 -0.009092 -0.009092 0.019105 0.000000 0.000000 0.000000
# 4 0.000000 0.000000 0.000000 0.049143 0.000000 0.000000
# 5 0.000000 0.000000 0.000000 0.000000 0.049143 0.000000
# 6 0.000000 0.000000 0.000000 0.000000 0.000000 0.039967
#
#
# Mechanical properties :
#
#
# Convention : Reuss Voigt Hill
#
# Bulk Modulus (GPa) = 47.02028 51.43444 49.22736
# Shear Modulus (GPa) = 14.91493 18.12834 16.52163
#
# Velocity S-wave (km/s) = 3.10770 3.42616 3.27081
# Velocity P-wave (km/s) = 6.58209 6.99689 6.79266
#
# Compressibility (1/GPa) = 0.02126742
#
# Stress axis : x y z
#
# Youngs Moduli (GPa) = 23.12804 23.12804 52.34363
#
# Poissons Ratio (x) = 0.55441 0.47593
# Poissons Ratio (y) = 0.55441 0.47593
# Poissons Ratio (z) = 0.21029 0.21029
#
# Static dielectric constant tensor:
#      x y z
#    x 1.508090 0.000000 0.000000 
#    y 0.000000 1.508090 0.000000 
#    z 0.000000 0.000000 1.518340 
# 
# From -- ./inp_files/11093.got.cif
#   From: 2010.05.17/outbox.cif.g08.bks.cpg/sg131_6_cif.got.tgz:11093.got - 2010.05.20 12:21:01.
