data_PCOD9566024
_publ_section_title
;
Structure prediction by ZEFSAII (Michael W. Deem and Ramdas Pophale) SiO2 
 PCOD9566024
Probable space group: P 4/N C C
;
_chemical_formula_sum "Si O2"
_cell_formula_units_Z 116
_cell_length_a 18.000000
_cell_length_b 18.000000
_cell_length_c 18.000000
_cell_angle_alpha 90.000000
_cell_angle_beta 90.000000
_cell_angle_gamma 90.000000
_cell_volume 5832.000000
_symmetry_space_group_name_H-M "P 4/N C C"
_symmetry_group_IT_number 130
_symmetry_cell_setting 'tetragonal'
loop_
_space_group_symop_operation_xyz
x,y,z
1/2-y,x,z
1/2-x,1/2-y,z
y,1/2-x,z
1/2+x,-y,1/2-z
-x,1/2+y,1/2-z
1/2+y,1/2+x,1/2-z
-y,-x,1/2-z
-x,-y,-z
1/2+y,-x,-z
1/2+x,1/2+y,-z
-y,1/2+x,-z
1/2-x,y,1/2+z
x,1/2-y,1/2+z
1/2-y,1/2-x,1/2+z
y,x,1/2+z
loop_
_atom_site_type_symbol
_atom_site_label
_atom_site_fract_x
_atom_site_fract_y
_atom_site_fract_z
Si Si1 0.060951 0.189344 0.216650
Si Si2 0.231152 0.640991 0.534335
Si Si3 0.750000 0.750000 0.639063
Si Si4 0.660911 0.108990 0.829599
Si Si5 0.112651 0.952300 0.963631
Si Si6 0.794613 0.864351 0.441480
Si Si7 0.096217 0.330347 0.314770
Si Si8 0.109697 0.034841 0.457705
O O1 0.113169 0.198888 0.144498
O O2 0.063716 0.266432 0.261812
O O3 0.100132 0.126580 0.266964
O O4 0.977874 0.170260 0.191033
O O5 0.168875 0.705710 0.524234
O O6 0.271460 0.633204 0.614341
O O7 0.188567 0.567103 0.507437
O O8 0.830968 0.705606 0.645668
O O9 0.650981 0.150981 0.750000
O O10 0.588622 0.117503 0.883442
O O11 0.089954 0.038127 0.957376
O O12 0.044051 0.915881 0.009793
O O13 0.709959 0.842069 0.457577
O O14 0.828173 0.930622 0.488904
O O15 0.037149 0.357414 0.375279
#
# Coordination Sequence:
#
# PCOD9566024 Si02
#       8
#    16  16   4  16  16  16  16  16
#     4  11  21  40  63  92 136 177 212 271 331 388
#     4   9  21  45  71  93 126 170 211 283 336 390
#     4   8  20  36  52  86 132 164 216 250 292 360
#     4  11  23  44  70 100 126 171 224 275 342 406
#     4  10  23  44  69  96 133 168 220 276 340 387
#     4  11  24  37  62  97 132 172 220 268 315 391
#     4  10  22  38  61  91 133 178 214 259 320 384
#     4  11  24  41  65  99 130 177 221 269 323 403
#
# _framework density 19.890260999999999
#
# number of rings (size 3 to 8) (size 9 to 14) (size 15 to 20)
#    0.000    1.655    2.759    0.828    5.793    0.000 
#   12.414    5.517    0.000    0.000    0.000    0.000 
#    0.000    0.000    0.000    0.000    0.000    0.000 
#
# Total GULP energy -647167.860706 kJ/mol
# GULP energy per Si atom -5579.033282 kJ/mol
# Density = 1.984499 g / cm^3
# Si number density = 19.890261 Si / 1000 Ang^3
#
#
#
# Elastic Constant Matrix: (Units=GPa)
#
#
# Indices 1 2 3 4 5 6 
#
# 1 57.3302 17.0191 33.4016 0.0000 0.0000 0.0000
# 2 17.0191 57.3302 33.4016 0.0000 0.0000 0.0000
# 3 33.4016 33.4016 132.1981 0.0000 0.0000 0.0000
# 4 0.0000 0.0000 0.0000 30.4764 0.0000 0.0000
# 5 0.0000 0.0000 0.0000 0.0000 30.4764 0.0000
# 6 0.0000 0.0000 0.0000 0.0000 0.0000 37.7518
#
#
#
# Elastic Compliance Matrix: (Units=1/GPa)
#
#
# Indices 1 2 3 4 5 6 
#
# 1 0.021104 -0.003703 -0.004396 0.000000 0.000000 0.000000
# 2 -0.003703 0.021104 -0.004396 0.000000 0.000000 0.000000
# 3 -0.004396 -0.004396 0.009786 0.000000 0.000000 0.000000
# 4 0.000000 0.000000 0.000000 0.032812 0.000000 0.000000
# 5 0.000000 0.000000 0.000000 0.000000 0.032812 0.000000
# 6 0.000000 0.000000 0.000000 0.000000 0.000000 0.026489
#
#
# Mechanical properties :
#
#
# Convention : Reuss Voigt Hill
#
# Bulk Modulus (GPa) = 37.03587 46.05590 41.54588
# Shear Modulus (GPa) = 28.07420 30.60998 29.34209
#
# Velocity S-wave (km/s) = 3.76101 3.92719 3.84500
# Velocity P-wave (km/s) = 6.12542 6.61582 6.37534
#
# Compressibility (1/GPa) = 0.02700085
#
# Stress axis : x y z
#
# Youngs Moduli (GPa) = 47.38521 47.38521 102.18661
#
# Poissons Ratio (x) = 0.17549 0.44925
# Poissons Ratio (y) = 0.17549 0.44925
# Poissons Ratio (z) = 0.20832 0.20832
#
# Static dielectric constant tensor:
#      x y z
#    x 1.705590 0.000000 0.000000 
#    y 0.000000 1.705590 0.000000 
#    z 0.000000 0.000000 1.710730 
# 
# From -- ./inp_files/3196.got.cif
#   From: 2010.05.17/outbox.ucp.g08.bks.cvg/sg130_2_cif.got.tgz:3196.got - 2010.06.11 11:38:29.
