data_PCOD9566121
_publ_section_title
;
Structure prediction by ZEFSAII (Michael W. Deem and Ramdas Pophale) SiO2 
 PCOD9566121
Probable space group: P 42/M M C
;
_chemical_formula_sum "Si O2"
_cell_formula_units_Z 80
_cell_length_a 23.745635
_cell_length_b 23.745635
_cell_length_c 7.877751
_cell_angle_alpha 90.000000
_cell_angle_beta 90.000000
_cell_angle_gamma 90.000000
_cell_volume 4441.910720
_symmetry_space_group_name_H-M "P 42/M M C"
_symmetry_group_IT_number 131
_symmetry_cell_setting 'tetragonal'
loop_
_space_group_symop_operation_xyz
x,y,z
-x,-y,z
-y,x,1/2+z
y,-x,1/2+z
-x,y,-z
x,-y,-z
y,x,1/2-z
-y,-x,1/2-z
-x,-y,-z
x,y,-z
y,-x,1/2-z
-y,x,1/2-z
x,-y,z
-x,y,z
-y,-x,1/2+z
y,x,1/2+z
loop_
_atom_site_type_symbol
_atom_site_label
_atom_site_fract_x
_atom_site_fract_y
_atom_site_fract_z
Si Si1 0.062165 0.417175 0.197747
Si Si2 0.000000 0.213006 0.292470
Si Si3 0.812025 0.561172 0.792276
Si Si4 0.223298 0.684374 0.202310
Si Si5 0.902771 0.704855 0.297712
Si Si6 0.910403 0.000000 0.200862
O O1 0.122427 0.437978 0.267493
O O2 0.071541 0.350343 0.210288
O O3 0.000000 0.431357 0.270398
O O4 0.060639 0.433873 0.000000
O O5 0.057062 0.244643 0.243407
O O6 0.000000 0.212461 0.500000
O O7 0.000000 0.150808 0.222295
O O8 0.787687 0.500000 0.744183
O O9 0.780914 0.618766 0.735722
O O10 0.813508 0.563252 0.000000
O O11 0.276395 0.723606 0.250000
O O12 0.163300 0.710718 0.258144
O O13 0.222944 0.681783 0.000000
O O14 0.908394 0.696726 0.500000
O O15 0.945931 0.054070 0.250000
O O16 0.905363 0.000000 0.000000
#
# Coordination Sequence:
#
# PCOD9566121 Si02
#       6
#    16   8  16  16  16   8
#     4   9  16  26  42  66  95 126 161 197 232 275
#     4   9  19  32  49  70  91 115 148 190 235 282
#     4   8  15  28  46  69  96 125 160 201 240 280
#     4  10  20  34  51  73  98 128 162 199 242 288
#     4  10  18  31  48  68  94 126 158 194 238 280
#     4  10  20  37  52  64  80  99 129 169 223 284
#
# _framework density 18.010266999999999
#
# number of rings (size 3 to 8) (size 9 to 14) (size 15 to 20)
#    0.000    2.700    1.000    3.000    0.000    1.200 
#    0.000    8.000    0.000   15.000    0.000    5.600 
#    0.000    0.400    0.000    5.000    0.000    0.000 
#
# Total GULP energy -445534.834404 kJ/mol
# GULP energy per Si atom -5569.185430 kJ/mol
# Density = 1.796927 g / cm^3
# Si number density = 18.010267 Si / 1000 Ang^3
#
#
#
# Elastic Constant Matrix: (Units=GPa)
#
#
# Indices 1 2 3 4 5 6 
#
# 1 141.9308 79.1755 9.0598 0.0000 0.0000 0.0000
# 2 79.1755 141.9324 9.0593 0.0000 0.0000 0.0000
# 3 9.0598 9.0593 32.3908 0.0000 0.0000 0.0000
# 4 0.0000 0.0000 0.0000 15.0517 0.0000 0.0000
# 5 0.0000 0.0000 0.0000 0.0000 15.0488 0.0000
# 6 0.0000 0.0000 0.0000 0.0000 0.0000 -11.7385
#
#
#
# Elastic Compliance Matrix: (Units=1/GPa)
#
#
# Indices 1 2 3 4 5 6 
#
# 1 0.010282 -0.005653 -0.001295 0.000000 0.000000 0.000000
# 2 -0.005653 0.010282 -0.001295 0.000000 0.000000 0.000000
# 3 -0.001295 -0.001295 0.031597 0.000000 0.000000 0.000000
# 4 0.000000 0.000000 0.000000 0.066438 0.000000 0.000000
# 5 0.000000 0.000000 0.000000 0.000000 0.066450 0.000000
# 6 0.000000 0.000000 0.000000 0.000000 0.000000 -0.085190
#
#
# Mechanical properties :
#
#
# Convention : Reuss Voigt Hill
#
# Bulk Modulus (GPa) = 28.02991 56.76037 42.39514
# Shear Modulus (GPa) = 38.99064 18.26968 28.63016
#
# Velocity S-wave (km/s) = 4.65791 3.18843 3.99138
# Velocity P-wave (km/s) = 6.67272 6.71854 6.69567
#
# Compressibility (1/GPa) = 0.03567618
#
# Stress axis : x y z
#
# Youngs Moduli (GPa) = 97.25911 97.26040 31.64834
#
# Poissons Ratio (x) = 0.54981 0.04098
# Poissons Ratio (y) = 0.54980 0.04097
# Poissons Ratio (z) = 0.12593 0.12590
#
# Static dielectric constant tensor:
#      x y z
#    x 1.650420 0.000000 0.000000 
#    y 0.000000 1.650410 0.000000 
#    z 0.000000 0.000000 1.663160 
# 
# From -- ./inp_files/2082.got.cif
#   From: 2010.05.17/outbox.cif.g08.bks.cpg/sg131_2_cif.got.tgz:2082.got - 2010.05.20 12:21:01.
