data_PCOD9566881
_publ_section_title
;
Structure prediction by ZEFSAII (Michael W. Deem and Ramdas Pophale) SiO2 
 PCOD9566881
Probable space group: P 42/M M C
;
_chemical_formula_sum "Si O2"
_cell_formula_units_Z 44
_cell_length_a 12.028369
_cell_length_b 12.028369
_cell_length_c 15.550095
_cell_angle_alpha 90.000000
_cell_angle_beta 90.000000
_cell_angle_gamma 90.000000
_cell_volume 2249.813570
_symmetry_space_group_name_H-M "P 42/M M C"
_symmetry_group_IT_number 131
_symmetry_cell_setting 'tetragonal'
loop_
_space_group_symop_operation_xyz
x,y,z
-x,-y,z
-y,x,1/2+z
y,-x,1/2+z
-x,y,-z
x,-y,-z
y,x,1/2-z
-y,-x,1/2-z
-x,-y,-z
x,y,-z
y,-x,1/2-z
-y,x,1/2-z
x,-y,z
-x,y,z
-y,-x,1/2+z
y,x,1/2+z
loop_
_atom_site_type_symbol
_atom_site_label
_atom_site_fract_x
_atom_site_fract_y
_atom_site_fract_z
Si Si1 0.500000 0.796420 0.131711
Si Si2 0.500000 0.000000 0.000000
Si Si3 0.500000 0.500000 0.250000
Si Si4 0.500000 0.250244 0.326383
Si Si5 0.251031 0.734930 0.901947
Si Si6 0.132586 0.132586 0.250000
O O1 0.500000 0.809971 0.234192
O O2 0.615421 0.736929 0.109054
O O3 0.500000 0.905107 0.074864
O O4 0.500000 0.383463 0.303005
O O5 0.389946 0.218513 0.377563
O O6 0.195370 0.817535 0.833199
O O7 0.223308 0.764433 0.000000
O O8 0.000000 0.151618 0.243763
#
# Coordination Sequence:
#
# PCOD9566881 Si02
#       6
#     8   2   2   8  16   8
#     4  12  22  39  63  99 135 180 224 280 340 396
#     4  12  28  36  64 106 132 180 256 280 342 390
#     4  12  16  32  70  84 140 178 204 260 322 400
#     4  12  21  40  64 102 136 179 216 264 347 419
#     4  12  24  42  69 101 139 175 223 280 342 411
#     4  11  27  48  71  95 126 176 230 283 343 400
#
# _framework density 19.557175999999998
#
# number of rings (size 3 to 8) (size 9 to 14) (size 15 to 20)
#    0.000    0.182    9.091    0.545    2.545    1.455 
#    0.000    4.545    0.000    2.182    0.000    0.000 
#    0.000    0.000    0.000    0.000    0.000    0.000 
#
# Total GULP energy -245303.204799 kJ/mol
# GULP energy per Si atom -5575.072836 kJ/mol
# Density = 1.951266 g / cm^3
# Si number density = 19.557176 Si / 1000 Ang^3
#
#
#
# Elastic Constant Matrix: (Units=GPa)
#
#
# Indices 1 2 3 4 5 6 
#
# 1 97.8193 33.9954 56.8154 0.0000 0.0000 0.0000
# 2 33.9954 97.8193 56.8154 0.0000 0.0000 0.0000
# 3 56.8154 56.8154 196.6413 0.0000 0.0000 0.0000
# 4 0.0000 0.0000 0.0000 21.0191 0.0000 0.0000
# 5 0.0000 0.0000 0.0000 0.0000 21.0191 0.0000
# 6 0.0000 0.0000 0.0000 0.0000 0.0000 99.7929
#
#
#
# Elastic Compliance Matrix: (Units=1/GPa)
#
#
# Indices 1 2 3 4 5 6 
#
# 1 0.012885 -0.002783 -0.002919 0.000000 0.000000 0.000000
# 2 -0.002783 0.012885 -0.002919 0.000000 0.000000 0.000000
# 3 -0.002919 -0.002919 0.006772 0.000000 0.000000 0.000000
# 4 0.000000 0.000000 0.000000 0.047576 0.000000 0.000000
# 5 0.000000 0.000000 0.000000 0.000000 0.047576 0.000000
# 6 0.000000 0.000000 0.000000 0.000000 0.000000 0.010021
#
#
# Mechanical properties :
#
#
# Convention : Reuss Voigt Hill
#
# Bulk Modulus (GPa) = 65.35229 76.39251 70.87240
# Shear Modulus (GPa) = 31.23883 44.67645 37.95764
#
# Velocity S-wave (km/s) = 4.00097 4.78473 4.41029
# Velocity P-wave (km/s) = 7.40488 8.34690 7.88996
#
# Compressibility (1/GPa) = 0.01530168
#
# Stress axis : x y z
#
# Youngs Moduli (GPa) = 77.60718 77.60718 147.66358
#
# Poissons Ratio (x) = 0.21596 0.43102
# Poissons Ratio (y) = 0.21596 0.43102
# Poissons Ratio (z) = 0.22653 0.22653
#
# Static dielectric constant tensor:
#      x y z
#    x 1.850120 0.000000 0.000000 
#    y 0.000000 1.850120 0.000000 
#    z 0.000000 0.000000 1.673850 
# 
# From -- ./inp_files/6990.got.cif
#   From: 2010.05.17/outbox.cif.g08.bks.cpg/sg131_4_cif.got.tgz:6990.got - 2010.05.20 12:21:01.
