data_PCOD9566384
_publ_section_title
;
Structure prediction by ZEFSAII (Michael W. Deem and Ramdas Pophale) SiO2 
 PCOD9566384
Probable space group: P 42/M M C
;
_chemical_formula_sum "Si O2"
_cell_formula_units_Z 56
_cell_length_a 14.594564
_cell_length_b 14.594564
_cell_length_c 11.217369
_cell_angle_alpha 90.000000
_cell_angle_beta 90.000000
_cell_angle_gamma 90.000000
_cell_volume 2389.314161
_symmetry_space_group_name_H-M "P 42/M M C"
_symmetry_group_IT_number 131
_symmetry_cell_setting 'tetragonal'
loop_
_space_group_symop_operation_xyz
x,y,z
-x,-y,z
-y,x,1/2+z
y,-x,1/2+z
-x,y,-z
x,-y,-z
y,x,1/2-z
-y,-x,1/2-z
-x,-y,-z
x,y,-z
y,-x,1/2-z
-y,x,1/2-z
x,-y,z
-x,y,z
-y,-x,1/2+z
y,x,1/2+z
loop_
_atom_site_type_symbol
_atom_site_label
_atom_site_fract_x
_atom_site_fract_y
_atom_site_fract_z
Si Si1 0.641566 0.339073 0.373469
Si Si2 0.106633 0.893368 0.250000
Si Si3 0.395284 0.126238 0.368530
Si Si4 0.292192 0.859017 0.868917
O O1 0.614666 0.385335 0.250000
O O2 0.619106 0.383230 0.500000
O O3 0.602754 0.236614 0.372031
O O4 0.751888 0.321398 0.369553
O O5 0.183314 0.871034 0.150358
O O6 0.000000 0.882054 0.214107
O O7 0.358814 0.099269 0.500000
O O8 0.500000 0.096058 0.357922
O O9 0.338540 0.101400 0.250644
O O10 0.318121 0.894885 0.000000
#
# Coordination Sequence:
#
# PCOD9566384 Si02
#       4
#    16   8  16  16
#     4   8  13  24  44  69  99 138 179 223 275 331
#     4  11  24  40  60  88 118 152 199 250 302 360
#     4   9  16  28  51  82 113 148 193 240 290 355
#     4  10  19  35  56  80 115 153 192 245 303 354
#
# _framework density 23.43769
#
# number of rings (size 3 to 8) (size 9 to 14) (size 15 to 20)
#    0.000    2.714    4.286    0.000    0.000    1.714 
#    0.000    1.429    0.000    0.857    0.000    4.000 
#    0.000   46.286    0.000  475.714    0.000   42.857 
#
# Total GULP energy -312154.320919 kJ/mol
# GULP energy per Si atom -5574.184302 kJ/mol
# Density = 2.338434 g / cm^3
# Si number density = 23.437690 Si / 1000 Ang^3
#
#
#
# Elastic Constant Matrix: (Units=GPa)
#
#
# Indices 1 2 3 4 5 6 
#
# 1 83.9221 -2.7780 48.2487 0.0000 0.0000 0.0000
# 2 -2.7780 83.9248 48.2489 0.0000 0.0000 0.0000
# 3 48.2487 48.2489 304.9057 0.0000 0.0000 0.0000
# 4 0.0000 0.0000 0.0000 8.5500 0.0000 0.0000
# 5 0.0000 0.0000 0.0000 0.0000 8.5504 0.0000
# 6 0.0000 0.0000 0.0000 0.0000 0.0000 3.1651
#
#
#
# Elastic Compliance Matrix: (Units=1/GPa)
#
#
# Indices 1 2 3 4 5 6 
#
# 1 0.013357 0.001823 -0.002402 0.000000 0.000000 0.000000
# 2 0.001823 0.013357 -0.002402 0.000000 0.000000 0.000000
# 3 -0.002402 -0.002402 0.004040 0.000000 0.000000 0.000000
# 4 0.000000 0.000000 0.000000 0.116959 0.000000 0.000000
# 5 0.000000 0.000000 0.000000 0.000000 0.116953 0.000000
# 6 0.000000 0.000000 0.000000 0.000000 0.000000 0.315946
#
#
# Mechanical properties :
#
#
# Convention : Reuss Voigt Hill
#
# Bulk Modulus (GPa) = 40.33607 73.35466 56.84537
# Shear Modulus (GPa) = 8.40564 29.32196 18.86380
#
# Velocity S-wave (km/s) = 1.89583 3.54087 2.84006
# Velocity P-wave (km/s) = 4.69462 6.93417 5.92124
#
# Compressibility (1/GPa) = 0.02479171
#
# Stress axis : x y z
#
# Youngs Moduli (GPa) = 74.86583 74.86841 247.52851
#
# Poissons Ratio (x) = -0.13650 0.59460
# Poissons Ratio (y) = -0.13649 0.59459
# Poissons Ratio (z) = 0.17984 0.17984
#
# Static dielectric constant tensor:
#      x y z
#    x 1.872810 0.000000 0.000000 
#    y 0.000000 1.872810 0.000000 
#    z 0.000000 0.000000 1.951840 
# 
# From -- ./inp_files/3617.got.cif
#   From: 2010.05.17/outbox.cif.g08.bks.cpg/sg131_2_cif.got.tgz:3617.got - 2010.05.20 12:21:01.
