data_PCOD9566579
_publ_section_title
;
Structure prediction by ZEFSAII (Michael W. Deem and Ramdas Pophale) SiO2 
 PCOD9566579
Probable space group: P 42/M M C
;
_chemical_formula_sum "Si O2"
_cell_formula_units_Z 72
_cell_length_a 14.883174
_cell_length_b 14.883174
_cell_length_c 18.879461
_cell_angle_alpha 90.000000
_cell_angle_beta 90.000000
_cell_angle_gamma 90.000000
_cell_volume 4181.968040
_symmetry_space_group_name_H-M "P 42/M M C"
_symmetry_group_IT_number 131
_symmetry_cell_setting 'tetragonal'
loop_
_space_group_symop_operation_xyz
x,y,z
-x,-y,z
-y,x,1/2+z
y,-x,1/2+z
-x,y,-z
x,-y,-z
y,x,1/2-z
-y,-x,1/2-z
-x,-y,-z
x,y,-z
y,-x,1/2-z
-y,x,1/2-z
x,-y,z
-x,y,z
-y,-x,1/2+z
y,x,1/2+z
loop_
_atom_site_type_symbol
_atom_site_label
_atom_site_fract_x
_atom_site_fract_y
_atom_site_fract_z
Si Si1 0.395759 0.899245 0.302185
Si Si2 0.393954 0.726862 0.203285
Si Si3 0.397716 0.000000 0.085882
Si Si4 0.818231 0.293757 0.584196
Si Si5 0.900165 0.759485 0.916522
O O1 0.500000 0.892712 0.324310
O O2 0.378743 0.818570 0.248094
O O3 0.328591 0.891684 0.368128
O O4 0.382945 0.000000 0.271336
O O5 0.352936 0.647065 0.250000
O O6 0.500000 0.717141 0.190811
O O7 0.339697 0.740670 0.130604
O O8 0.343634 0.910412 0.104033
O O9 0.500000 0.000000 0.113919
O O10 0.403749 0.000000 0.000000
O O11 0.803956 0.306087 0.500000
O O12 0.820161 0.186956 0.598549
O O13 0.000000 0.798811 0.902978
O O14 0.896452 0.736833 0.000000
#
# Coordination Sequence:
#
# PCOD9566579 Si02
#       5
#    16  16   8  16  16
#     4   9  18  32  51  77 105 132 168 215 266 318
#     4  11  22  36  54  77 105 139 180 222 272 323
#     4   9  18  32  51  77 105 135 177 227 271 312
#     4  10  20  35  54  78 107 140 176 218 269 322
#     4   9  17  31  52  77 106 139 174 212 257 315
#
# _framework density 17.216774999999998
#
# number of rings (size 3 to 8) (size 9 to 14) (size 15 to 20)
#    0.000    2.333    2.222    0.667    1.556    2.000 
#    0.000    2.778    0.000    4.000    0.000    1.556 
#    0.000    0.000    0.000    0.000    0.000    0.000 
#
# Total GULP energy -401259.372694 kJ/mol
# GULP energy per Si atom -5573.046843 kJ/mol
# Density = 1.717759 g / cm^3
# Si number density = 17.216775 Si / 1000 Ang^3
#
#
#
# Elastic Constant Matrix: (Units=GPa)
#
#
# Indices 1 2 3 4 5 6 
#
# 1 95.1444 43.8250 36.8319 0.0000 0.0000 0.0000
# 2 43.8250 95.1485 36.8325 0.0000 0.0000 0.0000
# 3 36.8319 36.8325 44.3543 0.0000 0.0000 0.0000
# 4 0.0000 0.0000 0.0000 20.9148 0.0000 0.0000
# 5 0.0000 0.0000 0.0000 0.0000 20.9144 0.0000
# 6 0.0000 0.0000 0.0000 0.0000 0.0000 31.0012
#
#
#
# Elastic Compliance Matrix: (Units=1/GPa)
#
#
# Indices 1 2 3 4 5 6 
#
# 1 0.016170 -0.003316 -0.010674 0.000000 0.000000 0.000000
# 2 -0.003316 0.016169 -0.010673 0.000000 0.000000 0.000000
# 3 -0.010674 -0.010673 0.040273 0.000000 0.000000 0.000000
# 4 0.000000 0.000000 0.000000 0.047813 0.000000 0.000000
# 5 0.000000 0.000000 0.000000 0.000000 0.047814 0.000000
# 6 0.000000 0.000000 0.000000 0.000000 0.000000 0.032257
#
#
# Mechanical properties :
#
#
# Convention : Reuss Voigt Hill
#
# Bulk Modulus (GPa) = 42.94590 52.18065 47.56328
# Shear Modulus (GPa) = 19.41123 22.37660 20.89391
#
# Velocity S-wave (km/s) = 3.36141 3.60904 3.48743
# Velocity P-wave (km/s) = 6.32960 6.90947 6.62588
#
# Compressibility (1/GPa) = 0.02328511
#
# Stress axis : x y z
#
# Youngs Moduli (GPa) = 61.84430 61.84723 24.83070
#
# Poissons Ratio (x) = 0.20507 0.26504
# Poissons Ratio (y) = 0.20506 0.26503
# Poissons Ratio (z) = 0.66012 0.66012
#
# Static dielectric constant tensor:
#      x y z
#    x 1.582580 0.000000 0.000000 
#    y 0.000000 1.582580 0.000000 
#    z 0.000000 0.000000 1.589360 
# 
# From -- ./inp_files/7516.got.cif
#   From: 2010.05.17/outbox.cif.g08.bks.cpg/sg131_4_cif.got.tgz:7516.got - 2010.05.20 12:21:01.
