data_PCOD9566289
_publ_section_title
;
Structure prediction by ZEFSAII (Michael W. Deem and Ramdas Pophale) SiO2 
 PCOD9566289
Probable space group: P 42/M M C
;
_chemical_formula_sum "Si O2"
_cell_formula_units_Z 120
_cell_length_a 14.583269
_cell_length_b 14.583269
_cell_length_c 30.808108
_cell_angle_alpha 90.000000
_cell_angle_beta 90.000000
_cell_angle_gamma 90.000000
_cell_volume 6552.013772
_symmetry_space_group_name_H-M "P 42/M M C"
_symmetry_group_IT_number 131
_symmetry_cell_setting 'tetragonal'
loop_
_space_group_symop_operation_xyz
x,y,z
-x,-y,z
-y,x,1/2+z
y,-x,1/2+z
-x,y,-z
x,-y,-z
y,x,1/2-z
-y,-x,1/2-z
-x,-y,-z
x,y,-z
y,-x,1/2-z
-y,x,1/2-z
x,-y,z
-x,y,z
-y,-x,1/2+z
y,x,1/2+z
loop_
_atom_site_type_symbol
_atom_site_label
_atom_site_fract_x
_atom_site_fract_y
_atom_site_fract_z
Si Si1 0.289813 0.105388 0.225099
Si Si2 0.393599 0.284296 0.212821
Si Si3 0.893976 0.891817 0.826923
Si Si4 0.604767 0.796144 0.401951
Si Si5 0.609110 0.399738 0.622622
Si Si6 0.890552 0.787091 0.915722
Si Si7 0.895673 0.395860 0.811845
Si Si8 0.895488 0.111992 0.500000
O O1 0.350547 0.184761 0.203794
O O2 0.185423 0.116551 0.209064
O O3 0.318008 0.117382 0.275794
O O4 0.315955 0.000000 0.214752
O O5 0.334611 0.334611 0.250000
O O6 0.500000 0.277952 0.226629
O O7 0.390668 0.341944 0.168788
O O8 0.867447 0.830420 0.868622
O O9 0.000000 0.869771 0.813217
O O10 0.895283 0.000000 0.839613
O O11 0.500000 0.812832 0.416265
O O12 0.629204 0.689322 0.405759
O O13 0.684345 0.855847 0.422259
O O14 0.608430 0.824513 0.350900
O O15 0.632340 0.500000 0.604143
O O16 0.500000 0.396865 0.630275
O O17 0.856823 0.847354 0.955881
O O18 0.000000 0.787871 0.916451
O O19 0.890554 0.500000 0.793105
O O20 0.000000 0.385773 0.829292
O O21 0.000000 0.140816 0.500000
O O22 0.893184 0.000000 0.500000
#
# Coordination Sequence:
#
# PCOD9566289 Si02
#       8
#    16  16  16  16  16  16  16   8
#     4  10  20  33  49  69  96 133 176 220 262 305
#     4  11  21  32  47  66  89 119 160 211 265 314
#     4   9  18  33  52  72  96 129 170 216 261 303
#     4  10  19  32  51  73 100 135 172 209 251 304
#     4   9  18  31  46  66  92 123 161 205 252 300
#     4  10  19  32  53  80 107 134 166 204 249 309
#     4   9  17  29  45  66  94 132 177 218 257 307
#     4   9  18  34  57  83 110 139 167 199 247 308
#
# _framework density 18.314979999999998
#
# number of rings (size 3 to 8) (size 9 to 14) (size 15 to 20)
#    0.000    2.333    0.000    3.200    0.000    4.933 
#    0.000    2.333    0.000    2.800    0.000    7.933 
#    0.000    2.667    0.000    0.000    0.000    1.200 
#
# Total GULP energy -669484.082313 kJ/mol
# GULP energy per Si atom -5579.034019 kJ/mol
# Density = 1.827329 g / cm^3
# Si number density = 18.314980 Si / 1000 Ang^3
#
#
#
# Elastic Constant Matrix: (Units=GPa)
#
#
# Indices 1 2 3 4 5 6 
#
# 1 73.0823 24.3463 24.2223 0.0000 0.0000 0.0000
# 2 24.3463 73.0823 24.2223 0.0000 0.0000 0.0000
# 3 24.2223 24.2223 38.6756 0.0000 0.0000 0.0000
# 4 0.0000 0.0000 0.0000 12.4290 0.0000 0.0000
# 5 0.0000 0.0000 0.0000 0.0000 12.4290 0.0000
# 6 0.0000 0.0000 0.0000 0.0000 0.0000 26.5074
#
#
#
# Elastic Compliance Matrix: (Units=1/GPa)
#
#
# Indices 1 2 3 4 5 6 
#
# 1 0.017712 -0.002806 -0.009335 0.000000 0.000000 0.000000
# 2 -0.002806 0.017712 -0.009335 0.000000 0.000000 0.000000
# 3 -0.009335 -0.009335 0.037550 0.000000 0.000000 0.000000
# 4 0.000000 0.000000 0.000000 0.080457 0.000000 0.000000
# 5 0.000000 0.000000 0.000000 0.000000 0.080457 0.000000
# 6 0.000000 0.000000 0.000000 0.000000 0.000000 0.037725
#
#
# Mechanical properties :
#
#
# Convention : Reuss Voigt Hill
#
# Bulk Modulus (GPa) = 33.31171 36.71356 35.01263
# Shear Modulus (GPa) = 15.40480 17.74302 16.57391
#
# Velocity S-wave (km/s) = 2.90332 3.11589 3.01148
# Velocity P-wave (km/s) = 5.42833 5.74753 5.59021
#
# Compressibility (1/GPa) = 0.03001947
#
# Stress axis : x y z
#
# Youngs Moduli (GPa) = 56.45801 56.45801 26.63145
#
# Poissons Ratio (x) = 0.15845 0.24862
# Poissons Ratio (y) = 0.15845 0.24862
# Poissons Ratio (z) = 0.52706 0.52706
#
# Static dielectric constant tensor:
#      x y z
#    x 1.666650 0.000000 0.000000 
#    y 0.000000 1.666650 0.000000 
#    z 0.000000 0.000000 1.623020 
# 
# From -- ./inp_files/13961.got.cif
#   From: 2010.05.17/outbox.cif.g08.bks.cpg/sg131_7_cif.got.tgz:13961.got - 2010.05.20 12:21:01.
