data_PCOD9566331
_publ_section_title
;
Structure prediction by ZEFSAII (Michael W. Deem and Ramdas Pophale) SiO2 
 PCOD9566331
Probable space group: P 42/M M C
;
_chemical_formula_sum "Si O2"
_cell_formula_units_Z 64
_cell_length_a 14.818095
_cell_length_b 14.818095
_cell_length_c 17.316536
_cell_angle_alpha 90.000000
_cell_angle_beta 90.000000
_cell_angle_gamma 90.000000
_cell_volume 3802.294660
_symmetry_space_group_name_H-M "P 42/M M C"
_symmetry_group_IT_number 131
_symmetry_cell_setting 'tetragonal'
loop_
_space_group_symop_operation_xyz
x,y,z
-x,-y,z
-y,x,1/2+z
y,-x,1/2+z
-x,y,-z
x,-y,-z
y,x,1/2-z
-y,-x,1/2-z
-x,-y,-z
x,y,-z
y,-x,1/2-z
-y,x,1/2-z
x,-y,z
-x,y,z
-y,-x,1/2+z
y,x,1/2+z
loop_
_atom_site_type_symbol
_atom_site_label
_atom_site_fract_x
_atom_site_fract_y
_atom_site_fract_z
Si Si1 0.893846 0.606091 0.640371
Si Si2 0.391326 0.000000 0.414780
Si Si3 0.680057 0.711998 0.910445
Si Si4 0.393870 0.825312 0.683354
Si Si5 0.602397 0.500000 0.407162
O O1 0.888285 0.500000 0.617870
O O2 0.819210 0.662657 0.594214
O O3 0.858446 0.612950 0.728641
O O4 0.000000 0.631744 0.634600
O O5 0.369230 0.088652 0.368107
O O6 0.500000 0.000000 0.420224
O O7 0.352090 0.000000 0.500000
O O8 0.749407 0.672934 0.848031
O O9 0.587493 0.660803 0.888415
O O10 0.703569 0.688043 0.000000
O O11 0.500000 0.800158 0.669999
O O12 0.500000 0.500000 0.375519
O O13 0.594626 0.500000 0.500000
#
# Coordination Sequence:
#
# PCOD9566331 Si02
#       5
#    16   8  16  16   8
#     4  10  20  36  55  73 103 145 186 230 272 313
#     4   9  16  28  48  76 104 132 172 217 266 320
#     4  11  21  33  51  78 109 145 185 223 263 315
#     4  10  19  33  53  77 107 142 176 219 272 322
#     4   9  18  32  47  69 107 149 182 213 254 302
#
# _framework density 16.831942000000002
#
# number of rings (size 3 to 8) (size 9 to 14) (size 15 to 20)
#    0.000    2.000    2.500    2.250    0.000    3.000 
#    0.000    1.250    0.000    0.000    0.000    0.875 
#    0.000    3.000    0.000    0.000    0.000    0.000 
#
# Total GULP energy -356676.399241 kJ/mol
# GULP energy per Si atom -5573.068738 kJ/mol
# Density = 1.679363 g / cm^3
# Si number density = 16.831942 Si / 1000 Ang^3
#
#
#
# Elastic Constant Matrix: (Units=GPa)
#
#
# Indices 1 2 3 4 5 6 
#
# 1 91.8745 38.7515 5.6766 0.0000 0.0000 0.0000
# 2 38.7515 91.8745 5.6766 0.0000 0.0000 0.0000
# 3 5.6766 5.6766 32.7029 0.0000 0.0000 0.0000
# 4 0.0000 0.0000 0.0000 22.9450 0.0000 0.0000
# 5 0.0000 0.0000 0.0000 0.0000 22.9450 0.0000
# 6 0.0000 0.0000 0.0000 0.0000 0.0000 4.5539
#
#
#
# Elastic Compliance Matrix: (Units=1/GPa)
#
#
# Indices 1 2 3 4 5 6 
#
# 1 0.013298 -0.005526 -0.001349 0.000000 0.000000 0.000000
# 2 -0.005526 0.013298 -0.001349 0.000000 0.000000 0.000000
# 3 -0.001349 -0.001349 0.031047 0.000000 0.000000 0.000000
# 4 0.000000 0.000000 0.000000 0.043583 0.000000 0.000000
# 5 0.000000 0.000000 0.000000 0.000000 0.043583 0.000000
# 6 0.000000 0.000000 0.000000 0.000000 0.000000 0.219593
#
#
# Mechanical properties :
#
#
# Convention : Reuss Voigt Hill
#
# Bulk Modulus (GPa) = 24.27459 35.18459 29.72959
# Shear Modulus (GPa) = 12.67166 21.17858 16.92512
#
# Velocity S-wave (km/s) = 2.74676 3.55101 3.17446
# Velocity P-wave (km/s) = 4.95102 6.14506 5.58007
#
# Compressibility (1/GPa) = 0.04119534
#
# Stress axis : x y z
#
# Youngs Moduli (GPa) = 75.19663 75.19663 32.20952
#
# Poissons Ratio (x) = 0.41552 0.04346
# Poissons Ratio (y) = 0.41552 0.04346
# Poissons Ratio (z) = 0.10146 0.10146
#
# Static dielectric constant tensor:
#      x y z
#    x 1.582850 0.000000 0.000000 
#    y 0.000000 1.582850 0.000000 
#    z 0.000000 0.000000 1.610300 
# 
# From -- ./inp_files/7408.got.cif
#   From: 2010.05.17/outbox.cif.g08.bks.cpg/sg131_4_cif.got.tgz:7408.got - 2010.05.20 12:21:01.
