data_PCOD9566571
_publ_section_title
;
Structure prediction by ZEFSAII (Michael W. Deem and Ramdas Pophale) SiO2 
 PCOD9566571
Probable space group: P 42/M M C
;
_chemical_formula_sum "Si O2"
_cell_formula_units_Z 116
_cell_length_a 18.186067
_cell_length_b 18.186067
_cell_length_c 17.909198
_cell_angle_alpha 90.000000
_cell_angle_beta 90.000000
_cell_angle_gamma 90.000000
_cell_volume 5923.163372
_symmetry_space_group_name_H-M "P 42/M M C"
_symmetry_group_IT_number 131
_symmetry_cell_setting 'tetragonal'
loop_
_space_group_symop_operation_xyz
x,y,z
-x,-y,z
-y,x,1/2+z
y,-x,1/2+z
-x,y,-z
x,-y,-z
y,x,1/2-z
-y,-x,1/2-z
-x,-y,-z
x,y,-z
y,-x,1/2-z
-y,x,1/2-z
x,-y,z
-x,y,z
-y,-x,1/2+z
y,x,1/2+z
loop_
_atom_site_type_symbol
_atom_site_label
_atom_site_fract_x
_atom_site_fract_y
_atom_site_fract_z
Si Si1 0.413018 0.084005 0.683850
Si Si2 0.083068 0.088116 0.586857
Si Si3 0.500000 0.500000 0.870716
Si Si4 0.213432 0.656875 0.089430
Si Si5 0.381744 0.374065 0.590599
Si Si6 0.816406 0.802733 0.337584
Si Si7 0.418913 0.781064 0.089108
Si Si8 0.665254 0.084497 0.844674
O O1 0.500000 0.095708 0.697917
O O2 0.381390 0.143632 0.627081
O O3 0.367266 0.089473 0.760818
O O4 0.404377 0.000000 0.656168
O O5 0.091259 0.111207 0.500000
O O6 0.149552 0.120977 0.634260
O O7 0.000000 0.109605 0.611553
O O8 0.085626 0.000000 0.588919
O O9 0.434410 0.435934 0.874896
O O10 0.287462 0.610083 0.107207
O O11 0.217538 0.741030 0.119754
O O12 0.207801 0.660101 0.000000
O O13 0.388902 0.383915 0.500000
O O14 0.297273 0.387771 0.614365
O O15 0.800931 0.800931 0.250000
O O16 0.883733 0.746861 0.349850
O O17 0.500000 0.786870 0.120955
O O18 0.378607 0.855563 0.108442
O O19 0.421230 0.774958 0.000000
O O20 0.659179 0.000000 0.869013
#
# Coordination Sequence:
#
# PCOD9566571 Si02
#       8
#    16  16   4  16  16  16  16  16
#     4  10  23  44  66  90 122 164 215 271 327 385
#     4   9  20  39  61  88 125 168 212 261 318 376
#     4  12  21  36  64 100 133 166 201 252 313 374
#     4  11  24  41  63  94 127 166 214 262 319 389
#     4  10  20  34  57  91 129 162 201 249 309 375
#     4  12  23  39  63  91 125 166 210 263 324 380
#     4  10  20  36  58  88 127 167 205 256 317 376
#     4  11  23  40  63  92 124 166 218 265 316 391
#
# _framework density 19.584130999999999
#
# number of rings (size 3 to 8) (size 9 to 14) (size 15 to 20)
#    0.000    1.517    3.448    2.276    0.966    3.862 
#    0.000    2.069    0.000    0.000    0.000    3.379 
#    0.000    0.000    0.000    0.000    0.000    0.000 
#
# Total GULP energy -646023.663842 kJ/mol
# GULP energy per Si atom -5569.169516 kJ/mol
# Density = 1.953956 g / cm^3
# Si number density = 19.584131 Si / 1000 Ang^3
#
#
#
# Elastic Constant Matrix: (Units=GPa)
#
#
# Indices 1 2 3 4 5 6 
#
# 1 106.5505 54.7382 14.6968 0.0000 0.0000 0.0000
# 2 54.7382 106.5505 14.6968 0.0000 0.0000 0.0000
# 3 14.6968 14.6968 20.3798 0.0000 0.0000 0.0000
# 4 0.0000 0.0000 0.0000 -2.4292 0.0000 0.0000
# 5 0.0000 0.0000 0.0000 0.0000 -2.4292 0.0000
# 6 0.0000 0.0000 0.0000 0.0000 0.0000 36.7973
#
#
#
# Elastic Compliance Matrix: (Units=1/GPa)
#
#
# Indices 1 2 3 4 5 6 
#
# 1 0.013219 -0.006081 -0.005148 0.000000 0.000000 0.000000
# 2 -0.006081 0.013219 -0.005148 0.000000 0.000000 0.000000
# 3 -0.005148 -0.005148 0.056493 0.000000 0.000000 0.000000
# 4 0.000000 0.000000 0.000000 -0.411661 0.000000 0.000000
# 5 0.000000 0.000000 0.000000 0.000000 -0.411661 0.000000
# 6 0.000000 0.000000 0.000000 0.000000 0.000000 0.027176
#
#
# Mechanical properties :
#
#
# Convention : Reuss Voigt Hill
#
# Bulk Modulus (GPa) = 19.92892 44.63827 32.28359
# Shear Modulus (GPa) = -7.53313 16.34440 4.40563
#
# Velocity S-wave (km/s) = -1.96339 2.89203 1.50149
# Velocity P-wave (km/s) = 2.24906 5.83047 4.41886
#
# Compressibility (1/GPa) = 0.05017834
#
# Stress axis : x y z
#
# Youngs Moduli (GPa) = 75.64690 75.64690 17.70143
#
# Poissons Ratio (x) = 0.46002 0.09112
# Poissons Ratio (y) = 0.46002 0.09112
# Poissons Ratio (z) = 0.38940 0.38940
#
# Static dielectric constant tensor:
#      x y z
#    x 1.681210 0.000000 0.000000 
#    y 0.000000 1.681210 0.000000 
#    z 0.000000 0.000000 1.676620 
# 
# From -- ./inp_files/8196.got.cif
#   From: 2010.05.17/outbox.cif.g08.bks.cpg/sg131_5_cif.got.tgz:8196.got - 2010.05.20 12:21:01.
