data_PCOD9566300
_publ_section_title
;
Structure prediction by ZEFSAII (Michael W. Deem and Ramdas Pophale) SiO2 
 PCOD9566300
Probable space group: P 42/M M C
;
_chemical_formula_sum "Si O2"
_cell_formula_units_Z 88
_cell_length_a 18.100079
_cell_length_b 18.100079
_cell_length_c 15.413881
_cell_angle_alpha 90.000000
_cell_angle_beta 90.000000
_cell_angle_gamma 90.000000
_cell_volume 5049.785635
_symmetry_space_group_name_H-M "P 42/M M C"
_symmetry_group_IT_number 131
_symmetry_cell_setting 'tetragonal'
loop_
_space_group_symop_operation_xyz
x,y,z
-x,-y,z
-y,x,1/2+z
y,-x,1/2+z
-x,y,-z
x,-y,-z
y,x,1/2-z
-y,-x,1/2-z
-x,-y,-z
x,y,-z
y,-x,1/2-z
-y,x,1/2-z
x,-y,z
-x,y,z
-y,-x,1/2+z
y,x,1/2+z
loop_
_atom_site_type_symbol
_atom_site_label
_atom_site_fract_x
_atom_site_fract_y
_atom_site_fract_z
Si Si1 0.912865 0.915171 0.000000
Si Si2 0.258257 0.411177 0.905411
Si Si3 0.586056 0.202811 0.779291
Si Si4 0.417893 0.370891 0.843704
Si Si5 0.914692 0.329016 0.603430
Si Si6 0.086857 0.838358 0.328949
O O1 0.883378 0.883316 0.088530
O O2 0.000000 0.916707 0.000000
O O3 0.883701 0.000000 0.000000
O O4 0.250929 0.500000 0.903637
O O5 0.216458 0.383258 0.818719
O O6 0.345556 0.394431 0.895975
O O7 0.232313 0.384166 0.000000
O O8 0.500000 0.182376 0.771284
O O9 0.588771 0.283453 0.824111
O O10 0.625144 0.142809 0.839258
O O11 0.410176 0.410176 0.750000
O O12 0.500000 0.385867 0.879667
O O13 0.897403 0.328938 0.500000
O O14 0.911708 0.246263 0.641555
O O15 0.000000 0.354980 0.612166
O O16 0.137873 0.862128 0.250000
O O17 0.000000 0.858165 0.310751
#
# Coordination Sequence:
#
# PCOD9566300 Si02
#       6
#     8  16  16  16  16  16
#     4   9  16  28  48  74 103 135 172 206 235 278
#     4   9  18  32  50  74 105 141 178 214 252 300
#     4   9  19  35  54  75  99 131 172 216 263 314
#     4   9  17  29  46  71 105 143 180 219 257 297
#     4  10  21  38  57  76 102 131 162 212 271 318
#     4  10  19  32  51  77 107 140 173 204 245 297
#
# _framework density 17.426483000000001
#
# number of rings (size 3 to 8) (size 9 to 14) (size 15 to 20)
#    0.000    2.636    0.909    2.182    0.000    6.182 
#    0.000    3.636    2.000    0.545    0.000    2.545 
#    0.000    0.000    0.000    0.000    0.000    0.000 
#
# Total GULP energy -490106.584264 kJ/mol
# GULP energy per Si atom -5569.393003 kJ/mol
# Density = 1.738682 g / cm^3
# Si number density = 17.426483 Si / 1000 Ang^3
#
#
#
# Elastic Constant Matrix: (Units=GPa)
#
#
# Indices 1 2 3 4 5 6 
#
# 1 53.8666 32.0477 42.1971 0.0000 0.0000 0.0000
# 2 32.0477 53.8678 42.1976 0.0000 0.0000 0.0000
# 3 42.1971 42.1976 133.1437 0.0000 0.0000 0.0000
# 4 0.0000 0.0000 0.0000 35.3572 0.0000 0.0000
# 5 0.0000 0.0000 0.0000 0.0000 35.3561 0.0000
# 6 0.0000 0.0000 0.0000 0.0000 0.0000 19.0600
#
#
#
# Elastic Compliance Matrix: (Units=1/GPa)
#
#
# Indices 1 2 3 4 5 6 
#
# 1 0.031366 -0.014465 -0.005356 0.000000 0.000000 0.000000
# 2 -0.014465 0.031366 -0.005356 0.000000 0.000000 0.000000
# 3 -0.005356 -0.005356 0.010906 0.000000 0.000000 0.000000
# 4 0.000000 0.000000 0.000000 0.028283 0.000000 0.000000
# 5 0.000000 0.000000 0.000000 0.000000 0.028284 0.000000
# 6 0.000000 0.000000 0.000000 0.000000 0.000000 0.052466
#
#
# Mechanical properties :
#
#
# Convention : Reuss Voigt Hill
#
# Bulk Modulus (GPa) = 42.95114 52.64031 47.79572
# Shear Modulus (GPa) = 20.76532 26.25039 23.50785
#
# Velocity S-wave (km/s) = 3.45569 3.88538 3.67682
# Velocity P-wave (km/s) = 6.37362 7.09936 6.74625
#
# Compressibility (1/GPa) = 0.02328227
#
# Stress axis : x y z
#
# Youngs Moduli (GPa) = 31.88147 31.88211 91.69307
#
# Poissons Ratio (x) = 0.46117 0.49115
# Poissons Ratio (y) = 0.46116 0.49115
# Poissons Ratio (z) = 0.17077 0.17078
#
# Static dielectric constant tensor:
#      x y z
#    x 1.589880 0.000000 0.000000 
#    y 0.000000 1.589880 0.000000 
#    z 0.000000 0.000000 1.636250 
# 
# From -- ./inp_files/5916.got.cif
#   From: 2010.05.17/outbox.cif.g08.bks.cpg/sg131_3_cif.got.tgz:5916.got - 2010.05.20 12:21:01.
