data_PCOD9566920
_publ_section_title
;
Structure prediction by ZEFSAII (Michael W. Deem and Ramdas Pophale) SiO2 
 PCOD9566920
Probable space group: P 42/M M C
;
_chemical_formula_sum "Si O2"
_cell_formula_units_Z 80
_cell_length_a 15.000000
_cell_length_b 15.000000
_cell_length_c 21.000000
_cell_angle_alpha 90.000000
_cell_angle_beta 90.000000
_cell_angle_gamma 90.000000
_cell_volume 4725.000000
_symmetry_space_group_name_H-M "P 42/M M C"
_symmetry_group_IT_number 131
_symmetry_cell_setting 'tetragonal'
loop_
_space_group_symop_operation_xyz
x,y,z
-x,-y,z
-y,x,1/2+z
y,-x,1/2+z
-x,y,-z
x,-y,-z
y,x,1/2-z
-y,-x,1/2-z
-x,-y,-z
x,y,-z
y,-x,1/2-z
-y,x,1/2-z
x,-y,z
-x,y,z
-y,-x,1/2+z
y,x,1/2+z
loop_
_atom_site_type_symbol
_atom_site_label
_atom_site_fract_x
_atom_site_fract_y
_atom_site_fract_z
Si Si1 0.605508 0.893526 0.191202
Si Si2 0.256784 0.106314 0.925156
Si Si3 0.105459 0.256040 0.924726
Si Si4 0.391366 0.801716 0.671640
Si Si5 0.602450 0.402003 0.673282
O O1 0.500000 0.879422 0.176643
O O2 0.668368 0.874373 0.129577
O O3 0.626174 0.835475 0.255233
O O4 0.616102 0.000000 0.205908
O O5 0.171005 0.170560 0.914646
O O6 0.235602 0.000000 0.919576
O O7 0.285487 0.120120 0.000000
O O8 0.138627 0.335126 0.877923
O O9 0.000000 0.236957 0.913408
O O10 0.114253 0.280514 0.000000
O O11 0.500000 0.807804 0.663663
O O12 0.363167 0.697883 0.658943
O O13 0.598244 0.401757 0.750000
O O14 0.643021 0.500000 0.655250
O O15 0.500000 0.403511 0.649748
#
# Coordination Sequence:
#
# PCOD9566920 Si02
#       5
#    16  16  16  16  16
#     4   9  18  32  52  81 112 140 174 214 257 310
#     4   9  19  36  56  77 103 136 172 214 267 322
#     4  10  22  38  55  76 101 133 176 224 270 316
#     4  10  20  33  53  80 109 142 176 213 258 306
#     4   8  15  28  46  72 104 136 172 210 245 290
#
# _framework density 16.931217
#
# number of rings (size 3 to 8) (size 9 to 14) (size 15 to 20)
#    0.000    2.800    0.000    1.200    2.800    2.400 
#    0.000    5.000    0.000    1.800    0.000    5.600 
#    0.000    0.000    0.000    7.800    0.000    0.200 
#
# Total GULP energy -445355.784600 kJ/mol
# GULP energy per Si atom -5566.947308 kJ/mol
# Density = 1.689268 g / cm^3
# Si number density = 16.931217 Si / 1000 Ang^3
#
#
#
# Elastic Constant Matrix: (Units=GPa)
#
#
# Indices 1 2 3 4 5 6 
#
# 1 115.8663 46.6521 58.9474 0.0000 0.0000 0.0000
# 2 46.6521 115.8664 58.9474 0.0000 0.0000 0.0000
# 3 58.9474 58.9474 104.6502 0.0000 0.0000 0.0000
# 4 0.0000 0.0000 0.0000 31.9965 0.0000 0.0000
# 5 0.0000 0.0000 0.0000 0.0000 31.9965 0.0000
# 6 0.0000 0.0000 0.0000 0.0000 0.0000 29.9528
#
#
#
# Elastic Compliance Matrix: (Units=1/GPa)
#
#
# Indices 1 2 3 4 5 6 
#
# 1 0.012426 -0.002022 -0.005861 0.000000 0.000000 0.000000
# 2 -0.002022 0.012426 -0.005861 0.000000 0.000000 0.000000
# 3 -0.005861 -0.005861 0.016158 0.000000 0.000000 0.000000
# 4 0.000000 0.000000 0.000000 0.031253 0.000000 0.000000
# 5 0.000000 0.000000 0.000000 0.000000 0.031253 0.000000
# 6 0.000000 0.000000 0.000000 0.000000 0.000000 0.033386
#
#
# Mechanical properties :
#
#
# Convention : Reuss Voigt Hill
#
# Bulk Modulus (GPa) = 73.93994 73.94184 73.94089
# Shear Modulus (GPa) = 29.60371 30.24490 29.92430
#
# Velocity S-wave (km/s) = 4.18601 4.23110 4.20861
# Velocity P-wave (km/s) = 8.19324 8.22413 8.20870
#
# Compressibility (1/GPa) = 0.01352449
#
# Stress axis : x y z
#
# Youngs Moduli (GPa) = 80.47459 80.47468 61.88831
#
# Poissons Ratio (x) = 0.16269 0.36271
# Poissons Ratio (y) = 0.16269 0.36271
# Poissons Ratio (z) = 0.47164 0.47164
#
# Static dielectric constant tensor:
#      x y z
#    x 1.601840 0.000000 0.000000 
#    y 0.000000 1.601830 0.000000 
#    z 0.000000 0.000000 1.553980 
# 
# From -- ./inp_files/9394.got.cif
#   From: 2010.05.17/outbox.ucp.g08.bks.cvg/sg131_5_cif.got.tgz:9394.got - 2010.06.11 11:38:44.
