data_PCOD9566772
_publ_section_title
;
Structure prediction by ZEFSAII (Michael W. Deem and Ramdas Pophale) SiO2 
 PCOD9566772
Probable space group: P 42/M M C
;
_chemical_formula_sum "Si O2"
_cell_formula_units_Z 120
_cell_length_a 17.865682
_cell_length_b 17.865682
_cell_length_c 19.764842
_cell_angle_alpha 90.000000
_cell_angle_beta 90.000000
_cell_angle_gamma 90.000000
_cell_volume 6308.593526
_symmetry_space_group_name_H-M "P 42/M M C"
_symmetry_group_IT_number 131
_symmetry_cell_setting 'tetragonal'
loop_
_space_group_symop_operation_xyz
x,y,z
-x,-y,z
-y,x,1/2+z
y,-x,1/2+z
-x,y,-z
x,-y,-z
y,x,1/2-z
-y,-x,1/2-z
-x,-y,-z
x,y,-z
y,-x,1/2-z
-y,x,1/2-z
x,-y,z
-x,y,z
-y,-x,1/2+z
y,x,1/2+z
loop_
_atom_site_type_symbol
_atom_site_label
_atom_site_fract_x
_atom_site_fract_y
_atom_site_fract_z
Si Si1 0.590480 0.754274 0.426547
Si Si2 0.414975 0.816582 0.131388
Si Si3 0.587226 0.080677 0.405696
Si Si4 0.411683 0.500000 0.577737
Si Si5 0.279681 0.910744 0.075506
Si Si6 0.373082 0.915557 0.251349
Si Si7 0.089032 0.204227 0.716902
Si Si8 0.650243 0.366248 0.669401
O O1 0.607726 0.718372 0.500000
O O2 0.500000 0.754137 0.419372
O O3 0.617602 0.839977 0.429153
O O4 0.625554 0.711900 0.363568
O O5 0.500000 0.809978 0.104415
O O6 0.354984 0.862199 0.086574
O O7 0.415655 0.862170 0.201142
O O8 0.382132 0.736494 0.152393
O O9 0.500000 0.079162 0.425039
O O10 0.593013 0.084846 0.325109
O O11 0.620638 0.000000 0.425507
O O12 0.500000 0.500000 0.570008
O O13 0.379748 0.500000 0.500000
O O14 0.390782 0.571117 0.623934
O O15 0.223207 0.894473 0.137712
O O16 0.296451 0.000000 0.079865
O O17 0.249964 0.896034 0.000000
O O18 0.284717 0.896593 0.252612
O O19 0.377551 0.000000 0.224016
O O20 0.141024 0.141024 0.750000
O O21 0.000000 0.187240 0.723098
O O22 0.632985 0.367016 0.750000
#
# Coordination Sequence:
#
# PCOD9566772 Si02
#       8
#    16  16  16   8  16  16  16  16
#     4  10  22  40  59  79 110 149 187 231 288 356
#     4  11  22  36  52  84 116 147 187 247 298 345
#     4   9  17  30  52  82 111 143 182 228 278 335
#     4  11  26  46  66  84 109 149 195 246 310 372
#     4   9  20  38  58  82 115 159 200 234 288 363
#     4   9  18  32  52  78 114 152 185 225 282 343
#     4   9  18  33  55  82 112 146 190 239 283 336
#     4  12  26  40  61  87 114 149 196 255 301 357
#
# _framework density 19.021674000000001
#
# number of rings (size 3 to 8) (size 9 to 14) (size 15 to 20)
#    0.000    2.067    0.667    3.200    1.867    9.733 
#    0.000    2.000    0.000    0.400    0.000    3.733 
#    0.000    0.000    0.000    0.000    0.000    0.000 
#
# Total GULP energy -668955.428179 kJ/mol
# GULP energy per Si atom -5574.628568 kJ/mol
# Density = 1.897838 g / cm^3
# Si number density = 19.021674 Si / 1000 Ang^3
#
#
#
# Elastic Constant Matrix: (Units=GPa)
#
#
# Indices 1 2 3 4 5 6 
#
# 1 89.8929 45.5055 43.7761 0.0000 0.0000 0.0000
# 2 45.5055 89.8926 43.7760 0.0000 0.0000 0.0000
# 3 43.7761 43.7760 150.0234 0.0000 0.0000 0.0000
# 4 0.0000 0.0000 0.0000 -64.3403 0.0000 0.0000
# 5 0.0000 0.0000 0.0000 0.0000 -64.3878 0.0000
# 6 0.0000 0.0000 0.0000 0.0000 0.0000 23.6457
#
#
#
# Elastic Compliance Matrix: (Units=1/GPa)
#
#
# Indices 1 2 3 4 5 6 
#
# 1 0.015816 -0.006713 -0.002656 0.000000 0.000000 0.000000
# 2 -0.006713 0.015816 -0.002656 0.000000 0.000000 0.000000
# 3 -0.002656 -0.002656 0.008216 0.000000 0.000000 0.000000
# 4 0.000000 0.000000 0.000000 -0.015542 0.000000 0.000000
# 5 0.000000 0.000000 0.000000 0.000000 -0.015531 0.000000
# 6 0.000000 0.000000 0.000000 0.000000 0.000000 0.042291
#
#
# Mechanical properties :
#
#
# Convention : Reuss Voigt Hill
#
# Bulk Modulus (GPa) = 63.30249 66.21379 64.75814
# Shear Modulus (GPa) = 62.20274 -7.89971 27.15151
#
# Velocity S-wave (km/s) = 5.72468 -2.04010 3.78219
# Velocity P-wave (km/s) = 8.77766 5.41626 7.29326
#
# Compressibility (1/GPa) = 0.01579717
#
# Stress axis : x y z
#
# Youngs Moduli (GPa) = 63.22676 63.22652 121.71665
#
# Poissons Ratio (x) = 0.42443 0.32331
# Poissons Ratio (y) = 0.42443 0.32331
# Poissons Ratio (z) = 0.16795 0.16795
#
# Static dielectric constant tensor:
#      x y z
#    x 1.644660 0.000000 0.000000 
#    y 0.000000 1.644680 0.000000 
#    z 0.000000 0.000000 1.683220 
# 
# From -- ./inp_files/10117.got.cif
#   From: 2010.05.17/outbox.cif.g08.bks.cpg/sg131_6_cif.got.tgz:10117.got - 2010.05.20 12:21:01.
