data_PCOD9566309
_publ_section_title
;
Structure prediction by ZEFSAII (Michael W. Deem and Ramdas Pophale) SiO2 
 PCOD9566309
Probable space group: P 42/M M C
;
_chemical_formula_sum "Si O2"
_cell_formula_units_Z 88
_cell_length_a 18.336276
_cell_length_b 18.336276
_cell_length_c 15.230911
_cell_angle_alpha 90.000000
_cell_angle_beta 90.000000
_cell_angle_gamma 90.000000
_cell_volume 5120.921933
_symmetry_space_group_name_H-M "P 42/M M C"
_symmetry_group_IT_number 131
_symmetry_cell_setting 'tetragonal'
loop_
_space_group_symop_operation_xyz
x,y,z
-x,-y,z
-y,x,1/2+z
y,-x,1/2+z
-x,y,-z
x,-y,-z
y,x,1/2-z
-y,-x,1/2-z
-x,-y,-z
x,y,-z
y,-x,1/2-z
-y,x,1/2-z
x,-y,z
-x,y,z
-y,-x,1/2+z
y,x,1/2+z
loop_
_atom_site_type_symbol
_atom_site_label
_atom_site_fract_x
_atom_site_fract_y
_atom_site_fract_z
Si Si1 0.797362 0.917554 0.744381
Si Si2 0.915563 0.316789 0.402134
Si Si3 0.914054 0.582504 0.146636
Si Si4 0.722556 0.836934 0.598036
Si Si5 0.716248 0.283753 0.250000
Si Si6 0.191410 0.583690 0.314860
O O1 0.864164 0.864164 0.750000
O O2 0.739601 0.902117 0.822563
O O3 0.762019 0.902011 0.649976
O O4 0.819858 0.000000 0.754119
O O5 0.911349 0.283963 0.500000
O O6 0.853493 0.377962 0.392789
O O7 0.000000 0.343348 0.391755
O O8 0.911250 0.500000 0.112211
O O9 0.866692 0.640141 0.093437
O O10 0.871530 0.583001 0.239475
O O11 0.000000 0.602198 0.154965
O O12 0.749139 0.821008 0.500000
O O13 0.729317 0.769735 0.666415
O O14 0.741781 0.364158 0.283133
O O15 0.213259 0.500000 0.330892
#
# Coordination Sequence:
#
# PCOD9566309 Si02
#       6
#    16  16  16  16   8  16
#     4  11  22  38  54  75 105 139 183 230 277 320
#     4  10  20  34  54  80 113 151 185 220 271 332
#     4   9  17  30  49  77 114 144 164 200 258 319
#     4  11  21  35  56  79 103 137 178 216 261 319
#     4  10  20  38  54  79 111 142 176 218 270 320
#     4  10  19  32  53  78 107 144 184 225 266 315
#
# _framework density 17.184407
#
# number of rings (size 3 to 8) (size 9 to 14) (size 15 to 20)
#    0.000    1.818    4.545    1.091    0.000    6.364 
#    0.000    1.818    0.000    0.273    0.000    3.818 
#    0.000    0.000    0.000   10.727    0.000    0.000 
#
# Total GULP energy -490055.138376 kJ/mol
# GULP energy per Si atom -5568.808391 kJ/mol
# Density = 1.714529 g / cm^3
# Si number density = 17.184407 Si / 1000 Ang^3
#
#
#
# Elastic Constant Matrix: (Units=GPa)
#
#
# Indices 1 2 3 4 5 6 
#
# 1 102.5260 60.6279 26.9112 0.0000 0.0000 0.0000
# 2 60.6279 102.5270 26.9114 0.0000 0.0000 0.0000
# 3 26.9112 26.9114 111.5867 0.0000 0.0000 0.0000
# 4 0.0000 0.0000 0.0000 1.2075 0.0000 0.0000
# 5 0.0000 0.0000 0.0000 0.0000 1.2075 0.0000
# 6 0.0000 0.0000 0.0000 0.0000 0.0000 28.3076
#
#
#
# Elastic Compliance Matrix: (Units=1/GPa)
#
#
# Indices 1 2 3 4 5 6 
#
# 1 0.015263 -0.008604 -0.001606 0.000000 0.000000 0.000000
# 2 -0.008604 0.015263 -0.001606 0.000000 0.000000 0.000000
# 3 -0.001606 -0.001606 0.009736 0.000000 0.000000 0.000000
# 4 0.000000 0.000000 0.000000 0.828150 0.000000 0.000000
# 5 0.000000 0.000000 0.000000 0.000000 0.828189 0.000000
# 6 0.000000 0.000000 0.000000 0.000000 0.000000 0.035326
#
#
# Mechanical properties :
#
#
# Convention : Reuss Voigt Hill
#
# Bulk Modulus (GPa) = 60.13087 60.61564 60.37326
# Shear Modulus (GPa) = 2.83913 19.62380 11.23146
#
# Velocity S-wave (km/s) = 1.28676 3.38295 2.55930
# Velocity P-wave (km/s) = 6.10534 7.11402 6.62889
#
# Compressibility (1/GPa) = 0.01663039
#
# Stress axis : x y z
#
# Youngs Moduli (GPa) = 65.51743 65.51802 102.70905
#
# Poissons Ratio (x) = 0.56372 0.16494
# Poissons Ratio (y) = 0.56372 0.16494
# Poissons Ratio (z) = 0.10522 0.10522
#
# Static dielectric constant tensor:
#      x y z
#    x 1.600670 0.000000 0.000000 
#    y 0.000000 1.600670 0.000000 
#    z 0.000000 0.000000 1.644310 
# 
# From -- ./inp_files/5912.got.cif
#   From: 2010.05.17/outbox.cif.g08.bks.cpg/sg131_3_cif.got.tgz:5912.got - 2010.05.20 12:21:01.
