data_PCOD9566657
_publ_section_title
;
Structure prediction by ZEFSAII (Michael W. Deem and Ramdas Pophale) SiO2 
 PCOD9566657
Probable space group: P 42/M M C
;
_chemical_formula_sum "Si O2"
_cell_formula_units_Z 46
_cell_length_a 9.546924
_cell_length_b 9.546924
_cell_length_c 28.858676
_cell_angle_alpha 90.000000
_cell_angle_beta 90.000000
_cell_angle_gamma 90.000000
_cell_volume 2630.288178
_symmetry_space_group_name_H-M "P 42/M M C"
_symmetry_group_IT_number 131
_symmetry_cell_setting 'tetragonal'
loop_
_space_group_symop_operation_xyz
x,y,z
-x,-y,z
-y,x,1/2+z
y,-x,1/2+z
-x,y,-z
x,-y,-z
y,x,1/2-z
-y,-x,1/2-z
-x,-y,-z
x,y,-z
y,-x,1/2-z
-y,x,1/2-z
x,-y,z
-x,y,z
-y,-x,1/2+z
y,x,1/2+z
loop_
_atom_site_type_symbol
_atom_site_label
_atom_site_fract_x
_atom_site_fract_y
_atom_site_fract_z
Si Si1 0.161637 0.500000 0.366756
Si Si2 0.000000 0.000000 0.250000
Si Si3 0.000000 0.165220 0.055389
Si Si4 0.500000 0.000000 0.223380
Si Si5 0.716426 0.000000 0.695329
Si Si6 0.333449 0.779456 0.614921
O O1 0.131210 0.500000 0.311522
O O2 0.251520 0.365467 0.380172
O O3 0.000000 0.500000 0.385960
O O4 0.000000 0.128279 0.214498
O O5 0.869026 0.249752 0.076569
O O6 0.000000 0.000000 0.069708
O O7 0.000000 0.169553 0.000000
O O8 0.371432 0.000000 0.257874
O O9 0.682678 0.132457 0.662674
O O10 0.500000 0.766022 0.605145
#
# Coordination Sequence:
#
# PCOD9566657 Si02
#       6
#     8   2   8   4   8  16
#     4  10  23  37  59  85 118 167 203 256 299 368
#     4  12  24  28  60  76 110 152 204 260 288 344
#     4  10  22  40  68  97 119 149 197 252 306 374
#     4  10  20  40  56  80 122 154 214 254 298 352
#     4  11  21  37  53  84 112 154 206 254 299 346
#     4  11  22  39  61  85 123 161 197 248 311 368
#
# _framework density 17.488576999999999
#
# number of rings (size 3 to 8) (size 9 to 14) (size 15 to 20)
#    0.522    0.870    1.739    5.217    7.304    1.391 
#    0.000    0.870    3.826    5.217    0.000    0.000 
#    0.000    0.000    0.000    0.000    0.000    0.000 
#
# Total GULP energy -256483.734152 kJ/mol
# GULP energy per Si atom -5575.733351 kJ/mol
# Density = 1.744877 g / cm^3
# Si number density = 17.488577 Si / 1000 Ang^3
#
#
#
# Elastic Constant Matrix: (Units=GPa)
#
#
# Indices 1 2 3 4 5 6 
#
# 1 199.6681 86.6010 57.3978 0.0000 0.0000 0.0000
# 2 86.6010 199.6681 57.3978 0.0000 0.0000 0.0000
# 3 57.3978 57.3978 89.5711 0.0000 0.0000 0.0000
# 4 0.0000 0.0000 0.0000 13.3766 0.0000 0.0000
# 5 0.0000 0.0000 0.0000 0.0000 13.3766 0.0000
# 6 0.0000 0.0000 0.0000 0.0000 0.0000 31.0390
#
#
#
# Elastic Compliance Matrix: (Units=1/GPa)
#
#
# Indices 1 2 3 4 5 6 
#
# 1 0.006773 -0.002072 -0.003013 0.000000 0.000000 0.000000
# 2 -0.002072 0.006773 -0.003013 0.000000 0.000000 0.000000
# 3 -0.003013 -0.003013 0.015025 0.000000 0.000000 0.000000
# 4 0.000000 0.000000 0.000000 0.074757 0.000000 0.000000
# 5 0.000000 0.000000 0.000000 0.000000 0.074757 0.000000
# 6 0.000000 0.000000 0.000000 0.000000 0.000000 0.032218
#
#
# Mechanical properties :
#
#
# Convention : Reuss Voigt Hill
#
# Bulk Modulus (GPa) = 80.79220 99.07781 89.93500
# Shear Modulus (GPa) = 21.68049 30.72584 26.20317
#
# Velocity S-wave (km/s) = 3.52475 4.19610 3.87499
# Velocity P-wave (km/s) = 7.92859 8.95836 8.45916
#
# Compressibility (1/GPa) = 0.01237743
#
# Stress axis : x y z
#
# Youngs Moduli (GPa) = 147.64939 147.64939 66.55431
#
# Poissons Ratio (x) = 0.30586 0.20050
# Poissons Ratio (y) = 0.30586 0.20050
# Poissons Ratio (z) = 0.44481 0.44481
#
# Static dielectric constant tensor:
#      x y z
#    x 1.584120 0.000000 0.000000 
#    y 0.000000 1.584120 0.000000 
#    z 0.000000 0.000000 1.561420 
# 
# From -- ./inp_files/13034.got.cif
#   From: 2010.05.17/outbox.cif.g08.bks.cpg/sg131_7_cif.got.tgz:13034.got - 2010.05.20 12:21:01.
