data_PCOD9566992
_publ_section_title
;
Structure prediction by ZEFSAII (Michael W. Deem and Ramdas Pophale) SiO2 
 PCOD9566992
Probable space group: P 42/M C M
;
_chemical_formula_sum "Si O2"
_cell_formula_units_Z 96
_cell_length_a 19.608255
_cell_length_b 19.608255
_cell_length_c 17.761089
_cell_angle_alpha 90.000000
_cell_angle_beta 90.000000
_cell_angle_gamma 90.000000
_cell_volume 6828.848578
_symmetry_space_group_name_H-M "P 42/M C M"
_symmetry_group_IT_number 132
_symmetry_cell_setting 'tetragonal'
loop_
_space_group_symop_operation_xyz
x,y,z
-y,x,1/2+z
-x,-y,z
y,-x,1/2+z
x,-y,1/2-z
-x,y,1/2-z
y,x,-z
-y,-x,-z
-x,-y,-z
y,-x,1/2-z
x,y,-z
-y,x,1/2-z
-x,y,1/2+z
x,-y,1/2+z
-y,-x,z
y,x,z
loop_
_atom_site_type_symbol
_atom_site_label
_atom_site_fract_x
_atom_site_fract_y
_atom_site_fract_z
Si Si1 0.096388 0.629010 0.913285
Si Si2 0.509577 0.082396 0.335963
Si Si3 0.207303 0.902391 0.332942
Si Si4 0.126791 0.763306 0.162114
Si Si5 0.067395 0.350015 0.087891
Si Si6 0.974751 0.135813 0.911822
O O1 0.109593 0.552054 0.886853
O O2 0.130080 0.684890 0.859671
O O3 0.014900 0.643049 0.907195
O O4 0.115990 0.638768 0.000000
O O5 0.500000 0.104835 0.250000
O O6 0.584554 0.096591 0.368095
O O7 0.500000 0.000000 0.336841
O O8 0.169027 0.830974 0.346869
O O9 0.223381 0.906103 0.244045
O O10 0.278088 0.911210 0.376858
O O11 0.155665 0.961115 0.361082
O O12 0.199098 0.800903 0.161830
O O13 0.079146 0.803095 0.102379
O O14 0.085548 0.353126 0.000000
O O15 0.933467 0.066534 0.892477
O O16 0.993695 0.133012 0.000000
#
# Coordination Sequence:
#
# PCOD9566992 Si02
#       6
#    16  16  16  16  16  16
#     4  10  18  29  47  66  84 108 137 172 211 256
#     4   9  17  28  44  65  86 109 133 164 205 251
#     4  11  22  33  46  62  81 110 144 178 219 264
#     4  10  20  32  46  63  83 108 138 175 218 263
#     4  10  19  30  44  63  86 108 134 173 210 252
#     4  10  20  33  47  61  77 101 136 180 226 265
#
# _framework density 14.058006000000001
#
# number of rings (size 3 to 8) (size 9 to 14) (size 15 to 20)
#    0.000    2.000    1.667    3.000    0.000    6.000 
#    0.000    0.833    0.000    3.000    0.000    0.000 
#    0.000    0.000    0.000    0.000    0.000    0.833 
#
# Total GULP energy -535506.097963 kJ/mol
# GULP energy per Si atom -5578.188520 kJ/mol
# Density = 1.402601 g / cm^3
# Si number density = 14.058006 Si / 1000 Ang^3
#
#
#
# Elastic Constant Matrix: (Units=GPa)
#
#
# Indices 1 2 3 4 5 6 
#
# 1 62.9914 32.9834 38.4378 0.0000 0.0000 0.0000
# 2 32.9834 62.9914 38.4378 0.0000 0.0000 0.0000
# 3 38.4378 38.4378 89.7101 0.0000 0.0000 0.0000
# 4 0.0000 0.0000 0.0000 15.7750 0.0000 0.0000
# 5 0.0000 0.0000 0.0000 0.0000 15.7750 0.0000
# 6 0.0000 0.0000 0.0000 0.0000 0.0000 8.4572
#
#
#
# Elastic Compliance Matrix: (Units=1/GPa)
#
#
# Indices 1 2 3 4 5 6 
#
# 1 0.024594 -0.008730 -0.006797 0.000000 0.000000 0.000000
# 2 -0.008730 0.024594 -0.006797 0.000000 0.000000 0.000000
# 3 -0.006797 -0.006797 0.016972 0.000000 0.000000 0.000000
# 4 0.000000 0.000000 0.000000 0.063392 0.000000 0.000000
# 5 0.000000 0.000000 0.000000 0.000000 0.063392 0.000000
# 6 0.000000 0.000000 0.000000 0.000000 0.000000 0.118243
#
#
# Mechanical properties :
#
#
# Convention : Reuss Voigt Hill
#
# Bulk Modulus (GPa) = 46.48805 48.37901 47.43353
# Shear Modulus (GPa) = 13.77389 15.05701 14.41545
#
# Velocity S-wave (km/s) = 3.13356 3.27626 3.20570
# Velocity P-wave (km/s) = 6.79947 6.98573 6.89323
#
# Compressibility (1/GPa) = 0.02151090
#
# Stress axis : x y z
#
# Youngs Moduli (GPa) = 40.65999 40.65999 58.92147
#
# Poissons Ratio (x) = 0.35497 0.40050
# Poissons Ratio (y) = 0.35497 0.40050
# Poissons Ratio (z) = 0.27637 0.27637
#
# Static dielectric constant tensor:
#      x y z
#    x 1.452970 0.000000 0.000000 
#    y 0.000000 1.452970 0.000000 
#    z 0.000000 0.000000 1.485390 
# 
# From -- ./inp_files/4973.got.cif
#   From: 2010.05.17/outbox.cif.g08.bks.cpg/sg132_3_cif.got.tgz:4973.got - 2010.05.20 12:30:18.
