data_PCOD9566156
_publ_section_title
;
Structure prediction by ZEFSAII (Michael W. Deem and Ramdas Pophale) SiO2 
 PCOD9566156
Probable space group: P 42/M M C
;
_chemical_formula_sum "Si O2"
_cell_formula_units_Z 112
_cell_length_a 14.792464
_cell_length_b 14.792464
_cell_length_c 26.167003
_cell_angle_alpha 90.000000
_cell_angle_beta 90.000000
_cell_angle_gamma 90.000000
_cell_volume 5725.784865
_symmetry_space_group_name_H-M "P 42/M M C"
_symmetry_group_IT_number 131
_symmetry_cell_setting 'tetragonal'
loop_
_space_group_symop_operation_xyz
x,y,z
-x,-y,z
-y,x,1/2+z
y,-x,1/2+z
-x,y,-z
x,-y,-z
y,x,1/2-z
-y,-x,1/2-z
-x,-y,-z
x,y,-z
y,-x,1/2-z
-y,x,1/2-z
x,-y,z
-x,y,z
-y,-x,1/2+z
y,x,1/2+z
loop_
_atom_site_type_symbol
_atom_site_label
_atom_site_fract_x
_atom_site_fract_y
_atom_site_fract_z
Si Si1 0.101957 0.144451 0.191519
Si Si2 0.894527 0.355638 0.165286
Si Si3 0.701551 0.894781 0.444341
Si Si4 0.636617 0.104614 0.945313
Si Si5 0.103085 0.604815 0.667118
Si Si6 0.156297 0.901548 0.915923
Si Si7 0.395876 0.243944 0.751842
O O1 0.124147 0.124147 0.250000
O O2 0.101899 0.251631 0.183457
O O3 0.162449 0.104542 0.145883
O O4 0.000000 0.111239 0.180985
O O5 0.862310 0.350382 0.106216
O O6 0.819071 0.398584 0.201319
O O7 0.000000 0.389073 0.169105
O O8 0.683242 0.852676 0.500000
O O9 0.809562 0.890919 0.433719
O O10 0.677514 0.000000 0.446910
O O11 0.605843 0.140144 0.890684
O O12 0.744719 0.102855 0.940441
O O13 0.605724 0.000000 0.945819
O O14 0.610647 0.145687 0.000000
O O15 0.095408 0.500000 0.682908
O O16 0.175653 0.645207 0.705437
O O17 0.000000 0.641969 0.668716
O O18 0.116549 0.000000 0.929090
O O19 0.329893 0.329893 0.750000
O O20 0.500000 0.269571 0.764145
#
# Coordination Sequence:
#
# PCOD9566156 Si02
#       7
#    16  16  16  16  16  16  16
#     4  10  20  30  42  64  95 137 187 238 286 326
#     4   9  19  34  55  82 110 143 180 223 279 333
#     4   9  18  31  46  69 102 142 189 235 279 325
#     4   9  18  30  45  69 102 140 176 212 261 318
#     4   9  19  35  56  84 113 140 174 218 266 320
#     4  10  19  28  39  60  95 141 191 234 272 319
#     4  11  24  40  61  87 114 145 182 224 276 338
#
# _framework density 19.560635999999999
#
# number of rings (size 3 to 8) (size 9 to 14) (size 15 to 20)
#    0.000    2.429    0.000    3.000    6.000    4.000 
#    0.000    2.143    0.000    0.429    0.000    2.000 
#    0.000    0.286    0.000    4.429    0.000    0.143 
#
# Total GULP energy -624114.151726 kJ/mol
# GULP energy per Si atom -5572.447783 kJ/mol
# Density = 1.951612 g / cm^3
# Si number density = 19.560636 Si / 1000 Ang^3
#
#
#
# Elastic Constant Matrix: (Units=GPa)
#
#
# Indices 1 2 3 4 5 6 
#
# 1 59.9273 25.2427 28.0381 0.0000 0.0000 0.0000
# 2 25.2427 59.9273 28.0381 0.0000 0.0000 0.0000
# 3 28.0381 28.0381 158.9097 0.0000 0.0000 0.0000
# 4 0.0000 0.0000 0.0000 22.0169 0.0000 0.0000
# 5 0.0000 0.0000 0.0000 0.0000 22.0169 0.0000
# 6 0.0000 0.0000 0.0000 0.0000 0.0000 32.4579
#
#
#
# Elastic Compliance Matrix: (Units=1/GPa)
#
#
# Indices 1 2 3 4 5 6 
#
# 1 0.021058 -0.007773 -0.002344 0.000000 0.000000 0.000000
# 2 -0.007773 0.021058 -0.002344 0.000000 0.000000 0.000000
# 3 -0.002344 -0.002344 0.007120 0.000000 0.000000 0.000000
# 4 0.000000 0.000000 0.000000 0.045420 0.000000 0.000000
# 5 0.000000 0.000000 0.000000 0.000000 0.045420 0.000000
# 6 0.000000 0.000000 0.000000 0.000000 0.000000 0.030809
#
#
# Mechanical properties :
#
#
# Convention : Reuss Voigt Hill
#
# Bulk Modulus (GPa) = 41.12982 49.04470 45.08726
# Shear Modulus (GPa) = 24.52049 28.46136 26.49093
#
# Velocity S-wave (km/s) = 3.54441 3.81863 3.68407
# Velocity P-wave (km/s) = 6.15004 6.67609 6.41845
#
# Compressibility (1/GPa) = 0.02431326
#
# Stress axis : x y z
#
# Youngs Moduli (GPa) = 47.48823 47.48823 140.44927
#
# Poissons Ratio (x) = 0.36914 0.32920
# Poissons Ratio (y) = 0.36914 0.32920
# Poissons Ratio (z) = 0.11131 0.11131
#
# Static dielectric constant tensor:
#      x y z
#    x 1.693180 0.000000 0.000000 
#    y 0.000000 1.693180 0.000000 
#    z 0.000000 0.000000 1.766070 
# 
# From -- ./inp_files/12473.got.cif
#   From: 2010.05.17/outbox.cif.g08.bks.cpg/sg131_7_cif.got.tgz:12473.got - 2010.05.20 12:21:01.
