data_PCOD9566755
_publ_section_title
;
Structure prediction by ZEFSAII (Michael W. Deem and Ramdas Pophale) SiO2 
 PCOD9566755
Probable space group: P 42/M M C
;
_chemical_formula_sum "Si O2"
_cell_formula_units_Z 92
_cell_length_a 14.688215
_cell_length_b 14.688215
_cell_length_c 20.440802
_cell_angle_alpha 90.000000
_cell_angle_beta 90.000000
_cell_angle_gamma 90.000000
_cell_volume 4409.973434
_symmetry_space_group_name_H-M "P 42/M M C"
_symmetry_group_IT_number 131
_symmetry_cell_setting 'tetragonal'
loop_
_space_group_symop_operation_xyz
x,y,z
-x,-y,z
-y,x,1/2+z
y,-x,1/2+z
-x,y,-z
x,-y,-z
y,x,1/2-z
-y,-x,1/2-z
-x,-y,-z
x,y,-z
y,-x,1/2-z
-y,x,1/2-z
x,-y,z
-x,y,z
-y,-x,1/2+z
y,x,1/2+z
loop_
_atom_site_type_symbol
_atom_site_label
_atom_site_fract_x
_atom_site_fract_y
_atom_site_fract_z
Si Si1 0.801864 0.108006 0.869541
Si Si2 0.596637 0.721080 0.793220
Si Si3 0.155140 0.392553 0.110584
Si Si4 0.000000 0.625734 0.000000
Si Si5 0.271350 0.682140 0.427005
Si Si6 0.104891 0.678010 0.248804
Si Si7 0.109760 0.000000 0.575125
O O1 0.738130 0.178409 0.909098
O O2 0.768512 0.115291 0.793947
O O3 0.906853 0.132259 0.886727
O O4 0.790146 0.000000 0.887248
O O5 0.674819 0.674819 0.750000
O O6 0.500000 0.685841 0.770231
O O7 0.611303 0.709184 0.869733
O O8 0.606189 0.828288 0.781944
O O9 0.159960 0.500000 0.128903
O O10 0.077968 0.380084 0.057048
O O11 0.247101 0.354245 0.079803
O O12 0.134210 0.328465 0.173297
O O13 0.264261 0.646092 0.500000
O O14 0.000000 0.652419 0.251863
O O15 0.148929 0.000000 0.500000
O O16 0.000000 0.000000 0.569179
#
# Coordination Sequence:
#
# PCOD9566755 Si02
#       7
#    16  16  16   4  16  16   8
#     4   9  20  38  60  92 131 175 225 269 313 383
#     4  11  24  43  67  93 127 168 218 270 324 394
#     4  12  23  38  61  91 129 164 204 263 330 403
#     4  12  25  38  60 102 135 164 207 256 340 424
#     4  11  24  40  63  94 128 165 213 265 328 390
#     4  10  21  39  66  93 126 171 216 270 328 386
#     4   9  16  31  58  89 127 177 224 263 316 375
#
# _framework density 20.861805
#
# number of rings (size 3 to 8) (size 9 to 14) (size 15 to 20)
#    0.000    1.478    3.478    1.826    0.000    3.304 
#    1.565    0.000    1.913    0.000    0.000    7.304 
#    0.000    0.000    0.000    0.000    0.000    0.000 
#
# Total GULP energy -512449.821207 kJ/mol
# GULP energy per Si atom -5570.106752 kJ/mol
# Density = 2.081432 g / cm^3
# Si number density = 20.861805 Si / 1000 Ang^3
#
#
#
# Elastic Constant Matrix: (Units=GPa)
#
#
# Indices 1 2 3 4 5 6 
#
# 1 53.0633 18.3352 26.1921 0.0000 0.0000 0.0000
# 2 18.3352 53.0633 26.1921 0.0000 0.0000 0.0000
# 3 26.1921 26.1921 150.7762 0.0000 0.0000 0.0000
# 4 0.0000 0.0000 0.0000 1.4425 0.0000 0.0000
# 5 0.0000 0.0000 0.0000 0.0000 1.4425 0.0000
# 6 0.0000 0.0000 0.0000 0.0000 0.0000 471.7014
#
#
#
# Elastic Compliance Matrix: (Units=1/GPa)
#
#
# Indices 1 2 3 4 5 6 
#
# 1 0.022423 -0.006372 -0.002788 0.000000 0.000000 0.000000
# 2 -0.006372 0.022423 -0.002788 0.000000 0.000000 0.000000
# 3 -0.002788 -0.002788 0.007601 0.000000 0.000000 0.000000
# 4 0.000000 0.000000 0.000000 0.693254 0.000000 0.000000
# 5 0.000000 0.000000 0.000000 0.000000 0.693254 0.000000
# 6 0.000000 0.000000 0.000000 0.000000 0.000000 0.002120
#
#
# Mechanical properties :
#
#
# Convention : Reuss Voigt Hill
#
# Bulk Modulus (GPa) = 35.02515 44.26017 39.64266
# Shear Modulus (GPa) = 3.39100 107.32950 55.36025
#
# Velocity S-wave (km/s) = 1.27632 7.18050 5.15696
# Velocity P-wave (km/s) = 4.35862 9.48725 7.38260
#
# Compressibility (1/GPa) = 0.02855091
#
# Stress axis : x y z
#
# Youngs Moduli (GPa) = 44.59620 44.59620 131.55936
#
# Poissons Ratio (x) = 0.28415 0.36684
# Poissons Ratio (y) = 0.28415 0.36684
# Poissons Ratio (z) = 0.12435 0.12435
#
# Static dielectric constant tensor:
#      x y z
#    x 1.757880 0.000000 0.000000 
#    y 0.000000 1.757880 0.000000 
#    z 0.000000 0.000000 1.772040 
# 
# From -- ./inp_files/9810.got.cif
#   From: 2010.05.17/outbox.cif.g08.bks.cpg/sg131_5_cif.got.tgz:9810.got - 2010.05.20 12:21:01.
