data_PCOD9566947
_publ_section_title
;
Structure prediction by ZEFSAII (Michael W. Deem and Ramdas Pophale) SiO2 
 PCOD9566947
Probable space group: P 42/M C M
;
_chemical_formula_sum "Si O2"
_cell_formula_units_Z 96
_cell_length_a 26.038809
_cell_length_b 26.038809
_cell_length_c 8.793924
_cell_angle_alpha 90.000000
_cell_angle_beta 90.000000
_cell_angle_gamma 90.000000
_cell_volume 5962.452605
_symmetry_space_group_name_H-M "P 42/M C M"
_symmetry_group_IT_number 132
_symmetry_cell_setting 'tetragonal'
loop_
_space_group_symop_operation_xyz
x,y,z
-y,x,1/2+z
-x,-y,z
y,-x,1/2+z
x,-y,1/2-z
-x,y,1/2-z
y,x,-z
-y,-x,-z
-x,-y,-z
y,-x,1/2-z
x,y,-z
-y,x,1/2-z
-x,y,1/2+z
x,-y,1/2+z
-y,-x,z
y,x,z
loop_
_atom_site_type_symbol
_atom_site_label
_atom_site_fract_x
_atom_site_fract_y
_atom_site_fract_z
Si Si1 0.444759 0.756712 0.681758
Si Si2 0.361784 0.444907 0.816599
Si Si3 0.948990 0.360278 0.181919
Si Si4 0.636367 0.834373 0.682146
Si Si5 0.052285 0.754978 0.318636
Si Si6 0.243806 0.159271 0.682877
O O1 0.500000 0.771875 0.750000
O O2 0.447731 0.758644 0.500000
O O3 0.435083 0.697388 0.728349
O O4 0.399666 0.793157 0.739383
O O5 0.377095 0.500000 0.750000
O O6 0.400072 0.400072 0.766475
O O7 0.363309 0.447565 0.000000
O O8 0.892668 0.382482 0.215230
O O9 0.947158 0.303525 0.255453
O O10 0.000000 0.386132 0.250000
O O11 0.954085 0.355322 0.000000
O O12 0.634361 0.827407 0.500000
O O13 0.696635 0.830799 0.727407
O O14 0.049697 0.755033 0.500000
O O15 0.106797 0.775839 0.260093
O O16 0.000000 0.778714 0.250000
O O17 0.243858 0.151558 0.500000
O O18 0.206990 0.206990 0.718749
#
# Coordination Sequence:
#
# PCOD9566947 Si02
#       6
#    16  16  16  16  16  16
#     4  10  20  34  52  70  91 122 157 193 229 269
#     4   9  19  35  52  72  97 121 148 184 225 269
#     4   9  16  27  44  66  92 120 152 191 233 277
#     4   9  18  31  47  69  95 123 155 190 231 279
#     4  10  17  26  42  63  89 122 161 199 234 276
#     4   9  18  32  47  66  97 131 158 190 235 283
#
# _framework density 16.100757999999999
#
# number of rings (size 3 to 8) (size 9 to 14) (size 15 to 20)
#    0.000    2.667    0.000    4.500    0.000    5.500 
#    0.000    0.833    0.000    0.500    0.000    3.500 
#    0.000    0.333    0.000    3.500    0.000    1.667 
#
# Total GULP energy -534711.184701 kJ/mol
# GULP energy per Si atom -5569.908174 kJ/mol
# Density = 1.606411 g / cm^3
# Si number density = 16.100758 Si / 1000 Ang^3
#
#
#
# Elastic Constant Matrix: (Units=GPa)
#
#
# Indices 1 2 3 4 5 6 
#
# 1 97.3006 73.4661 39.1319 0.0000 0.0000 0.0000
# 2 73.4661 97.3006 39.1319 0.0000 0.0000 0.0000
# 3 39.1319 39.1319 47.8319 0.0000 0.0000 0.0000
# 4 0.0000 0.0000 0.0000 250.0315 0.0000 0.0000
# 5 0.0000 0.0000 0.0000 0.0000 250.0315 0.0000
# 6 0.0000 0.0000 0.0000 0.0000 0.0000 -2.5010
#
#
#
# Elastic Compliance Matrix: (Units=1/GPa)
#
#
# Indices 1 2 3 4 5 6 
#
# 1 0.025662 -0.016294 -0.007665 0.000000 0.000000 0.000000
# 2 -0.016294 0.025662 -0.007665 0.000000 0.000000 0.000000
# 3 -0.007665 -0.007665 0.033448 0.000000 0.000000 0.000000
# 4 0.000000 0.000000 0.000000 0.003999 0.000000 0.000000
# 5 0.000000 0.000000 0.000000 0.000000 0.003999 0.000000
# 6 0.000000 0.000000 0.000000 0.000000 0.000000 -0.399837
#
#
# Mechanical properties :
#
#
# Convention : Reuss Voigt Hill
#
# Bulk Modulus (GPa) = 46.45446 60.65474 53.55460
# Shear Modulus (GPa) = -21.12876 105.55927 42.21526
#
# Velocity S-wave (km/s) = -3.62648 8.10580 5.12605
# Velocity P-wave (km/s) = 3.37341 11.19639 8.26858
#
# Compressibility (1/GPa) = 0.02152646
#
# Stress axis : x y z
#
# Youngs Moduli (GPa) = 38.96756 38.96756 29.89743
#
# Poissons Ratio (x) = 0.63492 0.22915
# Poissons Ratio (y) = 0.63492 0.22915
# Poissons Ratio (z) = 0.29867 0.29867
#
# Static dielectric constant tensor:
#      x y z
#    x 1.549670 0.000000 0.000000 
#    y 0.000000 1.549670 0.000000 
#    z 0.000000 0.000000 1.539760 
# 
# From -- ./inp_files/1755.got.cif
#   From: 2010.05.17/outbox.cif.g08.bks.cpg/sg132_1_cif.got.tgz:1755.got - 2010.05.20 12:30:18.
