data_PCOD9566923
_publ_section_title
;
Structure prediction by ZEFSAII (Michael W. Deem and Ramdas Pophale) SiO2 
 PCOD9566923
Probable space group: P 42/M M C
;
_chemical_formula_sum "Si O2"
_cell_formula_units_Z 112
_cell_length_a 15.000000
_cell_length_b 15.000000
_cell_length_c 27.000000
_cell_angle_alpha 90.000000
_cell_angle_beta 90.000000
_cell_angle_gamma 90.000000
_cell_volume 6075.000000
_symmetry_space_group_name_H-M "P 42/M M C"
_symmetry_group_IT_number 131
_symmetry_cell_setting 'tetragonal'
loop_
_space_group_symop_operation_xyz
x,y,z
-x,-y,z
-y,x,1/2+z
y,-x,1/2+z
-x,y,-z
x,-y,-z
y,x,1/2-z
-y,-x,1/2-z
-x,-y,-z
x,y,-z
y,-x,1/2-z
-y,x,1/2-z
x,-y,z
-x,y,z
-y,-x,1/2+z
y,x,1/2+z
loop_
_atom_site_type_symbol
_atom_site_label
_atom_site_fract_x
_atom_site_fract_y
_atom_site_fract_z
Si Si1 0.094182 0.100544 0.558965
Si Si2 0.607295 0.400569 0.802466
Si Si3 0.398807 0.234403 0.131332
Si Si4 0.778352 0.107259 0.287252
Si Si5 0.754634 0.206169 0.608617
Si Si6 0.104233 0.401379 0.725592
Si Si7 0.393514 0.102297 0.441377
O O1 0.090933 0.095807 0.500000
O O2 0.179316 0.152916 0.573942
O O3 0.000000 0.140044 0.576959
O O4 0.099867 0.000000 0.578421
O O5 0.639117 0.360884 0.750000
O O6 0.642200 0.500000 0.811214
O O7 0.500000 0.406515 0.795465
O O8 0.619330 0.332369 0.846108
O O9 0.500000 0.230891 0.110715
O O10 0.309676 0.221793 0.100455
O O11 0.396010 0.166172 0.177390
O O12 0.853057 0.146944 0.250000
O O13 0.775458 0.168417 0.336419
O O14 0.681721 0.119401 0.261361
O O15 0.790213 0.000000 0.296486
O O16 0.657049 0.174037 0.591950
O O17 0.120651 0.500000 0.748403
O O18 0.000000 0.398091 0.710948
O O19 0.373767 0.114661 0.500000
O O20 0.500000 0.107901 0.435614
O O21 0.366387 0.000000 0.428291
#
# Coordination Sequence:
#
# PCOD9566923 Si02
#       7
#    16  16  16  16  16  16  16
#     4   9  19  37  61  88 112 134 169 221 281 341
#     4   8  15  28  46  67  91 124 169 221 270 305
#     4  10  21  34  51  74 105 144 187 229 268 315
#     4  11  23  37  51  76 112 149 188 227 274 335
#     4  12  22  33  57  84 112 144 189 228 279 336
#     4   9  19  37  55  68  95 143 192 234 270 308
#     4   9  19  37  60  87 118 148 182 231 293 355
#
# _framework density 18.436214
#
# number of rings (size 3 to 8) (size 9 to 14) (size 15 to 20)
#    0.000    2.286    1.429    3.000    2.000    3.571 
#    0.000    1.429    0.000    1.714    0.000    2.000 
#    0.000    0.000    0.000    0.000    0.000    0.000 
#
# Total GULP energy -623839.688858 kJ/mol
# GULP energy per Si atom -5569.997222 kJ/mol
# Density = 1.839425 g / cm^3
# Si number density = 18.436214 Si / 1000 Ang^3
#
#
#
# Elastic Constant Matrix: (Units=GPa)
#
#
# Indices 1 2 3 4 5 6 
#
# 1 75.5238 23.4682 15.2027 0.0000 0.0000 0.0000
# 2 23.4682 75.5249 15.2031 0.0000 0.0000 0.0000
# 3 15.2027 15.2031 26.2610 0.0000 0.0000 0.0000
# 4 0.0000 0.0000 0.0000 29.3921 0.0000 0.0000
# 5 0.0000 0.0000 0.0000 0.0000 29.3922 0.0000
# 6 0.0000 0.0000 0.0000 0.0000 0.0000 -90.4495
#
#
#
# Elastic Compliance Matrix: (Units=1/GPa)
#
#
# Indices 1 2 3 4 5 6 
#
# 1 0.015748 -0.003462 -0.007113 0.000000 0.000000 0.000000
# 2 -0.003462 0.015748 -0.007113 0.000000 0.000000 0.000000
# 3 -0.007113 -0.007113 0.046315 0.000000 0.000000 0.000000
# 4 0.000000 0.000000 0.000000 0.034023 0.000000 0.000000
# 5 0.000000 0.000000 0.000000 0.000000 0.034023 0.000000
# 6 0.000000 0.000000 0.000000 0.000000 0.000000 -0.011056
#
#
# Mechanical properties :
#
#
# Convention : Reuss Voigt Hill
#
# Bulk Modulus (GPa) = 23.56471 31.67308 27.61890
# Shear Modulus (GPa) = 27.12661 1.89602 14.51131
#
# Velocity S-wave (km/s) = 3.84001 1.01521 2.80859
# Velocity P-wave (km/s) = 5.69828 4.31177 5.05281
#
# Compressibility (1/GPa) = 0.04243634
#
# Stress axis : x y z
#
# Youngs Moduli (GPa) = 63.49882 63.49940 21.59145
#
# Poissons Ratio (x) = 0.21982 0.15357
# Poissons Ratio (y) = 0.21982 0.15358
# Poissons Ratio (z) = 0.45165 0.45167
#
# Static dielectric constant tensor:
#      x y z
#    x 1.670830 0.000000 0.000000 
#    y 0.000000 1.670830 0.000000 
#    z 0.000000 0.000000 1.779850 
# 
# From -- ./inp_files/12415.got.cif
#   From: 2010.05.17/outbox.ucp.g08.bks.cvg/sg131_7_cif.got.tgz:12415.got - 2010.06.11 11:38:44.
