data_PCOD9566894
_publ_section_title
;
Structure prediction by ZEFSAII (Michael W. Deem and Ramdas Pophale) SiO2 
 PCOD9566894
Probable space group: P 42/M M C
;
_chemical_formula_sum "Si O2"
_cell_formula_units_Z 32
_cell_length_a 7.370140
_cell_length_b 7.370140
_cell_length_c 29.558811
_cell_angle_alpha 90.000000
_cell_angle_beta 90.000000
_cell_angle_gamma 90.000000
_cell_volume 1605.603979
_symmetry_space_group_name_H-M "P 42/M M C"
_symmetry_group_IT_number 131
_symmetry_cell_setting 'tetragonal'
loop_
_space_group_symop_operation_xyz
x,y,z
-x,-y,z
-y,x,1/2+z
y,-x,1/2+z
-x,y,-z
x,-y,-z
y,x,1/2-z
-y,-x,1/2-z
-x,-y,-z
x,y,-z
y,-x,1/2-z
-y,x,1/2-z
x,-y,z
-x,y,z
-y,-x,1/2+z
y,x,1/2+z
loop_
_atom_site_type_symbol
_atom_site_label
_atom_site_fract_x
_atom_site_fract_y
_atom_site_fract_z
Si Si1 0.278912 0.707050 0.500000
Si Si2 0.721292 0.000000 0.427075
Si Si3 0.720205 0.000000 0.675864
Si Si4 0.285789 0.714212 0.750000
O O1 0.500000 0.704315 0.500000
O O2 0.216897 0.500000 0.500000
O O3 0.223999 0.823824 0.543871
O O4 0.785050 0.000000 0.375542
O O5 0.500000 0.000000 0.426517
O O6 0.772169 0.173131 0.706043
O O7 0.500000 0.000000 0.673505
O O8 0.500000 0.744001 0.757078
#
# Coordination Sequence:
#
# PCOD9566894 Si02
#       4
#     8   8   8   8
#     4   8  13  21  34  55  85 120 157 196 239 287
#     4   8  14  23  35  55  84 119 158 197 238 286
#     4   9  17  29  44  63  91 126 164 205 246 294
#     4   9  18  31  46  66  92 123 160 201 246 294
#
# _framework density 19.930194
#
# number of rings (size 3 to 8) (size 9 to 14) (size 15 to 20)
#    0.000    3.500    0.000    1.500    0.000    2.500 
#    0.000   10.000    0.000    0.000    0.000    0.000 
#    0.000   16.000    0.000   47.000    0.000  125.000 
#
# Total GULP energy -178501.112896 kJ/mol
# GULP energy per Si atom -5578.159778 kJ/mol
# Density = 1.988483 g / cm^3
# Si number density = 19.930194 Si / 1000 Ang^3
#
#
#
# Elastic Constant Matrix: (Units=GPa)
#
#
# Indices 1 2 3 4 5 6 
#
# 1 112.3084 32.7032 74.8817 0.0000 0.0000 0.0000
# 2 32.7032 112.3072 74.8818 0.0000 0.0000 0.0000
# 3 74.8817 74.8818 249.4003 0.0000 0.0000 0.0000
# 4 0.0000 0.0000 0.0000 28.1718 0.0000 0.0000
# 5 0.0000 0.0000 0.0000 0.0000 28.1704 0.0000
# 6 0.0000 0.0000 0.0000 0.0000 0.0000 -6.8496
#
#
#
# Elastic Compliance Matrix: (Units=1/GPa)
#
#
# Indices 1 2 3 4 5 6 
#
# 1 0.011279 -0.001283 -0.003001 0.000000 0.000000 0.000000
# 2 -0.001283 0.011279 -0.003001 0.000000 0.000000 0.000000
# 3 -0.003001 -0.003001 0.005812 0.000000 0.000000 0.000000
# 4 0.000000 0.000000 0.000000 0.035497 0.000000 0.000000
# 5 0.000000 0.000000 0.000000 0.000000 0.035498 0.000000
# 6 0.000000 0.000000 0.000000 0.000000 0.000000 -0.145995
#
#
# Mechanical properties :
#
#
# Convention : Reuss Voigt Hill
#
# Bulk Modulus (GPa) = 72.47270 93.21659 82.84465
# Shear Modulus (GPa) = -182.08390 29.33513 -76.37439
#
# Velocity S-wave (km/s) = -9.56866 3.84069 -6.19711
# Velocity P-wave (km/s) = 9.25401 8.15726 3.08996
#
# Compressibility (1/GPa) = 0.01379830
#
# Stress axis : x y z
#
# Youngs Moduli (GPa) = 88.66257 88.66127 172.06440
#
# Poissons Ratio (x) = 0.11378 0.51638
# Poissons Ratio (y) = 0.11378 0.51639
# Poissons Ratio (z) = 0.26608 0.26609
#
# Static dielectric constant tensor:
#      x y z
#    x 1.732310 0.000000 0.000000 
#    y 0.000000 1.732310 0.000000 
#    z 0.000000 0.000000 1.661660 
# 
# From -- ./inp_files/10295.got.cif
#   From: 2010.05.17/outbox.cif.g08.bks.cpg/sg131_6_cif.got.tgz:10295.got - 2010.05.20 12:21:01.
