data_PCOD9566014
_publ_section_title
;
Structure prediction by ZEFSAII (Michael W. Deem and Ramdas Pophale) SiO2 
 PCOD9566014
Probable space group: P 4/N C C
;
_chemical_formula_sum "Si O2"
_cell_formula_units_Z 88
_cell_length_a 10.034886
_cell_length_b 10.034886
_cell_length_c 35.045939
_cell_angle_alpha 90.000000
_cell_angle_beta 90.000000
_cell_angle_gamma 90.000000
_cell_volume 3529.088805
_symmetry_space_group_name_H-M "P 4/N C C"
_symmetry_group_IT_number 130
_symmetry_cell_setting 'tetragonal'
loop_
_space_group_symop_operation_xyz
x,y,z
1/2-y,x,z
1/2-x,1/2-y,z
y,1/2-x,z
1/2+x,-y,1/2-z
-x,1/2+y,1/2-z
1/2+y,1/2+x,1/2-z
-y,-x,1/2-z
-x,-y,-z
1/2+y,-x,-z
1/2+x,1/2+y,-z
-y,1/2+x,-z
1/2-x,y,1/2+z
x,1/2-y,1/2+z
1/2-y,1/2-x,1/2+z
y,x,1/2+z
loop_
_atom_site_type_symbol
_atom_site_label
_atom_site_fract_x
_atom_site_fract_y
_atom_site_fract_z
Si Si1 0.381900 0.692525 0.395282
Si Si2 0.750000 0.750000 0.739392
Si Si3 0.966884 0.696479 0.458841
Si Si4 0.802347 0.443489 0.717159
Si Si5 0.803291 0.530209 0.043807
Si Si6 0.250000 0.250000 0.858094
Si Si7 0.503385 0.433915 0.834839
O O1 0.250000 0.750000 0.375831
O O2 0.445485 0.807483 0.421275
O O3 0.333253 0.581482 0.425703
O O4 0.472709 0.614641 0.365418
O O5 0.795767 0.593258 0.734353
O O6 0.903524 0.843915 0.457482
O O7 0.027025 0.680369 0.500924
O O8 0.920991 0.450894 0.685719
O O9 0.661426 0.425636 0.696267
O O10 0.846187 0.346187 0.750000
O O11 0.903468 0.656687 0.047656
O O12 0.388884 0.339400 0.854156
#
# Coordination Sequence:
#
# PCOD9566014 Si02
#       7
#    16   4  16  16  16   4  16
#     4  12  27  36  60  93 130 161 208 264 315 363
#     4   8  17  36  60 104 108 140 213 238 297 372
#     4   9  22  44  63  84 124 174 213 253 309 380
#     4   9  17  37  68  87 119 162 194 252 315 367
#     4   9  22  40  64  92 114 157 220 266 315 366
#     4   8  17  36  72  84 116 144 193 270 321 344
#     4   9  20  37  57  98 121 146 205 261 310 374
#
# _framework density 24.935617000000001
#
# number of rings (size 3 to 8) (size 9 to 14) (size 15 to 20)
#    0.000    2.545    0.000    4.364   10.182    1.455 
#    6.545    0.000    0.000    0.000    0.000    0.000 
#    0.000    0.000    0.000    0.000    0.000    0.000 
#
# Total GULP energy -490304.349262 kJ/mol
# GULP energy per Si atom -5571.640333 kJ/mol
# Density = 2.487886 g / cm^3
# Si number density = 24.935617 Si / 1000 Ang^3
#
#
#
# Elastic Constant Matrix: (Units=GPa)
#
#
# Indices 1 2 3 4 5 6 
#
# 1 64.8087 18.7131 26.2262 0.0000 0.0000 0.0000
# 2 18.7131 64.8087 26.2262 0.0000 0.0000 0.0000
# 3 26.2262 26.2262 70.3041 0.0000 0.0000 0.0000
# 4 0.0000 0.0000 0.0000 9.1961 0.0000 0.0000
# 5 0.0000 0.0000 0.0000 0.0000 9.1961 0.0000
# 6 0.0000 0.0000 0.0000 0.0000 0.0000 52.1231
#
#
#
# Elastic Compliance Matrix: (Units=1/GPa)
#
#
# Indices 1 2 3 4 5 6 
#
# 1 0.018665 -0.003029 -0.005833 0.000000 0.000000 0.000000
# 2 -0.003029 0.018665 -0.005833 0.000000 0.000000 0.000000
# 3 -0.005833 -0.005833 0.018576 0.000000 0.000000 0.000000
# 4 0.000000 0.000000 0.000000 0.108742 0.000000 0.000000
# 5 0.000000 0.000000 0.000000 0.000000 0.108742 0.000000
# 6 0.000000 0.000000 0.000000 0.000000 0.000000 0.019185
#
#
# Mechanical properties :
#
#
# Convention : Reuss Voigt Hill
#
# Bulk Modulus (GPa) = 37.71266 38.02807 37.87037
# Shear Modulus (GPa) = 15.11469 22.68676 18.90073
#
# Velocity S-wave (km/s) = 2.46468 3.01958 2.75613
# Velocity P-wave (km/s) = 4.82249 5.23840 5.03474
#
# Compressibility (1/GPa) = 0.02651629
#
# Stress axis : x y z
#
# Youngs Moduli (GPa) = 53.57612 53.57612 53.83380
#
# Poissons Ratio (x) = 0.16228 0.31400
# Poissons Ratio (y) = 0.16228 0.31400
# Poissons Ratio (z) = 0.31250 0.31250
#
# Static dielectric constant tensor:
#      x y z
#    x 1.985050 0.000000 0.000000 
#    y 0.000000 1.985050 0.000000 
#    z 0.000000 0.000000 2.053130 
# 
# From -- ./inp_files/4897.got.cif
#   From: 2010.05.17/outbox.cif.g08.bks.cpg/sg130_3_cif.got.tgz:4897.got - 2010.05.20 12:17:35.
