data_PCOD9566686
_publ_section_title
;
Structure prediction by ZEFSAII (Michael W. Deem and Ramdas Pophale) SiO2 
 PCOD9566686
Probable space group: P 42/M M C
;
_chemical_formula_sum "Si O2"
_cell_formula_units_Z 120
_cell_length_a 28.728730
_cell_length_b 28.728730
_cell_length_c 7.578822
_cell_angle_alpha 90.000000
_cell_angle_beta 90.000000
_cell_angle_gamma 90.000000
_cell_volume 6255.104399
_symmetry_space_group_name_H-M "P 42/M M C"
_symmetry_group_IT_number 131
_symmetry_cell_setting 'tetragonal'
loop_
_space_group_symop_operation_xyz
x,y,z
-x,-y,z
-y,x,1/2+z
y,-x,1/2+z
-x,y,-z
x,-y,-z
y,x,1/2-z
-y,-x,1/2-z
-x,-y,-z
x,y,-z
y,-x,1/2-z
-y,x,1/2-z
x,-y,z
-x,y,z
-y,-x,1/2+z
y,x,1/2+z
loop_
_atom_site_type_symbol
_atom_site_label
_atom_site_fract_x
_atom_site_fract_y
_atom_site_fract_z
Si Si1 0.880096 0.688093 0.216406
Si Si2 0.943651 0.500000 0.797769
Si Si3 0.128310 0.052181 0.209248
Si Si4 0.552143 0.629508 0.712373
Si Si5 0.701144 0.623422 0.210963
Si Si6 0.695776 0.773616 0.287552
Si Si7 0.602748 0.054091 0.283971
Si Si8 0.052344 0.768095 0.792482
O O1 0.826838 0.694903 0.275412
O O2 0.908607 0.641730 0.268747
O O3 0.911129 0.731476 0.279105
O O4 0.878903 0.687770 0.000000
O O5 0.932066 0.550716 0.721328
O O6 0.000000 0.500000 0.804081
O O7 0.926209 0.500000 0.000000
O O8 0.087434 0.087434 0.250000
O O9 0.178640 0.068007 0.276083
O O10 0.119469 0.000000 0.279727
O O11 0.132205 0.049231 0.000000
O O12 0.586460 0.586460 0.750000
O O13 0.550110 0.632887 0.500000
O O14 0.500000 0.622654 0.779628
O O15 0.576085 0.677513 0.778154
O O16 0.661410 0.661410 0.250000
O O17 0.747154 0.649152 0.278949
O O18 0.706678 0.618477 0.000000
O O19 0.740988 0.740988 0.250000
O O20 0.693232 0.774959 0.500000
O O21 0.601535 0.053446 0.500000
O O22 0.612798 0.000000 0.232003
O O23 0.000000 0.764649 0.716880
O O24 0.048490 0.757632 0.000000
#
# Coordination Sequence:
#
# PCOD9566686 Si02
#       8
#    16   8  16  16  16  16  16  16
#     4   9  16  25  40  62  86 112 146 186 223 260
#     4   7  10  16  28  48  76 112 147 173 199 239
#     4  10  21  36  53  72  94 121 152 188 230 274
#     4   9  17  28  42  60  82 109 140 172 207 250
#     4   8  14  26  43  58  74 101 135 168 203 243
#     4   9  17  29  44  61  82 107 138 178 219 257
#     4   8  12  19  33  54  82 116 150 178 206 248
#     4   9  17  30  47  66  90 121 154 185 221 267
#
# _framework density 19.184334
#
# number of rings (size 3 to 8) (size 9 to 14) (size 15 to 20)
#    0.000    3.267    0.000    1.600    0.000    3.467 
#    0.000    3.333    1.467    0.000    0.000    0.000 
#    0.000    0.000    0.000    1.800    0.000   28.200 
#
# Total GULP energy -668032.431367 kJ/mol
# GULP energy per Si atom -5566.936928 kJ/mol
# Density = 1.914067 g / cm^3
# Si number density = 19.184334 Si / 1000 Ang^3
#
#
#
# Elastic Constant Matrix: (Units=GPa)
#
#
# Indices 1 2 3 4 5 6 
#
# 1 146.1239 117.0064 3.1787 0.0000 0.0000 0.0000
# 2 117.0064 146.1239 3.1787 0.0000 0.0000 0.0000
# 3 3.1787 3.1787 43.2853 0.0000 0.0000 0.0000
# 4 0.0000 0.0000 0.0000 -4.9835 0.0000 0.0000
# 5 0.0000 0.0000 0.0000 0.0000 -4.9835 0.0000
# 6 0.0000 0.0000 0.0000 0.0000 0.0000 -4.8328
#
#
#
# Elastic Compliance Matrix: (Units=1/GPa)
#
#
# Indices 1 2 3 4 5 6 
#
# 1 0.019075 -0.015268 -0.000280 0.000000 0.000000 0.000000
# 2 -0.015268 0.019075 -0.000280 0.000000 0.000000 0.000000
# 3 -0.000280 -0.000280 0.023144 0.000000 0.000000 0.000000
# 4 0.000000 0.000000 0.000000 -0.200662 0.000000 0.000000
# 5 0.000000 0.000000 0.000000 0.000000 -0.200662 0.000000
# 6 0.000000 0.000000 0.000000 0.000000 0.000000 -0.206921
#
#
# Mechanical properties :
#
#
# Convention : Reuss Voigt Hill
#
# Bulk Modulus (GPa) = 33.73870 64.69564 49.21717
# Shear Modulus (GPa) = -9.89285 11.18467 0.64591
#
# Velocity S-wave (km/s) = -2.27331 2.41718 0.58088
# Velocity P-wave (km/s) = 3.27631 6.44878 5.11473
#
# Compressibility (1/GPa) = 0.02963956
#
# Stress axis : x y z
#
# Youngs Moduli (GPa) = 52.42370 52.42370 43.20852
#
# Poissons Ratio (x) = 0.80041 0.01208
# Poissons Ratio (y) = 0.80041 0.01208
# Poissons Ratio (z) = 0.01466 0.01466
#
# Static dielectric constant tensor:
#      x y z
#    x 1.669180 0.000000 0.000000 
#    y 0.000000 1.669180 0.000000 
#    z 0.000000 0.000000 1.757560 
# 
# From -- ./inp_files/2684.got.cif
#   From: 2010.05.17/outbox.cif.g08.bks.cpg/sg131_2_cif.got.tgz:2684.got - 2010.05.20 12:21:01.
