data_PCOD9566828
_publ_section_title
;
Structure prediction by ZEFSAII (Michael W. Deem and Ramdas Pophale) SiO2 
 PCOD9566828
Probable space group: P 42/M M C
;
_chemical_formula_sum "Si O2"
_cell_formula_units_Z 56
_cell_length_a 11.955168
_cell_length_b 11.955168
_cell_length_c 21.097740
_cell_angle_alpha 90.000000
_cell_angle_beta 90.000000
_cell_angle_gamma 90.000000
_cell_volume 3015.416471
_symmetry_space_group_name_H-M "P 42/M M C"
_symmetry_group_IT_number 131
_symmetry_cell_setting 'tetragonal'
loop_
_space_group_symop_operation_xyz
x,y,z
-x,-y,z
-y,x,1/2+z
y,-x,1/2+z
-x,y,-z
x,-y,-z
y,x,1/2-z
-y,-x,1/2-z
-x,-y,-z
x,y,-z
y,-x,1/2-z
-y,x,1/2-z
x,-y,z
-x,y,z
-y,-x,1/2+z
y,x,1/2+z
loop_
_atom_site_type_symbol
_atom_site_label
_atom_site_fract_x
_atom_site_fract_y
_atom_site_fract_z
Si Si1 0.500000 0.374729 0.923879
Si Si2 0.500000 0.134942 0.755416
Si Si3 0.258530 0.724153 0.072745
Si Si4 0.743388 0.133929 0.806576
Si Si5 0.134194 0.500000 0.892416
O O1 0.500000 0.500000 0.896158
O O2 0.385460 0.311441 0.910197
O O3 0.500000 0.385983 0.000000
O O4 0.615739 0.168406 0.788468
O O5 0.500000 0.168691 0.681776
O O6 0.500000 0.000000 0.755621
O O7 0.222838 0.811157 0.126625
O O8 0.185275 0.611576 0.077410
O O9 0.255695 0.765500 0.000000
O O10 0.820353 0.179648 0.750000
O O11 0.748021 0.000000 0.809933
O O12 0.000000 0.500000 0.897021
#
# Coordination Sequence:
#
# PCOD9566828 Si02
#       5
#     8   8  16  16   8
#     4   9  17  32  55  86 122 155 184 224 285 352
#     4   9  19  38  61  84 113 150 194 246 294 345
#     4  11  22  37  60  89 123 158 193 241 300 358
#     4  11  23  40  62  86 117 157 202 248 295 354
#     4  11  21  36  60  89 118 152 197 248 301 352
#
# _framework density 18.571232999999999
#
# number of rings (size 3 to 8) (size 9 to 14) (size 15 to 20)
#    0.000    1.571    4.286    1.286    0.000    2.000 
#    0.000    0.000    0.000    5.143    0.000    4.000 
#    0.000    0.000    0.000    0.000    0.000    0.000 
#
# Total GULP energy -312511.541755 kJ/mol
# GULP energy per Si atom -5580.563246 kJ/mol
# Density = 1.852896 g / cm^3
# Si number density = 18.571233 Si / 1000 Ang^3
#
#
#
# Elastic Constant Matrix: (Units=GPa)
#
#
# Indices 1 2 3 4 5 6 
#
# 1 92.3797 31.9039 51.3152 0.0000 0.0000 0.0000
# 2 31.9039 92.3814 51.3158 0.0000 0.0000 0.0000
# 3 51.3152 51.3158 151.8947 0.0000 0.0000 0.0000
# 4 0.0000 0.0000 0.0000 -24.9206 0.0000 0.0000
# 5 0.0000 0.0000 0.0000 0.0000 -24.9158 0.0000
# 6 0.0000 0.0000 0.0000 0.0000 0.0000 16.1009
#
#
#
# Elastic Compliance Matrix: (Units=1/GPa)
#
#
# Indices 1 2 3 4 5 6 
#
# 1 0.013847 -0.002688 -0.003770 0.000000 0.000000 0.000000
# 2 -0.002688 0.013847 -0.003770 0.000000 0.000000 0.000000
# 3 -0.003770 -0.003770 0.009131 0.000000 0.000000 0.000000
# 4 0.000000 0.000000 0.000000 -0.040127 0.000000 0.000000
# 5 0.000000 0.000000 0.000000 0.000000 -0.040135 0.000000
# 6 0.000000 0.000000 0.000000 0.000000 0.000000 0.062108
#
#
# Mechanical properties :
#
#
# Convention : Reuss Voigt Hill
#
# Bulk Modulus (GPa) = 61.09008 67.30286 64.19647
# Shear Modulus (GPa) = 112.14930 6.72763 59.43847
#
# Velocity S-wave (km/s) = 7.77945 1.90538 5.66349
# Velocity P-wave (km/s) = 10.66112 6.41558 8.79827
#
# Compressibility (1/GPa) = 0.01636927
#
# Stress axis : x y z
#
# Youngs Moduli (GPa) = 72.21581 72.21706 109.51970
#
# Poissons Ratio (x) = 0.19412 0.41289
# Poissons Ratio (y) = 0.19412 0.41289
# Poissons Ratio (z) = 0.27225 0.27226
#
# Static dielectric constant tensor:
#      x y z
#    x 1.632050 0.000000 0.000000 
#    y 0.000000 1.632040 0.000000 
#    z 0.000000 0.000000 1.646820 
# 
# From -- ./inp_files/9089.got.cif
#   From: 2010.05.17/outbox.cif.g08.bks.cpg/sg131_5_cif.got.tgz:9089.got - 2010.05.20 12:21:01.
