data_PCOD9566688
_publ_section_title
;
Structure prediction by ZEFSAII (Michael W. Deem and Ramdas Pophale) SiO2 
 PCOD9566688
Probable space group: P 42/M M C
;
_chemical_formula_sum "Si O2"
_cell_formula_units_Z 104
_cell_length_a 26.780278
_cell_length_b 26.780278
_cell_length_c 8.981067
_cell_angle_alpha 90.000000
_cell_angle_beta 90.000000
_cell_angle_gamma 90.000000
_cell_volume 6441.071177
_symmetry_space_group_name_H-M "P 42/M M C"
_symmetry_group_IT_number 131
_symmetry_cell_setting 'tetragonal'
loop_
_space_group_symop_operation_xyz
x,y,z
-x,-y,z
-y,x,1/2+z
y,-x,1/2+z
-x,y,-z
x,-y,-z
y,x,1/2-z
-y,-x,1/2-z
-x,-y,-z
x,y,-z
y,-x,1/2-z
-y,x,1/2-z
x,-y,z
-x,y,z
-y,-x,1/2+z
y,x,1/2+z
loop_
_atom_site_type_symbol
_atom_site_label
_atom_site_fract_x
_atom_site_fract_y
_atom_site_fract_z
Si Si1 0.874196 0.579769 0.822377
Si Si2 0.054896 0.129714 0.177532
Si Si3 0.943200 0.751956 0.821726
Si Si4 0.332860 0.256176 0.178527
Si Si5 0.141232 0.685428 0.678742
Si Si6 0.940744 0.500000 0.671556
Si Si7 0.555237 0.230961 0.178944
O O1 0.876950 0.634867 0.756205
O O2 0.918642 0.547331 0.756281
O O3 0.822181 0.557630 0.760765
O O4 0.874326 0.579568 0.000000
O O5 0.098388 0.098388 0.250000
O O6 0.059138 0.188743 0.205217
O O7 0.000000 0.113244 0.231358
O O8 0.056478 0.123138 0.000000
O O9 0.896983 0.726878 0.737585
O O10 0.000000 0.735283 0.779070
O O11 0.938419 0.743494 0.000000
O O12 0.299075 0.299075 0.250000
O O13 0.311742 0.200569 0.217564
O O14 0.392172 0.257648 0.220070
O O15 0.330217 0.260712 0.000000
O O16 0.138573 0.681705 0.500000
O O17 0.923082 0.500000 0.500000
O O18 0.000000 0.500000 0.672759
O O19 0.500000 0.253712 0.209851
O O20 0.557923 0.222863 0.000000
#
# Coordination Sequence:
#
# PCOD9566688 Si02
#       7
#    16  16  16  16  16   8  16
#     4  11  21  33  51  74  97 123 163 210 255 300
#     4   9  19  35  53  74 100 127 155 192 241 296
#     4   9  19  36  54  72  96 125 160 205 254 300
#     4   9  19  33  49  74 105 138 170 207 255 303
#     4  10  21  36  53  73  98 133 173 206 251 308
#     4  11  23  37  51  67  93 129 165 207 258 305
#     4   9  17  32  54  74  99 135 172 208 251 304
#
# _framework density 16.146383
#
# number of rings (size 3 to 8) (size 9 to 14) (size 15 to 20)
#    0.000    2.385    0.769    3.923    0.000    6.308 
#    0.000    5.385    0.000    0.000    0.000    0.000 
#    0.000    0.308    0.000    3.846    0.000    0.000 
#
# Total GULP energy -579488.036821 kJ/mol
# GULP energy per Si atom -5572.000354 kJ/mol
# Density = 1.610963 g / cm^3
# Si number density = 16.146383 Si / 1000 Ang^3
#
#
#
# Elastic Constant Matrix: (Units=GPa)
#
#
# Indices 1 2 3 4 5 6 
#
# 1 90.2561 66.1509 42.9359 0.0000 0.0000 0.0000
# 2 66.1509 90.2561 42.9359 0.0000 0.0000 0.0000
# 3 42.9359 42.9359 48.9980 0.0000 0.0000 0.0000
# 4 0.0000 0.0000 0.0000 29.7237 0.0000 0.0000
# 5 0.0000 0.0000 0.0000 0.0000 29.7237 0.0000
# 6 0.0000 0.0000 0.0000 0.0000 0.0000 -9.3112
#
#
#
# Elastic Compliance Matrix: (Units=1/GPa)
#
#
# Indices 1 2 3 4 5 6 
#
# 1 0.026903 -0.014582 -0.010797 0.000000 0.000000 0.000000
# 2 -0.014582 0.026903 -0.010797 0.000000 0.000000 0.000000
# 3 -0.010797 -0.010797 0.039331 0.000000 0.000000 0.000000
# 4 0.000000 0.000000 0.000000 0.033643 0.000000 0.000000
# 5 0.000000 0.000000 0.000000 0.000000 0.033643 0.000000
# 6 0.000000 0.000000 0.000000 0.000000 0.000000 -0.107398
#
#
# Mechanical properties :
#
#
# Convention : Reuss Voigt Hill
#
# Bulk Modulus (GPa) = 48.10885 59.28395 53.69640
# Shear Modulus (GPa) = 37.79111 15.19308 26.49210
#
# Velocity S-wave (km/s) = 4.84315 3.07083 4.05501
# Velocity P-wave (km/s) = 7.81888 7.02635 7.43319
#
# Compressibility (1/GPa) = 0.02078620
#
# Stress axis : x y z
#
# Youngs Moduli (GPa) = 37.17037 37.17037 25.42503
#
# Poissons Ratio (x) = 0.54201 0.27451
# Poissons Ratio (y) = 0.54201 0.27451
# Poissons Ratio (z) = 0.40133 0.40133
#
# Static dielectric constant tensor:
#      x y z
#    x 1.418060 0.000000 0.000000 
#    y 0.000000 1.418060 0.000000 
#    z 0.000000 0.000000 1.536270 
# 
# From -- ./inp_files/2566.got.cif
#   From: 2010.05.17/outbox.cif.g08.bks.cpg/sg131_2_cif.got.tgz:2566.got - 2010.05.20 12:21:01.
