data_PCOD9566716
_publ_section_title
;
Structure prediction by ZEFSAII (Michael W. Deem and Ramdas Pophale) SiO2 
 PCOD9566716
Probable space group: P 42/M M C
;
_chemical_formula_sum "Si O2"
_cell_formula_units_Z 96
_cell_length_a 24.813641
_cell_length_b 24.813641
_cell_length_c 8.548939
_cell_angle_alpha 90.000000
_cell_angle_beta 90.000000
_cell_angle_gamma 90.000000
_cell_volume 5263.725191
_symmetry_space_group_name_H-M "P 42/M M C"
_symmetry_group_IT_number 131
_symmetry_cell_setting 'tetragonal'
loop_
_space_group_symop_operation_xyz
x,y,z
-x,-y,z
-y,x,1/2+z
y,-x,1/2+z
-x,y,-z
x,-y,-z
y,x,1/2-z
-y,-x,1/2-z
-x,-y,-z
x,y,-z
y,-x,1/2-z
-y,x,1/2-z
x,-y,z
-x,y,z
-y,-x,1/2+z
y,x,1/2+z
loop_
_atom_site_type_symbol
_atom_site_label
_atom_site_fract_x
_atom_site_fract_y
_atom_site_fract_z
Si Si1 0.440126 0.062140 0.309507
Si Si2 0.937810 0.146949 0.310885
Si Si3 0.765714 0.850182 0.812789
Si Si4 0.765803 0.561052 0.313623
Si Si5 0.561566 0.353827 0.685492
Si Si6 0.644672 0.850568 0.313024
O O1 0.440210 0.063730 0.500000
O O2 0.500000 0.080521 0.258647
O O3 0.391295 0.098985 0.255228
O O4 0.433680 0.000000 0.263304
O O5 0.904749 0.095252 0.250000
O O6 0.937680 0.145360 0.500000
O O7 0.902869 0.199514 0.262459
O O8 0.000000 0.148408 0.258340
O O9 0.798848 0.798848 0.750000
O O10 0.704517 0.850347 0.755159
O O11 0.766108 0.848606 0.000000
O O12 0.773051 0.563808 0.500000
O O13 0.781295 0.500000 0.260961
O O14 0.703337 0.568001 0.270504
O O15 0.799751 0.608071 0.233822
O O16 0.603311 0.396690 0.750000
O O17 0.568979 0.345919 0.500000
O O18 0.500000 0.372069 0.711923
O O19 0.649022 0.853106 0.500000
#
# Coordination Sequence:
#
# PCOD9566716 Si02
#       6
#    16  16  16  16  16  16
#     4   8  15  29  49  75 108 142 174 211 254 300
#     4   9  19  36  57  81 110 144 179 218 266 316
#     4  10  21  38  56  75 104 140 178 220 265 314
#     4  10  21  37  56  78 106 139 176 220 269 319
#     4  10  21  37  57  81 109 140 175 216 263 316
#     4  11  21  33  54  82 108 138 179 222 265 317
#
# _framework density 18.238033999999999
#
# number of rings (size 3 to 8) (size 9 to 14) (size 15 to 20)
#    0.000    2.333    0.000    3.000    0.000    5.333 
#    0.000    5.000    0.000    1.500    0.000    5.833 
#    0.000    0.000    0.000    0.000    0.000    0.000 
#
# Total GULP energy -535685.476582 kJ/mol
# GULP energy per Si atom -5580.057048 kJ/mol
# Density = 1.819652 g / cm^3
# Si number density = 18.238034 Si / 1000 Ang^3
#
#
#
# Elastic Constant Matrix: (Units=GPa)
#
#
# Indices 1 2 3 4 5 6 
#
# 1 154.9213 95.8793 29.4373 0.0000 0.0000 0.0000
# 2 95.8793 154.9202 29.4396 0.0000 0.0000 0.0000
# 3 29.4373 29.4396 32.5032 0.0000 0.0000 0.0000
# 4 0.0000 0.0000 0.0000 21.6154 0.0000 0.0000
# 5 0.0000 0.0000 0.0000 0.0000 21.6146 0.0000
# 6 0.0000 0.0000 0.0000 0.0000 0.0000 35.3450
#
#
#
# Elastic Compliance Matrix: (Units=1/GPa)
#
#
# Indices 1 2 3 4 5 6 
#
# 1 0.011000 -0.005937 -0.004586 0.000000 0.000000 0.000000
# 2 -0.005937 0.011001 -0.004587 0.000000 0.000000 0.000000
# 3 -0.004586 -0.004587 0.039074 0.000000 0.000000 0.000000
# 4 0.000000 0.000000 0.000000 0.046263 0.000000 0.000000
# 5 0.000000 0.000000 0.000000 0.000000 0.046265 0.000000
# 6 0.000000 0.000000 0.000000 0.000000 0.000000 0.028293
#
#
# Mechanical properties :
#
#
# Convention : Reuss Voigt Hill
#
# Bulk Modulus (GPa) = 32.40833 72.42858 52.41846
# Shear Modulus (GPa) = 22.48192 28.22090 25.35141
#
# Velocity S-wave (km/s) = 3.51478 3.93792 3.73235
# Velocity P-wave (km/s) = 5.85490 7.77660 6.88314
#
# Compressibility (1/GPa) = 0.03085626
#
# Stress axis : x y z
#
# Youngs Moduli (GPa) = 90.90599 90.90220 25.59232
#
# Poissons Ratio (x) = 0.53966 0.11736
# Poissons Ratio (y) = 0.53968 0.11740
# Poissons Ratio (z) = 0.41686 0.41699
#
# Static dielectric constant tensor:
#      x y z
#    x 1.615430 0.000000 0.000000 
#    y 0.000000 1.615430 0.000000 
#    z 0.000000 0.000000 1.626750 
# 
# From -- ./inp_files/2224.got.cif
#   From: 2010.05.17/outbox.cif.g08.bks.cpg/sg131_2_cif.got.tgz:2224.got - 2010.05.20 12:21:01.
