data_PCOD9566954
_publ_section_title
;
Structure prediction by ZEFSAII (Michael W. Deem and Ramdas Pophale) SiO2 
 PCOD9566954
Probable space group: P 42/M C M
;
_chemical_formula_sum "Si O2"
_cell_formula_units_Z 128
_cell_length_a 17.886551
_cell_length_b 17.886551
_cell_length_c 27.047253
_cell_angle_alpha 90.000000
_cell_angle_beta 90.000000
_cell_angle_gamma 90.000000
_cell_volume 8653.192671
_symmetry_space_group_name_H-M "P 42/M C M"
_symmetry_group_IT_number 132
_symmetry_cell_setting 'tetragonal'
loop_
_space_group_symop_operation_xyz
x,y,z
-y,x,1/2+z
-x,-y,z
y,-x,1/2+z
x,-y,1/2-z
-x,y,1/2-z
y,x,-z
-y,-x,-z
-x,-y,-z
y,-x,1/2-z
x,y,-z
-y,x,1/2-z
-x,y,1/2+z
x,-y,1/2+z
-y,-x,z
y,x,z
loop_
_atom_site_type_symbol
_atom_site_label
_atom_site_fract_x
_atom_site_fract_y
_atom_site_fract_z
Si Si1 0.522899 0.771708 0.556362
Si Si2 0.621401 0.501973 0.114504
Si Si3 0.304125 0.178193 0.444718
Si Si4 0.867772 0.493489 0.352964
Si Si5 0.548491 0.277763 0.294490
Si Si6 0.808829 0.690371 0.246677
Si Si7 0.959016 0.367992 0.700020
Si Si8 0.896193 0.332899 0.845868
O O1 0.497408 0.778707 0.500000
O O2 0.514907 0.687715 0.576428
O O3 0.610935 0.791662 0.558412
O O4 0.481475 0.828614 0.593808
O O5 0.572603 0.427398 0.126775
O O6 0.562291 0.562291 0.094860
O O7 0.663483 0.539872 0.161252
O O8 0.294671 0.145180 0.500000
O O9 0.246511 0.246511 0.440311
O O10 0.295755 0.124246 0.397802
O O11 0.799266 0.488715 0.314163
O O12 0.928354 0.433596 0.335237
O O13 0.897966 0.577288 0.352450
O O14 0.500000 0.309027 0.250000
O O15 0.627699 0.249850 0.272911
O O16 0.769439 0.769439 0.239126
O O17 0.885405 0.676268 0.217174
O O18 0.833202 0.681906 0.304121
O O19 0.000000 0.398121 0.750000
O O20 0.021327 0.316284 0.674521
#
# Coordination Sequence:
#
# PCOD9566954 Si02
#       8
#    16  16  16  16  16  16  16  16
#     4   9  18  32  47  60  79 109 150 193 234 276
#     4  10  21  32  41  57  80 109 151 202 249 284
#     4   9  17  29  45  64  87 113 140 177 224 270
#     4   9  17  29  44  65  88 111 145 182 222 266
#     4  10  18  31  43  61  84 114 150 185 228 276
#     4  10  19  29  44  65  89 120 152 182 214 258
#     4   9  19  29  45  65  93 121 147 178 217 261
#     4  10  17  28  44  67  89 115 148 181 215 265
#
# _framework density 14.792228
#
# number of rings (size 3 to 8) (size 9 to 14) (size 15 to 20)
#    0.000    2.500    1.250    1.500    0.000    3.500 
#    0.000    1.875    0.000    3.000    0.000    0.000 
#    0.000   31.250    0.000    1.375    0.000    0.000 
#
# Total GULP energy -712588.109287 kJ/mol
# GULP energy per Si atom -5567.094604 kJ/mol
# Density = 1.475856 g / cm^3
# Si number density = 14.792228 Si / 1000 Ang^3
#
#
#
# Elastic Constant Matrix: (Units=GPa)
#
#
# Indices 1 2 3 4 5 6 
#
# 1 60.2193 28.9457 32.6602 0.0000 0.0000 0.0000
# 2 28.9457 60.2193 32.6602 0.0000 0.0000 0.0000
# 3 32.6602 32.6602 105.2548 0.0000 0.0000 0.0000
# 4 0.0000 0.0000 0.0000 7.3630 0.0000 0.0000
# 5 0.0000 0.0000 0.0000 0.0000 7.3630 0.0000
# 6 0.0000 0.0000 0.0000 0.0000 0.0000 12.7227
#
#
#
# Elastic Compliance Matrix: (Units=1/GPa)
#
#
# Indices 1 2 3 4 5 6 
#
# 1 0.023245 -0.008731 -0.004504 0.000000 0.000000 0.000000
# 2 -0.008731 0.023245 -0.004504 0.000000 0.000000 0.000000
# 3 -0.004504 -0.004504 0.012296 0.000000 0.000000 0.000000
# 4 0.000000 0.000000 0.000000 0.135814 0.000000 0.000000
# 5 0.000000 0.000000 0.000000 0.000000 0.135814 0.000000
# 6 0.000000 0.000000 0.000000 0.000000 0.000000 0.078600
#
#
# Mechanical properties :
#
#
# Convention : Reuss Voigt Hill
#
# Bulk Modulus (GPa) = 42.90069 46.02506 44.46287
# Shear Modulus (GPa) = 11.05556 14.25155 12.65355
#
# Velocity S-wave (km/s) = 2.73681 3.10731 2.92793
# Velocity P-wave (km/s) = 6.24916 6.63745 6.44623
#
# Compressibility (1/GPa) = 0.02330965
#
# Stress axis : x y z
#
# Youngs Moduli (GPa) = 43.01956 43.01956 81.32865
#
# Poissons Ratio (x) = 0.37559 0.36629
# Poissons Ratio (y) = 0.37559 0.36629
# Poissons Ratio (z) = 0.19375 0.19375
#
# Static dielectric constant tensor:
#      x y z
#    x 1.485780 0.000000 0.000000 
#    y 0.000000 1.485780 0.000000 
#    z 0.000000 0.000000 1.525480 
# 
# From -- ./inp_files/9337.got.cif
#   From: 2010.05.17/outbox.cif.g08.bks.cpg/sg132_5_cif.got.tgz:9337.got - 2010.05.20 12:30:18.
