data_PCOD9566942
_publ_section_title
;
Structure prediction by ZEFSAII (Michael W. Deem and Ramdas Pophale) SiO2 
 PCOD9566942
Probable space group: P 42/M C M
;
_chemical_formula_sum "Si O2"
_cell_formula_units_Z 96
_cell_length_a 30.401799
_cell_length_b 30.401799
_cell_length_c 8.562650
_cell_angle_alpha 90.000000
_cell_angle_beta 90.000000
_cell_angle_gamma 90.000000
_cell_volume 7914.195228
_symmetry_space_group_name_H-M "P 42/M C M"
_symmetry_group_IT_number 132
_symmetry_cell_setting 'tetragonal'
loop_
_space_group_symop_operation_xyz
x,y,z
-y,x,1/2+z
-x,-y,z
y,-x,1/2+z
x,-y,1/2-z
-x,y,1/2-z
y,x,-z
-y,-x,-z
-x,-y,-z
y,-x,1/2-z
x,y,-z
-y,x,1/2-z
-x,y,1/2+z
x,-y,1/2+z
-y,-x,z
y,x,z
loop_
_atom_site_type_symbol
_atom_site_label
_atom_site_fract_x
_atom_site_fract_y
_atom_site_fract_z
Si Si1 0.548588 0.195250 0.314446
Si Si2 0.679248 0.320753 0.314602
Si Si3 0.547270 0.950303 0.813265
Si Si4 0.255737 0.614902 0.814118
Si Si5 0.245753 0.754248 0.686349
Si Si6 0.317290 0.818275 0.311306
Si Si7 0.879790 0.386959 0.185612
O O1 0.500000 0.191163 0.250000
O O2 0.550456 0.189145 0.500000
O O3 0.569548 0.241868 0.265792
O O4 0.578828 0.158535 0.233249
O O5 0.674704 0.325296 0.500000
O O6 0.635314 0.301811 0.238368
O O7 0.716855 0.283146 0.287848
O O8 0.500000 0.932431 0.750000
O O9 0.589348 0.922637 0.756207
O O10 0.550581 0.000000 0.750000
O O11 0.545336 0.950095 0.000000
O O12 0.219199 0.649340 0.750260
O O13 0.252402 0.611986 0.000000
O O14 0.240710 0.759291 0.500000
O O15 0.200228 0.730918 0.740987
O O16 0.318376 0.818593 0.500000
O O17 0.339502 0.863362 0.250648
O O18 0.883557 0.384141 0.000000
#
# Coordination Sequence:
#
# PCOD9566942 Si02
#       7
#    16   8  16  16   8  16  16
#     4  11  20  30  40  52  69  90 112 137 165 196
#     4   9  15  25  37  49  65  87 109 132 156 181
#     4  11  21  34  47  59  71  87 110 142 182 225
#     4  10  17  25  36  52  68  85 108 134 159 187
#     4   7  12  21  35  51  69  89 111 133 158 188
#     4   9  15  25  38  53  71  93 114 136 164 197
#     4  11  20  30  41  56  73  91 114 142 172 207
#
# _framework density 12.130102000000001
#
# number of rings (size 3 to 8) (size 9 to 14) (size 15 to 20)
#    0.000    2.000    0.000   10.750    0.000    0.000 
#    0.000    1.250    0.000    0.000    0.000    0.000 
#    0.000    0.000    0.000    0.000    0.000    0.417 
#
# Total GULP energy -534445.939551 kJ/mol
# GULP energy per Si atom -5567.145204 kJ/mol
# Density = 1.210249 g / cm^3
# Si number density = 12.130102 Si / 1000 Ang^3
#
#
#
# Elastic Constant Matrix: (Units=GPa)
#
#
# Indices 1 2 3 4 5 6 
#
# 1 36.4311 28.1499 14.1964 0.0000 0.0000 0.0000
# 2 28.1499 36.4302 14.1966 0.0000 0.0000 0.0000
# 3 14.1964 14.1966 86.7488 0.0000 0.0000 0.0000
# 4 0.0000 0.0000 0.0000 20.4408 0.0000 0.0000
# 5 0.0000 0.0000 0.0000 0.0000 20.4412 0.0000
# 6 0.0000 0.0000 0.0000 0.0000 0.0000 21.0239
#
#
#
# Elastic Compliance Matrix: (Units=1/GPa)
#
#
# Indices 1 2 3 4 5 6 
#
# 1 0.068723 -0.052039 -0.002730 0.000000 0.000000 0.000000
# 2 -0.052039 0.068724 -0.002731 0.000000 0.000000 0.000000
# 3 -0.002730 -0.002731 0.012421 0.000000 0.000000 0.000000
# 4 0.000000 0.000000 0.000000 0.048922 0.000000 0.000000
# 5 0.000000 0.000000 0.000000 0.000000 0.048921 0.000000
# 6 0.000000 0.000000 0.000000 0.000000 0.000000 0.047565
#
#
# Mechanical properties :
#
#
# Convention : Reuss Voigt Hill
#
# Bulk Modulus (GPa) = 28.67862 30.29955 29.48908
# Shear Modulus (GPa) = 11.85121 19.25233 15.55177
#
# Velocity S-wave (km/s) = 3.12910 3.98823 3.58450
# Velocity P-wave (km/s) = 6.06209 6.80007 6.44166
#
# Compressibility (1/GPa) = 0.03486919
#
# Stress axis : x y z
#
# Youngs Moduli (GPa) = 14.55126 14.55086 80.50725
#
# Poissons Ratio (x) = 0.75721 0.21980
# Poissons Ratio (y) = 0.75723 0.21985
# Poissons Ratio (z) = 0.03973 0.03974
#
# Static dielectric constant tensor:
#      x y z
#    x 1.418390 0.000000 0.000000 
#    y 0.000000 1.418390 0.000000 
#    z 0.000000 0.000000 1.401610 
# 
# From -- ./inp_files/2136.got.cif
#   From: 2010.05.17/outbox.cif.g08.bks.cpg/sg132_2_cif.got.tgz:2136.got - 2010.05.20 12:30:18.
