data_PCOD9566975
_publ_section_title
;
Structure prediction by ZEFSAII (Michael W. Deem and Ramdas Pophale) SiO2 
 PCOD9566975
Probable space group: P 42/M C M
;
_chemical_formula_sum "Si O2"
_cell_formula_units_Z 96
_cell_length_a 20.512136
_cell_length_b 20.512136
_cell_length_c 13.992969
_cell_angle_alpha 90.000000
_cell_angle_beta 90.000000
_cell_angle_gamma 90.000000
_cell_volume 5887.509849
_symmetry_space_group_name_H-M "P 42/M C M"
_symmetry_group_IT_number 132
_symmetry_cell_setting 'tetragonal'
loop_
_space_group_symop_operation_xyz
x,y,z
-y,x,1/2+z
-x,-y,z
y,-x,1/2+z
x,-y,1/2-z
-x,y,1/2-z
y,x,-z
-y,-x,-z
-x,-y,-z
y,-x,1/2-z
x,y,-z
-y,x,1/2-z
-x,y,1/2+z
x,-y,1/2+z
-y,-x,z
y,x,z
loop_
_atom_site_type_symbol
_atom_site_label
_atom_site_fract_x
_atom_site_fract_y
_atom_site_fract_z
Si Si1 0.862499 0.546839 0.608038
Si Si2 0.103727 0.001805 0.115831
Si Si3 0.161689 0.266848 0.115127
Si Si4 0.406662 0.142298 0.812135
Si Si5 0.753170 0.987692 0.884869
Si Si6 0.000214 0.609869 0.611783
O O1 0.843748 0.566156 0.500000
O O2 0.843004 0.472361 0.629023
O O3 0.838576 0.585437 0.701363
O O4 0.940956 0.559259 0.613995
O O5 0.072187 0.072187 0.140389
O O6 0.176909 0.986874 0.147736
O O7 0.103969 0.000399 0.000000
O O8 0.052917 0.947084 0.147759
O O9 0.214995 0.214995 0.149872
O O10 0.172521 0.341130 0.146285
O O11 0.087841 0.250597 0.146079
O O12 0.161717 0.264283 0.000000
O O13 0.403333 0.063331 0.824398
O O14 0.684125 0.021664 0.862442
O O15 0.755817 0.988109 0.000000
O O16 0.023032 0.611457 0.500000
#
# Coordination Sequence:
#
# PCOD9566975 Si02
#       6
#    16  16  16  16  16  16
#     4  10  19  29  42  61  86 114 142 172 209 256
#     4   8  12  17  27  45  69  97 130 171 221 273
#     4   9  16  26  42  63  85 109 140 180 222 260
#     4  10  18  28  43  62  85 112 141 175 214 254
#     4   8  13  21  33  51  76 104 134 172 219 267
#     4   9  16  25  38  57  81 109 140 174 215 263
#
# _framework density 16.305705
#
# number of rings (size 3 to 8) (size 9 to 14) (size 15 to 20)
#    0.000    3.000    0.000    4.500    0.000    4.667 
#    0.000    0.000    0.000    1.500    0.000    2.333 
#    0.000    0.000    0.000   26.333    0.000   70.833 
#
# Total GULP energy -534620.670975 kJ/mol
# GULP energy per Si atom -5568.965323 kJ/mol
# Density = 1.626859 g / cm^3
# Si number density = 16.305705 Si / 1000 Ang^3
#
#
#
# Elastic Constant Matrix: (Units=GPa)
#
#
# Indices 1 2 3 4 5 6 
#
# 1 50.3048 10.3912 0.7232 0.0000 0.0000 0.0000
# 2 10.3912 50.3048 0.7232 0.0000 0.0000 0.0000
# 3 0.7232 0.7232 82.3477 0.0000 0.0000 0.0000
# 4 0.0000 0.0000 0.0000 4.4566 0.0000 0.0000
# 5 0.0000 0.0000 0.0000 0.0000 4.4566 0.0000
# 6 0.0000 0.0000 0.0000 0.0000 0.0000 14.7175
#
#
#
# Elastic Compliance Matrix: (Units=1/GPa)
#
#
# Indices 1 2 3 4 5 6 
#
# 1 0.020767 -0.004288 -0.000145 0.000000 0.000000 0.000000
# 2 -0.004288 0.020767 -0.000145 0.000000 0.000000 0.000000
# 3 -0.000145 -0.000145 0.012146 0.000000 0.000000 0.000000
# 4 0.000000 0.000000 0.000000 0.224388 0.000000 0.000000
# 5 0.000000 0.000000 0.000000 0.000000 0.224388 0.000000
# 6 0.000000 0.000000 0.000000 0.000000 0.000000 0.067947
#
#
# Mechanical properties :
#
#
# Convention : Reuss Voigt Hill
#
# Bulk Modulus (GPa) = 22.45913 22.95914 22.70914
# Shear Modulus (GPa) = 8.41189 16.13410 12.27300
#
# Velocity S-wave (km/s) = 2.27378 3.14901 2.74648
# Velocity P-wave (km/s) = 4.54941 5.22806 4.90050
#
# Compressibility (1/GPa) = 0.04452532
#
# Stress axis : x y z
#
# Youngs Moduli (GPa) = 48.15432 48.15432 82.33047
#
# Poissons Ratio (x) = 0.20646 0.01191
# Poissons Ratio (y) = 0.20646 0.01191
# Poissons Ratio (z) = 0.00697 0.00697
#
# Static dielectric constant tensor:
#      x y z
#    x 1.814030 0.000000 0.000000 
#    y 0.000000 1.814030 0.000000 
#    z 0.000000 0.000000 1.637660 
# 
# From -- ./inp_files/4951.got.cif
#   From: 2010.05.17/outbox.cif.g08.bks.cpg/sg132_3_cif.got.tgz:4951.got - 2010.05.20 12:30:18.
