data_PCOD9566083
_publ_section_title
;
Structure prediction by ZEFSAII (Michael W. Deem and Ramdas Pophale) SiO2 
 PCOD9566083
Probable space group: P 42/M M C
;
_chemical_formula_sum "Si O2"
_cell_formula_units_Z 88
_cell_length_a 18.524097
_cell_length_b 18.524097
_cell_length_c 15.796629
_cell_angle_alpha 90.000000
_cell_angle_beta 90.000000
_cell_angle_gamma 90.000000
_cell_volume 5420.489548
_symmetry_space_group_name_H-M "P 42/M M C"
_symmetry_group_IT_number 131
_symmetry_cell_setting 'tetragonal'
loop_
_space_group_symop_operation_xyz
x,y,z
-x,-y,z
-y,x,1/2+z
y,-x,1/2+z
-x,y,-z
x,-y,-z
y,x,1/2-z
-y,-x,1/2-z
-x,-y,-z
x,y,-z
y,-x,1/2-z
-y,x,1/2-z
x,-y,z
-x,y,z
-y,-x,1/2+z
y,x,1/2+z
loop_
_atom_site_type_symbol
_atom_site_label
_atom_site_fract_x
_atom_site_fract_y
_atom_site_fract_z
Si Si1 0.087260 0.500000 0.093715
Si Si2 0.301867 0.583271 0.765930
Si Si3 0.774308 0.689398 0.099554
Si Si4 0.230133 0.369900 0.407900
Si Si5 0.916730 0.653416 0.826980
Si Si6 0.585017 0.919910 0.853987
O O1 0.105532 0.574864 0.136712
O O2 0.000000 0.500000 0.091198
O O3 0.117345 0.500000 0.000000
O O4 0.378735 0.621266 0.750000
O O5 0.305983 0.500000 0.789121
O O6 0.261149 0.628844 0.838971
O O7 0.261454 0.592215 0.675726
O O8 0.715471 0.753871 0.103482
O O9 0.853829 0.704504 0.137674
O O10 0.780575 0.669036 0.000000
O O11 0.262921 0.389854 0.500000
O O12 0.146978 0.391758 0.409455
O O13 0.916487 0.637550 0.727365
O O14 0.000000 0.669885 0.852345
O O15 0.500000 0.912319 0.828514
O O16 0.591356 0.000000 0.891466
#
# Coordination Sequence:
#
# PCOD9566083 Si02
#       6
#     8  16  16  16  16  16
#     4   9  16  24  36  60  93 125 152 180 224 281
#     4  10  21  36  52  70  92 120 158 204 250 293
#     4  10  21  34  50  72  98 129 162 198 240 291
#     4  10  21  36  51  69  95 129 167 203 240 284
#     4  10  18  29  45  69  99 127 156 191 233 286
#     4  10  19  31  49  73  99 126 160 201 242 287
#
# _framework density 16.234696
#
# number of rings (size 3 to 8) (size 9 to 14) (size 15 to 20)
#    0.000    2.091    2.727    1.091    1.273    3.455 
#    0.000    0.909    0.000    0.000    0.000    5.091 
#    0.000    0.727    0.000    8.000    0.000    5.818 
#
# Total GULP energy -489958.428695 kJ/mol
# GULP energy per Si atom -5567.709417 kJ/mol
# Density = 1.619775 g / cm^3
# Si number density = 16.234696 Si / 1000 Ang^3
#
#
#
# Elastic Constant Matrix: (Units=GPa)
#
#
# Indices 1 2 3 4 5 6 
#
# 1 70.7034 30.1301 15.4894 0.0000 0.0000 0.0000
# 2 30.1301 70.7073 15.4909 0.0000 0.0000 0.0000
# 3 15.4894 15.4909 75.5796 0.0000 0.0000 0.0000
# 4 0.0000 0.0000 0.0000 11.6660 0.0000 0.0000
# 5 0.0000 0.0000 0.0000 0.0000 11.6664 0.0000
# 6 0.0000 0.0000 0.0000 0.0000 0.0000 19.6826
#
#
#
# Elastic Compliance Matrix: (Units=1/GPa)
#
#
# Indices 1 2 3 4 5 6 
#
# 1 0.017615 -0.007031 -0.002169 0.000000 0.000000 0.000000
# 2 -0.007031 0.017614 -0.002169 0.000000 0.000000 0.000000
# 3 -0.002169 -0.002169 0.014120 0.000000 0.000000 0.000000
# 4 0.000000 0.000000 0.000000 0.085719 0.000000 0.000000
# 5 0.000000 0.000000 0.000000 0.000000 0.085716 0.000000
# 6 0.000000 0.000000 0.000000 0.000000 0.000000 0.050806
#
#
# Mechanical properties :
#
#
# Convention : Reuss Voigt Hill
#
# Bulk Modulus (GPa) = 37.57858 37.69010 37.63434
# Shear Modulus (GPa) = 16.49076 18.99499 17.74288
#
# Velocity S-wave (km/s) = 3.19058 3.42427 3.30949
# Velocity P-wave (km/s) = 6.06386 6.23702 6.15105
#
# Compressibility (1/GPa) = 0.02661090
#
# Stress axis : x y z
#
# Youngs Moduli (GPa) = 56.76981 56.77252 70.82048
#
# Poissons Ratio (x) = 0.39917 0.15361
# Poissons Ratio (y) = 0.39915 0.15363
# Poissons Ratio (z) = 0.12313 0.12315
#
# Static dielectric constant tensor:
#      x y z
#    x 1.557990 0.000000 0.000000 
#    y 0.000000 1.557990 0.000000 
#    z 0.000000 0.000000 1.592170 
# 
# From -- ./inp_files/5849.got.cif
#   From: 2010.05.17/outbox.cif.g08.bks.cpg/sg131_3_cif.got.tgz:5849.got - 2010.05.20 12:21:01.
