data_PCOD9566445
_publ_section_title
;
Structure prediction by ZEFSAII (Michael W. Deem and Ramdas Pophale) SiO2 
 PCOD9566445
Probable space group: P 42/M M C
;
_chemical_formula_sum "Si O2"
_cell_formula_units_Z 96
_cell_length_a 24.062762
_cell_length_b 24.062762
_cell_length_c 9.770418
_cell_angle_alpha 90.000000
_cell_angle_beta 90.000000
_cell_angle_gamma 90.000000
_cell_volume 5657.233381
_symmetry_space_group_name_H-M "P 42/M M C"
_symmetry_group_IT_number 131
_symmetry_cell_setting 'tetragonal'
loop_
_space_group_symop_operation_xyz
x,y,z
-x,-y,z
-y,x,1/2+z
y,-x,1/2+z
-x,y,-z
x,-y,-z
y,x,1/2-z
-y,-x,1/2-z
-x,-y,-z
x,y,-z
y,-x,1/2-z
-y,x,1/2-z
x,-y,z
-x,y,z
-y,-x,1/2+z
y,x,1/2+z
loop_
_atom_site_type_symbol
_atom_site_label
_atom_site_fract_x
_atom_site_fract_y
_atom_site_fract_z
Si Si1 0.870620 0.566337 0.660175
Si Si2 0.122008 0.122008 0.250000
Si Si3 0.566978 0.641002 0.341833
Si Si4 0.741251 0.432667 0.653346
Si Si5 0.065964 0.765319 0.663674
Si Si6 0.065726 0.936725 0.000000
Si Si7 0.345143 0.066481 0.659243
O O1 0.885162 0.576807 0.500000
O O2 0.876663 0.500000 0.683199
O O3 0.805504 0.581416 0.677493
O O4 0.905822 0.603011 0.763856
O O5 0.185133 0.105501 0.215744
O O6 0.098539 0.086363 0.373959
O O7 0.592375 0.592375 0.250000
O O8 0.584281 0.637628 0.500000
O O9 0.500000 0.638836 0.338276
O O10 0.585563 0.698290 0.268905
O O11 0.725219 0.413723 0.500000
O O12 0.739369 0.500000 0.651150
O O13 0.073536 0.757005 0.500000
O O14 0.077999 0.710077 0.751272
O O15 0.000000 0.779367 0.684204
O O16 0.000000 0.941048 0.000000
O O17 0.088859 0.000000 0.000000
O O18 0.339875 0.084090 0.500000
O O19 0.352415 0.000000 0.659897
#
# Coordination Sequence:
#
# PCOD9566445 Si02
#       7
#    16   8  16  16  16   8  16
#     4   9  18  34  58  86 113 143 176 213 265 323
#     4  12  22  35  56  80 106 142 186 226 274 332
#     4  10  20  32  48  72 102 137 178 218 262 311
#     4   8  15  30  52  76 102 133 170 211 255 308
#     4  10  21  38  57  77 104 143 188 227 269 325
#     4  11  22  34  50  78 114 142 172 224 284 334
#     4  10  22  37  55  81 112 146 182 222 266 315
#
# _framework density 16.969425000000001
#
# number of rings (size 3 to 8) (size 9 to 14) (size 15 to 20)
#    0.000    2.250    0.833    3.500    1.167    4.167 
#    0.000    4.167    1.833    0.000    0.000    0.000 
#    0.000    0.000    0.000    0.000    0.000    0.000 
#
# Total GULP energy -535125.823467 kJ/mol
# GULP energy per Si atom -5574.227328 kJ/mol
# Density = 1.693080 g / cm^3
# Si number density = 16.969425 Si / 1000 Ang^3
#
#
#
# Elastic Constant Matrix: (Units=GPa)
#
#
# Indices 1 2 3 4 5 6 
#
# 1 67.1274 42.2537 65.4600 0.0000 0.0000 0.0000
# 2 42.2537 67.1274 65.4600 0.0000 0.0000 0.0000
# 3 65.4600 65.4600 167.6678 0.0000 0.0000 0.0000
# 4 0.0000 0.0000 0.0000 30.8440 0.0000 0.0000
# 5 0.0000 0.0000 0.0000 0.0000 30.8440 0.0000
# 6 0.0000 0.0000 0.0000 0.0000 0.0000 6.5484
#
#
#
# Elastic Compliance Matrix: (Units=1/GPa)
#
#
# Indices 1 2 3 4 5 6 
#
# 1 0.028683 -0.011520 -0.006700 0.000000 0.000000 0.000000
# 2 -0.011520 0.028683 -0.006700 0.000000 0.000000 0.000000
# 3 -0.006700 -0.006700 0.011196 0.000000 0.000000 0.000000
# 4 0.000000 0.000000 0.000000 0.032421 0.000000 0.000000
# 5 0.000000 0.000000 0.000000 0.000000 0.032421 0.000000
# 6 0.000000 0.000000 0.000000 0.000000 0.000000 0.152709
#
#
# Mechanical properties :
#
#
# Convention : Reuss Voigt Hill
#
# Bulk Modulus (GPa) = 53.42211 72.03001 62.72606
# Shear Modulus (GPa) = 14.61156 22.23053 18.42105
#
# Velocity S-wave (km/s) = 2.93755 3.62337 3.29833
# Velocity P-wave (km/s) = 6.56166 7.74881 7.17981
#
# Compressibility (1/GPa) = 0.01871884
#
# Stress axis : x y z
#
# Youngs Moduli (GPa) = 34.86433 34.86433 89.31754
#
# Poissons Ratio (x) = 0.40165 0.59846
# Poissons Ratio (y) = 0.40165 0.59846
# Poissons Ratio (z) = 0.23360 0.23360
#
# Static dielectric constant tensor:
#      x y z
#    x 1.568120 0.000000 0.000000 
#    y 0.000000 1.568120 0.000000 
#    z 0.000000 0.000000 1.562540 
# 
# From -- ./inp_files/2356.got.cif
#   From: 2010.05.17/outbox.cif.g08.bks.cpg/sg131_2_cif.got.tgz:2356.got - 2010.05.20 12:21:01.
