data_PCOD9566371
_publ_section_title
;
Structure prediction by ZEFSAII (Michael W. Deem and Ramdas Pophale) SiO2 
 PCOD9566371
Probable space group: P 42/M M C
;
_chemical_formula_sum "Si O2"
_cell_formula_units_Z 72
_cell_length_a 11.984923
_cell_length_b 11.984923
_cell_length_c 30.545983
_cell_angle_alpha 90.000000
_cell_angle_beta 90.000000
_cell_angle_gamma 90.000000
_cell_volume 4387.575493
_symmetry_space_group_name_H-M "P 42/M M C"
_symmetry_group_IT_number 131
_symmetry_cell_setting 'tetragonal'
loop_
_space_group_symop_operation_xyz
x,y,z
-x,-y,z
-y,x,1/2+z
y,-x,1/2+z
-x,y,-z
x,-y,-z
y,x,1/2-z
-y,-x,1/2-z
-x,-y,-z
x,y,-z
y,-x,1/2-z
-y,x,1/2-z
x,-y,z
-x,y,z
-y,-x,1/2+z
y,x,1/2+z
loop_
_atom_site_type_symbol
_atom_site_label
_atom_site_fract_x
_atom_site_fract_y
_atom_site_fract_z
Si Si1 0.761004 0.222298 0.949086
Si Si2 0.242235 0.366298 0.710926
Si Si3 0.128233 0.000000 0.553139
Si Si4 0.632260 0.369527 0.619156
Si Si5 0.365934 0.000000 0.076518
Si Si6 0.000000 0.634903 0.320384
O O1 0.706683 0.314117 0.918023
O O2 0.687403 0.110025 0.944386
O O3 0.886248 0.190118 0.934477
O O4 0.763094 0.256070 0.000000
O O5 0.300979 0.300979 0.750000
O O6 0.244794 0.500000 0.719595
O O7 0.308291 0.347940 0.665530
O O8 0.114451 0.330108 0.702700
O O9 0.123376 0.000000 0.500000
O O10 0.000000 0.000000 0.568836
O O11 0.653984 0.500000 0.608357
O O12 0.500000 0.353851 0.622989
O O13 0.500000 0.000000 0.072417
O O14 0.335582 0.000000 0.128219
O O15 0.000000 0.500000 0.319823
#
# Coordination Sequence:
#
# PCOD9566371 Si02
#       6
#    16  16   8  16   8   8
#     4  11  21  34  54  79 110 147 188 229 270 321
#     4  10  19  34  57  81 106 138 178 221 268 326
#     4   9  18  34  52  73 101 139 185 229 268 309
#     4  10  21  36  54  80 113 145 179 223 276 331
#     4  11  19  31  53  83 113 141 176 223 278 329
#     4   9  18  33  54  80 111 142 170 216 276 318
#
# _framework density 16.409973999999998
#
# number of rings (size 3 to 8) (size 9 to 14) (size 15 to 20)
#    0.000    1.889    3.333    1.667    0.000    3.778 
#    0.000    2.778    0.000    2.333    0.000    0.000 
#    0.000    0.000    0.000    0.000    0.000    0.000 
#
# Total GULP energy -401781.711023 kJ/mol
# GULP energy per Si atom -5580.301542 kJ/mol
# Density = 1.637262 g / cm^3
# Si number density = 16.409974 Si / 1000 Ang^3
#
#
#
# Elastic Constant Matrix: (Units=GPa)
#
#
# Indices 1 2 3 4 5 6 
#
# 1 107.4045 62.2732 61.8627 0.0000 0.0000 0.0000
# 2 62.2732 107.4045 61.8627 0.0000 0.0000 0.0000
# 3 61.8627 61.8627 100.1480 0.0000 0.0000 0.0000
# 4 0.0000 0.0000 0.0000 70.1330 0.0000 0.0000
# 5 0.0000 0.0000 0.0000 0.0000 70.1330 0.0000
# 6 0.0000 0.0000 0.0000 0.0000 0.0000 26.9339
#
#
#
# Elastic Compliance Matrix: (Units=1/GPa)
#
#
# Indices 1 2 3 4 5 6 
#
# 1 0.016441 -0.005717 -0.006624 0.000000 0.000000 0.000000
# 2 -0.005717 0.016441 -0.006624 0.000000 0.000000 0.000000
# 3 -0.006624 -0.006624 0.018169 0.000000 0.000000 0.000000
# 4 0.000000 0.000000 0.000000 0.014259 0.000000 0.000000
# 5 0.000000 0.000000 0.000000 0.000000 0.014259 0.000000
# 6 0.000000 0.000000 0.000000 0.000000 0.000000 0.037128
#
#
# Mechanical properties :
#
#
# Convention : Reuss Voigt Hill
#
# Bulk Modulus (GPa) = 76.22164 76.32825 76.27494
# Shear Modulus (GPa) = 31.44667 42.03720 36.74194
#
# Velocity S-wave (km/s) = 4.38232 5.06680 4.73694
# Velocity P-wave (km/s) = 8.49444 8.99134 8.74642
#
# Compressibility (1/GPa) = 0.01311963
#
# Stress axis : x y z
#
# Youngs Moduli (GPa) = 60.82477 60.82477 55.03899
#
# Poissons Ratio (x) = 0.34773 0.36459
# Poissons Ratio (y) = 0.34773 0.36459
# Poissons Ratio (z) = 0.40292 0.40292
#
# Static dielectric constant tensor:
#      x y z
#    x 1.545450 0.000000 0.000000 
#    y 0.000000 1.545450 0.000000 
#    z 0.000000 0.000000 1.530090 
# 
# From -- ./inp_files/12189.got.cif
#   From: 2010.05.17/outbox.cif.g08.bks.cpg/sg131_7_cif.got.tgz:12189.got - 2010.05.20 12:21:01.
