data_PCOD9566594
_publ_section_title
;
Structure prediction by ZEFSAII (Michael W. Deem and Ramdas Pophale) SiO2 
 PCOD9566594
Probable space group: P 42/M M C
;
_chemical_formula_sum "Si O2"
_cell_formula_units_Z 40
_cell_length_a 8.170522
_cell_length_b 8.170522
_cell_length_c 29.458264
_cell_angle_alpha 90.000000
_cell_angle_beta 90.000000
_cell_angle_gamma 90.000000
_cell_volume 1966.557990
_symmetry_space_group_name_H-M "P 42/M M C"
_symmetry_group_IT_number 131
_symmetry_cell_setting 'tetragonal'
loop_
_space_group_symop_operation_xyz
x,y,z
-x,-y,z
-y,x,1/2+z
y,-x,1/2+z
-x,y,-z
x,-y,-z
y,x,1/2-z
-y,-x,1/2-z
-x,-y,-z
x,y,-z
y,-x,1/2-z
-y,x,1/2-z
x,-y,z
-x,y,z
-y,-x,1/2+z
y,x,1/2+z
loop_
_atom_site_type_symbol
_atom_site_label
_atom_site_fract_x
_atom_site_fract_y
_atom_site_fract_z
Si Si1 0.197941 0.819376 0.607099
Si Si2 0.309292 0.192244 0.202275
Si Si3 0.304451 0.500000 0.551673
O O1 0.254571 0.791833 0.659120
O O2 0.250785 0.664974 0.577357
O O3 0.000000 0.817003 0.608218
O O4 0.250484 0.000000 0.590953
O O5 0.277485 0.277485 0.250000
O O6 0.500000 0.205801 0.189931
O O7 0.270599 0.000000 0.208788
O O8 0.500000 0.500000 0.550586
O O9 0.241044 0.500000 0.500000
#
# Coordination Sequence:
#
# PCOD9566594 Si02
#       3
#    16  16   8
#     4  10  21  40  66  92 121 159 206 262 316 371
#     4  10  20  35  56  84 120 160 202 248 302 367
#     4  11  25  43  63  89 125 165 205 257 317 382
#
# _framework density 20.340108000000001
#
# number of rings (size 3 to 8) (size 9 to 14) (size 15 to 20)
#    0.000    1.800    2.000    1.800    0.000    7.200 
#    0.000    4.000    0.000    0.000    0.000    0.000 
#    0.000    0.000    0.000    0.000    0.000    0.000 
#
# Total GULP energy -223403.123355 kJ/mol
# GULP energy per Si atom -5585.078084 kJ/mol
# Density = 2.029381 g / cm^3
# Si number density = 20.340108 Si / 1000 Ang^3
#
#
#
# Elastic Constant Matrix: (Units=GPa)
#
#
# Indices 1 2 3 4 5 6 
#
# 1 74.9383 40.0530 48.7191 0.0000 0.0000 0.0000
# 2 40.0530 74.9383 48.7191 0.0000 0.0000 0.0000
# 3 48.7191 48.7191 133.1853 0.0000 0.0000 0.0000
# 4 0.0000 0.0000 0.0000 42.1878 0.0000 0.0000
# 5 0.0000 0.0000 0.0000 0.0000 42.1878 0.0000
# 6 0.0000 0.0000 0.0000 0.0000 0.0000 17.9628
#
#
#
# Elastic Compliance Matrix: (Units=1/GPa)
#
#
# Indices 1 2 3 4 5 6 
#
# 1 0.020634 -0.008031 -0.004610 0.000000 0.000000 0.000000
# 2 -0.008031 0.020634 -0.004610 0.000000 0.000000 0.000000
# 3 -0.004610 -0.004610 0.010881 0.000000 0.000000 0.000000
# 4 0.000000 0.000000 0.000000 0.023704 0.000000 0.000000
# 5 0.000000 0.000000 0.000000 0.000000 0.023704 0.000000
# 6 0.000000 0.000000 0.000000 0.000000 0.000000 0.055670
#
#
# Mechanical properties :
#
#
# Convention : Reuss Voigt Hill
#
# Bulk Modulus (GPa) = 56.66957 62.00495 59.33726
# Shear Modulus (GPa) = 25.56085 30.17238 27.86661
#
# Velocity S-wave (km/s) = 3.54880 3.85566 3.70541
# Velocity P-wave (km/s) = 6.68681 7.09731 6.89512
#
# Compressibility (1/GPa) = 0.01764615
#
# Stress axis : x y z
#
# Youngs Moduli (GPa) = 48.46364 48.46364 91.90305
#
# Poissons Ratio (x) = 0.38923 0.42368
# Poissons Ratio (y) = 0.38923 0.42368
# Poissons Ratio (z) = 0.22342 0.22342
#
# Static dielectric constant tensor:
#      x y z
#    x 1.724110 0.000000 0.000000 
#    y 0.000000 1.724110 0.000000 
#    z 0.000000 0.000000 1.719460 
# 
# From -- ./inp_files/10349.got.cif
#   From: 2010.05.17/outbox.cif.g08.bks.cpg/sg131_6_cif.got.tgz:10349.got - 2010.05.20 12:21:01.
