data_PCOD9566774
_publ_section_title
;
Structure prediction by ZEFSAII (Michael W. Deem and Ramdas Pophale) SiO2 
 PCOD9566774
Probable space group: P 42/M M C
;
_chemical_formula_sum "Si O2"
_cell_formula_units_Z 56
_cell_length_a 18.150768
_cell_length_b 18.150768
_cell_length_c 8.728514
_cell_angle_alpha 90.000000
_cell_angle_beta 90.000000
_cell_angle_gamma 90.000000
_cell_volume 2875.612245
_symmetry_space_group_name_H-M "P 42/M M C"
_symmetry_group_IT_number 131
_symmetry_cell_setting 'tetragonal'
loop_
_space_group_symop_operation_xyz
x,y,z
-x,-y,z
-y,x,1/2+z
y,-x,1/2+z
-x,y,-z
x,-y,-z
y,x,1/2-z
-y,-x,1/2-z
-x,-y,-z
x,y,-z
y,-x,1/2-z
-y,x,1/2-z
x,-y,z
-x,y,z
-y,-x,1/2+z
y,x,1/2+z
loop_
_atom_site_type_symbol
_atom_site_label
_atom_site_fract_x
_atom_site_fract_y
_atom_site_fract_z
Si Si1 0.347049 0.851806 0.316179
Si Si2 0.000000 0.587820 0.675725
Si Si3 0.807074 0.915757 0.684271
Si Si4 0.414058 0.701530 0.816103
O O1 0.351142 0.845956 0.500000
O O2 0.386703 0.926340 0.261340
O O3 0.262137 0.865186 0.269804
O O4 0.382154 0.779353 0.242888
O O5 0.000000 0.500000 0.670900
O O6 0.000000 0.615681 0.500000
O O7 0.880825 0.880825 0.750000
O O8 0.809867 0.915754 0.500000
O O9 0.794989 0.000000 0.734594
O O10 0.363842 0.636159 0.750000
O O11 0.500000 0.694547 0.771235
O O12 0.409838 0.700444 0.000000
#
# Coordination Sequence:
#
# PCOD9566774 Si02
#       4
#    16   8  16  16
#     4  11  22  40  64  91 126 165 208 258 314 378
#     4  11  23  37  57  89 128 165 204 253 307 370
#     4  10  22  40  59  85 120 156 202 254 303 362
#     4  11  25  44  66  95 130 167 212 265 319 379
#
# _framework density 19.474114
#
# number of rings (size 3 to 8) (size 9 to 14) (size 15 to 20)
#    0.000    1.286    1.429    3.857    0.000   12.571 
#    0.000    2.857    0.000    0.000    0.000    0.000 
#    0.000    0.000    0.000    0.000    0.000    0.000 
#
# Total GULP energy -313063.113304 kJ/mol
# GULP energy per Si atom -5590.412738 kJ/mol
# Density = 1.942979 g / cm^3
# Si number density = 19.474114 Si / 1000 Ang^3
#
#
#
# Elastic Constant Matrix: (Units=GPa)
#
#
# Indices 1 2 3 4 5 6 
#
# 1 135.7424 115.2609 43.2125 0.0000 0.0000 0.0000
# 2 115.2609 135.7439 43.2104 0.0000 0.0000 0.0000
# 3 43.2125 43.2104 42.8311 0.0000 0.0000 0.0000
# 4 0.0000 0.0000 0.0000 40.4104 0.0000 0.0000
# 5 0.0000 0.0000 0.0000 0.0000 40.4129 0.0000
# 6 0.0000 0.0000 0.0000 0.0000 0.0000 17.0984
#
#
#
# Elastic Compliance Matrix: (Units=1/GPa)
#
#
# Indices 1 2 3 4 5 6 
#
# 1 0.027465 -0.021359 -0.006161 0.000000 0.000000 0.000000
# 2 -0.021359 0.027463 -0.006157 0.000000 0.000000 0.000000
# 3 -0.006161 -0.006157 0.035774 0.000000 0.000000 0.000000
# 4 0.000000 0.000000 0.000000 0.024746 0.000000 0.000000
# 5 0.000000 0.000000 0.000000 0.000000 0.024745 0.000000
# 6 0.000000 0.000000 0.000000 0.000000 0.000000 0.058485
#
#
# Mechanical properties :
#
#
# Convention : Reuss Voigt Hill
#
# Bulk Modulus (GPa) = 42.82933 79.74279 61.28606
# Shear Modulus (GPa) = 18.26062 27.09324 22.67693
#
# Velocity S-wave (km/s) = 3.06549 3.73398 3.41613
# Velocity P-wave (km/s) = 5.87965 7.72186 6.86285
#
# Compressibility (1/GPa) = 0.02334849
#
# Stress axis : x y z
#
# Youngs Moduli (GPa) = 36.41064 36.41291 27.95300
#
# Poissons Ratio (x) = 0.77775 0.17221
# Poissons Ratio (y) = 0.77770 0.17210
# Poissons Ratio (z) = 0.22432 0.22418
#
# Static dielectric constant tensor:
#      x y z
#    x 1.667450 0.000000 0.000000 
#    y 0.000000 1.667450 0.000000 
#    z 0.000000 0.000000 1.666340 
# 
# From -- ./inp_files/1197.got.cif
#   From: 2010.05.17/outbox.cif.g08.bks.cpg/sg131_1_cif.got.tgz:1197.got - 2010.05.20 12:21:01.
