data_PCOD9566485
_publ_section_title
;
Structure prediction by ZEFSAII (Michael W. Deem and Ramdas Pophale) SiO2 
 PCOD9566485
Probable space group: P 42/M M C
;
_chemical_formula_sum "Si O2"
_cell_formula_units_Z 104
_cell_length_a 17.506765
_cell_length_b 17.506765
_cell_length_c 18.758211
_cell_angle_alpha 90.000000
_cell_angle_beta 90.000000
_cell_angle_gamma 90.000000
_cell_volume 5749.144453
_symmetry_space_group_name_H-M "P 42/M M C"
_symmetry_group_IT_number 131
_symmetry_cell_setting 'tetragonal'
loop_
_space_group_symop_operation_xyz
x,y,z
-x,-y,z
-y,x,1/2+z
y,-x,1/2+z
-x,y,-z
x,-y,-z
y,x,1/2-z
-y,-x,1/2-z
-x,-y,-z
x,y,-z
y,-x,1/2-z
-y,x,1/2-z
x,-y,z
-x,y,z
-y,-x,1/2+z
y,x,1/2+z
loop_
_atom_site_type_symbol
_atom_site_label
_atom_site_fract_x
_atom_site_fract_y
_atom_site_fract_z
Si Si1 0.653327 0.908904 0.676441
Si Si2 0.201364 0.090713 0.420957
Si Si3 0.303291 0.803545 0.798145
Si Si4 0.583093 0.790174 0.584028
Si Si5 0.352568 0.308894 0.085629
Si Si6 0.500000 0.411944 0.086243
Si Si7 0.840518 0.089861 0.178309
O O1 0.735341 0.890125 0.638851
O O2 0.647429 0.858390 0.747243
O O3 0.595023 0.870766 0.621913
O O4 0.647473 0.000000 0.686084
O O5 0.217053 0.123605 0.500000
O O6 0.119573 0.113424 0.390065
O O7 0.205675 0.000000 0.426650
O O8 0.261929 0.738072 0.750000
O O9 0.347455 0.764458 0.863334
O O10 0.236326 0.860314 0.823612
O O11 0.586225 0.802890 0.500000
O O12 0.500000 0.757903 0.602583
O O13 0.646044 0.726482 0.600250
O O14 0.424069 0.363612 0.104712
O O15 0.356466 0.292894 0.000000
O O16 0.500000 0.500000 0.112682
O O17 0.500000 0.416681 0.000000
O O18 0.885893 0.114108 0.250000
O O19 0.826300 0.000000 0.179578
#
# Coordination Sequence:
#
# PCOD9566485 Si02
#       7
#    16  16  16  16  16   8  16
#     4  11  21  37  57  77 108 150 195 241 289 345
#     4  10  20  33  50  73 101 136 179 230 292 358
#     4  11  20  36  56  81 106 146 193 240 282 341
#     4  10  20  34  55  86 120 152 187 230 281 346
#     4  10  20  37  62  90 120 156 194 234 284 347
#     4   9  18  36  66 100 129 157 190 229 283 355
#     4  11  21  34  52  74 103 142 189 242 299 357
#
# _framework density 18.089648
#
# number of rings (size 3 to 8) (size 9 to 14) (size 15 to 20)
#    0.000    1.615    4.615    1.846    0.000    6.308 
#    1.385    1.538    0.000    1.385    0.000    0.000 
#    0.000    7.385    0.000    0.000    0.000    0.000 
#
# Total GULP energy -579813.521274 kJ/mol
# GULP energy per Si atom -5575.130012 kJ/mol
# Density = 1.804848 g / cm^3
# Si number density = 18.089648 Si / 1000 Ang^3
#
#
#
# Elastic Constant Matrix: (Units=GPa)
#
#
# Indices 1 2 3 4 5 6 
#
# 1 83.5295 34.8149 37.4309 0.0000 0.0000 0.0000
# 2 34.8149 83.5300 37.4306 0.0000 0.0000 0.0000
# 3 37.4309 37.4306 62.0131 0.0000 0.0000 0.0000
# 4 0.0000 0.0000 0.0000 19.7400 0.0000 0.0000
# 5 0.0000 0.0000 0.0000 0.0000 19.7410 0.0000
# 6 0.0000 0.0000 0.0000 0.0000 0.0000 20.3551
#
#
#
# Elastic Compliance Matrix: (Units=1/GPa)
#
#
# Indices 1 2 3 4 5 6 
#
# 1 0.017098 -0.003429 -0.008251 0.000000 0.000000 0.000000
# 2 -0.003429 0.017098 -0.008250 0.000000 0.000000 0.000000
# 3 -0.008251 -0.008250 0.026085 0.000000 0.000000 0.000000
# 4 0.000000 0.000000 0.000000 0.050658 0.000000 0.000000
# 5 0.000000 0.000000 0.000000 0.000000 0.050656 0.000000
# 6 0.000000 0.000000 0.000000 0.000000 0.000000 0.049128
#
#
# Mechanical properties :
#
#
# Convention : Reuss Voigt Hill
#
# Bulk Modulus (GPa) = 48.96816 49.82502 49.39659
# Shear Modulus (GPa) = 19.42562 19.92697 19.67630
#
# Velocity S-wave (km/s) = 3.28052 3.32259 3.30162
# Velocity P-wave (km/s) = 6.44031 6.50559 6.47303
#
# Compressibility (1/GPa) = 0.02042143
#
# Stress axis : x y z
#
# Youngs Moduli (GPa) = 58.48509 58.48588 38.33551
#
# Poissons Ratio (x) = 0.20057 0.31629
# Poissons Ratio (y) = 0.20057 0.31628
# Poissons Ratio (z) = 0.48254 0.48253
#
# Static dielectric constant tensor:
#      x y z
#    x 1.638510 0.000000 0.000000 
#    y 0.000000 1.638510 0.000000 
#    z 0.000000 0.000000 1.670640 
# 
# From -- ./inp_files/8120.got.cif
#   From: 2010.05.17/outbox.cif.g08.bks.cpg/sg131_5_cif.got.tgz:8120.got - 2010.05.20 12:21:01.
