data_PCOD9566758
_publ_section_title
;
Structure prediction by ZEFSAII (Michael W. Deem and Ramdas Pophale) SiO2 
 PCOD9566758
Probable space group: P 42/M M C
;
_chemical_formula_sum "Si O2"
_cell_formula_units_Z 112
_cell_length_a 14.194305
_cell_length_b 14.194305
_cell_length_c 32.474585
_cell_angle_alpha 90.000000
_cell_angle_beta 90.000000
_cell_angle_gamma 90.000000
_cell_volume 6542.923998
_symmetry_space_group_name_H-M "P 42/M M C"
_symmetry_group_IT_number 131
_symmetry_cell_setting 'tetragonal'
loop_
_space_group_symop_operation_xyz
x,y,z
-x,-y,z
-y,x,1/2+z
y,-x,1/2+z
-x,y,-z
x,-y,-z
y,x,1/2-z
-y,-x,1/2-z
-x,-y,-z
x,y,-z
y,-x,1/2-z
-y,x,1/2-z
x,-y,z
-x,y,z
-y,-x,1/2+z
y,x,1/2+z
loop_
_atom_site_type_symbol
_atom_site_label
_atom_site_fract_x
_atom_site_fract_y
_atom_site_fract_z
Si Si1 0.385956 0.888376 0.837247
Si Si2 0.607378 0.885718 0.255412
Si Si3 0.613249 0.611784 0.295666
Si Si4 0.895532 0.113722 0.705665
Si Si5 0.711334 0.299895 0.375730
Si Si6 0.610260 0.386737 0.453381
Si Si7 0.713404 0.889106 0.340478
O O1 0.500000 0.875260 0.839746
O O2 0.357077 0.860199 0.790233
O O3 0.332227 0.819175 0.868060
O O4 0.368396 0.000000 0.843188
O O5 0.500000 0.850935 0.259199
O O6 0.661910 0.864425 0.297292
O O7 0.604710 0.000000 0.253970
O O8 0.645226 0.645226 0.250000
O O9 0.633290 0.500000 0.297765
O O10 0.500000 0.622676 0.297077
O O11 0.658473 0.658882 0.335372
O O12 0.855843 0.144158 0.750000
O O13 0.823175 0.127808 0.669592
O O14 0.000000 0.152070 0.698879
O O15 0.901920 0.000000 0.710537
O O16 0.671482 0.342961 0.417360
O O17 0.690849 0.188193 0.374319
O O18 0.636986 0.358607 0.500000
O O19 0.617205 0.500000 0.451067
O O20 0.500000 0.362822 0.447271
O O21 0.696863 0.000000 0.349133
#
# Coordination Sequence:
#
# PCOD9566758 Si02
#       7
#    16  16  16  16  16  16  16
#     4   9  19  33  47  68 100 135 173 215 252 298
#     4   8  16  31  44  55  85 136 181 211 243 288
#     4   9  19  33  46  68 104 134 158 199 254 310
#     4   8  15  28  44  60  83 123 176 230 272 296
#     4  12  22  30  53  78  99 133 179 213 252 311
#     4   9  19  38  63  88 109 126 153 204 269 329
#     4  10  22  33  43  65 100 138 179 222 258 295
#
# _framework density 17.117729000000001
#
# number of rings (size 3 to 8) (size 9 to 14) (size 15 to 20)
#    0.000    2.714    0.000    3.857    4.000    2.857 
#    0.000    0.000    0.000    0.857    0.000    3.000 
#    0.000    0.000    0.000    4.857    0.000    0.143 
#
# Total GULP energy -624821.881817 kJ/mol
# GULP energy per Si atom -5578.766802 kJ/mol
# Density = 1.707877 g / cm^3
# Si number density = 17.117729 Si / 1000 Ang^3
#
#
#
# Elastic Constant Matrix: (Units=GPa)
#
#
# Indices 1 2 3 4 5 6 
#
# 1 64.8808 30.2313 48.2917 0.0000 0.0000 0.0000
# 2 30.2313 64.8808 48.2917 0.0000 0.0000 0.0000
# 3 48.2917 48.2917 95.8221 0.0000 0.0000 0.0000
# 4 0.0000 0.0000 0.0000 21.6304 0.0000 0.0000
# 5 0.0000 0.0000 0.0000 0.0000 21.6304 0.0000
# 6 0.0000 0.0000 0.0000 0.0000 0.0000 10.9419
#
#
#
# Elastic Compliance Matrix: (Units=1/GPa)
#
#
# Indices 1 2 3 4 5 6 
#
# 1 0.025198 -0.003663 -0.010853 0.000000 0.000000 0.000000
# 2 -0.003663 0.025198 -0.010853 0.000000 0.000000 0.000000
# 3 -0.010853 -0.010853 0.021375 0.000000 0.000000 0.000000
# 4 0.000000 0.000000 0.000000 0.046231 0.000000 0.000000
# 5 0.000000 0.000000 0.000000 0.000000 0.046231 0.000000
# 6 0.000000 0.000000 0.000000 0.000000 0.000000 0.091392
#
#
# Mechanical properties :
#
#
# Convention : Reuss Voigt Hill
#
# Bulk Modulus (GPa) = 47.54449 53.24593 50.39521
# Shear Modulus (GPa) = 15.95543 17.42514 16.69029
#
# Velocity S-wave (km/s) = 3.05634 3.19401 3.12593
# Velocity P-wave (km/s) = 6.34746 6.69145 6.52172
#
# Compressibility (1/GPa) = 0.02103293
#
# Stress axis : x y z
#
# Youngs Moduli (GPa) = 39.68632 39.68631 46.78332
#
# Poissons Ratio (x) = 0.14537 0.50773
# Poissons Ratio (y) = 0.14537 0.50774
# Poissons Ratio (z) = 0.43071 0.43071
#
# Static dielectric constant tensor:
#      x y z
#    x 1.637410 0.000000 0.000000 
#    y 0.000000 1.637410 0.000000 
#    z 0.000000 0.000000 1.535250 
# 
# From -- ./inp_files/12472.got.cif
#   From: 2010.05.17/outbox.cif.g08.bks.cpg/sg131_7_cif.got.tgz:12472.got - 2010.05.20 12:21:01.
