data_PCOD9566785
_publ_section_title
;
Structure prediction by ZEFSAII (Michael W. Deem and Ramdas Pophale) SiO2 
 PCOD9566785
Probable space group: P 42/M M C
;
_chemical_formula_sum "Si O2"
_cell_formula_units_Z 50
_cell_length_a 7.841123
_cell_length_b 7.841123
_cell_length_c 39.318880
_cell_angle_alpha 90.000000
_cell_angle_beta 90.000000
_cell_angle_gamma 90.000000
_cell_volume 2417.450952
_symmetry_space_group_name_H-M "P 42/M M C"
_symmetry_group_IT_number 131
_symmetry_cell_setting 'tetragonal'
loop_
_space_group_symop_operation_xyz
x,y,z
-x,-y,z
-y,x,1/2+z
y,-x,1/2+z
-x,y,-z
x,-y,-z
y,x,1/2-z
-y,-x,1/2-z
-x,-y,-z
x,y,-z
y,-x,1/2-z
-y,x,1/2-z
x,-y,z
-x,y,z
-y,-x,1/2+z
y,x,1/2+z
loop_
_atom_site_type_symbol
_atom_site_label
_atom_site_fract_x
_atom_site_fract_y
_atom_site_fract_z
Si Si1 0.314491 0.292478 0.854041
Si Si2 0.195500 0.202206 0.000000
Si Si3 0.195843 0.704617 0.927266
Si Si4 0.000000 0.000000 0.750000
Si Si5 0.292890 0.000000 0.694595
O O1 0.314910 0.500000 0.855320
O O2 0.500000 0.234858 0.842258
O O3 0.282499 0.232972 0.892739
O O4 0.163506 0.248908 0.828629
O O5 0.274570 0.253751 0.036046
O O6 0.000000 0.275105 0.000000
O O7 0.184814 0.000000 0.000000
O O8 0.190220 0.500000 0.925092
O O9 0.000000 0.768927 0.927258
O O10 0.170850 0.000000 0.727040
O O11 0.500000 0.000000 0.701160
#
# Coordination Sequence:
#
# PCOD9566785 Si02
#       5
#    16   8  16   2   8
#     4   9  17  33  60  89 116 153 197 241 294 347
#     4   9  17  27  40  67 104 147 191 240 297 348
#     4   9  15  27  48  73 104 146 195 243 289 342
#     4  12  28  44  68 104 120 162 196 224 288 368
#     4  10  22  44  66  91 129 157 189 242 287 346
#
# _framework density 20.682941
#
# number of rings (size 3 to 8) (size 9 to 14) (size 15 to 20)
#    0.000    2.720    1.600    0.480    0.000    3.200 
#    2.880    0.800    0.000    4.800    0.000    0.000 
#    0.000    0.000    0.000    0.000    0.000    0.000 
#
# Total GULP energy -278821.457270 kJ/mol
# GULP energy per Si atom -5576.429145 kJ/mol
# Density = 2.063587 g / cm^3
# Si number density = 20.682941 Si / 1000 Ang^3
#
#
#
# Elastic Constant Matrix: (Units=GPa)
#
#
# Indices 1 2 3 4 5 6 
#
# 1 86.0662 23.8084 63.2045 0.0000 0.0000 0.0000
# 2 23.8084 86.0662 63.2045 0.0000 0.0000 0.0000
# 3 63.2045 63.2045 173.6994 0.0000 0.0000 0.0000
# 4 0.0000 0.0000 0.0000 -46.9889 0.0000 0.0000
# 5 0.0000 0.0000 0.0000 0.0000 -46.9889 0.0000
# 6 0.0000 0.0000 0.0000 0.0000 0.0000 0.1502
#
#
#
# Elastic Compliance Matrix: (Units=1/GPa)
#
#
# Indices 1 2 3 4 5 6 
#
# 1 0.015859 -0.000204 -0.005696 0.000000 0.000000 0.000000
# 2 -0.000204 0.015859 -0.005696 0.000000 0.000000 0.000000
# 3 -0.005696 -0.005696 0.009903 0.000000 0.000000 0.000000
# 4 0.000000 0.000000 0.000000 -0.021282 0.000000 0.000000
# 5 0.000000 0.000000 0.000000 0.000000 -0.021282 0.000000
# 6 0.000000 0.000000 0.000000 0.000000 0.000000 6.658382
#
#
# Mechanical properties :
#
#
# Convention : Reuss Voigt Hill
#
# Bulk Modulus (GPa) = 54.26868 71.80740 63.03804
# Shear Modulus (GPa) = 0.74774 -5.72459 -2.48842
#
# Velocity S-wave (km/s) = 0.60192 -1.66547 -1.09806
# Velocity P-wave (km/s) = 5.17479 5.57630 5.37929
#
# Compressibility (1/GPa) = 0.01842684
#
# Stress axis : x y z
#
# Youngs Moduli (GPa) = 63.05732 63.05732 100.98348
#
# Poissons Ratio (x) = 0.01284 0.57524
# Poissons Ratio (y) = 0.01284 0.57524
# Poissons Ratio (z) = 0.35920 0.35920
#
# Static dielectric constant tensor:
#      x y z
#    x 1.756370 0.000000 0.000000 
#    y 0.000000 1.756370 0.000000 
#    z 0.000000 0.000000 1.734110 
# 
# From -- ./inp_files/12991.got.cif
#   From: 2010.05.17/outbox.cif.g08.bks.cpg/sg131_7_cif.got.tgz:12991.got - 2010.05.20 12:21:01.
