data_PCOD9566367
_publ_section_title
;
Structure prediction by ZEFSAII (Michael W. Deem and Ramdas Pophale) SiO2 
 PCOD9566367
Probable space group: P 42/M M C
;
_chemical_formula_sum "Si O2"
_cell_formula_units_Z 120
_cell_length_a 27.866152
_cell_length_b 27.866152
_cell_length_c 9.145208
_cell_angle_alpha 90.000000
_cell_angle_beta 90.000000
_cell_angle_gamma 90.000000
_cell_volume 7101.459114
_symmetry_space_group_name_H-M "P 42/M M C"
_symmetry_group_IT_number 131
_symmetry_cell_setting 'tetragonal'
loop_
_space_group_symop_operation_xyz
x,y,z
-x,-y,z
-y,x,1/2+z
y,-x,1/2+z
-x,y,-z
x,-y,-z
y,x,1/2-z
-y,-x,1/2-z
-x,-y,-z
x,y,-z
y,-x,1/2-z
-y,x,1/2-z
x,-y,z
-x,y,z
-y,-x,1/2+z
y,x,1/2+z
loop_
_atom_site_type_symbol
_atom_site_label
_atom_site_fract_x
_atom_site_fract_y
_atom_site_fract_z
Si Si1 0.384938 0.809009 0.673096
Si Si2 0.781321 0.287189 0.669771
Si Si3 0.000000 0.556191 0.675291
Si Si4 0.943435 0.731258 0.824765
Si Si5 0.727643 0.442378 0.668372
Si Si6 0.135977 0.794203 0.330096
Si Si7 0.371119 0.557284 0.826533
Si Si8 0.379321 0.920699 0.673653
O O1 0.384452 0.799700 0.500000
O O2 0.333593 0.797666 0.743141
O O3 0.422172 0.774350 0.752305
O O4 0.393490 0.865465 0.694961
O O5 0.735956 0.264045 0.750000
O O6 0.771517 0.297858 0.500000
O O7 0.823561 0.247609 0.675354
O O8 0.954687 0.584865 0.739346
O O9 0.000000 0.500000 0.718198
O O10 0.000000 0.558608 0.500000
O O11 0.910267 0.770613 0.746586
O O12 0.928869 0.676531 0.782483
O O13 0.000000 0.737426 0.794131
O O14 0.936108 0.734881 0.000000
O O15 0.725493 0.426059 0.500000
O O16 0.729235 0.500000 0.669370
O O17 0.679497 0.427959 0.754380
O O18 0.160136 0.839865 0.250000
O O19 0.126546 0.805117 0.500000
O O20 0.413287 0.586714 0.750000
O O21 0.377068 0.500000 0.803735
O O22 0.370415 0.566186 0.000000
O O23 0.381836 0.932026 0.500000
#
# Coordination Sequence:
#
# PCOD9566367 Si02
#       8
#    16  16   8  16  16  16  16  16
#     4  11  22  36  57  81 107 138 180 229 274 327
#     4  10  20  33  50  75 107 141 178 217 265 318
#     4  11  25  41  57  79 107 139 179 235 296 347
#     4  10  19  34  56  81 112 148 189 233 282 336
#     4  10  22  40  59  78 104 138 175 218 269 324
#     4  10  20  33  52  78 111 149 186 226 273 325
#     4  10  21  38  61  88 117 147 180 219 265 322
#     4  10  21  38  58  80 106 141 183 230 284 344
#
# _framework density 16.897936000000001
#
# number of rings (size 3 to 8) (size 9 to 14) (size 15 to 20)
#    0.000    1.800    2.000    2.200    0.000    6.267 
#    0.000    6.000    0.000    0.000    0.000    0.000 
#    0.000    0.267    0.000    2.800    0.000    1.200 
#
# Total GULP energy -669998.894905 kJ/mol
# GULP energy per Si atom -5583.324124 kJ/mol
# Density = 1.685948 g / cm^3
# Si number density = 16.897936 Si / 1000 Ang^3
#
#
#
# Elastic Constant Matrix: (Units=GPa)
#
#
# Indices 1 2 3 4 5 6 
#
# 1 80.1907 64.9258 71.5514 0.0000 0.0000 0.0000
# 2 64.9258 80.2026 71.5407 0.0000 0.0000 0.0000
# 3 71.5514 71.5407 121.9170 0.0000 0.0000 0.0000
# 4 0.0000 0.0000 0.0000 29.1064 0.0000 0.0000
# 5 0.0000 0.0000 0.0000 0.0000 29.1067 0.0000
# 6 0.0000 0.0000 0.0000 0.0000 0.0000 11.6707
#
#
#
# Elastic Compliance Matrix: (Units=1/GPa)
#
#
# Indices 1 2 3 4 5 6 
#
# 1 0.040932 -0.024566 -0.009607 0.000000 0.000000 0.000000
# 2 -0.024566 0.040906 -0.009586 0.000000 0.000000 0.000000
# 3 -0.009607 -0.009586 0.019466 0.000000 0.000000 0.000000
# 4 0.000000 0.000000 0.000000 0.034357 0.000000 0.000000
# 5 0.000000 0.000000 0.000000 0.000000 0.034356 0.000000
# 6 0.000000 0.000000 0.000000 0.000000 0.000000 0.085685
#
#
# Mechanical properties :
#
#
# Convention : Reuss Voigt Hill
#
# Bulk Modulus (GPa) = 72.54116 77.59402 75.06759
# Shear Modulus (GPa) = 14.37547 18.92956 16.65252
#
# Velocity S-wave (km/s) = 2.91988 3.35061 3.14264
# Velocity P-wave (km/s) = 7.37494 7.80946 7.59531
#
# Compressibility (1/GPa) = 0.01378528
#
# Stress axis : x y z
#
# Youngs Moduli (GPa) = 24.43083 24.44648 51.37183
#
# Poissons Ratio (x) = 0.60054 0.49355
# Poissons Ratio (y) = 0.60016 0.49246
# Poissons Ratio (z) = 0.23472 0.23435
#
# Static dielectric constant tensor:
#      x y z
#    x 1.570250 0.000000 0.000000 
#    y 0.000000 1.570260 0.000000 
#    z 0.000000 0.000000 1.567180 
# 
# From -- ./inp_files/2621.got.cif
#   From: 2010.05.17/outbox.cif.g08.bks.cpg/sg131_2_cif.got.tgz:2621.got - 2010.05.20 12:21:01.
