data_PCOD9566669
_publ_section_title
;
Structure prediction by ZEFSAII (Michael W. Deem and Ramdas Pophale) SiO2 
 PCOD9566669
Probable space group: P 42/M M C
;
_chemical_formula_sum "Si O2"
_cell_formula_units_Z 80
_cell_length_a 11.521404
_cell_length_b 11.521404
_cell_length_c 31.243446
_cell_angle_alpha 90.000000
_cell_angle_beta 90.000000
_cell_angle_gamma 90.000000
_cell_volume 4147.340946
_symmetry_space_group_name_H-M "P 42/M M C"
_symmetry_group_IT_number 131
_symmetry_cell_setting 'tetragonal'
loop_
_space_group_symop_operation_xyz
x,y,z
-x,-y,z
-y,x,1/2+z
y,-x,1/2+z
-x,y,-z
x,-y,-z
y,x,1/2-z
-y,-x,1/2-z
-x,-y,-z
x,y,-z
y,-x,1/2-z
-y,x,1/2-z
x,-y,z
-x,y,z
-y,-x,1/2+z
y,x,1/2+z
loop_
_atom_site_type_symbol
_atom_site_label
_atom_site_fract_x
_atom_site_fract_y
_atom_site_fract_z
Si Si1 0.360035 0.741631 0.547768
Si Si2 0.360947 0.634230 0.297678
Si Si3 0.195648 0.000000 0.745186
Si Si4 0.239677 0.000000 0.646363
Si Si5 0.366439 0.000000 0.826038
Si Si6 0.000000 0.632335 0.064530
Si Si7 0.782005 0.259584 0.630102
O O1 0.342411 0.693210 0.500000
O O2 0.500000 0.733775 0.557155
O O3 0.323946 0.877914 0.547440
O O4 0.279931 0.698348 0.586469
O O5 0.326863 0.673138 0.250000
O O6 0.321822 0.500000 0.304636
O O7 0.500000 0.632079 0.298325
O O8 0.313016 0.719887 0.332971
O O9 0.111524 0.111524 0.750000
O O10 0.287888 0.000000 0.783404
O O11 0.248668 0.000000 0.697423
O O12 0.353188 0.000000 0.616005
O O13 0.182775 0.877095 0.632082
O O14 0.335011 0.110418 0.854850
O O15 0.500000 0.000000 0.813606
O O16 0.000000 0.500000 0.051993
#
# Coordination Sequence:
#
# PCOD9566669 Si02
#       7
#    16  16   8   8   8   8  16
#     4   9  17  32  58  88 117 151 191 242 303 360
#     4   9  19  36  56  77 107 151 196 239 292 346
#     4  11  22  41  64  85 118 162 201 239 293 346
#     4  10  21  34  56  82 117 157 192 233 283 346
#     4  12  27  42  59  83 114 159 206 242 281 344
#     4   8  15  28  49  84 125 154 179 227 297 354
#     4  11  22  38  56  86 119 152 195 240 291 351
#
# _framework density 19.289466999999998
#
# number of rings (size 3 to 8) (size 9 to 14) (size 15 to 20)
#    0.000    2.100    2.000    2.100    2.800    2.800 
#    0.000    0.500    0.000    3.000    0.000   11.200 
#    0.000    0.000    0.000    0.000    0.000    0.000 
#
# Total GULP energy -445728.530661 kJ/mol
# GULP energy per Si atom -5571.606633 kJ/mol
# Density = 1.924556 g / cm^3
# Si number density = 19.289467 Si / 1000 Ang^3
#
#
#
# Elastic Constant Matrix: (Units=GPa)
#
#
# Indices 1 2 3 4 5 6 
#
# 1 58.2040 33.5148 45.9220 0.0000 0.0000 0.0000
# 2 33.5148 58.2041 45.9218 0.0000 0.0000 0.0000
# 3 45.9220 45.9218 167.3429 0.0000 0.0000 0.0000
# 4 0.0000 0.0000 0.0000 13.2922 0.0000 0.0000
# 5 0.0000 0.0000 0.0000 0.0000 13.2911 0.0000
# 6 0.0000 0.0000 0.0000 0.0000 0.0000 19.3599
#
#
#
# Elastic Compliance Matrix: (Units=1/GPa)
#
#
# Indices 1 2 3 4 5 6 
#
# 1 0.027769 -0.012735 -0.004126 0.000000 0.000000 0.000000
# 2 -0.012735 0.027769 -0.004126 0.000000 0.000000 0.000000
# 3 -0.004126 -0.004126 0.008240 0.000000 0.000000 0.000000
# 4 0.000000 0.000000 0.000000 0.075232 0.000000 0.000000
# 5 0.000000 0.000000 0.000000 0.000000 0.075238 0.000000
# 6 0.000000 0.000000 0.000000 0.000000 0.000000 0.051653
#
#
# Mechanical properties :
#
#
# Convention : Reuss Voigt Hill
#
# Bulk Modulus (GPa) = 45.85940 59.38536 52.62238
# Shear Modulus (GPa) = 15.86589 19.74814 17.80701
#
# Velocity S-wave (km/s) = 2.87106 3.20312 3.04163
# Velocity P-wave (km/s) = 5.90056 6.67333 6.29880
#
# Compressibility (1/GPa) = 0.02180578
#
# Stress axis : x y z
#
# Youngs Moduli (GPa) = 36.01149 36.01163 121.35837
#
# Poissons Ratio (x) = 0.45860 0.50069
# Poissons Ratio (y) = 0.45860 0.50068
# Poissons Ratio (z) = 0.14857 0.14857
#
# Static dielectric constant tensor:
#      x y z
#    x 1.748420 0.000000 0.000000 
#    y 0.000000 1.748420 0.000000 
#    z 0.000000 0.000000 1.696950 
# 
# From -- ./inp_files/13504.got.cif
#   From: 2010.05.17/outbox.cif.g08.bks.cpg/sg131_7_cif.got.tgz:13504.got - 2010.05.20 12:21:01.
