data_PCOD9566110
_publ_section_title
;
Structure prediction by ZEFSAII (Michael W. Deem and Ramdas Pophale) SiO2 
 PCOD9566110
Probable space group: P 42/M M C
;
_chemical_formula_sum "Si O2"
_cell_formula_units_Z 80
_cell_length_a 12.382269
_cell_length_b 12.382269
_cell_length_c 29.910481
_cell_angle_alpha 90.000000
_cell_angle_beta 90.000000
_cell_angle_gamma 90.000000
_cell_volume 4585.892462
_symmetry_space_group_name_H-M "P 42/M M C"
_symmetry_group_IT_number 131
_symmetry_cell_setting 'tetragonal'
loop_
_space_group_symop_operation_xyz
x,y,z
-x,-y,z
-y,x,1/2+z
y,-x,1/2+z
-x,y,-z
x,-y,-z
y,x,1/2-z
-y,-x,1/2-z
-x,-y,-z
x,y,-z
y,-x,1/2-z
-y,x,1/2-z
x,-y,z
-x,y,z
-y,-x,1/2+z
y,x,1/2+z
loop_
_atom_site_type_symbol
_atom_site_label
_atom_site_fract_x
_atom_site_fract_y
_atom_site_fract_z
Si Si1 0.126217 0.000000 0.446304
Si Si2 0.500000 0.872392 0.446279
Si Si3 0.289680 0.871490 0.769345
Si Si4 0.384647 0.129307 0.678650
Si Si5 0.806834 0.269077 0.907003
Si Si6 0.371289 0.871842 0.130523
O O1 0.190175 0.104219 0.428303
O O2 0.130550 0.000000 0.500000
O O3 0.000000 0.000000 0.432565
O O4 0.500000 0.872909 0.500000
O O5 0.612893 0.817915 0.430295
O O6 0.500000 0.000000 0.431147
O O7 0.180613 0.819388 0.750000
O O8 0.370403 0.836402 0.729737
O O9 0.333242 0.845152 0.818567
O O10 0.279610 0.000000 0.768649
O O11 0.500000 0.169440 0.661575
O O12 0.293163 0.162886 0.644515
O O13 0.385949 0.000000 0.678541
O O14 0.693926 0.205253 0.903458
O O15 0.500000 0.858078 0.127370
O O16 0.346989 0.000000 0.123041
#
# Coordination Sequence:
#
# PCOD9566110 Si02
#       6
#     8   8  16  16  16  16
#     4  11  24  39  57  87 123 154 187 239 305 373
#     4  11  22  38  63  95 127 153 182 235 309 379
#     4  10  19  32  50  77 115 157 197 246 293 347
#     4  10  18  30  50  79 111 146 190 230 280 344
#     4  12  20  35  60  88 117 153 194 242 299 361
#     4  10  22  40  59  81 115 165 214 250 291 345
#
# _framework density 17.444804999999999
#
# number of rings (size 3 to 8) (size 9 to 14) (size 15 to 20)
#    0.000    1.400    5.000    1.800    0.000    2.600 
#    0.000    0.500    0.000    3.000    0.000    8.400 
#    0.000    0.000    0.000    0.000    0.000    0.000 
#
# Total GULP energy -445472.188668 kJ/mol
# GULP energy per Si atom -5568.402358 kJ/mol
# Density = 1.740510 g / cm^3
# Si number density = 17.444805 Si / 1000 Ang^3
#
#
#
# Elastic Constant Matrix: (Units=GPa)
#
#
# Indices 1 2 3 4 5 6 
#
# 1 85.0117 62.5920 51.5136 0.0000 0.0000 0.0000
# 2 62.5920 85.0009 51.5159 0.0000 0.0000 0.0000
# 3 51.5136 51.5159 65.9008 0.0000 0.0000 0.0000
# 4 0.0000 0.0000 0.0000 19.6794 0.0000 0.0000
# 5 0.0000 0.0000 0.0000 0.0000 19.6795 0.0000
# 6 0.0000 0.0000 0.0000 0.0000 0.0000 -11.8156
#
#
#
# Elastic Compliance Matrix: (Units=1/GPa)
#
#
# Indices 1 2 3 4 5 6 
#
# 1 0.029758 -0.014851 -0.011652 0.000000 0.000000 0.000000
# 2 -0.014851 0.029768 -0.011661 0.000000 0.000000 0.000000
# 3 -0.011652 -0.011661 0.033399 0.000000 0.000000 0.000000
# 4 0.000000 0.000000 0.000000 0.050815 0.000000 0.000000
# 5 0.000000 0.000000 0.000000 0.000000 0.050814 0.000000
# 6 0.000000 0.000000 0.000000 0.000000 0.000000 -0.084634
#
#
# Mechanical properties :
#
#
# Convention : Reuss Voigt Hill
#
# Bulk Modulus (GPa) = 60.25709 63.01740 61.63724
# Shear Modulus (GPa) = 26.07131 10.19477 18.13304
#
# Velocity S-wave (km/s) = 3.87007 2.42006 3.22755
# Velocity P-wave (km/s) = 7.38827 6.63410 7.02132
#
# Compressibility (1/GPa) = 0.01659556
#
# Stress axis : x y z
#
# Youngs Moduli (GPa) = 33.60389 33.59311 29.94141
#
# Poissons Ratio (x) = 0.49890 0.34889
# Poissons Ratio (y) = 0.49906 0.34916
# Poissons Ratio (z) = 0.39156 0.39174
#
# Static dielectric constant tensor:
#      x y z
#    x 1.620860 0.000000 0.000000 
#    y 0.000000 1.620860 0.000000 
#    z 0.000000 0.000000 1.617780 
# 
# From -- ./inp_files/13426.got.cif
#   From: 2010.05.17/outbox.cif.g08.bks.cpg/sg131_7_cif.got.tgz:13426.got - 2010.05.20 12:21:01.
