data_PCOD9566827
_publ_section_title
;
Structure prediction by ZEFSAII (Michael W. Deem and Ramdas Pophale) SiO2 
 PCOD9566827
Probable space group: P 42/M M C
;
_chemical_formula_sum "Si O2"
_cell_formula_units_Z 72
_cell_length_a 14.385891
_cell_length_b 14.385891
_cell_length_c 19.116904
_cell_angle_alpha 90.000000
_cell_angle_beta 90.000000
_cell_angle_gamma 90.000000
_cell_volume 3956.317071
_symmetry_space_group_name_H-M "P 42/M M C"
_symmetry_group_IT_number 131
_symmetry_cell_setting 'tetragonal'
loop_
_space_group_symop_operation_xyz
x,y,z
-x,-y,z
-y,x,1/2+z
y,-x,1/2+z
-x,y,-z
x,-y,-z
y,x,1/2-z
-y,-x,1/2-z
-x,-y,-z
x,y,-z
y,-x,1/2-z
-y,x,1/2-z
x,-y,z
-x,y,z
-y,-x,1/2+z
y,x,1/2+z
loop_
_atom_site_type_symbol
_atom_site_label
_atom_site_fract_x
_atom_site_fract_y
_atom_site_fract_z
Si Si1 0.898834 0.603070 0.720191
Si Si2 0.788556 0.105162 0.689523
Si Si3 0.777753 0.684710 0.083150
Si Si4 0.607626 0.309666 0.177243
Si Si5 0.105062 0.500000 0.084208
O O1 0.894259 0.500000 0.753422
O O2 0.897790 0.688401 0.772734
O O3 0.802972 0.609905 0.678432
O O4 0.000000 0.607675 0.683063
O O5 0.856607 0.143394 0.750000
O O6 0.770807 0.174896 0.624980
O O7 0.813059 0.000000 0.667873
O O8 0.676545 0.663526 0.115030
O O9 0.839592 0.593906 0.099683
O O10 0.775828 0.699770 0.000000
O O11 0.651167 0.348834 0.250000
O O12 0.500000 0.338990 0.171357
O O13 0.000000 0.500000 0.111429
O O14 0.098168 0.500000 0.000000
#
# Coordination Sequence:
#
# PCOD9566827 Si02
#       5
#    16  16  16  16   8
#     4   9  17  31  57  86 109 138 184 244 295 334
#     4  11  21  36  58  85 116 151 196 244 297 355
#     4  11  22  38  57  85 122 155 193 245 304 364
#     4  11  22  38  58  83 117 158 205 247 291 355
#     4   9  20  36  55  81 113 151 191 238 296 352
#
# _framework density 18.198744000000001
#
# number of rings (size 3 to 8) (size 9 to 14) (size 15 to 20)
#    0.000    1.667    4.444    0.667    3.111    2.222 
#    0.000    0.000    0.000    4.667    0.000    4.667 
#    0.000    0.000    0.000    0.000    0.000    0.000 
#
# Total GULP energy -401174.034536 kJ/mol
# GULP energy per Si atom -5571.861591 kJ/mol
# Density = 1.815732 g / cm^3
# Si number density = 18.198744 Si / 1000 Ang^3
#
#
#
# Elastic Constant Matrix: (Units=GPa)
#
#
# Indices 1 2 3 4 5 6 
#
# 1 111.2656 26.3297 36.4539 0.0000 0.0000 0.0000
# 2 26.3297 111.2691 36.4561 0.0000 0.0000 0.0000
# 3 36.4539 36.4561 80.6261 0.0000 0.0000 0.0000
# 4 0.0000 0.0000 0.0000 19.9398 0.0000 0.0000
# 5 0.0000 0.0000 0.0000 0.0000 19.9397 0.0000
# 6 0.0000 0.0000 0.0000 0.0000 0.0000 107.4243
#
#
#
# Elastic Compliance Matrix: (Units=1/GPa)
#
#
# Indices 1 2 3 4 5 6 
#
# 1 0.010665 -0.001108 -0.004321 0.000000 0.000000 0.000000
# 2 -0.001108 0.010665 -0.004321 0.000000 0.000000 0.000000
# 3 -0.004321 -0.004321 0.016311 0.000000 0.000000 0.000000
# 4 0.000000 0.000000 0.000000 0.050151 0.000000 0.000000
# 5 0.000000 0.000000 0.000000 0.000000 0.050151 0.000000
# 6 0.000000 0.000000 0.000000 0.000000 0.000000 0.009309
#
#
# Mechanical properties :
#
#
# Convention : Reuss Voigt Hill
#
# Bulk Modulus (GPa) = 55.12657 55.73779 55.43218
# Shear Modulus (GPa) = 28.93508 43.05550 35.99529
#
# Velocity S-wave (km/s) = 3.99174 4.86928 4.45218
# Velocity P-wave (km/s) = 7.18349 7.89347 7.54683
#
# Compressibility (1/GPa) = 0.01814007
#
# Stress axis : x y z
#
# Youngs Moduli (GPa) = 93.76067 93.76212 61.30937
#
# Poissons Ratio (x) = 0.10389 0.26493
# Poissons Ratio (y) = 0.10388 0.26495
# Poissons Ratio (z) = 0.40516 0.40519
#
# Static dielectric constant tensor:
#      x y z
#    x 1.658670 0.000000 0.000000 
#    y 0.000000 1.658680 0.000000 
#    z 0.000000 0.000000 1.631280 
# 
# From -- ./inp_files/7540.got.cif
#   From: 2010.05.17/outbox.cif.g08.bks.cpg/sg131_4_cif.got.tgz:7540.got - 2010.05.20 12:21:01.
