data_PCOD9566277
_publ_section_title
;
Structure prediction by ZEFSAII (Michael W. Deem and Ramdas Pophale) SiO2 
 PCOD9566277
Probable space group: P 42/M M C
;
_chemical_formula_sum "Si O2"
_cell_formula_units_Z 112
_cell_length_a 15.400571
_cell_length_b 15.400571
_cell_length_c 27.938446
_cell_angle_alpha 90.000000
_cell_angle_beta 90.000000
_cell_angle_gamma 90.000000
_cell_volume 6626.373210
_symmetry_space_group_name_H-M "P 42/M M C"
_symmetry_group_IT_number 131
_symmetry_cell_setting 'tetragonal'
loop_
_space_group_symop_operation_xyz
x,y,z
-x,-y,z
-y,x,1/2+z
y,-x,1/2+z
-x,y,-z
x,-y,-z
y,x,1/2-z
-y,-x,1/2-z
-x,-y,-z
x,y,-z
y,-x,1/2-z
-y,x,1/2-z
x,-y,z
-x,y,z
-y,-x,1/2+z
y,x,1/2+z
loop_
_atom_site_type_symbol
_atom_site_label
_atom_site_fract_x
_atom_site_fract_y
_atom_site_fract_z
Si Si1 0.254000 0.399440 0.947241
Si Si2 0.400899 0.642046 0.194898
Si Si3 0.598171 0.787078 0.656650
Si Si4 0.402369 0.834445 0.153836
Si Si5 0.255717 0.598538 0.446979
Si Si6 0.095056 0.776656 0.311239
Si Si7 0.750965 0.100261 0.696811
O O1 0.282686 0.500000 0.944565
O O2 0.197911 0.384887 0.899785
O O3 0.334240 0.334063 0.944101
O O4 0.213120 0.387182 0.000000
O O5 0.383226 0.616775 0.250000
O O6 0.500000 0.613638 0.181990
O O7 0.316725 0.607385 0.166413
O O8 0.399004 0.745461 0.185088
O O9 0.500000 0.811535 0.668641
O O10 0.665769 0.843177 0.686369
O O11 0.500000 0.871241 0.159746
O O12 0.390858 0.806368 0.098410
O O13 0.319640 0.889768 0.168520
O O14 0.214914 0.608422 0.500000
O O15 0.289593 0.500000 0.443681
O O16 0.169926 0.844162 0.325326
O O17 0.098043 0.766578 0.253778
O O18 0.000000 0.809093 0.325017
O O19 0.745349 0.000000 0.680473
#
# Coordination Sequence:
#
# PCOD9566277 Si02
#       7
#    16  16  16  16  16  16  16
#     4   9  17  28  43  65  93 126 167 214 259 300
#     4  11  21  32  45  66 100 141 179 212 244 286
#     4  11  21  33  51  73 101 138 173 210 254 296
#     4  10  19  32  50  73 103 137 171 208 249 296
#     4   9  16  27  44  65  92 130 173 213 252 293
#     4  10  20  35  56  78 102 132 165 204 252 303
#     4  10  21  37  55  76 102 129 165 211 253 301
#
# _framework density 16.902156999999999
#
# number of rings (size 3 to 8) (size 9 to 14) (size 15 to 20)
#    0.000    2.000    2.857    1.286    0.000    3.857 
#    0.000    5.714    0.000    0.857    0.000    4.000 
#    0.000    0.000    0.000    6.000    0.000    0.286 
#
# Total GULP energy -623876.475757 kJ/mol
# GULP energy per Si atom -5570.325676 kJ/mol
# Density = 1.686369 g / cm^3
# Si number density = 16.902157 Si / 1000 Ang^3
#
#
#
# Elastic Constant Matrix: (Units=GPa)
#
#
# Indices 1 2 3 4 5 6 
#
# 1 73.8213 37.2716 11.7914 0.0000 0.0000 0.0000
# 2 37.2716 73.8212 11.7916 0.0000 0.0000 0.0000
# 3 11.7914 11.7916 44.0466 0.0000 0.0000 0.0000
# 4 0.0000 0.0000 0.0000 10.3925 0.0000 0.0000
# 5 0.0000 0.0000 0.0000 0.0000 10.3925 0.0000
# 6 0.0000 0.0000 0.0000 0.0000 0.0000 -24.5759
#
#
#
# Elastic Compliance Matrix: (Units=1/GPa)
#
#
# Indices 1 2 3 4 5 6 
#
# 1 0.018452 -0.008908 -0.002555 0.000000 0.000000 0.000000
# 2 -0.008908 0.018452 -0.002555 0.000000 0.000000 0.000000
# 3 -0.002555 -0.002555 0.024071 0.000000 0.000000 0.000000
# 4 0.000000 0.000000 0.000000 0.096223 0.000000 0.000000
# 5 0.000000 0.000000 0.000000 0.000000 0.096223 0.000000
# 6 0.000000 0.000000 0.000000 0.000000 0.000000 -0.040690
#
#
# Mechanical properties :
#
#
# Convention : Reuss Voigt Hill
#
# Bulk Modulus (GPa) = 30.35904 34.82203 32.59054
# Shear Modulus (GPa) = 19.86126 7.96413 13.91270
#
# Velocity S-wave (km/s) = 3.43165 2.17305 2.87214
# Velocity P-wave (km/s) = 5.80537 5.19067 5.50660
#
# Compressibility (1/GPa) = 0.03293912
#
# Stress axis : x y z
#
# Youngs Moduli (GPa) = 54.19494 54.19480 41.54344
#
# Poissons Ratio (x) = 0.48277 0.10614
# Poissons Ratio (y) = 0.48277 0.10614
# Poissons Ratio (z) = 0.13846 0.13847
#
# Static dielectric constant tensor:
#      x y z
#    x 1.568430 0.000000 0.000000 
#    y 0.000000 1.568430 0.000000 
#    z 0.000000 0.000000 1.614610 
# 
# From -- ./inp_files/12443.got.cif
#   From: 2010.05.17/outbox.cif.g08.bks.cpg/sg131_7_cif.got.tgz:12443.got - 2010.05.20 12:21:01.
