data_PCOD9566171
_publ_section_title
;
Structure prediction by ZEFSAII (Michael W. Deem and Ramdas Pophale) SiO2 
 PCOD9566171
Probable space group: P 42/M M C
;
_chemical_formula_sum "Si O2"
_cell_formula_units_Z 112
_cell_length_a 18.946562
_cell_length_b 18.946562
_cell_length_c 19.084460
_cell_angle_alpha 90.000000
_cell_angle_beta 90.000000
_cell_angle_gamma 90.000000
_cell_volume 6850.790814
_symmetry_space_group_name_H-M "P 42/M M C"
_symmetry_group_IT_number 131
_symmetry_cell_setting 'tetragonal'
loop_
_space_group_symop_operation_xyz
x,y,z
-x,-y,z
-y,x,1/2+z
y,-x,1/2+z
-x,y,-z
x,-y,-z
y,x,1/2-z
-y,-x,1/2-z
-x,-y,-z
x,y,-z
y,-x,1/2-z
-y,x,1/2-z
x,-y,z
-x,y,z
-y,-x,1/2+z
y,x,1/2+z
loop_
_atom_site_type_symbol
_atom_site_label
_atom_site_fract_x
_atom_site_fract_y
_atom_site_fract_z
Si Si1 0.418755 0.189730 0.416991
Si Si2 0.916716 0.849484 0.820351
Si Si3 0.082941 0.804050 0.583116
Si Si4 0.836969 0.293114 0.819050
Si Si5 0.295979 0.808308 0.157932
Si Si6 0.419135 0.725638 0.915402
Si Si7 0.641999 0.422705 0.084449
O O1 0.404880 0.179747 0.500000
O O2 0.500000 0.168327 0.403311
O O3 0.360044 0.153696 0.369012
O O4 0.414662 0.274222 0.402931
O O5 0.880721 0.880721 0.750000
O O6 0.876476 0.887804 0.883796
O O7 0.896936 0.766778 0.824107
O O8 0.000000 0.861023 0.819511
O O9 0.094227 0.802611 0.500000
O O10 0.126248 0.741098 0.619390
O O11 0.000000 0.798080 0.597894
O O12 0.764692 0.252192 0.840352
O O13 0.828098 0.313198 0.737852
O O14 0.363667 0.778786 0.118326
O O15 0.500000 0.741485 0.897705
O O16 0.399180 0.646233 0.890921
O O17 0.411949 0.727472 0.000000
O O18 0.619399 0.500000 0.111295
O O19 0.633563 0.424494 0.000000
#
# Coordination Sequence:
#
# PCOD9566171 Si02
#       7
#    16  16  16  16  16  16  16
#     4   9  17  30  52  80 107 140 185 235 281 321
#     4  11  22  37  57  85 117 147 175 214 267 326
#     4  10  21  37  58  82 108 144 182 215 260 319
#     4  10  19  33  54  79 103 140 185 220 262 322
#     4  10  19  33  50  74 105 136 180 230 270 316
#     4  10  19  29  45  70 100 136 174 220 279 325
#     4   8  14  25  42  66  96 130 169 213 262 317
#
# _framework density 16.348476999999999
#
# number of rings (size 3 to 8) (size 9 to 14) (size 15 to 20)
#    0.000    2.286    4.286    1.714    0.000    4.429 
#    0.000    2.143    0.000    0.857    0.000    5.000 
#    0.000    0.000    0.000    0.000    0.000    0.000 
#
# Total GULP energy -624379.597031 kJ/mol
# GULP energy per Si atom -5574.817831 kJ/mol
# Density = 1.631127 g / cm^3
# Si number density = 16.348477 Si / 1000 Ang^3
#
#
#
# Elastic Constant Matrix: (Units=GPa)
#
#
# Indices 1 2 3 4 5 6 
#
# 1 100.1802 61.8895 56.3354 0.0000 0.0000 0.0000
# 2 61.8895 100.1802 56.3354 0.0000 0.0000 0.0000
# 3 56.3354 56.3354 66.2863 0.0000 0.0000 0.0000
# 4 0.0000 0.0000 0.0000 21.3969 0.0000 0.0000
# 5 0.0000 0.0000 0.0000 0.0000 21.3969 0.0000
# 6 0.0000 0.0000 0.0000 0.0000 0.0000 12.1297
#
#
#
# Elastic Compliance Matrix: (Units=1/GPa)
#
#
# Indices 1 2 3 4 5 6 
#
# 1 0.020598 -0.005518 -0.012816 0.000000 0.000000 0.000000
# 2 -0.005518 0.020598 -0.012816 0.000000 0.000000 0.000000
# 3 -0.012816 -0.012816 0.036870 0.000000 0.000000 0.000000
# 4 0.000000 0.000000 0.000000 0.046736 0.000000 0.000000
# 5 0.000000 0.000000 0.000000 0.000000 0.046736 0.000000
# 6 0.000000 0.000000 0.000000 0.000000 0.000000 0.082442
#
#
# Mechanical properties :
#
#
# Convention : Reuss Voigt Hill
#
# Bulk Modulus (GPa) = 63.42860 68.41857 65.92358
# Shear Modulus (GPa) = 15.55038 17.12383 16.33710
#
# Velocity S-wave (km/s) = 3.08747 3.23991 3.16461
# Velocity P-wave (km/s) = 7.18276 7.47910 7.33243
#
# Compressibility (1/GPa) = 0.01576576
#
# Stress axis : x y z
#
# Youngs Moduli (GPa) = 48.54845 48.54845 27.12203
#
# Poissons Ratio (x) = 0.26789 0.34760
# Poissons Ratio (y) = 0.26789 0.34760
# Poissons Ratio (z) = 0.62220 0.62220
#
# Static dielectric constant tensor:
#      x y z
#    x 1.540460 0.000000 0.000000 
#    y 0.000000 1.540460 0.000000 
#    z 0.000000 0.000000 1.547390 
# 
# From -- ./inp_files/10031.got.cif
#   From: 2010.05.17/outbox.cif.g08.bks.cpg/sg131_6_cif.got.tgz:10031.got - 2010.05.20 12:21:01.
