data_PCOD9566599
_publ_section_title
;
Structure prediction by ZEFSAII (Michael W. Deem and Ramdas Pophale) SiO2 
 PCOD9566599
Probable space group: P 42/M M C
;
_chemical_formula_sum "Si O2"
_cell_formula_units_Z 96
_cell_length_a 14.935923
_cell_length_b 14.935923
_cell_length_c 22.612615
_cell_angle_alpha 90.000000
_cell_angle_beta 90.000000
_cell_angle_gamma 90.000000
_cell_volume 5044.462763
_symmetry_space_group_name_H-M "P 42/M M C"
_symmetry_group_IT_number 131
_symmetry_cell_setting 'tetragonal'
loop_
_space_group_symop_operation_xyz
x,y,z
-x,-y,z
-y,x,1/2+z
y,-x,1/2+z
-x,y,-z
x,-y,-z
y,x,1/2-z
-y,-x,1/2-z
-x,-y,-z
x,y,-z
y,-x,1/2-z
-y,x,1/2-z
x,-y,z
-x,y,z
-y,-x,1/2+z
y,x,1/2+z
loop_
_atom_site_type_symbol
_atom_site_label
_atom_site_fract_x
_atom_site_fract_y
_atom_site_fract_z
Si Si1 0.668960 0.598461 0.570302
Si Si2 0.768506 0.898897 0.931986
Si Si3 0.254847 0.896809 0.244144
Si Si4 0.395779 0.147555 0.142356
Si Si5 0.246008 0.101638 0.620051
Si Si6 0.789191 0.594332 0.929869
O O1 0.694986 0.606883 0.500000
O O2 0.625463 0.500000 0.575478
O O3 0.753207 0.599802 0.614403
O O4 0.613545 0.686191 0.586780
O O5 0.667865 0.899650 0.906285
O O6 0.831163 0.836544 0.891744
O O7 0.802891 0.000000 0.931171
O O8 0.768877 0.866196 0.000000
O O9 0.168814 0.831187 0.250000
O O10 0.334963 0.861565 0.201770
O O11 0.280830 0.899929 0.312807
O O12 0.233439 0.000000 0.225489
O O13 0.500000 0.117332 0.149114
O O14 0.326323 0.144773 0.584447
O O15 0.222595 0.000000 0.602975
O O16 0.818973 0.500000 0.903553
O O17 0.787401 0.588023 0.000000
#
# Coordination Sequence:
#
# PCOD9566599 Si02
#       6
#    16  16  16  16  16  16
#     4   9  17  32  57  87 120 159 199 242 301 370
#     4  11  23  39  62  92 126 163 204 251 308 375
#     4  11  23  40  62  86 115 156 204 251 299 352
#     4  11  22  38  62  92 127 162 198 246 306 370
#     4  11  24  41  61  84 118 161 206 257 305 355
#     4  10  20  35  57  84 115 153 199 252 307 359
#
# _framework density 19.030767999999998
#
# number of rings (size 3 to 8) (size 9 to 14) (size 15 to 20)
#    0.000    1.500    3.333    1.500    0.000    5.500 
#    0.000    7.500    0.000    0.000    0.000    0.000 
#    0.000    0.000    0.000    0.000    0.000    0.000 
#
# Total GULP energy -534501.131139 kJ/mol
# GULP energy per Si atom -5567.720116 kJ/mol
# Density = 1.898745 g / cm^3
# Si number density = 19.030768 Si / 1000 Ang^3
#
#
#
# Elastic Constant Matrix: (Units=GPa)
#
#
# Indices 1 2 3 4 5 6 
#
# 1 102.4091 40.3673 29.7772 0.0000 0.0000 0.0000
# 2 40.3673 102.4076 29.7775 0.0000 0.0000 0.0000
# 3 29.7772 29.7775 80.7335 0.0000 0.0000 0.0000
# 4 0.0000 0.0000 0.0000 883.8293 0.0000 0.0000
# 5 0.0000 0.0000 0.0000 0.0000 883.3602 0.0000
# 6 0.0000 0.0000 0.0000 0.0000 0.0000 -16.6485
#
#
#
# Elastic Compliance Matrix: (Units=1/GPa)
#
#
# Indices 1 2 3 4 5 6 
#
# 1 0.012198 -0.003920 -0.003053 0.000000 0.000000 0.000000
# 2 -0.003920 0.012198 -0.003053 0.000000 0.000000 0.000000
# 3 -0.003053 -0.003053 0.014639 0.000000 0.000000 0.000000
# 4 0.000000 0.000000 0.000000 0.001131 0.000000 0.000000
# 5 0.000000 0.000000 0.000000 0.000000 0.001132 0.000000
# 6 0.000000 0.000000 0.000000 0.000000 0.000000 -0.060065
#
#
# Mechanical properties :
#
#
# Convention : Reuss Voigt Hill
#
# Bulk Modulus (GPa) = 52.68312 53.93269 53.30790
# Shear Modulus (GPa) = 656.80606 362.48340 509.64473
#
# Velocity S-wave (km/s) = 18.59779 13.81614 16.38236
# Velocity P-wave (km/s) = 22.11139 16.82010 19.64471
#
# Compressibility (1/GPa) = 0.01898141
#
# Stress axis : x y z
#
# Youngs Moduli (GPa) = 81.98197 81.98046 68.31272
#
# Poissons Ratio (x) = 0.32140 0.20856
# Poissons Ratio (y) = 0.32141 0.20857
# Poissons Ratio (z) = 0.25029 0.25029
#
# Static dielectric constant tensor:
#      x y z
#    x 1.978640 0.000000 0.000000 
#    y 0.000000 1.982060 0.000000 
#    z 0.000000 0.000000 1.691170 
# 
# From -- ./inp_files/9775.got.cif
#   From: 2010.05.17/outbox.cif.g08.bks.cpg/sg131_5_cif.got.tgz:9775.got - 2010.05.20 12:21:01.
