data_PCOD9566161
_publ_section_title
;
Structure prediction by ZEFSAII (Michael W. Deem and Ramdas Pophale) SiO2 
 PCOD9566161
Probable space group: P 42/M M C
;
_chemical_formula_sum "Si O2"
_cell_formula_units_Z 112
_cell_length_a 14.483978
_cell_length_b 14.483978
_cell_length_c 26.926536
_cell_angle_alpha 90.000000
_cell_angle_beta 90.000000
_cell_angle_gamma 90.000000
_cell_volume 5648.800014
_symmetry_space_group_name_H-M "P 42/M M C"
_symmetry_group_IT_number 131
_symmetry_cell_setting 'tetragonal'
loop_
_space_group_symop_operation_xyz
x,y,z
-x,-y,z
-y,x,1/2+z
y,-x,1/2+z
-x,y,-z
x,-y,-z
y,x,1/2-z
-y,-x,1/2-z
-x,-y,-z
x,y,-z
y,-x,1/2-z
-y,x,1/2-z
x,-y,z
-x,y,z
-y,-x,1/2+z
y,x,1/2+z
loop_
_atom_site_type_symbol
_atom_site_label
_atom_site_fract_x
_atom_site_fract_y
_atom_site_fract_z
Si Si1 0.388816 0.766924 0.443817
Si Si2 0.604665 0.152482 0.345343
Si Si3 0.604532 0.362896 0.308145
Si Si4 0.604005 0.728170 0.099157
Si Si5 0.395643 0.106596 0.757613
Si Si6 0.888087 0.287956 0.645096
Si Si7 0.895314 0.887436 0.806477
O O1 0.371789 0.797187 0.500000
O O2 0.500000 0.754948 0.437325
O O3 0.358288 0.838872 0.400898
O O4 0.337791 0.670435 0.433030
O O5 0.500000 0.113876 0.348459
O O6 0.600810 0.257368 0.325940
O O7 0.649407 0.107765 0.297005
O O8 0.629612 0.370389 0.250000
O O9 0.500000 0.399192 0.313979
O O10 0.677423 0.403153 0.347017
O O11 0.500000 0.739434 0.080053
O O12 0.656780 0.825660 0.106189
O O13 0.500000 0.148251 0.756787
O O14 0.333751 0.141124 0.802165
O O15 0.407457 0.000000 0.769896
O O16 0.861041 0.181039 0.653018
O O17 0.000000 0.294670 0.637782
O O18 0.864963 0.864963 0.750000
O O19 0.000000 0.855976 0.815436
O O20 0.896705 0.000000 0.806446
#
# Coordination Sequence:
#
# PCOD9566161 Si02
#       7
#    16  16  16  16  16  16  16
#     4   9  19  36  56  75  95 124 166 219 276 324
#     4   8  15  28  44  64  90 121 161 205 247 296
#     4  10  19  29  42  62  93 131 165 199 244 298
#     4  11  22  33  48  71  98 130 170 212 251 299
#     4   9  16  26  42  67 102 141 176 207 242 295
#     4  10  20  32  48  73 106 143 176 205 246 303
#     4   8  15  29  47  67  94 128 167 210 249 285
#
# _framework density 19.827221000000002
#
# number of rings (size 3 to 8) (size 9 to 14) (size 15 to 20)
#    0.000    2.714    0.000    3.429    0.000    7.000 
#    0.000    0.714    0.000    0.857    0.000    4.000 
#    0.000    0.000    0.000    3.571    0.000    0.143 
#
# Total GULP energy -623749.642310 kJ/mol
# GULP energy per Si atom -5569.193235 kJ/mol
# Density = 1.978209 g / cm^3
# Si number density = 19.827221 Si / 1000 Ang^3
#
#
#
# Elastic Constant Matrix: (Units=GPa)
#
#
# Indices 1 2 3 4 5 6 
#
# 1 48.7130 11.8015 1.6725 0.0000 0.0000 0.0000
# 2 11.8015 48.7131 1.6723 0.0000 0.0000 0.0000
# 3 1.6725 1.6723 65.0587 0.0000 0.0000 0.0000
# 4 0.0000 0.0000 0.0000 17.8744 0.0000 0.0000
# 5 0.0000 0.0000 0.0000 0.0000 17.8743 0.0000
# 6 0.0000 0.0000 0.0000 0.0000 0.0000 55.1524
#
#
#
# Elastic Compliance Matrix: (Units=1/GPa)
#
#
# Indices 1 2 3 4 5 6 
#
# 1 0.021820 -0.005272 -0.000425 0.000000 0.000000 0.000000
# 2 -0.005272 0.021820 -0.000425 0.000000 0.000000 0.000000
# 3 -0.000425 -0.000425 0.015393 0.000000 0.000000 0.000000
# 4 0.000000 0.000000 0.000000 0.055946 0.000000 0.000000
# 5 0.000000 0.000000 0.000000 0.000000 0.055946 0.000000
# 6 0.000000 0.000000 0.000000 0.000000 0.000000 0.018132
#
#
# Mechanical properties :
#
#
# Convention : Reuss Voigt Hill
#
# Bulk Modulus (GPa) = 21.37303 21.41972 21.39637
# Shear Modulus (GPa) = 23.05238 28.00280 25.52759
#
# Velocity S-wave (km/s) = 3.41348 3.76219 3.59207
# Velocity P-wave (km/s) = 5.13214 5.44965 5.29328
#
# Compressibility (1/GPa) = 0.04678794
#
# Stress axis : x y z
#
# Youngs Moduli (GPa) = 45.82920 45.82933 64.96629
#
# Poissons Ratio (x) = 0.24160 0.02764
# Poissons Ratio (y) = 0.24160 0.02763
# Poissons Ratio (z) = 0.01950 0.01949
#
# Static dielectric constant tensor:
#      x y z
#    x 1.762810 0.000000 0.000000 
#    y 0.000000 1.762810 0.000000 
#    z 0.000000 0.000000 1.707260 
# 
# From -- ./inp_files/12466.got.cif
#   From: 2010.05.17/outbox.cif.g08.bks.cpg/sg131_7_cif.got.tgz:12466.got - 2010.05.20 12:21:01.
