data_PCOD9566656
_publ_section_title
;
Structure prediction by ZEFSAII (Michael W. Deem and Ramdas Pophale) SiO2 
 PCOD9566656
Probable space group: P 42/M M C
;
_chemical_formula_sum "Si O2"
_cell_formula_units_Z 88
_cell_length_a 11.607349
_cell_length_b 11.607349
_cell_length_c 35.296806
_cell_angle_alpha 90.000000
_cell_angle_beta 90.000000
_cell_angle_gamma 90.000000
_cell_volume 4755.558114
_symmetry_space_group_name_H-M "P 42/M M C"
_symmetry_group_IT_number 131
_symmetry_cell_setting 'tetragonal'
loop_
_space_group_symop_operation_xyz
x,y,z
-x,-y,z
-y,x,1/2+z
y,-x,1/2+z
-x,y,-z
x,-y,-z
y,x,1/2-z
-y,-x,1/2-z
-x,-y,-z
x,y,-z
y,-x,1/2-z
-y,x,1/2-z
x,-y,z
-x,y,z
-y,-x,1/2+z
y,x,1/2+z
loop_
_atom_site_type_symbol
_atom_site_label
_atom_site_fract_x
_atom_site_fract_y
_atom_site_fract_z
Si Si1 0.134443 0.637720 0.500000
Si Si2 0.000000 0.137369 0.044225
Si Si3 0.250850 0.633419 0.353042
Si Si4 0.137877 0.500000 0.045805
Si Si5 0.252108 0.767468 0.569085
Si Si6 0.870478 0.726124 0.721256
Si Si7 0.628475 0.500000 0.180756
Si Si8 0.129343 0.500000 0.226898
O O1 0.135336 0.500000 0.500000
O O2 0.201031 0.686867 0.536192
O O3 0.000000 0.676874 0.500000
O O4 0.112712 0.184390 0.064767
O O5 0.000000 0.000000 0.043592
O O6 0.000000 0.178731 0.000000
O O7 0.208742 0.500000 0.354925
O O8 0.232060 0.703308 0.391412
O O9 0.197599 0.699303 0.317058
O O10 0.386486 0.629327 0.344524
O O11 0.199209 0.385512 0.061759
O O12 0.000000 0.500000 0.054780
O O13 0.147171 0.500000 0.000000
O O14 0.817954 0.817954 0.750000
O O15 0.868567 0.609945 0.745983
O O16 0.000000 0.756780 0.710990
O O17 0.500000 0.500000 0.200958
O O18 0.749101 0.500000 0.204160
O O19 0.000000 0.500000 0.207427
#
# Coordination Sequence:
#
# PCOD9566656 Si02
#       8
#     8   8  16   8  16  16   8   8
#     4  11  24  42  65  94 126 168 216 263 318 385
#     4  11  22  41  67  93 125 166 218 272 316 376
#     4  11  24  42  64  95 132 166 208 265 327 385
#     4  11  21  40  68  97 128 172 218 270 329 392
#     4  12  23  42  66  96 130 168 213 266 330 389
#     4  11  23  42  67  93 127 168 213 259 318 383
#     4  10  21  41  67  98 126 167 217 272 321 386
#     4  10  20  39  67  98 126 163 210 263 322 382
#
# _framework density 18.504663999999998
#
# number of rings (size 3 to 8) (size 9 to 14) (size 15 to 20)
#    0.000    1.000    5.455    1.636    0.000    1.636 
#    4.909    1.818    0.000    0.000    0.000    0.000 
#    0.000    0.000    0.000    0.000    0.000    0.000 
#
# Total GULP energy -491222.286443 kJ/mol
# GULP energy per Si atom -5582.071437 kJ/mol
# Density = 1.846255 g / cm^3
# Si number density = 18.504664 Si / 1000 Ang^3
#
#
#
# Elastic Constant Matrix: (Units=GPa)
#
#
# Indices 1 2 3 4 5 6 
#
# 1 124.8170 29.1148 56.2161 0.0000 0.0000 0.0000
# 2 29.1148 124.8170 56.2161 0.0000 0.0000 0.0000
# 3 56.2161 56.2161 125.5753 0.0000 0.0000 0.0000
# 4 0.0000 0.0000 0.0000 8.0154 0.0000 0.0000
# 5 0.0000 0.0000 0.0000 0.0000 8.0154 0.0000
# 6 0.0000 0.0000 0.0000 0.0000 0.0000 61.2184
#
#
#
# Elastic Compliance Matrix: (Units=1/GPa)
#
#
# Indices 1 2 3 4 5 6 
#
# 1 0.010051 -0.000398 -0.004321 0.000000 0.000000 0.000000
# 2 -0.000398 0.010051 -0.004321 0.000000 0.000000 0.000000
# 3 -0.004321 -0.004321 0.011832 0.000000 0.000000 0.000000
# 4 0.000000 0.000000 0.000000 0.124760 0.000000 0.000000
# 5 0.000000 0.000000 0.000000 0.000000 0.124760 0.000000
# 6 0.000000 0.000000 0.000000 0.000000 0.000000 0.016335
#
#
# Mechanical properties :
#
#
# Convention : Reuss Voigt Hill
#
# Bulk Modulus (GPa) = 72.18773 73.14479 72.66626
# Shear Modulus (GPa) = 15.60121 31.02732 23.31426
#
# Velocity S-wave (km/s) = 2.90676 4.09923 3.55338
# Velocity P-wave (km/s) = 7.09654 7.87518 7.49598
#
# Compressibility (1/GPa) = 0.01385277
#
# Stress axis : x y z
#
# Youngs Moduli (GPa) = 99.49438 99.49438 84.51493
#
# Poissons Ratio (x) = 0.03963 0.36520
# Poissons Ratio (y) = 0.03963 0.36520
# Poissons Ratio (z) = 0.42993 0.42993
#
# Static dielectric constant tensor:
#      x y z
#    x 1.638140 0.000000 0.000000 
#    y 0.000000 1.638140 0.000000 
#    z 0.000000 0.000000 1.601510 
# 
# From -- ./inp_files/13613.got.cif
#   From: 2010.05.17/outbox.cif.g08.bks.cpg/sg131_7_cif.got.tgz:13613.got - 2010.05.20 12:21:01.
