data_PCOD9566963
_publ_section_title
;
Structure prediction by ZEFSAII (Michael W. Deem and Ramdas Pophale) SiO2 
 PCOD9566963
Probable space group: P 42/M C M
;
_chemical_formula_sum "Si O2"
_cell_formula_units_Z 96
_cell_length_a 15.453385
_cell_length_b 15.453385
_cell_length_c 20.761167
_cell_angle_alpha 90.000000
_cell_angle_beta 90.000000
_cell_angle_gamma 90.000000
_cell_volume 4957.914249
_symmetry_space_group_name_H-M "P 42/M C M"
_symmetry_group_IT_number 132
_symmetry_cell_setting 'tetragonal'
loop_
_space_group_symop_operation_xyz
x,y,z
-y,x,1/2+z
-x,-y,z
y,-x,1/2+z
x,-y,1/2-z
-x,y,1/2-z
y,x,-z
-y,-x,-z
-x,-y,-z
y,-x,1/2-z
x,y,-z
-y,x,1/2-z
-x,y,1/2+z
x,-y,1/2+z
-y,-x,z
y,x,z
loop_
_atom_site_type_symbol
_atom_site_label
_atom_site_fract_x
_atom_site_fract_y
_atom_site_fract_z
Si Si1 0.474981 0.668071 0.573736
Si Si2 0.622508 0.101481 0.249512
Si Si3 0.196716 0.663584 0.620622
Si Si4 0.716201 0.575329 0.699361
Si Si5 0.944001 0.806260 0.307622
Si Si6 0.793236 0.063037 0.429789
O O1 0.506421 0.667111 0.500000
O O2 0.420235 0.579766 0.584885
O O3 0.405959 0.745781 0.583599
O O4 0.544484 0.686431 0.628889
O O5 0.623399 0.141907 0.321013
O O6 0.582413 0.179131 0.206452
O O7 0.720351 0.093859 0.224389
O O8 0.592425 0.000000 0.250000
O O9 0.264297 0.735704 0.647110
O O10 0.131728 0.715617 0.575277
O O11 0.689899 0.500000 0.750000
O O12 0.663883 0.663883 0.714765
O O13 0.869499 0.869499 0.328740
O O14 0.000000 0.847394 0.250000
O O15 0.001760 0.784558 0.368914
O O16 0.792564 0.020359 0.500000
O O17 0.881222 0.118779 0.423644
#
# Coordination Sequence:
#
# PCOD9566963 Si02
#       6
#    16  16  16  16  16  16
#     4  10  22  41  67  98 131 169 212 262 321 386
#     4  11  22  39  64  91 122 163 212 265 312 373
#     4  10  17  35  62  90 121 156 205 264 317 373
#     4  12  25  42  66  97 134 170 212 264 321 382
#     4  11  21  34  53  78 110 153 207 264 323 385
#     4  10  20  33  52  80 115 156 204 261 324 385
#
# _framework density 19.362981000000001
#
# number of rings (size 3 to 8) (size 9 to 14) (size 15 to 20)
#    0.000    1.333    5.000    3.000    0.000    5.333 
#    0.000    2.500    0.000    3.000    0.000    0.000 
#    0.000    0.000    0.000    0.000    0.000    0.000 
#
# Total GULP energy -535604.410898 kJ/mol
# GULP energy per Si atom -5579.212614 kJ/mol
# Density = 1.931891 g / cm^3
# Si number density = 19.362981 Si / 1000 Ang^3
#
#
#
# Elastic Constant Matrix: (Units=GPa)
#
#
# Indices 1 2 3 4 5 6 
#
# 1 68.7637 45.6959 24.5155 0.0000 0.0000 0.0000
# 2 45.6959 68.7637 24.5155 0.0000 0.0000 0.0000
# 3 24.5155 24.5155 118.0420 0.0000 0.0000 0.0000
# 4 0.0000 0.0000 0.0000 60.0206 0.0000 0.0000
# 5 0.0000 0.0000 0.0000 0.0000 60.0206 0.0000
# 6 0.0000 0.0000 0.0000 0.0000 0.0000 23.3370
#
#
#
# Elastic Compliance Matrix: (Units=1/GPa)
#
#
# Indices 1 2 3 4 5 6 
#
# 1 0.026470 -0.016880 -0.001992 0.000000 0.000000 0.000000
# 2 -0.016880 0.026470 -0.001992 0.000000 0.000000 0.000000
# 3 -0.001992 -0.001992 0.009299 0.000000 0.000000 0.000000
# 4 0.000000 0.000000 0.000000 0.016661 0.000000 0.000000
# 5 0.000000 0.000000 0.000000 0.000000 0.016661 0.000000
# 6 0.000000 0.000000 0.000000 0.000000 0.000000 0.042850
#
#
# Mechanical properties :
#
#
# Convention : Reuss Voigt Hill
#
# Bulk Modulus (GPa) = 48.75216 49.44704 49.09960
# Shear Modulus (GPa) = 26.74137 39.39847 33.06992
#
# Velocity S-wave (km/s) = 3.72029 4.51569 4.13715
# Velocity P-wave (km/s) = 6.60959 7.26505 6.94506
#
# Compressibility (1/GPa) = 0.02051191
#
# Stress axis : x y z
#
# Youngs Moduli (GPa) = 37.77833 37.77833 107.54031
#
# Poissons Ratio (x) = 0.63771 0.21418
# Poissons Ratio (y) = 0.63771 0.21418
# Poissons Ratio (z) = 0.07524 0.07524
#
# Static dielectric constant tensor:
#      x y z
#    x 1.706690 0.000000 0.000000 
#    y 0.000000 1.706690 0.000000 
#    z 0.000000 0.000000 1.653420 
# 
# From -- ./inp_files/7873.got.cif
#   From: 2010.05.17/outbox.cif.g08.bks.cpg/sg132_4_cif.got.tgz:7873.got - 2010.05.20 12:30:18.
