data_PCOD9566642
_publ_section_title
;
Structure prediction by ZEFSAII (Michael W. Deem and Ramdas Pophale) SiO2 
 PCOD9566642
Probable space group: P 42/M M C
;
_chemical_formula_sum "Si O2"
_cell_formula_units_Z 40
_cell_length_a 12.765438
_cell_length_b 12.765438
_cell_length_c 14.523727
_cell_angle_alpha 90.000000
_cell_angle_beta 90.000000
_cell_angle_gamma 90.000000
_cell_volume 2366.734373
_symmetry_space_group_name_H-M "P 42/M M C"
_symmetry_group_IT_number 131
_symmetry_cell_setting 'tetragonal'
loop_
_space_group_symop_operation_xyz
x,y,z
-x,-y,z
-y,x,1/2+z
y,-x,1/2+z
-x,y,-z
x,-y,-z
y,x,1/2-z
-y,-x,1/2-z
-x,-y,-z
x,y,-z
y,-x,1/2-z
-y,x,1/2-z
x,-y,z
-x,y,z
-y,-x,1/2+z
y,x,1/2+z
loop_
_atom_site_type_symbol
_atom_site_label
_atom_site_fract_x
_atom_site_fract_y
_atom_site_fract_z
Si Si1 0.280782 0.268684 0.354819
Si Si2 0.874806 0.373865 0.500000
Si Si3 0.122913 0.623158 0.000000
Si Si4 0.381374 0.500000 0.888400
O O1 0.249459 0.249459 0.250000
O O2 0.190207 0.328470 0.412413
O O3 0.314883 0.166954 0.412307
O O4 0.391096 0.331394 0.356057
O O5 0.866665 0.500000 0.500000
O O6 0.000000 0.347497 0.500000
O O7 0.157090 0.500000 0.000000
O O8 0.000000 0.622459 0.000000
O O9 0.500000 0.500000 0.857985
O O10 0.380008 0.500000 0.000000
#
# Coordination Sequence:
#
# PCOD9566642 Si02
#       4
#    16   8   8   8
#     4  11  22  35  55  84 113 146 188 230 279 336
#     4  10  22  39  56  78 115 157 189 227 275 331
#     4  10  20  38  57  79 114 151 190 233 279 331
#     4  11  20  32  50  79 116 151 177 218 277 342
#
# _framework density 16.900925000000001
#
# number of rings (size 3 to 8) (size 9 to 14) (size 15 to 20)
#    0.000    1.400    6.000    1.200    5.600    1.600 
#    0.000    4.000    0.000    9.600    0.000   11.200 
#    0.000    0.000    0.000    0.000    0.000    0.000 
#
# Total GULP energy -222988.714118 kJ/mol
# GULP energy per Si atom -5574.717853 kJ/mol
# Density = 1.686246 g / cm^3
# Si number density = 16.900925 Si / 1000 Ang^3
#
#
#
# Elastic Constant Matrix: (Units=GPa)
#
#
# Indices 1 2 3 4 5 6 
#
# 1 121.3063 43.8073 45.4098 0.0000 0.0000 0.0000
# 2 43.8073 121.3063 45.4098 0.0000 0.0000 0.0000
# 3 45.4098 45.4098 166.5242 0.0000 0.0000 0.0000
# 4 0.0000 0.0000 0.0000 -14.5036 0.0000 0.0000
# 5 0.0000 0.0000 0.0000 0.0000 -14.5036 0.0000
# 6 0.0000 0.0000 0.0000 0.0000 0.0000 22.7217
#
#
#
# Elastic Compliance Matrix: (Units=1/GPa)
#
#
# Indices 1 2 3 4 5 6 
#
# 1 0.010014 -0.002889 -0.001943 0.000000 0.000000 0.000000
# 2 -0.002889 0.010014 -0.001943 0.000000 0.000000 0.000000
# 3 -0.001943 -0.001943 0.007065 0.000000 0.000000 0.000000
# 4 0.000000 0.000000 0.000000 -0.068948 0.000000 0.000000
# 5 0.000000 0.000000 0.000000 0.000000 -0.068948 0.000000
# 6 0.000000 0.000000 0.000000 0.000000 0.000000 0.044011
#
#
# Mechanical properties :
#
#
# Convention : Reuss Voigt Hill
#
# Bulk Modulus (GPa) = 73.83767 75.37673 74.60720
# Shear Modulus (GPa) = -102.61081 17.04354 -42.78363
#
# Velocity S-wave (km/s) = -7.80032 3.17904 -5.03680
# Velocity P-wave (km/s) = 6.11091 7.62699 3.22706
#
# Compressibility (1/GPa) = 0.01354322
#
# Stress axis : x y z
#
# Youngs Moduli (GPa) = 99.85746 99.85746 141.54685
#
# Poissons Ratio (x) = 0.28850 0.27502
# Poissons Ratio (y) = 0.28850 0.27502
# Poissons Ratio (z) = 0.19402 0.19402
#
# Static dielectric constant tensor:
#      x y z
#    x 1.585830 0.000000 0.000000 
#    y 0.000000 1.585830 0.000000 
#    z 0.000000 0.000000 1.603720 
# 
# From -- ./inp_files/5016.got.cif
#   From: 2010.05.17/outbox.cif.g08.bks.cpg/sg131_3_cif.got.tgz:5016.got - 2010.05.20 12:21:01.
