data_PCOD9566732
_publ_section_title
;
Structure prediction by ZEFSAII (Michael W. Deem and Ramdas Pophale) SiO2 
 PCOD9566732
Probable space group: P 42/M M C
;
_chemical_formula_sum "Si O2"
_cell_formula_units_Z 50
_cell_length_a 7.468037
_cell_length_b 7.468037
_cell_length_c 44.154805
_cell_angle_alpha 90.000000
_cell_angle_beta 90.000000
_cell_angle_gamma 90.000000
_cell_volume 2462.583091
_symmetry_space_group_name_H-M "P 42/M M C"
_symmetry_group_IT_number 131
_symmetry_cell_setting 'tetragonal'
loop_
_space_group_symop_operation_xyz
x,y,z
-x,-y,z
-y,x,1/2+z
y,-x,1/2+z
-x,y,-z
x,-y,-z
y,x,1/2-z
-y,-x,1/2-z
-x,-y,-z
x,y,-z
y,-x,1/2-z
-y,x,1/2-z
x,-y,z
-x,y,z
-y,-x,1/2+z
y,x,1/2+z
loop_
_atom_site_type_symbol
_atom_site_label
_atom_site_fract_x
_atom_site_fract_y
_atom_site_fract_z
Si Si1 0.294122 0.718222 0.418182
Si Si2 0.000000 0.719172 0.465383
Si Si3 0.000000 0.716669 0.697612
Si Si4 0.000000 0.000000 0.750000
Si Si5 0.717626 0.294663 0.149140
O O1 0.290041 0.500000 0.418168
O O2 0.500000 0.772289 0.421812
O O3 0.170331 0.776894 0.445613
O O4 0.233009 0.774329 0.384489
O O5 0.000000 0.500000 0.465987
O O6 0.000000 0.779436 0.500000
O O7 0.169231 0.768888 0.676734
O O8 0.000000 0.500000 0.701993
O O9 0.000000 0.826576 0.728404
O O10 0.774417 0.500000 0.153007
O O11 0.500000 0.292703 0.148637
#
# Coordination Sequence:
#
# PCOD9566732 Si02
#       5
#    16   8   8   2  16
#     4   8  13  21  34  54  78 105 150 209 252 289
#     4   9  15  19  24  40  74 123 167 199 246 309
#     4  10  21  38  56  73 102 136 163 202 246 291
#     4  12  28  40  52  84 112 136 174 196 236 312
#     4   8  14  27  50  74  90 116 164 214 259 301
#
# _framework density 20.303885999999999
#
# number of rings (size 3 to 8) (size 9 to 14) (size 15 to 20)
#    0.000    3.360    0.000    2.880    0.000    5.760 
#    0.000    3.200    0.000    0.000    0.000    0.000 
#    0.000    0.000    0.000   11.520    0.000   74.240 
#
# Total GULP energy -278998.464914 kJ/mol
# GULP energy per Si atom -5579.969298 kJ/mol
# Density = 2.025767 g / cm^3
# Si number density = 20.303886 Si / 1000 Ang^3
#
#
#
# Elastic Constant Matrix: (Units=GPa)
#
#
# Indices 1 2 3 4 5 6 
#
# 1 82.3888 23.3852 74.6637 0.0000 0.0000 0.0000
# 2 23.3852 82.3888 74.6637 0.0000 0.0000 0.0000
# 3 74.6637 74.6637 227.4409 0.0000 0.0000 0.0000
# 4 0.0000 0.0000 0.0000 -95.5892 0.0000 0.0000
# 5 0.0000 0.0000 0.0000 0.0000 -95.5892 0.0000
# 6 0.0000 0.0000 0.0000 0.0000 0.0000 -6.3712
#
#
#
# Elastic Compliance Matrix: (Units=1/GPa)
#
#
# Indices 1 2 3 4 5 6 
#
# 1 0.017284 0.000336 -0.005784 0.000000 0.000000 0.000000
# 2 0.000336 0.017284 -0.005784 0.000000 0.000000 0.000000
# 3 -0.005784 -0.005784 0.008194 0.000000 0.000000 0.000000
# 4 0.000000 0.000000 0.000000 -0.010461 0.000000 0.000000
# 5 0.000000 0.000000 0.000000 0.000000 -0.010461 0.000000
# 6 0.000000 0.000000 0.000000 0.000000 0.000000 -0.156956
#
#
# Mechanical properties :
#
#
# Convention : Reuss Voigt Hill
#
# Bulk Modulus (GPa) = 49.26701 81.96041 65.61371
# Shear Modulus (GPa) = -47.22081 -24.87619 -36.04850
#
# Velocity S-wave (km/s) = -4.82779 -3.50407 -4.21818
# Velocity P-wave (km/s) = 2.59985 4.90745 2.94312
#
# Compressibility (1/GPa) = 0.02029756
#
# Stress axis : x y z
#
# Youngs Moduli (GPa) = 57.85655 57.85655 122.03390
#
# Poissons Ratio (x) = -0.01944 0.70588
# Poissons Ratio (y) = -0.01944 0.70588
# Poissons Ratio (z) = 0.33466 0.33466
#
# Static dielectric constant tensor:
#      x y z
#    x 1.767530 0.000000 0.000000 
#    y 0.000000 1.767530 0.000000 
#    z 0.000000 0.000000 1.669680 
# 
# From -- ./inp_files/12970.got.cif
#   From: 2010.05.17/outbox.cif.g08.bks.cpg/sg131_7_cif.got.tgz:12970.got - 2010.05.20 12:21:01.
