data_PCOD9566167
_publ_section_title
;
Structure prediction by ZEFSAII (Michael W. Deem and Ramdas Pophale) SiO2 
 PCOD9566167
Probable space group: P 42/M M C
;
_chemical_formula_sum "Si O2"
_cell_formula_units_Z 104
_cell_length_a 27.290392
_cell_length_b 27.290392
_cell_length_c 8.843555
_cell_angle_alpha 90.000000
_cell_angle_beta 90.000000
_cell_angle_gamma 90.000000
_cell_volume 6586.374622
_symmetry_space_group_name_H-M "P 42/M M C"
_symmetry_group_IT_number 131
_symmetry_cell_setting 'tetragonal'
loop_
_space_group_symop_operation_xyz
x,y,z
-x,-y,z
-y,x,1/2+z
y,-x,1/2+z
-x,y,-z
x,-y,-z
y,x,1/2-z
-y,-x,1/2-z
-x,-y,-z
x,y,-z
y,-x,1/2-z
-y,x,1/2-z
x,-y,z
-x,y,z
-y,-x,1/2+z
y,x,1/2+z
loop_
_atom_site_type_symbol
_atom_site_label
_atom_site_fract_x
_atom_site_fract_y
_atom_site_fract_z
Si Si1 0.500000 0.942933 0.181306
Si Si2 0.268232 0.344415 0.680592
Si Si3 0.240407 0.445244 0.181877
Si Si4 0.155846 0.680147 0.318006
Si Si5 0.868778 0.056193 0.182517
Si Si6 0.872249 0.419996 0.180461
Si Si7 0.135432 0.210356 0.682095
O O1 0.453141 0.913549 0.243826
O O2 0.500000 0.000000 0.227580
O O3 0.500000 0.940877 0.000000
O O4 0.309749 0.309749 0.750000
O O5 0.272642 0.344518 0.500000
O O6 0.268291 0.400000 0.742231
O O7 0.213779 0.323992 0.719730
O O8 0.256447 0.500000 0.226313
O O9 0.182453 0.439783 0.219218
O O10 0.244448 0.440904 0.000000
O O11 0.151606 0.674937 0.500000
O O12 0.128133 0.635583 0.238678
O O13 0.136078 0.733189 0.271756
O O14 0.914849 0.085152 0.250000
O O15 0.820606 0.087386 0.226221
O O16 0.866636 0.000000 0.231915
O O17 0.872009 0.057186 0.000000
O O18 0.877267 0.422419 0.000000
O O19 0.181492 0.181492 0.750000
O O20 0.139209 0.209069 0.500000
#
# Coordination Sequence:
#
# PCOD9566167 Si02
#       7
#     8  16  16  16  16  16  16
#     4  11  23  37  53  71  93 123 159 203 252 295
#     4  10  19  29  43  67  98 130 161 197 240 283
#     4   9  17  31  49  69  94 125 161 198 240 289
#     4   9  18  31  47  70  97 126 159 195 237 287
#     4   9  18  32  49  69  91 117 149 185 229 279
#     4  10  19  33  52  73  95 122 159 201 244 288
#     4   9  17  30  48  68  94 125 159 194 231 281
#
# _framework density 15.790172999999999
#
# number of rings (size 3 to 8) (size 9 to 14) (size 15 to 20)
#    0.000    2.538    0.769    1.615    0.000    3.231 
#    0.000    1.538    0.000    2.769    0.000    0.000 
#    0.000    0.308    0.000    3.231    0.000    1.385 
#
# Total GULP energy -579911.579494 kJ/mol
# GULP energy per Si atom -5576.072880 kJ/mol
# Density = 1.575423 g / cm^3
# Si number density = 15.790173 Si / 1000 Ang^3
#
#
#
# Elastic Constant Matrix: (Units=GPa)
#
#
# Indices 1 2 3 4 5 6 
#
# 1 138.1996 76.3434 40.3213 0.0000 0.0000 0.0000
# 2 76.3434 138.2027 40.3213 0.0000 0.0000 0.0000
# 3 40.3213 40.3213 27.3116 0.0000 0.0000 0.0000
# 4 0.0000 0.0000 0.0000 24.3691 0.0000 0.0000
# 5 0.0000 0.0000 0.0000 0.0000 24.3692 0.0000
# 6 0.0000 0.0000 0.0000 0.0000 0.0000 16.7073
#
#
#
# Elastic Compliance Matrix: (Units=1/GPa)
#
#
# Indices 1 2 3 4 5 6 
#
# 1 0.013320 -0.002847 -0.015461 0.000000 0.000000 0.000000
# 2 -0.002847 0.013319 -0.015461 0.000000 0.000000 0.000000
# 3 -0.015461 -0.015461 0.082266 0.000000 0.000000 0.000000
# 4 0.000000 0.000000 0.000000 0.041036 0.000000 0.000000
# 5 0.000000 0.000000 0.000000 0.000000 0.041035 0.000000
# 6 0.000000 0.000000 0.000000 0.000000 0.000000 0.059854
#
#
# Mechanical properties :
#
#
# Convention : Reuss Voigt Hill
#
# Bulk Modulus (GPa) = 24.17385 68.63176 46.40281
# Shear Modulus (GPa) = 15.05315 22.87098 18.96206
#
# Velocity S-wave (km/s) = 3.09094 3.80995 3.46913
# Velocity P-wave (km/s) = 5.29917 7.93181 6.74518
#
# Compressibility (1/GPa) = 0.04136701
#
# Stress axis : x y z
#
# Youngs Moduli (GPa) = 75.07749 75.08050 12.15568
#
# Poissons Ratio (x) = 0.21374 0.18794
# Poissons Ratio (y) = 0.21373 0.18793
# Poissons Ratio (z) = 1.16080 1.16079
#
# Static dielectric constant tensor:
#      x y z
#    x 1.514880 0.000000 0.000000 
#    y 0.000000 1.514880 0.000000 
#    z 0.000000 0.000000 1.530250 
# 
# From -- ./inp_files/2534.got.cif
#   From: 2010.05.17/outbox.cif.g08.bks.cpg/sg131_2_cif.got.tgz:2534.got - 2010.05.20 12:21:01.
