data_PCOD9566935
_publ_section_title
;
Structure prediction by ZEFSAII (Michael W. Deem and Ramdas Pophale) SiO2 
 PCOD9566935
Probable space group: P 42/M C M
;
_chemical_formula_sum "Si O2"
_cell_formula_units_Z 72
_cell_length_a 15.725335
_cell_length_b 15.725335
_cell_length_c 18.898400
_cell_angle_alpha 90.000000
_cell_angle_beta 90.000000
_cell_angle_gamma 90.000000
_cell_volume 4673.312782
_symmetry_space_group_name_H-M "P 42/M C M"
_symmetry_group_IT_number 132
_symmetry_cell_setting 'tetragonal'
loop_
_space_group_symop_operation_xyz
x,y,z
-y,x,1/2+z
-x,-y,z
y,-x,1/2+z
x,-y,1/2-z
-x,y,1/2-z
y,x,-z
-y,-x,-z
-x,-y,-z
y,-x,1/2-z
x,y,-z
-y,x,1/2-z
-x,y,1/2+z
x,-y,1/2+z
-y,-x,z
y,x,z
loop_
_atom_site_type_symbol
_atom_site_label
_atom_site_fract_x
_atom_site_fract_y
_atom_site_fract_z
Si Si1 0.340068 0.196827 0.420468
Si Si2 0.865804 0.274693 0.708506
Si Si3 0.255918 0.959911 0.858748
Si Si4 0.595747 0.737767 0.725658
Si Si5 0.931566 0.931566 0.415343
O O1 0.373289 0.209882 0.500000
O O2 0.252982 0.252982 0.414557
O O3 0.315211 0.099026 0.407370
O O4 0.397297 0.228799 0.355406
O O5 0.802704 0.197297 0.689492
O O6 0.910845 0.253999 0.783496
O O7 0.807722 0.356536 0.725281
O O8 0.943632 0.285525 0.654464
O O9 0.161179 0.957306 0.888632
O O10 0.500000 0.725237 0.750000
O O11 0.652907 0.652907 0.729799
O O12 0.930553 0.930553 0.500000
O O13 0.000000 0.000000 0.389889
#
# Coordination Sequence:
#
# PCOD9566935 Si02
#       5
#    16  16  16  16   8
#     4   9  16  29  50  72  97 129 165 205 242 282
#     4   9  17  29  43  63  94 127 162 200 242 291
#     4  10  16  27  42  63  89 127 169 203 242 272
#     4   9  18  33  54  78  99 122 153 197 252 310
#     4  11  20  26  36  60  94 128 167 213 247 272
#
# _framework density 15.406629000000001
#
# number of rings (size 3 to 8) (size 9 to 14) (size 15 to 20)
#    0.000    2.556    2.222    2.667    0.000    0.222 
#    0.000    8.889    0.000    4.667    0.000    9.333 
#    0.000    0.000    0.000    0.000    0.000    0.000 
#
# Total GULP energy -401041.397860 kJ/mol
# GULP energy per Si atom -5570.019415 kJ/mol
# Density = 1.537156 g / cm^3
# Si number density = 15.406629 Si / 1000 Ang^3
#
#
#
# Elastic Constant Matrix: (Units=GPa)
#
#
# Indices 1 2 3 4 5 6 
#
# 1 108.0664 48.5175 42.3088 0.0000 0.0000 0.0000
# 2 48.5175 108.0664 42.3088 0.0000 0.0000 0.0000
# 3 42.3088 42.3088 65.9485 0.0000 0.0000 0.0000
# 4 0.0000 0.0000 0.0000 11.0532 0.0000 0.0000
# 5 0.0000 0.0000 0.0000 0.0000 11.0532 0.0000
# 6 0.0000 0.0000 0.0000 0.0000 0.0000 6.9033
#
#
#
# Elastic Compliance Matrix: (Units=1/GPa)
#
#
# Indices 1 2 3 4 5 6 
#
# 1 0.013284 -0.003509 -0.006271 0.000000 0.000000 0.000000
# 2 -0.003509 0.013284 -0.006271 0.000000 0.000000 0.000000
# 3 -0.006271 -0.006271 0.023210 0.000000 0.000000 0.000000
# 4 0.000000 0.000000 0.000000 0.090471 0.000000 0.000000
# 5 0.000000 0.000000 0.000000 0.000000 0.090471 0.000000
# 6 0.000000 0.000000 0.000000 0.000000 0.000000 0.144858
#
#
# Mechanical properties :
#
#
# Convention : Reuss Voigt Hill
#
# Bulk Modulus (GPa) = 56.57564 60.92794 58.75179
# Shear Modulus (GPa) = 12.08974 15.73170 13.91072
#
# Velocity S-wave (km/s) = 2.80431 3.19893 3.00810
# Velocity P-wave (km/s) = 6.87654 7.29909 7.09096
#
# Compressibility (1/GPa) = 0.01767545
#
# Stress axis : x y z
#
# Youngs Moduli (GPa) = 75.27779 75.27779 43.08489
#
# Poissons Ratio (x) = 0.26413 0.27020
# Poissons Ratio (y) = 0.26413 0.27020
# Poissons Ratio (z) = 0.47209 0.47209
#
# Static dielectric constant tensor:
#      x y z
#    x 1.500980 0.000000 0.000000 
#    y 0.000000 1.500980 0.000000 
#    z 0.000000 0.000000 1.529750 
# 
# From -- ./inp_files/6129.got.cif
#   From: 2010.05.17/outbox.cif.g08.bks.cpg/sg132_4_cif.got.tgz:6129.got - 2010.05.20 12:30:18.
