data_PCOD9566035
_publ_section_title
;
Structure prediction by ZEFSAII (Michael W. Deem and Ramdas Pophale) SiO2 
 PCOD9566035
Probable space group: P 42/M M C
;
_chemical_formula_sum "Si O2"
_cell_formula_units_Z 42
_cell_length_a 11.215462
_cell_length_b 11.215462
_cell_length_c 15.891059
_cell_angle_alpha 90.000000
_cell_angle_beta 90.000000
_cell_angle_gamma 90.000000
_cell_volume 1998.882089
_symmetry_space_group_name_H-M "P 42/M M C"
_symmetry_group_IT_number 131
_symmetry_cell_setting 'tetragonal'
loop_
_space_group_symop_operation_xyz
x,y,z
-x,-y,z
-y,x,1/2+z
y,-x,1/2+z
-x,y,-z
x,-y,-z
y,x,1/2-z
-y,-x,1/2-z
-x,-y,-z
x,y,-z
y,-x,1/2-z
-y,x,1/2-z
x,-y,z
-x,y,z
-y,-x,1/2+z
y,x,1/2+z
loop_
_atom_site_type_symbol
_atom_site_label
_atom_site_fract_x
_atom_site_fract_y
_atom_site_fract_z
Si Si1 0.359534 0.000000 0.353744
Si Si2 0.000000 0.000000 0.750000
Si Si3 0.500000 0.359272 0.406109
Si Si4 0.263607 0.000000 0.833966
Si Si5 0.246678 0.743678 0.850651
O O1 0.342760 0.000000 0.251688
O O2 0.292479 0.882792 0.384510
O O3 0.500000 0.000000 0.373437
O O4 0.122916 0.000000 0.804297
O O5 0.500000 0.500000 0.410422
O O6 0.500000 0.306814 0.500000
O O7 0.375325 0.322368 0.364697
O O8 0.286345 0.125454 0.880852
O O9 0.239248 0.760753 0.750000
#
# Coordination Sequence:
#
# PCOD9566035 Si02
#       5
#     8   2   8   8  16
#     4  10  16  28  50  87 118 141 188 247 286 345
#     4  12  12  28  52  88 134 148 172 244 322 332
#     4  11  26  43  57  81 119 160 204 256 303 354
#     4  10  18  30  53  89 121 156 186 248 306 358
#     4  10  20  34  60  87 119 152 199 242 300 363
#
# _framework density 21.011745999999999
#
# number of rings (size 3 to 8) (size 9 to 14) (size 15 to 20)
#    0.000    1.714    7.619    0.000    2.667    1.524 
#    0.000    2.857    0.000    2.286    0.000    4.000 
#    0.000    0.000    0.000    0.000    0.000    0.000 
#
# Total GULP energy -234050.244560 kJ/mol
# GULP energy per Si atom -5572.624870 kJ/mol
# Density = 2.096392 g / cm^3
# Si number density = 21.011746 Si / 1000 Ang^3
#
#
#
# Elastic Constant Matrix: (Units=GPa)
#
#
# Indices 1 2 3 4 5 6 
#
# 1 148.3410 30.2520 4.5040 0.0000 0.0000 0.0000
# 2 30.2520 148.3407 4.5037 0.0000 0.0000 0.0000
# 3 4.5040 4.5037 12.9212 0.0000 0.0000 0.0000
# 4 0.0000 0.0000 0.0000 -122.6168 0.0000 0.0000
# 5 0.0000 0.0000 0.0000 0.0000 -122.6725 0.0000
# 6 0.0000 0.0000 0.0000 0.0000 0.0000 17.0945
#
#
#
# Elastic Compliance Matrix: (Units=1/GPa)
#
#
# Indices 1 2 3 4 5 6 
#
# 1 0.007084 -0.001384 -0.001987 0.000000 0.000000 0.000000
# 2 -0.001384 0.007084 -0.001987 0.000000 0.000000 0.000000
# 3 -0.001987 -0.001987 0.078777 0.000000 0.000000 0.000000
# 4 0.000000 0.000000 0.000000 -0.008155 0.000000 0.000000
# 5 0.000000 0.000000 0.000000 0.000000 -0.008152 0.000000
# 6 0.000000 0.000000 0.000000 0.000000 0.000000 0.058498
#
#
# Mechanical properties :
#
#
# Convention : Reuss Voigt Hill
#
# Bulk Modulus (GPa) = 12.16106 43.12470 27.64288
# Shear Modulus (GPa) = 28.85816 -27.61608 0.62104
#
# Velocity S-wave (km/s) = 3.71000 -3.62928 0.54425
# Velocity P-wave (km/s) = 4.91452 1.73389 3.68503
#
# Compressibility (1/GPa) = 0.08222969
#
# Stress axis : x y z
#
# Youngs Moduli (GPa) = 141.16590 141.16586 12.69403
#
# Poissons Ratio (x) = 0.19542 0.02522
# Poissons Ratio (y) = 0.19542 0.02522
# Poissons Ratio (z) = 0.28046 0.28043
#
# Static dielectric constant tensor:
#      x y z
#    x 1.847760 0.000000 0.000000 
#    y 0.000000 1.847760 0.000000 
#    z 0.000000 0.000000 1.765740 
# 
# From -- ./inp_files/6931.got.cif
#   From: 2010.05.17/outbox.cif.g08.bks.cpg/sg131_4_cif.got.tgz:6931.got - 2010.05.20 12:21:01.
