data_PCOD9566513
_publ_section_title
;
Structure prediction by ZEFSAII (Michael W. Deem and Ramdas Pophale) SiO2 
 PCOD9566513
Probable space group: P 42/M M C
;
_chemical_formula_sum "Si O2"
_cell_formula_units_Z 96
_cell_length_a 14.678358
_cell_length_b 14.678358
_cell_length_c 25.324357
_cell_angle_alpha 90.000000
_cell_angle_beta 90.000000
_cell_angle_gamma 90.000000
_cell_volume 5456.238915
_symmetry_space_group_name_H-M "P 42/M M C"
_symmetry_group_IT_number 131
_symmetry_cell_setting 'tetragonal'
loop_
_space_group_symop_operation_xyz
x,y,z
-x,-y,z
-y,x,1/2+z
y,-x,1/2+z
-x,y,-z
x,-y,-z
y,x,1/2-z
-y,-x,1/2-z
-x,-y,-z
x,y,-z
y,-x,1/2-z
-y,x,1/2-z
x,-y,z
-x,y,z
-y,-x,1/2+z
y,x,1/2+z
loop_
_atom_site_type_symbol
_atom_site_label
_atom_site_fract_x
_atom_site_fract_y
_atom_site_fract_z
Si Si1 0.108190 0.206912 0.296592
Si Si2 0.106019 0.401036 0.563692
Si Si3 0.605635 0.181463 0.376350
Si Si4 0.889975 0.889564 0.000000
Si Si5 0.397333 0.108622 0.258449
Si Si6 0.000000 0.391084 0.058910
Si Si7 0.219526 0.797872 0.096280
O O1 0.141330 0.141330 0.250000
O O2 0.128911 0.311504 0.278781
O O3 0.164773 0.182011 0.348412
O O4 0.000000 0.200059 0.305794
O O5 0.110200 0.395482 0.500000
O O6 0.141927 0.500000 0.579745
O O7 0.156012 0.316357 0.587362
O O8 0.000000 0.396574 0.578642
O O9 0.500000 0.207110 0.388184
O O10 0.611300 0.162189 0.313810
O O11 0.628558 0.087825 0.406764
O O12 0.690015 0.239113 0.397847
O O13 0.845901 0.836713 0.949916
O O14 0.000000 0.883944 0.000000
O O15 0.866416 0.000000 0.000000
O O16 0.500000 0.125928 0.237149
O O17 0.392920 0.000000 0.270423
O O18 0.000000 0.500000 0.053007
O O19 0.000000 0.350471 0.000000
#
# Coordination Sequence:
#
# PCOD9566513 Si02
#       7
#    16  16  16   8  16   8  16
#     4  11  23  37  54  80 110 147 192 233 279 336
#     4   9  18  35  60  86 111 142 185 241 297 338
#     4  10  20  33  53  80 112 148 188 235 283 337
#     4  11  26  42  56  82 120 163 200 230 276 342
#     4   9  17  34  57  79 106 141 183 236 293 337
#     4   9  18  30  48  76 108 142 186 235 276 319
#     4  12  23  37  61  84 115 151 193 237 287 343
#
# _framework density 17.594536999999999
#
# number of rings (size 3 to 8) (size 9 to 14) (size 15 to 20)
#    0.000    1.833    3.333    2.000    2.333    1.500 
#    0.000    1.667    0.000    0.500    0.000    1.167 
#    0.000    0.333    0.000    0.000    0.000    0.000 
#
# Total GULP energy -535141.285794 kJ/mol
# GULP energy per Si atom -5574.388394 kJ/mol
# Density = 1.755449 g / cm^3
# Si number density = 17.594537 Si / 1000 Ang^3
#
#
#
# Elastic Constant Matrix: (Units=GPa)
#
#
# Indices 1 2 3 4 5 6 
#
# 1 62.4628 5.9657 20.7323 0.0000 0.0000 0.0000
# 2 5.9657 62.4628 20.7323 0.0000 0.0000 0.0000
# 3 20.7323 20.7323 77.0390 0.0000 0.0000 0.0000
# 4 0.0000 0.0000 0.0000 18.2458 0.0000 0.0000
# 5 0.0000 0.0000 0.0000 0.0000 18.2458 0.0000
# 6 0.0000 0.0000 0.0000 0.0000 0.0000 4.1893
#
#
#
# Elastic Compliance Matrix: (Units=1/GPa)
#
#
# Indices 1 2 3 4 5 6 
#
# 1 0.017581 -0.000119 -0.004699 0.000000 0.000000 0.000000
# 2 -0.000119 0.017581 -0.004699 0.000000 0.000000 0.000000
# 3 -0.004699 -0.004699 0.015510 0.000000 0.000000 0.000000
# 4 0.000000 0.000000 0.000000 0.054807 0.000000 0.000000
# 5 0.000000 0.000000 0.000000 0.000000 0.054807 0.000000
# 6 0.000000 0.000000 0.000000 0.000000 0.000000 0.238701
#
#
# Mechanical properties :
#
#
# Convention : Reuss Voigt Hill
#
# Bulk Modulus (GPa) = 31.60977 32.98057 32.29517
# Shear Modulus (GPa) = 11.66680 18.43849 15.05264
#
# Velocity S-wave (km/s) = 2.57785 3.24074 2.92812
# Velocity P-wave (km/s) = 5.18316 5.72614 5.46140
#
# Compressibility (1/GPa) = 0.03163579
#
# Stress axis : x y z
#
# Youngs Moduli (GPa) = 56.88088 56.88088 64.47619
#
# Poissons Ratio (x) = 0.00679 0.30298
# Poissons Ratio (y) = 0.00679 0.30298
# Poissons Ratio (z) = 0.26729 0.26729
#
# Static dielectric constant tensor:
#      x y z
#    x 1.610570 0.000000 0.000000 
#    y 0.000000 1.610570 0.000000 
#    z 0.000000 0.000000 1.669750 
# 
# From -- ./inp_files/11193.got.cif
#   From: 2010.05.17/outbox.cif.g08.bks.cpg/sg131_6_cif.got.tgz:11193.got - 2010.05.20 12:21:01.
