data_PCOD9566682
_publ_section_title
;
Structure prediction by ZEFSAII (Michael W. Deem and Ramdas Pophale) SiO2 
 PCOD9566682
Probable space group: P 42/M M C
;
_chemical_formula_sum "Si O2"
_cell_formula_units_Z 64
_cell_length_a 13.625791
_cell_length_b 13.625791
_cell_length_c 19.930072
_cell_angle_alpha 90.000000
_cell_angle_beta 90.000000
_cell_angle_gamma 90.000000
_cell_volume 3700.260623
_symmetry_space_group_name_H-M "P 42/M M C"
_symmetry_group_IT_number 131
_symmetry_cell_setting 'tetragonal'
loop_
_space_group_symop_operation_xyz
x,y,z
-x,-y,z
-y,x,1/2+z
y,-x,1/2+z
-x,y,-z
x,-y,-z
y,x,1/2-z
-y,-x,1/2-z
-x,-y,-z
x,y,-z
y,-x,1/2-z
-y,x,1/2-z
x,-y,z
-x,y,z
-y,-x,1/2+z
y,x,1/2+z
loop_
_atom_site_type_symbol
_atom_site_label
_atom_site_fract_x
_atom_site_fract_y
_atom_site_fract_z
Si Si1 0.777793 0.109810 0.154200
Si Si2 0.295688 0.889653 0.692005
Si Si3 0.682712 0.612886 0.823462
Si Si4 0.217506 0.388133 0.420954
O O1 0.728804 0.113775 0.228469
O O2 0.860562 0.193594 0.155481
O O3 0.692357 0.139037 0.102828
O O4 0.814945 0.000000 0.143336
O O5 0.368435 0.800217 0.676462
O O6 0.327638 0.000000 0.675262
O O7 0.644297 0.644297 0.750000
O O8 0.659740 0.500000 0.836029
O O9 0.635253 0.685574 0.877612
O O10 0.236440 0.379239 0.500000
O O11 0.185625 0.500000 0.406876
#
# Coordination Sequence:
#
# PCOD9566682 Si02
#       4
#    16  16  16  16
#     4   9  17  31  51  77 108 140 173 210 256 310
#     4   9  17  32  53  79 107 134 170 216 262 307
#     4  11  21  35  54  77 104 136 178 224 269 314
#     4  10  21  36  52  75 109 144 178 217 263 316
#
# _framework density 17.296078000000001
#
# number of rings (size 3 to 8) (size 9 to 14) (size 15 to 20)
#    0.000    2.250    5.000    0.750    0.000    4.250 
#    0.000    7.500    0.000   12.000    0.000   14.000 
#    0.000    0.000    0.000    0.000    0.000    0.000 
#
# Total GULP energy -356776.687351 kJ/mol
# GULP energy per Si atom -5574.635740 kJ/mol
# Density = 1.725671 g / cm^3
# Si number density = 17.296078 Si / 1000 Ang^3
#
#
#
# Elastic Constant Matrix: (Units=GPa)
#
#
# Indices 1 2 3 4 5 6 
#
# 1 45.5564 -19.9564 10.7589 0.0000 0.0000 0.0000
# 2 -19.9564 45.5564 10.7589 0.0000 0.0000 0.0000
# 3 10.7589 10.7589 57.1430 0.0000 0.0000 0.0000
# 4 0.0000 0.0000 0.0000 12.0336 0.0000 0.0000
# 5 0.0000 0.0000 0.0000 0.0000 12.0336 0.0000
# 6 0.0000 0.0000 0.0000 0.0000 0.0000 2.7104
#
#
#
# Elastic Compliance Matrix: (Units=1/GPa)
#
#
# Indices 1 2 3 4 5 6 
#
# 1 0.030835 0.015571 -0.008737 0.000000 0.000000 0.000000
# 2 0.015571 0.030835 -0.008737 0.000000 0.000000 0.000000
# 3 -0.008737 -0.008737 0.020790 0.000000 0.000000 0.000000
# 4 0.000000 0.000000 0.000000 0.083101 0.000000 0.000000
# 5 0.000000 0.000000 0.000000 0.000000 0.083101 0.000000
# 6 0.000000 0.000000 0.000000 0.000000 0.000000 0.368944
#
#
# Mechanical properties :
#
#
# Convention : Reuss Voigt Hill
#
# Bulk Modulus (GPa) = 12.71398 16.81984 14.76691
# Shear Modulus (GPa) = 7.72044 15.13517 11.42780
#
# Velocity S-wave (km/s) = 2.11504 2.96136 2.57323
# Velocity P-wave (km/s) = 3.65120 4.63018 4.16952
#
# Compressibility (1/GPa) = 0.07865357
#
# Stress axis : x y z
#
# Youngs Moduli (GPa) = 32.43029 32.43029 48.09980
#
# Poissons Ratio (x) = -0.50498 0.42027
# Poissons Ratio (y) = -0.50498 0.42027
# Poissons Ratio (z) = 0.28336 0.28336
#
# Static dielectric constant tensor:
#      x y z
#    x 1.586990 0.000000 0.000000 
#    y 0.000000 1.586990 0.000000 
#    z 0.000000 0.000000 1.565830 
# 
# From -- ./inp_files/7315.got.cif
#   From: 2010.05.17/outbox.cif.g08.bks.cpg/sg131_4_cif.got.tgz:7315.got - 2010.05.20 12:21:01.
