data_PCOD9566577
_publ_section_title
;
Structure prediction by ZEFSAII (Michael W. Deem and Ramdas Pophale) SiO2 
 PCOD9566577
Probable space group: P 42/M M C
;
_chemical_formula_sum "Si O2"
_cell_formula_units_Z 120
_cell_length_a 28.581090
_cell_length_b 28.581090
_cell_length_c 8.322942
_cell_angle_alpha 90.000000
_cell_angle_beta 90.000000
_cell_angle_gamma 90.000000
_cell_volume 6798.834088
_symmetry_space_group_name_H-M "P 42/M M C"
_symmetry_group_IT_number 131
_symmetry_cell_setting 'tetragonal'
loop_
_space_group_symop_operation_xyz
x,y,z
-x,-y,z
-y,x,1/2+z
y,-x,1/2+z
-x,y,-z
x,-y,-z
y,x,1/2-z
-y,-x,1/2-z
-x,-y,-z
x,y,-z
y,-x,1/2-z
-y,x,1/2-z
x,-y,z
-x,y,z
-y,-x,1/2+z
y,x,1/2+z
loop_
_atom_site_type_symbol
_atom_site_label
_atom_site_fract_x
_atom_site_fract_y
_atom_site_fract_z
Si Si1 0.880570 0.687341 0.307084
Si Si2 0.943426 0.500000 0.816446
Si Si3 0.127275 0.053203 0.308230
Si Si4 0.553008 0.628792 0.694597
Si Si5 0.700890 0.625132 0.193453
Si Si6 0.697948 0.774266 0.306972
Si Si7 0.603121 0.054305 0.305052
Si Si8 0.053380 0.770874 0.693543
O O1 0.880597 0.686792 0.500000
O O2 0.827552 0.695682 0.250673
O O3 0.907835 0.641072 0.248650
O O4 0.912302 0.730672 0.248682
O O5 0.932078 0.550810 0.744904
O O6 0.000000 0.500000 0.825284
O O7 0.925201 0.500000 0.000000
O O8 0.086872 0.086872 0.250000
O O9 0.128026 0.052605 0.500000
O O10 0.177859 0.069066 0.246652
O O11 0.120202 0.000000 0.249152
O O12 0.587014 0.587014 0.750000
O O13 0.552701 0.628196 0.500000
O O14 0.500000 0.623251 0.752066
O O15 0.575950 0.678542 0.746638
O O16 0.662122 0.662122 0.250000
O O17 0.748744 0.649548 0.248359
O O18 0.702702 0.623867 0.000000
O O19 0.741835 0.741835 0.250000
O O20 0.699438 0.773847 0.500000
O O21 0.601453 0.053596 0.500000
O O22 0.613602 0.000000 0.254767
O O23 0.052474 0.769530 0.500000
O O24 0.000000 0.763732 0.751596
#
# Coordination Sequence:
#
# PCOD9566577 Si02
#       8
#    16   8  16  16  16  16  16  16
#     4  11  22  34  51  77 107 138 170 208 255 307
#     4   7  12  26  49  75 101 131 169 209 247 291
#     4  10  21  36  55  78 102 131 168 209 254 303
#     4   9  17  29  46  69  97 128 162 200 241 286
#     4   8  15  29  49  69  88 116 155 199 241 286
#     4  10  20  35  54  74  97 125 164 212 261 309
#     4   9  17  31  53  79 106 138 176 215 253 297
#     4   9  19  36  54  71  97 133 168 202 243 294
#
# _framework density 17.650085000000001
#
# number of rings (size 3 to 8) (size 9 to 14) (size 15 to 20)
#    0.000    2.733    0.000    2.400    0.000    4.267 
#    0.000    3.000    1.467    1.200    0.000    0.000 
#    0.000    0.000    0.000    0.000    0.000    0.000 
#
# Total GULP energy -668175.006034 kJ/mol
# GULP energy per Si atom -5568.125050 kJ/mol
# Density = 1.760991 g / cm^3
# Si number density = 17.650085 Si / 1000 Ang^3
#
#
#
# Elastic Constant Matrix: (Units=GPa)
#
#
# Indices 1 2 3 4 5 6 
#
# 1 124.1723 94.5148 17.8391 0.0000 0.0000 0.0000
# 2 94.5148 124.1723 17.8391 0.0000 0.0000 0.0000
# 3 17.8391 17.8391 17.3334 0.0000 0.0000 0.0000
# 4 0.0000 0.0000 0.0000 2.5705 0.0000 0.0000
# 5 0.0000 0.0000 0.0000 0.0000 2.5705 0.0000
# 6 0.0000 0.0000 0.0000 0.0000 0.0000 -12.2745
#
#
#
# Elastic Compliance Matrix: (Units=1/GPa)
#
#
# Indices 1 2 3 4 5 6 
#
# 1 0.019607 -0.014111 -0.005656 0.000000 0.000000 0.000000
# 2 -0.014111 0.019607 -0.005656 0.000000 0.000000 0.000000
# 3 -0.005656 -0.005656 0.069334 0.000000 0.000000 0.000000
# 4 0.000000 0.000000 0.000000 0.389022 0.000000 0.000000
# 5 0.000000 0.000000 0.000000 0.000000 0.389022 0.000000
# 6 0.000000 0.000000 0.000000 0.000000 0.000000 -0.081470
#
#
# Mechanical properties :
#
#
# Convention : Reuss Voigt Hill
#
# Bulk Modulus (GPa) = 17.33059 58.45156 37.89108
# Shear Modulus (GPa) = 5.71297 7.60565 6.65931
#
# Velocity S-wave (km/s) = 1.80106 2.07810 1.94452
# Velocity P-wave (km/s) = 3.76369 6.24073 5.15326
#
# Compressibility (1/GPa) = 0.05770143
#
# Stress axis : x y z
#
# Youngs Moduli (GPa) = 51.00256 51.00256 14.42299
#
# Poissons Ratio (x) = 0.71972 0.08157
# Poissons Ratio (y) = 0.71972 0.08157
# Poissons Ratio (z) = 0.28846 0.28846
#
# Static dielectric constant tensor:
#      x y z
#    x 1.606050 0.000000 0.000000 
#    y 0.000000 1.606050 0.000000 
#    z 0.000000 0.000000 1.619140 
# 
# From -- ./inp_files/2685.got.cif
#   From: 2010.05.17/outbox.cif.g08.bks.cpg/sg131_2_cif.got.tgz:2685.got - 2010.05.20 12:21:01.
