data_PCOD9566201
_publ_section_title
;
Structure prediction by ZEFSAII (Michael W. Deem and Ramdas Pophale) SiO2 
 PCOD9566201
Probable space group: P 42/M M C
;
_chemical_formula_sum "Si O2"
_cell_formula_units_Z 80
_cell_length_a 14.561825
_cell_length_b 14.561825
_cell_length_c 21.818279
_cell_angle_alpha 90.000000
_cell_angle_beta 90.000000
_cell_angle_gamma 90.000000
_cell_volume 4626.495094
_symmetry_space_group_name_H-M "P 42/M M C"
_symmetry_group_IT_number 131
_symmetry_cell_setting 'tetragonal'
loop_
_space_group_symop_operation_xyz
x,y,z
-x,-y,z
-y,x,1/2+z
y,-x,1/2+z
-x,y,-z
x,-y,-z
y,x,1/2-z
-y,-x,1/2-z
-x,-y,-z
x,y,-z
y,-x,1/2-z
-y,x,1/2-z
x,-y,z
-x,y,z
-y,-x,1/2+z
y,x,1/2+z
loop_
_atom_site_type_symbol
_atom_site_label
_atom_site_fract_x
_atom_site_fract_y
_atom_site_fract_z
Si Si1 0.792610 0.890213 0.693686
Si Si2 0.893748 0.395864 0.861591
Si Si3 0.393326 0.612136 0.816875
Si Si4 0.610144 0.281177 0.433539
Si Si5 0.111244 0.892021 0.931858
O O1 0.837776 0.837776 0.750000
O O2 0.683231 0.876821 0.687819
O O3 0.835674 0.859770 0.628108
O O4 0.810071 0.000000 0.700299
O O5 0.876030 0.500000 0.839333
O O6 0.825879 0.379370 0.918066
O O7 0.000000 0.389028 0.880119
O O8 0.358180 0.641821 0.750000
O O9 0.389615 0.500000 0.815456
O O10 0.500000 0.637103 0.823672
O O11 0.336391 0.645760 0.874931
O O12 0.648183 0.305735 0.500000
O O13 0.500000 0.298713 0.435391
O O14 0.000000 0.886362 0.932844
O O15 0.134534 0.000000 0.924720
O O16 0.143179 0.861729 0.000000
#
# Coordination Sequence:
#
# PCOD9566201 Si02
#       5
#    16  16  16  16  16
#     4  10  19  30  48  73  97 121 153 194 236 279
#     4   9  19  34  47  61  88 125 159 192 233 283
#     4   8  14  25  41  62  89 119 148 181 229 288
#     4   9  17  28  43  63  84 110 150 197 237 271
#     4   8  14  25  41  63  94 128 153 176 220 283
#
# _framework density 17.291708
#
# number of rings (size 3 to 8) (size 9 to 14) (size 15 to 20)
#    0.000    3.200    0.000    1.800    0.000    3.400 
#    0.000    6.000    0.000    0.000    0.000    0.000 
#    0.000    0.800    0.000    7.400    0.000    0.200 
#
# Total GULP energy -445352.128588 kJ/mol
# GULP energy per Si atom -5566.901607 kJ/mol
# Density = 1.725235 g / cm^3
# Si number density = 17.291708 Si / 1000 Ang^3
#
#
#
# Elastic Constant Matrix: (Units=GPa)
#
#
# Indices 1 2 3 4 5 6 
#
# 1 45.8494 22.1319 55.4941 0.0000 0.0000 0.0000
# 2 22.1319 45.8493 55.4941 0.0000 0.0000 0.0000
# 3 55.4941 55.4941 172.2268 0.0000 0.0000 0.0000
# 4 0.0000 0.0000 0.0000 10.9651 0.0000 0.0000
# 5 0.0000 0.0000 0.0000 0.0000 10.9651 0.0000
# 6 0.0000 0.0000 0.0000 0.0000 0.0000 9.4583
#
#
#
# Elastic Compliance Matrix: (Units=1/GPa)
#
#
# Indices 1 2 3 4 5 6 
#
# 1 0.036600 -0.005563 -0.010001 0.000000 0.000000 0.000000
# 2 -0.005563 0.036600 -0.010001 0.000000 0.000000 0.000000
# 3 -0.010001 -0.010001 0.012251 0.000000 0.000000 0.000000
# 4 0.000000 0.000000 0.000000 0.091198 0.000000 0.000000
# 5 0.000000 0.000000 0.000000 0.000000 0.091198 0.000000
# 6 0.000000 0.000000 0.000000 0.000000 0.000000 0.105727
#
#
# Mechanical properties :
#
#
# Convention : Reuss Voigt Hill
#
# Bulk Modulus (GPa) = 29.13504 58.90731 44.02117
# Shear Modulus (GPa) = 11.46408 14.99807 13.23108
#
# Velocity S-wave (km/s) = 2.57764 2.94829 2.76917
# Velocity P-wave (km/s) = 5.07392 6.76244 5.97810
#
# Compressibility (1/GPa) = 0.03432294
#
# Stress axis : x y z
#
# Youngs Moduli (GPa) = 27.32228 27.32222 81.62562
#
# Poissons Ratio (x) = 0.15199 0.81631
# Poissons Ratio (y) = 0.15199 0.81631
# Poissons Ratio (z) = 0.27324 0.27324
#
# Static dielectric constant tensor:
#      x y z
#    x 1.603960 0.000000 0.000000 
#    y 0.000000 1.603960 0.000000 
#    z 0.000000 0.000000 1.601650 
# 
# From -- ./inp_files/9432.got.cif
#   From: 2010.05.17/outbox.cif.g08.bks.cpg/sg131_5_cif.got.tgz:9432.got - 2010.05.20 12:21:01.
