data_PCOD9566250
_publ_section_title
;
Structure prediction by ZEFSAII (Michael W. Deem and Ramdas Pophale) SiO2 
 PCOD9566250
Probable space group: P 42/M M C
;
_chemical_formula_sum "Si O2"
_cell_formula_units_Z 120
_cell_length_a 18.246475
_cell_length_b 18.246475
_cell_length_c 19.574850
_cell_angle_alpha 90.000000
_cell_angle_beta 90.000000
_cell_angle_gamma 90.000000
_cell_volume 6517.130172
_symmetry_space_group_name_H-M "P 42/M M C"
_symmetry_group_IT_number 131
_symmetry_cell_setting 'tetragonal'
loop_
_space_group_symop_operation_xyz
x,y,z
-x,-y,z
-y,x,1/2+z
y,-x,1/2+z
-x,y,-z
x,-y,-z
y,x,1/2-z
-y,-x,1/2-z
-x,-y,-z
x,y,-z
y,-x,1/2-z
-y,x,1/2-z
x,-y,z
-x,y,z
-y,-x,1/2+z
y,x,1/2+z
loop_
_atom_site_type_symbol
_atom_site_label
_atom_site_fract_x
_atom_site_fract_y
_atom_site_fract_z
Si Si1 0.259183 0.914197 0.283851
Si Si2 0.299754 0.788238 0.074728
Si Si3 0.417281 0.150892 0.679473
Si Si4 0.000000 0.087678 0.582072
Si Si5 0.720610 0.613352 0.920109
Si Si6 0.867528 0.179070 0.355077
Si Si7 0.419264 0.394833 0.830606
Si Si8 0.220403 0.578353 0.324066
O O1 0.343493 0.896148 0.305989
O O2 0.202624 0.865664 0.327588
O O3 0.232615 0.895557 0.206208
O O4 0.246966 0.000000 0.294934
O O5 0.280827 0.702346 0.084527
O O6 0.228989 0.837646 0.083969
O O7 0.356310 0.811387 0.132617
O O8 0.333127 0.795463 0.000000
O O9 0.500000 0.116516 0.679781
O O10 0.410627 0.202766 0.613386
O O11 0.414911 0.205476 0.744302
O O12 0.069904 0.124976 0.618350
O O13 0.000000 0.101127 0.500000
O O14 0.000000 0.000000 0.592349
O O15 0.651408 0.584035 0.875663
O O16 0.714170 0.593777 0.000000
O O17 0.412630 0.412630 0.750000
O O18 0.500000 0.419996 0.854389
O O19 0.420332 0.306954 0.834995
O O20 0.190574 0.500000 0.347064
#
# Coordination Sequence:
#
# PCOD9566250 Si02
#       8
#    16  16  16   8  16  16  16  16
#     4  11  23  39  62  91 121 154 196 253 304 353
#     4  10  19  32  56  86 117 158 200 241 295 360
#     4  11  21  37  62  85 114 155 201 250 305 358
#     4  11  24  42  62  90 133 173 203 240 296 370
#     4  10  21  36  57  85 116 150 199 254 303 359
#     4  11  21  38  62  91 124 161 201 246 295 360
#     4  10  19  31  51  78 115 156 197 240 292 355
#     4   9  18  31  51  81 112 150 196 245 293 343
#
# _framework density 18.413011999999998
#
# number of rings (size 3 to 8) (size 9 to 14) (size 15 to 20)
#    0.000    1.667    4.667    0.800    0.000    1.200 
#    0.000    2.667    0.000    1.200    0.000    2.800 
#    0.000    4.267    0.000    0.000    0.000    0.000 
#
# Total GULP energy -668631.263647 kJ/mol
# GULP energy per Si atom -5571.927197 kJ/mol
# Density = 1.837110 g / cm^3
# Si number density = 18.413012 Si / 1000 Ang^3
#
#
#
# Elastic Constant Matrix: (Units=GPa)
#
#
# Indices 1 2 3 4 5 6 
#
# 1 79.3853 31.9348 26.6949 0.0000 0.0000 0.0000
# 2 31.9348 79.3853 26.6949 0.0000 0.0000 0.0000
# 3 26.6949 26.6949 89.7931 0.0000 0.0000 0.0000
# 4 0.0000 0.0000 0.0000 8.4485 0.0000 0.0000
# 5 0.0000 0.0000 0.0000 0.0000 8.4485 0.0000
# 6 0.0000 0.0000 0.0000 0.0000 0.0000 -19.1178
#
#
#
# Elastic Compliance Matrix: (Units=1/GPa)
#
#
# Indices 1 2 3 4 5 6 
#
# 1 0.015776 -0.005299 -0.003115 0.000000 0.000000 0.000000
# 2 -0.005299 0.015776 -0.003115 0.000000 0.000000 0.000000
# 3 -0.003115 -0.003115 0.012989 0.000000 0.000000 0.000000
# 4 0.000000 0.000000 0.000000 0.118364 0.000000 0.000000
# 5 0.000000 0.000000 0.000000 0.000000 0.118364 0.000000
# 6 0.000000 0.000000 0.000000 0.000000 0.000000 -0.052307
#
#
# Mechanical properties :
#
#
# Convention : Reuss Voigt Hill
#
# Bulk Modulus (GPa) = 46.54698 46.57921 46.56310
# Shear Modulus (GPa) = 19.29165 10.43843 14.86504
#
# Velocity S-wave (km/s) = 3.24036 2.38356 2.84441
# Velocity P-wave (km/s) = 6.27170 5.73820 6.01087
#
# Compressibility (1/GPa) = 0.02148367
#
# Stress axis : x y z
#
# Youngs Moduli (GPa) = 63.38830 63.38830 76.98999
#
# Poissons Ratio (x) = 0.33588 0.23980
# Poissons Ratio (y) = 0.33588 0.23980
# Poissons Ratio (z) = 0.19744 0.19744
#
# Static dielectric constant tensor:
#      x y z
#    x 1.644580 0.000000 0.000000 
#    y 0.000000 1.644580 0.000000 
#    z 0.000000 0.000000 1.624070 
# 
# From -- ./inp_files/10120.got.cif
#   From: 2010.05.17/outbox.cif.g08.bks.cpg/sg131_6_cif.got.tgz:10120.got - 2010.05.20 12:21:01.
