data_PCOD9566172
_publ_section_title
;
Structure prediction by ZEFSAII (Michael W. Deem and Ramdas Pophale) SiO2 
 PCOD9566172
Probable space group: P 42/M M C
;
_chemical_formula_sum "Si O2"
_cell_formula_units_Z 128
_cell_length_a 18.397285
_cell_length_b 18.397285
_cell_length_c 24.290541
_cell_angle_alpha 90.000000
_cell_angle_beta 90.000000
_cell_angle_gamma 90.000000
_cell_volume 8221.378823
_symmetry_space_group_name_H-M "P 42/M M C"
_symmetry_group_IT_number 131
_symmetry_cell_setting 'tetragonal'
loop_
_space_group_symop_operation_xyz
x,y,z
-x,-y,z
-y,x,1/2+z
y,-x,1/2+z
-x,y,-z
x,-y,-z
y,x,1/2-z
-y,-x,1/2-z
-x,-y,-z
x,y,-z
y,-x,1/2-z
-y,x,1/2-z
x,-y,z
-x,y,z
-y,-x,1/2+z
y,x,1/2+z
loop_
_atom_site_type_symbol
_atom_site_label
_atom_site_fract_x
_atom_site_fract_y
_atom_site_fract_z
Si Si1 0.415337 0.322077 0.065468
Si Si2 0.646782 0.189721 0.134832
Si Si3 0.326112 0.919632 0.333742
Si Si4 0.287294 0.584874 0.117612
Si Si5 0.237201 0.716925 0.811222
Si Si6 0.420496 0.086278 0.062930
Si Si7 0.415375 0.131465 0.563375
Si Si8 0.413877 0.918869 0.222929
O O1 0.500000 0.343481 0.070857
O O2 0.401005 0.251299 0.103850
O O3 0.358405 0.381880 0.088100
O O4 0.402129 0.307750 0.000000
O O5 0.721977 0.227274 0.148725
O O6 0.645638 0.123486 0.092701
O O7 0.616165 0.150082 0.189371
O O8 0.278281 0.849014 0.320058
O O9 0.364835 0.907721 0.392269
O O10 0.386161 0.916516 0.285332
O O11 0.292122 0.000000 0.331434
O O12 0.296897 0.500000 0.132383
O O13 0.264798 0.637004 0.168864
O O14 0.217649 0.589624 0.077018
O O15 0.263469 0.736532 0.750000
O O16 0.500000 0.106137 0.087968
O O17 0.416382 0.000000 0.064397
O O18 0.422092 0.109817 0.000000
O O19 0.395890 0.117749 0.500000
O O20 0.500000 0.110593 0.571371
O O21 0.500000 0.915945 0.221516
O O22 0.392210 0.000000 0.200717
#
# Coordination Sequence:
#
# PCOD9566172 Si02
#       8
#    16  16  16  16  16  16  16  16
#     4  10  20  31  45  67  92 123 168 218 261 292
#     4  11  19  30  48  66  97 130 163 201 236 293
#     4  10  20  34  50  69  97 126 156 195 241 289
#     4   9  19  34  51  68  91 126 168 214 258 298
#     4  10  20  37  50  71  97 125 163 201 245 299
#     4   9  17  29  46  72 108 142 166 193 236 294
#     4   9  17  30  49  71  95 124 157 194 241 298
#     4  10  19  29  45  71 100 128 158 193 235 290
#
# _framework density 15.569164000000001
#
# number of rings (size 3 to 8) (size 9 to 14) (size 15 to 20)
#    0.000    2.250    1.250    3.000    0.000    4.500 
#    0.000    2.500    0.000    0.000    0.000    0.000 
#    0.000    4.250    0.000    1.375    0.000    0.000 
#
# Total GULP energy -712808.312723 kJ/mol
# GULP energy per Si atom -5568.814943 kJ/mol
# Density = 1.553373 g / cm^3
# Si number density = 15.569164 Si / 1000 Ang^3
#
#
#
# Elastic Constant Matrix: (Units=GPa)
#
#
# Indices 1 2 3 4 5 6 
#
# 1 85.4951 40.5619 31.8702 0.0000 0.0000 0.0000
# 2 40.5619 85.4957 31.8702 0.0000 0.0000 0.0000
# 3 31.8702 31.8702 84.8168 0.0000 0.0000 0.0000
# 4 0.0000 0.0000 0.0000 20.8635 0.0000 0.0000
# 5 0.0000 0.0000 0.0000 0.0000 20.8637 0.0000
# 6 0.0000 0.0000 0.0000 0.0000 0.0000 17.3299
#
#
#
# Elastic Compliance Matrix: (Units=1/GPa)
#
#
# Indices 1 2 3 4 5 6 
#
# 1 0.016024 -0.006231 -0.003680 0.000000 0.000000 0.000000
# 2 -0.006231 0.016024 -0.003680 0.000000 0.000000 0.000000
# 3 -0.003680 -0.003680 0.014556 0.000000 0.000000 0.000000
# 4 0.000000 0.000000 0.000000 0.047931 0.000000 0.000000
# 5 0.000000 0.000000 0.000000 0.000000 0.047930 0.000000
# 6 0.000000 0.000000 0.000000 0.000000 0.000000 0.057704
#
#
# Mechanical properties :
#
#
# Convention : Reuss Voigt Hill
#
# Bulk Modulus (GPa) = 51.48536 51.60136 51.54336
# Shear Modulus (GPa) = 21.38354 21.91177 21.64766
#
# Velocity S-wave (km/s) = 3.71004 3.75558 3.73288
# Velocity P-wave (km/s) = 7.17587 7.21257 7.19424
#
# Compressibility (1/GPa) = 0.01942300
#
# Stress axis : x y z
#
# Youngs Moduli (GPa) = 62.40463 62.40508 68.70170
#
# Poissons Ratio (x) = 0.38883 0.25283
# Poissons Ratio (y) = 0.38882 0.25282
# Poissons Ratio (z) = 0.22965 0.22965
#
# Static dielectric constant tensor:
#      x y z
#    x 1.527040 0.000000 0.000000 
#    y 0.000000 1.527040 0.000000 
#    z 0.000000 0.000000 1.553760 
# 
# From -- ./inp_files/11492.got.cif
#   From: 2010.05.17/outbox.cif.g08.bks.cpg/sg131_6_cif.got.tgz:11492.got - 2010.05.20 12:21:01.
