data_PCOD9566134
_publ_section_title
;
Structure prediction by ZEFSAII (Michael W. Deem and Ramdas Pophale) SiO2 
 PCOD9566134
Probable space group: P 42/M M C
;
_chemical_formula_sum "Si O2"
_cell_formula_units_Z 38
_cell_length_a 10.635915
_cell_length_b 10.635915
_cell_length_c 20.283996
_cell_angle_alpha 90.000000
_cell_angle_beta 90.000000
_cell_angle_gamma 90.000000
_cell_volume 2294.580149
_symmetry_space_group_name_H-M "P 42/M M C"
_symmetry_group_IT_number 131
_symmetry_cell_setting 'tetragonal'
loop_
_space_group_symop_operation_xyz
x,y,z
-x,-y,z
-y,x,1/2+z
y,-x,1/2+z
-x,y,-z
x,-y,-z
y,x,1/2-z
-y,-x,1/2-z
-x,-y,-z
x,y,-z
y,-x,1/2-z
-y,x,1/2-z
x,-y,z
-x,y,z
-y,-x,1/2+z
y,x,1/2+z
loop_
_atom_site_type_symbol
_atom_site_label
_atom_site_fract_x
_atom_site_fract_y
_atom_site_fract_z
Si Si1 0.500000 0.258297 0.654958
Si Si2 0.000000 0.500000 0.764775
Si Si3 0.642759 0.000000 0.865134
Si Si4 0.500000 0.500000 0.750000
Si Si5 0.738672 0.350202 0.421235
O O1 0.500000 0.126005 0.692610
O O2 0.500000 0.373738 0.706614
O O3 0.377370 0.277327 0.610127
O O4 0.000000 0.617189 0.713122
O O5 0.697744 0.130279 0.890460
O O6 0.500000 0.000000 0.894920
O O7 0.741120 0.339886 0.500000
O O8 0.724104 0.500000 0.404806
#
# Coordination Sequence:
#
# PCOD9566134 Si02
#       5
#     8   4   8   2  16
#     4  12  21  33  50  81 111 146 170 221 269 325
#     4  10  22  34  46  72 120 152 174 200 272 346
#     4   8  17  34  48  78 101 144 178 220 262 304
#     4  12  20  32  54  80 104 136 180 226 268 308
#     4  10  18  32  54  80 107 135 179 225 268 309
#
# _framework density 16.560763999999999
#
# number of rings (size 3 to 8) (size 9 to 14) (size 15 to 20)
#    0.632    1.263    2.105    3.789    0.000    4.211 
#    0.000    2.105    0.000    1.263    0.000    5.895 
#    0.000    0.000    0.000    0.000    0.000    0.000 
#
# Total GULP energy -211766.362055 kJ/mol
# GULP energy per Si atom -5572.799001 kJ/mol
# Density = 1.652307 g / cm^3
# Si number density = 16.560764 Si / 1000 Ang^3
#
#
#
# Elastic Constant Matrix: (Units=GPa)
#
#
# Indices 1 2 3 4 5 6 
#
# 1 127.5732 42.3832 64.6186 0.0000 0.0000 0.0000
# 2 42.3832 127.5732 64.6186 0.0000 0.0000 0.0000
# 3 64.6186 64.6186 101.0450 0.0000 0.0000 0.0000
# 4 0.0000 0.0000 0.0000 4.6562 0.0000 0.0000
# 5 0.0000 0.0000 0.0000 0.0000 4.6562 0.0000
# 6 0.0000 0.0000 0.0000 0.0000 0.0000 2.4093
#
#
#
# Elastic Compliance Matrix: (Units=1/GPa)
#
#
# Indices 1 2 3 4 5 6 
#
# 1 0.011596 -0.000142 -0.007325 0.000000 0.000000 0.000000
# 2 -0.000142 0.011596 -0.007325 0.000000 0.000000 0.000000
# 3 -0.007325 -0.007325 0.019265 0.000000 0.000000 0.000000
# 4 0.000000 0.000000 0.000000 0.214765 0.000000 0.000000
# 5 0.000000 0.000000 0.000000 0.000000 0.214765 0.000000
# 6 0.000000 0.000000 0.000000 0.000000 0.000000 0.415055
#
#
# Mechanical properties :
#
#
# Convention : Reuss Voigt Hill
#
# Bulk Modulus (GPa) = 77.67865 77.71471 77.69668
# Shear Modulus (GPa) = 5.42937 14.64909 10.03923
#
# Velocity S-wave (km/s) = 1.81261 2.97739 2.46480
# Velocity P-wave (km/s) = 7.16853 7.67129 7.42417
#
# Compressibility (1/GPa) = 0.01287355
#
# Stress axis : x y z
#
# Youngs Moduli (GPa) = 86.23636 86.23636 51.90811
#
# Poissons Ratio (x) = 0.01228 0.38021
# Poissons Ratio (y) = 0.01228 0.38021
# Poissons Ratio (z) = 0.63165 0.63165
#
# Static dielectric constant tensor:
#      x y z
#    x 1.565970 0.000000 0.000000 
#    y 0.000000 1.565970 0.000000 
#    z 0.000000 0.000000 1.555400 
# 
# From -- ./inp_files/10436.got.cif
#   From: 2010.05.17/outbox.cif.g08.bks.cpg/sg131_6_cif.got.tgz:10436.got - 2010.05.20 12:21:01.
