data_PCOD9566788
_publ_section_title
;
Structure prediction by ZEFSAII (Michael W. Deem and Ramdas Pophale) SiO2 
 PCOD9566788
Probable space group: P 42/M M C
;
_chemical_formula_sum "Si O2"
_cell_formula_units_Z 36
_cell_length_a 14.350526
_cell_length_b 14.350526
_cell_length_c 9.414603
_cell_angle_alpha 90.000000
_cell_angle_beta 90.000000
_cell_angle_gamma 90.000000
_cell_volume 1938.820714
_symmetry_space_group_name_H-M "P 42/M M C"
_symmetry_group_IT_number 131
_symmetry_cell_setting 'tetragonal'
loop_
_space_group_symop_operation_xyz
x,y,z
-x,-y,z
-y,x,1/2+z
y,-x,1/2+z
-x,y,-z
x,-y,-z
y,x,1/2-z
-y,-x,1/2-z
-x,-y,-z
x,y,-z
y,-x,1/2-z
-y,x,1/2-z
x,-y,z
-x,y,z
-y,-x,1/2+z
y,x,1/2+z
loop_
_atom_site_type_symbol
_atom_site_label
_atom_site_fract_x
_atom_site_fract_y
_atom_site_fract_z
Si Si1 0.500000 0.500000 0.750000
Si Si2 0.000000 0.395655 0.208574
Si Si3 0.500000 0.000000 0.000000
Si Si4 0.673573 0.796050 0.664069
Si Si5 0.500000 0.290250 0.836524
O O1 0.500000 0.402466 0.834452
O O2 0.000000 0.419682 0.375239
O O3 0.905960 0.343751 0.167659
O O4 0.000000 0.500000 0.144953
O O5 0.764238 0.764238 0.750000
O O6 0.674563 0.763651 0.500000
O O7 0.588614 0.748318 0.750645
O O8 0.500000 0.255891 0.000000
#
# Coordination Sequence:
#
# PCOD9566788 Si02
#       5
#     2   8   2  16   8
#     4  12  26  40  56  78 138 172 210 236 302 368
#     4  10  23  40  68  90 131 162 217 262 331 371
#     4   8  20  36  70  92 120 160 210 268 312 372
#     4  12  26  41  64  92 127 165 214 265 321 381
#     4  12  25  39  59  86 124 170 214 253 303 370
#
# _framework density 18.567989000000001
#
# number of rings (size 3 to 8) (size 9 to 14) (size 15 to 20)
#    0.667    0.000    4.444    3.000    9.333    2.667 
#    0.000    0.000    0.000    0.667    0.000    3.111 
#    0.000    0.000    0.000    0.000    0.000    0.000 
#
# Total GULP energy -200564.605263 kJ/mol
# GULP energy per Si atom -5571.239035 kJ/mol
# Density = 1.852573 g / cm^3
# Si number density = 18.567989 Si / 1000 Ang^3
#
#
#
# Elastic Constant Matrix: (Units=GPa)
#
#
# Indices 1 2 3 4 5 6 
#
# 1 117.2863 44.7619 33.1912 0.0000 0.0000 0.0000
# 2 44.7619 117.2863 33.1912 0.0000 0.0000 0.0000
# 3 33.1912 33.1912 208.1216 0.0000 0.0000 0.0000
# 4 0.0000 0.0000 0.0000 -1.6097 0.0000 0.0000
# 5 0.0000 0.0000 0.0000 0.0000 -1.6097 0.0000
# 6 0.0000 0.0000 0.0000 0.0000 0.0000 23.7262
#
#
#
# Elastic Compliance Matrix: (Units=1/GPa)
#
#
# Indices 1 2 3 4 5 6 
#
# 1 0.010195 -0.003593 -0.001053 0.000000 0.000000 0.000000
# 2 -0.003593 0.010195 -0.001053 0.000000 0.000000 0.000000
# 3 -0.001053 -0.001053 0.005141 0.000000 0.000000 0.000000
# 4 0.000000 0.000000 0.000000 -0.621226 0.000000 0.000000
# 5 0.000000 0.000000 0.000000 0.000000 -0.621226 0.000000
# 6 0.000000 0.000000 0.000000 0.000000 0.000000 0.042147
#
#
# Mechanical properties :
#
#
# Convention : Reuss Voigt Hill
#
# Bulk Modulus (GPa) = 70.75319 73.88699 72.32009
# Shear Modulus (GPa) = -4.31532 26.20469 10.94469
#
# Velocity S-wave (km/s) = -1.52614 3.76078 2.43047
# Velocity P-wave (km/s) = 5.92302 7.66401 6.84906
#
# Compressibility (1/GPa) = 0.01413364
#
# Stress axis : x y z
#
# Youngs Moduli (GPa) = 98.08346 98.08346 194.52503
#
# Poissons Ratio (x) = 0.35242 0.20482
# Poissons Ratio (y) = 0.35242 0.20482
# Poissons Ratio (z) = 0.10328 0.10328
#
# Static dielectric constant tensor:
#      x y z
#    x 1.658090 0.000000 0.000000 
#    y 0.000000 1.658090 0.000000 
#    z 0.000000 0.000000 1.654810 
# 
# From -- ./inp_files/649.got.cif
#   From: 2010.05.17/outbox.cif.g08.bks.cpg/sg131_1_cif.got.tgz:649.got - 2010.05.20 12:21:01.
