data_PCOD9566053
_publ_section_title
;
Structure prediction by ZEFSAII (Michael W. Deem and Ramdas Pophale) SiO2 
 PCOD9566053
Probable space group: P 42/M M C
;
_chemical_formula_sum "Si O2"
_cell_formula_units_Z 112
_cell_length_a 20.338869
_cell_length_b 20.338869
_cell_length_c 18.074614
_cell_angle_alpha 90.000000
_cell_angle_beta 90.000000
_cell_angle_gamma 90.000000
_cell_volume 7476.918203
_symmetry_space_group_name_H-M "P 42/M M C"
_symmetry_group_IT_number 131
_symmetry_cell_setting 'tetragonal'
loop_
_space_group_symop_operation_xyz
x,y,z
-x,-y,z
-y,x,1/2+z
y,-x,1/2+z
-x,y,-z
x,-y,-z
y,x,1/2-z
-y,-x,1/2-z
-x,-y,-z
x,y,-z
y,-x,1/2-z
-y,x,1/2-z
x,-y,z
-x,y,z
-y,-x,1/2+z
y,x,1/2+z
loop_
_atom_site_type_symbol
_atom_site_label
_atom_site_fract_x
_atom_site_fract_y
_atom_site_fract_z
Si Si1 0.173439 0.923858 0.295439
Si Si2 0.074413 0.720740 0.417322
Si Si3 0.899936 0.680450 0.736426
Si Si4 0.785680 0.577640 0.083154
Si Si5 0.183085 0.198607 0.913500
Si Si6 0.576800 0.929424 0.360434
Si Si7 0.759867 0.313152 0.192340
O O1 0.121463 0.878538 0.250000
O O2 0.245276 0.922519 0.256360
O O3 0.185757 0.886477 0.373256
O O4 0.152767 0.000000 0.301959
O O5 0.080933 0.692261 0.500000
O O6 0.084372 0.671290 0.349423
O O7 0.130913 0.775596 0.409854
O O8 0.000000 0.748010 0.411546
O O9 0.928591 0.625775 0.790972
O O10 0.823190 0.678990 0.755131
O O11 0.775872 0.500000 0.094626
O O12 0.864122 0.590883 0.092690
O O13 0.750770 0.622579 0.143248
O O14 0.765908 0.594593 0.000000
O O15 0.220589 0.253767 0.864221
O O16 0.177189 0.217623 0.000000
O O17 0.500000 0.924850 0.337961
O O18 0.585148 0.000000 0.399324
O O19 0.703307 0.296694 0.250000
#
# Coordination Sequence:
#
# PCOD9566053 Si02
#       7
#    16  16  16  16  16  16  16
#     4  11  21  32  45  61  79 107 142 179 229 282
#     4  10  18  27  42  61  79 103 138 180 224 268
#     4  10  17  31  46  60  83 111 143 186 224 271
#     4   9  18  30  44  65  96 130 157 186 226 270
#     4  10  19  31  45  64  85 108 141 185 232 274
#     4   9  17  27  43  66  88 117 154 187 223 267
#     4  10  17  30  47  68  91 118 150 188 224 264
#
# _framework density 14.979433
#
# number of rings (size 3 to 8) (size 9 to 14) (size 15 to 20)
#    0.000    2.143    2.857    2.571    0.000    0.714 
#    0.000    1.429    0.000    5.571    0.000    5.000 
#    0.000    2.571    0.000    1.571    0.000    0.000 
#
# Total GULP energy -623570.433666 kJ/mol
# GULP energy per Si atom -5567.593158 kJ/mol
# Density = 1.494534 g / cm^3
# Si number density = 14.979433 Si / 1000 Ang^3
#
#
#
# Elastic Constant Matrix: (Units=GPa)
#
#
# Indices 1 2 3 4 5 6 
#
# 1 41.9864 18.1770 31.6747 0.0000 0.0000 0.0000
# 2 18.1770 41.9855 31.6752 0.0000 0.0000 0.0000
# 3 31.6747 31.6752 111.0008 0.0000 0.0000 0.0000
# 4 0.0000 0.0000 0.0000 14.3021 0.0000 0.0000
# 5 0.0000 0.0000 0.0000 0.0000 14.3021 0.0000
# 6 0.0000 0.0000 0.0000 0.0000 0.0000 12.2004
#
#
#
# Elastic Compliance Matrix: (Units=1/GPa)
#
#
# Indices 1 2 3 4 5 6 
#
# 1 0.032881 -0.009120 -0.006780 0.000000 0.000000 0.000000
# 2 -0.009120 0.032882 -0.006781 0.000000 0.000000 0.000000
# 3 -0.006780 -0.006781 0.012879 0.000000 0.000000 0.000000
# 4 0.000000 0.000000 0.000000 0.069920 0.000000 0.000000
# 5 0.000000 0.000000 0.000000 0.000000 0.069920 0.000000
# 6 0.000000 0.000000 0.000000 0.000000 0.000000 0.081965
#
#
# Mechanical properties :
#
#
# Convention : Reuss Voigt Hill
#
# Bulk Modulus (GPa) = 30.04881 39.78073 34.91477
# Shear Modulus (GPa) = 14.00955 15.72398 14.86677
#
# Velocity S-wave (km/s) = 3.06151 3.24343 3.15378
# Velocity P-wave (km/s) = 5.70970 6.37503 6.05152
#
# Compressibility (1/GPa) = 0.03327919
#
# Stress axis : x y z
#
# Youngs Moduli (GPa) = 30.41316 30.41209 77.64787
#
# Poissons Ratio (x) = 0.27736 0.52647
# Poissons Ratio (y) = 0.27737 0.52651
# Poissons Ratio (z) = 0.20621 0.20622
#
# Static dielectric constant tensor:
#      x y z
#    x 1.503060 0.000000 0.000000 
#    y 0.000000 1.503060 0.000000 
#    z 0.000000 0.000000 1.516800 
# 
# From -- ./inp_files/8340.got.cif
#   From: 2010.05.17/outbox.cif.g08.bks.cpg/sg131_5_cif.got.tgz:8340.got - 2010.05.20 12:21:01.
