data_PCOD9566568
_publ_section_title
;
Structure prediction by ZEFSAII (Michael W. Deem and Ramdas Pophale) SiO2 
 PCOD9566568
Probable space group: P 42/M M C
;
_chemical_formula_sum "Si O2"
_cell_formula_units_Z 112
_cell_length_a 14.453460
_cell_length_b 14.453460
_cell_length_c 26.925169
_cell_angle_alpha 90.000000
_cell_angle_beta 90.000000
_cell_angle_gamma 90.000000
_cell_volume 5624.735278
_symmetry_space_group_name_H-M "P 42/M M C"
_symmetry_group_IT_number 131
_symmetry_cell_setting 'tetragonal'
loop_
_space_group_symop_operation_xyz
x,y,z
-x,-y,z
-y,x,1/2+z
y,-x,1/2+z
-x,y,-z
x,-y,-z
y,x,1/2-z
-y,-x,1/2-z
-x,-y,-z
x,y,-z
y,-x,1/2-z
-y,x,1/2-z
x,-y,z
-x,y,z
-y,-x,1/2+z
y,x,1/2+z
loop_
_atom_site_type_symbol
_atom_site_label
_atom_site_fract_x
_atom_site_fract_y
_atom_site_fract_z
Si Si1 0.387700 0.109027 0.554997
Si Si2 0.109782 0.610311 0.255550
Si Si3 0.388126 0.792911 0.656118
Si Si4 0.285241 0.888507 0.143113
Si Si5 0.112879 0.103937 0.693652
Si Si6 0.391480 0.212181 0.943787
Si Si7 0.395794 0.606765 0.886722
O O1 0.355502 0.140878 0.500000
O O2 0.500000 0.116138 0.554457
O O3 0.355443 0.162890 0.603982
O O4 0.365922 0.000000 0.559803
O O5 0.125746 0.500000 0.260320
O O6 0.161083 0.646677 0.206499
O O7 0.135876 0.658622 0.306895
O O8 0.000000 0.624450 0.248173
O O9 0.500000 0.806835 0.656904
O O10 0.370934 0.683671 0.652709
O O11 0.180080 0.858943 0.153961
O O12 0.330837 0.841324 0.096058
O O13 0.288623 0.000000 0.137920
O O14 0.134534 0.134534 0.750000
O O15 0.000000 0.100687 0.693039
O O16 0.147445 0.000000 0.685060
O O17 0.500000 0.186695 0.937692
O O18 0.385457 0.321223 0.931350
O O19 0.363882 0.193104 0.000000
O O20 0.382913 0.500000 0.902472
O O21 0.500000 0.616558 0.866903
#
# Coordination Sequence:
#
# PCOD9566568 Si02
#       7
#    16  16  16  16  16  16  16
#     4   8  13  21  35  59  92 128 166 208 254 308
#     4   9  17  29  47  76 114 149 180 217 264 322
#     4   9  16  27  46  71  99 135 176 216 263 318
#     4  10  20  34  56  86 116 145 177 217 270 328
#     4   8  15  30  53  82 115 148 182 218 255 303
#     4  10  22  39  58  80 105 137 181 231 281 333
#     4   9  19  36  56  78 104 137 183 235 280 322
#
# _framework density 19.912049
#
# number of rings (size 3 to 8) (size 9 to 14) (size 15 to 20)
#    0.000    3.000    0.000    1.714    0.000    4.857 
#    0.000    3.571    0.000    3.857    0.000    8.000 
#    0.000    0.000    0.000    0.000    0.000    0.000 
#
# Total GULP energy -625074.791838 kJ/mol
# GULP energy per Si atom -5581.024927 kJ/mol
# Density = 1.986673 g / cm^3
# Si number density = 19.912049 Si / 1000 Ang^3
#
#
#
# Elastic Constant Matrix: (Units=GPa)
#
#
# Indices 1 2 3 4 5 6 
#
# 1 72.6047 45.7549 76.1251 0.0000 0.0000 0.0000
# 2 45.7549 72.6047 76.1251 0.0000 0.0000 0.0000
# 3 76.1251 76.1251 159.1057 0.0000 0.0000 0.0000
# 4 0.0000 0.0000 0.0000 17.2571 0.0000 0.0000
# 5 0.0000 0.0000 0.0000 0.0000 17.2571 0.0000
# 6 0.0000 0.0000 0.0000 0.0000 0.0000 12.4714
#
#
#
# Elastic Compliance Matrix: (Units=1/GPa)
#
#
# Indices 1 2 3 4 5 6 
#
# 1 0.029608 -0.007637 -0.010512 0.000000 0.000000 0.000000
# 2 -0.007637 0.029608 -0.010512 0.000000 0.000000 0.000000
# 3 -0.010512 -0.010512 0.016344 0.000000 0.000000 0.000000
# 4 0.000000 0.000000 0.000000 0.057947 0.000000 0.000000
# 5 0.000000 0.000000 0.000000 0.000000 0.057947 0.000000
# 6 0.000000 0.000000 0.000000 0.000000 0.000000 0.080184
#
#
# Mechanical properties :
#
#
# Convention : Reuss Voigt Hill
#
# Bulk Modulus (GPa) = 54.83146 77.81390 66.32268
# Shear Modulus (GPa) = 14.92365 16.48445 15.70405
#
# Velocity S-wave (km/s) = 2.74063 2.88038 2.81137
# Velocity P-wave (km/s) = 6.13281 7.08701 6.62711
#
# Compressibility (1/GPa) = 0.01823771
#
# Stress axis : x y z
#
# Youngs Moduli (GPa) = 33.77514 33.77514 61.18328
#
# Poissons Ratio (x) = 0.25793 0.64317
# Poissons Ratio (y) = 0.25793 0.64317
# Poissons Ratio (z) = 0.35505 0.35505
#
# Static dielectric constant tensor:
#      x y z
#    x 1.732170 0.000000 0.000000 
#    y 0.000000 1.732170 0.000000 
#    z 0.000000 0.000000 1.660910 
# 
# From -- ./inp_files/11284.got.cif
#   From: 2010.05.17/outbox.cif.g08.bks.cpg/sg131_6_cif.got.tgz:11284.got - 2010.05.20 12:21:01.
