data_PCOD9566126
_publ_section_title
;
Structure prediction by ZEFSAII (Michael W. Deem and Ramdas Pophale) SiO2 
 PCOD9566126
Probable space group: P 42/M M C
;
_chemical_formula_sum "Si O2"
_cell_formula_units_Z 120
_cell_length_a 28.321321
_cell_length_b 28.321321
_cell_length_c 9.061819
_cell_angle_alpha 90.000000
_cell_angle_beta 90.000000
_cell_angle_gamma 90.000000
_cell_volume 7268.459857
_symmetry_space_group_name_H-M "P 42/M M C"
_symmetry_group_IT_number 131
_symmetry_cell_setting 'tetragonal'
loop_
_space_group_symop_operation_xyz
x,y,z
-x,-y,z
-y,x,1/2+z
y,-x,1/2+z
-x,y,-z
x,-y,-z
y,x,1/2-z
-y,-x,1/2-z
-x,-y,-z
x,y,-z
y,-x,1/2-z
-y,x,1/2-z
x,-y,z
-x,y,z
-y,-x,1/2+z
y,x,1/2+z
loop_
_atom_site_type_symbol
_atom_site_label
_atom_site_fract_x
_atom_site_fract_y
_atom_site_fract_z
Si Si1 0.266323 0.556642 0.829118
Si Si2 0.382320 0.188853 0.823797
Si Si3 0.794060 0.135849 0.327009
Si Si4 0.285535 0.782634 0.327957
Si Si5 0.082028 0.625499 0.679241
Si Si6 0.732943 0.944406 0.177896
Si Si7 0.627153 0.444926 0.821861
Si Si8 0.445362 0.000000 0.180375
O O1 0.264223 0.500000 0.825061
O O2 0.225130 0.579064 0.734276
O O3 0.319397 0.569687 0.779490
O O4 0.260819 0.571500 0.000000
O O5 0.332641 0.203897 0.755729
O O6 0.389402 0.134582 0.777350
O O7 0.380140 0.190169 0.000000
O O8 0.839357 0.160644 0.250000
O O9 0.803698 0.127725 0.500000
O O10 0.752082 0.174670 0.316102
O O11 0.772138 0.089276 0.251246
O O12 0.261881 0.738120 0.250000
O O13 0.294365 0.773762 0.500000
O O14 0.079729 0.626777 0.500000
O O15 0.070046 0.679382 0.725878
O O16 0.044798 0.586019 0.727727
O O17 0.739620 0.000000 0.210147
O O18 0.735135 0.938285 0.000000
O O19 0.588618 0.411383 0.750000
O O20 0.620284 0.500000 0.780735
O O21 0.624685 0.442465 0.000000
O O22 0.500000 0.000000 0.229158
O O23 0.446438 0.000000 0.000000
#
# Coordination Sequence:
#
# PCOD9566126 Si02
#       8
#    16  16  16  16  16  16  16   8
#     4   9  20  39  56  69  94 133 171 208 254 309
#     4  11  21  32  51  76 103 131 168 219 266 314
#     4  10  20  33  51  75 106 141 179 221 266 316
#     4  10  20  33  49  71 100 134 171 207 254 309
#     4   9  17  29  45  70 101 133 170 218 270 324
#     4  10  18  31  53  76 106 146 186 223 270 326
#     4   9  19  36  57  80 105 133 163 197 242 298
#     4   9  16  28  46  68  97 133 171 217 276 329
#
# _framework density 16.509687
#
# number of rings (size 3 to 8) (size 9 to 14) (size 15 to 20)
#    0.000    2.333    2.000    2.000    0.000    3.600 
#    0.000    4.667    0.000    0.000    0.000    0.000 
#    0.000    4.000    0.000    2.800    0.000    1.200 
#
# Total GULP energy -669110.697694 kJ/mol
# GULP energy per Si atom -5575.922481 kJ/mol
# Density = 1.647211 g / cm^3
# Si number density = 16.509687 Si / 1000 Ang^3
#
#
#
# Elastic Constant Matrix: (Units=GPa)
#
#
# Indices 1 2 3 4 5 6 
#
# 1 119.0959 71.3765 42.2759 0.0000 0.0000 0.0000
# 2 71.3765 119.0931 42.2652 0.0000 0.0000 0.0000
# 3 42.2759 42.2652 46.3642 0.0000 0.0000 0.0000
# 4 0.0000 0.0000 0.0000 21.7087 0.0000 0.0000
# 5 0.0000 0.0000 0.0000 0.0000 21.7085 0.0000
# 6 0.0000 0.0000 0.0000 0.0000 0.0000 5.9735
#
#
#
# Elastic Compliance Matrix: (Units=1/GPa)
#
#
# Indices 1 2 3 4 5 6 
#
# 1 0.014889 -0.006069 -0.008044 0.000000 0.000000 0.000000
# 2 -0.006069 0.014886 -0.008036 0.000000 0.000000 0.000000
# 3 -0.008044 -0.008036 0.036229 0.000000 0.000000 0.000000
# 4 0.000000 0.000000 0.000000 0.046064 0.000000 0.000000
# 5 0.000000 0.000000 0.000000 0.000000 0.046065 0.000000
# 6 0.000000 0.000000 0.000000 0.000000 0.000000 0.167405
#
#
# Mechanical properties :
#
#
# Convention : Reuss Voigt Hill
#
# Bulk Modulus (GPa) = 46.07054 66.26537 56.16795
# Shear Modulus (GPa) = 13.26008 18.45387 15.85697
#
# Velocity S-wave (km/s) = 2.83710 3.34692 3.10250
# Velocity P-wave (km/s) = 6.22076 7.42699 6.85048
#
# Compressibility (1/GPa) = 0.02170584
#
# Stress axis : x y z
#
# Youngs Moduli (GPa) = 67.16291 67.17693 27.60234
#
# Poissons Ratio (x) = 0.40769 0.22203
# Poissons Ratio (y) = 0.40760 0.22182
# Poissons Ratio (z) = 0.54026 0.53985
#
# Static dielectric constant tensor:
#      x y z
#    x 1.545760 0.000000 0.000000 
#    y 0.000000 1.545760 0.000000 
#    z 0.000000 0.000000 1.555640 
# 
# From -- ./inp_files/2620.got.cif
#   From: 2010.05.17/outbox.cif.g08.bks.cpg/sg131_2_cif.got.tgz:2620.got - 2010.05.20 12:21:01.
