data_PCOD9566542
_publ_section_title
;
Structure prediction by ZEFSAII (Michael W. Deem and Ramdas Pophale) SiO2 
 PCOD9566542
Probable space group: P 42/M M C
;
_chemical_formula_sum "Si O2"
_cell_formula_units_Z 48
_cell_length_a 8.137599
_cell_length_b 8.137599
_cell_length_c 35.072558
_cell_angle_alpha 90.000000
_cell_angle_beta 90.000000
_cell_angle_gamma 90.000000
_cell_volume 2322.522940
_symmetry_space_group_name_H-M "P 42/M M C"
_symmetry_group_IT_number 131
_symmetry_cell_setting 'tetragonal'
loop_
_space_group_symop_operation_xyz
x,y,z
-x,-y,z
-y,x,1/2+z
y,-x,1/2+z
-x,y,-z
x,-y,-z
y,x,1/2-z
-y,-x,1/2-z
-x,-y,-z
x,y,-z
y,-x,1/2-z
-y,x,1/2-z
x,-y,z
-x,y,z
-y,-x,1/2+z
y,x,1/2+z
loop_
_atom_site_type_symbol
_atom_site_label
_atom_site_fract_x
_atom_site_fract_y
_atom_site_fract_z
Si Si1 0.201443 0.000000 0.044226
Si Si2 0.195588 0.804413 0.750000
Si Si3 0.694335 0.191176 0.832359
Si Si4 0.320883 0.804686 0.411231
O O1 0.260759 0.836118 0.065752
O O2 0.000000 0.000000 0.046061
O O3 0.247277 0.000000 0.000000
O O4 0.270586 0.745355 0.789791
O O5 0.000000 0.775273 0.752237
O O6 0.500000 0.192871 0.838811
O O7 0.777490 0.288673 0.866474
O O8 0.752020 0.000000 0.833938
O O9 0.500000 0.736115 0.421765
O O10 0.325081 0.000000 0.418309
#
# Coordination Sequence:
#
# PCOD9566542 Si02
#       4
#     8   8  16  16
#     4   9  18  34  57  85 115 143 177 231 289 341
#     4   9  18  32  52  77 108 148 190 233 277 326
#     4  10  20  34  53  77 108 146 186 229 278 332
#     4  10  20  34  56  83 110 145 185 226 278 343
#
# _framework density 20.667182
#
# number of rings (size 3 to 8) (size 9 to 14) (size 15 to 20)
#    0.000    2.333    1.667    1.000    0.000    4.000 
#    0.000    6.667    0.000    2.000    0.000    2.333 
#    0.000    0.000    0.000    0.000    0.000    0.000 
#
# Total GULP energy -267926.403069 kJ/mol
# GULP energy per Si atom -5581.800064 kJ/mol
# Density = 2.062014 g / cm^3
# Si number density = 20.667182 Si / 1000 Ang^3
#
#
#
# Elastic Constant Matrix: (Units=GPa)
#
#
# Indices 1 2 3 4 5 6 
#
# 1 63.0482 27.0043 36.0731 0.0000 0.0000 0.0000
# 2 27.0043 63.0488 36.0731 0.0000 0.0000 0.0000
# 3 36.0731 36.0731 119.4273 0.0000 0.0000 0.0000
# 4 0.0000 0.0000 0.0000 -15.5469 0.0000 0.0000
# 5 0.0000 0.0000 0.0000 0.0000 -15.5468 0.0000
# 6 0.0000 0.0000 0.0000 0.0000 0.0000 6.2405
#
#
#
# Elastic Compliance Matrix: (Units=1/GPa)
#
#
# Indices 1 2 3 4 5 6 
#
# 1 0.021197 -0.006547 -0.004425 0.000000 0.000000 0.000000
# 2 -0.006547 0.021197 -0.004425 0.000000 0.000000 0.000000
# 3 -0.004425 -0.004425 0.011046 0.000000 0.000000 0.000000
# 4 0.000000 0.000000 0.000000 -0.064322 0.000000 0.000000
# 5 0.000000 0.000000 0.000000 0.000000 -0.064322 0.000000
# 6 0.000000 0.000000 0.000000 0.000000 0.000000 0.160243
#
#
# Mechanical properties :
#
#
# Convention : Reuss Voigt Hill
#
# Bulk Modulus (GPa) = 44.15799 49.31392 46.73595
# Shear Modulus (GPa) = 40.52480 4.78764 22.65622
#
# Velocity S-wave (km/s) = 4.43293 1.52367 3.31455
# Velocity P-wave (km/s) = 6.90027 5.19694 6.10827
#
# Compressibility (1/GPa) = 0.02264596
#
# Stress axis : x y z
#
# Youngs Moduli (GPa) = 47.17692 47.17750 90.52724
#
# Poissons Ratio (x) = 0.30887 0.40058
# Poissons Ratio (y) = 0.30887 0.40057
# Poissons Ratio (z) = 0.20876 0.20876
#
# Static dielectric constant tensor:
#      x y z
#    x 1.757980 0.000000 0.000000 
#    y 0.000000 1.757970 0.000000 
#    z 0.000000 0.000000 1.708010 
# 
# From -- ./inp_files/12909.got.cif
#   From: 2010.05.17/outbox.cif.g08.bks.cpg/sg131_7_cif.got.tgz:12909.got - 2010.05.20 12:21:01.
