data_PCOD9566901
_publ_section_title
;
Structure prediction by ZEFSAII (Michael W. Deem and Ramdas Pophale) SiO2 
 PCOD9566901
Probable space group: P 42/M M C
;
_chemical_formula_sum "Si O2"
_cell_formula_units_Z 96
_cell_length_a 18.794446
_cell_length_b 18.794446
_cell_length_c 18.113940
_cell_angle_alpha 90.000000
_cell_angle_beta 90.000000
_cell_angle_gamma 90.000000
_cell_volume 6398.408771
_symmetry_space_group_name_H-M "P 42/M M C"
_symmetry_group_IT_number 131
_symmetry_cell_setting 'tetragonal'
loop_
_space_group_symop_operation_xyz
x,y,z
-x,-y,z
-y,x,1/2+z
y,-x,1/2+z
-x,y,-z
x,-y,-z
y,x,1/2-z
-y,-x,1/2-z
-x,-y,-z
x,y,-z
y,-x,1/2-z
-y,x,1/2-z
x,-y,z
-x,y,z
-y,-x,1/2+z
y,x,1/2+z
loop_
_atom_site_type_symbol
_atom_site_label
_atom_site_fract_x
_atom_site_fract_y
_atom_site_fract_z
Si Si1 0.833678 0.205018 0.411821
Si Si2 0.779131 0.419243 0.638815
Si Si3 0.583381 0.308483 0.285572
Si Si4 0.307208 0.286371 0.414638
Si Si5 0.081903 0.081223 0.161186
Si Si6 0.917629 0.650985 0.411118
O O1 0.834751 0.195808 0.500000
O O2 0.753924 0.229847 0.391670
O O3 0.862390 0.135222 0.372906
O O4 0.887198 0.270282 0.394445
O O5 0.763644 0.500000 0.616397
O O6 0.752805 0.410456 0.723154
O O7 0.733994 0.361872 0.592672
O O8 0.861886 0.401899 0.626921
O O9 0.623006 0.376995 0.250000
O O10 0.500000 0.321313 0.299440
O O11 0.627205 0.287823 0.358564
O O12 0.326790 0.274667 0.500000
O O13 0.084660 0.084660 0.250000
O O14 0.000000 0.093086 0.138999
O O15 0.101385 0.000000 0.139319
O O16 0.912644 0.641368 0.500000
O O17 0.000000 0.643257 0.389930
#
# Coordination Sequence:
#
# PCOD9566901 Si02
#       6
#    16  16  16  16  16  16
#     4   9  17  29  44  62  86 114 145 182 219 257
#     4   9  17  29  44  63  89 118 145 173 208 253
#     4   9  18  32  49  68  90 116 144 177 218 262
#     4   9  18  31  47  67  88 113 146 182 219 259
#     4   9  18  30  42  60  87 117 149 185 225 267
#     4   9  17  27  40  62  90 118 147 177 211 252
#
# _framework density 15.003731
#
# number of rings (size 3 to 8) (size 9 to 14) (size 15 to 20)
#    0.000    3.000    0.000    2.500    0.000    6.833 
#    0.000    1.667    0.000    0.000    0.000    4.667 
#    0.000    0.000    0.000    7.333    0.000    0.000 
#
# Total GULP energy -534665.512865 kJ/mol
# GULP energy per Si atom -5569.432426 kJ/mol
# Density = 1.496958 g / cm^3
# Si number density = 15.003731 Si / 1000 Ang^3
#
#
#
# Elastic Constant Matrix: (Units=GPa)
#
#
# Indices 1 2 3 4 5 6 
#
# 1 97.2782 46.0711 39.7929 0.0000 0.0000 0.0000
# 2 46.0711 97.2781 39.7931 0.0000 0.0000 0.0000
# 3 39.7929 39.7931 41.3581 0.0000 0.0000 0.0000
# 4 0.0000 0.0000 0.0000 19.8151 0.0000 0.0000
# 5 0.0000 0.0000 0.0000 0.0000 19.8154 0.0000
# 6 0.0000 0.0000 0.0000 0.0000 0.0000 14.1747
#
#
#
# Elastic Compliance Matrix: (Units=1/GPa)
#
#
# Indices 1 2 3 4 5 6 
#
# 1 0.017252 -0.002276 -0.014409 0.000000 0.000000 0.000000
# 2 -0.002276 0.017252 -0.014409 0.000000 0.000000 0.000000
# 3 -0.014409 -0.014409 0.051907 0.000000 0.000000 0.000000
# 4 0.000000 0.000000 0.000000 0.050466 0.000000 0.000000
# 5 0.000000 0.000000 0.000000 0.000000 0.050466 0.000000
# 6 0.000000 0.000000 0.000000 0.000000 0.000000 0.070548
#
#
# Mechanical properties :
#
#
# Convention : Reuss Voigt Hill
#
# Bulk Modulus (GPa) = 41.28486 54.13652 47.71069
# Shear Modulus (GPa) = 15.23674 18.11153 16.67413
#
# Velocity S-wave (km/s) = 3.19019 3.47815 3.33728
# Velocity P-wave (km/s) = 6.41451 7.23121 6.83507
#
# Compressibility (1/GPa) = 0.02422196
#
# Stress axis : x y z
#
# Youngs Moduli (GPa) = 57.96413 57.96366 19.26540
#
# Poissons Ratio (x) = 0.13195 0.27759
# Poissons Ratio (y) = 0.13195 0.27760
# Poissons Ratio (z) = 0.83520 0.83520
#
# Static dielectric constant tensor:
#      x y z
#    x 1.493210 0.000000 0.000000 
#    y 0.000000 1.493210 0.000000 
#    z 0.000000 0.000000 1.491790 
# 
# From -- ./inp_files/7931.got.cif
#   From: 2010.05.17/outbox.cif.g08.bks.cpg/sg131_4_cif.got.tgz:7931.got - 2010.05.20 12:21:01.
