data_PCOD9566473
_publ_section_title
;
Structure prediction by ZEFSAII (Michael W. Deem and Ramdas Pophale) SiO2 
 PCOD9566473
Probable space group: P 42/M M C
;
_chemical_formula_sum "Si O2"
_cell_formula_units_Z 96
_cell_length_a 22.359657
_cell_length_b 22.359657
_cell_length_c 11.654768
_cell_angle_alpha 90.000000
_cell_angle_beta 90.000000
_cell_angle_gamma 90.000000
_cell_volume 5826.850924
_symmetry_space_group_name_H-M "P 42/M M C"
_symmetry_group_IT_number 131
_symmetry_cell_setting 'tetragonal'
loop_
_space_group_symop_operation_xyz
x,y,z
-x,-y,z
-y,x,1/2+z
y,-x,1/2+z
-x,y,-z
x,-y,-z
y,x,1/2-z
-y,-x,1/2-z
-x,-y,-z
x,y,-z
y,-x,1/2-z
-y,x,1/2-z
x,-y,z
-x,y,z
-y,-x,1/2+z
y,x,1/2+z
loop_
_atom_site_type_symbol
_atom_site_label
_atom_site_fract_x
_atom_site_fract_y
_atom_site_fract_z
Si Si1 0.935619 0.305105 0.363063
Si Si2 0.180890 0.567930 0.835556
Si Si3 0.237571 0.848477 0.295810
Si Si4 0.898295 0.434877 0.363884
Si Si5 0.736516 0.682297 0.866813
Si Si6 0.928385 0.399087 0.000000
Si Si7 0.254541 0.067579 0.500000
O O1 0.932376 0.298309 0.500000
O O2 0.878442 0.276283 0.304409
O O3 0.934699 0.375635 0.335778
O O4 0.000000 0.280698 0.322722
O O5 0.198315 0.500000 0.865322
O O6 0.164383 0.570600 0.701661
O O7 0.230680 0.617321 0.862823
O O8 0.115850 0.580755 0.895752
O O9 0.175589 0.824412 0.250000
O O10 0.271905 0.791949 0.350864
O O11 0.231626 0.898474 0.389977
O O12 0.890542 0.434507 0.500000
O O13 0.924262 0.500000 0.331848
O O14 0.696219 0.696219 0.750000
O O15 0.712535 0.689668 0.000000
O O16 0.929074 0.327116 0.000000
O O17 0.000000 0.417814 0.000000
O O18 0.236315 0.000000 0.500000
#
# Coordination Sequence:
#
# PCOD9566473 Si02
#       7
#    16  16  16  16  16   8   8
#     4  10  20  33  49  71 100 135 173 219 269 310
#     4  11  20  34  53  76 106 141 190 232 268 318
#     4  11  21  33  52  73  99 132 175 215 264 320
#     4   9  18  31  46  68 100 139 181 215 251 300
#     4  11  22  37  54  79 107 143 188 228 281 325
#     4  11  21  34  51  76 110 145 186 228 270 311
#     4  11  20  35  54  75 107 138 171 215 265 316
#
# _framework density 16.475452000000001
#
# number of rings (size 3 to 8) (size 9 to 14) (size 15 to 20)
#    0.000    1.500    5.000    0.750    1.167    4.333 
#    0.000    3.333    0.000    0.000    0.000    0.000 
#    0.000    8.333    0.000    1.500    0.000    0.000 
#
# Total GULP energy -534460.157344 kJ/mol
# GULP energy per Si atom -5567.293306 kJ/mol
# Density = 1.643795 g / cm^3
# Si number density = 16.475452 Si / 1000 Ang^3
#
#
#
# Elastic Constant Matrix: (Units=GPa)
#
#
# Indices 1 2 3 4 5 6 
#
# 1 70.5224 38.5938 36.7124 0.0000 0.0000 0.0000
# 2 38.5938 70.5174 36.7109 0.0000 0.0000 0.0000
# 3 36.7124 36.7109 65.9882 0.0000 0.0000 0.0000
# 4 0.0000 0.0000 0.0000 10.3366 0.0000 0.0000
# 5 0.0000 0.0000 0.0000 0.0000 10.3373 0.0000
# 6 0.0000 0.0000 0.0000 0.0000 0.0000 15.4276
#
#
#
# Elastic Compliance Matrix: (Units=1/GPa)
#
#
# Indices 1 2 3 4 5 6 
#
# 1 0.022985 -0.008337 -0.008150 0.000000 0.000000 0.000000
# 2 -0.008337 0.022986 -0.008150 0.000000 0.000000 0.000000
# 3 -0.008150 -0.008150 0.024222 0.000000 0.000000 0.000000
# 4 0.000000 0.000000 0.000000 0.096744 0.000000 0.000000
# 5 0.000000 0.000000 0.000000 0.000000 0.096737 0.000000
# 6 0.000000 0.000000 0.000000 0.000000 0.000000 0.064819
#
#
# Mechanical properties :
#
#
# Convention : Reuss Voigt Hill
#
# Bulk Modulus (GPa) = 47.79879 47.89580 47.84730
# Shear Modulus (GPa) = 12.99583 13.55435 13.27509
#
# Velocity S-wave (km/s) = 2.81160 2.87139 2.84165
# Velocity P-wave (km/s) = 6.29407 6.33461 6.31437
#
# Compressibility (1/GPa) = 0.02092103
#
# Stress axis : x y z
#
# Youngs Moduli (GPa) = 43.50714 43.50424 41.28473
#
# Poissons Ratio (x) = 0.36269 0.33645
# Poissons Ratio (y) = 0.36271 0.33646
# Poissons Ratio (z) = 0.35456 0.35454
#
# Static dielectric constant tensor:
#      x y z
#    x 1.553600 0.000000 0.000000 
#    y 0.000000 1.553600 0.000000 
#    z 0.000000 0.000000 1.651940 
# 
# From -- ./inp_files/4332.got.cif
#   From: 2010.05.17/outbox.cif.g08.bks.cpg/sg131_3_cif.got.tgz:4332.got - 2010.05.20 12:21:01.
