data_PCOD9566704
_publ_section_title
;
Structure prediction by ZEFSAII (Michael W. Deem and Ramdas Pophale) SiO2 
 PCOD9566704
Probable space group: P 42/M M C
;
_chemical_formula_sum "Si O2"
_cell_formula_units_Z 42
_cell_length_a 15.108279
_cell_length_b 15.108279
_cell_length_c 9.171714
_cell_angle_alpha 90.000000
_cell_angle_beta 90.000000
_cell_angle_gamma 90.000000
_cell_volume 2093.536303
_symmetry_space_group_name_H-M "P 42/M M C"
_symmetry_group_IT_number 131
_symmetry_cell_setting 'tetragonal'
loop_
_space_group_symop_operation_xyz
x,y,z
-x,-y,z
-y,x,1/2+z
y,-x,1/2+z
-x,y,-z
x,-y,-z
y,x,1/2-z
-y,-x,1/2-z
-x,-y,-z
x,y,-z
y,-x,1/2-z
-y,x,1/2-z
x,-y,z
-x,y,z
-y,-x,1/2+z
y,x,1/2+z
loop_
_atom_site_type_symbol
_atom_site_label
_atom_site_fract_x
_atom_site_fract_y
_atom_site_fract_z
Si Si1 0.201398 0.327641 0.673243
Si Si2 0.500000 0.299559 0.167798
Si Si3 0.500000 0.500000 0.750000
Si Si4 0.000000 0.128448 0.171502
Si Si5 0.000000 0.306951 0.329855
O O1 0.239361 0.239361 0.750000
O O2 0.216724 0.316037 0.500000
O O3 0.258740 0.410362 0.732239
O O4 0.096932 0.349943 0.689982
O O5 0.500000 0.405505 0.169925
O O6 0.500000 0.269263 0.000000
O O7 0.082917 0.082917 0.250000
O O8 0.000000 0.229583 0.212502
O O9 0.000000 0.111507 0.000000
O O10 0.000000 0.274711 0.500000
#
# Coordination Sequence:
#
# PCOD9566704 Si02
#       5
#    16   8   2   8   8
#     4  10  21  38  58  85 117 154 197 243 293 351
#     4  10  21  36  59  89 118 150 192 241 298 355
#     4  12  18  36  64  90 120 144 194 240 306 344
#     4  11  21  34  54  79 110 146 195 249 299 347
#     4  10  21  36  56  80 114 156 197 239 289 343
#
# _framework density 20.061748000000001
#
# number of rings (size 3 to 8) (size 9 to 14) (size 15 to 20)
#    0.000    1.714    1.905    3.714    0.000    5.333 
#    0.000    4.762    0.000    0.000    0.000    4.000 
#    0.000    0.000    0.000    0.000    0.000    0.000 
#
# Total GULP energy -233979.495417 kJ/mol
# GULP energy per Si atom -5570.940367 kJ/mol
# Density = 2.001609 g / cm^3
# Si number density = 20.061748 Si / 1000 Ang^3
#
#
#
# Elastic Constant Matrix: (Units=GPa)
#
#
# Indices 1 2 3 4 5 6 
#
# 1 108.5653 44.9764 25.7839 0.0000 0.0000 0.0000
# 2 44.9764 108.5653 25.7839 0.0000 0.0000 0.0000
# 3 25.7839 25.7839 66.9202 0.0000 0.0000 0.0000
# 4 0.0000 0.0000 0.0000 18.9808 0.0000 0.0000
# 5 0.0000 0.0000 0.0000 0.0000 18.9808 0.0000
# 6 0.0000 0.0000 0.0000 0.0000 0.0000 49.5576
#
#
#
# Elastic Compliance Matrix: (Units=1/GPa)
#
#
# Indices 1 2 3 4 5 6 
#
# 1 0.011603 -0.004123 -0.002882 0.000000 0.000000 0.000000
# 2 -0.004123 0.011603 -0.002882 0.000000 0.000000 0.000000
# 3 -0.002882 -0.002882 0.017164 0.000000 0.000000 0.000000
# 4 0.000000 0.000000 0.000000 0.052685 0.000000 0.000000
# 5 0.000000 0.000000 0.000000 0.000000 0.052685 0.000000
# 6 0.000000 0.000000 0.000000 0.000000 0.000000 0.020179
#
#
# Mechanical properties :
#
#
# Convention : Reuss Voigt Hill
#
# Bulk Modulus (GPa) = 48.55141 53.01548 50.78344
# Shear Modulus (GPa) = 25.96599 30.00427 27.98513
#
# Velocity S-wave (km/s) = 3.60155 3.87149 3.73895
# Velocity P-wave (km/s) = 6.44580 6.81675 6.63387
#
# Compressibility (1/GPa) = 0.02059673
#
# Stress axis : x y z
#
# Youngs Moduli (GPa) = 86.18098 86.18098 58.26053
#
# Poissons Ratio (x) = 0.35528 0.16793
# Poissons Ratio (y) = 0.35528 0.16793
# Poissons Ratio (z) = 0.24840 0.24840
#
# Static dielectric constant tensor:
#      x y z
#    x 1.768160 0.000000 0.000000 
#    y 0.000000 1.768160 0.000000 
#    z 0.000000 0.000000 1.689550 
# 
# From -- ./inp_files/819.got.cif
#   From: 2010.05.17/outbox.cif.g08.bks.cpg/sg131_1_cif.got.tgz:819.got - 2010.05.20 12:21:01.
