data_PCOD9566320
_publ_section_title
;
Structure prediction by ZEFSAII (Michael W. Deem and Ramdas Pophale) SiO2 
 PCOD9566320
Probable space group: P 42/M M C
;
_chemical_formula_sum "Si O2"
_cell_formula_units_Z 96
_cell_length_a 13.696111
_cell_length_b 13.696111
_cell_length_c 22.391653
_cell_angle_alpha 90.000000
_cell_angle_beta 90.000000
_cell_angle_gamma 90.000000
_cell_volume 4200.303667
_symmetry_space_group_name_H-M "P 42/M M C"
_symmetry_group_IT_number 131
_symmetry_cell_setting 'tetragonal'
loop_
_space_group_symop_operation_xyz
x,y,z
-x,-y,z
-y,x,1/2+z
y,-x,1/2+z
-x,y,-z
x,-y,-z
y,x,1/2-z
-y,-x,1/2-z
-x,-y,-z
x,y,-z
y,-x,1/2-z
-y,x,1/2-z
x,-y,z
-x,y,z
-y,-x,1/2+z
y,x,1/2+z
loop_
_atom_site_type_symbol
_atom_site_label
_atom_site_fract_x
_atom_site_fract_y
_atom_site_fract_z
Si Si1 0.109760 0.618871 0.244350
Si Si2 0.888171 0.116930 0.316073
Si Si3 0.882608 0.387749 0.617159
Si Si4 0.615523 0.306354 0.310348
Si Si5 0.616818 0.681883 0.436344
Si Si6 0.793187 0.198032 0.434458
O O1 0.105893 0.500000 0.242843
O O2 0.136665 0.641575 0.313334
O O3 0.195237 0.651091 0.200043
O O4 0.000000 0.654300 0.230847
O O5 0.851178 0.148823 0.250000
O O6 0.831194 0.142869 0.376348
O O7 0.000000 0.153527 0.323608
O O8 0.892081 0.000000 0.311448
O O9 0.851479 0.500000 0.607649
O O10 0.836330 0.307675 0.574178
O O11 0.000000 0.385974 0.610881
O O12 0.640094 0.359907 0.250000
O O13 0.500000 0.299768 0.313829
O O14 0.646388 0.359441 0.371501
O O15 0.640935 0.632744 0.500000
O O16 0.500000 0.694029 0.436344
O O17 0.676763 0.783267 0.435544
O O18 0.822584 0.159365 0.500000
#
# Coordination Sequence:
#
# PCOD9566320 Si02
#       6
#    16  16  16  16  16  16
#     4   8  15  29  49  74 103 135 174 219 266 318
#     4   9  20  40  63  87 118 155 192 232 284 349
#     4   9  18  32  50  78 119 156 182 222 290 367
#     4  10  19  32  55  83 108 136 175 228 281 326
#     4   9  20  39  58  77 109 154 196 234 283 341
#     4  11  22  35  57  86 113 148 196 245 289 338
#
# _framework density 22.855488999999999
#
# number of rings (size 3 to 8) (size 9 to 14) (size 15 to 20)
#    0.000    2.667    0.000    3.000    0.000    4.167 
#    0.000    4.167    0.000    6.000    0.000   15.167 
#    0.000    0.333    0.000    0.000    0.000    0.000 
#
# Total GULP energy -535479.498585 kJ/mol
# GULP energy per Si atom -5577.911444 kJ/mol
# Density = 2.280347 g / cm^3
# Si number density = 22.855489 Si / 1000 Ang^3
#
#
#
# Elastic Constant Matrix: (Units=GPa)
#
#
# Indices 1 2 3 4 5 6 
#
# 1 6.4783 22.0939 13.0204 0.0000 0.0000 0.0000
# 2 22.0939 6.4650 13.0147 0.0000 0.0000 0.0000
# 3 13.0204 13.0147 186.1601 0.0000 0.0000 0.0000
# 4 0.0000 0.0000 0.0000 20.2534 0.0000 0.0000
# 5 0.0000 0.0000 0.0000 0.0000 20.2539 0.0000
# 6 0.0000 0.0000 0.0000 0.0000 0.0000 19.4404
#
#
#
# Elastic Compliance Matrix: (Units=1/GPa)
#
#
# Indices 1 2 3 4 5 6 
#
# 1 -0.013296 0.050701 -0.002615 0.000000 0.000000 0.000000
# 2 0.050701 -0.013326 -0.002615 0.000000 0.000000 0.000000
# 3 -0.002615 -0.002615 0.005737 0.000000 0.000000 0.000000
# 4 0.000000 0.000000 0.000000 0.049374 0.000000 0.000000
# 5 0.000000 0.000000 0.000000 0.000000 0.049373 0.000000
# 6 0.000000 0.000000 0.000000 0.000000 0.000000 0.051439
#
#
# Mechanical properties :
#
#
# Convention : Reuss Voigt Hill
#
# Bulk Modulus (GPa) = 14.27358 32.81792 23.54575
# Shear Modulus (GPa) = 81.02022 22.05450 51.53736
#
# Velocity S-wave (km/s) = 5.96036 3.10974 4.75375
# Velocity P-wave (km/s) = 7.32301 5.22341 6.36045
#
# Compressibility (1/GPa) = 0.07005949
#
# Stress axis : x y z
#
# Youngs Moduli (GPa) = -75.21278 -75.04374 174.29565
#
# Poissons Ratio (x) = 3.80478 0.45572
# Poissons Ratio (y) = 3.81335 0.45570
# Poissons Ratio (z) = -0.19665 -0.19620
#
# Static dielectric constant tensor:
#      x y z
#    x 1.895740 0.000000 0.000000 
#    y 0.000000 1.895740 0.000000 
#    z 0.000000 0.000000 1.898770 
# 
# From -- ./inp_files/9767.got.cif
#   From: 2010.05.17/outbox.cif.g08.bks.cpg/sg131_5_cif.got.tgz:9767.got - 2010.05.20 12:21:01.
