data_PCOD9566188
_publ_section_title
;
Structure prediction by ZEFSAII (Michael W. Deem and Ramdas Pophale) SiO2 
 PCOD9566188
Probable space group: P 42/M M C
;
_chemical_formula_sum "Si O2"
_cell_formula_units_Z 128
_cell_length_a 18.544569
_cell_length_b 18.544569
_cell_length_c 21.107528
_cell_angle_alpha 90.000000
_cell_angle_beta 90.000000
_cell_angle_gamma 90.000000
_cell_volume 7258.900818
_symmetry_space_group_name_H-M "P 42/M M C"
_symmetry_group_IT_number 131
_symmetry_cell_setting 'tetragonal'
loop_
_space_group_symop_operation_xyz
x,y,z
-x,-y,z
-y,x,1/2+z
y,-x,1/2+z
-x,y,-z
x,-y,-z
y,x,1/2-z
-y,-x,1/2-z
-x,-y,-z
x,y,-z
y,-x,1/2-z
-y,x,1/2-z
x,-y,z
-x,y,z
-y,-x,1/2+z
y,x,1/2+z
loop_
_atom_site_type_symbol
_atom_site_label
_atom_site_fract_x
_atom_site_fract_y
_atom_site_fract_z
Si Si1 0.700879 0.585861 0.252998
Si Si2 0.308359 0.788458 0.847363
Si Si3 0.381670 0.421231 0.072650
Si Si4 0.918854 0.783605 0.300689
Si Si5 0.736843 0.578142 0.424983
Si Si6 0.580728 0.777499 0.615868
Si Si7 0.917569 0.166340 0.155224
Si Si8 0.172573 0.274497 0.075896
O O1 0.621147 0.621147 0.250000
O O2 0.699754 0.500000 0.268695
O O3 0.744308 0.642236 0.297838
O O4 0.743233 0.590763 0.185873
O O5 0.275913 0.859930 0.817808
O O6 0.364089 0.795003 0.904367
O O7 0.241699 0.747450 0.880595
O O8 0.399362 0.500000 0.102293
O O9 0.409134 0.345390 0.099909
O O10 0.295029 0.414997 0.073388
O O11 0.407070 0.424344 0.000000
O O12 0.895951 0.857386 0.336945
O O13 0.915497 0.797629 0.225252
O O14 0.000000 0.763352 0.317564
O O15 0.729610 0.580887 0.500000
O O16 0.760853 0.500000 0.404334
O O17 0.500000 0.807043 0.611647
O O18 0.641248 0.832958 0.593393
O O19 0.890504 0.223449 0.102885
O O20 0.000000 0.142674 0.143928
O O21 0.183077 0.265576 0.000000
#
# Coordination Sequence:
#
# PCOD9566188 Si02
#       8
#    16  16  16  16  16  16  16  16
#     4  11  21  33  51  75 106 148 190 238 299 347
#     4  11  20  33  53  74 107 135 184 230 267 321
#     4   9  16  27  42  62  94 132 171 220 273 322
#     4   9  19  35  60  89 114 144 171 206 265 323
#     4  10  19  30  45  67  96 134 179 227 276 317
#     4  10  19  30  46  71 100 134 182 235 282 328
#     4   9  19  35  57  88 120 140 165 208 259 325
#     4  11  20  32  54  78 106 149 191 228 273 324
#
# _framework density 17.633524000000001
#
# number of rings (size 3 to 8) (size 9 to 14) (size 15 to 20)
#    0.000    2.000    2.500    1.875    1.750    1.625 
#    0.000    2.500    0.000   15.000    0.000   10.500 
#    0.000    0.000    0.000    0.000    0.000    0.000 
#
# Total GULP energy -712681.302394 kJ/mol
# GULP energy per Si atom -5567.822675 kJ/mol
# Density = 1.759339 g / cm^3
# Si number density = 17.633524 Si / 1000 Ang^3
#
#
#
# Elastic Constant Matrix: (Units=GPa)
#
#
# Indices 1 2 3 4 5 6 
#
# 1 81.5279 42.8125 28.1841 0.0000 0.0000 0.0000
# 2 42.8125 81.5279 28.1841 0.0000 0.0000 0.0000
# 3 28.1841 28.1841 71.0965 0.0000 0.0000 0.0000
# 4 0.0000 0.0000 0.0000 18.4417 0.0000 0.0000
# 5 0.0000 0.0000 0.0000 0.0000 18.4417 0.0000
# 6 0.0000 0.0000 0.0000 0.0000 0.0000 15.0739
#
#
#
# Elastic Compliance Matrix: (Units=1/GPa)
#
#
# Indices 1 2 3 4 5 6 
#
# 1 0.017817 -0.008013 -0.003887 0.000000 0.000000 0.000000
# 2 -0.008013 0.017817 -0.003887 0.000000 0.000000 0.000000
# 3 -0.003887 -0.003887 0.017147 0.000000 0.000000 0.000000
# 4 0.000000 0.000000 0.000000 0.054225 0.000000 0.000000
# 5 0.000000 0.000000 0.000000 0.000000 0.054225 0.000000
# 6 0.000000 0.000000 0.000000 0.000000 0.000000 0.066340
#
#
# Mechanical properties :
#
#
# Convention : Reuss Voigt Hill
#
# Bulk Modulus (GPa) = 47.14969 48.05707 47.60338
# Shear Modulus (GPa) = 18.78202 19.38956 19.08579
#
# Velocity S-wave (km/s) = 3.26718 3.31960 3.29349
# Velocity P-wave (km/s) = 6.40541 6.48116 6.44339
#
# Compressibility (1/GPa) = 0.02120905
#
# Stress axis : x y z
#
# Youngs Moduli (GPa) = 56.12624 56.12624 58.31963
#
# Poissons Ratio (x) = 0.44972 0.22667
# Poissons Ratio (y) = 0.44972 0.22667
# Poissons Ratio (z) = 0.21814 0.21814
#
# Static dielectric constant tensor:
#      x y z
#    x 1.607290 0.000000 0.000000 
#    y 0.000000 1.607290 0.000000 
#    z 0.000000 0.000000 1.682270 
# 
# From -- ./inp_files/11546.got.cif
#   From: 2010.05.17/outbox.cif.g08.bks.cpg/sg131_6_cif.got.tgz:11546.got - 2010.05.20 12:21:01.
