data_PCOD9566096
_publ_section_title
;
Structure prediction by ZEFSAII (Michael W. Deem and Ramdas Pophale) SiO2 
 PCOD9566096
Probable space group: P 42/M M C
;
_chemical_formula_sum "Si O2"
_cell_formula_units_Z 64
_cell_length_a 21.704774
_cell_length_b 21.704774
_cell_length_c 8.379731
_cell_angle_alpha 90.000000
_cell_angle_beta 90.000000
_cell_angle_gamma 90.000000
_cell_volume 3947.667931
_symmetry_space_group_name_H-M "P 42/M M C"
_symmetry_group_IT_number 131
_symmetry_cell_setting 'tetragonal'
loop_
_space_group_symop_operation_xyz
x,y,z
-x,-y,z
-y,x,1/2+z
y,-x,1/2+z
-x,y,-z
x,-y,-z
y,x,1/2-z
-y,-x,1/2-z
-x,-y,-z
x,y,-z
y,-x,1/2-z
-y,x,1/2-z
x,-y,z
-x,y,z
-y,-x,1/2+z
y,x,1/2+z
loop_
_atom_site_type_symbol
_atom_site_label
_atom_site_fract_x
_atom_site_fract_y
_atom_site_fract_z
Si Si1 0.638312 0.929707 0.194397
Si Si2 0.500000 0.247672 0.184661
Si Si3 0.500000 0.900033 0.815474
Si Si4 0.717910 0.369903 0.813282
Si Si5 0.723661 0.181304 0.812824
O O1 0.567287 0.919085 0.252211
O O2 0.690015 0.880777 0.251985
O O3 0.655459 0.000000 0.230308
O O4 0.635555 0.922494 0.000000
O O5 0.500000 0.173653 0.184685
O O6 0.439887 0.270208 0.273883
O O7 0.500000 0.267623 0.000000
O O8 0.500000 0.922549 0.000000
O O9 0.652277 0.347724 0.750000
O O10 0.767402 0.328743 0.718314
O O11 0.724763 0.356745 0.000000
O O12 0.786834 0.213167 0.750000
O O13 0.733007 0.172158 0.000000
#
# Coordination Sequence:
#
# PCOD9566096 Si02
#       5
#    16   8   8  16  16
#     4   9  16  26  43  68  95 125 162 199 233 274
#     4  11  19  32  51  72  95 122 155 195 238 285
#     4   9  15  25  42  66  95 123 155 190 227 267
#     4  11  21  33  49  70  93 122 157 198 242 284
#     4  10  18  30  47  68  93 123 158 199 239 279
#
# _framework density 16.212104
#
# number of rings (size 3 to 8) (size 9 to 14) (size 15 to 20)
#    0.000    2.000    2.500    5.250    0.000    1.500 
#    0.000    0.000    0.000    3.375    0.000    4.375 
#    0.000    0.500    0.000    6.250    0.000    0.000 
#
# Total GULP energy -356404.727391 kJ/mol
# GULP energy per Si atom -5568.823865 kJ/mol
# Density = 1.617520 g / cm^3
# Si number density = 16.212104 Si / 1000 Ang^3
#
#
#
# Elastic Constant Matrix: (Units=GPa)
#
#
# Indices 1 2 3 4 5 6 
#
# 1 99.2558 59.3379 5.5145 0.0000 0.0000 0.0000
# 2 59.3379 99.2520 5.5118 0.0000 0.0000 0.0000
# 3 5.5145 5.5118 14.7901 0.0000 0.0000 0.0000
# 4 0.0000 0.0000 0.0000 -57.3277 0.0000 0.0000
# 5 0.0000 0.0000 0.0000 0.0000 -57.4036 0.0000
# 6 0.0000 0.0000 0.0000 0.0000 0.0000 10.9877
#
#
#
# Elastic Compliance Matrix: (Units=1/GPa)
#
#
# Indices 1 2 3 4 5 6 
#
# 1 0.015763 -0.009290 -0.002415 0.000000 0.000000 0.000000
# 2 -0.009290 0.015763 -0.002411 0.000000 0.000000 0.000000
# 3 -0.002415 -0.002411 0.069412 0.000000 0.000000 0.000000
# 4 0.000000 0.000000 0.000000 -0.017444 0.000000 0.000000
# 5 0.000000 0.000000 0.000000 0.000000 -0.017421 0.000000
# 6 0.000000 0.000000 0.000000 0.000000 0.000000 0.091011
#
#
# Mechanical properties :
#
#
# Convention : Reuss Voigt Hill
#
# Bulk Modulus (GPa) = 13.75396 39.33626 26.54511
# Shear Modulus (GPa) = 23.86051 -11.21982 6.32034
#
# Velocity S-wave (km/s) = 3.84053 -2.63357 1.97661
# Velocity P-wave (km/s) = 5.30739 3.88183 4.64957
#
# Compressibility (1/GPa) = 0.07270631
#
# Stress axis : x y z
#
# Youngs Moduli (GPa) = 63.44056 63.43944 14.40681
#
# Poissons Ratio (x) = 0.58933 0.03480
# Poissons Ratio (y) = 0.58934 0.03473
# Poissons Ratio (z) = 0.15322 0.15293
#
# Static dielectric constant tensor:
#      x y z
#    x 1.552830 0.000000 0.000000 
#    y 0.000000 1.552830 0.000000 
#    z 0.000000 0.000000 1.574320 
# 
# From -- ./inp_files/1653.got.cif
#   From: 2010.05.17/outbox.cif.g08.bks.cpg/sg131_1_cif.got.tgz:1653.got - 2010.05.20 12:21:01.
