data_PCOD9566726
_publ_section_title
;
Structure prediction by ZEFSAII (Michael W. Deem and Ramdas Pophale) SiO2 
 PCOD9566726
Probable space group: P 42/M M C
;
_chemical_formula_sum "Si O2"
_cell_formula_units_Z 64
_cell_length_a 19.993765
_cell_length_b 19.993765
_cell_length_c 8.904925
_cell_angle_alpha 90.000000
_cell_angle_beta 90.000000
_cell_angle_gamma 90.000000
_cell_volume 3559.749458
_symmetry_space_group_name_H-M "P 42/M M C"
_symmetry_group_IT_number 131
_symmetry_cell_setting 'tetragonal'
loop_
_space_group_symop_operation_xyz
x,y,z
-x,-y,z
-y,x,1/2+z
y,-x,1/2+z
-x,y,-z
x,-y,-z
y,x,1/2-z
-y,-x,1/2-z
-x,-y,-z
x,y,-z
y,-x,1/2-z
-y,x,1/2-z
x,-y,z
-x,y,z
-y,-x,1/2+z
y,x,1/2+z
loop_
_atom_site_type_symbol
_atom_site_label
_atom_site_fract_x
_atom_site_fract_y
_atom_site_fract_z
Si Si1 0.218164 0.680087 0.820230
Si Si2 0.165314 0.070795 0.827199
Si Si3 0.674500 0.075097 0.174670
Si Si4 0.421113 0.324209 0.821021
O O1 0.252202 0.747799 0.750000
O O2 0.142790 0.662073 0.767286
O O3 0.265954 0.621061 0.759579
O O4 0.220532 0.685860 0.000000
O O5 0.133520 0.133520 0.750000
O O6 0.244965 0.071946 0.823704
O O7 0.142761 0.000000 0.758122
O O8 0.144770 0.071685 0.000000
O O9 0.651272 0.000000 0.224406
O O10 0.653436 0.083618 0.000000
O O11 0.392251 0.392251 0.750000
O O12 0.500000 0.317140 0.797597
O O13 0.407580 0.322515 0.000000
#
# Coordination Sequence:
#
# PCOD9566726 Si02
#       4
#    16  16  16  16
#     4  11  21  33  53  79 108 141 179 223 268 317
#     4   9  18  30  42  58  81 112 151 195 246 303
#     4   9  18  33  51  71  98 130 166 214 270 323
#     4  10  21  37  58  84 114 148 183 216 254 304
#
# _framework density 17.978795000000002
#
# number of rings (size 3 to 8) (size 9 to 14) (size 15 to 20)
#    0.000    2.250    0.000    6.750    0.000    6.500 
#    0.000    5.000    0.000    0.750    0.000    5.250 
#    0.000    0.000    0.000    0.000    0.000    0.000 
#
# Total GULP energy -356455.455324 kJ/mol
# GULP energy per Si atom -5569.616489 kJ/mol
# Density = 1.793787 g / cm^3
# Si number density = 17.978795 Si / 1000 Ang^3
#
#
#
# Elastic Constant Matrix: (Units=GPa)
#
#
# Indices 1 2 3 4 5 6 
#
# 1 89.2731 27.7016 48.8745 0.0000 0.0000 0.0000
# 2 27.7016 89.2711 48.8739 0.0000 0.0000 0.0000
# 3 48.8745 48.8739 104.8619 0.0000 0.0000 0.0000
# 4 0.0000 0.0000 0.0000 26.6374 0.0000 0.0000
# 5 0.0000 0.0000 0.0000 0.0000 26.6376 0.0000
# 6 0.0000 0.0000 0.0000 0.0000 0.0000 55.7170
#
#
#
# Elastic Compliance Matrix: (Units=1/GPa)
#
#
# Indices 1 2 3 4 5 6 
#
# 1 0.015122 -0.001119 -0.006526 0.000000 0.000000 0.000000
# 2 -0.001119 0.015122 -0.006526 0.000000 0.000000 0.000000
# 3 -0.006526 -0.006526 0.015620 0.000000 0.000000 0.000000
# 4 0.000000 0.000000 0.000000 0.037541 0.000000 0.000000
# 5 0.000000 0.000000 0.000000 0.000000 0.037541 0.000000
# 6 0.000000 0.000000 0.000000 0.000000 0.000000 0.017948
#
#
# Mechanical properties :
#
#
# Convention : Reuss Voigt Hill
#
# Bulk Modulus (GPa) = 57.07827 59.36734 58.22281
# Shear Modulus (GPa) = 28.88860 32.32880 30.60870
#
# Velocity S-wave (km/s) = 4.01286 4.24508 4.13060
# Velocity P-wave (km/s) = 7.29981 7.55778 7.42991
#
# Compressibility (1/GPa) = 0.01751980
#
# Stress axis : x y z
#
# Youngs Moduli (GPa) = 66.12905 66.12764 64.02037
#
# Poissons Ratio (x) = 0.07403 0.41782
# Poissons Ratio (y) = 0.07403 0.41782
# Poissons Ratio (z) = 0.43158 0.43158
#
# Static dielectric constant tensor:
#      x y z
#    x 1.641980 0.000000 0.000000 
#    y 0.000000 1.641980 0.000000 
#    z 0.000000 0.000000 1.528380 
# 
# From -- ./inp_files/1617.got.cif
#   From: 2010.05.17/outbox.cif.g08.bks.cpg/sg131_1_cif.got.tgz:1617.got - 2010.05.20 12:21:01.
