data_PCOD9566516
_publ_section_title
;
Structure prediction by ZEFSAII (Michael W. Deem and Ramdas Pophale) SiO2 
 PCOD9566516
Probable space group: P 42/M M C
;
_chemical_formula_sum "Si O2"
_cell_formula_units_Z 92
_cell_length_a 25.631105
_cell_length_b 25.631105
_cell_length_c 7.833773
_cell_angle_alpha 90.000000
_cell_angle_beta 90.000000
_cell_angle_gamma 90.000000
_cell_volume 5146.424931
_symmetry_space_group_name_H-M "P 42/M M C"
_symmetry_group_IT_number 131
_symmetry_cell_setting 'tetragonal'
loop_
_space_group_symop_operation_xyz
x,y,z
-x,-y,z
-y,x,1/2+z
y,-x,1/2+z
-x,y,-z
x,-y,-z
y,x,1/2-z
-y,-x,1/2-z
-x,-y,-z
x,y,-z
y,-x,1/2-z
-y,x,1/2-z
x,-y,z
-x,y,z
-y,-x,1/2+z
y,x,1/2+z
loop_
_atom_site_type_symbol
_atom_site_label
_atom_site_fract_x
_atom_site_fract_y
_atom_site_fract_z
Si Si1 0.318596 0.500000 0.000000
Si Si2 0.650006 0.221838 0.707518
Si Si3 0.889266 0.391785 0.200265
Si Si4 0.410125 0.674914 0.200118
Si Si5 0.245888 0.167387 0.699070
Si Si6 0.712259 0.057547 0.802170
Si Si7 0.940198 0.500000 0.295201
O O1 0.318915 0.545553 0.154118
O O2 0.650356 0.228166 0.500000
O O3 0.614350 0.171279 0.749698
O O4 0.627313 0.274255 0.785615
O O5 0.706924 0.202971 0.772918
O O6 0.924993 0.348123 0.287495
O O7 0.911029 0.448621 0.233297
O O8 0.891558 0.379149 0.000000
O O9 0.375447 0.624554 0.250000
O O10 0.427507 0.670652 0.000000
O O11 0.190713 0.190713 0.750000
O O12 0.251271 0.174464 0.500000
O O13 0.255851 0.106819 0.733656
O O14 0.719599 0.000000 0.723863
O O15 0.725481 0.054063 0.000000
O O16 0.940483 0.500000 0.500000
O O17 0.000000 0.500000 0.234472
#
# Coordination Sequence:
#
# PCOD9566516 Si02
#       7
#     4  16  16  16  16  16   8
#     4  12  26  46  68  97 132 148 191 240 258 362
#     4   9  19  37  57  84 120 151 188 236 288 345
#     4  10  21  35  53  75 104 142 188 244 286 332
#     4  12  24  43  71  97 124 163 189 230 292 348
#     4  10  20  33  54  82 115 151 189 239 285 339
#     4  10  20  34  52  74 105 144 187 236 288 340
#     4  11  23  36  49  67  99 144 193 243 287 330
#
# _framework density 17.876487000000001
#
# number of rings (size 3 to 8) (size 9 to 14) (size 15 to 20)
#    0.000    1.652    1.739    4.174    0.000   10.435 
#    0.000    0.000    0.000    0.783    0.000    0.000 
#    0.000    0.348    0.000    3.652    0.000    1.565 
#
# Total GULP energy -512150.386029 kJ/mol
# GULP energy per Si atom -5566.852022 kJ/mol
# Density = 1.783580 g / cm^3
# Si number density = 17.876487 Si / 1000 Ang^3
#
#
#
# Elastic Constant Matrix: (Units=GPa)
#
#
# Indices 1 2 3 4 5 6 
#
# 1 250.4752 -112.0421 19.1413 0.0000 0.0000 0.0000
# 2 -112.0421 250.4951 19.1432 0.0000 0.0000 0.0000
# 3 19.1413 19.1432 90.1968 0.0000 0.0000 0.0000
# 4 0.0000 0.0000 0.0000 22.3853 0.0000 0.0000
# 5 0.0000 0.0000 0.0000 0.0000 22.3862 0.0000
# 6 0.0000 0.0000 0.0000 0.0000 0.0000 15.1927
#
#
#
# Elastic Compliance Matrix: (Units=1/GPa)
#
#
# Indices 1 2 3 4 5 6 
#
# 1 0.005216 0.002458 -0.001629 0.000000 0.000000 0.000000
# 2 0.002458 0.005216 -0.001629 0.000000 0.000000 0.000000
# 3 -0.001629 -0.001629 0.011778 0.000000 0.000000 0.000000
# 4 0.000000 0.000000 0.000000 0.044672 0.000000 0.000000
# 5 0.000000 0.000000 0.000000 0.000000 0.044670 0.000000
# 6 0.000000 0.000000 0.000000 0.000000 0.000000 0.065821
#
#
# Mechanical properties :
#
#
# Convention : Reuss Voigt Hill
#
# Bulk Modulus (GPa) = 48.51768 49.29464 48.90616
# Shear Modulus (GPa) = 26.90443 56.32116 41.61280
#
# Velocity S-wave (km/s) = 3.88366 5.61908 4.82996
# Velocity P-wave (km/s) = 6.87822 8.35068 7.64996
#
# Compressibility (1/GPa) = 0.02061104
#
# Stress axis : x y z
#
# Youngs Moduli (GPa) = 191.71131 191.72612 84.90328
#
# Poissons Ratio (x) = -0.47118 0.13827
# Poissons Ratio (y) = -0.47114 0.13827
# Poissons Ratio (z) = 0.31221 0.31223
#
# Static dielectric constant tensor:
#      x y z
#    x 1.574140 0.000000 0.000000 
#    y 0.000000 1.574140 0.000000 
#    z 0.000000 0.000000 1.653800 
# 
# From -- ./inp_files/2329.got.cif
#   From: 2010.05.17/outbox.cif.g08.bks.cpg/sg131_2_cif.got.tgz:2329.got - 2010.05.20 12:21:01.
