data_PCOD9566559
_publ_section_title
;
Structure prediction by ZEFSAII (Michael W. Deem and Ramdas Pophale) SiO2 
 PCOD9566559
Probable space group: P 42/M M C
;
_chemical_formula_sum "Si O2"
_cell_formula_units_Z 120
_cell_length_a 20.540324
_cell_length_b 20.540324
_cell_length_c 15.261787
_cell_angle_alpha 90.000000
_cell_angle_beta 90.000000
_cell_angle_gamma 90.000000
_cell_volume 6439.022871
_symmetry_space_group_name_H-M "P 42/M M C"
_symmetry_group_IT_number 131
_symmetry_cell_setting 'tetragonal'
loop_
_space_group_symop_operation_xyz
x,y,z
-x,-y,z
-y,x,1/2+z
y,-x,1/2+z
-x,y,-z
x,-y,-z
y,x,1/2-z
-y,-x,1/2-z
-x,-y,-z
x,y,-z
y,-x,1/2-z
-y,x,1/2-z
x,-y,z
-x,y,z
-y,-x,1/2+z
y,x,1/2+z
loop_
_atom_site_type_symbol
_atom_site_label
_atom_site_fract_x
_atom_site_fract_y
_atom_site_fract_z
Si Si1 0.711600 0.076872 0.209700
Si Si2 0.666939 0.758688 0.602484
Si Si3 0.572628 0.119211 0.404849
Si Si4 0.233977 0.073130 0.598608
Si Si5 0.182494 0.788836 0.397935
Si Si6 0.650466 0.577937 0.825358
Si Si7 0.074713 0.569542 0.713074
Si Si8 0.422104 0.571656 0.500000
O O1 0.721381 0.078021 0.315090
O O2 0.760353 0.126601 0.163388
O O3 0.639087 0.101311 0.184509
O O4 0.719061 0.000000 0.184968
O O5 0.664839 0.736611 0.500000
O O6 0.628107 0.826727 0.602635
O O7 0.743190 0.767005 0.625918
O O8 0.624525 0.713112 0.666021
O O9 0.578535 0.086241 0.500000
O O10 0.500000 0.151139 0.404288
O O11 0.572909 0.075621 0.318883
O O12 0.263979 0.080657 0.500000
O O13 0.184463 0.132742 0.606500
O O14 0.206186 0.000000 0.601032
O O15 0.171976 0.770349 0.500000
O O16 0.602825 0.602825 0.750000
O O17 0.664468 0.500000 0.819222
O O18 0.611776 0.592410 0.914165
O O19 0.105760 0.500000 0.688034
O O20 0.000000 0.568223 0.683891
O O21 0.500000 0.564803 0.500000
O O22 0.392161 0.500000 0.500000
#
# Coordination Sequence:
#
# PCOD9566559 Si02
#       8
#    16  16  16  16  16  16  16   8
#     4  10  20  34  55  81 110 147 186 229 276 322
#     4  10  20  35  52  73 102 140 181 221 272 325
#     4   9  17  28  45  70 103 140 174 211 257 318
#     4   9  18  33  54  82 115 148 182 220 268 330
#     4  10  21  36  57  83 109 142 184 231 274 326
#     4  11  22  35  54  79 104 134 177 228 280 339
#     4   9  18  31  46  68  99 136 178 220 265 316
#     4   9  18  34  54  72  96 130 164 212 270 323
#
# _framework density 18.636368000000001
#
# number of rings (size 3 to 8) (size 9 to 14) (size 15 to 20)
#    0.000    2.333    0.667    2.000    0.000    5.467 
#    0.000    2.667    0.000    1.600    0.000    5.600 
#    0.000    0.000    0.000    0.000    0.000    0.000 
#
# Total GULP energy -668016.586568 kJ/mol
# GULP energy per Si atom -5566.804888 kJ/mol
# Density = 1.859395 g / cm^3
# Si number density = 18.636368 Si / 1000 Ang^3
#
#
#
# Elastic Constant Matrix: (Units=GPa)
#
#
# Indices 1 2 3 4 5 6 
#
# 1 106.7016 53.0623 36.6056 0.0000 0.0000 0.0000
# 2 53.0623 106.7016 36.6056 0.0000 0.0000 0.0000
# 3 36.6056 36.6056 61.2886 0.0000 0.0000 0.0000
# 4 0.0000 0.0000 0.0000 7.2624 0.0000 0.0000
# 5 0.0000 0.0000 0.0000 0.0000 7.2624 0.0000
# 6 0.0000 0.0000 0.0000 0.0000 0.0000 16.0648
#
#
#
# Elastic Compliance Matrix: (Units=1/GPa)
#
#
# Indices 1 2 3 4 5 6 
#
# 1 0.013630 -0.005013 -0.005147 0.000000 0.000000 0.000000
# 2 -0.005013 0.013630 -0.005147 0.000000 0.000000 0.000000
# 3 -0.005147 -0.005147 0.022465 0.000000 0.000000 0.000000
# 4 0.000000 0.000000 0.000000 0.137696 0.000000 0.000000
# 5 0.000000 0.000000 0.000000 0.000000 0.137696 0.000000
# 6 0.000000 0.000000 0.000000 0.000000 0.000000 0.062248
#
#
# Mechanical properties :
#
#
# Convention : Reuss Voigt Hill
#
# Bulk Modulus (GPa) = 52.32370 58.58211 55.45291
# Shear Modulus (GPa) = 11.78274 16.01248 13.89761
#
# Velocity S-wave (km/s) = 2.51718 2.93440 2.73376
# Velocity P-wave (km/s) = 6.04858 6.55618 6.30749
#
# Compressibility (1/GPa) = 0.01911180
#
# Stress axis : x y z
#
# Youngs Moduli (GPa) = 73.36498 73.36498 44.51422
#
# Poissons Ratio (x) = 0.36775 0.22912
# Poissons Ratio (y) = 0.36775 0.22912
# Poissons Ratio (z) = 0.37762 0.37762
#
# Static dielectric constant tensor:
#      x y z
#    x 1.668420 0.000000 0.000000 
#    y 0.000000 1.668420 0.000000 
#    z 0.000000 0.000000 1.611360 
# 
# From -- ./inp_files/6327.got.cif
#   From: 2010.05.17/outbox.cif.g08.bks.cpg/sg131_4_cif.got.tgz:6327.got - 2010.05.20 12:21:01.
