data_PCOD9566410
_publ_section_title
;
Structure prediction by ZEFSAII (Michael W. Deem and Ramdas Pophale) SiO2 
 PCOD9566410
Probable space group: P 42/M M C
;
_chemical_formula_sum "Si O2"
_cell_formula_units_Z 96
_cell_length_a 14.781563
_cell_length_b 14.781563
_cell_length_c 21.312959
_cell_angle_alpha 90.000000
_cell_angle_beta 90.000000
_cell_angle_gamma 90.000000
_cell_volume 4656.766552
_symmetry_space_group_name_H-M "P 42/M M C"
_symmetry_group_IT_number 131
_symmetry_cell_setting 'tetragonal'
loop_
_space_group_symop_operation_xyz
x,y,z
-x,-y,z
-y,x,1/2+z
y,-x,1/2+z
-x,y,-z
x,-y,-z
y,x,1/2-z
-y,-x,1/2-z
-x,-y,-z
x,y,-z
y,-x,1/2-z
-y,x,1/2-z
x,-y,z
-x,y,z
-y,-x,1/2+z
y,x,1/2+z
loop_
_atom_site_type_symbol
_atom_site_label
_atom_site_fract_x
_atom_site_fract_y
_atom_site_fract_z
Si Si1 0.361773 0.398376 0.177776
Si Si2 0.108594 0.794583 0.692989
Si Si3 0.788698 0.196068 0.430195
Si Si4 0.157148 0.600373 0.128095
Si Si5 0.403303 0.262646 0.069685
Si Si6 0.599476 0.896919 0.233376
O O1 0.369809 0.369809 0.250000
O O2 0.397695 0.500000 0.172491
O O3 0.257556 0.400831 0.157291
O O4 0.403981 0.331449 0.127269
O O5 0.146800 0.853201 0.750000
O O6 0.148195 0.830386 0.627647
O O7 0.143296 0.690883 0.704713
O O8 0.000000 0.794072 0.693209
O O9 0.817463 0.169005 0.500000
O O10 0.687394 0.157997 0.416550
O O11 0.786530 0.306510 0.428294
O O12 0.138503 0.500000 0.100698
O O13 0.099575 0.612070 0.191377
O O14 0.500000 0.210818 0.072197
O O15 0.401744 0.307720 0.000000
O O16 0.500000 0.853926 0.221852
O O17 0.594893 0.000000 0.210023
#
# Coordination Sequence:
#
# PCOD9566410 Si02
#       6
#    16  16  16  16  16  16
#     4  10  20  29  41  66  96 133 185 243 295 337
#     4  11  23  40  64  91 121 157 201 248 298 359
#     4  10  21  36  57  85 118 156 199 245 296 354
#     4   9  18  32  53  79 111 149 187 237 293 352
#     4   9  19  33  48  69 102 148 194 232 278 342
#     4   9  18  33  57  89 117 144 186 243 302 357
#
# _framework density 20.615162000000002
#
# number of rings (size 3 to 8) (size 9 to 14) (size 15 to 20)
#    0.000    2.333    1.667    0.500    4.667    3.000 
#    0.000    4.167    0.000    2.000    0.000    8.167 
#    0.000    0.333    0.000    0.000    0.000    0.000 
#
# Total GULP energy -534917.791015 kJ/mol
# GULP energy per Si atom -5572.060323 kJ/mol
# Density = 2.056824 g / cm^3
# Si number density = 20.615162 Si / 1000 Ang^3
#
#
#
# Elastic Constant Matrix: (Units=GPa)
#
#
# Indices 1 2 3 4 5 6 
#
# 1 48.6730 20.8458 35.5824 0.0000 0.0000 0.0000
# 2 20.8458 48.6733 35.5817 0.0000 0.0000 0.0000
# 3 35.5824 35.5817 163.3026 0.0000 0.0000 0.0000
# 4 0.0000 0.0000 0.0000 6.4444 0.0000 0.0000
# 5 0.0000 0.0000 0.0000 0.0000 6.4452 0.0000
# 6 0.0000 0.0000 0.0000 0.0000 0.0000 5.4032
#
#
#
# Elastic Compliance Matrix: (Units=1/GPa)
#
#
# Indices 1 2 3 4 5 6 
#
# 1 0.027225 -0.008711 -0.004034 0.000000 0.000000 0.000000
# 2 -0.008711 0.027225 -0.004034 0.000000 0.000000 0.000000
# 3 -0.004034 -0.004034 0.007882 0.000000 0.000000 0.000000
# 4 0.000000 0.000000 0.000000 0.155174 0.000000 0.000000
# 5 0.000000 0.000000 0.000000 0.000000 0.155154 0.000000
# 6 0.000000 0.000000 0.000000 0.000000 0.000000 0.185075
#
#
# Mechanical properties :
#
#
# Convention : Reuss Voigt Hill
#
# Bulk Modulus (GPa) = 34.75414 49.40763 42.08088
# Shear Modulus (GPa) = 8.32109 14.90117 11.61113
#
# Velocity S-wave (km/s) = 2.01126 2.69146 2.37583
# Velocity P-wave (km/s) = 4.72109 5.80321 5.28989
#
# Compressibility (1/GPa) = 0.02877355
#
# Stress axis : x y z
#
# Youngs Moduli (GPa) = 36.73072 36.73126 126.87852
#
# Poissons Ratio (x) = 0.31996 0.51185
# Poissons Ratio (y) = 0.31996 0.51182
# Poissons Ratio (z) = 0.14818 0.14817
#
# Static dielectric constant tensor:
#      x y z
#    x 1.814050 0.000000 0.000000 
#    y 0.000000 1.814050 0.000000 
#    z 0.000000 0.000000 1.732990 
# 
# From -- ./inp_files/9734.got.cif
#   From: 2010.05.17/outbox.cif.g08.bks.cpg/sg131_5_cif.got.tgz:9734.got - 2010.05.20 12:21:01.
