data_PCOD9566422
_publ_section_title
;
Structure prediction by ZEFSAII (Michael W. Deem and Ramdas Pophale) SiO2 
 PCOD9566422
Probable space group: P 42/M M C
;
_chemical_formula_sum "Si O2"
_cell_formula_units_Z 96
_cell_length_a 13.865374
_cell_length_b 13.865374
_cell_length_c 32.918736
_cell_angle_alpha 90.000000
_cell_angle_beta 90.000000
_cell_angle_gamma 90.000000
_cell_volume 6328.580783
_symmetry_space_group_name_H-M "P 42/M M C"
_symmetry_group_IT_number 131
_symmetry_cell_setting 'tetragonal'
loop_
_space_group_symop_operation_xyz
x,y,z
-x,-y,z
-y,x,1/2+z
y,-x,1/2+z
-x,y,-z
x,-y,-z
y,x,1/2-z
-y,-x,1/2-z
-x,-y,-z
x,y,-z
y,-x,1/2-z
-y,x,1/2-z
x,-y,z
-x,y,z
-y,-x,1/2+z
y,x,1/2+z
loop_
_atom_site_type_symbol
_atom_site_label
_atom_site_fract_x
_atom_site_fract_y
_atom_site_fract_z
Si Si1 0.731617 0.114535 0.750932
Si Si2 0.382668 0.695773 0.544010
Si Si3 0.616782 0.108866 0.580398
Si Si4 0.609041 0.116515 0.671299
Si Si5 0.389072 0.615670 0.369799
Si Si6 0.279920 0.383827 0.712455
O O1 0.836660 0.163341 0.750000
O O2 0.681357 0.136975 0.707538
O O3 0.666226 0.175795 0.782131
O O4 0.731891 0.000000 0.757563
O O5 0.349753 0.658554 0.500000
O O6 0.500000 0.689039 0.544008
O O7 0.355926 0.808355 0.549099
O O8 0.351260 0.645346 0.585717
O O9 0.500000 0.103669 0.580099
O O10 0.640791 0.144715 0.626017
O O11 0.652659 0.000000 0.573259
O O12 0.500000 0.151157 0.680127
O O13 0.603079 0.000000 0.668890
O O14 0.392004 0.500000 0.368855
O O15 0.500000 0.650803 0.366165
O O16 0.328884 0.645259 0.330234
O O17 0.344518 0.344518 0.750000
O O18 0.273319 0.500000 0.714451
#
# Coordination Sequence:
#
# PCOD9566422 Si02
#       6
#    16  16  16  16  16  16
#     4  10  21  33  46  66  90 120 156 191 227 270
#     4   9  17  26  38  57  82 117 155 186 218 259
#     4   8  14  23  37  57  81 110 141 175 215 258
#     4   8  14  26  43  62  84 112 145 177 212 259
#     4   9  18  31  44  60  87 120 154 190 222 260
#     4  10  20  31  47  70  94 122 152 188 232 276
#
# _framework density 15.169278
#
# number of rings (size 3 to 8) (size 9 to 14) (size 15 to 20)
#    0.000    3.000    0.000    2.000    4.667    2.667 
#    0.000    3.333    0.000    0.000    0.000    0.000 
#    0.000    0.667    0.000    3.667    0.000    9.500 
#
# Total GULP energy -534524.304208 kJ/mol
# GULP energy per Si atom -5567.961502 kJ/mol
# Density = 1.513475 g / cm^3
# Si number density = 15.169278 Si / 1000 Ang^3
#
#
#
# Elastic Constant Matrix: (Units=GPa)
#
#
# Indices 1 2 3 4 5 6 
#
# 1 63.7388 22.6889 34.8512 0.0000 0.0000 0.0000
# 2 22.6889 63.7400 34.8513 0.0000 0.0000 0.0000
# 3 34.8512 34.8513 120.4615 0.0000 0.0000 0.0000
# 4 0.0000 0.0000 0.0000 13.7325 0.0000 0.0000
# 5 0.0000 0.0000 0.0000 0.0000 13.7327 0.0000
# 6 0.0000 0.0000 0.0000 0.0000 0.0000 15.8064
#
#
#
# Elastic Compliance Matrix: (Units=1/GPa)
#
#
# Indices 1 2 3 4 5 6 
#
# 1 0.019726 -0.004634 -0.004366 0.000000 0.000000 0.000000
# 2 -0.004634 0.019726 -0.004366 0.000000 0.000000 0.000000
# 3 -0.004366 -0.004366 0.010828 0.000000 0.000000 0.000000
# 4 0.000000 0.000000 0.000000 0.072820 0.000000 0.000000
# 5 0.000000 0.000000 0.000000 0.000000 0.072819 0.000000
# 6 0.000000 0.000000 0.000000 0.000000 0.000000 0.063266
#
#
# Mechanical properties :
#
#
# Convention : Reuss Voigt Hill
#
# Bulk Modulus (GPa) = 42.46991 48.08034 45.27513
# Shear Modulus (GPa) = 17.02033 19.02424 18.02228
#
# Velocity S-wave (km/s) = 3.35330 3.54521 3.45059
# Velocity P-wave (km/s) = 6.56132 6.96582 6.76660
#
# Compressibility (1/GPa) = 0.02354608
#
# Stress axis : x y z
#
# Youngs Moduli (GPa) = 50.69424 50.69533 92.35476
#
# Poissons Ratio (x) = 0.23494 0.40324
# Poissons Ratio (y) = 0.23494 0.40323
# Poissons Ratio (z) = 0.22134 0.22134
#
# Static dielectric constant tensor:
#      x y z
#    x 1.520460 0.000000 0.000000 
#    y 0.000000 1.520460 0.000000 
#    z 0.000000 0.000000 1.535270 
# 
# From -- ./inp_files/13691.got.cif
#   From: 2010.05.17/outbox.cif.g08.bks.cpg/sg131_7_cif.got.tgz:13691.got - 2010.05.20 12:21:01.
