data_PCOD9566297
_publ_section_title
;
Structure prediction by ZEFSAII (Michael W. Deem and Ramdas Pophale) SiO2 
 PCOD9566297
Probable space group: P 42/M M C
;
_chemical_formula_sum "Si O2"
_cell_formula_units_Z 120
_cell_length_a 28.255930
_cell_length_b 28.255930
_cell_length_c 8.868576
_cell_angle_alpha 90.000000
_cell_angle_beta 90.000000
_cell_angle_gamma 90.000000
_cell_volume 7080.649618
_symmetry_space_group_name_H-M "P 42/M M C"
_symmetry_group_IT_number 131
_symmetry_cell_setting 'tetragonal'
loop_
_space_group_symop_operation_xyz
x,y,z
-x,-y,z
-y,x,1/2+z
y,-x,1/2+z
-x,y,-z
x,-y,-z
y,x,1/2-z
-y,-x,1/2-z
-x,-y,-z
x,y,-z
y,-x,1/2-z
-y,x,1/2-z
x,-y,z
-x,y,z
-y,-x,1/2+z
y,x,1/2+z
loop_
_atom_site_type_symbol
_atom_site_label
_atom_site_fract_x
_atom_site_fract_y
_atom_site_fract_z
Si Si1 0.443414 0.725695 0.174320
Si Si2 0.793553 0.864086 0.818747
Si Si3 0.372274 0.554992 0.820430
Si Si4 0.215908 0.717012 0.320566
Si Si5 0.055758 0.269794 0.818702
Si Si6 0.817553 0.612541 0.682083
Si Si7 0.081206 0.621507 0.819261
Si Si8 0.000000 0.555849 0.681458
O O1 0.500000 0.727986 0.178944
O O2 0.428688 0.679732 0.267472
O O3 0.423065 0.775840 0.225268
O O4 0.428375 0.718982 0.000000
O O5 0.841952 0.841952 0.750000
O O6 0.752881 0.825923 0.775263
O O7 0.771509 0.912908 0.756701
O O8 0.797532 0.865880 0.000000
O O9 0.412198 0.587803 0.750000
O O10 0.377992 0.500000 0.772208
O O11 0.375097 0.556716 0.000000
O O12 0.263930 0.736070 0.250000
O O13 0.219915 0.719362 0.500000
O O14 0.201679 0.664516 0.278814
O O15 0.071654 0.323352 0.772910
O O16 0.000000 0.265069 0.784282
O O17 0.061745 0.266789 0.000000
O O18 0.825003 0.609881 0.500000
O O19 0.866831 0.606626 0.765906
O O20 0.044471 0.585191 0.745203
O O21 0.076236 0.619884 0.000000
O O22 0.000000 0.500000 0.725158
O O23 0.000000 0.557730 0.500000
#
# Coordination Sequence:
#
# PCOD9566297 Si02
#       8
#    16  16  16  16  16  16  16   8
#     4   9  19  36  56  75 100 136 174 215 263 316
#     4  10  19  32  51  76 107 146 184 224 272 321
#     4  10  21  37  58  83 111 141 173 213 263 322
#     4   9  18  30  45  68  99 134 171 213 259 309
#     4  10  20  35  54  79 112 148 186 228 278 333
#     4  10  20  35  53  77 107 140 182 226 269 323
#     4  11  22  37  57  82 109 140 180 231 287 340
#     4  11  25  43  61  79 103 139 181 231 292 351
#
# _framework density 16.947596999999998
#
# number of rings (size 3 to 8) (size 9 to 14) (size 15 to 20)
#    0.000    2.067    2.000    1.400    0.000    4.933 
#    0.000    3.333    0.000    0.000    0.000    0.000 
#    0.000    0.267    0.000    2.800    0.000    1.200 
#
# Total GULP energy -669336.052444 kJ/mol
# GULP energy per Si atom -5577.800437 kJ/mol
# Density = 1.690902 g / cm^3
# Si number density = 16.947597 Si / 1000 Ang^3
#
#
#
# Elastic Constant Matrix: (Units=GPa)
#
#
# Indices 1 2 3 4 5 6 
#
# 1 98.8521 70.5825 43.0547 0.0000 0.0000 0.0000
# 2 70.5825 98.8552 43.0540 0.0000 0.0000 0.0000
# 3 43.0547 43.0540 38.4534 0.0000 0.0000 0.0000
# 4 0.0000 0.0000 0.0000 27.3008 0.0000 0.0000
# 5 0.0000 0.0000 0.0000 0.0000 27.3006 0.0000
# 6 0.0000 0.0000 0.0000 0.0000 0.0000 29.6483
#
#
#
# Elastic Compliance Matrix: (Units=1/GPa)
#
#
# Indices 1 2 3 4 5 6 
#
# 1 0.024534 -0.010839 -0.015334 0.000000 0.000000 0.000000
# 2 -0.010839 0.024532 -0.015331 0.000000 0.000000 0.000000
# 3 -0.015334 -0.015331 0.060340 0.000000 0.000000 0.000000
# 4 0.000000 0.000000 0.000000 0.036629 0.000000 0.000000
# 5 0.000000 0.000000 0.000000 0.000000 0.036629 0.000000
# 6 0.000000 0.000000 0.000000 0.000000 0.000000 0.033729
#
#
# Mechanical properties :
#
#
# Convention : Reuss Voigt Hill
#
# Bulk Modulus (GPa) = 37.88223 61.06033 49.47128
# Shear Modulus (GPa) = 16.22327 22.14791 19.18559
#
# Velocity S-wave (km/s) = 3.09732 3.61895 3.36825
# Velocity P-wave (km/s) = 5.93231 7.31912 6.66190
#
# Compressibility (1/GPa) = 0.02639760
#
# Stress axis : x y z
#
# Youngs Moduli (GPa) = 40.75971 40.76347 16.57288
#
# Poissons Ratio (x) = 0.44183 0.25413
# Poissons Ratio (y) = 0.44179 0.25408
# Poissons Ratio (z) = 0.62501 0.62494
#
# Static dielectric constant tensor:
#      x y z
#    x 1.571730 0.000000 0.000000 
#    y 0.000000 1.571730 0.000000 
#    z 0.000000 0.000000 1.575530 
# 
# From -- ./inp_files/2642.got.cif
#   From: 2010.05.17/outbox.cif.g08.bks.cpg/sg131_2_cif.got.tgz:2642.got - 2010.05.20 12:21:01.
