data_PCOD9566147
_publ_section_title
;
Structure prediction by ZEFSAII (Michael W. Deem and Ramdas Pophale) SiO2 
 PCOD9566147
Probable space group: P 42/M M C
;
_chemical_formula_sum "Si O2"
_cell_formula_units_Z 96
_cell_length_a 23.997493
_cell_length_b 23.997493
_cell_length_c 10.095243
_cell_angle_alpha 90.000000
_cell_angle_beta 90.000000
_cell_angle_gamma 90.000000
_cell_volume 5813.645210
_symmetry_space_group_name_H-M "P 42/M M C"
_symmetry_group_IT_number 131
_symmetry_cell_setting 'tetragonal'
loop_
_space_group_symop_operation_xyz
x,y,z
-x,-y,z
-y,x,1/2+z
y,-x,1/2+z
-x,y,-z
x,-y,-z
y,x,1/2-z
-y,-x,1/2-z
-x,-y,-z
x,y,-z
y,-x,1/2-z
-y,x,1/2-z
x,-y,z
-x,y,z
-y,-x,1/2+z
y,x,1/2+z
loop_
_atom_site_type_symbol
_atom_site_label
_atom_site_fract_x
_atom_site_fract_y
_atom_site_fract_z
Si Si1 0.932800 0.352797 0.154249
Si Si2 0.771263 0.067173 0.266956
Si Si3 0.639392 0.567228 0.155069
Si Si4 0.433735 0.133502 0.155055
Si Si5 0.567528 0.263232 0.850262
Si Si6 0.933884 0.142210 0.000000
Si Si7 0.067339 0.829210 0.500000
O O1 0.913579 0.290271 0.193208
O O2 0.904361 0.397475 0.249151
O O3 0.000000 0.355262 0.167981
O O4 0.919679 0.362721 0.000000
O O5 0.818280 0.078345 0.375345
O O6 0.766788 0.000000 0.260515
O O7 0.794846 0.086816 0.127556
O O8 0.591164 0.591164 0.250000
O O9 0.637481 0.500000 0.155361
O O10 0.695683 0.585480 0.232885
O O11 0.636572 0.584681 0.000000
O O12 0.500000 0.127819 0.180522
O O13 0.418284 0.198643 0.173006
O O14 0.424422 0.119725 0.000000
O O15 0.500000 0.265568 0.853169
O O16 0.586277 0.279169 0.000000
O O17 0.891586 0.091093 0.000000
O O18 0.000000 0.127585 0.000000
O O19 0.000000 0.831629 0.500000
#
# Coordination Sequence:
#
# PCOD9566147 Si02
#       7
#    16  16  16  16  16   8   8
#     4  10  20  34  52  74 102 139 177 210 249 298
#     4   9  18  33  50  72 100 134 175 211 248 300
#     4  10  20  32  49  74 101 132 170 209 251 299
#     4   9  19  34  53  80 108 133 163 205 258 306
#     4   8  15  31  52  72  97 129 164 200 244 300
#     4  10  18  33  54  72 103 139 163 205 265 317
#     4  10  20  31  50  80 103 127 171 217 259 311
#
# _framework density 16.512875000000001
#
# number of rings (size 3 to 8) (size 9 to 14) (size 15 to 20)
#    0.000    2.667    0.833    2.000    1.167    3.000 
#    0.000    4.167    0.000    5.000    0.000    0.000 
#    0.000    0.000    0.000    0.000    0.000    0.000 
#
# Total GULP energy -534619.335543 kJ/mol
# GULP energy per Si atom -5568.951412 kJ/mol
# Density = 1.647529 g / cm^3
# Si number density = 16.512875 Si / 1000 Ang^3
#
#
#
# Elastic Constant Matrix: (Units=GPa)
#
#
# Indices 1 2 3 4 5 6 
#
# 1 54.8171 32.6322 51.7022 0.0000 0.0000 0.0000
# 2 32.6322 54.8171 51.7022 0.0000 0.0000 0.0000
# 3 51.7022 51.7022 152.2647 0.0000 0.0000 0.0000
# 4 0.0000 0.0000 0.0000 20.6352 0.0000 0.0000
# 5 0.0000 0.0000 0.0000 0.0000 20.6352 0.0000
# 6 0.0000 0.0000 0.0000 0.0000 0.0000 -5.8585
#
#
#
# Elastic Compliance Matrix: (Units=1/GPa)
#
#
# Indices 1 2 3 4 5 6 
#
# 1 0.032091 -0.012984 -0.006488 0.000000 0.000000 0.000000
# 2 -0.012984 0.032091 -0.006488 0.000000 0.000000 0.000000
# 3 -0.006488 -0.006488 0.010973 0.000000 0.000000 0.000000
# 4 0.000000 0.000000 0.000000 0.048461 0.000000 0.000000
# 5 0.000000 0.000000 0.000000 0.000000 0.048461 0.000000
# 6 0.000000 0.000000 0.000000 0.000000 0.000000 -0.170692
#
#
# Mechanical properties :
#
#
# Convention : Reuss Voigt Hill
#
# Bulk Modulus (GPa) = 43.03728 59.33024 51.18376
# Shear Modulus (GPa) = 81.89901 15.47320 48.68611
#
# Velocity S-wave (km/s) = 7.05016 3.06443 5.43578
# Velocity P-wave (km/s) = 9.61210 6.96625 8.39408
#
# Compressibility (1/GPa) = 0.02323567
#
# Stress axis : x y z
#
# Youngs Moduli (GPa) = 31.16126 31.16126 91.12939
#
# Poissons Ratio (x) = 0.40461 0.59122
# Poissons Ratio (y) = 0.40461 0.59122
# Poissons Ratio (z) = 0.20217 0.20217
#
# Static dielectric constant tensor:
#      x y z
#    x 1.546400 0.000000 0.000000 
#    y 0.000000 1.546400 0.000000 
#    z 0.000000 0.000000 1.601620 
# 
# From -- ./inp_files/2310.got.cif
#   From: 2010.05.17/outbox.cif.g08.bks.cpg/sg131_2_cif.got.tgz:2310.got - 2010.05.20 12:21:01.
