data_PCOD9566587
_publ_section_title
;
Structure prediction by ZEFSAII (Michael W. Deem and Ramdas Pophale) SiO2 
 PCOD9566587
Probable space group: P 42/M M C
;
_chemical_formula_sum "Si O2"
_cell_formula_units_Z 34
_cell_length_a 11.331010
_cell_length_b 11.331010
_cell_length_c 13.278788
_cell_angle_alpha 90.000000
_cell_angle_beta 90.000000
_cell_angle_gamma 90.000000
_cell_volume 1704.887329
_symmetry_space_group_name_H-M "P 42/M M C"
_symmetry_group_IT_number 131
_symmetry_cell_setting 'tetragonal'
loop_
_space_group_symop_operation_xyz
x,y,z
-x,-y,z
-y,x,1/2+z
y,-x,1/2+z
-x,y,-z
x,-y,-z
y,x,1/2-z
-y,-x,1/2-z
-x,-y,-z
x,y,-z
y,-x,1/2-z
-y,x,1/2-z
x,-y,z
-x,y,z
-y,-x,1/2+z
y,x,1/2+z
loop_
_atom_site_type_symbol
_atom_site_label
_atom_site_fract_x
_atom_site_fract_y
_atom_site_fract_z
Si Si1 0.242808 0.362292 0.122644
Si Si2 0.000000 0.235705 0.122287
Si Si3 0.000000 0.000000 0.750000
Si Si4 0.500000 0.358343 0.120542
O O1 0.240693 0.500000 0.151126
O O2 0.371728 0.310272 0.152576
O O3 0.121247 0.301141 0.153377
O O4 0.241976 0.359586 0.000000
O O5 0.000000 0.111886 0.177326
O O6 0.000000 0.225999 0.000000
O O7 0.500000 0.500000 0.141329
O O8 0.500000 0.348201 0.000000
#
# Coordination Sequence:
#
# PCOD9566587 Si02
#       4
#    16   8   2   8
#     4   8  13  24  49  83 109 131 165 210 260 316
#     4  10  20  35  56  75  98 138 184 221 259 312
#     4  12  26  40  52  66 100 132 178 228 276 302
#     4   7  10  18  38  75 113 133 153 197 258 314
#
# _framework density 19.942665999999999
#
# number of rings (size 3 to 8) (size 9 to 14) (size 15 to 20)
#    0.000    3.529    0.000    3.882    0.000    2.824 
#    0.000    0.000   10.353    0.000    0.000    8.235 
#    0.000    0.000    0.000    0.000    0.000    1.412 
#
# Total GULP energy -189463.108810 kJ/mol
# GULP energy per Si atom -5572.444377 kJ/mol
# Density = 1.989728 g / cm^3
# Si number density = 19.942666 Si / 1000 Ang^3
#
#
#
# Elastic Constant Matrix: (Units=GPa)
#
#
# Indices 1 2 3 4 5 6 
#
# 1 180.3717 96.0236 20.4090 0.0000 0.0000 0.0000
# 2 96.0236 180.3717 20.4090 0.0000 0.0000 0.0000
# 3 20.4090 20.4090 61.0861 0.0000 0.0000 0.0000
# 4 0.0000 0.0000 0.0000 17.3737 0.0000 0.0000
# 5 0.0000 0.0000 0.0000 0.0000 17.3737 0.0000
# 6 0.0000 0.0000 0.0000 0.0000 0.0000 26.3829
#
#
#
# Elastic Compliance Matrix: (Units=1/GPa)
#
#
# Indices 1 2 3 4 5 6 
#
# 1 0.007831 -0.004025 -0.001272 0.000000 0.000000 0.000000
# 2 -0.004025 0.007831 -0.001272 0.000000 0.000000 0.000000
# 3 -0.001272 -0.001272 0.017220 0.000000 0.000000 0.000000
# 4 0.000000 0.000000 0.000000 0.057558 0.000000 0.000000
# 5 0.000000 0.000000 0.000000 0.000000 0.057558 0.000000
# 6 0.000000 0.000000 0.000000 0.000000 0.000000 0.037903
#
#
# Mechanical properties :
#
#
# Convention : Reuss Voigt Hill
#
# Bulk Modulus (GPa) = 50.64458 77.27920 63.96189
# Shear Modulus (GPa) = 24.31679 31.22524 27.77101
#
# Velocity S-wave (km/s) = 3.49569 3.96125 3.73573
# Velocity P-wave (km/s) = 6.46091 7.73025 7.12391
#
# Compressibility (1/GPa) = 0.01974545
#
# Stress axis : x y z
#
# Youngs Moduli (GPa) = 127.70241 127.70241 58.07210
#
# Poissons Ratio (x) = 0.51399 0.07384
# Poissons Ratio (y) = 0.51399 0.07384
# Poissons Ratio (z) = 0.16238 0.16238
#
# Static dielectric constant tensor:
#      x y z
#    x 1.694980 0.000000 0.000000 
#    y 0.000000 1.694980 0.000000 
#    z 0.000000 0.000000 1.755170 
# 
# From -- ./inp_files/4905.got.cif
#   From: 2010.05.17/outbox.cif.g08.bks.cpg/sg131_3_cif.got.tgz:4905.got - 2010.05.20 12:21:01.
