data_PCOD9566370
_publ_section_title
;
Structure prediction by ZEFSAII (Michael W. Deem and Ramdas Pophale) SiO2 
 PCOD9566370
Probable space group: P 42/M M C
;
_chemical_formula_sum "Si O2"
_cell_formula_units_Z 72
_cell_length_a 13.512937
_cell_length_b 13.512937
_cell_length_c 23.231557
_cell_angle_alpha 90.000000
_cell_angle_beta 90.000000
_cell_angle_gamma 90.000000
_cell_volume 4242.069911
_symmetry_space_group_name_H-M "P 42/M M C"
_symmetry_group_IT_number 131
_symmetry_cell_setting 'tetragonal'
loop_
_space_group_symop_operation_xyz
x,y,z
-x,-y,z
-y,x,1/2+z
y,-x,1/2+z
-x,y,-z
x,-y,-z
y,x,1/2-z
-y,-x,1/2-z
-x,-y,-z
x,y,-z
y,-x,1/2-z
-y,x,1/2-z
x,-y,z
-x,y,z
-y,-x,1/2+z
y,x,1/2+z
loop_
_atom_site_type_symbol
_atom_site_label
_atom_site_fract_x
_atom_site_fract_y
_atom_site_fract_z
Si Si1 0.117391 0.613268 0.362066
Si Si2 0.884071 0.615981 0.119169
Si Si3 0.000000 0.883513 0.069021
Si Si4 0.792795 0.208180 0.067070
Si Si5 0.280113 0.114471 0.742536
O O1 0.149969 0.500000 0.371855
O O2 0.171695 0.696848 0.399226
O O3 0.129178 0.644176 0.295406
O O4 0.000000 0.618478 0.375090
O O5 0.863963 0.500000 0.120719
O O6 0.814093 0.676291 0.076475
O O7 0.870621 0.663617 0.182311
O O8 0.000000 0.629217 0.102683
O O9 0.104417 0.840489 0.090739
O O10 0.000000 0.000000 0.078620
O O11 0.000000 0.864224 0.000000
O O12 0.783189 0.182571 0.000000
O O13 0.190079 0.190079 0.750000
O O14 0.246181 0.000000 0.744641
#
# Coordination Sequence:
#
# PCOD9566370 Si02
#       5
#    16  16   8  16  16
#     4  10  21  37  57  81 111 148 187 227 270 323
#     4  10  20  35  56  81 110 144 183 229 277 327
#     4   9  18  32  49  73 109 147 178 214 264 325
#     4  11  21  34  53  80 111 147 189 227 270 326
#     4  10  19  34  56  84 114 143 178 221 274 334
#
# _framework density 16.972846000000001
#
# number of rings (size 3 to 8) (size 9 to 14) (size 15 to 20)
#    0.000    1.889    3.333    1.333    0.000    5.111 
#    0.000    2.222    0.000    0.667    0.000    3.111 
#    0.000    0.000    0.000    0.000    0.000    0.000 
#
# Total GULP energy -401713.858717 kJ/mol
# GULP energy per Si atom -5579.359149 kJ/mol
# Density = 1.693421 g / cm^3
# Si number density = 16.972846 Si / 1000 Ang^3
#
#
#
# Elastic Constant Matrix: (Units=GPa)
#
#
# Indices 1 2 3 4 5 6 
#
# 1 64.3085 70.3362 6.3572 0.0000 0.0000 0.0000
# 2 70.3362 64.3085 6.3572 0.0000 0.0000 0.0000
# 3 6.3572 6.3572 33.4707 0.0000 0.0000 0.0000
# 4 0.0000 0.0000 0.0000 15.4345 0.0000 0.0000
# 5 0.0000 0.0000 0.0000 0.0000 15.4345 0.0000
# 6 0.0000 0.0000 0.0000 0.0000 0.0000 20.7798
#
#
#
# Elastic Compliance Matrix: (Units=1/GPa)
#
#
# Indices 1 2 3 4 5 6 
#
# 1 -0.079168 0.086731 -0.001436 0.000000 0.000000 0.000000
# 2 0.086731 -0.079168 -0.001436 0.000000 0.000000 0.000000
# 3 -0.001436 -0.001436 0.030423 0.000000 0.000000 0.000000
# 4 0.000000 0.000000 0.000000 0.064790 0.000000 0.000000
# 5 0.000000 0.000000 0.000000 0.000000 0.064790 0.000000
# 6 0.000000 0.000000 0.000000 0.000000 0.000000 0.048124
#
#
# Mechanical properties :
#
#
# Convention : Reuss Voigt Hill
#
# Bulk Modulus (GPa) = 25.12423 36.46541 30.79482
# Shear Modulus (GPa) = -47.77440 15.59888 -16.08776
#
# Velocity S-wave (km/s) = -5.31118 3.03487 -3.08206
# Velocity P-wave (km/s) = 4.77250 5.81479 2.34894
#
# Compressibility (1/GPa) = 0.03980221
#
# Stress axis : x y z
#
# Youngs Moduli (GPa) = -12.63134 -12.63134 32.87036
#
# Poissons Ratio (x) = 1.09553 0.04721
# Poissons Ratio (y) = 1.09553 0.04721
# Poissons Ratio (z) = -0.01814 -0.01814
#
# Static dielectric constant tensor:
#      x y z
#    x 1.564940 0.000000 0.000000 
#    y 0.000000 1.564940 0.000000 
#    z 0.000000 0.000000 1.591420 
# 
# From -- ./inp_files/12054.got.cif
#   From: 2010.05.17/outbox.cif.g08.bks.cpg/sg131_7_cif.got.tgz:12054.got - 2010.05.20 12:21:01.
