data_PCOD9566462
_publ_section_title
;
Structure prediction by ZEFSAII (Michael W. Deem and Ramdas Pophale) SiO2 
 PCOD9566462
Probable space group: P 42/M M C
;
_chemical_formula_sum "Si O2"
_cell_formula_units_Z 92
_cell_length_a 25.490562
_cell_length_b 25.490562
_cell_length_c 7.741816
_cell_angle_alpha 90.000000
_cell_angle_beta 90.000000
_cell_angle_gamma 90.000000
_cell_volume 5030.390113
_symmetry_space_group_name_H-M "P 42/M M C"
_symmetry_group_IT_number 131
_symmetry_cell_setting 'tetragonal'
loop_
_space_group_symop_operation_xyz
x,y,z
-x,-y,z
-y,x,1/2+z
y,-x,1/2+z
-x,y,-z
x,-y,-z
y,x,1/2-z
-y,-x,1/2-z
-x,-y,-z
x,y,-z
y,-x,1/2-z
-y,x,1/2-z
x,-y,z
-x,y,z
-y,-x,1/2+z
y,x,1/2+z
loop_
_atom_site_type_symbol
_atom_site_label
_atom_site_fract_x
_atom_site_fract_y
_atom_site_fract_z
Si Si1 0.500000 0.939939 0.293046
Si Si2 0.245575 0.836276 0.295688
Si Si3 0.879719 0.605386 0.704540
Si Si4 0.315533 0.500000 0.000000
Si Si5 0.325390 0.589736 0.301072
Si Si6 0.706841 0.941700 0.205775
Si Si7 0.225418 0.652500 0.200106
O O1 0.500000 0.941499 0.500000
O O2 0.448910 0.908666 0.234191
O O3 0.500000 0.000000 0.228391
O O4 0.191899 0.808101 0.250000
O O5 0.252516 0.836717 0.500000
O O6 0.251240 0.896020 0.236713
O O7 0.293868 0.800356 0.226154
O O8 0.871741 0.612897 0.500000
O O9 0.917096 0.652181 0.772319
O O10 0.822875 0.611410 0.789782
O O11 0.316412 0.454152 0.845510
O O12 0.376826 0.623175 0.250000
O O13 0.330090 0.570557 0.500000
O O14 0.275716 0.629376 0.293353
O O15 0.717331 0.000000 0.274811
O O16 0.700972 0.946293 0.000000
O O17 0.239845 0.661094 0.000000
#
# Coordination Sequence:
#
# PCOD9566462 Si02
#       7
#     8  16  16   4  16  16  16
#     4  11  23  36  49  67  97 143 193 242 290 332
#     4  10  20  32  52  80 113 149 188 238 284 341
#     4  10  20  34  52  76 103 140 191 242 287 340
#     4  12  26  46  68 101 128 154 191 238 272 354
#     4  12  24  44  71  98 127 162 193 234 292 356
#     4   9  18  33  52  73 102 140 183 233 288 342
#     4  10  20  37  58  86 120 153 192 236 291 347
#
# _framework density 18.28884
#
# number of rings (size 3 to 8) (size 9 to 14) (size 15 to 20)
#    0.000    1.652    1.739    3.130    0.000    6.609 
#    1.565    1.739    0.000    0.783    0.000    0.000 
#    0.000    0.348    0.000    3.652    0.000    1.565 
#
# Total GULP energy -512519.156212 kJ/mol
# GULP energy per Si atom -5570.860394 kJ/mol
# Density = 1.824721 g / cm^3
# Si number density = 18.288840 Si / 1000 Ang^3
#
#
#
# Elastic Constant Matrix: (Units=GPa)
#
#
# Indices 1 2 3 4 5 6 
#
# 1 44.2738 76.1590 10.7731 0.0000 0.0000 0.0000
# 2 76.1590 44.2804 10.8074 0.0000 0.0000 0.0000
# 3 10.7731 10.8074 99.1674 0.0000 0.0000 0.0000
# 4 0.0000 0.0000 0.0000 13.9970 0.0000 0.0000
# 5 0.0000 0.0000 0.0000 0.0000 13.9997 0.0000
# 6 0.0000 0.0000 0.0000 0.0000 0.0000 14.4071
#
#
#
# Elastic Compliance Matrix: (Units=1/GPa)
#
#
# Indices 1 2 3 4 5 6 
#
# 1 -0.011449 0.019917 -0.000927 0.000000 0.000000 0.000000
# 2 0.019917 -0.011449 -0.000916 0.000000 0.000000 0.000000
# 3 -0.000927 -0.000916 0.010284 0.000000 0.000000 0.000000
# 4 0.000000 0.000000 0.000000 0.071444 0.000000 0.000000
# 5 0.000000 0.000000 0.000000 0.000000 0.071430 0.000000
# 6 0.000000 0.000000 0.000000 0.000000 0.000000 0.069410
#
#
# Mechanical properties :
#
#
# Convention : Reuss Voigt Hill
#
# Bulk Modulus (GPa) = 42.48934 42.57786 42.53360
# Shear Modulus (GPa) = 29.17696 14.47956 21.82826
#
# Velocity S-wave (km/s) = 3.99851 2.81680 3.45850
# Velocity P-wave (km/s) = 6.67834 5.82327 6.26541
#
# Compressibility (1/GPa) = 0.02353532
#
# Stress axis : x y z
#
# Youngs Moduli (GPa) = -87.34667 -87.34501 97.23393
#
# Poissons Ratio (x) = 1.73965 0.09012
# Poissons Ratio (y) = 1.73968 0.08906
# Poissons Ratio (z) = -0.08096 -0.08001
#
# Static dielectric constant tensor:
#      x y z
#    x 1.623030 0.000000 0.000000 
#    y 0.000000 1.623030 0.000000 
#    z 0.000000 0.000000 1.667100 
# 
# From -- ./inp_files/2350.got.cif
#   From: 2010.05.17/outbox.cif.g08.bks.cpg/sg131_2_cif.got.tgz:2350.got - 2010.05.20 12:21:01.
