data_PCOD9566932
_publ_section_title
;
Structure prediction by ZEFSAII (Michael W. Deem and Ramdas Pophale) SiO2 
 PCOD9566932
Probable space group: P 42/M C M
;
_chemical_formula_sum "Si O2"
_cell_formula_units_Z 96
_cell_length_a 14.723516
_cell_length_b 14.723516
_cell_length_c 24.977310
_cell_angle_alpha 90.000000
_cell_angle_beta 90.000000
_cell_angle_gamma 90.000000
_cell_volume 5414.629303
_symmetry_space_group_name_H-M "P 42/M C M"
_symmetry_group_IT_number 132
_symmetry_cell_setting 'tetragonal'
loop_
_space_group_symop_operation_xyz
x,y,z
-y,x,1/2+z
-x,-y,z
y,-x,1/2+z
x,-y,1/2-z
-x,y,1/2-z
y,x,-z
-y,-x,-z
-x,-y,-z
y,-x,1/2-z
x,y,-z
-y,x,1/2-z
-x,y,1/2+z
x,-y,1/2+z
-y,-x,z
y,x,z
loop_
_atom_site_type_symbol
_atom_site_label
_atom_site_fract_x
_atom_site_fract_y
_atom_site_fract_z
Si Si1 0.000000 0.500000 0.659873
Si Si2 0.551364 0.850939 0.500000
Si Si3 0.363393 0.055080 0.000000
Si Si4 0.682208 0.072689 0.289212
Si Si5 0.075392 0.075392 0.559542
Si Si6 0.752568 0.395908 0.771122
Si Si7 0.007088 0.743719 0.396115
Si Si8 0.397249 0.156479 0.614069
O O1 0.974929 0.413515 0.694753
O O2 0.912792 0.519127 0.623888
O O3 0.443504 0.870717 0.500000
O O4 0.587141 0.805130 0.554726
O O5 0.593558 0.953212 0.500000
O O6 0.302409 0.056309 0.946799
O O7 0.657161 0.166570 0.260461
O O8 0.728710 0.000000 0.250000
O O9 0.736041 0.072120 0.344798
O O10 0.106473 0.106473 0.500000
O O11 0.157897 0.028457 0.589643
O O12 0.000000 0.000000 0.553273
O O13 0.750123 0.500000 0.750000
O O14 0.659679 0.340322 0.763014
O O15 0.779122 0.394261 0.834324
O O16 0.913641 0.687039 0.385372
#
# Coordination Sequence:
#
# PCOD9566932 Si02
#       8
#     8   8   8  16   8  16  16  16
#     4  10  15  29  58  86 114 143 177 220 294 356
#     4   9  16  28  49  86 125 142 162 226 310 360
#     4   9  16  29  46  87 118 143 183 225 286 348
#     4  11  18  33  58  87 113 142 184 239 295 346
#     4  11  24  42  56  70 112 172 213 228 264 338
#     4  12  25  40  59  85 116 156 199 239 292 359
#     4  10  20  32  58  84 111 151 193 244 284 335
#     4  10  19  31  57  90 118 144 178 235 302 361
#
# _framework density 17.729745000000001
#
# number of rings (size 3 to 8) (size 9 to 14) (size 15 to 20)
#    0.000    1.583    5.833    3.250    1.167    0.833 
#    0.000    0.417    0.000    0.000    0.000    0.583 
#    0.000    1.333    0.000    0.000    0.000    0.000 
#
# Total GULP energy -535106.408563 kJ/mol
# GULP energy per Si atom -5574.025089 kJ/mol
# Density = 1.768939 g / cm^3
# Si number density = 17.729745 Si / 1000 Ang^3
#
#
#
# Elastic Constant Matrix: (Units=GPa)
#
#
# Indices 1 2 3 4 5 6 
#
# 1 59.6288 29.6930 42.7029 0.0000 0.0000 0.0000
# 2 29.6930 59.6288 42.7029 0.0000 0.0000 0.0000
# 3 42.7029 42.7029 157.3471 0.0000 0.0000 0.0000
# 4 0.0000 0.0000 0.0000 4.1844 0.0000 0.0000
# 5 0.0000 0.0000 0.0000 0.0000 4.1844 0.0000
# 6 0.0000 0.0000 0.0000 0.0000 0.0000 16.2965
#
#
#
# Elastic Compliance Matrix: (Units=1/GPa)
#
#
# Indices 1 2 3 4 5 6 
#
# 1 0.024262 -0.009143 -0.004103 0.000000 0.000000 0.000000
# 2 -0.009143 0.024262 -0.004103 0.000000 0.000000 0.000000
# 3 -0.004103 -0.004103 0.008582 0.000000 0.000000 0.000000
# 4 0.000000 0.000000 0.000000 0.238984 0.000000 0.000000
# 5 0.000000 0.000000 0.000000 0.000000 0.238984 0.000000
# 6 0.000000 0.000000 0.000000 0.000000 0.000000 0.061363
#
#
# Mechanical properties :
#
#
# Convention : Reuss Voigt Hill
#
# Bulk Modulus (GPa) = 44.62799 56.31136 50.46968
# Shear Modulus (GPa) = 7.82957 15.70012 11.76485
#
# Velocity S-wave (km/s) = 2.10372 2.97900 2.57877
# Velocity P-wave (km/s) = 5.57914 6.60776 6.11512
#
# Compressibility (1/GPa) = 0.02240746
#
# Stress axis : x y z
#
# Youngs Moduli (GPa) = 41.21716 41.21716 116.51632
#
# Poissons Ratio (x) = 0.37685 0.47808
# Poissons Ratio (y) = 0.37685 0.47808
# Poissons Ratio (z) = 0.16912 0.16912
#
# Static dielectric constant tensor:
#      x y z
#    x 1.653540 0.000000 0.000000 
#    y 0.000000 1.653540 0.000000 
#    z 0.000000 0.000000 1.752180 
# 
# From -- ./inp_files/9089.got.cif
#   From: 2010.05.17/outbox.cif.g08.bks.cpg/sg132_5_cif.got.tgz:9089.got - 2010.05.20 12:30:18.
