data_PCOD9566696
_publ_section_title
;
Structure prediction by ZEFSAII (Michael W. Deem and Ramdas Pophale) SiO2 
 PCOD9566696
Probable space group: P 42/M M C
;
_chemical_formula_sum "Si O2"
_cell_formula_units_Z 96
_cell_length_a 24.640650
_cell_length_b 24.640650
_cell_length_c 8.689362
_cell_angle_alpha 90.000000
_cell_angle_beta 90.000000
_cell_angle_gamma 90.000000
_cell_volume 5275.847217
_symmetry_space_group_name_H-M "P 42/M M C"
_symmetry_group_IT_number 131
_symmetry_cell_setting 'tetragonal'
loop_
_space_group_symop_operation_xyz
x,y,z
-x,-y,z
-y,x,1/2+z
y,-x,1/2+z
-x,y,-z
x,-y,-z
y,x,1/2-z
-y,-x,1/2-z
-x,-y,-z
x,y,-z
y,-x,1/2-z
-y,x,1/2-z
x,-y,z
-x,y,z
-y,-x,1/2+z
y,x,1/2+z
loop_
_atom_site_type_symbol
_atom_site_label
_atom_site_fract_x
_atom_site_fract_y
_atom_site_fract_z
Si Si1 0.439253 0.064935 0.318091
Si Si2 0.936413 0.147310 0.314963
Si Si3 0.767584 0.851861 0.683987
Si Si4 0.765602 0.561271 0.314371
Si Si5 0.561812 0.353763 0.683625
Si Si6 0.646723 0.856236 0.183841
O O1 0.435025 0.078119 0.500000
O O2 0.500000 0.081936 0.264798
O O3 0.390079 0.092304 0.228742
O O4 0.436724 0.000000 0.304194
O O5 0.905624 0.094377 0.250000
O O6 0.931420 0.147959 0.500000
O O7 0.903328 0.198402 0.247363
O O8 0.000000 0.148386 0.274715
O O9 0.799148 0.799148 0.750000
O O10 0.770693 0.850959 0.500000
O O11 0.705479 0.854837 0.738392
O O12 0.764710 0.561301 0.500000
O O13 0.781693 0.500000 0.264496
O O14 0.705734 0.571739 0.251796
O O15 0.806303 0.608358 0.264719
O O16 0.603667 0.396334 0.750000
O O17 0.566027 0.351416 0.500000
O O18 0.500000 0.369036 0.724826
O O19 0.653981 0.853916 0.000000
#
# Coordination Sequence:
#
# PCOD9566696 Si02
#       6
#    16  16  16  16  16  16
#     4   9  19  36  56  80 113 150 186 227 276 327
#     4  10  21  38  61  88 118 151 186 226 272 321
#     4  11  23  40  60  81 110 147 186 230 279 328
#     4   9  19  36  56  78 106 139 175 220 272 322
#     4  10  21  36  55  79 106 138 175 216 265 320
#     4  11  22  36  57  84 111 143 186 230 274 329
#
# _framework density 18.196128000000002
#
# number of rings (size 3 to 8) (size 9 to 14) (size 15 to 20)
#    0.000    2.000    0.000    5.000    0.000    6.667 
#    0.000    4.167    0.000    0.000    0.000    0.000 
#    0.000    0.000    0.000    0.000    0.000    0.000 
#
# Total GULP energy -536030.397573 kJ/mol
# GULP energy per Si atom -5583.649975 kJ/mol
# Density = 1.815471 g / cm^3
# Si number density = 18.196128 Si / 1000 Ang^3
#
#
#
# Elastic Constant Matrix: (Units=GPa)
#
#
# Indices 1 2 3 4 5 6 
#
# 1 140.7603 84.8882 50.6492 0.0000 0.0000 0.0000
# 2 84.8882 140.7605 50.6463 0.0000 0.0000 0.0000
# 3 50.6492 50.6463 62.4450 0.0000 0.0000 0.0000
# 4 0.0000 0.0000 0.0000 19.7411 0.0000 0.0000
# 5 0.0000 0.0000 0.0000 0.0000 19.7411 0.0000
# 6 0.0000 0.0000 0.0000 0.0000 0.0000 25.6270
#
#
#
# Elastic Compliance Matrix: (Units=1/GPa)
#
#
# Indices 1 2 3 4 5 6 
#
# 1 0.012434 -0.005464 -0.005653 0.000000 0.000000 0.000000
# 2 -0.005464 0.012433 -0.005652 0.000000 0.000000 0.000000
# 3 -0.005653 -0.005652 0.025183 0.000000 0.000000 0.000000
# 4 0.000000 0.000000 0.000000 0.050656 0.000000 0.000000
# 5 0.000000 0.000000 0.000000 0.000000 0.050656 0.000000
# 6 0.000000 0.000000 0.000000 0.000000 0.000000 0.039021
#
#
# Mechanical properties :
#
#
# Convention : Reuss Voigt Hill
#
# Bulk Modulus (GPa) = 60.56358 79.59257 70.07807
# Shear Modulus (GPa) = 21.79354 23.54066 22.66710
#
# Velocity S-wave (km/s) = 3.46454 3.60073 3.53329
# Velocity P-wave (km/s) = 7.02567 7.81815 7.43248
#
# Compressibility (1/GPa) = 0.01651157
#
# Stress axis : x y z
#
# Youngs Moduli (GPa) = 80.42550 80.42954 39.70880
#
# Poissons Ratio (x) = 0.43950 0.22448
# Poissons Ratio (y) = 0.43948 0.22443
# Poissons Ratio (z) = 0.45466 0.45457
#
# Static dielectric constant tensor:
#      x y z
#    x 1.608280 0.000000 0.000000 
#    y 0.000000 1.608280 0.000000 
#    z 0.000000 0.000000 1.616380 
# 
# From -- ./inp_files/2223.got.cif
#   From: 2010.05.17/outbox.cif.g08.bks.cpg/sg131_2_cif.got.tgz:2223.got - 2010.05.20 12:21:01.
