data_PCOD9566072
_publ_section_title
;
Structure prediction by ZEFSAII (Michael W. Deem and Ramdas Pophale) SiO2 
 PCOD9566072
Probable space group: P 42/M M C
;
_chemical_formula_sum "Si O2"
_cell_formula_units_Z 112
_cell_length_a 27.861602
_cell_length_b 27.861602
_cell_length_c 9.601049
_cell_angle_alpha 90.000000
_cell_angle_beta 90.000000
_cell_angle_gamma 90.000000
_cell_volume 7452.995420
_symmetry_space_group_name_H-M "P 42/M M C"
_symmetry_group_IT_number 131
_symmetry_cell_setting 'tetragonal'
loop_
_space_group_symop_operation_xyz
x,y,z
-x,-y,z
-y,x,1/2+z
y,-x,1/2+z
-x,y,-z
x,-y,-z
y,x,1/2-z
-y,-x,1/2-z
-x,-y,-z
x,y,-z
y,-x,1/2-z
-y,x,1/2-z
x,-y,z
-x,y,z
-y,-x,1/2+z
y,x,1/2+z
loop_
_atom_site_type_symbol
_atom_site_label
_atom_site_fract_x
_atom_site_fract_y
_atom_site_fract_z
Si Si1 0.703025 0.226623 0.666867
Si Si2 0.340251 0.055187 0.151680
Si Si3 0.781914 0.500000 0.339334
Si Si4 0.101962 0.410970 0.843256
Si Si5 0.225079 0.945360 0.840698
Si Si6 0.100801 0.500000 0.658719
Si Si7 0.851112 0.219356 0.833505
Si Si8 0.592072 0.217449 0.340238
O O1 0.734272 0.265729 0.750000
O O2 0.706373 0.234887 0.500000
O O3 0.728744 0.174818 0.691801
O O4 0.646752 0.228382 0.705189
O O5 0.361700 0.084387 0.277819
O O6 0.282964 0.054378 0.154708
O O7 0.356591 0.000000 0.160769
O O8 0.355466 0.075012 0.000000
O O9 0.766376 0.500000 0.500000
O O10 0.840554 0.500000 0.340278
O O11 0.766431 0.451617 0.258273
O O12 0.085013 0.453135 0.742073
O O13 0.159581 0.411269 0.844835
O O14 0.084771 0.418028 0.000000
O O15 0.213460 0.903818 0.731595
O O16 0.209627 0.000000 0.806135
O O17 0.208825 0.934456 0.000000
O O18 0.084700 0.500000 0.500000
O O19 0.817453 0.182548 0.750000
O O20 0.850825 0.211386 0.000000
O O21 0.585423 0.234532 0.500000
#
# Coordination Sequence:
#
# PCOD9566072 Si02
#       8
#    16  16   8  16  16   8  16  16
#     4   9  18  30  43  62  88 118 150 181 216 260
#     4   9  18  31  44  58  78 104 132 163 204 253
#     4   9  17  27  41  62  80  99 135 176 211 250
#     4  10  18  28  43  60  76  96 127 168 210 251
#     4   9  18  32  48  66  89 116 145 177 213 253
#     4   9  17  29  42  56  75  97 123 160 209 261
#     4  10  19  31  47  68  94 122 152 184 219 261
#     4   9  17  29  43  59  82 109 135 169 215 258
#
# _framework density 15.027514999999999
#
# number of rings (size 3 to 8) (size 9 to 14) (size 15 to 20)
#    0.000    2.714    0.000    3.000    0.000    5.714 
#    0.000    1.786    0.000    2.143    0.000    0.000 
#    0.000    0.286    0.000    3.000    0.000    1.643 
#
# Total GULP energy -623665.697405 kJ/mol
# GULP energy per Si atom -5568.443727 kJ/mol
# Density = 1.499331 g / cm^3
# Si number density = 15.027515 Si / 1000 Ang^3
#
#
#
# Elastic Constant Matrix: (Units=GPa)
#
#
# Indices 1 2 3 4 5 6 
#
# 1 63.8581 15.1000 42.1484 0.0000 0.0000 0.0000
# 2 15.1000 63.8581 42.1481 0.0000 0.0000 0.0000
# 3 42.1484 42.1481 100.7542 0.0000 0.0000 0.0000
# 4 0.0000 0.0000 0.0000 19.8612 0.0000 0.0000
# 5 0.0000 0.0000 0.0000 0.0000 19.8612 0.0000
# 6 0.0000 0.0000 0.0000 0.0000 0.0000 10.4516
#
#
#
# Elastic Compliance Matrix: (Units=1/GPa)
#
#
# Indices 1 2 3 4 5 6 
#
# 1 0.021698 0.001188 -0.009574 0.000000 0.000000 0.000000
# 2 0.001188 0.021698 -0.009574 0.000000 0.000000 0.000000
# 3 -0.009574 -0.009574 0.017935 0.000000 0.000000 0.000000
# 4 0.000000 0.000000 0.000000 0.050349 0.000000 0.000000
# 5 0.000000 0.000000 0.000000 0.000000 0.050350 0.000000
# 6 0.000000 0.000000 0.000000 0.000000 0.000000 0.095679
#
#
# Mechanical properties :
#
#
# Convention : Reuss Voigt Hill
#
# Bulk Modulus (GPa) = 39.35164 47.47372 43.41268
# Shear Modulus (GPa) = 16.55091 18.63973 17.59532
#
# Velocity S-wave (km/s) = 3.32230 3.52571 3.42552
# Velocity P-wave (km/s) = 6.40001 6.94507 6.67810
#
# Compressibility (1/GPa) = 0.02541190
#
# Stress axis : x y z
#
# Youngs Moduli (GPa) = 46.08747 46.08776 55.75618
#
# Poissons Ratio (x) = -0.05477 0.53381
# Poissons Ratio (y) = -0.05477 0.53380
# Poissons Ratio (z) = 0.44124 0.44124
#
# Static dielectric constant tensor:
#      x y z
#    x 1.499230 0.000000 0.000000 
#    y 0.000000 1.499230 0.000000 
#    z 0.000000 0.000000 1.518520 
# 
# From -- ./inp_files/2768.got.cif
#   From: 2010.05.17/outbox.cif.g08.bks.cpg/sg131_2_cif.got.tgz:2768.got - 2010.05.20 12:21:01.
