data_PCOD9567449
_publ_section_title
;
Structure prediction by ZEFSAII (Michael W. Deem and Ramdas Pophale) SiO2 
 PCOD9567449
Probable space group: P 42/M C M
;
_chemical_formula_sum "Si O2"
_cell_formula_units_Z 56
_cell_length_a 12.075530
_cell_length_b 12.075530
_cell_length_c 21.733334
_cell_angle_alpha 90.000000
_cell_angle_beta 90.000000
_cell_angle_gamma 90.000000
_cell_volume 3169.120529
_symmetry_space_group_name_H-M "P 42/M C M"
_symmetry_group_IT_number 132
_symmetry_cell_setting 'tetragonal'
loop_
_space_group_symop_operation_xyz
x,y,z
-y,x,1/2+z
-x,-y,z
y,-x,1/2+z
x,-y,1/2-z
-x,y,1/2-z
y,x,-z
-y,-x,-z
-x,-y,-z
y,-x,1/2-z
x,y,-z
-y,x,1/2-z
-x,y,1/2+z
x,-y,1/2+z
-y,-x,z
y,x,z
loop_
_atom_site_type_symbol
_atom_site_label
_atom_site_fract_x
_atom_site_fract_y
_atom_site_fract_z
Si Si1 0.000000 0.190332 0.250000
Si Si2 0.588459 0.411542 0.574461
Si Si3 0.162793 0.479028 0.925474
Si Si4 0.025376 0.320539 0.623255
Si Si5 0.914238 0.085763 0.071709
O O1 0.007358 0.272644 0.308409
O O2 0.892536 0.107465 0.251728
O O3 0.500000 0.500000 0.597982
O O4 0.585776 0.414225 0.500000
O O5 0.712364 0.446740 0.591000
O O6 0.119867 0.587256 0.889068
O O7 0.082847 0.379203 0.904890
O O8 0.153569 0.496259 0.000000
O O9 0.056645 0.210063 0.587736
O O10 0.925048 0.074953 0.000000
O O11 0.000000 0.000000 0.103436
#
# Coordination Sequence:
#
# PCOD9567449 Si02
#       5
#     8   8  16  16   8
#     4  11  24  41  60  88 126 165 215 256 302 374
#     4   9  20  36  57  85 121 159 192 239 299 364
#     4  10  22  39  62  93 125 156 205 259 311 373
#     4  11  22  39  61  86 121 164 201 255 314 365
#     4  11  22  34  57  91 123 157 204 257 320 377
#
# _framework density 17.670517
#
# number of rings (size 3 to 8) (size 9 to 14) (size 15 to 20)
#    0.000    1.571    1.429    4.286    6.000    2.286 
#    0.000    0.000    0.000    0.000    0.000    0.000 
#    0.000    0.000    0.000    0.000    0.000    0.000 
#
# Total GULP energy -312279.657491 kJ/mol
# GULP energy per Si atom -5576.422455 kJ/mol
# Density = 1.763030 g / cm^3
# Si number density = 17.670517 Si / 1000 Ang^3
#
#
#
# Elastic Constant Matrix: (Units=GPa)
#
#
# Indices 1 2 3 4 5 6 
#
# 1 159.7775 116.0239 43.1033 0.0000 0.0000 0.0000
# 2 116.0239 159.7778 43.1039 0.0000 0.0000 0.0000
# 3 43.1033 43.1039 105.8963 0.0000 0.0000 0.0000
# 4 0.0000 0.0000 0.0000 52.9434 0.0000 0.0000
# 5 0.0000 0.0000 0.0000 0.0000 52.9460 0.0000
# 6 0.0000 0.0000 0.0000 0.0000 0.0000 14.2933
#
#
#
# Elastic Compliance Matrix: (Units=1/GPa)
#
#
# Indices 1 2 3 4 5 6 
#
# 1 0.013505 -0.009350 -0.001691 0.000000 0.000000 0.000000
# 2 -0.009350 0.013505 -0.001691 0.000000 0.000000 0.000000
# 3 -0.001691 -0.001691 0.010820 0.000000 0.000000 0.000000
# 4 0.000000 0.000000 0.000000 0.018888 0.000000 0.000000
# 5 0.000000 0.000000 0.000000 0.000000 0.018887 0.000000
# 6 0.000000 0.000000 0.000000 0.000000 0.000000 0.069963
#
#
# Mechanical properties :
#
#
# Convention : Reuss Voigt Hill
#
# Bulk Modulus (GPa) = 80.87614 92.21263 86.54439
# Shear Modulus (GPa) = 28.54636 38.91791 33.73213
#
# Velocity S-wave (km/s) = 4.02366 4.69809 4.37389
# Velocity P-wave (km/s) = 8.21309 9.04030 8.63661
#
# Compressibility (1/GPa) = 0.01236459
#
# Stress axis : x y z
#
# Youngs Moduli (GPa) = 74.04802 74.04796 92.42347
#
# Poissons Ratio (x) = 0.69238 0.15628
# Poissons Ratio (y) = 0.69238 0.15629
# Poissons Ratio (z) = 0.12521 0.12522
#
# Static dielectric constant tensor:
#      x y z
#    x 1.594110 0.000000 0.000000 
#    y 0.000000 1.594110 0.000000 
#    z 0.000000 0.000000 1.639440 
# 
# From -- ./inp_files/7357.got.cif
#   From: 2010.05.17/outbox.cif.g08.bks.cpg/sg132_4_cif.got.tgz:7357.got - 2010.05.20 12:30:18.
