data_PCOD9567085
_publ_section_title
;
Structure prediction by ZEFSAII (Michael W. Deem and Ramdas Pophale) SiO2 
 PCOD9567085
Probable space group: P 42/M C M
;
_chemical_formula_sum "Si O2"
_cell_formula_units_Z 72
_cell_length_a 12.546948
_cell_length_b 12.546948
_cell_length_c 29.036797
_cell_angle_alpha 90.000000
_cell_angle_beta 90.000000
_cell_angle_gamma 90.000000
_cell_volume 4571.144020
_symmetry_space_group_name_H-M "P 42/M C M"
_symmetry_group_IT_number 132
_symmetry_cell_setting 'tetragonal'
loop_
_space_group_symop_operation_xyz
x,y,z
-y,x,1/2+z
-x,-y,z
y,-x,1/2+z
x,-y,1/2-z
-x,y,1/2-z
y,x,-z
-y,-x,-z
-x,-y,-z
y,-x,1/2-z
x,y,-z
-y,x,1/2-z
-x,y,1/2+z
x,-y,1/2+z
-y,-x,z
y,x,z
loop_
_atom_site_type_symbol
_atom_site_label
_atom_site_fract_x
_atom_site_fract_y
_atom_site_fract_z
Si Si1 0.415990 0.584011 0.055425
Si Si2 0.004495 0.822150 0.300680
Si Si3 0.247163 0.933807 0.102920
Si Si4 0.451971 0.830572 0.055751
Si Si5 0.305491 0.139229 0.944833
O O1 0.500000 0.500000 0.074846
O O2 0.444696 0.705093 0.066443
O O3 0.421734 0.578267 0.000000
O O4 0.917096 0.917096 0.298298
O O5 0.969036 0.751281 0.343659
O O6 0.000000 0.770692 0.250000
O O7 0.117407 0.882593 0.308561
O O8 0.151136 0.848865 0.096623
O O9 0.355952 0.884432 0.083182
O O10 0.235688 0.043245 0.074891
O O11 0.570403 0.869404 0.068603
O O12 0.437681 0.845898 0.000000
O O13 0.250912 0.250912 0.931295
O O14 0.304770 0.134054 0.000000
#
# Coordination Sequence:
#
# PCOD9567085 Si02
#       5
#     8  16  16  16  16
#     4   9  16  28  48  68  89 125 173 215 238 266
#     4   8  15  29  48  69  94 126 160 192 233 291
#     4  11  20  30  48  74 100 125 153 197 251 299
#     4  10  19  32  47  67  97 131 167 204 244 284
#     4  10  21  34  47  65  94 135 174 202 232 282
#
# _framework density 15.75098
#
# number of rings (size 3 to 8) (size 9 to 14) (size 15 to 20)
#    0.000    2.333    1.111    3.333    0.000    7.111 
#    0.000    1.111    0.000    2.667    0.000    0.000 
#    0.000    0.000    0.000    0.889    0.000    0.000 
#
# Total GULP energy -401000.678969 kJ/mol
# GULP energy per Si atom -5569.453875 kJ/mol
# Density = 1.571513 g / cm^3
# Si number density = 15.750980 Si / 1000 Ang^3
#
#
#
# Elastic Constant Matrix: (Units=GPa)
#
#
# Indices 1 2 3 4 5 6 
#
# 1 28.2065 86.7142 42.2052 0.0000 0.0000 0.0000
# 2 86.7142 28.2079 42.2035 0.0000 0.0000 0.0000
# 3 42.2052 42.2035 56.2762 0.0000 0.0000 0.0000
# 4 0.0000 0.0000 0.0000 27.9213 0.0000 0.0000
# 5 0.0000 0.0000 0.0000 0.0000 27.9213 0.0000
# 6 0.0000 0.0000 0.0000 0.0000 0.0000 23.6627
#
#
#
# Elastic Compliance Matrix: (Units=1/GPa)
#
#
# Indices 1 2 3 4 5 6 
#
# 1 0.001140 0.018232 -0.014528 0.000000 0.000000 0.000000
# 2 0.018232 0.001141 -0.014529 0.000000 0.000000 0.000000
# 3 -0.014528 -0.014529 0.039561 0.000000 0.000000 0.000000
# 4 0.000000 0.000000 0.000000 0.035815 0.000000 0.000000
# 5 0.000000 0.000000 0.000000 0.000000 0.035815 0.000000
# 6 0.000000 0.000000 0.000000 0.000000 0.000000 0.042261
#
#
# Mechanical properties :
#
#
# Convention : Reuss Voigt Hill
#
# Bulk Modulus (GPa) = 49.52446 50.54851 50.03648
# Shear Modulus (GPa) = 27.15735 12.00559 19.58147
#
# Velocity S-wave (km/s) = 4.15682 2.76381 3.52972
# Velocity P-wave (km/s) = 7.38574 6.50745 6.96046
#
# Compressibility (1/GPa) = 0.02019204
#
# Stress axis : x y z
#
# Youngs Moduli (GPa) = 877.40672 876.42668 25.27749
#
# Poissons Ratio (x) = -15.97930 0.36723
# Poissons Ratio (y) = -15.99717 0.36726
# Poissons Ratio (z) = 12.74681 12.73385
#
# Static dielectric constant tensor:
#      x y z
#    x 1.547290 0.000000 0.000000 
#    y 0.000000 1.547300 0.000000 
#    z 0.000000 0.000000 1.524880 
# 
# From -- ./inp_files/9777.got.cif
#   From: 2010.05.17/outbox.cif.g08.bks.cpg/sg132_5_cif.got.tgz:9777.got - 2010.05.20 12:30:18.
