data_PCOD9567488
_publ_section_title
;
Structure prediction by ZEFSAII (Michael W. Deem and Ramdas Pophale) SiO2 
 PCOD9567488
Probable space group: P 42/M C M
;
_chemical_formula_sum "Si O2"
_cell_formula_units_Z 112
_cell_length_a 15.668077
_cell_length_b 15.668077
_cell_length_c 22.421627
_cell_angle_alpha 90.000000
_cell_angle_beta 90.000000
_cell_angle_gamma 90.000000
_cell_volume 5504.254649
_symmetry_space_group_name_H-M "P 42/M C M"
_symmetry_group_IT_number 132
_symmetry_cell_setting 'tetragonal'
loop_
_space_group_symop_operation_xyz
x,y,z
-y,x,1/2+z
-x,-y,z
y,-x,1/2+z
x,-y,1/2-z
-x,y,1/2-z
y,x,-z
-y,-x,-z
-x,-y,-z
y,-x,1/2-z
x,y,-z
-y,x,1/2-z
-x,y,1/2+z
x,-y,1/2+z
-y,-x,z
y,x,z
loop_
_atom_site_type_symbol
_atom_site_label
_atom_site_fract_x
_atom_site_fract_y
_atom_site_fract_z
Si Si1 0.863757 0.995111 0.678577
Si Si2 0.680847 0.051042 0.349799
Si Si3 0.789110 0.650898 0.066221
Si Si4 0.668382 0.807015 0.758250
Si Si5 0.933606 0.579917 0.567981
Si Si6 0.686555 0.448172 0.337825
Si Si7 0.759076 0.622566 0.372262
O O1 0.902829 0.902829 0.664131
O O2 0.852004 0.000000 0.750000
O O3 0.777332 0.020437 0.648128
O O4 0.935060 0.064941 0.663691
O O5 0.660696 0.126211 0.396224
O O6 0.665638 0.098842 0.286678
O O7 0.627586 0.973061 0.374791
O O8 0.741777 0.741777 0.063781
O O9 0.724148 0.590452 0.100857
O O10 0.807433 0.619775 0.000000
O O11 0.756376 0.756376 0.775280
O O12 0.593326 0.750186 0.788498
O O13 0.659497 0.803544 0.687609
O O14 0.938003 0.616464 0.500000
O O15 0.832334 0.579838 0.585823
O O16 0.000000 0.500000 0.565267
O O17 0.593964 0.406037 0.327331
O O18 0.697602 0.548110 0.346194
O O19 0.698396 0.698396 0.397763
#
# Coordination Sequence:
#
# PCOD9567488 Si02
#       7
#    16  16  16  16  16  16  16
#     4   9  19  34  53  81 116 151 186 229 283 343
#     4  11  20  34  60  85 110 150 197 244 290 354
#     4   9  17  31  55  86 114 143 187 246 303 344
#     4   9  19  35  58  92 128 156 191 242 300 361
#     4  11  26  45  62  83 115 158 209 261 308 359
#     4   9  18  35  59  88 120 154 194 243 293 352
#     4  11  24  40  60  88 123 163 199 243 305 369
#
# _framework density 20.347895000000001
#
# number of rings (size 3 to 8) (size 9 to 14) (size 15 to 20)
#    0.000    2.143    0.000    5.143    2.000    2.857 
#    0.000    0.714    0.000    3.857    0.000    8.000 
#    0.000    0.000    0.000    0.000    0.000    0.000 
#
# Total GULP energy -624002.142711 kJ/mol
# GULP energy per Si atom -5571.447703 kJ/mol
# Density = 2.030158 g / cm^3
# Si number density = 20.347895 Si / 1000 Ang^3
#
#
#
# Elastic Constant Matrix: (Units=GPa)
#
#
# Indices 1 2 3 4 5 6 
#
# 1 82.5933 32.6773 17.8161 0.0000 0.0000 0.0000
# 2 32.6773 82.5933 17.8161 0.0000 0.0000 0.0000
# 3 17.8161 17.8161 38.1715 0.0000 0.0000 0.0000
# 4 0.0000 0.0000 0.0000 17.9957 0.0000 0.0000
# 5 0.0000 0.0000 0.0000 0.0000 17.9957 0.0000
# 6 0.0000 0.0000 0.0000 0.0000 0.0000 20.2354
#
#
#
# Elastic Compliance Matrix: (Units=1/GPa)
#
#
# Indices 1 2 3 4 5 6 
#
# 1 0.015086 -0.004948 -0.004732 0.000000 0.000000 0.000000
# 2 -0.004948 0.015086 -0.004732 0.000000 0.000000 0.000000
# 3 -0.004732 -0.004732 0.030615 0.000000 0.000000 0.000000
# 4 0.000000 0.000000 0.000000 0.055569 0.000000 0.000000
# 5 0.000000 0.000000 0.000000 0.000000 0.055569 0.000000
# 6 0.000000 0.000000 0.000000 0.000000 0.000000 0.049418
#
#
# Mechanical properties :
#
#
# Convention : Reuss Voigt Hill
#
# Bulk Modulus (GPa) = 31.28581 37.77524 34.53052
# Shear Modulus (GPa) = 19.17035 20.24860 19.70948
#
# Velocity S-wave (km/s) = 3.07274 3.15797 3.11565
# Velocity P-wave (km/s) = 5.29130 5.64819 5.47265
#
# Compressibility (1/GPa) = 0.03196337
#
# Stress axis : x y z
#
# Youngs Moduli (GPa) = 66.28761 66.28761 32.66423
#
# Poissons Ratio (x) = 0.32798 0.15456
# Poissons Ratio (y) = 0.32798 0.15456
# Poissons Ratio (z) = 0.31366 0.31366
#
# Static dielectric constant tensor:
#      x y z
#    x 1.763590 0.000000 0.000000 
#    y 0.000000 1.763590 0.000000 
#    z 0.000000 0.000000 1.730000 
# 
# From -- ./inp_files/9111.got.cif
#   From: 2010.05.17/outbox.cif.g08.bks.cpg/sg132_5_cif.got.tgz:9111.got - 2010.05.20 12:30:18.
