data_PCOD9567496
_publ_section_title
;
Structure prediction by ZEFSAII (Michael W. Deem and Ramdas Pophale) SiO2 
 PCOD9567496
Probable space group: P 42/M C M
;
_chemical_formula_sum "Si O2"
_cell_formula_units_Z 72
_cell_length_a 16.104139
_cell_length_b 16.104139
_cell_length_c 13.688815
_cell_angle_alpha 90.000000
_cell_angle_beta 90.000000
_cell_angle_gamma 90.000000
_cell_volume 3550.102358
_symmetry_space_group_name_H-M "P 42/M C M"
_symmetry_group_IT_number 132
_symmetry_cell_setting 'tetragonal'
loop_
_space_group_symop_operation_xyz
x,y,z
-y,x,1/2+z
-x,-y,z
y,-x,1/2+z
x,-y,1/2-z
-x,y,1/2-z
y,x,-z
-y,-x,-z
-x,-y,-z
y,-x,1/2-z
x,y,-z
-y,x,1/2-z
-x,y,1/2+z
x,-y,1/2+z
-y,-x,z
y,x,z
loop_
_atom_site_type_symbol
_atom_site_label
_atom_site_fract_x
_atom_site_fract_y
_atom_site_fract_z
Si Si1 0.000000 0.867329 0.250000
Si Si2 0.425975 0.704771 0.819547
Si Si3 0.841570 0.298344 0.891598
Si Si4 0.257256 0.117826 0.816823
Si Si5 0.335546 0.808450 0.500000
Si Si6 0.530867 0.669075 0.000000
O O1 0.956025 0.809107 0.169914
O O2 0.072478 0.927523 0.210698
O O3 0.500000 0.734629 0.750000
O O4 0.359411 0.640590 0.771953
O O5 0.372638 0.777421 0.868639
O O6 0.474235 0.660074 0.905986
O O7 0.785030 0.214971 0.895672
O O8 0.894562 0.293417 0.792171
O O9 0.879349 0.308824 0.000000
O O10 0.201558 0.201558 0.811536
O O11 0.320889 0.135764 0.903494
O O12 0.262267 0.737733 0.500000
O O13 0.421592 0.758271 0.500000
O O14 0.601338 0.601338 0.000000
#
# Coordination Sequence:
#
# PCOD9567496 Si02
#       6
#     8  16  16  16   8   8
#     4   9  18  34  56  88 125 148 164 194 255 336
#     4  11  21  32  46  70 104 140 181 229 282 336
#     4   9  17  32  51  71  98 137 189 235 262 303
#     4   9  17  32  54  77 107 143 176 214 255 306
#     4   9  18  33  51  74 101 137 188 230 260 302
#     4  11  21  32  47  70 102 138 179 229 281 326
#
# _framework density 20.281105
#
# number of rings (size 3 to 8) (size 9 to 14) (size 15 to 20)
#    0.000    2.333    1.111    2.333    0.000    5.556 
#    2.000    0.556    0.000    3.333    0.000    8.556 
#    0.000    0.000    0.000    0.000    0.000    0.000 
#
# Total GULP energy -401026.954618 kJ/mol
# GULP energy per Si atom -5569.818814 kJ/mol
# Density = 2.023494 g / cm^3
# Si number density = 20.281105 Si / 1000 Ang^3
#
#
#
# Elastic Constant Matrix: (Units=GPa)
#
#
# Indices 1 2 3 4 5 6 
#
# 1 40.8426 38.0333 19.7934 0.0000 0.0000 0.0000
# 2 38.0333 40.8427 19.7933 0.0000 0.0000 0.0000
# 3 19.7934 19.7933 106.5374 0.0000 0.0000 0.0000
# 4 0.0000 0.0000 0.0000 22.2073 0.0000 0.0000
# 5 0.0000 0.0000 0.0000 0.0000 22.2072 0.0000
# 6 0.0000 0.0000 0.0000 0.0000 0.0000 32.5105
#
#
#
# Elastic Compliance Matrix: (Units=1/GPa)
#
#
# Indices 1 2 3 4 5 6 
#
# 1 0.184970 -0.170988 -0.002598 0.000000 0.000000 0.000000
# 2 -0.170988 0.184970 -0.002597 0.000000 0.000000 0.000000
# 3 -0.002598 -0.002597 0.010352 0.000000 0.000000 0.000000
# 4 0.000000 0.000000 0.000000 0.045030 0.000000 0.000000
# 5 0.000000 0.000000 0.000000 0.000000 0.045030 0.000000
# 6 0.000000 0.000000 0.000000 0.000000 0.000000 0.030759
#
#
# Mechanical properties :
#
#
# Convention : Reuss Voigt Hill
#
# Bulk Modulus (GPa) = 35.81062 38.16253 36.98658
# Shear Modulus (GPa) = 5.79518 22.75850 14.27684
#
# Velocity S-wave (km/s) = 1.69223 3.35349 2.65608
# Velocity P-wave (km/s) = 4.63828 5.81826 5.26145
#
# Compressibility (1/GPa) = 0.02792468
#
# Stress axis : x y z
#
# Youngs Moduli (GPa) = 5.40628 5.40629 96.60342
#
# Poissons Ratio (x) = 0.92441 0.25096
# Poissons Ratio (y) = 0.92441 0.25093
# Poissons Ratio (z) = 0.01404 0.01404
#
# Static dielectric constant tensor:
#      x y z
#    x 1.738410 0.000000 0.000000 
#    y 0.000000 1.738410 0.000000 
#    z 0.000000 0.000000 1.768380 
# 
# From -- ./inp_files/3199.got.cif
#   From: 2010.05.17/outbox.cif.g08.bks.cpg/sg132_2_cif.got.tgz:3199.got - 2010.05.20 12:30:18.
