data_PCOD9567267
_publ_section_title
;
Structure prediction by ZEFSAII (Michael W. Deem and Ramdas Pophale) SiO2 
 PCOD9567267
Probable space group: P 42/M C M
;
_chemical_formula_sum "Si O2"
_cell_formula_units_Z 104
_cell_length_a 15.697644
_cell_length_b 15.697644
_cell_length_c 24.276302
_cell_angle_alpha 90.000000
_cell_angle_beta 90.000000
_cell_angle_gamma 90.000000
_cell_volume 5982.069893
_symmetry_space_group_name_H-M "P 42/M C M"
_symmetry_group_IT_number 132
_symmetry_cell_setting 'tetragonal'
loop_
_space_group_symop_operation_xyz
x,y,z
-y,x,1/2+z
-x,-y,z
y,-x,1/2+z
x,-y,1/2-z
-x,y,1/2-z
y,x,-z
-y,-x,-z
-x,-y,-z
y,-x,1/2-z
x,y,-z
-y,x,1/2-z
-x,y,1/2+z
x,-y,1/2+z
-y,-x,z
y,x,z
loop_
_atom_site_type_symbol
_atom_site_label
_atom_site_fract_x
_atom_site_fract_y
_atom_site_fract_z
Si Si1 0.726252 0.413696 0.389023
Si Si2 0.720866 0.968455 0.831982
Si Si3 0.202956 0.344688 0.216094
Si Si4 0.831239 0.309972 0.836441
Si Si5 0.600240 0.743094 0.436475
Si Si6 0.000000 0.133739 0.250000
Si Si7 0.280872 0.861954 0.562659
O O1 0.639315 0.360686 0.395890
O O2 0.751637 0.411625 0.324257
O O3 0.723329 0.505651 0.415718
O O4 0.800216 0.357769 0.418339
O O5 0.663786 0.895371 0.802820
O O6 0.727204 0.938331 0.894624
O O7 0.695527 0.067258 0.829156
O O8 0.808141 0.963561 0.798118
O O9 0.255789 0.255789 0.204841
O O10 0.204606 0.356620 0.281564
O O11 0.781480 0.218520 0.837318
O O12 0.807534 0.357945 0.892557
O O13 0.599570 0.773316 0.500000
O O14 0.659109 0.659109 0.434330
O O15 0.926063 0.073938 0.227343
O O16 0.293466 0.889178 0.500000
O O17 0.197047 0.802954 0.566054
#
# Coordination Sequence:
#
# PCOD9567267 Si02
#       7
#    16  16  16  16  16   8  16
#     4   9  18  34  59  84 104 128 163 213 271 325
#     4  11  18  30  52  76 103 136 178 218 258 312
#     4   9  17  32  54  80 106 134 172 217 265 315
#     4  10  20  34  52  72 103 145 179 213 259 309
#     4  10  22  38  54  76 106 138 174 214 256 310
#     4  11  20  28  46  78 109 132 166 224 277 308
#     4   9  18  32  51  76 106 140 178 219 262 312
#
# _framework density 17.385287999999999
#
# number of rings (size 3 to 8) (size 9 to 14) (size 15 to 20)
#    0.000    2.231    1.538    3.231    0.000    2.462 
#    0.000    3.846    0.000    9.692    0.000    9.692 
#    0.000    0.000    0.000    0.000    0.000    0.000 
#
# Total GULP energy -579523.508113 kJ/mol
# GULP energy per Si atom -5572.341424 kJ/mol
# Density = 1.734572 g / cm^3
# Si number density = 17.385288 Si / 1000 Ang^3
#
#
#
# Elastic Constant Matrix: (Units=GPa)
#
#
# Indices 1 2 3 4 5 6 
#
# 1 51.7576 -3.1547 27.0892 0.0000 0.0000 0.0000
# 2 -3.1547 51.7576 27.0892 0.0000 0.0000 0.0000
# 3 27.0892 27.0892 139.0565 0.0000 0.0000 0.0000
# 4 0.0000 0.0000 0.0000 25.0089 0.0000 0.0000
# 5 0.0000 0.0000 0.0000 0.0000 25.0089 0.0000
# 6 0.0000 0.0000 0.0000 0.0000 0.0000 6.4450
#
#
#
# Elastic Compliance Matrix: (Units=1/GPa)
#
#
# Indices 1 2 3 4 5 6 
#
# 1 0.022247 0.004036 -0.005120 0.000000 0.000000 0.000000
# 2 0.004036 0.022247 -0.005120 0.000000 0.000000 0.000000
# 3 -0.005120 -0.005120 0.009186 0.000000 0.000000 0.000000
# 4 0.000000 0.000000 0.000000 0.039986 0.000000 0.000000
# 5 0.000000 0.000000 0.000000 0.000000 0.039986 0.000000
# 6 0.000000 0.000000 0.000000 0.000000 0.000000 0.155160
#
#
# Mechanical properties :
#
#
# Convention : Reuss Voigt Hill
#
# Bulk Modulus (GPa) = 24.23026 38.29100 31.26063
# Shear Modulus (GPa) = 15.87422 24.06241 19.96832
#
# Velocity S-wave (km/s) = 3.02501 3.72434 3.39274
# Velocity P-wave (km/s) = 5.11550 6.36923 5.77648
#
# Compressibility (1/GPa) = 0.04127071
#
# Stress axis : x y z
#
# Youngs Moduli (GPa) = 44.95081 44.95081 108.85984
#
# Poissons Ratio (x) = -0.18141 0.55736
# Poissons Ratio (y) = -0.18141 0.55736
# Poissons Ratio (z) = 0.23015 0.23015
#
# Static dielectric constant tensor:
#      x y z
#    x 1.586420 0.000000 0.000000 
#    y 0.000000 1.586420 0.000000 
#    z 0.000000 0.000000 1.613740 
# 
# From -- ./inp_files/9157.got.cif
#   From: 2010.05.17/outbox.cif.g08.bks.cpg/sg132_5_cif.got.tgz:9157.got - 2010.05.20 12:30:18.
