data_PCOD9567392
_publ_section_title
;
Structure prediction by ZEFSAII (Michael W. Deem and Ramdas Pophale) SiO2 
 PCOD9567392
Probable space group: P 42/M C M
;
_chemical_formula_sum "Si O2"
_cell_formula_units_Z 96
_cell_length_a 25.844612
_cell_length_b 25.844612
_cell_length_c 8.823965
_cell_angle_alpha 90.000000
_cell_angle_beta 90.000000
_cell_angle_gamma 90.000000
_cell_volume 5893.914208
_symmetry_space_group_name_H-M "P 42/M C M"
_symmetry_group_IT_number 132
_symmetry_cell_setting 'tetragonal'
loop_
_space_group_symop_operation_xyz
x,y,z
-y,x,1/2+z
-x,-y,z
y,-x,1/2+z
x,-y,1/2-z
-x,y,1/2-z
y,x,-z
-y,-x,-z
-x,-y,-z
y,-x,1/2-z
x,y,-z
-y,x,1/2-z
-x,y,1/2+z
x,-y,1/2+z
-y,-x,z
y,x,z
loop_
_atom_site_type_symbol
_atom_site_label
_atom_site_fract_x
_atom_site_fract_y
_atom_site_fract_z
Si Si1 0.556851 0.246430 0.681717
Si Si2 0.632954 0.946492 0.174827
Si Si3 0.444196 0.357828 0.318817
Si Si4 0.837008 0.634671 0.680949
Si Si5 0.052640 0.241120 0.172806
Si Si6 0.251016 0.165496 0.816086
O O1 0.500000 0.235671 0.750000
O O2 0.554950 0.246130 0.500000
O O3 0.571261 0.303595 0.742044
O O4 0.596987 0.204560 0.743399
O O5 0.619033 0.894820 0.265746
O O6 0.695919 0.948303 0.175133
O O7 0.614866 0.000000 0.250000
O O8 0.616505 0.942685 0.000000
O O9 0.500000 0.372187 0.250000
O O10 0.449169 0.350302 0.500000
O O11 0.401961 0.401961 0.290625
O O12 0.833362 0.633132 0.500000
O O13 0.827660 0.693048 0.740823
O O14 0.109618 0.228601 0.235477
O O15 0.000000 0.223006 0.250000
O O16 0.051075 0.223663 0.000000
O O17 0.211765 0.211765 0.782607
O O18 0.257925 0.162669 0.000000
#
# Coordination Sequence:
#
# PCOD9567392 Si02
#       6
#    16  16  16  16  16  16
#     4  11  22  38  58  77  99 129 166 206 245 288
#     4   9  16  28  46  70  97 126 162 203 246 289
#     4  10  21  37  57  81 107 133 163 200 242 290
#     4  11  21  33  50  73 100 131 166 202 244 295
#     4   8  14  24  40  61  86 119 157 195 236 284
#     4   9  18  32  47  66  96 131 165 202 246 295
#
# _framework density 16.287987000000001
#
# number of rings (size 3 to 8) (size 9 to 14) (size 15 to 20)
#    0.000    2.333    0.000    6.000    0.000    6.500 
#    0.000    0.833    0.000    0.500    0.000    3.500 
#    0.000    0.333    0.000    4.167    0.000    0.167 
#
# Total GULP energy -535193.956478 kJ/mol
# GULP energy per Si atom -5574.937047 kJ/mol
# Density = 1.625092 g / cm^3
# Si number density = 16.287987 Si / 1000 Ang^3
#
#
#
# Elastic Constant Matrix: (Units=GPa)
#
#
# Indices 1 2 3 4 5 6 
#
# 1 100.6165 89.0698 66.3913 0.0000 0.0000 0.0000
# 2 89.0698 100.6165 66.3913 0.0000 0.0000 0.0000
# 3 66.3913 66.3913 120.9346 0.0000 0.0000 0.0000
# 4 0.0000 0.0000 0.0000 25.5252 0.0000 0.0000
# 5 0.0000 0.0000 0.0000 0.0000 25.5252 0.0000
# 6 0.0000 0.0000 0.0000 0.0000 0.0000 -5.4157
#
#
#
# Elastic Compliance Matrix: (Units=1/GPa)
#
#
# Indices 1 2 3 4 5 6 
#
# 1 0.047583 -0.039021 -0.004701 0.000000 0.000000 0.000000
# 2 -0.039021 0.047583 -0.004701 0.000000 0.000000 0.000000
# 3 -0.004701 -0.004701 0.013430 0.000000 0.000000 0.000000
# 4 0.000000 0.000000 0.000000 0.039177 0.000000 0.000000
# 5 0.000000 0.000000 0.000000 0.000000 0.039177 0.000000
# 6 0.000000 0.000000 0.000000 0.000000 0.000000 -0.184648
#
#
# Mechanical properties :
#
#
# Convention : Reuss Voigt Hill
#
# Bulk Modulus (GPa) = 85.08946 85.09692 85.09319
# Shear Modulus (GPa) = 48.51303 15.81464 32.16384
#
# Velocity S-wave (km/s) = 5.46344 3.11937 4.44858
# Velocity P-wave (km/s) = 9.59963 8.08286 8.87371
#
# Compressibility (1/GPa) = 0.01175234
#
# Stress axis : x y z
#
# Youngs Moduli (GPa) = 21.01571 21.01571 74.45997
#
# Poissons Ratio (x) = 0.82006 0.35001
# Poissons Ratio (y) = 0.82006 0.35001
# Poissons Ratio (z) = 0.09879 0.09879
#
# Static dielectric constant tensor:
#      x y z
#    x 1.540780 0.000000 0.000000 
#    y 0.000000 1.540780 0.000000 
#    z 0.000000 0.000000 1.552300 
# 
# From -- ./inp_files/1748.got.cif
#   From: 2010.05.17/outbox.cif.g08.bks.cpg/sg132_1_cif.got.tgz:1748.got - 2010.05.20 12:30:18.
