data_PCOD9567401
_publ_section_title
;
Structure prediction by ZEFSAII (Michael W. Deem and Ramdas Pophale) SiO2 
 PCOD9567401
Probable space group: P 42/M C M
;
_chemical_formula_sum "Si O2"
_cell_formula_units_Z 96
_cell_length_a 24.509364
_cell_length_b 24.509364
_cell_length_c 8.446433
_cell_angle_alpha 90.000000
_cell_angle_beta 90.000000
_cell_angle_gamma 90.000000
_cell_volume 5073.847676
_symmetry_space_group_name_H-M "P 42/M C M"
_symmetry_group_IT_number 132
_symmetry_cell_setting 'tetragonal'
loop_
_space_group_symop_operation_xyz
x,y,z
-y,x,1/2+z
-x,-y,z
y,-x,1/2+z
x,-y,1/2-z
-x,y,1/2-z
y,x,-z
-y,-x,-z
-x,-y,-z
y,-x,1/2-z
x,y,-z
-y,x,1/2-z
-x,y,1/2+z
x,-y,1/2+z
-y,-x,z
y,x,z
loop_
_atom_site_type_symbol
_atom_site_label
_atom_site_fract_x
_atom_site_fract_y
_atom_site_fract_z
Si Si1 0.058670 0.644071 0.685988
Si Si2 0.149725 0.062645 0.189778
Si Si3 0.243268 0.558041 0.319281
Si Si4 0.768624 0.319903 0.809825
Si Si5 0.449399 0.873214 0.183948
Si Si6 0.257969 0.118242 0.309224
O O1 0.064701 0.633406 0.500000
O O2 0.099426 0.607957 0.788411
O O3 0.071648 0.706052 0.727040
O O4 0.000000 0.629210 0.750000
O O5 0.091948 0.091948 0.228373
O O6 0.196711 0.103000 0.258772
O O7 0.153938 0.000000 0.250000
O O8 0.155931 0.061794 0.000000
O O9 0.265943 0.500000 0.250000
O O10 0.260543 0.561429 0.500000
O O11 0.247112 0.618510 0.243018
O O12 0.178361 0.550447 0.300189
O O13 0.719723 0.280278 0.761471
O O14 0.824707 0.288294 0.758535
O O15 0.772294 0.322044 0.000000
O O16 0.500000 0.908451 0.250000
O O17 0.454718 0.858531 0.000000
O O18 0.261130 0.116080 0.500000
#
# Coordination Sequence:
#
# PCOD9567401 Si02
#       6
#    16  16  16  16  16  16
#     4  12  24  38  55  78 107 145 190 240 289 340
#     4  11  25  44  66  91 118 148 185 232 287 352
#     4  11  21  35  57  83 115 157 199 244 291 344
#     4  10  21  37  59  88 122 158 197 241 289 344
#     4  11  21  36  55  77 105 142 188 238 289 342
#     4  11  22  39  62  87 117 154 190 231 284 345
#
# _framework density 18.920552000000001
#
# number of rings (size 3 to 8) (size 9 to 14) (size 15 to 20)
#    0.000    1.000    1.667    7.500    0.000    3.500 
#    0.000    2.500    0.000    0.000    0.000    0.000 
#    0.000    0.333    0.000    3.500    0.000    1.500 
#
# Total GULP energy -534808.743662 kJ/mol
# GULP energy per Si atom -5570.924413 kJ/mol
# Density = 1.887749 g / cm^3
# Si number density = 18.920552 Si / 1000 Ang^3
#
#
#
# Elastic Constant Matrix: (Units=GPa)
#
#
# Indices 1 2 3 4 5 6 
#
# 1 83.5955 26.8618 13.5762 0.0000 0.0000 0.0000
# 2 26.8618 83.5955 13.5762 0.0000 0.0000 0.0000
# 3 13.5762 13.5762 74.6087 0.0000 0.0000 0.0000
# 4 0.0000 0.0000 0.0000 23.4253 0.0000 0.0000
# 5 0.0000 0.0000 0.0000 0.0000 23.4253 0.0000
# 6 0.0000 0.0000 0.0000 0.0000 0.0000 31.0960
#
#
#
# Elastic Compliance Matrix: (Units=1/GPa)
#
#
# Indices 1 2 3 4 5 6 
#
# 1 0.013552 -0.004075 -0.001725 0.000000 0.000000 0.000000
# 2 -0.004075 0.013552 -0.001725 0.000000 0.000000 0.000000
# 3 -0.001725 -0.001725 0.014031 0.000000 0.000000 0.000000
# 4 0.000000 0.000000 0.000000 0.042689 0.000000 0.000000
# 5 0.000000 0.000000 0.000000 0.000000 0.042689 0.000000
# 6 0.000000 0.000000 0.000000 0.000000 0.000000 0.032158
#
#
# Mechanical properties :
#
#
# Convention : Reuss Voigt Hill
#
# Bulk Modulus (GPa) = 38.33302 38.86978 38.60140
# Shear Modulus (GPa) = 27.41027 28.10835 27.75931
#
# Velocity S-wave (km/s) = 3.81031 3.85853 3.83450
# Velocity P-wave (km/s) = 6.29777 6.35919 6.32856
#
# Compressibility (1/GPa) = 0.02608717
#
# Stress axis : x y z
#
# Youngs Moduli (GPa) = 73.79148 73.79148 71.27144
#
# Poissons Ratio (x) = 0.30066 0.12291
# Poissons Ratio (y) = 0.30066 0.12291
# Poissons Ratio (z) = 0.12726 0.12726
#
# Static dielectric constant tensor:
#      x y z
#    x 1.721270 0.000000 0.000000 
#    y 0.000000 1.721270 0.000000 
#    z 0.000000 0.000000 1.642410 
# 
# From -- ./inp_files/1708.got.cif
#   From: 2010.05.17/outbox.cif.g08.bks.cpg/sg132_1_cif.got.tgz:1708.got - 2010.05.20 12:30:18.
