data_PCOD9567368
_publ_section_title
;
Structure prediction by ZEFSAII (Michael W. Deem and Ramdas Pophale) SiO2 
 PCOD9567368
Probable space group: P 42/M C M
;
_chemical_formula_sum "Si O2"
_cell_formula_units_Z 72
_cell_length_a 12.448519
_cell_length_b 12.448519
_cell_length_c 25.087992
_cell_angle_alpha 90.000000
_cell_angle_beta 90.000000
_cell_angle_gamma 90.000000
_cell_volume 3887.776368
_symmetry_space_group_name_H-M "P 42/M C M"
_symmetry_group_IT_number 132
_symmetry_cell_setting 'tetragonal'
loop_
_space_group_symop_operation_xyz
x,y,z
-y,x,1/2+z
-x,-y,z
y,-x,1/2+z
x,-y,1/2-z
-x,y,1/2-z
y,x,-z
-y,-x,-z
-x,-y,-z
y,-x,1/2-z
x,y,-z
-y,x,1/2-z
-x,y,1/2+z
x,-y,1/2+z
-y,-x,z
y,x,z
loop_
_atom_site_type_symbol
_atom_site_label
_atom_site_fract_x
_atom_site_fract_y
_atom_site_fract_z
Si Si1 0.679425 0.500000 0.250000
Si Si2 0.192677 0.365757 0.062237
Si Si3 0.980008 0.380847 0.874387
Si Si4 0.170046 0.998049 0.186405
Si Si5 0.257196 0.563077 0.133149
O O1 0.600467 0.399534 0.262860
O O2 0.743122 0.468390 0.196245
O O3 0.251851 0.251851 0.071136
O O4 0.066765 0.367441 0.078250
O O5 0.252699 0.454499 0.098473
O O6 0.203532 0.392857 0.000000
O O7 0.000000 0.500000 0.852666
O O8 0.008755 0.288914 0.833473
O O9 0.852473 0.376203 0.884029
O O10 0.112139 0.887862 0.168978
O O11 0.167978 0.000000 0.250000
O O12 0.094666 0.094666 0.167122
O O13 0.360812 0.639189 0.125030
#
# Coordination Sequence:
#
# PCOD9567368 Si02
#       5
#     8  16  16  16  16
#     4   9  18  34  55  80 116 156 187 219 266 330
#     4  10  22  40  60  80 105 143 189 232 275 327
#     4  10  21  34  52  77 108 141 174 215 268 327
#     4   9  18  33  53  76 103 138 180 224 267 314
#     4  10  21  36  57  86 115 145 182 226 277 327
#
# _framework density 18.519583999999998
#
# number of rings (size 3 to 8) (size 9 to 14) (size 15 to 20)
#    0.000    2.333    0.000    2.667    0.000    9.778 
#    0.000    6.667    0.000    2.000    0.000    7.778 
#    0.000    0.000    0.000    0.000    0.000    0.000 
#
# Total GULP energy -401112.059222 kJ/mol
# GULP energy per Si atom -5571.000823 kJ/mol
# Density = 1.847743 g / cm^3
# Si number density = 18.519584 Si / 1000 Ang^3
#
#
#
# Elastic Constant Matrix: (Units=GPa)
#
#
# Indices 1 2 3 4 5 6 
#
# 1 84.4893 29.7556 43.4537 0.0000 0.0000 0.0000
# 2 29.7556 84.4893 43.4537 0.0000 0.0000 0.0000
# 3 43.4537 43.4537 83.3912 0.0000 0.0000 0.0000
# 4 0.0000 0.0000 0.0000 25.2574 0.0000 0.0000
# 5 0.0000 0.0000 0.0000 0.0000 25.2574 0.0000
# 6 0.0000 0.0000 0.0000 0.0000 0.0000 11.2110
#
#
#
# Elastic Compliance Matrix: (Units=1/GPa)
#
#
# Indices 1 2 3 4 5 6 
#
# 1 0.016386 -0.001884 -0.007556 0.000000 0.000000 0.000000
# 2 -0.001884 0.016386 -0.007556 0.000000 0.000000 0.000000
# 3 -0.007556 -0.007556 0.019867 0.000000 0.000000 0.000000
# 4 0.000000 0.000000 0.000000 0.039592 0.000000 0.000000
# 5 0.000000 0.000000 0.000000 0.000000 0.039592 0.000000
# 6 0.000000 0.000000 0.000000 0.000000 0.000000 0.089198
#
#
# Mechanical properties :
#
#
# Convention : Reuss Voigt Hill
#
# Bulk Modulus (GPa) = 53.63711 53.96618 53.80164
# Shear Modulus (GPa) = 19.14022 21.39231 20.26627
#
# Velocity S-wave (km/s) = 3.21832 3.40239 3.31163
# Velocity P-wave (km/s) = 6.54487 6.68119 6.61338
#
# Compressibility (1/GPa) = 0.01864381
#
# Stress axis : x y z
#
# Youngs Moduli (GPa) = 61.02836 61.02836 50.33551
#
# Poissons Ratio (x) = 0.11500 0.38036
# Poissons Ratio (y) = 0.11500 0.38036
# Poissons Ratio (z) = 0.46116 0.46116
#
# Static dielectric constant tensor:
#      x y z
#    x 1.665070 0.000000 0.000000 
#    y 0.000000 1.665070 0.000000 
#    z 0.000000 0.000000 1.604490 
# 
# From -- ./inp_files/10451.got.cif
#   From: 2010.05.17/outbox.cif.g08.bks.cpg/sg132_6_cif.got.tgz:10451.got - 2010.05.20 12:30:18.
