data_PCOD9567531
_publ_section_title
;
Structure prediction by ZEFSAII (Michael W. Deem and Ramdas Pophale) SiO2 
 PCOD9567531
Probable space group: P 42/M C M
;
_chemical_formula_sum "Si O2"
_cell_formula_units_Z 88
_cell_length_a 12.322866
_cell_length_b 12.322866
_cell_length_c 28.614703
_cell_angle_alpha 90.000000
_cell_angle_beta 90.000000
_cell_angle_gamma 90.000000
_cell_volume 4345.229252
_symmetry_space_group_name_H-M "P 42/M C M"
_symmetry_group_IT_number 132
_symmetry_cell_setting 'tetragonal'
loop_
_space_group_symop_operation_xyz
x,y,z
-y,x,1/2+z
-x,-y,z
y,-x,1/2+z
x,-y,1/2-z
-x,y,1/2-z
y,x,-z
-y,-x,-z
-x,-y,-z
y,-x,1/2-z
x,y,-z
-y,x,1/2-z
-x,y,1/2+z
x,-y,1/2+z
-y,-x,z
y,x,z
loop_
_atom_site_type_symbol
_atom_site_label
_atom_site_fract_x
_atom_site_fract_y
_atom_site_fract_z
Si Si1 0.696901 0.024175 0.107370
Si Si2 0.783615 0.394943 0.384683
Si Si3 0.273039 0.095058 0.712942
Si Si4 0.721170 0.548749 0.700748
Si Si5 0.909284 0.909284 0.552081
Si Si6 0.592015 0.224439 0.055037
O O1 0.726984 0.048278 0.160806
O O2 0.807039 0.038331 0.078062
O O3 0.622805 0.119754 0.086091
O O4 0.638157 0.908278 0.106265
O O5 0.713460 0.286541 0.383100
O O6 0.761823 0.460359 0.336426
O O7 0.742509 0.474906 0.425539
O O8 0.164568 0.164568 0.721909
O O9 0.372402 0.179215 0.713583
O O10 0.286159 0.000000 0.750000
O O11 0.683961 0.500000 0.750000
O O12 0.624945 0.624945 0.680754
O O13 0.874229 0.874229 0.500000
O O14 0.000000 0.000000 0.548877
O O15 0.683266 0.316735 0.062628
O O16 0.589496 0.199060 0.000000
#
# Coordination Sequence:
#
# PCOD9567531 Si02
#       6
#    16  16  16  16   8  16
#     4  12  23  45  70  99 140 180 231 287 341 414
#     4  12  27  43  67 103 141 183 229 289 352 410
#     4  11  24  42  66  98 136 177 227 281 345 413
#     4  11  24  43  67  97 135 183 237 286 341 413
#     4  11  24  42  70 102 137 185 233 285 346 410
#     4  11  24  45  74 103 135 183 237 287 346 414
#
# _framework density 20.252095000000001
#
# number of rings (size 3 to 8) (size 9 to 14) (size 15 to 20)
#    0.000    0.636    3.636    3.818    0.000    9.818 
#    0.000    0.909    0.000    0.000    0.000    0.000 
#    0.000    0.000    0.000    0.000    0.000    0.000 
#
# Total GULP energy -492246.412698 kJ/mol
# GULP energy per Si atom -5593.709235 kJ/mol
# Density = 2.020600 g / cm^3
# Si number density = 20.252095 Si / 1000 Ang^3
#
#
#
# Elastic Constant Matrix: (Units=GPa)
#
#
# Indices 1 2 3 4 5 6 
#
# 1 61.1224 47.0056 21.9373 0.0000 0.0000 0.0000
# 2 47.0056 61.1224 21.9373 0.0000 0.0000 0.0000
# 3 21.9373 21.9373 119.2879 0.0000 0.0000 0.0000
# 4 0.0000 0.0000 0.0000 30.9898 0.0000 0.0000
# 5 0.0000 0.0000 0.0000 0.0000 30.9898 0.0000
# 6 0.0000 0.0000 0.0000 0.0000 0.0000 16.1445
#
#
#
# Elastic Compliance Matrix: (Units=1/GPa)
#
#
# Indices 1 2 3 4 5 6 
#
# 1 0.040416 -0.030422 -0.001838 0.000000 0.000000 0.000000
# 2 -0.030422 0.040416 -0.001838 0.000000 0.000000 0.000000
# 3 -0.001838 -0.001838 0.009059 0.000000 0.000000 0.000000
# 4 0.000000 0.000000 0.000000 0.032269 0.000000 0.000000
# 5 0.000000 0.000000 0.000000 0.000000 0.032269 0.000000
# 6 0.000000 0.000000 0.000000 0.000000 0.000000 0.061941
#
#
# Mechanical properties :
#
#
# Convention : Reuss Voigt Hill
#
# Bulk Modulus (GPa) = 46.09255 47.03259 46.56257
# Shear Modulus (GPa) = 17.13529 25.66831 21.40180
#
# Velocity S-wave (km/s) = 2.91193 3.56397 3.25433
# Velocity P-wave (km/s) = 5.84077 6.34113 6.09608
#
# Compressibility (1/GPa) = 0.02169548
#
# Stress axis : x y z
#
# Youngs Moduli (GPa) = 24.74284 24.74284 110.38648
#
# Poissons Ratio (x) = 0.75272 0.20288
# Poissons Ratio (y) = 0.75272 0.20288
# Poissons Ratio (z) = 0.04548 0.04548
#
# Static dielectric constant tensor:
#      x y z
#    x 1.726420 0.000000 0.000000 
#    y 0.000000 1.726420 0.000000 
#    z 0.000000 0.000000 1.713930 
# 
# From -- ./inp_files/10785.got.cif
#   From: 2010.05.17/outbox.cif.g08.bks.cpg/sg132_6_cif.got.tgz:10785.got - 2010.05.20 12:30:18.
