data_PCOD9567845
_publ_section_title
;
Structure prediction by ZEFSAII (Michael W. Deem and Ramdas Pophale) SiO2 
 PCOD9567845
Probable space group: P 42/N B C
;
_chemical_formula_sum "Si O2"
_cell_formula_units_Z 48
_cell_length_a 15.811868
_cell_length_b 15.811868
_cell_length_c 9.799191
_cell_angle_alpha 90.000000
_cell_angle_beta 90.000000
_cell_angle_gamma 90.000000
_cell_volume 2449.946400
_symmetry_space_group_name_H-M "P 42/N B C"
_symmetry_group_IT_number 133
_space_group.IT_coordinate_system_code '2'
_symmetry_cell_setting 'tetragonal'
loop_
_space_group_symop_operation_xyz
x,y,z
1/2-y,x,1/2+z
1/2-x,1/2-y,z
y,1/2-x,1/2+z
x,1/2-y,-z
1/2-x,y,-z
y,x,1/2-z
1/2-y,1/2-x,1/2-z
-x,-y,-z
1/2+y,-x,1/2-z
1/2+x,1/2+y,-z
-y,1/2+x,1/2-z
-x,1/2+y,z
1/2+x,-y,z
-y,-x,1/2+z
1/2+y,1/2+x,1/2+z
loop_
_atom_site_type_symbol
_atom_site_label
_atom_site_fract_x
_atom_site_fract_y
_atom_site_fract_z
Si Si1 0.643115 0.670236 0.095091
Si Si2 0.250000 0.984211 0.500000
Si Si3 0.985101 0.750000 0.500000
Si Si4 0.112572 0.719978 0.250958
O O1 0.675170 0.675170 0.250000
O O2 0.668347 0.750000 0.000000
O O3 0.542523 0.685422 0.087077
O O4 0.675006 0.581380 0.035766
O O5 0.197504 0.931955 0.390818
O O6 0.045580 0.726860 0.373345
O O7 0.155545 0.811261 0.223534
#
# Coordination Sequence:
#
# PCOD9567845 Si02
#       4
#    16   8   8  16
#     4  10  22  40  67 100 131 168 212 268 337 396
#     4  10  22  42  64  94 138 164 218 286 321 385
#     4  12  21  41  70  94 130 176 218 271 331 396
#     4  11  24  43  66  94 132 182 228 268 321 392
#
# _framework density 19.592265000000001
#
# number of rings (size 3 to 8) (size 9 to 14) (size 15 to 20)
#    1.000    0.333    3.333    2.500    0.000    9.333 
#    0.000   10.000    0.000    0.000    0.000    0.000 
#    0.000    0.000    0.000    0.000    0.000    0.000 
#
# Total GULP energy -267400.699910 kJ/mol
# GULP energy per Si atom -5570.847915 kJ/mol
# Density = 1.954767 g / cm^3
# Si number density = 19.592265 Si / 1000 Ang^3
#
#
#
# Elastic Constant Matrix: (Units=GPa)
#
#
# Indices 1 2 3 4 5 6 
#
# 1 96.9098 17.1927 40.7002 0.0000 0.0000 0.0000
# 2 17.1927 96.9098 40.7002 0.0000 0.0000 0.0000
# 3 40.7002 40.7002 159.6383 0.0000 0.0000 0.0000
# 4 0.0000 0.0000 0.0000 22.5554 0.0000 0.0000
# 5 0.0000 0.0000 0.0000 0.0000 22.5554 0.0000
# 6 0.0000 0.0000 0.0000 0.0000 0.0000 16.0581
#
#
#
# Elastic Compliance Matrix: (Units=1/GPa)
#
#
# Indices 1 2 3 4 5 6 
#
# 1 0.011628 -0.000916 -0.002731 0.000000 0.000000 0.000000
# 2 -0.000916 0.011628 -0.002731 0.000000 0.000000 0.000000
# 3 -0.002731 -0.002731 0.007657 0.000000 0.000000 0.000000
# 4 0.000000 0.000000 0.000000 0.044335 0.000000 0.000000
# 5 0.000000 0.000000 0.000000 0.000000 0.044335 0.000000
# 6 0.000000 0.000000 0.000000 0.000000 0.000000 0.062274
#
#
# Mechanical properties :
#
#
# Convention : Reuss Voigt Hill
#
# Bulk Modulus (GPa) = 55.07505 61.18265 58.12885
# Shear Modulus (GPa) = 24.91690 29.22476 27.07083
#
# Velocity S-wave (km/s) = 3.57006 3.86638 3.72117
# Velocity P-wave (km/s) = 6.72052 7.15734 6.94237
#
# Compressibility (1/GPa) = 0.01815704
#
# Stress axis : x y z
#
# Youngs Moduli (GPa) = 85.99631 85.99631 130.60292
#
# Poissons Ratio (x) = 0.07877 0.35670
# Poissons Ratio (y) = 0.07877 0.35670
# Poissons Ratio (z) = 0.23487 0.23487
#
# Static dielectric constant tensor:
#      x y z
#    x 1.719760 0.000000 0.000000 
#    y 0.000000 1.719760 0.000000 
#    z 0.000000 0.000000 1.686120 
# 
# From -- ./inp_files/2686.got.cif
#   From: 2010.05.17/outbox.cif.g08.bks.cpg/sg133_2_cif.got.tgz:2686.got - 2010.05.20 12:37:36.
