data_PCOD9567982
_publ_section_title
;
Structure prediction by ZEFSAII (Michael W. Deem and Ramdas Pophale) SiO2 
 PCOD9567982
Probable space group: P 42/N B C
;
_chemical_formula_sum "Si O2"
_cell_formula_units_Z 112
_cell_length_a 14.621468
_cell_length_b 14.621468
_cell_length_c 23.691936
_cell_angle_alpha 90.000000
_cell_angle_beta 90.000000
_cell_angle_gamma 90.000000
_cell_volume 5065.035656
_symmetry_space_group_name_H-M "P 42/N B C"
_symmetry_group_IT_number 133
_space_group.IT_coordinate_system_code '2'
_symmetry_cell_setting 'tetragonal'
loop_
_space_group_symop_operation_xyz
x,y,z
1/2-y,x,1/2+z
1/2-x,1/2-y,z
y,1/2-x,1/2+z
x,1/2-y,-z
1/2-x,y,-z
y,x,1/2-z
1/2-y,1/2-x,1/2-z
-x,-y,-z
1/2+y,-x,1/2-z
1/2+x,1/2+y,-z
-y,1/2+x,1/2-z
-x,1/2+y,z
1/2+x,-y,z
-y,-x,1/2+z
1/2+y,1/2+x,1/2+z
loop_
_atom_site_type_symbol
_atom_site_label
_atom_site_fract_x
_atom_site_fract_y
_atom_site_fract_z
Si Si1 0.355891 0.400124 0.498874
Si Si2 0.009702 0.149860 0.401158
Si Si3 0.153908 0.811140 0.882747
Si Si4 0.491138 0.554355 0.191912
Si Si5 0.149036 0.016556 0.896615
Si Si6 0.675230 0.372005 0.240215
Si Si7 0.396911 0.827659 0.960550
O O1 0.250000 0.369069 0.500000
O O2 0.406355 0.380080 0.440283
O O3 0.418403 0.360451 0.549095
O O4 0.354737 0.508234 0.511254
O O5 0.025509 0.248320 0.375189
O O6 0.986035 0.081361 0.351480
O O7 0.919186 0.152803 0.441241
O O8 0.250000 0.750000 0.884460
O O9 0.133437 0.851693 0.821037
O O10 0.084357 0.734683 0.905041
O O11 0.143095 0.908713 0.915148
O O12 0.497634 0.497634 0.250000
O O13 0.581453 0.549454 0.153148
O O14 0.456552 0.649133 0.220482
O O15 0.782076 0.359984 0.227386
O O16 0.350706 0.750000 0.000000
#
# Coordination Sequence:
#
# PCOD9567982 Si02
#       7
#    16  16  16  16  16  16  16
#     4  11  27  47  74 100 139 200 253 301 374 455
#     4  12  25  49  70 100 148 188 244 310 375 442
#     4  12  22  41  68 110 145 185 239 304 384 438
#     4  12  27  44  70 111 149 194 245 300 380 447
#     4  12  26  47  74 105 148 196 244 312 374 455
#     4  11  22  40  71 106 146 196 245 304 368 446
#     4  11  24  40  70 111 144 185 235 310 379 451
#
# _framework density 22.112382
#
# number of rings (size 3 to 8) (size 9 to 14) (size 15 to 20)
#    0.000    0.429    5.714    3.429    4.000    1.429 
#    0.000    0.000    0.000    0.000    0.000    0.000 
#    0.000    0.000    0.000    0.000    0.000    0.000 
#
# Total GULP energy -624819.782026 kJ/mol
# GULP energy per Si atom -5578.748054 kJ/mol
# Density = 2.206205 g / cm^3
# Si number density = 22.112382 Si / 1000 Ang^3
#
#
#
# Elastic Constant Matrix: (Units=GPa)
#
#
# Indices 1 2 3 4 5 6 
#
# 1 128.6056 16.1352 27.2332 0.0000 0.0000 0.0000
# 2 16.1352 128.6056 27.2332 0.0000 0.0000 0.0000
# 3 27.2332 27.2332 89.6763 0.0000 0.0000 0.0000
# 4 0.0000 0.0000 0.0000 22.2721 0.0000 0.0000
# 5 0.0000 0.0000 0.0000 0.0000 22.2721 0.0000
# 6 0.0000 0.0000 0.0000 0.0000 0.0000 26.1512
#
#
#
# Elastic Compliance Matrix: (Units=1/GPa)
#
#
# Indices 1 2 3 4 5 6 
#
# 1 0.008346 -0.000545 -0.002369 0.000000 0.000000 0.000000
# 2 -0.000545 0.008346 -0.002369 0.000000 0.000000 0.000000
# 3 -0.002369 -0.002369 0.012590 0.000000 0.000000 0.000000
# 4 0.000000 0.000000 0.000000 0.044899 0.000000 0.000000
# 5 0.000000 0.000000 0.000000 0.000000 0.044899 0.000000
# 6 0.000000 0.000000 0.000000 0.000000 0.000000 0.038239
#
#
# Mechanical properties :
#
#
# Convention : Reuss Voigt Hill
#
# Bulk Modulus (GPa) = 53.43229 54.23229 53.83229
# Shear Modulus (GPa) = 28.71523 32.55815 30.63669
#
# Velocity S-wave (km/s) = 3.60752 3.84134 3.72627
# Velocity P-wave (km/s) = 6.44738 6.65233 6.55066
#
# Compressibility (1/GPa) = 0.01871527
#
# Stress axis : x y z
#
# Youngs Moduli (GPa) = 119.82127 119.82127 79.42837
#
# Poissons Ratio (x) = 0.06536 0.18815
# Poissons Ratio (y) = 0.06536 0.18815
# Poissons Ratio (z) = 0.28384 0.28384
#
# Static dielectric constant tensor:
#      x y z
#    x 1.887850 0.000000 0.000000 
#    y 0.000000 1.887850 0.000000 
#    z 0.000000 0.000000 1.927680 
# 
# From -- ./inp_files/7271.got.cif
#   From: 2010.05.17/outbox.cif.g08.bks.cpg/sg133_4_cif.got.tgz:7271.got - 2010.05.20 12:37:36.
