data_PCOD9567436
_publ_section_title
;
Structure prediction by ZEFSAII (Michael W. Deem and Ramdas Pophale) SiO2 
 PCOD9567436
Probable space group: P 42/M C M
;
_chemical_formula_sum "Si O2"
_cell_formula_units_Z 96
_cell_length_a 23.448702
_cell_length_b 23.448702
_cell_length_c 9.972612
_cell_angle_alpha 90.000000
_cell_angle_beta 90.000000
_cell_angle_gamma 90.000000
_cell_volume 5483.357192
_symmetry_space_group_name_H-M "P 42/M C M"
_symmetry_group_IT_number 132
_symmetry_cell_setting 'tetragonal'
loop_
_space_group_symop_operation_xyz
x,y,z
-y,x,1/2+z
-x,-y,z
y,-x,1/2+z
x,-y,1/2-z
-x,y,1/2-z
y,x,-z
-y,-x,-z
-x,-y,-z
y,-x,1/2-z
x,y,-z
-y,x,1/2-z
-x,y,1/2+z
x,-y,1/2+z
-y,-x,z
y,x,z
loop_
_atom_site_type_symbol
_atom_site_label
_atom_site_fract_x
_atom_site_fract_y
_atom_site_fract_z
Si Si1 0.050268 0.642401 0.346304
Si Si2 0.776687 0.946694 0.842050
Si Si3 0.447962 0.849897 0.341557
Si Si4 0.572233 0.659828 0.000000
Si Si5 0.266448 0.392290 0.252931
Si Si6 0.261840 0.261840 0.336578
Si Si7 0.819734 0.819734 0.839576
Si Si8 0.435971 0.659218 0.000000
O O1 0.030655 0.638546 0.500000
O O2 0.062514 0.708906 0.318361
O O3 0.105835 0.603948 0.332380
O O4 0.000000 0.622781 0.250000
O O5 0.806627 0.886340 0.814786
O O6 0.794709 0.000000 0.750000
O O7 0.784368 0.960234 0.000000
O O8 0.500000 0.870664 0.250000
O O9 0.462707 0.843280 0.500000
O O10 0.427368 0.790318 0.279634
O O11 0.598401 0.693545 0.125230
O O12 0.596540 0.596540 0.000000
O O13 0.504151 0.656447 0.000000
O O14 0.251064 0.327107 0.289271
O O15 0.303424 0.416693 0.373881
O O16 0.257446 0.257446 0.500000
O O17 0.219638 0.219638 0.255806
O O18 0.808369 0.808369 0.000000
O O19 0.400081 0.599920 0.000000
#
# Coordination Sequence:
#
# PCOD9567436 Si02
#       8
#    16  16  16   8  16   8   8   8
#     4   9  19  37  56  79 111 151 193 236 288 343
#     4   9  18  36  59  86 121 160 199 245 294 345
#     4  11  24  38  57  83 112 146 190 239 289 353
#     4  12  24  39  66  90 107 149 195 233 291 361
#     4  12  23  41  59  86 115 150 189 238 300 359
#     4  12  24  40  60  88 126 154 189 248 311 356
#     4  10  22  36  62  97 127 163 208 254 293 346
#     4  12  24  45  62  80 121 149 181 243 295 357
#
# _framework density 17.507522999999999
#
# number of rings (size 3 to 8) (size 9 to 14) (size 15 to 20)
#    0.000    1.333    3.333    2.500    2.333    3.167 
#    0.000    3.333    0.000    2.250    0.000    1.750 
#    0.000    0.000    0.000    0.000    0.000    0.000 
#
# Total GULP energy -535844.821544 kJ/mol
# GULP energy per Si atom -5581.716891 kJ/mol
# Density = 1.746767 g / cm^3
# Si number density = 17.507523 Si / 1000 Ang^3
#
#
#
# Elastic Constant Matrix: (Units=GPa)
#
#
# Indices 1 2 3 4 5 6 
#
# 1 98.4100 57.7902 64.3736 0.0000 0.0000 0.0000
# 2 57.7902 98.4095 64.3731 0.0000 0.0000 0.0000
# 3 64.3736 64.3731 130.4693 0.0000 0.0000 0.0000
# 4 0.0000 0.0000 0.0000 24.6616 0.0000 0.0000
# 5 0.0000 0.0000 0.0000 0.0000 24.6617 0.0000
# 6 0.0000 0.0000 0.0000 0.0000 0.0000 9.1150
#
#
#
# Elastic Compliance Matrix: (Units=1/GPa)
#
#
# Indices 1 2 3 4 5 6 
#
# 1 0.017704 -0.006914 -0.005324 0.000000 0.000000 0.000000
# 2 -0.006914 0.017704 -0.005324 0.000000 0.000000 0.000000
# 3 -0.005324 -0.005324 0.012918 0.000000 0.000000 0.000000
# 4 0.000000 0.000000 0.000000 0.040549 0.000000 0.000000
# 5 0.000000 0.000000 0.000000 0.000000 0.040549 0.000000
# 6 0.000000 0.000000 0.000000 0.000000 0.000000 0.109709
#
#
# Mechanical properties :
#
#
# Convention : Reuss Voigt Hill
#
# Bulk Modulus (GPa) = 75.73951 77.81809 76.77880
# Shear Modulus (GPa) = 17.94309 21.07113 19.50711
#
# Velocity S-wave (km/s) = 3.20485 3.47298 3.34160
# Velocity P-wave (km/s) = 7.55313 7.78633 7.67062
#
# Compressibility (1/GPa) = 0.01320315
#
# Stress axis : x y z
#
# Youngs Moduli (GPa) = 56.48301 56.48302 77.41006
#
# Poissons Ratio (x) = 0.39054 0.41213
# Poissons Ratio (y) = 0.39054 0.41212
# Poissons Ratio (z) = 0.30071 0.30071
#
# Static dielectric constant tensor:
#      x y z
#    x 1.588060 0.000000 0.000000 
#    y 0.000000 1.588060 0.000000 
#    z 0.000000 0.000000 1.580470 
# 
# From -- ./inp_files/1866.got.cif
#   From: 2010.05.17/outbox.cif.g08.bks.cpg/sg132_1_cif.got.tgz:1866.got - 2010.05.20 12:30:18.
