data_PCOD9567899
_publ_section_title
;
Structure prediction by ZEFSAII (Michael W. Deem and Ramdas Pophale) SiO2 
 PCOD9567899
Probable space group: P 42/N B C
;
_chemical_formula_sum "Si O2"
_cell_formula_units_Z 72
_cell_length_a 20.003767
_cell_length_b 20.003767
_cell_length_c 9.081416
_cell_angle_alpha 90.000000
_cell_angle_beta 90.000000
_cell_angle_gamma 90.000000
_cell_volume 3633.934917
_symmetry_space_group_name_H-M "P 42/N B C"
_symmetry_group_IT_number 133
_space_group.IT_coordinate_system_code '2'
_symmetry_cell_setting 'tetragonal'
loop_
_space_group_symop_operation_xyz
x,y,z
1/2-y,x,1/2+z
1/2-x,1/2-y,z
y,1/2-x,1/2+z
x,1/2-y,-z
1/2-x,y,-z
y,x,1/2-z
1/2-y,1/2-x,1/2-z
-x,-y,-z
1/2+y,-x,1/2-z
1/2+x,1/2+y,-z
-y,1/2+x,1/2-z
-x,1/2+y,z
1/2+x,-y,z
-y,-x,1/2+z
1/2+y,1/2+x,1/2+z
loop_
_atom_site_type_symbol
_atom_site_label
_atom_site_fract_x
_atom_site_fract_y
_atom_site_fract_z
Si Si1 0.673316 0.673316 0.750000
Si Si2 0.625537 0.437974 0.909229
Si Si3 0.750000 0.750000 0.000000
Si Si4 0.235500 0.033424 0.176615
Si Si5 0.250000 0.750000 0.250000
Si Si6 0.000752 0.111565 0.716690
Si Si7 0.750000 0.144286 0.000000
O O1 0.705915 0.704701 0.605206
O O2 0.697734 0.597512 0.759610
O O3 0.679749 0.475881 0.806521
O O4 0.563867 0.408306 0.816736
O O5 0.678264 0.391354 0.996189
O O6 0.600072 0.484381 0.043173
O O7 0.309452 0.018053 0.239310
O O8 0.250000 0.041023 0.000000
O O9 0.313034 0.749759 0.353735
O O10 0.063837 0.063837 0.750000
#
# Coordination Sequence:
#
# PCOD9567899 Si02
#       7
#     8  16   4  16   4  16   8
#     4  11  22  42  66  96 134 168 226 271 336 388
#     4  11  23  45  65  93 133 177 215 280 331 402
#     4  10  24  36  68  96 124 174 212 286 320 398
#     4  10  23  44  69  94 134 177 220 275 335 395
#     4  10  24  34  68  98 120 174 208 282 328 398
#     4  11  24  43  68  96 131 175 226 277 336 397
#     4  11  20  41  66  93 134 163 226 270 340 387
#
# _framework density 19.813231999999999
#
# number of rings (size 3 to 8) (size 9 to 14) (size 15 to 20)
#    0.000    1.333    4.444    2.000    4.667    0.000 
#    4.000    0.000    0.000    0.000    0.000    0.000 
#    0.000    0.000    0.000    0.000    0.000    0.000 
#
# Total GULP energy -401282.194389 kJ/mol
# GULP energy per Si atom -5573.363811 kJ/mol
# Density = 1.976814 g / cm^3
# Si number density = 19.813232 Si / 1000 Ang^3
#
#
#
# Elastic Constant Matrix: (Units=GPa)
#
#
# Indices 1 2 3 4 5 6 
#
# 1 86.0770 37.8750 17.5844 0.0000 0.0000 0.0000
# 2 37.8750 86.0770 17.5844 0.0000 0.0000 0.0000
# 3 17.5844 17.5844 49.0997 0.0000 0.0000 0.0000
# 4 0.0000 0.0000 0.0000 71.2460 0.0000 0.0000
# 5 0.0000 0.0000 0.0000 0.0000 71.2460 0.0000
# 6 0.0000 0.0000 0.0000 0.0000 0.0000 34.2888
#
#
#
# Elastic Compliance Matrix: (Units=1/GPa)
#
#
# Indices 1 2 3 4 5 6 
#
# 1 0.014863 -0.005883 -0.003216 0.000000 0.000000 0.000000
# 2 -0.005883 0.014863 -0.003216 0.000000 0.000000 0.000000
# 3 -0.003216 -0.003216 0.022670 0.000000 0.000000 0.000000
# 4 0.000000 0.000000 0.000000 0.014036 0.000000 0.000000
# 5 0.000000 0.000000 0.000000 0.000000 0.014036 0.000000
# 6 0.000000 0.000000 0.000000 0.000000 0.000000 0.029164
#
#
# Mechanical properties :
#
#
# Convention : Reuss Voigt Hill
#
# Bulk Modulus (GPa) = 36.01509 40.81573 38.41541
# Shear Modulus (GPa) = 34.83880 45.23680 40.03780
#
# Velocity S-wave (km/s) = 4.19783 4.78343 4.50016
# Velocity P-wave (km/s) = 6.45852 7.15215 6.81416
#
# Compressibility (1/GPa) = 0.02776614
#
# Stress axis : x y z
#
# Youngs Moduli (GPa) = 67.28075 67.28075 44.11046
#
# Poissons Ratio (x) = 0.39581 0.14186
# Poissons Ratio (y) = 0.39581 0.14186
# Poissons Ratio (z) = 0.21638 0.21638
#
# Static dielectric constant tensor:
#      x y z
#    x 1.567140 0.000000 0.000000 
#    y 0.000000 1.567140 0.000000 
#    z 0.000000 0.000000 1.698080 
# 
# From -- ./inp_files/1755.got.cif
#   From: 2010.05.17/outbox.cif.g08.bks.cpg/sg133_1_cif.got.tgz:1755.got - 2010.05.20 12:37:36.
