data_PCOD9567151
_publ_section_title
;
Structure prediction by ZEFSAII (Michael W. Deem and Ramdas Pophale) SiO2 
 PCOD9567151
Probable space group: P 42/M C M
;
_chemical_formula_sum "Si O2"
_cell_formula_units_Z 96
_cell_length_a 24.480089
_cell_length_b 24.480089
_cell_length_c 8.717251
_cell_angle_alpha 90.000000
_cell_angle_beta 90.000000
_cell_angle_gamma 90.000000
_cell_volume 5224.028479
_symmetry_space_group_name_H-M "P 42/M C M"
_symmetry_group_IT_number 132
_symmetry_cell_setting 'tetragonal'
loop_
_space_group_symop_operation_xyz
x,y,z
-y,x,1/2+z
-x,-y,z
y,-x,1/2+z
x,-y,1/2-z
-x,y,1/2-z
y,x,-z
-y,-x,-z
-x,-y,-z
y,-x,1/2-z
x,y,-z
-y,x,1/2-z
-x,y,1/2+z
x,-y,1/2+z
-y,-x,z
y,x,z
loop_
_atom_site_type_symbol
_atom_site_label
_atom_site_fract_x
_atom_site_fract_y
_atom_site_fract_z
Si Si1 0.152042 0.062688 0.815875
Si Si2 0.247652 0.859703 0.176540
Si Si3 0.088836 0.444652 0.685269
Si Si4 0.953037 0.666741 0.670897
Si Si5 0.442535 0.788388 0.315902
Si Si6 0.238061 0.324904 0.317249
O O1 0.094880 0.094880 0.779583
O O2 0.199535 0.105443 0.757973
O O3 0.154949 0.000000 0.750000
O O4 0.156908 0.058632 0.000000
O O5 0.299239 0.899212 0.170975
O O6 0.278021 0.805245 0.238687
O O7 0.230513 0.850112 0.000000
O O8 0.064435 0.500000 0.750000
O O9 0.090201 0.444545 0.500000
O O10 0.058501 0.391230 0.745606
O O11 0.150280 0.441159 0.748083
O O12 0.971750 0.656397 0.500000
O O13 0.000000 0.700532 0.750000
O O14 0.500000 0.764164 0.250000
O O15 0.445716 0.789378 0.500000
O O16 0.383974 0.764668 0.262275
O O17 0.226132 0.332178 0.500000
O O18 0.296933 0.296933 0.301467
#
# Coordination Sequence:
#
# PCOD9567151 Si02
#       6
#    16  16  16  16  16  16
#     4  11  25  43  63  88 114 140 176 223 276 339
#     4  10  20  38  60  83 112 148 183 221 274 334
#     4  10  19  34  51  70  98 134 181 231 278 331
#     4  10  21  34  50  71 101 136 180 229 271 325
#     4  11  21  34  55  80 111 150 191 236 280 331
#     4  10  20  36  59  86 118 153 189 230 277 332
#
# _framework density 18.376622999999999
#
# number of rings (size 3 to 8) (size 9 to 14) (size 15 to 20)
#    0.000    1.667    1.667    4.500    0.000    6.833 
#    0.000    2.500    0.000    0.000    0.000    0.000 
#    0.000    0.333    0.000    3.500    0.000    1.500 
#
# Total GULP energy -534528.156147 kJ/mol
# GULP energy per Si atom -5568.001627 kJ/mol
# Density = 1.833480 g / cm^3
# Si number density = 18.376623 Si / 1000 Ang^3
#
#
#
# Elastic Constant Matrix: (Units=GPa)
#
#
# Indices 1 2 3 4 5 6 
#
# 1 97.4316 72.2448 41.1793 0.0000 0.0000 0.0000
# 2 72.2448 97.4316 41.1793 0.0000 0.0000 0.0000
# 3 41.1793 41.1793 75.4760 0.0000 0.0000 0.0000
# 4 0.0000 0.0000 0.0000 1.0178 0.0000 0.0000
# 5 0.0000 0.0000 0.0000 0.0000 1.0178 0.0000
# 6 0.0000 0.0000 0.0000 0.0000 0.0000 10.4532
#
#
#
# Elastic Compliance Matrix: (Units=1/GPa)
#
#
# Indices 1 2 3 4 5 6 
#
# 1 0.023860 -0.015843 -0.004374 0.000000 0.000000 0.000000
# 2 -0.015843 0.023860 -0.004374 0.000000 0.000000 0.000000
# 3 -0.004374 -0.004374 0.018022 0.000000 0.000000 0.000000
# 4 0.000000 0.000000 0.000000 0.982511 0.000000 0.000000
# 5 0.000000 0.000000 0.000000 0.000000 0.982511 0.000000
# 6 0.000000 0.000000 0.000000 0.000000 0.000000 0.095665
#
#
# Mechanical properties :
#
#
# Convention : Reuss Voigt Hill
#
# Bulk Modulus (GPa) = 60.38712 64.39400 62.39056
# Shear Modulus (GPa) = 2.29239 10.21348 6.25294
#
# Velocity S-wave (km/s) = 1.11810 2.36007 1.84663
# Velocity P-wave (km/s) = 5.88210 6.52257 6.21059
#
# Compressibility (1/GPa) = 0.01655982
#
# Stress axis : x y z
#
# Youngs Moduli (GPa) = 41.91133 41.91133 55.48817
#
# Poissons Ratio (x) = 0.66402 0.24269
# Poissons Ratio (y) = 0.66402 0.24269
# Poissons Ratio (z) = 0.18331 0.18331
#
# Static dielectric constant tensor:
#      x y z
#    x 1.662060 0.000000 0.000000 
#    y 0.000000 1.662060 0.000000 
#    z 0.000000 0.000000 1.652900 
# 
# From -- ./inp_files/1705.got.cif
#   From: 2010.05.17/outbox.cif.g08.bks.cpg/sg132_1_cif.got.tgz:1705.got - 2010.05.20 12:30:18.
