data_PCOD9567928
_publ_section_title
;
Structure prediction by ZEFSAII (Michael W. Deem and Ramdas Pophale) SiO2 
 PCOD9567928
Probable space group: P 42/N B C
;
_chemical_formula_sum "Si O2"
_cell_formula_units_Z 64
_cell_length_a 9.501777
_cell_length_b 9.501777
_cell_length_c 25.454432
_cell_angle_alpha 90.000000
_cell_angle_beta 90.000000
_cell_angle_gamma 90.000000
_cell_volume 2298.121986
_symmetry_space_group_name_H-M "P 42/N B C"
_symmetry_group_IT_number 133
_space_group.IT_coordinate_system_code '2'
_symmetry_cell_setting 'tetragonal'
loop_
_space_group_symop_operation_xyz
x,y,z
1/2-y,x,1/2+z
1/2-x,1/2-y,z
y,1/2-x,1/2+z
x,1/2-y,-z
1/2-x,y,-z
y,x,1/2-z
1/2-y,1/2-x,1/2-z
-x,-y,-z
1/2+y,-x,1/2-z
1/2+x,1/2+y,-z
-y,1/2+x,1/2-z
-x,1/2+y,z
1/2+x,-y,z
-y,-x,1/2+z
1/2+y,1/2+x,1/2+z
loop_
_atom_site_type_symbol
_atom_site_label
_atom_site_fract_x
_atom_site_fract_y
_atom_site_fract_z
Si Si1 0.501077 0.579111 0.642599
Si Si2 0.250000 0.750000 0.105779
Si Si3 0.034705 0.195081 0.057185
Si Si4 0.845059 0.050323 0.225632
Si Si5 0.750000 0.750000 0.637702
O O1 0.353475 0.658815 0.642773
O O2 0.544175 0.583089 0.580182
O O3 0.422231 0.685276 0.745623
O O4 0.539761 0.431372 0.669334
O O5 0.369889 0.808817 0.067725
O O6 0.120879 0.292181 0.098918
O O7 0.069171 0.250000 0.000000
O O8 0.906972 0.906972 0.250000
O O9 0.686869 0.882478 0.166696
#
# Coordination Sequence:
#
# PCOD9567928 Si02
#       5
#    16   8  16  16   8
#     4  10  27  47  81 116 167 216 286 353 420 514
#     4  12  27  44  82 123 170 214 283 352 425 496
#     4  10  24  47  76 117 169 223 277 339 414 504
#     4  11  29  51  82 117 160 215 282 353 432 514
#     4   8  23  46  79 104 164 228 273 330 423 496
#
# _framework density 27.848822999999999
#
# number of rings (size 3 to 8) (size 9 to 14) (size 15 to 20)
#    1.500    0.250    0.000    0.750   10.500    3.500 
#    4.500    0.000    0.000    0.000    0.000    0.000 
#    0.000    0.000    0.000    0.000    0.000    0.000 
#
# Total GULP energy -356846.273057 kJ/mol
# GULP energy per Si atom -5575.723017 kJ/mol
# Density = 2.778544 g / cm^3
# Si number density = 27.848823 Si / 1000 Ang^3
#
#
#
# Elastic Constant Matrix: (Units=GPa)
#
#
# Indices 1 2 3 4 5 6 
#
# 1 156.6486 18.6058 32.0444 0.0000 0.0000 0.0000
# 2 18.6058 156.6486 32.0444 0.0000 0.0000 0.0000
# 3 32.0444 32.0444 143.5945 0.0000 0.0000 0.0000
# 4 0.0000 0.0000 0.0000 26.7988 0.0000 0.0000
# 5 0.0000 0.0000 0.0000 0.0000 26.7988 0.0000
# 6 0.0000 0.0000 0.0000 0.0000 0.0000 55.4229
#
#
#
# Elastic Compliance Matrix: (Units=1/GPa)
#
#
# Indices 1 2 3 4 5 6 
#
# 1 0.006729 -0.000516 -0.001386 0.000000 0.000000 0.000000
# 2 -0.000516 0.006729 -0.001386 0.000000 0.000000 0.000000
# 3 -0.001386 -0.001386 0.007583 0.000000 0.000000 0.000000
# 4 0.000000 0.000000 0.000000 0.037315 0.000000 0.000000
# 5 0.000000 0.000000 0.000000 0.000000 0.037315 0.000000
# 6 0.000000 0.000000 0.000000 0.000000 0.000000 0.018043
#
#
# Mechanical properties :
#
#
# Convention : Reuss Voigt Hill
#
# Bulk Modulus (GPa) = 69.14225 69.14235 69.14230
# Shear Modulus (GPa) = 39.96443 46.75059 43.35751
#
# Velocity S-wave (km/s) = 3.79231 4.10167 3.95002
# Velocity P-wave (km/s) = 6.63755 6.87846 6.75908
#
# Compressibility (1/GPa) = 0.01446294
#
# Stress axis : x y z
#
# Youngs Moduli (GPa) = 148.61995 148.61995 131.87620
#
# Poissons Ratio (x) = 0.07662 0.18285
# Poissons Ratio (y) = 0.07662 0.18285
# Poissons Ratio (z) = 0.20606 0.20606
#
# Static dielectric constant tensor:
#      x y z
#    x 2.422400 0.000000 0.000000 
#    y 0.000000 2.422400 0.000000 
#    z 0.000000 0.000000 2.377730 
# 
# From -- ./inp_files/7021.got.cif
#   From: 2010.05.17/outbox.cif.g08.bks.cpg/sg133_4_cif.got.tgz:7021.got - 2010.05.20 12:37:36.
