data_PCOD9567532
_publ_section_title
;
Structure prediction by ZEFSAII (Michael W. Deem and Ramdas Pophale) SiO2 
 PCOD9567532
Probable space group: P 42/M C M
;
_chemical_formula_sum "Si O2"
_cell_formula_units_Z 56
_cell_length_a 10.724947
_cell_length_b 10.724947
_cell_length_c 21.778912
_cell_angle_alpha 90.000000
_cell_angle_beta 90.000000
_cell_angle_gamma 90.000000
_cell_volume 2505.108205
_symmetry_space_group_name_H-M "P 42/M C M"
_symmetry_group_IT_number 132
_symmetry_cell_setting 'tetragonal'
loop_
_space_group_symop_operation_xyz
x,y,z
-y,x,1/2+z
-x,-y,z
y,-x,1/2+z
x,-y,1/2-z
-x,y,1/2-z
y,x,-z
-y,-x,-z
-x,-y,-z
y,-x,1/2-z
x,y,-z
-y,x,1/2-z
-x,y,1/2+z
x,-y,1/2+z
-y,-x,z
y,x,z
loop_
_atom_site_type_symbol
_atom_site_label
_atom_site_fract_x
_atom_site_fract_y
_atom_site_fract_z
Si Si1 0.298338 0.505081 0.380892
Si Si2 0.005107 0.208022 0.182145
Si Si3 0.627123 0.076498 0.933556
Si Si4 0.500000 0.288703 0.750000
O O1 0.361742 0.638259 0.397302
O O2 0.414000 0.414000 0.368593
O O3 0.214736 0.428811 0.427320
O O4 0.223619 0.508296 0.315938
O O5 0.900992 0.099009 0.186373
O O6 0.966591 0.290414 0.123936
O O7 0.000000 0.270485 0.250000
O O8 0.137817 0.137817 0.173591
O O9 0.500000 0.000000 0.932927
O O10 0.690837 0.060384 0.000000
O O11 0.379159 0.379159 0.752572
#
# Coordination Sequence:
#
# PCOD9567532 Si02
#       4
#    16  16  16   8
#     4   9  18  34  57  83 111 146 191 243 291 336
#     4   9  20  41  67  92 116 146 195 260 319 368
#     4  11  25  40  54  81 122 163 199 236 288 360
#     4   7  12  26  49  78 108 136 173 225 284 338
#
# _framework density 22.354322
#
# number of rings (size 3 to 8) (size 9 to 14) (size 15 to 20)
#    0.000    2.714    0.000    3.429    0.000    7.429 
#    0.000   11.429    0.000    0.000    0.000    0.000 
#    0.000    0.000    0.000    0.000    0.000    0.000 
#
# Total GULP energy -311918.958515 kJ/mol
# GULP energy per Si atom -5569.981402 kJ/mol
# Density = 2.230344 g / cm^3
# Si number density = 22.354322 Si / 1000 Ang^3
#
#
#
# Elastic Constant Matrix: (Units=GPa)
#
#
# Indices 1 2 3 4 5 6 
#
# 1 50.3482 22.2649 51.2872 0.0000 0.0000 0.0000
# 2 22.2649 50.3482 51.2872 0.0000 0.0000 0.0000
# 3 51.2872 51.2872 202.2786 0.0000 0.0000 0.0000
# 4 0.0000 0.0000 0.0000 32.5900 0.0000 0.0000
# 5 0.0000 0.0000 0.0000 0.0000 32.5900 0.0000
# 6 0.0000 0.0000 0.0000 0.0000 0.0000 20.3810
#
#
#
# Elastic Compliance Matrix: (Units=1/GPa)
#
#
# Indices 1 2 3 4 5 6 
#
# 1 0.028533 -0.007076 -0.005440 0.000000 0.000000 0.000000
# 2 -0.007076 0.028533 -0.005440 0.000000 0.000000 0.000000
# 3 -0.005440 -0.005440 0.007702 0.000000 0.000000 0.000000
# 4 0.000000 0.000000 0.000000 0.030684 0.000000 0.000000
# 5 0.000000 0.000000 0.000000 0.000000 0.030684 0.000000
# 6 0.000000 0.000000 0.000000 0.000000 0.000000 0.049065
#
#
# Mechanical properties :
#
#
# Convention : Reuss Voigt Hill
#
# Bulk Modulus (GPa) = 34.65651 61.40596 48.03123
# Shear Modulus (GPa) = 22.65188 28.98792 25.81990
#
# Velocity S-wave (km/s) = 3.18671 3.60495 3.40226
# Velocity P-wave (km/s) = 5.39232 6.69750 6.08003
#
# Compressibility (1/GPa) = 0.02885461
#
# Stress axis : x y z
#
# Youngs Moduli (GPa) = 35.04774 35.04774 129.82941
#
# Poissons Ratio (x) = 0.24799 0.70631
# Poissons Ratio (y) = 0.24799 0.70631
# Poissons Ratio (z) = 0.19067 0.19067
#
# Static dielectric constant tensor:
#      x y z
#    x 2.329620 0.000000 0.000000 
#    y 0.000000 2.329620 0.000000 
#    z 0.000000 0.000000 1.912610 
# 
# From -- ./inp_files/7445.got.cif
#   From: 2010.05.17/outbox.cif.g08.bks.cpg/sg132_4_cif.got.tgz:7445.got - 2010.05.20 12:30:18.
