data_PCOD9567299
_publ_section_title
;
Structure prediction by ZEFSAII (Michael W. Deem and Ramdas Pophale) SiO2 
 PCOD9567299
Probable space group: P 42/M C M
;
_chemical_formula_sum "Si O2"
_cell_formula_units_Z 96
_cell_length_a 24.842285
_cell_length_b 24.842285
_cell_length_c 8.544801
_cell_angle_alpha 90.000000
_cell_angle_beta 90.000000
_cell_angle_gamma 90.000000
_cell_volume 5273.331004
_symmetry_space_group_name_H-M "P 42/M C M"
_symmetry_group_IT_number 132
_symmetry_cell_setting 'tetragonal'
loop_
_space_group_symop_operation_xyz
x,y,z
-y,x,1/2+z
-x,-y,z
y,-x,1/2+z
x,-y,1/2-z
-x,y,1/2-z
y,x,-z
-y,-x,-z
-x,-y,-z
y,-x,1/2-z
x,y,-z
-y,x,1/2-z
-x,y,1/2+z
x,-y,1/2+z
-y,-x,z
y,x,z
loop_
_atom_site_type_symbol
_atom_site_label
_atom_site_fract_x
_atom_site_fract_y
_atom_site_fract_z
Si Si1 0.939429 0.852092 0.688847
Si Si2 0.359018 0.145513 0.687853
Si Si3 0.235052 0.148081 0.309355
Si Si4 0.558695 0.768259 0.812009
Si Si5 0.442209 0.356254 0.188485
Si Si6 0.939495 0.557492 0.813403
O O1 0.940852 0.851965 0.500000
O O2 0.904451 0.904451 0.737485
O O3 0.904187 0.799947 0.738100
O O4 0.000000 0.852013 0.750000
O O5 0.359091 0.142719 0.500000
O O6 0.296933 0.147159 0.742502
O O7 0.393193 0.196879 0.742701
O O8 0.392715 0.095521 0.754556
O O9 0.235477 0.148433 0.500000
O O10 0.200594 0.200594 0.260282
O O11 0.500000 0.785774 0.750000
O O12 0.565391 0.705841 0.764788
O O13 0.558913 0.772633 0.000000
O O14 0.500000 0.374685 0.250000
O O15 0.394735 0.394735 0.244568
O O16 0.443085 0.357359 0.000000
O O17 0.918296 0.500000 0.750000
O O18 0.000000 0.562681 0.750000
O O19 0.939585 0.555463 0.000000
#
# Coordination Sequence:
#
# PCOD9567299 Si02
#       6
#    16  16  16  16  16  16
#     4   9  18  34  55  78 106 139 173 210 252 296
#     4  11  21  34  55  81 106 136 176 217 260 313
#     4   8  17  35  55  75 103 139 176 215 258 304
#     4  10  20  35  53  74 102 135 172 215 262 310
#     4   9  19  35  53  74 102 135 170 212 263 317
#     4  11  22  38  57  79 109 141 175 215 262 311
#
# _framework density 18.204813000000001
#
# number of rings (size 3 to 8) (size 9 to 14) (size 15 to 20)
#    0.000    2.333    0.000    4.500    0.000    3.000 
#    0.000    5.000    0.000    3.500    0.000    0.000 
#    0.000    0.000    0.000    0.000    0.000    0.000 
#
# Total GULP energy -535731.049660 kJ/mol
# GULP energy per Si atom -5580.531767 kJ/mol
# Density = 1.816338 g / cm^3
# Si number density = 18.204813 Si / 1000 Ang^3
#
#
#
# Elastic Constant Matrix: (Units=GPa)
#
#
# Indices 1 2 3 4 5 6 
#
# 1 171.8713 104.3509 34.8647 0.0000 0.0000 0.0000
# 2 104.3509 171.8713 34.8647 0.0000 0.0000 0.0000
# 3 34.8647 34.8647 53.1058 0.0000 0.0000 0.0000
# 4 0.0000 0.0000 0.0000 24.6323 0.0000 0.0000
# 5 0.0000 0.0000 0.0000 0.0000 24.6323 0.0000
# 6 0.0000 0.0000 0.0000 0.0000 0.0000 27.5850
#
#
#
# Elastic Compliance Matrix: (Units=1/GPa)
#
#
# Indices 1 2 3 4 5 6 
#
# 1 0.009575 -0.005235 -0.002849 0.000000 0.000000 0.000000
# 2 -0.005235 0.009575 -0.002849 0.000000 0.000000 0.000000
# 3 -0.002849 -0.002849 0.022571 0.000000 0.000000 0.000000
# 4 0.000000 0.000000 0.000000 0.040597 0.000000 0.000000
# 5 0.000000 0.000000 0.000000 0.000000 0.040597 0.000000
# 6 0.000000 0.000000 0.000000 0.000000 0.000000 0.036252
#
#
# Mechanical properties :
#
#
# Convention : Reuss Voigt Hill
#
# Bulk Modulus (GPa) = 50.36695 82.77877 66.57286
# Shear Modulus (GPa) = 26.64518 30.22113 28.43316
#
# Velocity S-wave (km/s) = 3.82990 4.07881 3.95631
# Velocity P-wave (km/s) = 6.87636 8.23115 7.58407
#
# Compressibility (1/GPa) = 0.01985429
#
# Stress axis : x y z
#
# Youngs Moduli (GPa) = 104.43976 104.43976 44.30457
#
# Poissons Ratio (x) = 0.54679 0.12622
# Poissons Ratio (y) = 0.54679 0.12622
# Poissons Ratio (z) = 0.29754 0.29754
#
# Static dielectric constant tensor:
#      x y z
#    x 1.618770 0.000000 0.000000 
#    y 0.000000 1.618770 0.000000 
#    z 0.000000 0.000000 1.619210 
# 
# From -- ./inp_files/1726.got.cif
#   From: 2010.05.17/outbox.cif.g08.bks.cpg/sg132_1_cif.got.tgz:1726.got - 2010.05.20 12:30:18.
