data_PCOD9567016
_publ_section_title
;
Structure prediction by ZEFSAII (Michael W. Deem and Ramdas Pophale) SiO2 
 PCOD9567016
Probable space group: P 42/M C M
;
_chemical_formula_sum "Si O2"
_cell_formula_units_Z 80
_cell_length_a 12.084442
_cell_length_b 12.084442
_cell_length_c 29.162919
_cell_angle_alpha 90.000000
_cell_angle_beta 90.000000
_cell_angle_gamma 90.000000
_cell_volume 4258.770086
_symmetry_space_group_name_H-M "P 42/M C M"
_symmetry_group_IT_number 132
_symmetry_cell_setting 'tetragonal'
loop_
_space_group_symop_operation_xyz
x,y,z
-y,x,1/2+z
-x,-y,z
y,-x,1/2+z
x,-y,1/2-z
-x,y,1/2-z
y,x,-z
-y,-x,-z
-x,-y,-z
y,-x,1/2-z
x,y,-z
-y,x,1/2-z
-x,y,1/2+z
x,-y,1/2+z
-y,-x,z
y,x,z
loop_
_atom_site_type_symbol
_atom_site_label
_atom_site_fract_x
_atom_site_fract_y
_atom_site_fract_z
Si Si1 0.915048 0.084953 0.842826
Si Si2 0.079337 0.734489 0.448618
Si Si3 0.268019 0.547932 0.198418
Si Si4 0.644051 0.824369 0.143226
Si Si5 0.320999 0.962439 0.198469
Si Si6 0.114011 0.885990 0.947301
O O1 0.943249 0.207240 0.827650
O O2 0.923376 0.076625 0.897268
O O3 0.000000 0.000000 0.820805
O O4 0.099666 0.691138 0.500000
O O5 0.149015 0.850986 0.445258
O O6 0.130361 0.658379 0.408678
O O7 0.948295 0.765010 0.445139
O O8 0.283196 0.500000 0.250000
O O9 0.366500 0.633501 0.189125
O O10 0.256988 0.453578 0.159502
O O11 0.151139 0.612143 0.198487
O O12 0.758790 0.758790 0.153839
O O13 0.624985 0.932991 0.173652
O O14 0.299423 0.000000 0.250000
O O15 0.082679 0.917322 0.000000
#
# Coordination Sequence:
#
# PCOD9567016 Si02
#       6
#     8  16  16  16  16   8
#     4  12  24  35  58  92 129 163 198 244 296 364
#     4   9  17  31  54  86 122 159 200 251 306 363
#     4  12  26  44  63  86 115 162 210 256 302 362
#     4  11  23  39  63  91 121 157 206 255 306 362
#     4  12  25  40  58  86 126 166 199 237 304 377
#     4  10  18  31  54  88 128 165 204 250 300 360
#
# _framework density 18.784766999999999
#
# number of rings (size 3 to 8) (size 9 to 14) (size 15 to 20)
#    0.000    1.000    5.000    2.700    2.800    3.600 
#    0.000    0.000    0.000    4.200    0.000    2.800 
#    0.000    0.000    0.000    0.000    0.000    0.000 
#
# Total GULP energy -445350.630407 kJ/mol
# GULP energy per Si atom -5566.882880 kJ/mol
# Density = 1.874201 g / cm^3
# Si number density = 18.784767 Si / 1000 Ang^3
#
#
#
# Elastic Constant Matrix: (Units=GPa)
#
#
# Indices 1 2 3 4 5 6 
#
# 1 151.1612 -21.1229 45.7948 0.0000 0.0000 0.0000
# 2 -21.1229 151.1607 45.7948 0.0000 0.0000 0.0000
# 3 45.7948 45.7948 153.8895 0.0000 0.0000 0.0000
# 4 0.0000 0.0000 0.0000 3.1597 0.0000 0.0000
# 5 0.0000 0.0000 0.0000 0.0000 3.1599 0.0000
# 6 0.0000 0.0000 0.0000 0.0000 0.0000 39.8917
#
#
#
# Elastic Compliance Matrix: (Units=1/GPa)
#
#
# Indices 1 2 3 4 5 6 
#
# 1 0.007767 0.001962 -0.002895 0.000000 0.000000 0.000000
# 2 0.001962 0.007767 -0.002895 0.000000 0.000000 0.000000
# 3 -0.002895 -0.002895 0.008221 0.000000 0.000000 0.000000
# 4 0.000000 0.000000 0.000000 0.316484 0.000000 0.000000
# 5 0.000000 0.000000 0.000000 0.000000 0.316471 0.000000
# 6 0.000000 0.000000 0.000000 0.000000 0.000000 0.025068
#
#
# Mechanical properties :
#
#
# Convention : Reuss Voigt Hill
#
# Bulk Modulus (GPa) = 62.11631 66.34942 64.23286
# Shear Modulus (GPa) = 7.19632 34.95858 21.07745
#
# Velocity S-wave (km/s) = 1.95940 4.31862 3.35334
# Velocity P-wave (km/s) = 6.18532 7.76304 7.01865
#
# Compressibility (1/GPa) = 0.01609883
#
# Stress axis : x y z
#
# Youngs Moduli (GPa) = 128.75301 128.75257 121.63491
#
# Poissons Ratio (x) = -0.25267 0.35216
# Poissons Ratio (y) = -0.25267 0.35216
# Poissons Ratio (z) = 0.37277 0.37277
#
# Static dielectric constant tensor:
#      x y z
#    x 1.700660 0.000000 0.000000 
#    y 0.000000 1.700660 0.000000 
#    z 0.000000 0.000000 1.641390 
# 
# From -- ./inp_files/10668.got.cif
#   From: 2010.05.17/outbox.cif.g08.bks.cpg/sg132_6_cif.got.tgz:10668.got - 2010.05.20 12:30:18.
