data_PCOD9567712
_publ_section_title
;
Structure prediction by ZEFSAII (Michael W. Deem and Ramdas Pophale) SiO2 
 PCOD9567712
Probable space group: P 42/N B C
;
_chemical_formula_sum "Si O2"
_cell_formula_units_Z 48
_cell_length_a 17.303662
_cell_length_b 17.303662
_cell_length_c 7.745987
_cell_angle_alpha 90.000000
_cell_angle_beta 90.000000
_cell_angle_gamma 90.000000
_cell_volume 2319.278010
_symmetry_space_group_name_H-M "P 42/N B C"
_symmetry_group_IT_number 133
_space_group.IT_coordinate_system_code '2'
_symmetry_cell_setting 'tetragonal'
loop_
_space_group_symop_operation_xyz
x,y,z
1/2-y,x,1/2+z
1/2-x,1/2-y,z
y,1/2-x,1/2+z
x,1/2-y,-z
1/2-x,y,-z
y,x,1/2-z
1/2-y,1/2-x,1/2-z
-x,-y,-z
1/2+y,-x,1/2-z
1/2+x,1/2+y,-z
-y,1/2+x,1/2-z
-x,1/2+y,z
1/2+x,-y,z
-y,-x,1/2+z
1/2+y,1/2+x,1/2+z
loop_
_atom_site_type_symbol
_atom_site_label
_atom_site_fract_x
_atom_site_fract_y
_atom_site_fract_z
Si Si1 0.207879 0.083862 0.822990
Si Si2 0.640172 0.982015 0.324808
Si Si3 0.595106 0.030552 0.710534
O O1 0.151615 0.151615 0.750000
O O2 0.275506 0.053450 0.699350
O O3 0.155682 0.006468 0.844798
O O4 0.250000 0.107622 0.000000
O O5 0.586144 0.913857 0.250000
O O6 0.623038 0.004669 0.522384
O O7 0.616894 0.062526 0.228339
O O8 0.519582 0.980419 0.750000
#
# Coordination Sequence:
#
# PCOD9567712 Si02
#       3
#    16  16  16
#     4  11  23  40  59  87 123 161 199 246 304 361
#     4  11  20  36  58  83 115 155 202 251 297 354
#     4  10  20  36  58  83 110 155 206 249 292 349
#
# _framework density 20.696095
#
# number of rings (size 3 to 8) (size 9 to 14) (size 15 to 20)
#    0.000    1.333    0.000   11.000    0.000    0.667 
#    0.000    6.667    0.000    1.000    0.000    7.000 
#    0.000    0.000    0.000    0.000    0.000    0.000 
#
# Total GULP energy -267378.339171 kJ/mol
# GULP energy per Si atom -5570.382066 kJ/mol
# Density = 2.064899 g / cm^3
# Si number density = 20.696095 Si / 1000 Ang^3
#
#
#
# Elastic Constant Matrix: (Units=GPa)
#
#
# Indices 1 2 3 4 5 6 
#
# 1 84.4188 96.9794 41.8902 0.0000 0.0000 0.0000
# 2 96.9794 84.4204 41.8932 0.0000 0.0000 0.0000
# 3 41.8902 41.8932 121.7689 0.0000 0.0000 0.0000
# 4 0.0000 0.0000 0.0000 26.2393 0.0000 0.0000
# 5 0.0000 0.0000 0.0000 0.0000 26.2385 0.0000
# 6 0.0000 0.0000 0.0000 0.0000 0.0000 38.3521
#
#
#
# Elastic Compliance Matrix: (Units=1/GPa)
#
#
# Indices 1 2 3 4 5 6 
#
# 1 -0.036532 0.043087 -0.002256 0.000000 0.000000 0.000000
# 2 0.043087 -0.036533 -0.002254 0.000000 0.000000 0.000000
# 3 -0.002256 -0.002254 0.009764 0.000000 0.000000 0.000000
# 4 0.000000 0.000000 0.000000 0.038111 0.000000 0.000000
# 5 0.000000 0.000000 0.000000 0.000000 0.038112 0.000000
# 6 0.000000 0.000000 0.000000 0.000000 0.000000 0.026074
#
#
# Mechanical properties :
#
#
# Convention : Reuss Voigt Hill
#
# Bulk Modulus (GPa) = 72.18759 72.45927 72.32343
# Shear Modulus (GPa) = -149.07039 25.48902 -61.79068
#
# Velocity S-wave (km/s) = -8.49615 3.51320 -5.47001
# Velocity P-wave (km/s) = 7.82883 7.17941 2.20757
#
# Compressibility (1/GPa) = 0.01385280
#
# Stress axis : x y z
#
# Youngs Moduli (GPa) = -27.37293 -27.37277 102.42027
#
# Poissons Ratio (x) = 1.17940 0.23104
# Poissons Ratio (y) = 1.17941 0.23083
# Poissons Ratio (z) = -0.06175 -0.06169
#
# Static dielectric constant tensor:
#      x y z
#    x 1.849690 0.000000 0.000000 
#    y 0.000000 1.849700 0.000000 
#    z 0.000000 0.000000 1.874110 
# 
# From -- ./inp_files/1070.got.cif
#   From: 2010.05.17/outbox.cif.g08.bks.cpg/sg133_1_cif.got.tgz:1070.got - 2010.05.20 12:37:36.
