data_PCOD9567094
_publ_section_title
;
Structure prediction by ZEFSAII (Michael W. Deem and Ramdas Pophale) SiO2 
 PCOD9567094
Probable space group: P 42/M C M
;
_chemical_formula_sum "Si O2"
_cell_formula_units_Z 80
_cell_length_a 13.942282
_cell_length_b 13.942282
_cell_length_c 25.457571
_cell_angle_alpha 90.000000
_cell_angle_beta 90.000000
_cell_angle_gamma 90.000000
_cell_volume 4948.626642
_symmetry_space_group_name_H-M "P 42/M C M"
_symmetry_group_IT_number 132
_symmetry_cell_setting 'tetragonal'
loop_
_space_group_symop_operation_xyz
x,y,z
-y,x,1/2+z
-x,-y,z
y,-x,1/2+z
x,-y,1/2-z
-x,y,1/2-z
y,x,-z
-y,-x,-z
-x,-y,-z
y,-x,1/2-z
x,y,-z
-y,x,1/2-z
-x,y,1/2+z
x,-y,1/2+z
-y,-x,z
y,x,z
loop_
_atom_site_type_symbol
_atom_site_label
_atom_site_fract_x
_atom_site_fract_y
_atom_site_fract_z
Si Si1 0.896291 0.450880 0.937795
Si Si2 0.900234 0.746594 0.153070
Si Si3 0.609441 0.116341 0.251191
Si Si4 0.205286 0.356702 0.938329
Si Si5 0.281440 0.877275 0.854701
O O1 0.815808 0.532103 0.926986
O O2 0.881561 0.359636 0.901123
O O3 0.000000 0.500000 0.926168
O O4 0.895309 0.427698 0.000000
O O5 0.845769 0.845769 0.162590
O O6 0.863769 0.670032 0.196461
O O7 0.866773 0.704509 0.097253
O O8 0.014255 0.755431 0.154210
O O9 0.500000 0.151540 0.250000
O O10 0.664758 0.149876 0.199389
O O11 0.604978 0.000000 0.250000
O O12 0.310333 0.310333 0.928905
O O13 0.183420 0.343924 0.000000
O O14 0.196616 0.803385 0.865758
#
# Coordination Sequence:
#
# PCOD9567094 Si02
#       5
#    16  16  16  16  16
#     4  10  19  33  54  76 102 137 174 218 269 313
#     4  10  19  32  49  71 105 143 177 209 256 313
#     4   9  18  31  51  73  96 130 172 220 260 296
#     4   9  17  30  52  79 100 125 169 219 261 308
#     4  11  22  33  49  76 108 138 175 216 258 312
#
# _framework density 16.1661
#
# number of rings (size 3 to 8) (size 9 to 14) (size 15 to 20)
#    0.000    2.200    2.000    1.800    2.800    0.800 
#    0.000    0.000    0.000    4.200    0.000    7.000 
#    0.000    5.200    0.000    0.000    0.000    0.000 
#
# Total GULP energy -445833.127710 kJ/mol
# GULP energy per Si atom -5572.914096 kJ/mol
# Density = 1.612931 g / cm^3
# Si number density = 16.166100 Si / 1000 Ang^3
#
#
#
# Elastic Constant Matrix: (Units=GPa)
#
#
# Indices 1 2 3 4 5 6 
#
# 1 101.7611 72.0868 49.9185 0.0000 0.0000 0.0000
# 2 72.0868 101.7611 49.9185 0.0000 0.0000 0.0000
# 3 49.9185 49.9185 62.5850 0.0000 0.0000 0.0000
# 4 0.0000 0.0000 0.0000 14.9887 0.0000 0.0000
# 5 0.0000 0.0000 0.0000 0.0000 14.9887 0.0000
# 6 0.0000 0.0000 0.0000 0.0000 0.0000 21.2914
#
#
#
# Elastic Compliance Matrix: (Units=1/GPa)
#
#
# Indices 1 2 3 4 5 6 
#
# 1 0.022157 -0.011543 -0.008466 0.000000 0.000000 0.000000
# 2 -0.011543 0.022157 -0.008466 0.000000 0.000000 0.000000
# 3 -0.008466 -0.008466 0.029483 0.000000 0.000000 0.000000
# 4 0.000000 0.000000 0.000000 0.066717 0.000000 0.000000
# 5 0.000000 0.000000 0.000000 0.000000 0.066717 0.000000
# 6 0.000000 0.000000 0.000000 0.000000 0.000000 0.046967
#
#
# Mechanical properties :
#
#
# Convention : Reuss Voigt Hill
#
# Bulk Modulus (GPa) = 59.35497 67.77273 63.56385
# Shear Modulus (GPa) = 15.78475 16.53265 16.15870
#
# Velocity S-wave (km/s) = 3.12815 3.20140 3.16498
# Velocity P-wave (km/s) = 7.05992 7.46184 7.26366
#
# Compressibility (1/GPa) = 0.01684779
#
# Stress axis : x y z
#
# Youngs Moduli (GPa) = 45.13345 45.13345 33.91789
#
# Poissons Ratio (x) = 0.52096 0.28714
# Poissons Ratio (y) = 0.52096 0.28714
# Poissons Ratio (z) = 0.38209 0.38209
#
# Static dielectric constant tensor:
#      x y z
#    x 1.540270 0.000000 0.000000 
#    y 0.000000 1.540270 0.000000 
#    z 0.000000 0.000000 1.554970 
# 
# From -- ./inp_files/7627.got.cif
#   From: 2010.05.17/outbox.cif.g08.bks.cpg/sg132_4_cif.got.tgz:7627.got - 2010.05.20 12:30:18.
