data_PCOD9567829
_publ_section_title
;
Structure prediction by ZEFSAII (Michael W. Deem and Ramdas Pophale) SiO2 
 PCOD9567829
Probable space group: P 42/N B C
;
_chemical_formula_sum "Si O2"
_cell_formula_units_Z 40
_cell_length_a 19.267949
_cell_length_b 19.267949
_cell_length_c 5.074153
_cell_angle_alpha 90.000000
_cell_angle_beta 90.000000
_cell_angle_gamma 90.000000
_cell_volume 1883.798881
_symmetry_space_group_name_H-M "P 42/N B C"
_symmetry_group_IT_number 133
_space_group.IT_coordinate_system_code '2'
_symmetry_cell_setting 'tetragonal'
loop_
_space_group_symop_operation_xyz
x,y,z
1/2-y,x,1/2+z
1/2-x,1/2-y,z
y,1/2-x,1/2+z
x,1/2-y,-z
1/2-x,y,-z
y,x,1/2-z
1/2-y,1/2-x,1/2-z
-x,-y,-z
1/2+y,-x,1/2-z
1/2+x,1/2+y,-z
-y,1/2+x,1/2-z
-x,1/2+y,z
1/2+x,-y,z
-y,-x,1/2+z
1/2+y,1/2+x,1/2+z
loop_
_atom_site_type_symbol
_atom_site_label
_atom_site_fract_x
_atom_site_fract_y
_atom_site_fract_z
Si Si1 0.888030 0.888030 0.750000
Si Si2 0.100663 0.537392 0.012580
Si Si3 0.250000 0.067243 0.500000
Si Si4 0.250000 0.531845 0.000000
O O1 0.818760 0.890383 0.574419
O O2 0.957550 0.891186 0.573611
O O3 0.048627 0.573644 0.806638
O O4 0.177027 0.570430 0.969292
O O5 0.262200 0.017043 0.252373
#
# Coordination Sequence:
#
# PCOD9567829 Si02
#       4
#     8  16   8   8
#     4  10  22  40  62  95 124 162 210 249 306 352
#     4  11  22  37  64  91 119 155 201 255 299 363
#     4  10  22  38  62  83 126 167 200 254 296 361
#     4  10  22  40  58  90 126 158 192 248 326 360
#
# _framework density 21.233689999999999
#
# number of rings (size 3 to 8) (size 9 to 14) (size 15 to 20)
#    0.000    1.600    0.000    6.000    0.000   12.800 
#    0.000    0.000    0.000   80.400    0.000    0.000 
#    0.000    0.000    0.000    0.000    0.000    0.000 
#
# Total GULP energy -223689.596500 kJ/mol
# GULP energy per Si atom -5592.239913 kJ/mol
# Density = 2.118536 g / cm^3
# Si number density = 21.233690 Si / 1000 Ang^3
#
#
#
# Elastic Constant Matrix: (Units=GPa)
#
#
# Indices 1 2 3 4 5 6 
#
# 1 99.1012 9.5368 8.1820 0.0000 0.0000 0.0000
# 2 9.5368 99.1012 8.1820 0.0000 0.0000 0.0000
# 3 8.1820 8.1820 108.7919 0.0000 0.0000 0.0000
# 4 0.0000 0.0000 0.0000 29.7865 0.0000 0.0000
# 5 0.0000 0.0000 0.0000 0.0000 29.7865 0.0000
# 6 0.0000 0.0000 0.0000 0.0000 0.0000 0.7174
#
#
#
# Elastic Compliance Matrix: (Units=1/GPa)
#
#
# Indices 1 2 3 4 5 6 
#
# 1 0.010238 -0.000927 -0.000700 0.000000 0.000000 0.000000
# 2 -0.000927 0.010238 -0.000700 0.000000 0.000000 0.000000
# 3 -0.000700 -0.000700 0.009297 0.000000 0.000000 0.000000
# 4 0.000000 0.000000 0.000000 0.033572 0.000000 0.000000
# 5 0.000000 0.000000 0.000000 0.000000 0.033572 0.000000
# 6 0.000000 0.000000 0.000000 0.000000 0.000000 1.393858
#
#
# Mechanical properties :
#
#
# Convention : Reuss Voigt Hill
#
# Bulk Modulus (GPa) = 39.81359 39.86620 39.83990
# Shear Modulus (GPa) = 3.32490 30.79768 17.06129
#
# Velocity S-wave (km/s) = 1.25270 3.81256 2.83768
# Velocity P-wave (km/s) = 4.56982 6.18034 5.43506
#
# Compressibility (1/GPa) = 0.02511705
#
# Stress axis : x y z
#
# Youngs Moduli (GPa) = 97.67772 97.67772 107.55942
#
# Poissons Ratio (x) = 0.09059 0.07531
# Poissons Ratio (y) = 0.09059 0.07531
# Poissons Ratio (z) = 0.06839 0.06839
#
# Static dielectric constant tensor:
#      x y z
#    x 1.820710 0.000000 0.000000 
#    y 0.000000 1.820710 0.000000 
#    z 0.000000 0.000000 1.578300 
# 
# From -- ./inp_files/136.got.cif
#   From: 2010.05.17/outbox.cif.g08.bks.cpg/sg133_1_cif.got.tgz:136.got - 2010.05.20 12:37:36.
