data_PCOD9567939
_publ_section_title
;
Structure prediction by ZEFSAII (Michael W. Deem and Ramdas Pophale) SiO2 
 PCOD9567939
Probable space group: P 42/N B C
;
_chemical_formula_sum "Si O2"
_cell_formula_units_Z 68
_cell_length_a 17.196178
_cell_length_b 17.196178
_cell_length_c 9.080337
_cell_angle_alpha 90.000000
_cell_angle_beta 90.000000
_cell_angle_gamma 90.000000
_cell_volume 2685.133177
_symmetry_space_group_name_H-M "P 42/N B C"
_symmetry_group_IT_number 133
_space_group.IT_coordinate_system_code '2'
_symmetry_cell_setting 'tetragonal'
loop_
_space_group_symop_operation_xyz
x,y,z
1/2-y,x,1/2+z
1/2-x,1/2-y,z
y,1/2-x,1/2+z
x,1/2-y,-z
1/2-x,y,-z
y,x,1/2-z
1/2-y,1/2-x,1/2-z
-x,-y,-z
1/2+y,-x,1/2-z
1/2+x,1/2+y,-z
-y,1/2+x,1/2-z
-x,1/2+y,z
1/2+x,-y,z
-y,-x,1/2+z
1/2+y,1/2+x,1/2+z
loop_
_atom_site_type_symbol
_atom_site_label
_atom_site_fract_x
_atom_site_fract_y
_atom_site_fract_z
Si Si1 0.025356 0.253531 0.328570
Si Si2 0.611622 0.176499 0.184966
Si Si3 0.445964 0.923125 0.078143
Si Si4 0.896976 0.603025 0.250000
Si Si5 0.077718 0.077718 0.750000
Si Si6 0.250000 0.750000 0.500000
O O1 0.087840 0.184452 0.326284
O O2 0.065970 0.329807 0.260544
O O3 0.947949 0.253387 0.225235
O O4 0.930537 0.387186 0.080680
O O5 0.501230 0.250000 0.500000
O O6 0.612509 0.128297 0.335204
O O7 0.703157 0.309225 0.392665
O O8 0.528395 0.898856 0.143995
O O9 0.442722 0.015347 0.118416
#
# Coordination Sequence:
#
# PCOD9567939 Si02
#       6
#    16  16  16   8   8   4
#     4  11  27  50  82 115 160 208 273 342 403 484
#     4  11  27  50  81 119 165 212 272 323 407 488
#     4  10  25  48  83 112 156 220 273 319 388 503
#     4  11  26  45  80 114 156 207 270 331 406 476
#     4   9  24  49  82 112 160 207 272 331 406 470
#     4  12  28  54  82 120 170 212 246 336 406 472
#
# _framework density 25.324629000000002
#
# number of rings (size 3 to 8) (size 9 to 14) (size 15 to 20)
#    0.000    1.412    0.000    1.412   13.176   11.765 
#    0.000    1.765    5.176    0.000    0.000    0.000 
#    0.000    0.000    0.000    0.000    0.000    0.000 
#
# Total GULP energy -379746.696394 kJ/mol
# GULP energy per Si atom -5584.510241 kJ/mol
# Density = 2.526699 g / cm^3
# Si number density = 25.324629 Si / 1000 Ang^3
#
#
#
# Elastic Constant Matrix: (Units=GPa)
#
#
# Indices 1 2 3 4 5 6 
#
# 1 170.8002 63.2433 34.1027 0.0000 0.0000 0.0000
# 2 63.2433 170.7977 34.1037 0.0000 0.0000 0.0000
# 3 34.1027 34.1037 101.0447 0.0000 0.0000 0.0000
# 4 0.0000 0.0000 0.0000 19.8908 0.0000 0.0000
# 5 0.0000 0.0000 0.0000 0.0000 19.8911 0.0000
# 6 0.0000 0.0000 0.0000 0.0000 0.0000 55.1275
#
#
#
# Elastic Compliance Matrix: (Units=1/GPa)
#
#
# Indices 1 2 3 4 5 6 
#
# 1 0.007018 -0.002279 -0.001599 0.000000 0.000000 0.000000
# 2 -0.002279 0.007018 -0.001599 0.000000 0.000000 0.000000
# 3 -0.001599 -0.001599 0.010976 0.000000 0.000000 0.000000
# 4 0.000000 0.000000 0.000000 0.050274 0.000000 0.000000
# 5 0.000000 0.000000 0.000000 0.000000 0.050274 0.000000
# 6 0.000000 0.000000 0.000000 0.000000 0.000000 0.018140
#
#
# Mechanical properties :
#
#
# Convention : Reuss Voigt Hill
#
# Bulk Modulus (GPa) = 71.14223 78.39355 74.76789
# Shear Modulus (GPa) = 31.37903 39.72808 35.55355
#
# Velocity S-wave (km/s) = 3.52386 3.96504 3.75095
# Velocity P-wave (km/s) = 6.68655 7.21005 6.95323
#
# Compressibility (1/GPa) = 0.01405635
#
# Stress axis : x y z
#
# Youngs Moduli (GPa) = 142.48853 142.48574 91.10606
#
# Poissons Ratio (x) = 0.32477 0.14571
# Poissons Ratio (y) = 0.32478 0.14572
# Poissons Ratio (z) = 0.22788 0.22790
#
# Static dielectric constant tensor:
#      x y z
#    x 2.080430 0.000000 0.000000 
#    y 0.000000 2.080430 0.000000 
#    z 0.000000 0.000000 2.076770 
# 
# From -- ./inp_files/4291.got.cif
#   From: 2010.05.17/outbox.cif.g08.bks.cpg/sg133_3_cif.got.tgz:4291.got - 2010.05.20 12:37:36.
