data_PCOD9567671
_publ_section_title
;
Structure prediction by ZEFSAII (Michael W. Deem and Ramdas Pophale) SiO2 
 PCOD9567671
Probable space group: P 42/N B C
;
_chemical_formula_sum "Si O2"
_cell_formula_units_Z 96
_cell_length_a 15.055944
_cell_length_b 15.055944
_cell_length_c 23.094570
_cell_angle_alpha 90.000000
_cell_angle_beta 90.000000
_cell_angle_gamma 90.000000
_cell_volume 5235.110609
_symmetry_space_group_name_H-M "P 42/N B C"
_symmetry_group_IT_number 133
_space_group.IT_coordinate_system_code '2'
_symmetry_cell_setting 'tetragonal'
loop_
_space_group_symop_operation_xyz
x,y,z
1/2-y,x,1/2+z
1/2-x,1/2-y,z
y,1/2-x,1/2+z
x,1/2-y,-z
1/2-x,y,-z
y,x,1/2-z
1/2-y,1/2-x,1/2-z
-x,-y,-z
1/2+y,-x,1/2-z
1/2+x,1/2+y,-z
-y,1/2+x,1/2-z
-x,1/2+y,z
1/2+x,-y,z
-y,-x,1/2+z
1/2+y,1/2+x,1/2+z
loop_
_atom_site_type_symbol
_atom_site_label
_atom_site_fract_x
_atom_site_fract_y
_atom_site_fract_z
Si Si1 0.472422 0.767897 0.068949
Si Si2 0.573120 0.083716 0.131800
Si Si3 0.799165 0.830268 0.562166
Si Si4 0.001055 0.265188 0.563691
Si Si5 0.946846 0.091253 0.624620
Si Si6 0.848995 0.363612 0.753547
O O1 0.447630 0.677648 0.101436
O O2 0.573243 0.789318 0.088120
O O3 0.420253 0.856825 0.086774
O O4 0.466396 0.750000 0.000000
O O5 0.592157 0.103139 0.198812
O O6 0.662709 0.050061 0.101357
O O7 0.495444 0.010186 0.124330
O O8 0.750000 0.750000 0.594513
O O9 0.750000 0.837455 0.500000
O O10 0.900691 0.804194 0.554642
O O11 0.960921 0.250000 0.500000
O O12 0.001838 0.172119 0.596900
O O13 0.911637 0.118295 0.688129
O O14 0.870481 0.257983 0.753873
#
# Coordination Sequence:
#
# PCOD9567671 Si02
#       6
#    16  16  16  16  16  16
#     4  11  24  40  63  97 136 174 206 264 330 388
#     4  12  25  43  68  96 131 172 223 277 325 390
#     4  10  19  38  62  88 133 177 213 248 312 400
#     4  12  24  39  65 102 134 174 217 265 330 400
#     4  12  25  43  68  96 132 172 223 277 323 393
#     4  11  23  46  70  88 121 175 228 273 339 385
#
# _framework density 18.337720999999998
#
# number of rings (size 3 to 8) (size 9 to 14) (size 15 to 20)
#    0.000    0.667    6.667    2.500    2.333    2.000 
#    0.000    1.667    0.000    0.000    0.000    7.000 
#    0.000    0.000    0.000    0.000    0.000    0.000 
#
# Total GULP energy -535966.375123 kJ/mol
# GULP energy per Si atom -5582.983074 kJ/mol
# Density = 1.829598 g / cm^3
# Si number density = 18.337721 Si / 1000 Ang^3
#
#
#
# Elastic Constant Matrix: (Units=GPa)
#
#
# Indices 1 2 3 4 5 6 
#
# 1 86.5611 15.5760 28.7233 0.0000 0.0000 0.0000
# 2 15.5760 86.5611 28.7233 0.0000 0.0000 0.0000
# 3 28.7233 28.7233 112.3612 0.0000 0.0000 0.0000
# 4 0.0000 0.0000 0.0000 22.3321 0.0000 0.0000
# 5 0.0000 0.0000 0.0000 0.0000 22.3321 0.0000
# 6 0.0000 0.0000 0.0000 0.0000 0.0000 30.7042
#
#
#
# Elastic Compliance Matrix: (Units=1/GPa)
#
#
# Indices 1 2 3 4 5 6 
#
# 1 0.012761 -0.001326 -0.002923 0.000000 0.000000 0.000000
# 2 -0.001326 0.012761 -0.002923 0.000000 0.000000 0.000000
# 3 -0.002923 -0.002923 0.010394 0.000000 0.000000 0.000000
# 4 0.000000 0.000000 0.000000 0.044779 0.000000 0.000000
# 5 0.000000 0.000000 0.000000 0.000000 0.044779 0.000000
# 6 0.000000 0.000000 0.000000 0.000000 0.000000 0.032569
#
#
# Mechanical properties :
#
#
# Convention : Reuss Voigt Hill
#
# Bulk Modulus (GPa) = 46.35736 47.94766 47.15251
# Shear Modulus (GPa) = 27.84298 29.23772 28.54035
#
# Velocity S-wave (km/s) = 3.90082 3.99733 3.94937
# Velocity P-wave (km/s) = 6.75450 6.89265 6.82392
#
# Compressibility (1/GPa) = 0.02157155
#
# Stress axis : x y z
#
# Youngs Moduli (GPa) = 78.36277 78.36277 96.20590
#
# Poissons Ratio (x) = 0.10393 0.28122
# Poissons Ratio (y) = 0.10393 0.28122
# Poissons Ratio (z) = 0.22907 0.22907
#
# Static dielectric constant tensor:
#      x y z
#    x 1.670220 0.000000 0.000000 
#    y 0.000000 1.670220 0.000000 
#    z 0.000000 0.000000 1.615560 
# 
# From -- ./inp_files/6496.got.cif
#   From: 2010.05.17/outbox.cif.g08.bks.cpg/sg133_4_cif.got.tgz:6496.got - 2010.05.20 12:37:36.
