data_PCOD9567550
_publ_section_title
;
Structure prediction by ZEFSAII (Michael W. Deem and Ramdas Pophale) SiO2 
 PCOD9567550
Probable space group: P 42/M C M
;
_chemical_formula_sum "Si O2"
_cell_formula_units_Z 96
_cell_length_a 24.000000
_cell_length_b 24.000000
_cell_length_c 9.000000
_cell_angle_alpha 90.000000
_cell_angle_beta 90.000000
_cell_angle_gamma 90.000000
_cell_volume 5184.000000
_symmetry_space_group_name_H-M "P 42/M C M"
_symmetry_group_IT_number 132
_symmetry_cell_setting 'tetragonal'
loop_
_space_group_symop_operation_xyz
x,y,z
-y,x,1/2+z
-x,-y,z
y,-x,1/2+z
x,-y,1/2-z
-x,y,1/2-z
y,x,-z
-y,-x,-z
-x,-y,-z
y,-x,1/2-z
x,y,-z
-y,x,1/2-z
-x,y,1/2+z
x,-y,1/2+z
-y,-x,z
y,x,z
loop_
_atom_site_type_symbol
_atom_site_label
_atom_site_fract_x
_atom_site_fract_y
_atom_site_fract_z
Si Si1 0.770412 0.443602 0.821413
Si Si2 0.851918 0.648872 0.673554
Si Si3 0.235243 0.850139 0.322103
Si Si4 0.058729 0.854622 0.678241
Si Si5 0.555074 0.358110 0.177597
Si Si6 0.941293 0.554310 0.327099
O O1 0.792475 0.500000 0.750000
O O2 0.800979 0.388360 0.770462
O O3 0.706008 0.439914 0.780761
O O4 0.776766 0.447171 0.000000
O O5 0.843258 0.661716 0.500000
O O6 0.859271 0.704448 0.761620
O O7 0.904033 0.608236 0.687728
O O8 0.235706 0.850051 0.500000
O O9 0.207732 0.792269 0.271081
O O10 0.193734 0.899009 0.274839
O O11 0.054988 0.853231 0.500000
O O12 0.087257 0.912744 0.721433
O O13 0.000000 0.846677 0.750000
O O14 0.500000 0.382439 0.250000
O O15 0.608391 0.391610 0.226731
O O16 0.550300 0.360749 0.000000
O O17 0.916041 0.500000 0.250000
O O18 0.948370 0.542262 0.500000
O O19 0.000000 0.563697 0.250000
#
# Coordination Sequence:
#
# PCOD9567550 Si02
#       6
#    16  16  16  16  16  16
#     4   9  18  33  51  72  98 127 161 204 252 298
#     4  10  21  34  52  78 102 129 169 211 252 302
#     4   9  20  38  55  73 102 138 172 208 252 299
#     4   9  19  36  56  79 108 139 171 209 251 295
#     4   9  18  32  49  69  94 124 156 192 238 290
#     4  10  20  34  51  74 104 136 170 208 253 301
#
# _framework density 18.518519000000001
#
# number of rings (size 3 to 8) (size 9 to 14) (size 15 to 20)
#    0.000    2.667    0.000    2.500    0.000    5.333 
#    0.000    8.333    0.000    0.000    0.000    0.000 
#    0.000    0.000    0.000    0.000    0.000    0.000 
#
# Total GULP energy -534628.173603 kJ/mol
# GULP energy per Si atom -5569.043475 kJ/mol
# Density = 1.847637 g / cm^3
# Si number density = 18.518519 Si / 1000 Ang^3
#
#
#
# Elastic Constant Matrix: (Units=GPa)
#
#
# Indices 1 2 3 4 5 6 
#
# 1 119.3749 8.0386 45.7756 0.0000 0.0000 0.0000
# 2 8.0386 119.3749 45.7756 0.0000 0.0000 0.0000
# 3 45.7756 45.7756 23.1066 0.0000 0.0000 0.0000
# 4 0.0000 0.0000 0.0000 28.3254 0.0000 0.0000
# 5 0.0000 0.0000 0.0000 0.0000 28.3254 0.0000
# 6 0.0000 0.0000 0.0000 0.0000 0.0000 4.7947
#
#
#
# Elastic Compliance Matrix: (Units=1/GPa)
#
#
# Indices 1 2 3 4 5 6 
#
# 1 -0.004776 -0.013758 0.036717 0.000000 0.000000 0.000000
# 2 -0.013758 -0.004776 0.036717 0.000000 0.000000 0.000000
# 3 0.036717 0.036717 -0.102198 0.000000 0.000000 0.000000
# 4 0.000000 0.000000 0.000000 0.035304 0.000000 0.000000
# 5 0.000000 0.000000 0.000000 0.000000 0.035304 0.000000
# 6 0.000000 0.000000 0.000000 0.000000 0.000000 0.208563
#
#
# Mechanical properties :
#
#
# Convention : Reuss Voigt Hill
#
# Bulk Modulus (GPa) = 131.56781 51.22623 91.39702
# Shear Modulus (GPa) = 98.80773 23.10688 60.95731
#
# Velocity S-wave (km/s) = 7.31246 3.53621 5.74355
# Velocity P-wave (km/s) = 11.93721 6.66298 9.66675
#
# Compressibility (1/GPa) = 0.00760064
#
# Stress axis : x y z
#
# Youngs Moduli (GPa) = -209.38099 -209.38099 -9.78491
#
# Poissons Ratio (x) = -2.88062 0.35927
# Poissons Ratio (y) = -2.88062 0.35927
# Poissons Ratio (z) = 7.68776 7.68776
#
# Static dielectric constant tensor:
#      x y z
#    x 1.728920 0.000000 0.000000 
#    y 0.000000 1.728920 0.000000 
#    z 0.000000 0.000000 1.620350 
# 
# From -- ./inp_files/1719.got.cif
#   From: 2010.05.17/outbox.ucp.g08.bks.cvg/sg132_1_cif.got.tgz:1719.got - 2010.06.11 11:39:14.
