data_PCOD9567442
_publ_section_title
;
Structure prediction by ZEFSAII (Michael W. Deem and Ramdas Pophale) SiO2 
 PCOD9567442
Probable space group: P 42/M C M
;
_chemical_formula_sum "Si O2"
_cell_formula_units_Z 96
_cell_length_a 24.326766
_cell_length_b 24.326766
_cell_length_c 8.113181
_cell_angle_alpha 90.000000
_cell_angle_beta 90.000000
_cell_angle_gamma 90.000000
_cell_volume 4801.311911
_symmetry_space_group_name_H-M "P 42/M C M"
_symmetry_group_IT_number 132
_symmetry_cell_setting 'tetragonal'
loop_
_space_group_symop_operation_xyz
x,y,z
-y,x,1/2+z
-x,-y,z
y,-x,1/2+z
x,-y,1/2-z
-x,y,1/2-z
y,x,-z
-y,-x,-z
-x,-y,-z
y,-x,1/2-z
x,y,-z
-y,x,1/2-z
-x,y,1/2+z
x,-y,1/2+z
-y,-x,z
y,x,z
loop_
_atom_site_type_symbol
_atom_site_label
_atom_site_fract_x
_atom_site_fract_y
_atom_site_fract_z
Si Si1 0.435654 0.264461 0.803150
Si Si2 0.063360 0.847887 0.804809
Si Si3 0.753042 0.753042 0.299622
Si Si4 0.943289 0.562188 0.304458
Si Si5 0.661733 0.338268 0.197363
Si Si6 0.155190 0.624593 0.691087
Si Si7 0.122378 0.263093 0.193511
O O1 0.500000 0.265662 0.750000
O O2 0.397821 0.316954 0.757120
O O3 0.400003 0.211802 0.736084
O O4 0.436665 0.259175 0.000000
O O5 0.104833 0.895168 0.735528
O O6 0.089431 0.787971 0.767666
O O7 0.000000 0.852114 0.750000
O O8 0.063127 0.854216 0.000000
O O9 0.755247 0.755247 0.500000
O O10 0.707662 0.707662 0.250818
O O11 0.812621 0.742140 0.225638
O O12 0.949402 0.500000 0.250000
O O13 0.935622 0.567755 0.500000
O O14 0.889495 0.578202 0.204774
O O15 0.000000 0.591507 0.250000
O O16 0.661262 0.338739 0.000000
O O17 0.166866 0.639087 0.500000
O O18 0.119260 0.675323 0.765164
O O19 0.108710 0.262177 0.000000
#
# Coordination Sequence:
#
# PCOD9567442 Si02
#       7
#    16  16   8  16   8  16  16
#     4  11  23  40  62  92 129 167 210 261 314 371
#     4  11  25  44  66  93 123 159 204 256 314 375
#     4  11  21  35  59  91 125 159 199 243 295 363
#     4  11  22  37  57  77 106 150 199 250 300 354
#     4  11  23  39  63  94 128 168 212 257 309 369
#     4  10  22  38  58  88 122 159 202 248 302 364
#     4  11  22  38  63  91 123 161 198 242 301 363
#
# _framework density 19.994534999999999
#
# number of rings (size 3 to 8) (size 9 to 14) (size 15 to 20)
#    0.000    1.167    2.500    4.500    0.000    6.500 
#    0.000    0.833    0.000    0.250    0.000    1.750 
#    0.000    0.000    0.000    0.000    0.000    0.000 
#
# Total GULP energy -534594.291703 kJ/mol
# GULP energy per Si atom -5568.690539 kJ/mol
# Density = 1.994903 g / cm^3
# Si number density = 19.994535 Si / 1000 Ang^3
#
#
#
# Elastic Constant Matrix: (Units=GPa)
#
#
# Indices 1 2 3 4 5 6 
#
# 1 133.8763 56.8965 14.7723 0.0000 0.0000 0.0000
# 2 56.8965 133.8766 14.7724 0.0000 0.0000 0.0000
# 3 14.7723 14.7724 51.2108 0.0000 0.0000 0.0000
# 4 0.0000 0.0000 0.0000 27.8922 0.0000 0.0000
# 5 0.0000 0.0000 0.0000 0.0000 27.8920 0.0000
# 6 0.0000 0.0000 0.0000 0.0000 0.0000 28.4349
#
#
#
# Elastic Compliance Matrix: (Units=1/GPa)
#
#
# Indices 1 2 3 4 5 6 
#
# 1 0.009239 -0.003752 -0.001583 0.000000 0.000000 0.000000
# 2 -0.003752 0.009239 -0.001583 0.000000 0.000000 0.000000
# 3 -0.001583 -0.001583 0.020440 0.000000 0.000000 0.000000
# 4 0.000000 0.000000 0.000000 0.035852 0.000000 0.000000
# 5 0.000000 0.000000 0.000000 0.000000 0.035853 0.000000
# 6 0.000000 0.000000 0.000000 0.000000 0.000000 0.035168
#
#
# Mechanical properties :
#
#
# Convention : Reuss Voigt Hill
#
# Bulk Modulus (GPa) = 39.86751 54.64957 47.25854
# Shear Modulus (GPa) = 29.76436 32.34532 31.05484
#
# Velocity S-wave (km/s) = 3.86246 4.02644 3.94530
# Velocity P-wave (km/s) = 6.31458 7.00056 6.66640
#
# Compressibility (1/GPa) = 0.02508308
#
# Stress axis : x y z
#
# Youngs Moduli (GPa) = 108.24055 108.24071 48.92303
#
# Poissons Ratio (x) = 0.40609 0.07743
# Poissons Ratio (y) = 0.40609 0.07743
# Poissons Ratio (z) = 0.17132 0.17132
#
# Static dielectric constant tensor:
#      x y z
#    x 1.485320 0.000000 0.000000 
#    y 0.000000 1.485320 0.000000 
#    z 0.000000 0.000000 1.734800 
# 
# From -- ./inp_files/1825.got.cif
#   From: 2010.05.17/outbox.cif.g08.bks.cpg/sg132_1_cif.got.tgz:1825.got - 2010.05.20 12:30:18.
