data_PCOD9567115
_publ_section_title
;
Structure prediction by ZEFSAII (Michael W. Deem and Ramdas Pophale) SiO2 
 PCOD9567115
Probable space group: P 42/M C M
;
_chemical_formula_sum "Si O2"
_cell_formula_units_Z 120
_cell_length_a 20.746274
_cell_length_b 20.746274
_cell_length_c 14.701615
_cell_angle_alpha 90.000000
_cell_angle_beta 90.000000
_cell_angle_gamma 90.000000
_cell_volume 6327.691017
_symmetry_space_group_name_H-M "P 42/M C M"
_symmetry_group_IT_number 132
_symmetry_cell_setting 'tetragonal'
loop_
_space_group_symop_operation_xyz
x,y,z
-y,x,1/2+z
-x,-y,z
y,-x,1/2+z
x,-y,1/2-z
-x,y,1/2-z
y,x,-z
-y,-x,-z
-x,-y,-z
y,-x,1/2-z
x,y,-z
-y,x,1/2-z
-x,y,1/2+z
x,-y,1/2+z
-y,-x,z
y,x,z
loop_
_atom_site_type_symbol
_atom_site_label
_atom_site_fract_x
_atom_site_fract_y
_atom_site_fract_z
Si Si1 0.988074 0.249676 0.149821
Si Si2 0.016802 0.397267 0.110069
Si Si3 0.230146 0.122994 0.098553
Si Si4 0.554261 0.660677 0.677110
Si Si5 0.846743 0.262257 0.805317
Si Si6 0.208994 0.392701 0.389295
Si Si7 0.491329 0.897983 0.889994
Si Si8 0.495627 0.394869 0.000000
O O1 0.911609 0.243762 0.138484
O O2 0.000000 0.223924 0.250000
O O3 0.005155 0.325988 0.145553
O O4 0.046428 0.218326 0.095248
O O5 0.079432 0.437879 0.141955
O O6 0.955545 0.441795 0.133455
O O7 0.019017 0.392097 0.000000
O O8 0.165736 0.165736 0.102457
O O9 0.265193 0.137664 0.195741
O O10 0.262644 0.139569 0.000000
O O11 0.500000 0.675887 0.750000
O O12 0.598825 0.598825 0.701449
O O13 0.599493 0.720060 0.651120
O O14 0.513034 0.644743 0.587971
O O15 0.791236 0.208765 0.816789
O O16 0.823947 0.330400 0.845056
O O17 0.210059 0.387054 0.500000
O O18 0.168118 0.456956 0.364148
O O19 0.495087 0.897656 0.000000
O O20 0.425158 0.425158 0.000000
O O21 0.546394 0.453607 0.000000
#
# Coordination Sequence:
#
# PCOD9567115 Si02
#       8
#    16  16  16  16  16  16  16   8
#     4  10  19  32  53  84 115 145 197 248 295 349
#     4   9  15  29  50  74 103 142 185 234 277 325
#     4   9  19  37  60  82 110 155 207 257 301 342
#     4  11  23  40  62  87 114 149 193 243 301 364
#     4  10  21  36  58  89 124 159 200 247 297 362
#     4  11  21  38  60  88 126 163 192 235 303 375
#     4   8  16  29  50  76 108 147 188 225 274 335
#     4   9  18  36  64  92 110 131 180 246 303 356
#
# _framework density 18.964262999999999
#
# number of rings (size 3 to 8) (size 9 to 14) (size 15 to 20)
#    0.000    2.333    2.000    2.000    0.000    2.000 
#    4.800    1.333    1.467    0.400    0.000    3.733 
#    0.000    0.000    0.000    0.000    0.000    0.000 
#
# Total GULP energy -668244.864760 kJ/mol
# GULP energy per Si atom -5568.707206 kJ/mol
# Density = 1.892110 g / cm^3
# Si number density = 18.964263 Si / 1000 Ang^3
#
#
#
# Elastic Constant Matrix: (Units=GPa)
#
#
# Indices 1 2 3 4 5 6 
#
# 1 62.1706 18.2317 24.0793 0.0000 0.0000 0.0000
# 2 18.2317 62.1705 24.0792 0.0000 0.0000 0.0000
# 3 24.0793 24.0792 94.0459 0.0000 0.0000 0.0000
# 4 0.0000 0.0000 0.0000 23.8164 0.0000 0.0000
# 5 0.0000 0.0000 0.0000 0.0000 23.8169 0.0000
# 6 0.0000 0.0000 0.0000 0.0000 0.0000 25.5193
#
#
#
# Elastic Compliance Matrix: (Units=1/GPa)
#
#
# Indices 1 2 3 4 5 6 
#
# 1 0.018725 -0.004034 -0.003761 0.000000 0.000000 0.000000
# 2 -0.004034 0.018725 -0.003761 0.000000 0.000000 0.000000
# 3 -0.003761 -0.003761 0.012559 0.000000 0.000000 0.000000
# 4 0.000000 0.000000 0.000000 0.041988 0.000000 0.000000
# 5 0.000000 0.000000 0.000000 0.000000 0.041987 0.000000
# 6 0.000000 0.000000 0.000000 0.000000 0.000000 0.039186
#
#
# Mechanical properties :
#
#
# Convention : Reuss Voigt Hill
#
# Bulk Modulus (GPa) = 37.18199 39.01862 38.10030
# Shear Modulus (GPa) = 24.36080 24.76365 24.56222
#
# Velocity S-wave (km/s) = 3.58797 3.61751 3.60277
# Velocity P-wave (km/s) = 6.06742 6.16993 6.11889
#
# Compressibility (1/GPa) = 0.02689474
#
# Stress axis : x y z
#
# Youngs Moduli (GPa) = 53.40563 53.40561 79.62320
#
# Poissons Ratio (x) = 0.21545 0.29949
# Poissons Ratio (y) = 0.21545 0.29948
# Poissons Ratio (z) = 0.20087 0.20087
#
# Static dielectric constant tensor:
#      x y z
#    x 1.675360 0.000000 0.000000 
#    y 0.000000 1.675360 0.000000 
#    z 0.000000 0.000000 1.635370 
# 
# From -- ./inp_files/5132.got.cif
#   From: 2010.05.17/outbox.cif.g08.bks.cpg/sg132_3_cif.got.tgz:5132.got - 2010.05.20 12:30:18.
