data_PCOD9567596
_publ_section_title
;
Structure prediction by ZEFSAII (Michael W. Deem and Ramdas Pophale) SiO2 
 PCOD9567596
Probable space group: P 42/N B C
;
_chemical_formula_sum "Si O2"
_cell_formula_units_Z 120
_cell_length_a 21.187912
_cell_length_b 21.187912
_cell_length_c 14.438703
_cell_angle_alpha 90.000000
_cell_angle_beta 90.000000
_cell_angle_gamma 90.000000
_cell_volume 6481.932500
_symmetry_space_group_name_H-M "P 42/N B C"
_symmetry_group_IT_number 133
_space_group.IT_coordinate_system_code '2'
_symmetry_cell_setting 'tetragonal'
loop_
_space_group_symop_operation_xyz
x,y,z
1/2-y,x,1/2+z
1/2-x,1/2-y,z
y,1/2-x,1/2+z
x,1/2-y,-z
1/2-x,y,-z
y,x,1/2-z
1/2-y,1/2-x,1/2-z
-x,-y,-z
1/2+y,-x,1/2-z
1/2+x,1/2+y,-z
-y,1/2+x,1/2-z
-x,1/2+y,z
1/2+x,-y,z
-y,-x,1/2+z
1/2+y,1/2+x,1/2+z
loop_
_atom_site_type_symbol
_atom_site_label
_atom_site_fract_x
_atom_site_fract_y
_atom_site_fract_z
Si Si1 0.913569 0.642195 0.578183
Si Si2 0.010192 0.853606 0.675255
Si Si3 0.596363 0.700132 0.777933
Si Si4 0.579031 0.077631 0.330584
Si Si5 0.089387 0.054255 0.399611
Si Si6 0.058326 0.058326 0.750000
Si Si7 0.721147 0.817640 0.601409
Si Si8 0.180386 0.949889 0.974284
O O1 0.910073 0.596644 0.489818
O O2 0.912618 0.592893 0.661856
O O3 0.853483 0.686770 0.588404
O O4 0.978413 0.680021 0.565372
O O5 0.059023 0.865834 0.758567
O O6 0.044093 0.849671 0.576660
O O7 0.958689 0.798431 0.700082
O O8 0.963227 0.913312 0.665452
O O9 0.655156 0.655156 0.750000
O O10 0.562088 0.658571 0.856507
O O11 0.628817 0.760527 0.823949
O O12 0.515542 0.074009 0.267606
O O13 0.584878 0.139466 0.394789
O O14 0.573324 0.019243 0.403133
O O15 0.750000 0.750000 0.628262
O O16 0.750000 0.833621 0.500000
O O17 0.250000 0.926460 0.000000
#
# Coordination Sequence:
#
# PCOD9567596 Si02
#       8
#    16  16  16  16  16   8  16  16
#     4  10  22  33  50  73 108 151 193 247 287 309
#     4   9  18  33  57  76 107 140 187 233 289 345
#     4   9  18  32  50  70  91 138 197 252 279 311
#     4  10  18  33  56  82 104 140 185 223 287 354
#     4   9  16  32  53  75  98 131 186 240 289 333
#     4  10  20  30  47  80 106 118 183 252 292 338
#     4  11  23  35  50  66 100 159 220 249 262 315
#     4  10  23  35  53  81 120 150 169 221 292 347
#
# _framework density 18.512998
#
# number of rings (size 3 to 8) (size 9 to 14) (size 15 to 20)
#    0.000    2.267    2.667    0.800    3.733    5.067 
#    0.000    0.000    0.000    0.000    0.000    0.000 
#    0.000    1.600    0.000    0.000    0.000    0.000 
#
# Total GULP energy -668117.532949 kJ/mol
# GULP energy per Si atom -5567.646108 kJ/mol
# Density = 1.847086 g / cm^3
# Si number density = 18.512998 Si / 1000 Ang^3
#
#
#
# Elastic Constant Matrix: (Units=GPa)
#
#
# Indices 1 2 3 4 5 6 
#
# 1 53.3520 24.0026 24.1562 0.0000 0.0000 0.0000
# 2 24.0026 53.3520 24.1562 0.0000 0.0000 0.0000
# 3 24.1562 24.1562 96.7169 0.0000 0.0000 0.0000
# 4 0.0000 0.0000 0.0000 18.1375 0.0000 0.0000
# 5 0.0000 0.0000 0.0000 0.0000 18.1375 0.0000
# 6 0.0000 0.0000 0.0000 0.0000 0.0000 16.1363
#
#
#
# Elastic Compliance Matrix: (Units=1/GPa)
#
#
# Indices 1 2 3 4 5 6 
#
# 1 0.024695 -0.009378 -0.003826 0.000000 0.000000 0.000000
# 2 -0.009378 0.024695 -0.003826 0.000000 0.000000 0.000000
# 3 -0.003826 -0.003826 0.012250 0.000000 0.000000 0.000000
# 4 0.000000 0.000000 0.000000 0.055134 0.000000 0.000000
# 5 0.000000 0.000000 0.000000 0.000000 0.055134 0.000000
# 6 0.000000 0.000000 0.000000 0.000000 0.000000 0.061972
#
#
# Mechanical properties :
#
#
# Convention : Reuss Voigt Hill
#
# Bulk Modulus (GPa) = 36.25586 38.67231 37.46409
# Shear Modulus (GPa) = 18.04193 19.22262 18.63228
#
# Velocity S-wave (km/s) = 3.12517 3.22581 3.17589
# Velocity P-wave (km/s) = 5.71391 5.89992 5.80766
#
# Compressibility (1/GPa) = 0.02758175
#
# Stress axis : x y z
#
# Youngs Moduli (GPa) = 40.49479 40.49479 81.62989
#
# Poissons Ratio (x) = 0.37975 0.31228
# Poissons Ratio (y) = 0.37975 0.31228
# Poissons Ratio (z) = 0.15491 0.15491
#
# Static dielectric constant tensor:
#      x y z
#    x 1.673600 0.000000 0.000000 
#    y 0.000000 1.673600 0.000000 
#    z 0.000000 0.000000 1.627790 
# 
# From -- ./inp_files/4684.got.cif
#   From: 2010.05.17/outbox.cif.g08.bks.cpg/sg133_3_cif.got.tgz:4684.got - 2010.05.20 12:37:36.
