data_PCOD9567018
_publ_section_title
;
Structure prediction by ZEFSAII (Michael W. Deem and Ramdas Pophale) SiO2 
 PCOD9567018
Probable space group: P 42/M C M
;
_chemical_formula_sum "Si O2"
_cell_formula_units_Z 80
_cell_length_a 11.605458
_cell_length_b 11.605458
_cell_length_c 28.986037
_cell_angle_alpha 90.000000
_cell_angle_beta 90.000000
_cell_angle_gamma 90.000000
_cell_volume 3904.032377
_symmetry_space_group_name_H-M "P 42/M C M"
_symmetry_group_IT_number 132
_symmetry_cell_setting 'tetragonal'
loop_
_space_group_symop_operation_xyz
x,y,z
-y,x,1/2+z
-x,-y,z
y,-x,1/2+z
x,-y,1/2-z
-x,y,1/2-z
y,x,-z
-y,-x,-z
-x,-y,-z
y,-x,1/2-z
x,y,-z
-y,x,1/2-z
-x,y,1/2+z
x,-y,1/2+z
-y,-x,z
y,x,z
loop_
_atom_site_type_symbol
_atom_site_label
_atom_site_fract_x
_atom_site_fract_y
_atom_site_fract_z
Si Si1 0.597897 0.898387 0.553778
Si Si2 0.231319 0.048021 0.698929
Si Si3 0.864402 0.530044 0.696843
Si Si4 0.759562 0.065054 0.397163
Si Si5 0.746415 0.563968 0.109135
O O1 0.618096 0.877629 0.500000
O O2 0.545145 0.786482 0.578864
O O3 0.500000 0.000000 0.557630
O O4 0.710575 0.951340 0.578370
O O5 0.109586 0.109586 0.698312
O O6 0.333419 0.138485 0.690093
O O7 0.253173 0.000000 0.750000
O O8 0.236055 0.957537 0.657667
O O9 0.843088 0.500000 0.750000
O O10 0.780306 0.467135 0.661653
O O11 0.000000 0.500000 0.686458
O O12 0.881453 0.118548 0.412350
O O13 0.664546 0.163836 0.405141
O O14 0.620316 0.620316 0.104567
#
# Coordination Sequence:
#
# PCOD9567018 Si02
#       5
#    16  16  16  16  16
#     4   9  17  31  52  80 115 148 188 246 298 343
#     4  12  23  35  54  82 115 152 192 235 287 349
#     4  11  18  34  56  75 109 149 192 237 283 347
#     4  10  19  32  51  77 113 152 189 232 291 357
#     4  10  18  31  55  82 110 147 191 240 296 353
#
# _framework density 20.491631999999999
#
# number of rings (size 3 to 8) (size 9 to 14) (size 15 to 20)
#    0.000    1.600    6.000    1.200    0.000    4.600 
#    0.000    4.000    0.000    1.200    0.000    2.800 
#    0.000    1.600    0.000    0.000    0.000    0.000 
#
# Total GULP energy -446263.813219 kJ/mol
# GULP energy per Si atom -5578.297665 kJ/mol
# Density = 2.044499 g / cm^3
# Si number density = 20.491632 Si / 1000 Ang^3
#
#
#
# Elastic Constant Matrix: (Units=GPa)
#
#
# Indices 1 2 3 4 5 6 
#
# 1 54.5317 60.2853 41.0951 0.0000 0.0000 0.0000
# 2 60.2853 54.5317 41.0951 0.0000 0.0000 0.0000
# 3 41.0951 41.0951 119.7541 0.0000 0.0000 0.0000
# 4 0.0000 0.0000 0.0000 -8.0844 0.0000 0.0000
# 5 0.0000 0.0000 0.0000 0.0000 -8.0844 0.0000
# 6 0.0000 0.0000 0.0000 0.0000 0.0000 34.9293
#
#
#
# Elastic Compliance Matrix: (Units=1/GPa)
#
#
# Indices 1 2 3 4 5 6 
#
# 1 -0.081129 0.092675 -0.003962 0.000000 0.000000 0.000000
# 2 0.092675 -0.081129 -0.003962 0.000000 0.000000 0.000000
# 3 -0.003962 -0.003962 0.011070 0.000000 0.000000 0.000000
# 4 0.000000 0.000000 0.000000 -0.123694 0.000000 0.000000
# 5 0.000000 0.000000 0.000000 0.000000 -0.123694 0.000000
# 6 0.000000 0.000000 0.000000 0.000000 0.000000 0.028629
#
#
# Mechanical properties :
#
#
# Convention : Reuss Voigt Hill
#
# Bulk Modulus (GPa) = 54.60632 57.08535 55.84583
# Shear Modulus (GPa) = -9.37478 9.50822 0.06672
#
# Velocity S-wave (km/s) = -2.14123 2.15641 0.18064
# Velocity P-wave (km/s) = 4.53793 5.84111 5.23026
#
# Compressibility (1/GPa) = 0.01831290
#
# Stress axis : x y z
#
# Youngs Moduli (GPa) = -12.32601 -12.32601 90.33673
#
# Poissons Ratio (x) = 1.14231 0.35792
# Poissons Ratio (y) = 1.14231 0.35792
# Poissons Ratio (z) = -0.04884 -0.04884
#
# Static dielectric constant tensor:
#      x y z
#    x 1.762640 0.000000 0.000000 
#    y 0.000000 1.762640 0.000000 
#    z 0.000000 0.000000 1.714990 
# 
# From -- ./inp_files/10585.got.cif
#   From: 2010.05.17/outbox.cif.g08.bks.cpg/sg132_6_cif.got.tgz:10585.got - 2010.05.20 12:30:18.
