data_PCOD9567959
_publ_section_title
;
Structure prediction by ZEFSAII (Michael W. Deem and Ramdas Pophale) SiO2 
 PCOD9567959
Probable space group: P 42/N B C
;
_chemical_formula_sum "Si O2"
_cell_formula_units_Z 80
_cell_length_a 14.004065
_cell_length_b 14.004065
_cell_length_c 19.026139
_cell_angle_alpha 90.000000
_cell_angle_beta 90.000000
_cell_angle_gamma 90.000000
_cell_volume 3731.289114
_symmetry_space_group_name_H-M "P 42/N B C"
_symmetry_group_IT_number 133
_space_group.IT_coordinate_system_code '2'
_symmetry_cell_setting 'tetragonal'
loop_
_space_group_symop_operation_xyz
x,y,z
1/2-y,x,1/2+z
1/2-x,1/2-y,z
y,1/2-x,1/2+z
x,1/2-y,-z
1/2-x,y,-z
y,x,1/2-z
1/2-y,1/2-x,1/2-z
-x,-y,-z
1/2+y,-x,1/2-z
1/2+x,1/2+y,-z
-y,1/2+x,1/2-z
-x,1/2+y,z
1/2+x,-y,z
-y,-x,1/2+z
1/2+y,1/2+x,1/2+z
loop_
_atom_site_type_symbol
_atom_site_label
_atom_site_fract_x
_atom_site_fract_y
_atom_site_fract_z
Si Si1 0.454968 0.202373 0.428595
Si Si2 0.168357 0.331643 0.670000
Si Si3 0.389470 0.830018 0.828602
Si Si4 0.169982 0.610530 0.171398
Si Si5 0.797627 0.545032 0.571405
O O1 0.490443 0.250000 0.500000
O O2 0.415630 0.282446 0.374415
O O3 0.536243 0.143531 0.388372
O O4 0.365770 0.134231 0.446295
O O5 0.250000 0.250000 0.675127
O O6 0.141408 0.358593 0.750000
O O7 0.217554 0.415629 0.625585
O O8 0.284389 0.873857 0.834728
O O9 0.373858 0.715611 0.834727
O O10 0.426331 0.850742 0.750000
O O11 0.463756 0.856469 0.888372
O O12 0.750000 0.509557 0.500000
#
# Coordination Sequence:
#
# PCOD9567959 Si02
#       5
#    16  16  16  16  16
#     4  11  21  36  58  86 122 155 190 242 297 352
#     4   9  18  32  54  79 108 154 196 230 283 343
#     4   9  20  41  64  84 113 156 203 249 298 353
#     4   9  20  41  64  84 113 156 203 249 298 353
#     4  11  21  36  58  86 122 155 190 242 297 352
#
# _framework density 21.440311999999999
#
# number of rings (size 3 to 8) (size 9 to 14) (size 15 to 20)
#    0.000    2.200    2.000    2.400    0.000    4.000 
#    3.600    4.000    0.000    0.000    0.000    0.000 
#    0.000    0.000    0.000    0.000    0.000    0.000 
#
# Total GULP energy -446857.342131 kJ/mol
# GULP energy per Si atom -5585.716777 kJ/mol
# Density = 2.139151 g / cm^3
# Si number density = 21.440312 Si / 1000 Ang^3
#
#
#
# Elastic Constant Matrix: (Units=GPa)
#
#
# Indices 1 2 3 4 5 6 
#
# 1 44.1669 -21.6017 8.4201 0.0000 0.0000 0.0000
# 2 -21.6017 44.1668 8.4200 0.0000 0.0000 0.0000
# 3 8.4201 8.4200 111.1484 0.0000 0.0000 0.0000
# 4 0.0000 0.0000 0.0000 12.7783 0.0000 0.0000
# 5 0.0000 0.0000 0.0000 0.0000 12.7783 0.0000
# 6 0.0000 0.0000 0.0000 0.0000 0.0000 4.8159
#
#
#
# Elastic Compliance Matrix: (Units=1/GPa)
#
#
# Indices 1 2 3 4 5 6 
#
# 1 0.031088 0.015883 -0.003558 0.000000 0.000000 0.000000
# 2 0.015883 0.031088 -0.003558 0.000000 0.000000 0.000000
# 3 -0.003558 -0.003558 0.009536 0.000000 0.000000 0.000000
# 4 0.000000 0.000000 0.000000 0.078258 0.000000 0.000000
# 5 0.000000 0.000000 0.000000 0.000000 0.078258 0.000000
# 6 0.000000 0.000000 0.000000 0.000000 0.000000 0.207646
#
#
# Mechanical properties :
#
#
# Convention : Reuss Voigt Hill
#
# Bulk Modulus (GPa) = 11.20498 21.10655 16.15576
# Shear Modulus (GPa) = 11.15850 19.69076 15.42463
#
# Velocity S-wave (km/s) = 2.28380 3.03380 2.68511
# Velocity P-wave (km/s) = 3.49168 4.70506 4.14303
#
# Compressibility (1/GPa) = 0.08924606
#
# Stress axis : x y z
#
# Youngs Moduli (GPa) = 32.16652 32.16649 104.86462
#
# Poissons Ratio (x) = -0.51091 0.37314
# Poissons Ratio (y) = -0.51091 0.37314
# Poissons Ratio (z) = 0.11446 0.11446
#
# Static dielectric constant tensor:
#      x y z
#    x 1.767480 0.000000 0.000000 
#    y 0.000000 1.767480 0.000000 
#    z 0.000000 0.000000 1.759000 
# 
# From -- ./inp_files/6302.got.cif
#   From: 2010.05.17/outbox.cif.g08.bks.cpg/sg133_4_cif.got.tgz:6302.got - 2010.05.20 12:37:36.
