data_PCOD9567631
_publ_section_title
;
Structure prediction by ZEFSAII (Michael W. Deem and Ramdas Pophale) SiO2 
 PCOD9567631
Probable space group: P 42/N B C
;
_chemical_formula_sum "Si O2"
_cell_formula_units_Z 48
_cell_length_a 16.225105
_cell_length_b 16.225105
_cell_length_c 8.998410
_cell_angle_alpha 90.000000
_cell_angle_beta 90.000000
_cell_angle_gamma 90.000000
_cell_volume 2368.867716
_symmetry_space_group_name_H-M "P 42/N B C"
_symmetry_group_IT_number 133
_space_group.IT_coordinate_system_code '2'
_symmetry_cell_setting 'tetragonal'
loop_
_space_group_symop_operation_xyz
x,y,z
1/2-y,x,1/2+z
1/2-x,1/2-y,z
y,1/2-x,1/2+z
x,1/2-y,-z
1/2-x,y,-z
y,x,1/2-z
1/2-y,1/2-x,1/2-z
-x,-y,-z
1/2+y,-x,1/2-z
1/2+x,1/2+y,-z
-y,1/2+x,1/2-z
-x,1/2+y,z
1/2+x,-y,z
-y,-x,1/2+z
1/2+y,1/2+x,1/2+z
loop_
_atom_site_type_symbol
_atom_site_label
_atom_site_fract_x
_atom_site_fract_y
_atom_site_fract_z
Si Si1 0.250000 0.250000 0.750000
Si Si2 0.317891 0.581622 0.393000
Si Si3 0.115078 0.250000 0.500000
Si Si4 0.662224 0.039097 0.058119
Si Si5 0.750000 0.250000 0.250000
O O1 0.171215 0.250260 0.643926
O O2 0.250000 0.540398 0.500000
O O3 0.401181 0.595784 0.485890
O O4 0.337178 0.539421 0.236002
O O5 0.276873 0.669304 0.342892
O O6 0.053972 0.171071 0.499013
O O7 0.750000 0.075576 0.000000
#
# Coordination Sequence:
#
# PCOD9567631 Si02
#       5
#     4  16   8  16   4
#     4  10  20  50  80  74 100 134 216 294 348 314
#     4  12  18  27  48  82 135 183 185 213 258 351
#     4   9  22  42  67 100  98 144 207 280 304 369
#     4  10  19  33  49  91 131 148 211 224 277 354
#     4  12  14  20  38  68 114 172 218 208 214 300
#
# _framework density 20.262846
#
# number of rings (size 3 to 8) (size 9 to 14) (size 15 to 20)
#    1.000    0.333    6.667    0.500    0.000    0.000 
#    6.000    0.000    0.000    6.000    0.000    0.000 
#    0.000    0.000    0.000    0.000    0.000    0.000 
#
# Total GULP energy -267548.954533 kJ/mol
# GULP energy per Si atom -5573.936553 kJ/mol
# Density = 2.021673 g / cm^3
# Si number density = 20.262846 Si / 1000 Ang^3
#
#
#
# Elastic Constant Matrix: (Units=GPa)
#
#
# Indices 1 2 3 4 5 6 
#
# 1 76.7280 7.5840 45.4420 0.0000 0.0000 0.0000
# 2 7.5840 76.7280 45.4420 0.0000 0.0000 0.0000
# 3 45.4420 45.4420 173.3069 0.0000 0.0000 0.0000
# 4 0.0000 0.0000 0.0000 -7.2911 0.0000 0.0000
# 5 0.0000 0.0000 0.0000 0.0000 -7.2911 0.0000
# 6 0.0000 0.0000 0.0000 0.0000 0.0000 -3.5451
#
#
#
# Elastic Compliance Matrix: (Units=1/GPa)
#
#
# Indices 1 2 3 4 5 6 
#
# 1 0.015498 0.001036 -0.004335 0.000000 0.000000 0.000000
# 2 0.001036 0.015498 -0.004335 0.000000 0.000000 0.000000
# 3 -0.004335 -0.004335 0.008044 0.000000 0.000000 0.000000
# 4 0.000000 0.000000 0.000000 -0.137154 0.000000 0.000000
# 5 0.000000 0.000000 0.000000 0.000000 -0.137154 0.000000
# 6 0.000000 0.000000 0.000000 0.000000 0.000000 -0.282077
#
#
# Mechanical properties :
#
#
# Convention : Reuss Voigt Hill
#
# Bulk Modulus (GPa) = 42.06933 58.18875 50.12904
# Shear Modulus (GPa) = -10.11834 11.59421 0.73793
#
# Velocity S-wave (km/s) = -2.23705 2.39465 0.60413
# Velocity P-wave (km/s) = 3.75957 6.03532 5.02789
#
# Compressibility (1/GPa) = 0.02377029
#
# Stress axis : x y z
#
# Youngs Moduli (GPa) = 64.52347 64.52347 124.32287
#
# Poissons Ratio (x) = -0.06683 0.53897
# Poissons Ratio (y) = -0.06683 0.53897
# Poissons Ratio (z) = 0.27973 0.27973
#
# Static dielectric constant tensor:
#      x y z
#    x 1.746050 0.000000 0.000000 
#    y 0.000000 1.746050 0.000000 
#    z 0.000000 0.000000 1.708750 
# 
# From -- ./inp_files/1152.got.cif
#   From: 2010.05.17/outbox.cif.g08.bks.cpg/sg133_1_cif.got.tgz:1152.got - 2010.05.20 12:37:36.
