data_PCOD9567333
_publ_section_title
;
Structure prediction by ZEFSAII (Michael W. Deem and Ramdas Pophale) SiO2 
 PCOD9567333
Probable space group: P 42/M C M
;
_chemical_formula_sum "Si O2"
_cell_formula_units_Z 56
_cell_length_a 18.078721
_cell_length_b 18.078721
_cell_length_c 9.360343
_cell_angle_alpha 90.000000
_cell_angle_beta 90.000000
_cell_angle_gamma 90.000000
_cell_volume 3059.335938
_symmetry_space_group_name_H-M "P 42/M C M"
_symmetry_group_IT_number 132
_symmetry_cell_setting 'tetragonal'
loop_
_space_group_symop_operation_xyz
x,y,z
-y,x,1/2+z
-x,-y,z
y,-x,1/2+z
x,-y,1/2-z
-x,y,1/2-z
y,x,-z
-y,-x,-z
-x,-y,-z
y,-x,1/2-z
x,y,-z
-y,x,1/2-z
-x,y,1/2+z
x,-y,1/2+z
-y,-x,z
y,x,z
loop_
_atom_site_type_symbol
_atom_site_label
_atom_site_fract_x
_atom_site_fract_y
_atom_site_fract_z
Si Si1 0.574390 0.190543 0.838725
Si Si2 0.804668 0.195332 0.334381
Si Si3 0.079049 0.703762 0.173782
Si Si4 0.686666 0.686666 0.750015
Si Si5 0.427682 0.572319 0.337426
O O1 0.500000 0.201297 0.750000
O O2 0.626825 0.122156 0.793765
O O3 0.630122 0.260427 0.833985
O O4 0.550631 0.177522 0.000000
O O5 0.822515 0.177486 0.500000
O O6 0.872112 0.231218 0.245833
O O7 0.741271 0.258729 0.333144
O O8 0.000000 0.703198 0.250000
O O9 0.075597 0.711432 0.000000
O O10 0.634123 0.634123 0.839559
O O11 0.401976 0.500000 0.250000
O O12 0.445753 0.554248 0.500000
#
# Coordination Sequence:
#
# PCOD9567333 Si02
#       5
#    16   8  16   8   8
#     4  10  22  37  55  79 109 144 186 234 285 337
#     4  10  20  36  59  87 114 143 180 223 269 324
#     4  10  21  38  59  85 116 151 187 227 273 326
#     4  10  21  35  55  77 102 137 182 230 279 332
#     4  11  23  36  49  68  94 129 173 222 275 330
#
# _framework density 18.304625999999999
#
# number of rings (size 3 to 8) (size 9 to 14) (size 15 to 20)
#    0.000    1.857    0.000    3.857    0.000   15.429 
#    0.000    2.857    0.000    0.429    0.000    3.000 
#    0.000    0.000    0.000    0.000    0.000    0.000 
#
# Total GULP energy -312273.596327 kJ/mol
# GULP energy per Si atom -5576.314220 kJ/mol
# Density = 1.826296 g / cm^3
# Si number density = 18.304626 Si / 1000 Ang^3
#
#
#
# Elastic Constant Matrix: (Units=GPa)
#
#
# Indices 1 2 3 4 5 6 
#
# 1 9.9318 184.0280 54.1005 0.0000 0.0000 0.0000
# 2 184.0280 9.9264 54.0989 0.0000 0.0000 0.0000
# 3 54.1005 54.0989 111.9553 0.0000 0.0000 0.0000
# 4 0.0000 0.0000 0.0000 14.4779 0.0000 0.0000
# 5 0.0000 0.0000 0.0000 0.0000 14.4781 0.0000
# 6 0.0000 0.0000 0.0000 0.0000 0.0000 20.8816
#
#
#
# Elastic Compliance Matrix: (Units=1/GPa)
#
#
# Indices 1 2 3 4 5 6 
#
# 1 0.000657 0.006401 -0.003411 0.000000 0.000000 0.000000
# 2 0.006401 0.000657 -0.003411 0.000000 0.000000 0.000000
# 3 -0.003411 -0.003411 0.012229 0.000000 0.000000 0.000000
# 4 0.000000 0.000000 0.000000 0.069071 0.000000 0.000000
# 5 0.000000 0.000000 0.000000 0.000000 0.069070 0.000000
# 6 0.000000 0.000000 0.000000 0.000000 0.000000 0.047889
#
#
# Mechanical properties :
#
#
# Convention : Reuss Voigt Hill
#
# Bulk Modulus (GPa) = 78.72664 79.58536 79.15600
# Shear Modulus (GPa) = 24.43219 -0.72675 11.85272
#
# Velocity S-wave (km/s) = 3.65739 -0.63079 2.54741
# Velocity P-wave (km/s) = 7.80627 6.56065 7.21041
#
# Compressibility (1/GPa) = 0.01270218
#
# Stress axis : x y z
#
# Youngs Moduli (GPa) = 1521.10264 1521.46468 81.77562
#
# Poissons Ratio (x) = -9.73920 0.27893
# Poissons Ratio (y) = -9.73688 0.27893
# Poissons Ratio (z) = 5.18828 5.18952
#
# Static dielectric constant tensor:
#      x y z
#    x 1.633380 0.000000 0.000000 
#    y 0.000000 1.633380 0.000000 
#    z 0.000000 0.000000 1.629890 
# 
# From -- ./inp_files/1038.got.cif
#   From: 2010.05.17/outbox.cif.g08.bks.cpg/sg132_1_cif.got.tgz:1038.got - 2010.05.20 12:30:18.
