data_PCOD9567599
_publ_section_title
;
Structure prediction by ZEFSAII (Michael W. Deem and Ramdas Pophale) SiO2 
 PCOD9567599
Probable space group: P 42/N B C
;
_chemical_formula_sum "Si O2"
_cell_formula_units_Z 76
_cell_length_a 14.764460
_cell_length_b 14.764460
_cell_length_c 14.600004
_cell_angle_alpha 90.000000
_cell_angle_beta 90.000000
_cell_angle_gamma 90.000000
_cell_volume 3182.644347
_symmetry_space_group_name_H-M "P 42/N B C"
_symmetry_group_IT_number 133
_space_group.IT_coordinate_system_code '2'
_symmetry_cell_setting 'tetragonal'
loop_
_space_group_symop_operation_xyz
x,y,z
1/2-y,x,1/2+z
1/2-x,1/2-y,z
y,1/2-x,1/2+z
x,1/2-y,-z
1/2-x,y,-z
y,x,1/2-z
1/2-y,1/2-x,1/2-z
-x,-y,-z
1/2+y,-x,1/2-z
1/2+x,1/2+y,-z
-y,1/2+x,1/2-z
-x,1/2+y,z
1/2+x,-y,z
-y,-x,1/2+z
1/2+y,1/2+x,1/2+z
loop_
_atom_site_type_symbol
_atom_site_label
_atom_site_fract_x
_atom_site_fract_y
_atom_site_fract_z
Si Si1 0.057977 0.948393 0.627384
Si Si2 0.970707 0.260327 0.888877
Si Si3 0.250000 0.250000 0.750000
Si Si4 0.645107 0.622800 0.862087
Si Si5 0.885883 0.440966 0.912293
Si Si6 0.250000 0.044765 0.000000
O O1 0.062630 0.919214 0.519347
O O2 0.977031 0.887139 0.669266
O O3 0.162946 0.949189 0.655450
O O4 0.013112 0.047596 0.633960
O O5 0.065435 0.304274 0.857218
O O6 0.898221 0.340842 0.873044
O O7 0.976156 0.250000 0.000000
O O8 0.163867 0.265808 0.684715
O O9 0.669167 0.607695 0.967764
O O10 0.785817 0.480216 0.919848
#
# Coordination Sequence:
#
# PCOD9567599 Si02
#       6
#    16  16   4  16  16   8
#     4   8  15  32  50  73 110 147 179 228 291 360
#     4   9  16  31  58  82 110 146 189 235 295 363
#     4  12  28  38  48  80 120 142 198 262 308 358
#     4  10  23  36  53  81 115 147 194 248 301 369
#     4   8  15  26  47  85 112 134 183 234 282 358
#     4  10  18  33  57  84 122 156 192 246 318 372
#
# _framework density 23.879511999999998
#
# number of rings (size 3 to 8) (size 9 to 14) (size 15 to 20)
#    0.000    2.947    0.000    3.789    5.895    0.000 
#    0.000   14.211    0.000    0.000    0.000    0.000 
#    0.000    0.000    0.000    0.000    0.000    0.000 
#
# Total GULP energy -423384.013091 kJ/mol
# GULP energy per Si atom -5570.842278 kJ/mol
# Density = 2.382516 g / cm^3
# Si number density = 23.879512 Si / 1000 Ang^3
#
#
#
# Elastic Constant Matrix: (Units=GPa)
#
#
# Indices 1 2 3 4 5 6 
#
# 1 163.2618 66.0768 16.3195 0.0000 0.0000 0.0000
# 2 66.0768 163.2618 16.3195 0.0000 0.0000 0.0000
# 3 16.3195 16.3195 32.5098 0.0000 0.0000 0.0000
# 4 0.0000 0.0000 0.0000 19.0577 0.0000 0.0000
# 5 0.0000 0.0000 0.0000 0.0000 19.0577 0.0000
# 6 0.0000 0.0000 0.0000 0.0000 0.0000 36.6559
#
#
#
# Elastic Compliance Matrix: (Units=1/GPa)
#
#
# Indices 1 2 3 4 5 6 
#
# 1 0.007493 -0.002797 -0.002357 0.000000 0.000000 0.000000
# 2 -0.002797 0.007493 -0.002357 0.000000 0.000000 0.000000
# 3 -0.002357 -0.002357 0.033127 0.000000 0.000000 0.000000
# 4 0.000000 0.000000 0.000000 0.052472 0.000000 0.000000
# 5 0.000000 0.000000 0.000000 0.000000 0.052472 0.000000
# 6 0.000000 0.000000 0.000000 0.000000 0.000000 0.027281
#
#
# Mechanical properties :
#
#
# Convention : Reuss Voigt Hill
#
# Bulk Modulus (GPa) = 30.22130 61.82943 46.02537
# Shear Modulus (GPa) = 24.22603 32.30878 28.26740
#
# Velocity S-wave (km/s) = 3.18859 3.68229 3.44430
# Velocity P-wave (km/s) = 5.12244 6.63532 5.92735
#
# Compressibility (1/GPa) = 0.03308924
#
# Stress axis : x y z
#
# Youngs Moduli (GPa) = 133.46233 133.46233 30.18726
#
# Poissons Ratio (x) = 0.37328 0.07116
# Poissons Ratio (y) = 0.37328 0.07116
# Poissons Ratio (z) = 0.31460 0.31460
#
# Static dielectric constant tensor:
#      x y z
#    x 1.916230 0.000000 0.000000 
#    y 0.000000 1.916230 0.000000 
#    z 0.000000 0.000000 2.016460 
# 
# From -- ./inp_files/6358.got.cif
#   From: 2010.05.17/outbox.cif.g08.bks.cpg/sg133_4_cif.got.tgz:6358.got - 2010.05.20 12:37:36.
