data_PCOD9567822
_publ_section_title
;
Structure prediction by ZEFSAII (Michael W. Deem and Ramdas Pophale) SiO2 
 PCOD9567822
Probable space group: P 42/N B C
;
_chemical_formula_sum "Si O2"
_cell_formula_units_Z 84
_cell_length_a 21.647115
_cell_length_b 21.647115
_cell_length_c 10.990898
_cell_angle_alpha 90.000000
_cell_angle_beta 90.000000
_cell_angle_gamma 90.000000
_cell_volume 5150.308291
_symmetry_space_group_name_H-M "P 42/N B C"
_symmetry_group_IT_number 133
_space_group.IT_coordinate_system_code '2'
_symmetry_cell_setting 'tetragonal'
loop_
_space_group_symop_operation_xyz
x,y,z
1/2-y,x,1/2+z
1/2-x,1/2-y,z
y,1/2-x,1/2+z
x,1/2-y,-z
1/2-x,y,-z
y,x,1/2-z
1/2-y,1/2-x,1/2-z
-x,-y,-z
1/2+y,-x,1/2-z
1/2+x,1/2+y,-z
-y,1/2+x,1/2-z
-x,1/2+y,z
1/2+x,-y,z
-y,-x,1/2+z
1/2+y,1/2+x,1/2+z
loop_
_atom_site_type_symbol
_atom_site_label
_atom_site_fract_x
_atom_site_fract_y
_atom_site_fract_z
Si Si1 0.349297 0.585992 0.457300
Si Si2 0.430509 0.024752 0.623047
Si Si3 0.769928 0.120784 0.321745
Si Si4 0.536007 0.582411 0.374660
Si Si5 0.250000 0.750000 0.250000
Si Si6 0.689764 0.445845 0.079300
O O1 0.373820 0.521542 0.404346
O O2 0.312020 0.583796 0.582871
O O3 0.300722 0.611427 0.359802
O O4 0.403332 0.636011 0.480651
O O5 0.438015 0.061986 0.750000
O O6 0.433532 0.069652 0.506262
O O7 0.486117 0.974080 0.627233
O O8 0.779646 0.194651 0.327538
O O9 0.785211 0.094438 0.191008
O O10 0.574213 0.574213 0.250000
O O11 0.503754 0.649193 0.376393
O O12 0.750000 0.460960 0.000000
#
# Coordination Sequence:
#
# PCOD9567822 Si02
#       6
#    16  16  16  16   4  16
#     4  10  22  33  49  67  99 137 174 218 264 294
#     4   9  18  32  52  70  89 123 171 219 261 315
#     4  11  22  34  46  68 101 139 179 221 244 302
#     4   9  18  33  51  70  93 125 165 212 264 312
#     4  12  20  34  48  64  98 148 194 204 248 286
#     4  11  22  32  50  72  99 130 175 222 257 297
#
# _framework density 16.309702999999999
#
# number of rings (size 3 to 8) (size 9 to 14) (size 15 to 20)
#    0.000    1.905    1.905    2.286    2.667    3.810 
#    0.000    0.000    0.000    0.000    0.000    0.000 
#    0.000    0.000    0.000   25.714    0.000    0.000 
#
# Total GULP energy -467610.221350 kJ/mol
# GULP energy per Si atom -5566.788349 kJ/mol
# Density = 1.627258 g / cm^3
# Si number density = 16.309703 Si / 1000 Ang^3
#
#
#
# Elastic Constant Matrix: (Units=GPa)
#
#
# Indices 1 2 3 4 5 6 
#
# 1 61.1638 42.2541 39.7983 0.0000 0.0000 0.0000
# 2 42.2541 61.1634 39.7982 0.0000 0.0000 0.0000
# 3 39.7983 39.7982 98.5686 0.0000 0.0000 0.0000
# 4 0.0000 0.0000 0.0000 18.1564 0.0000 0.0000
# 5 0.0000 0.0000 0.0000 0.0000 18.1565 0.0000
# 6 0.0000 0.0000 0.0000 0.0000 0.0000 27.1552
#
#
#
# Elastic Compliance Matrix: (Units=1/GPa)
#
#
# Indices 1 2 3 4 5 6 
#
# 1 0.033456 -0.019427 -0.005664 0.000000 0.000000 0.000000
# 2 -0.019427 0.033457 -0.005665 0.000000 0.000000 0.000000
# 3 -0.005664 -0.005665 0.014719 0.000000 0.000000 0.000000
# 4 0.000000 0.000000 0.000000 0.055077 0.000000 0.000000
# 5 0.000000 0.000000 0.000000 0.000000 0.055077 0.000000
# 6 0.000000 0.000000 0.000000 0.000000 0.000000 0.036825
#
#
# Mechanical properties :
#
#
# Convention : Reuss Voigt Hill
#
# Bulk Modulus (GPa) = 49.70178 51.62191 50.66184
# Shear Modulus (GPa) = 16.84465 19.29662 18.07063
#
# Velocity S-wave (km/s) = 3.21721 3.44341 3.33223
# Velocity P-wave (km/s) = 6.65886 6.89414 6.77752
#
# Compressibility (1/GPa) = 0.02012000
#
# Stress axis : x y z
#
# Youngs Moduli (GPa) = 29.88974 29.88954 67.93741
#
# Poissons Ratio (x) = 0.58067 0.38483
# Poissons Ratio (y) = 0.58067 0.38483
# Poissons Ratio (z) = 0.16931 0.16931
#
# Static dielectric constant tensor:
#      x y z
#    x 1.561340 0.000000 0.000000 
#    y 0.000000 1.561340 0.000000 
#    z 0.000000 0.000000 1.586510 
# 
# From -- ./inp_files/3283.got.cif
#   From: 2010.05.17/outbox.cif.g08.bks.cpg/sg133_2_cif.got.tgz:3283.got - 2010.05.20 12:37:36.
