data_PCOD9567774
_publ_section_title
;
Structure prediction by ZEFSAII (Michael W. Deem and Ramdas Pophale) SiO2 
 PCOD9567774
Probable space group: P 42/N B C
;
_chemical_formula_sum "Si O2"
_cell_formula_units_Z 96
_cell_length_a 23.984916
_cell_length_b 23.984916
_cell_length_c 9.667191
_cell_angle_alpha 90.000000
_cell_angle_beta 90.000000
_cell_angle_gamma 90.000000
_cell_volume 5561.304860
_symmetry_space_group_name_H-M "P 42/N B C"
_symmetry_group_IT_number 133
_space_group.IT_coordinate_system_code '2'
_symmetry_cell_setting 'tetragonal'
loop_
_space_group_symop_operation_xyz
x,y,z
1/2-y,x,1/2+z
1/2-x,1/2-y,z
y,1/2-x,1/2+z
x,1/2-y,-z
1/2-x,y,-z
y,x,1/2-z
1/2-y,1/2-x,1/2-z
-x,-y,-z
1/2+y,-x,1/2-z
1/2+x,1/2+y,-z
-y,1/2+x,1/2-z
-x,1/2+y,z
1/2+x,-y,z
-y,-x,1/2+z
1/2+y,1/2+x,1/2+z
loop_
_atom_site_type_symbol
_atom_site_label
_atom_site_fract_x
_atom_site_fract_y
_atom_site_fract_z
Si Si1 0.805938 0.027352 0.086337
Si Si2 0.305585 0.396918 0.585600
Si Si3 0.134891 0.871461 0.466520
Si Si4 0.805670 0.602312 0.914339
Si Si5 0.822599 0.305522 0.717668
Si Si6 0.305961 0.526598 0.585608
O O1 0.795782 0.033794 0.250709
O O2 0.820326 0.962606 0.060073
O O3 0.750000 0.040148 0.000000
O O4 0.853390 0.070943 0.044506
O O5 0.250000 0.383566 0.500000
O O6 0.355793 0.355491 0.549665
O O7 0.294527 0.391926 0.750053
O O8 0.319895 0.461820 0.559524
O O9 0.163585 0.866198 0.317125
O O10 0.165780 0.825931 0.563391
O O11 0.147160 0.930871 0.534295
O O12 0.750000 0.615139 0.000000
O O13 0.824681 0.239385 0.737911
O O14 0.250000 0.539913 0.500000
#
# Coordination Sequence:
#
# PCOD9567774 Si02
#       6
#    16  16  16  16  16  16
#     4  10  21  36  55  77 104 143 185 224 266 318
#     4   9  19  37  60  85 113 142 174 215 264 320
#     4  12  22  33  51  74 102 140 182 226 272 319
#     4   9  19  37  60  85 113 142 174 215 264 320
#     4  11  22  34  48  70 101 134 176 230 285 324
#     4  10  21  36  55  77 104 143 185 224 266 318
#
# _framework density 17.262136000000002
#
# number of rings (size 3 to 8) (size 9 to 14) (size 15 to 20)
#    0.000    1.833    1.667    3.000    2.333    2.333 
#    0.000    2.500    0.000    0.000    0.000    0.000 
#    0.000    0.000    0.000    0.000    0.000    0.000 
#
# Total GULP energy -536021.159582 kJ/mol
# GULP energy per Si atom -5583.553746 kJ/mol
# Density = 1.722285 g / cm^3
# Si number density = 17.262136 Si / 1000 Ang^3
#
#
#
# Elastic Constant Matrix: (Units=GPa)
#
#
# Indices 1 2 3 4 5 6 
#
# 1 106.0918 82.6518 43.3422 0.0000 0.0000 0.0000
# 2 82.6518 106.0918 43.3422 0.0000 0.0000 0.0000
# 3 43.3422 43.3422 54.5113 0.0000 0.0000 0.0000
# 4 0.0000 0.0000 0.0000 25.4099 0.0000 0.0000
# 5 0.0000 0.0000 0.0000 0.0000 25.4099 0.0000
# 6 0.0000 0.0000 0.0000 0.0000 0.0000 30.8762
#
#
#
# Elastic Compliance Matrix: (Units=1/GPa)
#
#
# Indices 1 2 3 4 5 6 
#
# 1 0.025504 -0.017158 -0.006636 0.000000 0.000000 0.000000
# 2 -0.017158 0.025504 -0.006636 0.000000 0.000000 0.000000
# 3 -0.006636 -0.006636 0.028897 0.000000 0.000000 0.000000
# 4 0.000000 0.000000 0.000000 0.039355 0.000000 0.000000
# 5 0.000000 0.000000 0.000000 0.000000 0.039355 0.000000
# 6 0.000000 0.000000 0.000000 0.000000 0.000000 0.032387
#
#
# Mechanical properties :
#
#
# Convention : Reuss Voigt Hill
#
# Bulk Modulus (GPa) = 52.50566 67.26302 59.88434
# Shear Modulus (GPa) = 19.36410 22.82979 21.09695
#
# Velocity S-wave (km/s) = 3.35291 3.64061 3.49972
# Velocity P-wave (km/s) = 6.74330 7.53142 7.14823
#
# Compressibility (1/GPa) = 0.01904557
#
# Stress axis : x y z
#
# Youngs Moduli (GPa) = 39.20968 39.20968 34.60554
#
# Poissons Ratio (x) = 0.67276 0.22964
# Poissons Ratio (y) = 0.67276 0.22964
# Poissons Ratio (z) = 0.26019 0.26019
#
# Static dielectric constant tensor:
#      x y z
#    x 1.573860 0.000000 0.000000 
#    y 0.000000 1.573860 0.000000 
#    z 0.000000 0.000000 1.583340 
# 
# From -- ./inp_files/1928.got.cif
#   From: 2010.05.17/outbox.cif.g08.bks.cpg/sg133_1_cif.got.tgz:1928.got - 2010.05.20 12:37:36.
