data_PCOD9567130
_publ_section_title
;
Structure prediction by ZEFSAII (Michael W. Deem and Ramdas Pophale) SiO2 
 PCOD9567130
Probable space group: P 42/M C M
;
_chemical_formula_sum "Si O2"
_cell_formula_units_Z 80
_cell_length_a 12.611438
_cell_length_b 12.611438
_cell_length_c 26.617629
_cell_angle_alpha 90.000000
_cell_angle_beta 90.000000
_cell_angle_gamma 90.000000
_cell_volume 4233.490464
_symmetry_space_group_name_H-M "P 42/M C M"
_symmetry_group_IT_number 132
_symmetry_cell_setting 'tetragonal'
loop_
_space_group_symop_operation_xyz
x,y,z
-y,x,1/2+z
-x,-y,z
y,-x,1/2+z
x,-y,1/2-z
-x,y,1/2-z
y,x,-z
-y,-x,-z
-x,-y,-z
y,-x,1/2-z
x,y,-z
-y,x,1/2-z
-x,y,1/2+z
x,-y,1/2+z
-y,-x,z
y,x,z
loop_
_atom_site_type_symbol
_atom_site_label
_atom_site_fract_x
_atom_site_fract_y
_atom_site_fract_z
Si Si1 0.104308 0.282598 0.441330
Si Si2 0.516900 0.799396 0.058443
Si Si3 0.498425 0.331112 0.147597
Si Si4 0.715991 0.105155 0.380454
Si Si5 0.108884 0.542226 0.306912
O O1 0.070571 0.268160 0.500000
O O2 0.205927 0.205927 0.433337
O O3 0.137269 0.406034 0.435910
O O4 0.010152 0.256519 0.402607
O O5 0.501862 0.689782 0.088189
O O6 0.617613 0.854793 0.084785
O O7 0.537669 0.786368 0.000000
O O8 0.593369 0.406632 0.162839
O O9 0.389703 0.389703 0.162047
O O10 0.505786 0.215978 0.171064
O O11 0.812631 0.187369 0.384050
O O12 0.665314 0.107528 0.324135
O O13 0.107786 0.500000 0.250000
O O14 0.000000 0.500000 0.330673
#
# Coordination Sequence:
#
# PCOD9567130 Si02
#       5
#    16  16  16  16  16
#     4  10  21  36  56  84 118 159 202 237 274 328
#     4  10  19  33  53  78 113 154 193 230 268 318
#     4  10  21  35  53  81 114 145 178 220 275 337
#     4  11  22  36  57  85 115 146 185 234 286 340
#     4  10  21  38  59  80 104 136 180 231 282 338
#
# _framework density 18.896937000000001
#
# number of rings (size 3 to 8) (size 9 to 14) (size 15 to 20)
#    0.000    1.800    0.000    6.600    0.000    7.600 
#    0.000    3.000    0.000    2.400    0.000    0.000 
#    0.000    0.000    0.000    0.000    0.000    0.000 
#
# Total GULP energy -445853.629772 kJ/mol
# GULP energy per Si atom -5573.170372 kJ/mol
# Density = 1.885393 g / cm^3
# Si number density = 18.896937 Si / 1000 Ang^3
#
#
#
# Elastic Constant Matrix: (Units=GPa)
#
#
# Indices 1 2 3 4 5 6 
#
# 1 89.3930 32.5499 26.1675 0.0000 0.0000 0.0000
# 2 32.5499 89.3930 26.1675 0.0000 0.0000 0.0000
# 3 26.1675 26.1675 81.4654 0.0000 0.0000 0.0000
# 4 0.0000 0.0000 0.0000 11.4918 0.0000 0.0000
# 5 0.0000 0.0000 0.0000 0.0000 11.4918 0.0000
# 6 0.0000 0.0000 0.0000 0.0000 0.0000 22.5066
#
#
#
# Elastic Compliance Matrix: (Units=1/GPa)
#
#
# Indices 1 2 3 4 5 6 
#
# 1 0.013552 -0.004040 -0.003055 0.000000 0.000000 0.000000
# 2 -0.004040 0.013552 -0.003055 0.000000 0.000000 0.000000
# 3 -0.003055 -0.003055 0.014238 0.000000 0.000000 0.000000
# 4 0.000000 0.000000 0.000000 0.087018 0.000000 0.000000
# 5 0.000000 0.000000 0.000000 0.000000 0.087018 0.000000
# 6 0.000000 0.000000 0.000000 0.000000 0.000000 0.044431
#
#
# Mechanical properties :
#
#
# Convention : Reuss Voigt Hill
#
# Bulk Modulus (GPa) = 47.52764 47.78016 47.65390
# Shear Modulus (GPa) = 17.41402 20.78916 19.10159
#
# Velocity S-wave (km/s) = 3.03896 3.32042 3.18280
# Velocity P-wave (km/s) = 6.12530 6.32770 6.22732
#
# Compressibility (1/GPa) = 0.02104039
#
# Stress axis : x y z
#
# Youngs Moduli (GPa) = 73.78960 73.78960 70.23492
#
# Poissons Ratio (x) = 0.29813 0.21459
# Poissons Ratio (y) = 0.29813 0.21459
# Poissons Ratio (z) = 0.22545 0.22545
#
# Static dielectric constant tensor:
#      x y z
#    x 1.659550 0.000000 0.000000 
#    y 0.000000 1.659550 0.000000 
#    z 0.000000 0.000000 1.756390 
# 
# From -- ./inp_files/10643.got.cif
#   From: 2010.05.17/outbox.cif.g08.bks.cpg/sg132_6_cif.got.tgz:10643.got - 2010.05.20 12:30:18.
