data_PCOD9567281
_publ_section_title
;
Structure prediction by ZEFSAII (Michael W. Deem and Ramdas Pophale) SiO2 
 PCOD9567281
Probable space group: P 42/M C M
;
_chemical_formula_sum "Si O2"
_cell_formula_units_Z 96
_cell_length_a 24.842899
_cell_length_b 24.842899
_cell_length_c 8.527045
_cell_angle_alpha 90.000000
_cell_angle_beta 90.000000
_cell_angle_gamma 90.000000
_cell_volume 5262.633214
_symmetry_space_group_name_H-M "P 42/M C M"
_symmetry_group_IT_number 132
_symmetry_cell_setting 'tetragonal'
loop_
_space_group_symop_operation_xyz
x,y,z
-y,x,1/2+z
-x,-y,z
y,-x,1/2+z
x,-y,1/2-z
-x,y,1/2-z
y,x,-z
-y,-x,-z
-x,-y,-z
y,-x,1/2-z
x,y,-z
-y,x,1/2-z
-x,y,1/2+z
x,-y,1/2+z
-y,-x,z
y,x,z
loop_
_atom_site_type_symbol
_atom_site_label
_atom_site_fract_x
_atom_site_fract_y
_atom_site_fract_z
Si Si1 0.644151 0.142901 0.189955
Si Si2 0.058121 0.267246 0.310991
Si Si3 0.057767 0.143902 0.689355
Si Si4 0.439371 0.351728 0.187965
Si Si5 0.560663 0.942482 0.813025
Si Si6 0.354678 0.267174 0.689658
O O1 0.695974 0.107842 0.239239
O O2 0.594411 0.108168 0.252749
O O3 0.645927 0.205037 0.241898
O O4 0.642120 0.143086 0.000000
O O5 0.056300 0.268132 0.500000
O O6 0.065266 0.205571 0.258388
O O7 0.000000 0.286148 0.250000
O O8 0.057226 0.143838 0.500000
O O9 0.105171 0.105171 0.743615
O O10 0.000000 0.125042 0.750000
O O11 0.500000 0.353540 0.250000
O O12 0.403816 0.403816 0.237068
O O13 0.406263 0.300046 0.249200
O O14 0.440335 0.350185 0.000000
O O15 0.500000 0.938036 0.750000
O O16 0.582232 0.000000 0.750000
O O17 0.560692 0.944227 0.000000
O O18 0.356154 0.267404 0.500000
O O19 0.302081 0.302081 0.737721
#
# Coordination Sequence:
#
# PCOD9567281 Si02
#       6
#    16  16  16  16  16  16
#     4  10  20  34  54  80 106 136 177 218 258 310
#     4   9  18  32  50  72  99 130 165 208 256 305
#     4   9  18  32  49  70  97 129 165 206 253 305
#     4  10  21  37  58  83 111 143 177 215 259 306
#     4  11  22  37  56  78 107 140 174 215 264 313
#     4   9  19  36  56  78 107 142 178 218 262 307
#
# _framework density 18.241817999999999
#
# number of rings (size 3 to 8) (size 9 to 14) (size 15 to 20)
#    0.000    2.333    0.000    3.000    0.000    5.667 
#    0.000    5.000    0.000    0.000    0.000    4.667 
#    0.000    0.000    0.000    0.000    0.000    0.000 
#
# Total GULP energy -535681.888371 kJ/mol
# GULP energy per Si atom -5580.019671 kJ/mol
# Density = 1.820030 g / cm^3
# Si number density = 18.241818 Si / 1000 Ang^3
#
#
#
# Elastic Constant Matrix: (Units=GPa)
#
#
# Indices 1 2 3 4 5 6 
#
# 1 170.6680 102.6013 30.5222 0.0000 0.0000 0.0000
# 2 102.6013 170.6680 30.5222 0.0000 0.0000 0.0000
# 3 30.5222 30.5222 25.4536 0.0000 0.0000 0.0000
# 4 0.0000 0.0000 0.0000 20.6714 0.0000 0.0000
# 5 0.0000 0.0000 0.0000 0.0000 20.6714 0.0000
# 6 0.0000 0.0000 0.0000 0.0000 0.0000 54.3345
#
#
#
# Elastic Compliance Matrix: (Units=1/GPa)
#
#
# Indices 1 2 3 4 5 6 
#
# 1 0.009845 -0.004847 -0.005994 0.000000 0.000000 0.000000
# 2 -0.004847 0.009845 -0.005994 0.000000 0.000000 0.000000
# 3 -0.005994 -0.005994 0.053662 0.000000 0.000000 0.000000
# 4 0.000000 0.000000 0.000000 0.048376 0.000000 0.000000
# 5 0.000000 0.000000 0.000000 0.000000 0.048376 0.000000
# 6 0.000000 0.000000 0.000000 0.000000 0.000000 0.018405
#
#
# Mechanical properties :
#
#
# Convention : Reuss Voigt Hill
#
# Bulk Modulus (GPa) = 25.19929 77.12010 51.15970
# Shear Modulus (GPa) = 21.24014 32.67838 26.95926
#
# Velocity S-wave (km/s) = 3.41598 4.23708 3.84849
# Velocity P-wave (km/s) = 5.42242 8.14282 6.91766
#
# Compressibility (1/GPa) = 0.03968366
#
# Stress axis : x y z
#
# Youngs Moduli (GPa) = 101.57565 101.57565 18.63533
#
# Poissons Ratio (x) = 0.49230 0.11169
# Poissons Ratio (y) = 0.49230 0.11169
# Poissons Ratio (z) = 0.60880 0.60880
#
# Static dielectric constant tensor:
#      x y z
#    x 1.617360 0.000000 0.000000 
#    y 0.000000 1.617360 0.000000 
#    z 0.000000 0.000000 1.618870 
# 
# From -- ./inp_files/1761.got.cif
#   From: 2010.05.17/outbox.cif.g08.bks.cpg/sg132_1_cif.got.tgz:1761.got - 2010.05.20 12:30:18.
