data_PCOD9567279
_publ_section_title
;
Structure prediction by ZEFSAII (Michael W. Deem and Ramdas Pophale) SiO2 
 PCOD9567279
Probable space group: P 42/M C M
;
_chemical_formula_sum "Si O2"
_cell_formula_units_Z 96
_cell_length_a 24.695923
_cell_length_b 24.695923
_cell_length_c 8.745881
_cell_angle_alpha 90.000000
_cell_angle_beta 90.000000
_cell_angle_gamma 90.000000
_cell_volume 5334.013231
_symmetry_space_group_name_H-M "P 42/M C M"
_symmetry_group_IT_number 132
_symmetry_cell_setting 'tetragonal'
loop_
_space_group_symop_operation_xyz
x,y,z
-y,x,1/2+z
-x,-y,z
y,-x,1/2+z
x,-y,1/2-z
-x,y,1/2-z
y,x,-z
-y,-x,-z
-x,-y,-z
y,-x,1/2-z
x,y,-z
-y,x,1/2-z
-x,y,1/2+z
x,-y,1/2+z
-y,-x,z
y,x,z
loop_
_atom_site_type_symbol
_atom_site_label
_atom_site_fract_x
_atom_site_fract_y
_atom_site_fract_z
Si Si1 0.056831 0.439783 0.182521
Si Si2 0.732723 0.355463 0.184585
Si Si3 0.264529 0.942592 0.182591
Si Si4 0.858472 0.357443 0.184299
Si Si5 0.057097 0.854485 0.682961
Si Si6 0.560163 0.350985 0.316762
O O1 0.062160 0.500000 0.250000
O O2 0.107938 0.405130 0.236637
O O3 0.000000 0.417582 0.250000
O O4 0.053097 0.441418 0.000000
O O5 0.698222 0.301779 0.227565
O O6 0.795629 0.353865 0.230614
O O7 0.700411 0.406227 0.254156
O O8 0.730978 0.359582 0.000000
O O9 0.303610 0.892813 0.220286
O O10 0.205006 0.933302 0.249642
O O11 0.284257 0.000000 0.250000
O O12 0.261507 0.947841 0.000000
O O13 0.860173 0.365017 0.000000
O O14 0.053199 0.850918 0.500000
O O15 0.104859 0.895142 0.724377
O O16 0.000000 0.873997 0.750000
O O17 0.500000 0.353376 0.250000
O O18 0.557654 0.348128 0.500000
O O19 0.596310 0.403691 0.274374
#
# Coordination Sequence:
#
# PCOD9567279 Si02
#       6
#    16  16  16  16  16  16
#     4  11  22  37  57  80 110 145 180 222 272 320
#     4   9  19  37  58  79 108 145 182 222 267 314
#     4  10  20  34  54  78 106 139 175 219 268 318
#     4  10  21  36  56  83 110 140 182 224 265 319
#     4  10  21  36  54  77 105 137 174 217 266 321
#     4  10  21  37  58  84 113 145 181 221 266 315
#
# _framework density 17.997706000000001
#
# number of rings (size 3 to 8) (size 9 to 14) (size 15 to 20)
#    0.000    2.000    0.000    5.000    0.000    7.333 
#    0.000    3.333    0.000    2.000    0.000    0.000 
#    0.000    0.000    0.000    0.000    0.000    0.000 
#
# Total GULP energy -536044.883143 kJ/mol
# GULP energy per Si atom -5583.800866 kJ/mol
# Density = 1.795674 g / cm^3
# Si number density = 17.997706 Si / 1000 Ang^3
#
#
#
# Elastic Constant Matrix: (Units=GPa)
#
#
# Indices 1 2 3 4 5 6 
#
# 1 165.0393 101.2354 57.6520 0.0000 0.0000 0.0000
# 2 101.2354 165.0393 57.6520 0.0000 0.0000 0.0000
# 3 57.6520 57.6520 57.7250 0.0000 0.0000 0.0000
# 4 0.0000 0.0000 0.0000 13.1850 0.0000 0.0000
# 5 0.0000 0.0000 0.0000 0.0000 13.1850 0.0000
# 6 0.0000 0.0000 0.0000 0.0000 0.0000 20.0726
#
#
#
# Elastic Compliance Matrix: (Units=1/GPa)
#
#
# Indices 1 2 3 4 5 6 
#
# 1 0.011145 -0.004528 -0.006609 0.000000 0.000000 0.000000
# 2 -0.004528 0.011145 -0.006609 0.000000 0.000000 0.000000
# 3 -0.006609 -0.006609 0.030525 0.000000 0.000000 0.000000
# 4 0.000000 0.000000 0.000000 0.075844 0.000000 0.000000
# 5 0.000000 0.000000 0.000000 0.000000 0.075844 0.000000
# 6 0.000000 0.000000 0.000000 0.000000 0.000000 0.049819
#
#
# Mechanical properties :
#
#
# Convention : Reuss Voigt Hill
#
# Bulk Modulus (GPa) = 57.72489 91.20915 74.46702
# Shear Modulus (GPa) = 16.91542 20.70615 18.81078
#
# Velocity S-wave (km/s) = 3.06905 3.39556 3.23643
# Velocity P-wave (km/s) = 6.68594 8.13396 7.44524
#
# Compressibility (1/GPa) = 0.01732355
#
# Stress axis : x y z
#
# Youngs Moduli (GPa) = 89.72465 89.72465 32.76015
#
# Poissons Ratio (x) = 0.40626 0.21651
# Poissons Ratio (y) = 0.40626 0.21651
# Poissons Ratio (z) = 0.59299 0.59299
#
# Static dielectric constant tensor:
#      x y z
#    x 1.602650 0.000000 0.000000 
#    y 0.000000 1.602650 0.000000 
#    z 0.000000 0.000000 1.599910 
# 
# From -- ./inp_files/1790.got.cif
#   From: 2010.05.17/outbox.cif.g08.bks.cpg/sg132_1_cif.got.tgz:1790.got - 2010.05.20 12:30:18.
