data_PCOD9567976
_publ_section_title
;
Structure prediction by ZEFSAII (Michael W. Deem and Ramdas Pophale) SiO2 
 PCOD9567976
Probable space group: P 42/N B C
;
_chemical_formula_sum "Si O2"
_cell_formula_units_Z 64
_cell_length_a 11.634038
_cell_length_b 11.634038
_cell_length_c 21.471433
_cell_angle_alpha 90.000000
_cell_angle_beta 90.000000
_cell_angle_gamma 90.000000
_cell_volume 2906.176497
_symmetry_space_group_name_H-M "P 42/N B C"
_symmetry_group_IT_number 133
_space_group.IT_coordinate_system_code '2'
_symmetry_cell_setting 'tetragonal'
loop_
_space_group_symop_operation_xyz
x,y,z
1/2-y,x,1/2+z
1/2-x,1/2-y,z
y,1/2-x,1/2+z
x,1/2-y,-z
1/2-x,y,-z
y,x,1/2-z
1/2-y,1/2-x,1/2-z
-x,-y,-z
1/2+y,-x,1/2-z
1/2+x,1/2+y,-z
-y,1/2+x,1/2-z
-x,1/2+y,z
1/2+x,-y,z
-y,-x,1/2+z
1/2+y,1/2+x,1/2+z
loop_
_atom_site_type_symbol
_atom_site_label
_atom_site_fract_x
_atom_site_fract_y
_atom_site_fract_z
Si Si1 0.733873 0.439060 0.255624
Si Si2 0.293431 0.442073 0.614280
Si Si3 0.655256 0.325551 0.436950
Si Si4 0.574183 0.719596 0.632843
O O1 0.849614 0.364362 0.266138
O O2 0.691867 0.495490 0.319408
O O3 0.760301 0.536569 0.204321
O O4 0.300721 0.543508 0.563644
O O5 0.387844 0.343072 0.605753
O O6 0.175197 0.371416 0.621349
O O7 0.750000 0.250000 0.400348
O O8 0.639762 0.250000 0.500000
O O9 0.536582 0.325664 0.401996
#
# Coordination Sequence:
#
# PCOD9567976 Si02
#       4
#    16  16  16  16
#     4  11  22  37  68 106 148 186 229 285 363 436
#     4  11  25  44  69 106 143 183 240 294 358 429
#     4  11  26  48  71  98 137 186 236 288 357 417
#     4  11  25  44  70 106 141 186 235 298 357 426
#
# _framework density 22.022064
#
# number of rings (size 3 to 8) (size 9 to 14) (size 15 to 20)
#    0.000    1.000    2.500    3.000    7.000    5.000 
#    4.500    1.250    0.000    0.000    0.000    0.000 
#    0.000    0.000    0.000    0.000    0.000    0.000 
#
# Total GULP energy -357662.855115 kJ/mol
# GULP energy per Si atom -5588.482111 kJ/mol
# Density = 2.197194 g / cm^3
# Si number density = 22.022064 Si / 1000 Ang^3
#
#
#
# Elastic Constant Matrix: (Units=GPa)
#
#
# Indices 1 2 3 4 5 6 
#
# 1 123.6352 54.3294 25.6357 0.0000 0.0000 0.0000
# 2 54.3294 123.6352 25.6357 0.0000 0.0000 0.0000
# 3 25.6357 25.6357 90.3483 0.0000 0.0000 0.0000
# 4 0.0000 0.0000 0.0000 13.2426 0.0000 0.0000
# 5 0.0000 0.0000 0.0000 0.0000 13.2426 0.0000
# 6 0.0000 0.0000 0.0000 0.0000 0.0000 19.8137
#
#
#
# Elastic Compliance Matrix: (Units=1/GPa)
#
#
# Indices 1 2 3 4 5 6 
#
# 1 0.010274 -0.004155 -0.001736 0.000000 0.000000 0.000000
# 2 -0.004155 0.010274 -0.001736 0.000000 0.000000 0.000000
# 3 -0.001736 -0.001736 0.012054 0.000000 0.000000 0.000000
# 4 0.000000 0.000000 0.000000 0.075514 0.000000 0.000000
# 5 0.000000 0.000000 0.000000 0.000000 0.075514 0.000000
# 6 0.000000 0.000000 0.000000 0.000000 0.000000 0.050470
#
#
# Mechanical properties :
#
#
# Convention : Reuss Voigt Hill
#
# Bulk Modulus (GPa) = 57.64685 60.98002 59.31343
# Shear Modulus (GPa) = 19.59733 24.72763 22.16248
#
# Velocity S-wave (km/s) = 2.98635 3.35454 3.17578
# Velocity P-wave (km/s) = 6.17452 6.53869 6.35921
#
# Compressibility (1/GPa) = 0.01734700
#
# Stress axis : x y z
#
# Youngs Moduli (GPa) = 97.33240 97.33240 82.96271
#
# Poissons Ratio (x) = 0.40439 0.14405
# Poissons Ratio (y) = 0.40439 0.14405
# Poissons Ratio (z) = 0.16900 0.16900
#
# Static dielectric constant tensor:
#      x y z
#    x 1.794250 0.000000 0.000000 
#    y 0.000000 1.794250 0.000000 
#    z 0.000000 0.000000 1.852780 
# 
# From -- ./inp_files/6150.got.cif
#   From: 2010.05.17/outbox.cif.g08.bks.cpg/sg133_4_cif.got.tgz:6150.got - 2010.05.20 12:37:36.
