data_PCOD9567823
_publ_section_title
;
Structure prediction by ZEFSAII (Michael W. Deem and Ramdas Pophale) SiO2 
 PCOD9567823
Probable space group: P 42/N B C
;
_chemical_formula_sum "Si O2"
_cell_formula_units_Z 92
_cell_length_a 25.146790
_cell_length_b 25.146790
_cell_length_c 8.567536
_cell_angle_alpha 90.000000
_cell_angle_beta 90.000000
_cell_angle_gamma 90.000000
_cell_volume 5417.776038
_symmetry_space_group_name_H-M "P 42/N B C"
_symmetry_group_IT_number 133
_space_group.IT_coordinate_system_code '2'
_symmetry_cell_setting 'tetragonal'
loop_
_space_group_symop_operation_xyz
x,y,z
1/2-y,x,1/2+z
1/2-x,1/2-y,z
y,1/2-x,1/2+z
x,1/2-y,-z
1/2-x,y,-z
y,x,1/2-z
1/2-y,1/2-x,1/2-z
-x,-y,-z
1/2+y,-x,1/2-z
1/2+x,1/2+y,-z
-y,1/2+x,1/2-z
-x,1/2+y,z
1/2+x,-y,z
-y,-x,1/2+z
1/2+y,1/2+x,1/2+z
loop_
_atom_site_type_symbol
_atom_site_label
_atom_site_fract_x
_atom_site_fract_y
_atom_site_fract_z
Si Si1 0.855039 0.376504 0.091867
Si Si2 0.463449 0.691551 0.801103
Si Si3 0.250000 0.660772 0.000000
Si Si4 0.250000 0.750000 0.750000
Si Si5 0.410579 0.012945 0.818735
Si Si6 0.949897 0.312974 0.162688
Si Si7 0.959631 0.414572 0.376947
O O1 0.832612 0.406686 0.244425
O O2 0.886767 0.323385 0.133458
O O3 0.803705 0.371368 0.984335
O O4 0.896117 0.413924 0.999461
O O5 0.503394 0.652289 0.710039
O O6 0.462190 0.754735 0.768206
O O7 0.472274 0.685660 0.986007
O O8 0.259414 0.699001 0.145007
O O9 0.440876 0.965846 0.720261
O O10 0.432704 0.067297 0.750000
O O11 0.424416 0.007299 0.001921
O O12 0.968074 0.363488 0.265235
#
# Coordination Sequence:
#
# PCOD9567823 Si02
#       7
#    16  16   8   4  16  16  16
#     4  11  21  34  50  65  93 124 170 216 255 307
#     4  10  22  34  51  74  96 132 171 208 266 305
#     4  11  26  36  46  60  88 126 168 216 268 293
#     4  10  28  38  36  58  84 114 180 202 260 306
#     4  11  21  36  54  75 100 126 169 218 258 314
#     4  11  20  34  54  70  99 129 165 221 253 309
#     4  11  20  35  52  77  94 125 172 210 267 304
#
# _framework density 16.981138000000001
#
# number of rings (size 3 to 8) (size 9 to 14) (size 15 to 20)
#    0.000    1.217    5.217    1.565    7.304    3.478 
#    0.000    0.000    0.000    0.000    0.000    0.000 
#    0.000    0.000    0.000    0.000    0.000   56.522 
#
# Total GULP energy -513310.589548 kJ/mol
# GULP energy per Si atom -5579.462930 kJ/mol
# Density = 1.694249 g / cm^3
# Si number density = 16.981138 Si / 1000 Ang^3
#
#
#
# Elastic Constant Matrix: (Units=GPa)
#
#
# Indices 1 2 3 4 5 6 
#
# 1 38.6470 13.6403 -0.5234 0.0000 0.0000 0.0000
# 2 13.6403 38.6407 -0.5255 0.0000 0.0000 0.0000
# 3 -0.5234 -0.5255 69.9148 0.0000 0.0000 0.0000
# 4 0.0000 0.0000 0.0000 24.4444 0.0000 0.0000
# 5 0.0000 0.0000 0.0000 0.0000 24.4449 0.0000
# 6 0.0000 0.0000 0.0000 0.0000 0.0000 16.9831
#
#
#
# Elastic Compliance Matrix: (Units=1/GPa)
#
#
# Indices 1 2 3 4 5 6 
#
# 1 0.029559 -0.010433 0.000143 0.000000 0.000000 0.000000
# 2 -0.010433 0.029564 0.000144 0.000000 0.000000 0.000000
# 3 0.000143 0.000144 0.014305 0.000000 0.000000 0.000000
# 4 0.000000 0.000000 0.000000 0.040909 0.000000 0.000000
# 5 0.000000 0.000000 0.000000 0.000000 0.040908 0.000000
# 6 0.000000 0.000000 0.000000 0.000000 0.000000 0.058882
#
#
# Mechanical properties :
#
#
# Convention : Reuss Voigt Hill
#
# Bulk Modulus (GPa) = 18.81908 19.15391 18.98650
# Shear Modulus (GPa) = 19.83091 22.14858 20.98974
#
# Velocity S-wave (km/s) = 3.42105 3.61543 3.51958
# Velocity P-wave (km/s) = 5.16828 5.36027 5.26515
#
# Compressibility (1/GPa) = 0.05313755
#
# Stress axis : x y z
#
# Youngs Moduli (GPa) = 33.83033 33.82479 69.90427
#
# Poissons Ratio (x) = 0.35288 -0.00999
# Poissons Ratio (y) = 0.35294 -0.01007
# Poissons Ratio (z) = -0.00483 -0.00487
#
# Static dielectric constant tensor:
#      x y z
#    x 1.582470 0.000000 0.000000 
#    y 0.000000 1.582470 0.000000 
#    z 0.000000 0.000000 1.657360 
# 
# From -- ./inp_files/2042.got.cif
#   From: 2010.05.17/outbox.cif.g08.bks.cpg/sg133_2_cif.got.tgz:2042.got - 2010.05.20 12:37:36.
