data_PCOD9567228
_publ_section_title
;
Structure prediction by ZEFSAII (Michael W. Deem and Ramdas Pophale) SiO2 
 PCOD9567228
Probable space group: P 42/M C M
;
_chemical_formula_sum "Si O2"
_cell_formula_units_Z 72
_cell_length_a 15.003398
_cell_length_b 15.003398
_cell_length_c 17.708483
_cell_angle_alpha 90.000000
_cell_angle_beta 90.000000
_cell_angle_gamma 90.000000
_cell_volume 3986.214082
_symmetry_space_group_name_H-M "P 42/M C M"
_symmetry_group_IT_number 132
_symmetry_cell_setting 'tetragonal'
loop_
_space_group_symop_operation_xyz
x,y,z
-y,x,1/2+z
-x,-y,z
y,-x,1/2+z
x,-y,1/2-z
-x,y,1/2-z
y,x,-z
-y,-x,-z
-x,-y,-z
y,-x,1/2-z
x,y,-z
-y,x,1/2-z
-x,y,1/2+z
x,-y,1/2+z
-y,-x,z
y,x,z
loop_
_atom_site_type_symbol
_atom_site_label
_atom_site_fract_x
_atom_site_fract_y
_atom_site_fract_z
Si Si1 0.410650 0.737096 0.210567
Si Si2 0.133875 0.445283 0.587760
Si Si3 0.073284 0.073284 0.408293
Si Si4 0.991051 0.730068 0.588196
Si Si5 0.389647 0.083971 0.193525
O O1 0.500000 0.701567 0.250000
O O2 0.332227 0.667774 0.214160
O O3 0.428923 0.770361 0.125594
O O4 0.387629 0.827374 0.256578
O O5 0.135526 0.470394 0.500000
O O6 0.079053 0.352410 0.593340
O O7 0.093314 0.526146 0.637061
O O8 0.072036 0.072036 0.500000
O O9 0.174654 0.048181 0.387014
O O10 0.000000 0.000000 0.382822
O O11 0.017120 0.737063 0.500000
O O12 0.069561 0.697373 0.642492
O O13 0.397057 0.000000 0.250000
#
# Coordination Sequence:
#
# PCOD9567228 Si02
#       5
#    16  16   8  16  16
#     4  10  23  39  59  84 114 150 190 234 288 344
#     4  10  21  34  57  89 118 144 184 234 291 351
#     4   9  20  38  54  74 108 154 202 234 263 316
#     4  10  20  32  55  81 111 153 189 231 280 330
#     4  11  21  35  56  84 119 150 178 231 298 349
#
# _framework density 18.062251
#
# number of rings (size 3 to 8) (size 9 to 14) (size 15 to 20)
#    0.000    1.889    2.222    1.333    7.778    3.333 
#    0.000    0.000    0.000   16.000    0.000    6.222 
#    0.000    0.000    0.000    0.000    0.000    0.000 
#
# Total GULP energy -401711.070153 kJ/mol
# GULP energy per Si atom -5579.320419 kJ/mol
# Density = 1.802114 g / cm^3
# Si number density = 18.062251 Si / 1000 Ang^3
#
#
#
# Elastic Constant Matrix: (Units=GPa)
#
#
# Indices 1 2 3 4 5 6 
#
# 1 92.9234 65.6243 40.4257 0.0000 0.0000 0.0000
# 2 65.6243 92.9234 40.4257 0.0000 0.0000 0.0000
# 3 40.4257 40.4257 104.8112 0.0000 0.0000 0.0000
# 4 0.0000 0.0000 0.0000 12.2847 0.0000 0.0000
# 5 0.0000 0.0000 0.0000 0.0000 12.2847 0.0000
# 6 0.0000 0.0000 0.0000 0.0000 0.0000 35.0697
#
#
#
# Elastic Compliance Matrix: (Units=1/GPa)
#
#
# Indices 1 2 3 4 5 6 
#
# 1 0.022241 -0.014390 -0.003028 0.000000 0.000000 0.000000
# 2 -0.014390 0.022241 -0.003028 0.000000 0.000000 0.000000
# 3 -0.003028 -0.003028 0.011877 0.000000 0.000000 0.000000
# 4 0.000000 0.000000 0.000000 0.081402 0.000000 0.000000
# 5 0.000000 0.000000 0.000000 0.000000 0.081402 0.000000
# 6 0.000000 0.000000 0.000000 0.000000 0.000000 0.028515
#
#
# Mechanical properties :
#
#
# Convention : Reuss Voigt Hill
#
# Bulk Modulus (GPa) = 64.65480 64.84549 64.75015
# Shear Modulus (GPa) = 17.02255 21.53994 19.28124
#
# Velocity S-wave (km/s) = 3.07325 3.45706 3.27079
# Velocity P-wave (km/s) = 6.96178 7.20514 7.08451
#
# Compressibility (1/GPa) = 0.01546676
#
# Stress axis : x y z
#
# Youngs Moduli (GPa) = 44.96111 44.96111 84.19603
#
# Poissons Ratio (x) = 0.64699 0.25498
# Poissons Ratio (y) = 0.64699 0.25498
# Poissons Ratio (z) = 0.13616 0.13616
#
# Static dielectric constant tensor:
#      x y z
#    x 1.621990 0.000000 0.000000 
#    y 0.000000 1.621990 0.000000 
#    z 0.000000 0.000000 1.648510 
# 
# From -- ./inp_files/6093.got.cif
#   From: 2010.05.17/outbox.cif.g08.bks.cpg/sg132_4_cif.got.tgz:6093.got - 2010.05.20 12:30:18.
