data_PCOD9567078
_publ_section_title
;
Structure prediction by ZEFSAII (Michael W. Deem and Ramdas Pophale) SiO2 
 PCOD9567078
Probable space group: P 42/M C M
;
_chemical_formula_sum "Si O2"
_cell_formula_units_Z 64
_cell_length_a 10.258960
_cell_length_b 10.258960
_cell_length_c 32.424297
_cell_angle_alpha 90.000000
_cell_angle_beta 90.000000
_cell_angle_gamma 90.000000
_cell_volume 3412.536002
_symmetry_space_group_name_H-M "P 42/M C M"
_symmetry_group_IT_number 132
_symmetry_cell_setting 'tetragonal'
loop_
_space_group_symop_operation_xyz
x,y,z
-y,x,1/2+z
-x,-y,z
y,-x,1/2+z
x,-y,1/2-z
-x,y,1/2-z
y,x,-z
-y,-x,-z
-x,-y,-z
y,-x,1/2-z
x,y,-z
-y,x,1/2-z
-x,y,1/2+z
x,-y,1/2+z
-y,-x,z
y,x,z
loop_
_atom_site_type_symbol
_atom_site_label
_atom_site_fract_x
_atom_site_fract_y
_atom_site_fract_z
Si Si1 0.209369 0.000246 0.583791
Si Si2 0.505589 0.280690 0.295496
Si Si3 0.598675 0.816809 0.377480
Si Si4 0.404995 0.812959 0.545514
O O1 0.116756 0.116756 0.567632
O O2 0.302072 0.063095 0.618166
O O3 0.303063 0.931665 0.550889
O O4 0.112317 0.887684 0.599421
O O5 0.500000 0.218695 0.250000
O O6 0.639953 0.360048 0.301259
O O7 0.392069 0.392069 0.294567
O O8 0.476915 0.190291 0.334462
O O9 0.686705 0.686705 0.380388
O O10 0.504404 0.820255 0.416847
O O11 0.465585 0.817431 0.500000
O O12 0.318191 0.681810 0.548793
#
# Coordination Sequence:
#
# PCOD9567078 Si02
#       4
#    16  16  16  16
#     4   9  19  35  52  70  95 130 173 217 253 286
#     4   8  14  26  46  74 106 134 160 195 242 298
#     4  10  19  31  51  78 106 135 165 201 250 305
#     4  10  21  35  51  73 101 133 168 207 253 304
#
# _framework density 18.754380999999999
#
# number of rings (size 3 to 8) (size 9 to 14) (size 15 to 20)
#    0.000    2.750    0.000    2.250    0.000    4.500 
#    0.000    6.250    0.000    3.000    0.000    5.250 
#    0.000   14.000    0.000    0.000    0.000    0.000 
#
# Total GULP energy -356732.943458 kJ/mol
# GULP energy per Si atom -5573.952242 kJ/mol
# Density = 1.871170 g / cm^3
# Si number density = 18.754381 Si / 1000 Ang^3
#
#
#
# Elastic Constant Matrix: (Units=GPa)
#
#
# Indices 1 2 3 4 5 6 
#
# 1 63.3881 20.7926 55.5639 0.0000 0.0000 0.0000
# 2 20.7926 63.3881 55.5639 0.0000 0.0000 0.0000
# 3 55.5639 55.5639 167.3918 0.0000 0.0000 0.0000
# 4 0.0000 0.0000 0.0000 10.6973 0.0000 0.0000
# 5 0.0000 0.0000 0.0000 0.0000 10.6973 0.0000
# 6 0.0000 0.0000 0.0000 0.0000 0.0000 14.1078
#
#
#
# Elastic Compliance Matrix: (Units=1/GPa)
#
#
# Indices 1 2 3 4 5 6 
#
# 1 0.022311 -0.001166 -0.007019 0.000000 0.000000 0.000000
# 2 -0.001166 0.022311 -0.007019 0.000000 0.000000 0.000000
# 3 -0.007019 -0.007019 0.010634 0.000000 0.000000 0.000000
# 4 0.000000 0.000000 0.000000 0.093482 0.000000 0.000000
# 5 0.000000 0.000000 0.000000 0.000000 0.093482 0.000000
# 6 0.000000 0.000000 0.000000 0.000000 0.000000 0.070883
#
#
# Mechanical properties :
#
#
# Convention : Reuss Voigt Hill
#
# Bulk Modulus (GPa) = 40.24461 62.00095 51.12278
# Shear Modulus (GPa) = 14.21300 17.91699 16.06500
#
# Velocity S-wave (km/s) = 2.75589 3.09423 2.92995
# Velocity P-wave (km/s) = 5.62423 6.77472 6.22611
#
# Compressibility (1/GPa) = 0.02484805
#
# Stress axis : x y z
#
# Youngs Moduli (GPa) = 44.82152 44.82152 94.04140
#
# Poissons Ratio (x) = 0.05226 0.66005
# Poissons Ratio (y) = 0.05226 0.66005
# Poissons Ratio (z) = 0.31459 0.31459
#
# Static dielectric constant tensor:
#      x y z
#    x 1.672580 0.000000 0.000000 
#    y 0.000000 1.672580 0.000000 
#    z 0.000000 0.000000 1.631080 
# 
# From -- ./inp_files/8716.got.cif
#   From: 2010.05.17/outbox.cif.g08.bks.cpg/sg132_5_cif.got.tgz:8716.got - 2010.05.20 12:30:18.
