data_PCOD9567735
_publ_section_title
;
Structure prediction by ZEFSAII (Michael W. Deem and Ramdas Pophale) SiO2 
 PCOD9567735
Probable space group: P 42/N B C
;
_chemical_formula_sum "Si O2"
_cell_formula_units_Z 88
_cell_length_a 15.851113
_cell_length_b 15.851113
_cell_length_c 15.558556
_cell_angle_alpha 90.000000
_cell_angle_beta 90.000000
_cell_angle_gamma 90.000000
_cell_volume 3909.208293
_symmetry_space_group_name_H-M "P 42/N B C"
_symmetry_group_IT_number 133
_space_group.IT_coordinate_system_code '2'
_symmetry_cell_setting 'tetragonal'
loop_
_space_group_symop_operation_xyz
x,y,z
1/2-y,x,1/2+z
1/2-x,1/2-y,z
y,1/2-x,1/2+z
x,1/2-y,-z
1/2-x,y,-z
y,x,1/2-z
1/2-y,1/2-x,1/2-z
-x,-y,-z
1/2+y,-x,1/2-z
1/2+x,1/2+y,-z
-y,1/2+x,1/2-z
-x,1/2+y,z
1/2+x,-y,z
-y,-x,1/2+z
1/2+y,1/2+x,1/2+z
loop_
_atom_site_type_symbol
_atom_site_label
_atom_site_fract_x
_atom_site_fract_y
_atom_site_fract_z
Si Si1 0.022766 0.477235 0.750000
Si Si2 0.310980 0.569042 0.323084
Si Si3 0.310186 0.451805 0.570900
Si Si4 0.414788 0.565558 0.073767
Si Si5 0.605277 0.262650 0.641175
Si Si6 0.560423 0.827494 0.555169
O O1 0.109144 0.510632 0.704536
O O2 0.037054 0.535736 0.837918
O O3 0.245253 0.506214 0.365731
O O4 0.263974 0.606006 0.239697
O O5 0.339098 0.653976 0.373474
O O6 0.250000 0.412638 0.500000
O O7 0.371332 0.521388 0.527976
O O8 0.369343 0.378608 0.605581
O O9 0.326438 0.614542 0.092145
O O10 0.387294 0.488159 0.013627
O O11 0.510909 0.291866 0.617237
O O12 0.595783 0.750000 0.500000
#
# Coordination Sequence:
#
# PCOD9567735 Si02
#       6
#     8  16  16  16  16  16
#     4  10  20  38  62  85 116 159 208 252 296 370
#     4  11  22  37  59  90 122 159 204 251 309 374
#     4  12  24  37  60  89 119 156 200 255 312 373
#     4  10  21  39  64  89 119 159 203 257 317 384
#     4  10  22  39  62  89 124 164 201 254 316 379
#     4  10  22  42  62  84 118 163 211 255 309 377
#
# _framework density 22.510952
#
# number of rings (size 3 to 8) (size 9 to 14) (size 15 to 20)
#    0.000    1.455    0.000    6.000    0.000    3.636 
#    0.000    0.909    0.000    9.818    0.000    0.000 
#    0.000    0.000    0.000    0.000    0.000    0.000 
#
# Total GULP energy -490484.815504 kJ/mol
# GULP energy per Si atom -5573.691085 kJ/mol
# Density = 2.245972 g / cm^3
# Si number density = 22.510952 Si / 1000 Ang^3
#
#
#
# Elastic Constant Matrix: (Units=GPa)
#
#
# Indices 1 2 3 4 5 6 
#
# 1 72.1290 78.6134 8.9193 0.0000 0.0000 0.0000
# 2 78.6134 72.1285 8.9194 0.0000 0.0000 0.0000
# 3 8.9193 8.9194 26.6085 0.0000 0.0000 0.0000
# 4 0.0000 0.0000 0.0000 20.0052 0.0000 0.0000
# 5 0.0000 0.0000 0.0000 0.0000 20.0052 0.0000
# 6 0.0000 0.0000 0.0000 0.0000 0.0000 45.3945
#
#
#
# Elastic Compliance Matrix: (Units=1/GPa)
#
#
# Indices 1 2 3 4 5 6 
#
# 1 -0.073651 0.080559 -0.002316 0.000000 0.000000 0.000000
# 2 0.080559 -0.073652 -0.002315 0.000000 0.000000 0.000000
# 3 -0.002316 -0.002315 0.039134 0.000000 0.000000 0.000000
# 4 0.000000 0.000000 0.000000 0.049987 0.000000 0.000000
# 5 0.000000 0.000000 0.000000 0.000000 0.049987 0.000000
# 6 0.000000 0.000000 0.000000 0.000000 0.000000 0.022029
#
#
# Mechanical properties :
#
#
# Convention : Reuss Voigt Hill
#
# Bulk Modulus (GPa) = 22.88965 40.41892 31.65428
# Shear Modulus (GPa) = -40.49962 22.04189 -9.22887
#
# Velocity S-wave (km/s) = -4.24619 3.13255 -2.02697
# Velocity P-wave (km/s) = 3.72154 5.57477 2.93498
#
# Compressibility (1/GPa) = 0.04368787
#
# Stress axis : x y z
#
# Youngs Moduli (GPa) = -13.57758 -13.57745 25.55294
#
# Poissons Ratio (x) = 1.09379 0.05918
# Poissons Ratio (y) = 1.09380 0.05916
# Poissons Ratio (z) = -0.03145 -0.03143
#
# Static dielectric constant tensor:
#      x y z
#    x 1.868870 0.000000 0.000000 
#    y 0.000000 1.868870 0.000000 
#    z 0.000000 0.000000 1.862130 
# 
# From -- ./inp_files/6393.got.cif
#   From: 2010.05.17/outbox.cif.g08.bks.cpg/sg133_4_cif.got.tgz:6393.got - 2010.05.20 12:37:36.
