data_PCOD9567054
_publ_section_title
;
Structure prediction by ZEFSAII (Michael W. Deem and Ramdas Pophale) SiO2 
 PCOD9567054
Probable space group: P 42/M C M
;
_chemical_formula_sum "Si O2"
_cell_formula_units_Z 74
_cell_length_a 25.772622
_cell_length_b 25.772622
_cell_length_c 7.857275
_cell_angle_alpha 90.000000
_cell_angle_beta 90.000000
_cell_angle_gamma 90.000000
_cell_volume 5219.022410
_symmetry_space_group_name_H-M "P 42/M C M"
_symmetry_group_IT_number 132
_symmetry_cell_setting 'tetragonal'
loop_
_space_group_symop_operation_xyz
x,y,z
-y,x,1/2+z
-x,-y,z
y,-x,1/2+z
x,-y,1/2-z
-x,y,1/2-z
y,x,-z
-y,-x,-z
-x,-y,-z
y,-x,1/2-z
x,y,-z
-y,x,1/2-z
-x,y,1/2+z
x,-y,1/2+z
-y,-x,z
y,x,z
loop_
_atom_site_type_symbol
_atom_site_label
_atom_site_fract_x
_atom_site_fract_y
_atom_site_fract_z
Si Si1 0.311838 0.222695 0.000000
Si Si2 0.922327 0.077674 0.801311
Si Si3 0.000000 0.000000 0.750000
Si Si4 0.272384 0.361618 0.311876
Si Si5 0.643820 0.559778 0.203376
Si Si6 0.059150 0.800062 0.200566
Si Si7 0.863353 0.773859 0.000000
O O1 0.346937 0.232166 0.165665
O O2 0.268910 0.268910 0.000000
O O3 0.278227 0.170808 0.000000
O O4 0.862117 0.065791 0.776091
O O5 0.958085 0.041916 0.685039
O O6 0.934750 0.065251 0.000000
O O7 0.249376 0.361833 0.500000
O O8 0.316888 0.316888 0.306530
O O9 0.304363 0.414138 0.278101
O O10 0.637865 0.500000 0.250000
O O11 0.594908 0.594908 0.261182
O O12 0.647223 0.564715 0.000000
O O13 0.100372 0.776406 0.332659
O O14 0.000000 0.786349 0.250000
O O15 0.068559 0.788702 0.000000
O O16 0.822946 0.822946 0.000000
#
# Coordination Sequence:
#
# PCOD9567054 Si02
#       7
#     8   8   2  16  16  16   8
#     4   9  18  32  48  68  87 112 148 194 245 281
#     4  10  21  30  40  60  81 105 146 190 226 268
#     4  12  18  28  44  62  76 110 160 198 230 272
#     4   9  16  29  48  66  88 117 152 197 243 285
#     4  10  19  30  44  64  94 131 173 216 247 280
#     4  11  21  34  48  62  85 117 147 183 233 279
#     4  11  22  34  50  68  90 113 149 197 233 281
#
# _framework density 14.178901
#
# number of rings (size 3 to 8) (size 9 to 14) (size 15 to 20)
#    0.000    1.946    4.324    0.811    0.000    2.378 
#    1.946    3.243    0.000    0.000    0.000    0.000 
#    0.000    0.000    0.000    0.000    0.000    3.243 
#
# Total GULP energy -412331.303031 kJ/mol
# GULP energy per Si atom -5572.044636 kJ/mol
# Density = 1.414663 g / cm^3
# Si number density = 14.178901 Si / 1000 Ang^3
#
#
#
# Elastic Constant Matrix: (Units=GPa)
#
#
# Indices 1 2 3 4 5 6 
#
# 1 63.3178 50.1548 49.0506 0.0000 0.0000 0.0000
# 2 50.1548 63.3179 49.0506 0.0000 0.0000 0.0000
# 3 49.0506 49.0506 117.7753 0.0000 0.0000 0.0000
# 4 0.0000 0.0000 0.0000 8.6361 0.0000 0.0000
# 5 0.0000 0.0000 0.0000 0.0000 8.6361 0.0000
# 6 0.0000 0.0000 0.0000 0.0000 0.0000 20.8189
#
#
#
# Elastic Compliance Matrix: (Units=1/GPa)
#
#
# Indices 1 2 3 4 5 6 
#
# 1 0.044871 -0.031100 -0.005735 0.000000 0.000000 0.000000
# 2 -0.031100 0.044871 -0.005735 0.000000 0.000000 0.000000
# 3 -0.005735 -0.005735 0.013268 0.000000 0.000000 0.000000
# 4 0.000000 0.000000 0.000000 0.115793 0.000000 0.000000
# 5 0.000000 0.000000 0.000000 0.000000 0.115793 0.000000
# 6 0.000000 0.000000 0.000000 0.000000 0.000000 0.048033
#
#
# Mechanical properties :
#
#
# Convention : Reuss Voigt Hill
#
# Bulk Modulus (GPa) = 55.96324 60.10255 58.03290
# Shear Modulus (GPa) = 10.55464 14.02854 12.29159
#
# Velocity S-wave (km/s) = 2.73131 3.14888 2.94750
# Velocity P-wave (km/s) = 7.03575 7.46333 7.25269
#
# Compressibility (1/GPa) = 0.01786887
#
# Stress axis : x y z
#
# Youngs Moduli (GPa) = 22.28622 22.28631 75.36930
#
# Poissons Ratio (x) = 0.69309 0.43227
# Poissons Ratio (y) = 0.69309 0.43226
# Poissons Ratio (z) = 0.12782 0.12782
#
# Static dielectric constant tensor:
#      x y z
#    x 1.446440 0.000000 0.000000 
#    y 0.000000 1.446440 0.000000 
#    z 0.000000 0.000000 1.531200 
# 
# From -- ./inp_files/1583.got.cif
#   From: 2010.05.17/outbox.cif.g08.bks.cpg/sg132_1_cif.got.tgz:1583.got - 2010.05.20 12:30:18.
