data_PCOD9567381
_publ_section_title
;
Structure prediction by ZEFSAII (Michael W. Deem and Ramdas Pophale) SiO2 
 PCOD9567381
Probable space group: P 42/M C M
;
_chemical_formula_sum "Si O2"
_cell_formula_units_Z 96
_cell_length_a 24.757729
_cell_length_b 24.757729
_cell_length_c 8.754378
_cell_angle_alpha 90.000000
_cell_angle_beta 90.000000
_cell_angle_gamma 90.000000
_cell_volume 5365.953495
_symmetry_space_group_name_H-M "P 42/M C M"
_symmetry_group_IT_number 132
_symmetry_cell_setting 'tetragonal'
loop_
_space_group_symop_operation_xyz
x,y,z
-y,x,1/2+z
-x,-y,z
y,-x,1/2+z
x,-y,1/2-z
-x,y,1/2-z
y,x,-z
-y,-x,-z
-x,-y,-z
y,-x,1/2-z
x,y,-z
-y,x,1/2-z
-x,y,1/2+z
x,-y,1/2+z
-y,-x,z
y,x,z
loop_
_atom_site_type_symbol
_atom_site_label
_atom_site_fract_x
_atom_site_fract_y
_atom_site_fract_z
Si Si1 0.269715 0.356082 0.682837
Si Si2 0.440863 0.353352 0.180945
Si Si3 0.940658 0.440275 0.315274
Si Si4 0.146120 0.059253 0.682332
Si Si5 0.151213 0.353590 0.184359
Si Si6 0.856652 0.770049 0.815842
O O1 0.266558 0.355711 0.500000
O O2 0.300491 0.300491 0.731765
O O3 0.308290 0.404102 0.738819
O O4 0.210729 0.364596 0.751792
O O5 0.500000 0.354105 0.250000
O O6 0.409872 0.409872 0.204872
O O7 0.442493 0.342652 0.000000
O O8 0.927832 0.500000 0.250000
O O9 0.943440 0.442784 0.500000
O O10 0.894824 0.396685 0.270610
O O11 0.000000 0.425678 0.250000
O O12 0.150070 0.057237 0.500000
O O13 0.091610 0.091610 0.723835
O O14 0.194775 0.095160 0.747415
O O15 0.146653 0.000000 0.750000
O O16 0.139163 0.291959 0.233081
O O17 0.153566 0.354573 0.000000
O O18 0.800936 0.800936 0.771748
O O19 0.859731 0.771573 0.000000
#
# Coordination Sequence:
#
# PCOD9567381 Si02
#       6
#    16  16  16  16  16  16
#     4  10  21  36  55  81 113 147 183 225 270 317
#     4  10  21  37  57  80 109 146 185 228 277 326
#     4  10  21  38  58  79 106 139 175 217 266 316
#     4  10  21  36  54  77 106 140 178 221 267 315
#     4  10  21  36  57  84 110 141 180 219 265 323
#     4   9  18  34  55  78 107 141 175 215 264 317
#
# _framework density 17.890575999999999
#
# number of rings (size 3 to 8) (size 9 to 14) (size 15 to 20)
#    0.000    2.167    0.000    3.000    0.000    7.333 
#    0.000    6.667    0.000    0.000    0.000    0.000 
#    0.000    0.000    0.000    0.000    0.000    0.000 
#
# Total GULP energy -535810.726069 kJ/mol
# GULP energy per Si atom -5581.361730 kJ/mol
# Density = 1.784986 g / cm^3
# Si number density = 17.890576 Si / 1000 Ang^3
#
#
#
# Elastic Constant Matrix: (Units=GPa)
#
#
# Indices 1 2 3 4 5 6 
#
# 1 181.5151 70.7093 40.1998 0.0000 0.0000 0.0000
# 2 70.7093 181.5151 40.1998 0.0000 0.0000 0.0000
# 3 40.1998 40.1998 24.2545 0.0000 0.0000 0.0000
# 4 0.0000 0.0000 0.0000 24.6280 0.0000 0.0000
# 5 0.0000 0.0000 0.0000 0.0000 24.6280 0.0000
# 6 0.0000 0.0000 0.0000 0.0000 0.0000 19.9243
#
#
#
# Elastic Compliance Matrix: (Units=1/GPa)
#
#
# Indices 1 2 3 4 5 6 
#
# 1 0.008715 -0.000310 -0.013932 0.000000 0.000000 0.000000
# 2 -0.000310 0.008715 -0.013932 0.000000 0.000000 0.000000
# 3 -0.013932 -0.013932 0.087410 0.000000 0.000000 0.000000
# 4 0.000000 0.000000 0.000000 0.040604 0.000000 0.000000
# 5 0.000000 0.000000 0.000000 0.000000 0.040604 0.000000
# 6 0.000000 0.000000 0.000000 0.000000 0.000000 0.050190
#
#
# Mechanical properties :
#
#
# Convention : Reuss Voigt Hill
#
# Bulk Modulus (GPa) = 20.62060 76.61140 48.61600
# Shear Modulus (GPa) = 16.19435 29.58111 22.88773
#
# Velocity S-wave (km/s) = 3.01190 4.07067 3.58064
# Velocity P-wave (km/s) = 4.86275 8.06281 6.65790
#
# Compressibility (1/GPa) = 0.04849519
#
# Stress axis : x y z
#
# Youngs Moduli (GPa) = 114.74214 114.74214 11.44030
#
# Poissons Ratio (x) = 0.03552 0.15938
# Poissons Ratio (y) = 0.03552 0.15938
# Poissons Ratio (z) = 1.59854 1.59854
#
# Static dielectric constant tensor:
#      x y z
#    x 1.600270 0.000000 0.000000 
#    y 0.000000 1.600270 0.000000 
#    z 0.000000 0.000000 1.599250 
# 
# From -- ./inp_files/1760.got.cif
#   From: 2010.05.17/outbox.cif.g08.bks.cpg/sg132_1_cif.got.tgz:1760.got - 2010.05.20 12:30:18.
