data_PCOD9567075
_publ_section_title
;
Structure prediction by ZEFSAII (Michael W. Deem and Ramdas Pophale) SiO2 
 PCOD9567075
Probable space group: P 42/M C M
;
_chemical_formula_sum "Si O2"
_cell_formula_units_Z 64
_cell_length_a 14.628762
_cell_length_b 14.628762
_cell_length_c 15.023758
_cell_angle_alpha 90.000000
_cell_angle_beta 90.000000
_cell_angle_gamma 90.000000
_cell_volume 3215.094393
_symmetry_space_group_name_H-M "P 42/M C M"
_symmetry_group_IT_number 132
_symmetry_cell_setting 'tetragonal'
loop_
_space_group_symop_operation_xyz
x,y,z
-y,x,1/2+z
-x,-y,z
y,-x,1/2+z
x,-y,1/2-z
-x,y,1/2-z
y,x,-z
-y,-x,-z
-x,-y,-z
y,-x,1/2-z
x,y,-z
-y,x,1/2-z
-x,y,1/2+z
x,-y,1/2+z
-y,-x,z
y,x,z
loop_
_atom_site_type_symbol
_atom_site_label
_atom_site_fract_x
_atom_site_fract_y
_atom_site_fract_z
Si Si1 0.825763 0.971312 0.398928
Si Si2 0.322030 0.819039 0.867049
Si Si3 0.895521 0.511780 0.858344
Si Si4 0.285946 0.144945 0.842048
O O1 0.847021 0.000529 0.500000
O O2 0.914508 0.914508 0.363746
O O3 0.744516 0.897088 0.404208
O O4 0.780996 0.056949 0.348268
O O5 0.278216 0.721785 0.890582
O O6 0.426763 0.835733 0.891500
O O7 0.308210 0.834166 0.761033
O O8 0.894399 0.500000 0.750000
O O9 0.869062 0.614557 0.883653
O O10 0.000000 0.500000 0.886471
O O11 0.229367 0.229367 0.880059
#
# Coordination Sequence:
#
# PCOD9567075 Si02
#       4
#    16  16  16  16
#     4  10  20  32  46  67  98 131 158 190 235 279
#     4   9  17  31  51  71  92 121 160 196 230 277
#     4   9  15  27  49  71  93 118 151 197 240 269
#     4  10  19  31  49  70  92 124 163 196 227 275
#
# _framework density 19.906103999999999
#
# number of rings (size 3 to 8) (size 9 to 14) (size 15 to 20)
#    0.000    2.500    2.500    0.750    0.000    1.000 
#    0.000    3.750    0.000    5.250    0.000    5.250 
#    0.000    0.000    0.000    8.500    0.000    9.000 
#
# Total GULP energy -356892.484052 kJ/mol
# GULP energy per Si atom -5576.445063 kJ/mol
# Density = 1.986080 g / cm^3
# Si number density = 19.906104 Si / 1000 Ang^3
#
#
#
# Elastic Constant Matrix: (Units=GPa)
#
#
# Indices 1 2 3 4 5 6 
#
# 1 160.3946 115.4958 9.5994 0.0000 0.0000 0.0000
# 2 115.4958 160.3946 9.5994 0.0000 0.0000 0.0000
# 3 9.5994 9.5994 37.9058 0.0000 0.0000 0.0000
# 4 0.0000 0.0000 0.0000 -8.5314 0.0000 0.0000
# 5 0.0000 0.0000 0.0000 0.0000 -8.5314 0.0000
# 6 0.0000 0.0000 0.0000 0.0000 0.0000 29.7266
#
#
#
# Elastic Compliance Matrix: (Units=1/GPa)
#
#
# Indices 1 2 3 4 5 6 
#
# 1 0.012981 -0.009291 -0.000934 0.000000 0.000000 0.000000
# 2 -0.009291 0.012981 -0.000934 0.000000 0.000000 0.000000
# 3 -0.000934 -0.000934 0.026854 0.000000 0.000000 0.000000
# 4 0.000000 0.000000 0.000000 -0.117214 0.000000 0.000000
# 5 0.000000 0.000000 0.000000 0.000000 -0.117214 0.000000
# 6 0.000000 0.000000 0.000000 0.000000 0.000000 0.033640
#
#
# Mechanical properties :
#
#
# Convention : Reuss Voigt Hill
#
# Bulk Modulus (GPa) = 32.79093 69.78714 51.28904
# Shear Modulus (GPa) = -43.29530 17.46612 -12.91459
#
# Velocity S-wave (km/s) = -4.66872 2.96535 -2.54987
# Velocity P-wave (km/s) = 3.54317 6.84534 4.14153
#
# Compressibility (1/GPa) = 0.03049624
#
# Stress axis : x y z
#
# Youngs Moduli (GPa) = 77.03580 77.03580 37.23775
#
# Poissons Ratio (x) = 0.71576 0.03479
# Poissons Ratio (y) = 0.71576 0.03479
# Poissons Ratio (z) = 0.07198 0.07198
#
# Static dielectric constant tensor:
#      x y z
#    x 1.698380 0.000000 0.000000 
#    y 0.000000 1.698380 0.000000 
#    z 0.000000 0.000000 1.785500 
# 
# From -- ./inp_files/4395.got.cif
#   From: 2010.05.17/outbox.cif.g08.bks.cpg/sg132_3_cif.got.tgz:4395.got - 2010.05.20 12:30:18.
