data_PCOD9567923
_publ_section_title
;
Structure prediction by ZEFSAII (Michael W. Deem and Ramdas Pophale) SiO2 
 PCOD9567923
Probable space group: P 42/N B C
;
_chemical_formula_sum "Si O2"
_cell_formula_units_Z 68
_cell_length_a 10.072403
_cell_length_b 10.072403
_cell_length_c 30.637399
_cell_angle_alpha 90.000000
_cell_angle_beta 90.000000
_cell_angle_gamma 90.000000
_cell_volume 3108.265299
_symmetry_space_group_name_H-M "P 42/N B C"
_symmetry_group_IT_number 133
_space_group.IT_coordinate_system_code '2'
_symmetry_cell_setting 'tetragonal'
loop_
_space_group_symop_operation_xyz
x,y,z
1/2-y,x,1/2+z
1/2-x,1/2-y,z
y,1/2-x,1/2+z
x,1/2-y,-z
1/2-x,y,-z
y,x,1/2-z
1/2-y,1/2-x,1/2-z
-x,-y,-z
1/2+y,-x,1/2-z
1/2+x,1/2+y,-z
-y,1/2+x,1/2-z
-x,1/2+y,z
1/2+x,-y,z
-y,-x,1/2+z
1/2+y,1/2+x,1/2+z
loop_
_atom_site_type_symbol
_atom_site_label
_atom_site_fract_x
_atom_site_fract_y
_atom_site_fract_z
Si Si1 0.902034 0.384780 0.077079
Si Si2 0.250000 0.750000 0.500000
Si Si3 0.250000 0.750000 0.146161
Si Si4 0.832725 0.993516 0.196480
Si Si5 0.608554 0.692638 0.396608
Si Si6 0.582374 0.582374 0.750000
O O1 0.873930 0.269350 0.113222
O O2 0.806205 0.502404 0.092856
O O3 0.055697 0.421157 0.078481
O O4 0.845134 0.335366 0.031290
O O5 0.234679 0.624800 0.176839
O O6 0.732165 0.941081 0.233483
O O7 0.839946 0.895803 0.155186
O O8 0.976786 0.040128 0.212756
O O9 0.750000 0.750000 0.409100
#
# Coordination Sequence:
#
# PCOD9567923 Si02
#       6
#    16   4   8  16  16   8
#     4  10  24  45  73 105 136 186 230 284 359 422
#     4  10  24  48  80 102 152 170 230 296 352 428
#     4   9  20  42  68  85 130 186 234 271 350 438
#     4  11  24  40  63  92 134 181 235 297 351 416
#     4  11  26  44  73 101 141 189 241 282 348 446
#     4  12  26  38  62  94 132 176 240 304 366 394
#
# _framework density 21.877151999999999
#
# number of rings (size 3 to 8) (size 9 to 14) (size 15 to 20)
#    0.000    1.412    0.000    4.235   16.471    0.941 
#    0.000    0.000    0.000    0.000    0.000    0.000 
#    0.000    0.000    0.000    0.000    0.000    0.000 
#
# Total GULP energy -380322.372456 kJ/mol
# GULP energy per Si atom -5592.976066 kJ/mol
# Density = 2.182736 g / cm^3
# Si number density = 21.877152 Si / 1000 Ang^3
#
#
#
# Elastic Constant Matrix: (Units=GPa)
#
#
# Indices 1 2 3 4 5 6 
#
# 1 111.0466 49.8941 30.3514 0.0000 0.0000 0.0000
# 2 49.8941 111.0466 30.3514 0.0000 0.0000 0.0000
# 3 30.3514 30.3514 70.1789 0.0000 0.0000 0.0000
# 4 0.0000 0.0000 0.0000 5.6455 0.0000 0.0000
# 5 0.0000 0.0000 0.0000 0.0000 5.6455 0.0000
# 6 0.0000 0.0000 0.0000 0.0000 0.0000 31.4643
#
#
#
# Elastic Compliance Matrix: (Units=1/GPa)
#
#
# Indices 1 2 3 4 5 6 
#
# 1 0.011889 -0.004464 -0.003211 0.000000 0.000000 0.000000
# 2 -0.004464 0.011889 -0.003211 0.000000 0.000000 0.000000
# 3 -0.003211 -0.003211 0.017027 0.000000 0.000000 0.000000
# 4 0.000000 0.000000 0.000000 0.177131 0.000000 0.000000
# 5 0.000000 0.000000 0.000000 0.000000 0.177131 0.000000
# 6 0.000000 0.000000 0.000000 0.000000 0.000000 0.031782
#
#
# Mechanical properties :
#
#
# Convention : Reuss Voigt Hill
#
# Bulk Modulus (GPa) = 52.54360 57.05174 54.79767
# Shear Modulus (GPa) = 10.98986 20.66275 15.82631
#
# Velocity S-wave (km/s) = 2.24373 3.07659 2.69256
# Velocity P-wave (km/s) = 5.54817 6.22538 5.89651
#
# Compressibility (1/GPa) = 0.01903181
#
# Stress axis : x y z
#
# Youngs Moduli (GPa) = 84.11442 84.11442 58.73112
#
# Poissons Ratio (x) = 0.37549 0.18859
# Poissons Ratio (y) = 0.37549 0.18859
# Poissons Ratio (z) = 0.27009 0.27009
#
# Static dielectric constant tensor:
#      x y z
#    x 1.801260 0.000000 0.000000 
#    y 0.000000 1.801260 0.000000 
#    z 0.000000 0.000000 1.807620 
# 
# From -- ./inp_files/7539.got.cif
#   From: 2010.05.17/outbox.cif.g08.bks.cpg/sg133_4_cif.got.tgz:7539.got - 2010.05.20 12:37:36.
