data_PCOD9567148
_publ_section_title
;
Structure prediction by ZEFSAII (Michael W. Deem and Ramdas Pophale) SiO2 
 PCOD9567148
Probable space group: P 42/M C M
;
_chemical_formula_sum "Si O2"
_cell_formula_units_Z 112
_cell_length_a 14.428222
_cell_length_b 14.428222
_cell_length_c 28.738265
_cell_angle_alpha 90.000000
_cell_angle_beta 90.000000
_cell_angle_gamma 90.000000
_cell_volume 5982.547798
_symmetry_space_group_name_H-M "P 42/M C M"
_symmetry_group_IT_number 132
_symmetry_cell_setting 'tetragonal'
loop_
_space_group_symop_operation_xyz
x,y,z
-y,x,1/2+z
-x,-y,z
y,-x,1/2+z
x,-y,1/2-z
-x,y,1/2-z
y,x,-z
-y,-x,-z
-x,-y,-z
y,-x,1/2-z
x,y,-z
-y,x,1/2-z
-x,y,1/2+z
x,-y,1/2+z
-y,-x,z
y,x,z
loop_
_atom_site_type_symbol
_atom_site_label
_atom_site_fract_x
_atom_site_fract_y
_atom_site_fract_z
Si Si1 0.469661 0.319142 0.801911
Si Si2 0.402314 0.745262 0.118583
Si Si3 0.050578 0.793682 0.350799
Si Si4 0.711478 0.864896 0.321362
Si Si5 0.264191 0.417483 0.055215
Si Si6 0.733229 0.891142 0.051476
Si Si7 0.327007 0.829888 0.280773
O O1 0.500000 0.344262 0.750000
O O2 0.396694 0.396694 0.818503
O O3 0.554171 0.304570 0.836116
O O4 0.419522 0.219422 0.797879
O O5 0.318365 0.681636 0.100117
O O6 0.362724 0.843176 0.137966
O O7 0.487262 0.745745 0.082748
O O8 0.109900 0.890101 0.347233
O O9 0.048440 0.760956 0.404361
O O10 0.106245 0.718798 0.319801
O O11 0.947432 0.783295 0.331396
O O12 0.771270 0.771270 0.320084
O O13 0.666642 0.876098 0.270141
O O14 0.350520 0.350520 0.070053
O O15 0.170581 0.357434 0.061410
O O16 0.275487 0.433224 0.000000
O O17 0.814864 0.814864 0.048763
O O18 0.725320 0.934848 0.000000
O O19 0.255176 0.744825 0.275502
#
# Coordination Sequence:
#
# PCOD9567148 Si02
#       7
#    16  16  16  16  16  16  16
#     4  11  20  32  51  74 102 140 182 217 250 300
#     4  11  22  35  50  71 106 148 180 217 268 313
#     4  10  19  33  59  84  99 130 176 218 264 327
#     4  10  21  37  52  72 108 144 172 214 273 325
#     4   9  18  34  56  79 104 137 179 226 267 306
#     4   8  15  31  55  82 108 132 164 211 268 321
#     4   9  18  34  53  74 105 140 173 214 267 319
#
# _framework density 18.721122000000001
#
# number of rings (size 3 to 8) (size 9 to 14) (size 15 to 20)
#    0.000    2.286    1.429    3.000    0.000    4.714 
#    0.000    4.286    0.000    5.571    0.000    2.000 
#    0.000    0.000    0.000    0.000    0.000    0.000 
#
# Total GULP energy -623904.236258 kJ/mol
# GULP energy per Si atom -5570.573538 kJ/mol
# Density = 1.867851 g / cm^3
# Si number density = 18.721122 Si / 1000 Ang^3
#
#
#
# Elastic Constant Matrix: (Units=GPa)
#
#
# Indices 1 2 3 4 5 6 
#
# 1 55.5229 -7.5850 5.5055 0.0000 0.0000 0.0000
# 2 -7.5850 55.5229 5.5055 0.0000 0.0000 0.0000
# 3 5.5055 5.5055 43.6536 0.0000 0.0000 0.0000
# 4 0.0000 0.0000 0.0000 18.6849 0.0000 0.0000
# 5 0.0000 0.0000 0.0000 0.0000 18.6849 0.0000
# 6 0.0000 0.0000 0.0000 0.0000 0.0000 17.5661
#
#
#
# Elastic Compliance Matrix: (Units=1/GPa)
#
#
# Indices 1 2 3 4 5 6 
#
# 1 0.018664 0.002818 -0.002709 0.000000 0.000000 0.000000
# 2 0.002818 0.018664 -0.002709 0.000000 0.000000 0.000000
# 3 -0.002709 -0.002709 0.023591 0.000000 0.000000 0.000000
# 4 0.000000 0.000000 0.000000 0.053519 0.000000 0.000000
# 5 0.000000 0.000000 0.000000 0.000000 0.053519 0.000000
# 6 0.000000 0.000000 0.000000 0.000000 0.000000 0.056928
#
#
# Mechanical properties :
#
#
# Convention : Reuss Voigt Hill
#
# Bulk Modulus (GPa) = 17.94722 17.95015 17.94869
# Shear Modulus (GPa) = 20.10784 21.07207 20.58996
#
# Velocity S-wave (km/s) = 3.28086 3.35860 3.31996
# Velocity P-wave (km/s) = 4.89484 4.96480 4.92995
#
# Compressibility (1/GPa) = 0.05571892
#
# Stress axis : x y z
#
# Youngs Moduli (GPa) = 53.57831 53.57831 42.38903
#
# Poissons Ratio (x) = -0.15100 0.11485
# Poissons Ratio (y) = -0.15100 0.11485
# Poissons Ratio (z) = 0.14516 0.14516
#
# Static dielectric constant tensor:
#      x y z
#    x 1.661320 0.000000 0.000000 
#    y 0.000000 1.661320 0.000000 
#    z 0.000000 0.000000 1.688760 
# 
# From -- ./inp_files/10062.got.cif
#   From: 2010.05.17/outbox.cif.g08.bks.cpg/sg132_6_cif.got.tgz:10062.got - 2010.05.20 12:30:18.
