data_PCOD9567629
_publ_section_title
;
Structure prediction by ZEFSAII (Michael W. Deem and Ramdas Pophale) SiO2 
 PCOD9567629
Probable space group: P 42/N B C
;
_chemical_formula_sum "Si O2"
_cell_formula_units_Z 80
_cell_length_a 13.958105
_cell_length_b 13.958105
_cell_length_c 20.309509
_cell_angle_alpha 90.000000
_cell_angle_beta 90.000000
_cell_angle_gamma 90.000000
_cell_volume 3956.875138
_symmetry_space_group_name_H-M "P 42/N B C"
_symmetry_group_IT_number 133
_space_group.IT_coordinate_system_code '2'
_symmetry_cell_setting 'tetragonal'
loop_
_space_group_symop_operation_xyz
x,y,z
1/2-y,x,1/2+z
1/2-x,1/2-y,z
y,1/2-x,1/2+z
x,1/2-y,-z
1/2-x,y,-z
y,x,1/2-z
1/2-y,1/2-x,1/2-z
-x,-y,-z
1/2+y,-x,1/2-z
1/2+x,1/2+y,-z
-y,1/2+x,1/2-z
-x,1/2+y,z
1/2+x,-y,z
-y,-x,1/2+z
1/2+y,1/2+x,1/2+z
loop_
_atom_site_type_symbol
_atom_site_label
_atom_site_fract_x
_atom_site_fract_y
_atom_site_fract_z
Si Si1 0.416904 0.415480 0.323631
Si Si2 0.306551 0.454186 0.676037
Si Si3 0.655893 0.986006 0.533083
Si Si4 0.955661 0.079987 0.571356
Si Si5 0.520198 0.800965 0.680255
O O1 0.448330 0.448330 0.250000
O O2 0.301277 0.413843 0.323410
O O3 0.449736 0.485747 0.381579
O O4 0.453942 0.308505 0.331790
O O5 0.320502 0.511024 0.608307
O O6 0.315756 0.511630 0.744182
O O7 0.384493 0.368358 0.675001
O O8 0.750000 0.940180 0.500000
O O9 0.623599 0.070796 0.484633
O O10 0.560379 0.920620 0.537095
O O11 0.949103 0.164055 0.623889
#
# Coordination Sequence:
#
# PCOD9567629 Si02
#       5
#    16  16  16  16  16
#     4  10  19  32  56  87 111 145 191 235 293 343
#     4   9  17  33  56  82 115 146 176 245 298 339
#     4  10  19  35  53  79 113 149 185 228 285 348
#     4  10  21  34  56  80 114 152 187 232 286 347
#     4   9  19  33  54  85 115 142 188 237 286 348
#
# _framework density 20.217974999999999
#
# number of rings (size 3 to 8) (size 9 to 14) (size 15 to 20)
#    0.000    2.400    2.000    0.600    5.600    2.400 
#    0.000    9.000    0.000    2.400    0.000    0.000 
#    0.000    0.000    0.000    0.000    0.000    0.000 
#
# Total GULP energy -445854.231559 kJ/mol
# GULP energy per Si atom -5573.177894 kJ/mol
# Density = 2.017196 g / cm^3
# Si number density = 20.217975 Si / 1000 Ang^3
#
#
#
# Elastic Constant Matrix: (Units=GPa)
#
#
# Indices 1 2 3 4 5 6 
#
# 1 32.6630 21.2140 47.4375 0.0000 0.0000 0.0000
# 2 21.2140 32.6630 47.4375 0.0000 0.0000 0.0000
# 3 47.4375 47.4375 179.3175 0.0000 0.0000 0.0000
# 4 0.0000 0.0000 0.0000 26.5350 0.0000 0.0000
# 5 0.0000 0.0000 0.0000 0.0000 26.5350 0.0000
# 6 0.0000 0.0000 0.0000 0.0000 0.0000 15.3056
#
#
#
# Elastic Compliance Matrix: (Units=1/GPa)
#
#
# Indices 1 2 3 4 5 6 
#
# 1 0.061046 -0.026298 -0.009192 0.000000 0.000000 0.000000
# 2 -0.026298 0.061046 -0.009192 0.000000 0.000000 0.000000
# 3 -0.009192 -0.009192 0.010440 0.000000 0.000000 0.000000
# 4 0.000000 0.000000 0.000000 0.037686 0.000000 0.000000
# 5 0.000000 0.000000 0.000000 0.000000 0.037686 0.000000
# 6 0.000000 0.000000 0.000000 0.000000 0.000000 0.065336
#
#
# Mechanical properties :
#
#
# Convention : Reuss Voigt Hill
#
# Bulk Modulus (GPa) = 23.16582 52.98016 38.07299
# Shear Modulus (GPa) = 13.26278 22.24544 17.75411
#
# Velocity S-wave (km/s) = 2.56401 3.32065 2.96655
# Velocity P-wave (km/s) = 4.49982 6.40028 5.53227
#
# Compressibility (1/GPa) = 0.04316704
#
# Stress axis : x y z
#
# Youngs Moduli (GPa) = 16.38104 16.38104 95.78238
#
# Poissons Ratio (x) = 0.43079 0.88048
# Poissons Ratio (y) = 0.43079 0.88048
# Poissons Ratio (z) = 0.15058 0.15058
#
# Static dielectric constant tensor:
#      x y z
#    x 1.709680 0.000000 0.000000 
#    y 0.000000 1.709680 0.000000 
#    z 0.000000 0.000000 1.790790 
# 
# From -- ./inp_files/6342.got.cif
#   From: 2010.05.17/outbox.cif.g08.bks.cpg/sg133_4_cif.got.tgz:6342.got - 2010.05.20 12:37:36.
