data_PCOD9567089
_publ_section_title
;
Structure prediction by ZEFSAII (Michael W. Deem and Ramdas Pophale) SiO2 
 PCOD9567089
Probable space group: P 42/M C M
;
_chemical_formula_sum "Si O2"
_cell_formula_units_Z 96
_cell_length_a 24.971427
_cell_length_b 24.971427
_cell_length_c 8.188695
_cell_angle_alpha 90.000000
_cell_angle_beta 90.000000
_cell_angle_gamma 90.000000
_cell_volume 5106.242281
_symmetry_space_group_name_H-M "P 42/M C M"
_symmetry_group_IT_number 132
_symmetry_cell_setting 'tetragonal'
loop_
_space_group_symop_operation_xyz
x,y,z
-y,x,1/2+z
-x,-y,z
y,-x,1/2+z
x,-y,1/2-z
-x,y,1/2-z
y,x,-z
-y,-x,-z
-x,-y,-z
y,-x,1/2-z
x,y,-z
-y,x,1/2-z
-x,y,1/2+z
x,-y,1/2+z
-y,-x,z
y,x,z
loop_
_atom_site_type_symbol
_atom_site_label
_atom_site_fract_x
_atom_site_fract_y
_atom_site_fract_z
Si Si1 0.765898 0.441244 0.803042
Si Si2 0.852892 0.644065 0.699963
Si Si3 0.233077 0.853563 0.197101
Si Si4 0.061369 0.852175 0.695326
Si Si5 0.558359 0.356329 0.197125
Si Si6 0.938872 0.558602 0.305207
O O1 0.785668 0.500000 0.750000
O O2 0.802107 0.391689 0.748769
O O3 0.704782 0.435661 0.744274
O O4 0.765957 0.440865 0.000000
O O5 0.853159 0.645505 0.500000
O O6 0.852696 0.705553 0.755872
O O7 0.903544 0.608429 0.753700
O O8 0.196860 0.803141 0.254303
O O9 0.200494 0.906769 0.245679
O O10 0.234369 0.851332 0.000000
O O11 0.062429 0.852373 0.500000
O O12 0.096894 0.903107 0.754051
O O13 0.000000 0.854026 0.750000
O O14 0.500000 0.375861 0.250000
O O15 0.604939 0.395062 0.256812
O O16 0.560214 0.355228 0.000000
O O17 0.918999 0.500000 0.250000
O O18 0.937145 0.558626 0.500000
O O19 0.000000 0.563745 0.250000
#
# Coordination Sequence:
#
# PCOD9567089 Si02
#       6
#    16  16  16  16  16  16
#     4   9  17  31  49  69  95 124 158 203 251 297
#     4   9  18  31  50  75  98 125 164 205 242 289
#     4   9  18  34  54  75 102 135 169 205 247 293
#     4  10  21  37  57  81 109 139 170 206 247 289
#     4   9  18  31  47  68  93 122 156 195 241 293
#     4  10  19  32  48  68  97 127 159 198 241 287
#
# _framework density 18.800519000000001
#
# number of rings (size 3 to 8) (size 9 to 14) (size 15 to 20)
#    0.000    2.667    0.000    2.000    0.000    3.000 
#    0.000   10.000    0.000    0.000    0.000    2.333 
#    0.000    0.000    0.000    0.000    0.000    0.000 
#
# Total GULP energy -535372.979207 kJ/mol
# GULP energy per Si atom -5576.801867 kJ/mol
# Density = 1.875773 g / cm^3
# Si number density = 18.800519 Si / 1000 Ang^3
#
#
#
# Elastic Constant Matrix: (Units=GPa)
#
#
# Indices 1 2 3 4 5 6 
#
# 1 171.2260 104.0902 12.3813 0.0000 0.0000 0.0000
# 2 104.0902 171.2260 12.3813 0.0000 0.0000 0.0000
# 3 12.3813 12.3813 13.8836 0.0000 0.0000 0.0000
# 4 0.0000 0.0000 0.0000 13.4161 0.0000 0.0000
# 5 0.0000 0.0000 0.0000 0.0000 13.4161 0.0000
# 6 0.0000 0.0000 0.0000 0.0000 0.0000 -15.1141
#
#
#
# Elastic Compliance Matrix: (Units=1/GPa)
#
#
# Indices 1 2 3 4 5 6 
#
# 1 0.009422 -0.005473 -0.003522 0.000000 0.000000 0.000000
# 2 -0.005473 0.009422 -0.003522 0.000000 0.000000 0.000000
# 3 -0.003522 -0.003522 0.078309 0.000000 0.000000 0.000000
# 4 0.000000 0.000000 0.000000 0.074537 0.000000 0.000000
# 5 0.000000 0.000000 0.000000 0.000000 0.074537 0.000000
# 6 0.000000 0.000000 0.000000 0.000000 0.000000 -0.066163
#
#
# Mechanical properties :
#
#
# Convention : Reuss Voigt Hill
#
# Bulk Modulus (GPa) = 13.86580 68.22681 41.04630
# Shear Modulus (GPa) = 21.82103 17.50914 19.66508
#
# Velocity S-wave (km/s) = 3.41054 3.05505 3.23768
# Velocity P-wave (km/s) = 4.78543 6.98664 5.98805
#
# Compressibility (1/GPa) = 0.07211990
#
# Stress axis : x y z
#
# Youngs Moduli (GPa) = 106.13398 106.13398 12.77000
#
# Poissons Ratio (x) = 0.58088 0.04497
# Poissons Ratio (y) = 0.58088 0.04497
# Poissons Ratio (z) = 0.37376 0.37376
#
# Static dielectric constant tensor:
#      x y z
#    x 1.647500 0.000000 0.000000 
#    y 0.000000 1.647500 0.000000 
#    z 0.000000 0.000000 1.656350 
# 
# From -- ./inp_files/1715.got.cif
#   From: 2010.05.17/outbox.cif.g08.bks.cpg/sg132_1_cif.got.tgz:1715.got - 2010.05.20 12:30:18.
