data_PCOD9567827
_publ_section_title
;
Structure prediction by ZEFSAII (Michael W. Deem and Ramdas Pophale) SiO2 
 PCOD9567827
Probable space group: P 42/N B C
;
_chemical_formula_sum "Si O2"
_cell_formula_units_Z 84
_cell_length_a 22.827184
_cell_length_b 22.827184
_cell_length_c 9.249156
_cell_angle_alpha 90.000000
_cell_angle_beta 90.000000
_cell_angle_gamma 90.000000
_cell_volume 4819.553255
_symmetry_space_group_name_H-M "P 42/N B C"
_symmetry_group_IT_number 133
_space_group.IT_coordinate_system_code '2'
_symmetry_cell_setting 'tetragonal'
loop_
_space_group_symop_operation_xyz
x,y,z
1/2-y,x,1/2+z
1/2-x,1/2-y,z
y,1/2-x,1/2+z
x,1/2-y,-z
1/2-x,y,-z
y,x,1/2-z
1/2-y,1/2-x,1/2-z
-x,-y,-z
1/2+y,-x,1/2-z
1/2+x,1/2+y,-z
-y,1/2+x,1/2-z
-x,1/2+y,z
1/2+x,-y,z
-y,-x,1/2+z
1/2+y,1/2+x,1/2+z
loop_
_atom_site_type_symbol
_atom_site_label
_atom_site_fract_x
_atom_site_fract_y
_atom_site_fract_z
Si Si1 0.750000 0.657594 0.000000
Si Si2 0.165478 0.548611 0.768702
Si Si3 0.124675 0.782528 0.208292
Si Si4 0.250000 0.750000 0.250000
Si Si5 0.588989 0.682971 0.748337
Si Si6 0.621270 0.124438 0.466463
Si Si7 0.750000 0.845354 0.500000
O O1 0.718612 0.617010 0.884047
O O2 0.800550 0.700804 0.938296
O O3 0.225835 0.584681 0.736485
O O4 0.178329 0.480337 0.759885
O O5 0.120002 0.570620 0.645795
O O6 0.140696 0.568836 0.924440
O O7 0.190182 0.762846 0.168356
O O8 0.128146 0.819988 0.357575
O O9 0.108968 0.825556 0.076717
O O10 0.619350 0.619350 0.750000
O O11 0.613637 0.717923 0.885852
#
# Coordination Sequence:
#
# PCOD9567827 Si02
#       7
#     8  16  16   4  16  16   8
#     4   9  18  36  62  94 126 145 168 220 294 361
#     4  11  23  37  55  76 114 148 199 238 281 335
#     4  11  22  32  53  78 113 146 184 231 292 340
#     4  12  20  30  52  74 112 130 180 222 288 354
#     4  10  22  38  61  90 115 150 189 230 283 349
#     4  10  22  37  47  78 106 152 190 228 285 323
#     4   9  18  36  62  94 126 145 168 220 294 361
#
# _framework density 17.428999999999998
#
# number of rings (size 3 to 8) (size 9 to 14) (size 15 to 20)
#    0.000    1.714    3.810    1.714    5.333    3.048 
#    0.000    0.952    0.000    0.000    0.000    0.000 
#    0.000    0.000    0.000    0.000    0.000    0.000 
#
# Total GULP energy -468016.121404 kJ/mol
# GULP energy per Si atom -5571.620493 kJ/mol
# Density = 1.738933 g / cm^3
# Si number density = 17.429000 Si / 1000 Ang^3
#
#
#
# Elastic Constant Matrix: (Units=GPa)
#
#
# Indices 1 2 3 4 5 6 
#
# 1 123.0455 37.3997 45.3746 0.0000 0.0000 0.0000
# 2 37.3997 123.0455 45.3746 0.0000 0.0000 0.0000
# 3 45.3746 45.3746 110.7542 0.0000 0.0000 0.0000
# 4 0.0000 0.0000 0.0000 10.7001 0.0000 0.0000
# 5 0.0000 0.0000 0.0000 0.0000 10.7001 0.0000
# 6 0.0000 0.0000 0.0000 0.0000 0.0000 11.9553
#
#
#
# Elastic Compliance Matrix: (Units=1/GPa)
#
#
# Indices 1 2 3 4 5 6 
#
# 1 0.009894 -0.001782 -0.003324 0.000000 0.000000 0.000000
# 2 -0.001782 0.009894 -0.003324 0.000000 0.000000 0.000000
# 3 -0.003324 -0.003324 0.011752 0.000000 0.000000 0.000000
# 4 0.000000 0.000000 0.000000 0.093457 0.000000 0.000000
# 5 0.000000 0.000000 0.000000 0.000000 0.093457 0.000000
# 6 0.000000 0.000000 0.000000 0.000000 0.000000 0.083645
#
#
# Mechanical properties :
#
#
# Convention : Reuss Voigt Hill
#
# Bulk Modulus (GPa) = 68.10634 68.12699 68.11666
# Shear Modulus (GPa) = 15.43917 21.91752 18.67834
#
# Velocity S-wave (km/s) = 2.97952 3.55002 3.27721
# Velocity P-wave (km/s) = 7.14129 7.48175 7.31350
#
# Compressibility (1/GPa) = 0.01468292
#
# Stress axis : x y z
#
# Youngs Moduli (GPa) = 101.06874 101.06874 85.08990
#
# Poissons Ratio (x) = 0.18008 0.28280
# Poissons Ratio (y) = 0.18008 0.28280
# Poissons Ratio (z) = 0.33591 0.33591
#
# Static dielectric constant tensor:
#      x y z
#    x 1.588590 0.000000 0.000000 
#    y 0.000000 1.588590 0.000000 
#    z 0.000000 0.000000 1.630440 
# 
# From -- ./inp_files/1870.got.cif
#   From: 2010.05.17/outbox.cif.g08.bks.cpg/sg133_1_cif.got.tgz:1870.got - 2010.05.20 12:37:36.
