data_PCOD9567749
_publ_section_title
;
Structure prediction by ZEFSAII (Michael W. Deem and Ramdas Pophale) SiO2 
 PCOD9567749
Probable space group: P 42/N B C
;
_chemical_formula_sum "Si O2"
_cell_formula_units_Z 96
_cell_length_a 14.373245
_cell_length_b 14.373245
_cell_length_c 22.865477
_cell_angle_alpha 90.000000
_cell_angle_beta 90.000000
_cell_angle_gamma 90.000000
_cell_volume 4723.782822
_symmetry_space_group_name_H-M "P 42/N B C"
_symmetry_group_IT_number 133
_space_group.IT_coordinate_system_code '2'
_symmetry_cell_setting 'tetragonal'
loop_
_space_group_symop_operation_xyz
x,y,z
1/2-y,x,1/2+z
1/2-x,1/2-y,z
y,1/2-x,1/2+z
x,1/2-y,-z
1/2-x,y,-z
y,x,1/2-z
1/2-y,1/2-x,1/2-z
-x,-y,-z
1/2+y,-x,1/2-z
1/2+x,1/2+y,-z
-y,1/2+x,1/2-z
-x,1/2+y,z
1/2+x,-y,z
-y,-x,1/2+z
1/2+y,1/2+x,1/2+z
loop_
_atom_site_type_symbol
_atom_site_label
_atom_site_fract_x
_atom_site_fract_y
_atom_site_fract_z
Si Si1 0.885557 0.020236 0.537796
Si Si2 0.429412 0.314553 0.442555
Si Si3 0.250000 0.250000 0.871211
Si Si4 0.382232 0.094696 0.318693
Si Si5 0.183441 0.941077 0.879162
Si Si6 0.250000 0.750000 0.129085
Si Si7 0.050321 0.689886 0.910286
O O1 0.922031 0.116166 0.565397
O O2 0.865760 0.030863 0.469439
O O3 0.790062 0.006363 0.574294
O O4 0.938840 0.923596 0.545710
O O5 0.430826 0.250000 0.500000
O O6 0.331229 0.293215 0.411188
O O7 0.511090 0.277779 0.401029
O O8 0.330007 0.301777 0.834100
O O9 0.402032 0.097969 0.250000
O O10 0.479660 0.129063 0.345040
O O11 0.352625 0.999954 0.353051
O O12 0.205934 0.845175 0.844723
O O13 0.160530 0.790449 0.095094
#
# Coordination Sequence:
#
# PCOD9567749 Si02
#       7
#    16  16   8  16  16   8  16
#     4  10  21  40  64  98 133 171 216 270 342 396
#     4  11  22  33  62  99 133 168 216 267 328 405
#     4  10  20  40  64  92 128 167 213 268 336 390
#     4  11  23  43  67  98 129 170 224 277 333 396
#     4  10  25  40  64  97 130 177 222 269 335 404
#     4  10  24  47  65  94 140 178 225 261 332 414
#     4  10  22  40  69  93 134 176 212 275 331 403
#
# _framework density 20.322697000000002
#
# number of rings (size 3 to 8) (size 9 to 14) (size 15 to 20)
#    0.000    1.667    1.667    2.500    7.000    6.000 
#    0.000    4.167    0.000    0.000    0.000    0.000 
#    0.000    0.000    0.000    0.000    0.000    0.000 
#
# Total GULP energy -535328.262619 kJ/mol
# GULP energy per Si atom -5576.336069 kJ/mol
# Density = 2.027644 g / cm^3
# Si number density = 20.322697 Si / 1000 Ang^3
#
#
#
# Elastic Constant Matrix: (Units=GPa)
#
#
# Indices 1 2 3 4 5 6 
#
# 1 134.0698 25.0000 17.0783 0.0000 0.0000 0.0000
# 2 25.0000 134.0696 17.0780 0.0000 0.0000 0.0000
# 3 17.0783 17.0780 73.4001 0.0000 0.0000 0.0000
# 4 0.0000 0.0000 0.0000 8.7017 0.0000 0.0000
# 5 0.0000 0.0000 0.0000 0.0000 8.7007 0.0000
# 6 0.0000 0.0000 0.0000 0.0000 0.0000 25.2507
#
#
#
# Elastic Compliance Matrix: (Units=1/GPa)
#
#
# Indices 1 2 3 4 5 6 
#
# 1 0.007893 -0.001276 -0.001540 0.000000 0.000000 0.000000
# 2 -0.001276 0.007893 -0.001540 0.000000 0.000000 0.000000
# 3 -0.001540 -0.001540 0.014340 0.000000 0.000000 0.000000
# 4 0.000000 0.000000 0.000000 0.114920 0.000000 0.000000
# 5 0.000000 0.000000 0.000000 0.000000 0.114933 0.000000
# 6 0.000000 0.000000 0.000000 0.000000 0.000000 0.039603
#
#
# Mechanical properties :
#
#
# Convention : Reuss Voigt Hill
#
# Bulk Modulus (GPa) = 46.69361 51.09468 48.89415
# Shear Modulus (GPa) = 15.85137 27.35618 21.60378
#
# Velocity S-wave (km/s) = 2.79585 3.67289 3.26396
# Velocity P-wave (km/s) = 5.78345 6.57138 6.18997
#
# Compressibility (1/GPa) = 0.02141621
#
# Stress axis : x y z
#
# Youngs Moduli (GPa) = 126.69784 126.69767 69.73303
#
# Poissons Ratio (x) = 0.16162 0.10736
# Poissons Ratio (y) = 0.16162 0.10736
# Poissons Ratio (z) = 0.19507 0.19507
#
# Static dielectric constant tensor:
#      x y z
#    x 1.762860 0.000000 0.000000 
#    y 0.000000 1.762860 0.000000 
#    z 0.000000 0.000000 1.697970 
# 
# From -- ./inp_files/6568.got.cif
#   From: 2010.05.17/outbox.cif.g08.bks.cpg/sg133_4_cif.got.tgz:6568.got - 2010.05.20 12:37:36.
