data_PCOD9567142
_publ_section_title
;
Structure prediction by ZEFSAII (Michael W. Deem and Ramdas Pophale) SiO2 
 PCOD9567142
Probable space group: P 42/M C M
;
_chemical_formula_sum "Si O2"
_cell_formula_units_Z 56
_cell_length_a 15.610616
_cell_length_b 15.610616
_cell_length_c 14.060432
_cell_angle_alpha 90.000000
_cell_angle_beta 90.000000
_cell_angle_gamma 90.000000
_cell_volume 3426.405401
_symmetry_space_group_name_H-M "P 42/M C M"
_symmetry_group_IT_number 132
_symmetry_cell_setting 'tetragonal'
loop_
_space_group_symop_operation_xyz
x,y,z
-y,x,1/2+z
-x,-y,z
y,-x,1/2+z
x,-y,1/2-z
-x,y,1/2-z
y,x,-z
-y,-x,-z
-x,-y,-z
y,-x,1/2-z
x,y,-z
-y,x,1/2-z
-x,y,1/2+z
x,-y,1/2+z
-y,-x,z
y,x,z
loop_
_atom_site_type_symbol
_atom_site_label
_atom_site_fract_x
_atom_site_fract_y
_atom_site_fract_z
Si Si1 0.993866 0.862220 0.000000
Si Si2 0.076548 0.219758 0.680161
Si Si3 0.214485 0.358169 0.611285
Si Si4 0.426500 0.426500 0.113642
Si Si5 0.500000 0.719478 0.750000
O O1 0.021555 0.811007 0.908934
O O2 0.057910 0.942091 0.000000
O O3 0.898357 0.898357 0.000000
O O4 0.139713 0.139713 0.710769
O O5 0.139363 0.294983 0.646214
O O6 0.000000 0.245287 0.750000
O O7 0.201441 0.383711 0.500000
O O8 0.301798 0.301798 0.613141
O O9 0.225898 0.433171 0.687923
O O10 0.500000 0.500000 0.122738
O O11 0.342843 0.457426 0.170827
O O12 0.413087 0.413087 0.000000
#
# Coordination Sequence:
#
# PCOD9567142 Si02
#       5
#     8  16  16   8   8
#     4   9  16  28  50  82 113 137 175 226 275 337
#     4  10  19  33  55  82 113 146 184 227 282 339
#     4  10  20  36  58  81 111 151 191 233 283 349
#     4  11  20  32  52  84 116 138 178 245 303 347
#     4  12  19  34  55  82 110 146 192 232 289 337
#
# _framework density 16.343658999999999
#
# number of rings (size 3 to 8) (size 9 to 14) (size 15 to 20)
#    0.000    1.714    4.286    1.714    0.000    3.714 
#    0.000    0.714    6.286    1.714    0.000    0.000 
#    0.000    0.000    0.000    0.000    0.000    0.000 
#
# Total GULP energy -311742.434384 kJ/mol
# GULP energy per Si atom -5566.829185 kJ/mol
# Density = 1.630646 g / cm^3
# Si number density = 16.343659 Si / 1000 Ang^3
#
#
#
# Elastic Constant Matrix: (Units=GPa)
#
#
# Indices 1 2 3 4 5 6 
#
# 1 82.3538 42.7066 55.5390 0.0000 0.0000 0.0000
# 2 42.7066 82.3536 55.5391 0.0000 0.0000 0.0000
# 3 55.5390 55.5391 134.3053 0.0000 0.0000 0.0000
# 4 0.0000 0.0000 0.0000 31.9080 0.0000 0.0000
# 5 0.0000 0.0000 0.0000 0.0000 31.9092 0.0000
# 6 0.0000 0.0000 0.0000 0.0000 0.0000 26.9816
#
#
#
# Elastic Compliance Matrix: (Units=1/GPa)
#
#
# Indices 1 2 3 4 5 6 
#
# 1 0.018930 -0.006292 -0.005226 0.000000 0.000000 0.000000
# 2 -0.006292 0.018930 -0.005226 0.000000 0.000000 0.000000
# 3 -0.005226 -0.005226 0.011768 0.000000 0.000000 0.000000
# 4 0.000000 0.000000 0.000000 0.031340 0.000000 0.000000
# 5 0.000000 0.000000 0.000000 0.000000 0.031339 0.000000
# 6 0.000000 0.000000 0.000000 0.000000 0.000000 0.037062
#
#
# Mechanical properties :
#
#
# Convention : Reuss Voigt Hill
#
# Bulk Modulus (GPa) = 61.96025 67.39803 64.67914
# Shear Modulus (GPa) = 26.56198 27.84162 27.20180
#
# Velocity S-wave (km/s) = 4.03577 4.13184 4.08409
# Velocity P-wave (km/s) = 7.72721 8.00565 7.86766
#
# Compressibility (1/GPa) = 0.01613938
#
# Stress axis : x y z
#
# Youngs Moduli (GPa) = 52.82559 52.82531 84.97569
#
# Poissons Ratio (x) = 0.33239 0.44410
# Poissons Ratio (y) = 0.33239 0.44410
# Poissons Ratio (z) = 0.27607 0.27608
#
# Static dielectric constant tensor:
#      x y z
#    x 1.565240 0.000000 0.000000 
#    y 0.000000 1.565240 0.000000 
#    z 0.000000 0.000000 1.440450 
# 
# From -- ./inp_files/2906.got.cif
#   From: 2010.05.17/outbox.cif.g08.bks.cpg/sg132_2_cif.got.tgz:2906.got - 2010.05.20 12:30:18.
