data_PCOD9567241
_publ_section_title
;
Structure prediction by ZEFSAII (Michael W. Deem and Ramdas Pophale) SiO2 
 PCOD9567241
Probable space group: P 42/M C M
;
_chemical_formula_sum "Si O2"
_cell_formula_units_Z 96
_cell_length_a 23.966761
_cell_length_b 23.966761
_cell_length_c 8.278993
_cell_angle_alpha 90.000000
_cell_angle_beta 90.000000
_cell_angle_gamma 90.000000
_cell_volume 4755.500213
_symmetry_space_group_name_H-M "P 42/M C M"
_symmetry_group_IT_number 132
_symmetry_cell_setting 'tetragonal'
loop_
_space_group_symop_operation_xyz
x,y,z
-y,x,1/2+z
-x,-y,z
y,-x,1/2+z
x,-y,1/2-z
-x,y,1/2-z
y,x,-z
-y,-x,-z
-x,-y,-z
y,-x,1/2-z
x,y,-z
-y,x,1/2-z
-x,y,1/2+z
x,-y,1/2+z
-y,-x,z
y,x,z
loop_
_atom_site_type_symbol
_atom_site_label
_atom_site_fract_x
_atom_site_fract_y
_atom_site_fract_z
Si Si1 0.436544 0.897554 0.804481
Si Si2 0.149086 0.763475 0.687754
Si Si3 0.940644 0.678263 0.691960
Si Si4 0.226643 0.563885 0.194229
Si Si5 0.652884 0.563995 0.304363
Si Si6 0.938073 0.149823 0.187140
O O1 0.500000 0.909549 0.750000
O O2 0.385703 0.935815 0.746676
O O3 0.419054 0.834735 0.749859
O O4 0.437626 0.898617 0.000000
O O5 0.158971 0.751674 0.500000
O O6 0.205924 0.794077 0.753623
O O7 0.116313 0.710970 0.762999
O O8 0.101798 0.810702 0.709458
O O9 0.943215 0.677488 0.500000
O O10 0.000000 0.703148 0.750000
O O11 0.230084 0.500000 0.250000
O O12 0.286297 0.587726 0.248350
O O13 0.225678 0.567327 0.000000
O O14 0.646742 0.500000 0.250000
O O15 0.652335 0.564027 0.500000
O O16 0.603123 0.603123 0.245700
O O17 0.911578 0.088423 0.195298
O O18 0.000000 0.151383 0.250000
O O19 0.934692 0.168559 0.000000
#
# Coordination Sequence:
#
# PCOD9567241 Si02
#       6
#    16  16  16  16  16  16
#     4   9  19  35  56  81 108 141 180 223 273 329
#     4  10  21  38  59  80 104 138 180 224 269 316
#     4  11  23  38  57  84 117 151 187 225 271 327
#     4   8  14  28  48  68  90 119 160 206 253 306
#     4   9  17  28  43  64  91 125 165 211 264 322
#     4  10  20  33  50  72  99 132 169 211 259 309
#
# _framework density 20.187152000000001
#
# number of rings (size 3 to 8) (size 9 to 14) (size 15 to 20)
#    0.000    2.500    0.000    2.000    0.000    4.333 
#    0.000    4.167    0.000    3.000    0.000    0.000 
#    0.000    0.000    0.000    0.000    0.000    0.000 
#
# Total GULP energy -534404.974059 kJ/mol
# GULP energy per Si atom -5566.718480 kJ/mol
# Density = 2.014120 g / cm^3
# Si number density = 20.187152 Si / 1000 Ang^3
#
#
#
# Elastic Constant Matrix: (Units=GPa)
#
#
# Indices 1 2 3 4 5 6 
#
# 1 91.7984 34.0559 6.7617 0.0000 0.0000 0.0000
# 2 34.0559 91.7984 6.7617 0.0000 0.0000 0.0000
# 3 6.7617 6.7617 24.9331 0.0000 0.0000 0.0000
# 4 0.0000 0.0000 0.0000 24.3926 0.0000 0.0000
# 5 0.0000 0.0000 0.0000 0.0000 24.3926 0.0000
# 6 0.0000 0.0000 0.0000 0.0000 0.0000 24.1375
#
#
#
# Elastic Compliance Matrix: (Units=1/GPa)
#
#
# Indices 1 2 3 4 5 6 
#
# 1 0.012751 -0.004567 -0.002220 0.000000 0.000000 0.000000
# 2 -0.004567 0.012751 -0.002220 0.000000 0.000000 0.000000
# 3 -0.002220 -0.002220 0.041311 0.000000 0.000000 0.000000
# 4 0.000000 0.000000 0.000000 0.040996 0.000000 0.000000
# 5 0.000000 0.000000 0.000000 0.000000 0.040996 0.000000
# 6 0.000000 0.000000 0.000000 0.000000 0.000000 0.041429
#
#
# Mechanical properties :
#
#
# Convention : Reuss Voigt Hill
#
# Bulk Modulus (GPa) = 20.49119 33.74316 27.11717
# Shear Modulus (GPa) = 22.27030 25.31457 23.79244
#
# Velocity S-wave (km/s) = 3.32504 3.54502 3.43679
# Velocity P-wave (km/s) = 4.99137 5.78858 5.40470
#
# Compressibility (1/GPa) = 0.04880147
#
# Stress axis : x y z
#
# Youngs Moduli (GPa) = 78.42380 78.42380 24.20657
#
# Poissons Ratio (x) = 0.35816 0.05373
# Poissons Ratio (y) = 0.35816 0.05373
# Poissons Ratio (z) = 0.17406 0.17406
#
# Static dielectric constant tensor:
#      x y z
#    x 1.745800 0.000000 0.000000 
#    y 0.000000 1.745800 0.000000 
#    z 0.000000 0.000000 1.715490 
# 
# From -- ./inp_files/1766.got.cif
#   From: 2010.05.17/outbox.cif.g08.bks.cpg/sg132_1_cif.got.tgz:1766.got - 2010.05.20 12:30:18.
