data_PCOD9567518
_publ_section_title
;
Structure prediction by ZEFSAII (Michael W. Deem and Ramdas Pophale) SiO2 
 PCOD9567518
Probable space group: P 42/M C M
;
_chemical_formula_sum "Si O2"
_cell_formula_units_Z 58
_cell_length_a 16.783442
_cell_length_b 16.783442
_cell_length_c 9.977222
_cell_angle_alpha 90.000000
_cell_angle_beta 90.000000
_cell_angle_gamma 90.000000
_cell_volume 2810.423057
_symmetry_space_group_name_H-M "P 42/M C M"
_symmetry_group_IT_number 132
_symmetry_cell_setting 'tetragonal'
loop_
_space_group_symop_operation_xyz
x,y,z
-y,x,1/2+z
-x,-y,z
y,-x,1/2+z
x,-y,1/2-z
-x,y,1/2-z
y,x,-z
-y,-x,-z
-x,-y,-z
y,-x,1/2-z
x,y,-z
-y,x,1/2-z
-x,y,1/2+z
x,-y,1/2+z
-y,-x,z
y,x,z
loop_
_atom_site_type_symbol
_atom_site_label
_atom_site_fract_x
_atom_site_fract_y
_atom_site_fract_z
Si Si1 0.208264 0.408494 0.272215
Si Si2 0.153810 0.707224 0.000000
Si Si3 0.229782 0.025554 0.000000
Si Si4 0.125648 0.000000 0.750000
Si Si5 0.500000 0.500000 0.250000
Si Si6 0.315876 0.814951 0.500000
Si Si7 0.388863 0.611138 0.850090
O O1 0.181859 0.500000 0.250000
O O2 0.159894 0.351033 0.371841
O O3 0.296305 0.407358 0.336379
O O4 0.209892 0.365146 0.129988
O O5 0.067145 0.746368 0.000000
O O6 0.225820 0.774181 0.000000
O O7 0.178347 0.037339 0.133626
O O8 0.299395 0.090598 0.000000
O O9 0.068093 0.931908 0.808665
O O10 0.432505 0.432505 0.227217
O O11 0.232258 0.767743 0.500000
O O12 0.417025 0.582976 0.000000
#
# Coordination Sequence:
#
# PCOD9567518 Si02
#       7
#    16   8   8   8   2   8   8
#     4  12  24  43  67  95 131 177 226 275 336 403
#     4  12  23  45  70  94 131 184 223 276 345 412
#     4  12  26  43  67 102 134 176 236 274 326 413
#     4  11  22  40  66 100 139 172 206 278 359 418
#     4  12  26  36  68 110 148 158 212 300 366 430
#     4  12  25  43  68  98 133 176 223 284 337 396
#     4  12  23  42  64 100 138 179 216 272 353 422
#
# _framework density 20.637460999999998
#
# number of rings (size 3 to 8) (size 9 to 14) (size 15 to 20)
#    0.000    0.138    5.517    5.172    0.000    1.103 
#    2.483    4.138    0.000    0.000    0.000    0.000 
#    0.000    0.000    0.000    0.000    0.000    0.000 
#
# Total GULP energy -323672.589856 kJ/mol
# GULP energy per Si atom -5580.561894 kJ/mol
# Density = 2.059049 g / cm^3
# Si number density = 20.637461 Si / 1000 Ang^3
#
#
#
# Elastic Constant Matrix: (Units=GPa)
#
#
# Indices 1 2 3 4 5 6 
#
# 1 97.3221 18.0099 10.7349 0.0000 0.0000 0.0000
# 2 18.0099 97.3215 10.7343 0.0000 0.0000 0.0000
# 3 10.7349 10.7343 114.4546 0.0000 0.0000 0.0000
# 4 0.0000 0.0000 0.0000 2.8114 0.0000 0.0000
# 5 0.0000 0.0000 0.0000 0.0000 2.7995 0.0000
# 6 0.0000 0.0000 0.0000 0.0000 0.0000 28.2271
#
#
#
# Elastic Compliance Matrix: (Units=1/GPa)
#
#
# Indices 1 2 3 4 5 6 
#
# 1 0.010717 -0.001892 -0.000828 0.000000 0.000000 0.000000
# 2 -0.001892 0.010717 -0.000828 0.000000 0.000000 0.000000
# 3 -0.000828 -0.000828 0.008892 0.000000 0.000000 0.000000
# 4 0.000000 0.000000 0.000000 0.355689 0.000000 0.000000
# 5 0.000000 0.000000 0.000000 0.000000 0.357205 0.000000
# 6 0.000000 0.000000 0.000000 0.000000 0.000000 0.035427
#
#
# Mechanical properties :
#
#
# Convention : Reuss Voigt Hill
#
# Bulk Modulus (GPa) = 43.04572 43.11738 43.08155
# Shear Modulus (GPa) = 6.30132 24.74222 15.52177
#
# Velocity S-wave (km/s) = 1.74928 3.46627 2.74545
# Velocity P-wave (km/s) = 4.99833 6.07932 5.56513
#
# Compressibility (1/GPa) = 0.02323111
#
# Stress axis : x y z
#
# Youngs Moduli (GPa) = 93.31358 93.31312 112.45637
#
# Poissons Ratio (x) = 0.17654 0.09308
# Poissons Ratio (y) = 0.17654 0.09307
# Poissons Ratio (z) = 0.07724 0.07723
#
# Static dielectric constant tensor:
#      x y z
#    x 1.711010 0.000000 0.000000 
#    y 0.000000 1.711020 0.000000 
#    z 0.000000 0.000000 2.020310 
# 
# From -- ./inp_files/1071.got.cif
#   From: 2010.05.17/outbox.cif.g08.bks.cpg/sg132_1_cif.got.tgz:1071.got - 2010.05.20 12:30:18.
