data_PCOD9567999
_publ_section_title
;
Structure prediction by ZEFSAII (Michael W. Deem and Ramdas Pophale) SiO2 
 PCOD9567999
Probable space group: P 42/N B C
;
_chemical_formula_sum "Si O2"
_cell_formula_units_Z 36
_cell_length_a 11.726612
_cell_length_b 11.726612
_cell_length_c 9.938647
_cell_angle_alpha 90.000000
_cell_angle_beta 90.000000
_cell_angle_gamma 90.000000
_cell_volume 1366.697429
_symmetry_space_group_name_H-M "P 42/N B C"
_symmetry_group_IT_number 133
_space_group.IT_coordinate_system_code '2'
_symmetry_cell_setting 'tetragonal'
loop_
_space_group_symop_operation_xyz
x,y,z
1/2-y,x,1/2+z
1/2-x,1/2-y,z
y,1/2-x,1/2+z
x,1/2-y,-z
1/2-x,y,-z
y,x,1/2-z
1/2-y,1/2-x,1/2-z
-x,-y,-z
1/2+y,-x,1/2-z
1/2+x,1/2+y,-z
-y,1/2+x,1/2-z
-x,1/2+y,z
1/2+x,-y,z
-y,-x,1/2+z
1/2+y,1/2+x,1/2+z
loop_
_atom_site_type_symbol
_atom_site_label
_atom_site_fract_x
_atom_site_fract_y
_atom_site_fract_z
Si Si1 0.250000 0.250000 0.750000
Si Si2 0.187982 0.008780 0.171533
Si Si3 0.873248 0.103056 0.568661
O O1 0.366265 0.244756 0.663541
O O2 0.290680 0.916633 0.157981
O O3 0.140057 0.996646 0.322311
O O4 0.106387 0.963647 0.053226
O O5 0.750000 0.116074 0.500000
#
# Coordination Sequence:
#
# PCOD9567999 Si02
#       3
#     4  16  16
#     4  12  32  54  64 118 176 218 244 322 420 514
#     4  11  25  48  80 114 160 199 268 327 406 472
#     4  11  23  46  86 117 138 200 276 339 379 463
#
# _framework density 26.340871
#
# number of rings (size 3 to 8) (size 9 to 14) (size 15 to 20)
#    0.000    0.889    4.444    2.667    0.000    7.111 
#   16.000    0.000    0.000    0.000    0.000    0.000 
#    0.000    0.000    0.000    0.000    0.000    0.000 
#
# Total GULP energy -201367.217517 kJ/mol
# GULP energy per Si atom -5593.533820 kJ/mol
# Density = 2.628092 g / cm^3
# Si number density = 26.340871 Si / 1000 Ang^3
#
#
#
# Elastic Constant Matrix: (Units=GPa)
#
#
# Indices 1 2 3 4 5 6 
#
# 1 186.7855 49.3216 90.2285 0.0000 0.0000 0.0000
# 2 49.3216 186.7855 90.2285 0.0000 0.0000 0.0000
# 3 90.2285 90.2285 181.4108 0.0000 0.0000 0.0000
# 4 0.0000 0.0000 0.0000 61.8081 0.0000 0.0000
# 5 0.0000 0.0000 0.0000 0.0000 61.8081 0.0000
# 6 0.0000 0.0000 0.0000 0.0000 0.0000 27.1692
#
#
#
# Elastic Compliance Matrix: (Units=1/GPa)
#
#
# Indices 1 2 3 4 5 6 
#
# 1 0.007054 -0.000221 -0.003398 0.000000 0.000000 0.000000
# 2 -0.000221 0.007054 -0.003398 0.000000 0.000000 0.000000
# 3 -0.003398 -0.003398 0.008893 0.000000 0.000000 0.000000
# 4 0.000000 0.000000 0.000000 0.016179 0.000000 0.000000
# 5 0.000000 0.000000 0.000000 0.000000 0.016179 0.000000
# 6 0.000000 0.000000 0.000000 0.000000 0.000000 0.036806
#
#
# Mechanical properties :
#
#
# Convention : Reuss Voigt Hill
#
# Bulk Modulus (GPa) = 111.54781 112.72658 112.13719
# Shear Modulus (GPa) = 45.79224 51.83728 48.81476
#
# Velocity S-wave (km/s) = 4.17399 4.44096 4.30954
# Velocity P-wave (km/s) = 8.10366 8.31772 8.21139
#
# Compressibility (1/GPa) = 0.00896477
#
# Stress axis : x y z
#
# Youngs Moduli (GPa) = 141.76927 141.76927 112.44903
#
# Poissons Ratio (x) = 0.03132 0.38215
# Poissons Ratio (y) = 0.03132 0.38215
# Poissons Ratio (z) = 0.48179 0.48179
#
# Static dielectric constant tensor:
#      x y z
#    x 2.104670 0.000000 0.000000 
#    y 0.000000 2.104670 0.000000 
#    z 0.000000 0.000000 2.027350 
# 
# From -- ./inp_files/2347.got.cif
#   From: 2010.05.17/outbox.cif.g08.bks.cpg/sg133_2_cif.got.tgz:2347.got - 2010.05.20 12:37:36.
