data_PCOD9567992
_publ_section_title
;
Structure prediction by ZEFSAII (Michael W. Deem and Ramdas Pophale) SiO2 
 PCOD9567992
Probable space group: P 42/N B C
;
_chemical_formula_sum "Si O2"
_cell_formula_units_Z 52
_cell_length_a 14.881706
_cell_length_b 14.881706
_cell_length_c 10.229443
_cell_angle_alpha 90.000000
_cell_angle_beta 90.000000
_cell_angle_gamma 90.000000
_cell_volume 2265.465369
_symmetry_space_group_name_H-M "P 42/N B C"
_symmetry_group_IT_number 133
_space_group.IT_coordinate_system_code '2'
_symmetry_cell_setting 'tetragonal'
loop_
_space_group_symop_operation_xyz
x,y,z
1/2-y,x,1/2+z
1/2-x,1/2-y,z
y,1/2-x,1/2+z
x,1/2-y,-z
1/2-x,y,-z
y,x,1/2-z
1/2-y,1/2-x,1/2-z
-x,-y,-z
1/2+y,-x,1/2-z
1/2+x,1/2+y,-z
-y,1/2+x,1/2-z
-x,1/2+y,z
1/2+x,-y,z
-y,-x,1/2+z
1/2+y,1/2+x,1/2+z
loop_
_atom_site_type_symbol
_atom_site_label
_atom_site_fract_x
_atom_site_fract_y
_atom_site_fract_z
Si Si1 0.510861 0.136275 0.208365
Si Si2 0.250000 0.250000 0.500000
Si Si3 0.672987 0.476819 0.818540
Si Si4 0.365054 0.089662 0.560733
O O1 0.615175 0.113837 0.180286
O O2 0.514896 0.219566 0.309421
O O3 0.451417 0.048584 0.250000
O O4 0.458660 0.160767 0.073930
O O5 0.309873 0.181665 0.582250
O O6 0.626127 0.533764 0.933141
O O7 0.646587 0.522882 0.680463
#
# Coordination Sequence:
#
# PCOD9567992 Si02
#       4
#    16   4  16  16
#     4  12  24  45  67  98 141 179 230 285 342 421
#     4  12  20  38  76  96 136 166 230 296 352 406
#     4  11  25  41  70  95 138 186 224 281 348 414
#     4  11  23  43  65 103 134 174 223 290 349 405
#
# _framework density 22.953341000000002
#
# number of rings (size 3 to 8) (size 9 to 14) (size 15 to 20)
#    0.000    0.615    6.154    2.769    0.000    1.846 
#    0.000    0.000    0.000    3.692    0.000    0.000 
#    0.000    0.000    0.000    0.000    0.000    0.000 
#
# Total GULP energy -289987.315488 kJ/mol
# GULP energy per Si atom -5576.679144 kJ/mol
# Density = 2.290110 g / cm^3
# Si number density = 22.953341 Si / 1000 Ang^3
#
#
#
# Elastic Constant Matrix: (Units=GPa)
#
#
# Indices 1 2 3 4 5 6 
#
# 1 78.9243 37.0406 13.4143 0.0000 0.0000 0.0000
# 2 37.0406 78.9241 13.4139 0.0000 0.0000 0.0000
# 3 13.4143 13.4139 69.2566 0.0000 0.0000 0.0000
# 4 0.0000 0.0000 0.0000 19.7712 0.0000 0.0000
# 5 0.0000 0.0000 0.0000 0.0000 19.7711 0.0000
# 6 0.0000 0.0000 0.0000 0.0000 0.0000 52.0828
#
#
#
# Elastic Compliance Matrix: (Units=1/GPa)
#
#
# Indices 1 2 3 4 5 6 
#
# 1 0.016452 -0.007424 -0.001749 0.000000 0.000000 0.000000
# 2 -0.007424 0.016452 -0.001748 0.000000 0.000000 0.000000
# 3 -0.001749 -0.001748 0.015116 0.000000 0.000000 0.000000
# 4 0.000000 0.000000 0.000000 0.050579 0.000000 0.000000
# 5 0.000000 0.000000 0.000000 0.000000 0.050579 0.000000
# 6 0.000000 0.000000 0.000000 0.000000 0.000000 0.019200
#
#
# Mechanical properties :
#
#
# Convention : Reuss Voigt Hill
#
# Bulk Modulus (GPa) = 38.20033 39.42695 38.81364
# Shear Modulus (GPa) = 25.13250 29.20745 27.16997
#
# Velocity S-wave (km/s) = 3.31258 3.57104 3.44423
# Velocity P-wave (km/s) = 5.59550 5.84956 5.72394
#
# Compressibility (1/GPa) = 0.02617778
#
# Stress axis : x y z
#
# Youngs Moduli (GPa) = 60.78379 60.78375 66.15329
#
# Poissons Ratio (x) = 0.45125 0.11568
# Poissons Ratio (y) = 0.45125 0.11567
# Poissons Ratio (z) = 0.10629 0.10628
#
# Static dielectric constant tensor:
#      x y z
#    x 1.921040 0.000000 0.000000 
#    y 0.000000 1.921040 0.000000 
#    z 0.000000 0.000000 2.161630 
# 
# From -- ./inp_files/2742.got.cif
#   From: 2010.05.17/outbox.cif.g08.bks.cpg/sg133_2_cif.got.tgz:2742.got - 2010.05.20 12:37:36.
