data_PCOD9567673
_publ_section_title
;
Structure prediction by ZEFSAII (Michael W. Deem and Ramdas Pophale) SiO2 
 PCOD9567673
Probable space group: P 42/N B C
;
_chemical_formula_sum "Si O2"
_cell_formula_units_Z 68
_cell_length_a 11.058879
_cell_length_b 11.058879
_cell_length_c 27.118774
_cell_angle_alpha 90.000000
_cell_angle_beta 90.000000
_cell_angle_gamma 90.000000
_cell_volume 3316.593646
_symmetry_space_group_name_H-M "P 42/N B C"
_symmetry_group_IT_number 133
_space_group.IT_coordinate_system_code '2'
_symmetry_cell_setting 'tetragonal'
loop_
_space_group_symop_operation_xyz
x,y,z
1/2-y,x,1/2+z
1/2-x,1/2-y,z
y,1/2-x,1/2+z
x,1/2-y,-z
1/2-x,y,-z
y,x,1/2-z
1/2-y,1/2-x,1/2-z
-x,-y,-z
1/2+y,-x,1/2-z
1/2+x,1/2+y,-z
-y,1/2+x,1/2-z
-x,1/2+y,z
1/2+x,-y,z
-y,-x,1/2+z
1/2+y,1/2+x,1/2+z
loop_
_atom_site_type_symbol
_atom_site_label
_atom_site_fract_x
_atom_site_fract_y
_atom_site_fract_z
Si Si1 0.876278 0.821861 0.803015
Si Si2 0.750000 0.250000 0.500000
Si Si3 0.120160 0.743725 0.839661
Si Si4 0.929888 0.120476 0.572989
Si Si5 0.866068 0.505013 0.102200
O O1 0.750000 0.750000 0.803404
O O2 0.885703 0.885703 0.750000
O O3 0.996843 0.741303 0.809173
O O4 0.870249 0.910572 0.849652
O O5 0.833538 0.163982 0.533004
O O6 0.250000 0.750000 0.812803
O O7 0.117631 0.862587 0.873988
O O8 0.122395 0.630818 0.876901
O O9 0.020646 0.234834 0.576801
O O10 0.974838 0.983201 0.567675
#
# Coordination Sequence:
#
# PCOD9567673 Si02
#       5
#    16   4  16  16  16
#     4  10  21  37  57  89 120 152 200 253 289 355
#     4  12  20  40  60  86 120 148 204 258 288 372
#     4   9  18  39  57  83 116 152 195 236 302 357
#     4  10  21  36  63  83 116 151 196 246 299 355
#     4  10  19  39  60  84 115 164 189 237 315 360
#
# _framework density 20.502963000000001
#
# number of rings (size 3 to 8) (size 9 to 14) (size 15 to 20)
#    0.000    2.118    3.529    1.412    0.000    0.941 
#   16.941    0.000    0.000    1.412    0.000    0.000 
#    0.000    0.000    0.000    0.000    0.000    0.000 
#
# Total GULP energy -378898.172700 kJ/mol
# GULP energy per Si atom -5572.031951 kJ/mol
# Density = 2.045630 g / cm^3
# Si number density = 20.502963 Si / 1000 Ang^3
#
#
#
# Elastic Constant Matrix: (Units=GPa)
#
#
# Indices 1 2 3 4 5 6 
#
# 1 101.9953 40.2915 21.6132 0.0000 0.0000 0.0000
# 2 40.2915 101.9953 21.6132 0.0000 0.0000 0.0000
# 3 21.6132 21.6132 58.4026 0.0000 0.0000 0.0000
# 4 0.0000 0.0000 0.0000 17.5739 0.0000 0.0000
# 5 0.0000 0.0000 0.0000 0.0000 17.5739 0.0000
# 6 0.0000 0.0000 0.0000 0.0000 0.0000 24.2186
#
#
#
# Elastic Compliance Matrix: (Units=1/GPa)
#
#
# Indices 1 2 3 4 5 6 
#
# 1 0.012062 -0.004144 -0.002930 0.000000 0.000000 0.000000
# 2 -0.004144 0.012062 -0.002930 0.000000 0.000000 0.000000
# 3 -0.002930 -0.002930 0.019291 0.000000 0.000000 0.000000
# 4 0.000000 0.000000 0.000000 0.056903 0.000000 0.000000
# 5 0.000000 0.000000 0.000000 0.000000 0.056903 0.000000
# 6 0.000000 0.000000 0.000000 0.000000 0.000000 0.041291
#
#
# Mechanical properties :
#
#
# Convention : Reuss Voigt Hill
#
# Bulk Modulus (GPa) = 42.72297 47.71433 45.21865
# Shear Modulus (GPa) = 22.09226 23.79830 22.94528
#
# Velocity S-wave (km/s) = 3.28611 3.41064 3.34895
# Velocity P-wave (km/s) = 5.93976 6.23156 6.08741
#
# Compressibility (1/GPa) = 0.02340661
#
# Stress axis : x y z
#
# Youngs Moduli (GPa) = 82.90245 82.90245 51.83659
#
# Poissons Ratio (x) = 0.34355 0.15190
# Poissons Ratio (y) = 0.34355 0.15190
# Poissons Ratio (z) = 0.24293 0.24293
#
# Static dielectric constant tensor:
#      x y z
#    x 1.778820 0.000000 0.000000 
#    y 0.000000 1.778820 0.000000 
#    z 0.000000 0.000000 1.730640 
# 
# From -- ./inp_files/7503.got.cif
#   From: 2010.05.17/outbox.cif.g08.bks.cpg/sg133_4_cif.got.tgz:7503.got - 2010.05.20 12:37:36.
