data_PCOD9567055
_publ_section_title
;
Structure prediction by ZEFSAII (Michael W. Deem and Ramdas Pophale) SiO2 
 PCOD9567055
Probable space group: P 42/M C M
;
_chemical_formula_sum "Si O2"
_cell_formula_units_Z 112
_cell_length_a 29.738446
_cell_length_b 29.738446
_cell_length_c 8.790301
_cell_angle_alpha 90.000000
_cell_angle_beta 90.000000
_cell_angle_gamma 90.000000
_cell_volume 7773.923946
_symmetry_space_group_name_H-M "P 42/M C M"
_symmetry_group_IT_number 132
_symmetry_cell_setting 'tetragonal'
loop_
_space_group_symop_operation_xyz
x,y,z
-y,x,1/2+z
-x,-y,z
y,-x,1/2+z
x,-y,1/2-z
-x,y,1/2-z
y,x,-z
-y,-x,-z
-x,-y,-z
y,-x,1/2-z
x,y,-z
-y,x,1/2-z
-x,y,1/2+z
x,-y,1/2+z
-y,-x,z
y,x,z
loop_
_atom_site_type_symbol
_atom_site_label
_atom_site_fract_x
_atom_site_fract_y
_atom_site_fract_z
Si Si1 0.281423 0.854627 0.317654
Si Si2 0.046914 0.289233 0.326637
Si Si3 0.779665 0.355437 0.317820
Si Si4 0.397135 0.954409 0.826728
Si Si5 0.453280 0.211269 0.680486
Si Si6 0.287809 0.287809 0.326782
Si Si7 0.211303 0.211303 0.672545
Si Si8 0.886992 0.456786 0.320922
O O1 0.281771 0.854793 0.500000
O O2 0.280867 0.905650 0.257018
O O3 0.325342 0.823918 0.269415
O O4 0.236875 0.828965 0.257896
O O5 0.049458 0.272489 0.500000
O O6 0.043531 0.343442 0.332205
O O7 0.000000 0.273381 0.250000
O O8 0.781826 0.358822 0.500000
O O9 0.774964 0.405138 0.248410
O O10 0.736303 0.327636 0.263255
O O11 0.412743 0.914668 0.718038
O O12 0.414129 0.000000 0.750000
O O13 0.413552 0.948375 0.000000
O O14 0.500000 0.230643 0.750000
O O15 0.453904 0.216898 0.500000
O O16 0.454340 0.158866 0.727058
O O17 0.300309 0.300309 0.500000
O O18 0.249579 0.249579 0.336757
O O19 0.198636 0.198636 0.500000
O O20 0.912102 0.500000 0.250000
O O21 0.878732 0.461520 0.500000
#
# Coordination Sequence:
#
# PCOD9567055 Si02
#       8
#    16  16  16  16  16   8   8  16
#     4  10  19  30  46  66  89 114 142 176 216 258
#     4  10  20  32  46  62  82 107 137 171 208 250
#     4  10  19  31  47  67  90 116 144 178 219 261
#     4  10  20  33  46  60  76  96 125 163 206 252
#     4  11  21  33  47  63  83 108 139 174 211 254
#     4   9  17  29  45  67  91 115 143 176 213 256
#     4   9  17  29  45  65  89 113 141 174 211 254
#     4  11  21  33  46  59  75  96 125 163 207 254
#
# _framework density 14.407139000000001
#
# number of rings (size 3 to 8) (size 9 to 14) (size 15 to 20)
#    0.000    1.857    0.000    6.429    0.000    7.714 
#    0.000    1.429    0.000    0.000    0.000    0.000 
#    0.000    0.000    0.000    0.000    0.000    0.714 
#
# Total GULP energy -624014.024106 kJ/mol
# GULP energy per Si atom -5571.553787 kJ/mol
# Density = 1.437435 g / cm^3
# Si number density = 14.407139 Si / 1000 Ang^3
#
#
#
# Elastic Constant Matrix: (Units=GPa)
#
#
# Indices 1 2 3 4 5 6 
#
# 1 69.6859 40.0335 37.2852 0.0000 0.0000 0.0000
# 2 40.0335 69.6859 37.2852 0.0000 0.0000 0.0000
# 3 37.2852 37.2852 104.8241 0.0000 0.0000 0.0000
# 4 0.0000 0.0000 0.0000 21.9935 0.0000 0.0000
# 5 0.0000 0.0000 0.0000 0.0000 21.9935 0.0000
# 6 0.0000 0.0000 0.0000 0.0000 0.0000 8.9116
#
#
#
# Elastic Compliance Matrix: (Units=1/GPa)
#
#
# Indices 1 2 3 4 5 6 
#
# 1 0.022872 -0.010852 -0.004275 0.000000 0.000000 0.000000
# 2 -0.010852 0.022872 -0.004275 0.000000 0.000000 0.000000
# 3 -0.004275 -0.004275 0.012581 0.000000 0.000000 0.000000
# 4 0.000000 0.000000 0.000000 0.045468 0.000000 0.000000
# 5 0.000000 0.000000 0.000000 0.000000 0.045468 0.000000
# 6 0.000000 0.000000 0.000000 0.000000 0.000000 0.112214
#
#
# Mechanical properties :
#
#
# Convention : Reuss Voigt Hill
#
# Bulk Modulus (GPa) = 51.23083 52.60039 51.91561
# Shear Modulus (GPa) = 16.29794 19.21918 17.75856
#
# Velocity S-wave (km/s) = 3.36704 3.65636 3.51468
# Velocity P-wave (km/s) = 7.12408 7.37662 7.25145
#
# Compressibility (1/GPa) = 0.01951950
#
# Stress axis : x y z
#
# Youngs Moduli (GPa) = 43.72160 43.72160 79.48334
#
# Poissons Ratio (x) = 0.47447 0.33982
# Poissons Ratio (y) = 0.47447 0.33982
# Poissons Ratio (z) = 0.18693 0.18693
#
# Static dielectric constant tensor:
#      x y z
#    x 1.504380 0.000000 0.000000 
#    y 0.000000 1.504380 0.000000 
#    z 0.000000 0.000000 1.498010 
# 
# From -- ./inp_files/2180.got.cif
#   From: 2010.05.17/outbox.cif.g08.bks.cpg/sg132_2_cif.got.tgz:2180.got - 2010.05.20 12:30:18.
