data_PCOD9567848
_publ_section_title
;
Structure prediction by ZEFSAII (Michael W. Deem and Ramdas Pophale) SiO2 
 PCOD9567848
Probable space group: P 42/N B C
;
_chemical_formula_sum "Si O2"
_cell_formula_units_Z 104
_cell_length_a 18.359708
_cell_length_b 18.359708
_cell_length_c 15.664416
_cell_angle_alpha 90.000000
_cell_angle_beta 90.000000
_cell_angle_gamma 90.000000
_cell_volume 5280.143767
_symmetry_space_group_name_H-M "P 42/N B C"
_symmetry_group_IT_number 133
_space_group.IT_coordinate_system_code '2'
_symmetry_cell_setting 'tetragonal'
loop_
_space_group_symop_operation_xyz
x,y,z
1/2-y,x,1/2+z
1/2-x,1/2-y,z
y,1/2-x,1/2+z
x,1/2-y,-z
1/2-x,y,-z
y,x,1/2-z
1/2-y,1/2-x,1/2-z
-x,-y,-z
1/2+y,-x,1/2-z
1/2+x,1/2+y,-z
-y,1/2+x,1/2-z
-x,1/2+y,z
1/2+x,-y,z
-y,-x,1/2+z
1/2+y,1/2+x,1/2+z
loop_
_atom_site_type_symbol
_atom_site_label
_atom_site_fract_x
_atom_site_fract_y
_atom_site_fract_z
Si Si1 0.543686 0.827115 0.377206
Si Si2 0.078913 0.356636 0.163813
Si Si3 0.101915 0.890556 0.821074
Si Si4 0.454028 0.454028 0.250000
Si Si5 0.177369 0.225129 0.597337
Si Si6 0.048318 0.757310 0.239501
Si Si7 0.420525 0.006708 0.041539
O O1 0.566225 0.900714 0.327615
O O2 0.606205 0.766362 0.370504
O O3 0.479841 0.788177 0.322672
O O4 0.526748 0.857306 0.472466
O O5 0.119822 0.380179 0.250000
O O6 0.138930 0.320485 0.103735
O O7 0.064992 0.431198 0.112736
O O8 0.015142 0.302054 0.190458
O O9 0.080263 0.805950 0.820602
O O10 0.178569 0.899957 0.773292
O O11 0.037319 0.934996 0.771800
O O12 0.103271 0.932598 0.911061
O O13 0.250000 0.250000 0.644011
O O14 0.179240 0.250000 0.500000
O O15 0.500000 0.000000 0.000000
#
# Coordination Sequence:
#
# PCOD9567848 Si02
#       7
#    16  16  16   8  16  16  16
#     4  11  23  41  66 101 131 184 230 281 347 418
#     4  12  23  42  69  99 135 181 228 273 341 417
#     4  11  23  44  67 102 131 178 232 286 349 400
#     4  10  22  40  69  94 132 169 242 274 340 414
#     4  11  24  38  58  95 144 181 212 271 343 414
#     4  11  26  43  73  99 135 182 238 293 343 424
#     4  12  24  41  74 102 137 176 235 295 336 408
#
# _framework density 19.696434
#
# number of rings (size 3 to 8) (size 9 to 14) (size 15 to 20)
#    0.000    0.769    6.154    0.923    6.462    0.615 
#    0.000    0.000    0.000    0.000    4.000    0.000 
#    0.000    0.000    0.000    0.000    0.000    0.000 
#
# Total GULP energy -579980.592852 kJ/mol
# GULP energy per Si atom -5576.736470 kJ/mol
# Density = 1.965160 g / cm^3
# Si number density = 19.696434 Si / 1000 Ang^3
#
#
#
# Elastic Constant Matrix: (Units=GPa)
#
#
# Indices 1 2 3 4 5 6 
#
# 1 114.4092 39.0174 25.8761 0.0000 0.0000 0.0000
# 2 39.0174 114.4096 25.8764 0.0000 0.0000 0.0000
# 3 25.8761 25.8764 79.6294 0.0000 0.0000 0.0000
# 4 0.0000 0.0000 0.0000 -31.6052 0.0000 0.0000
# 5 0.0000 0.0000 0.0000 0.0000 -31.6093 0.0000
# 6 0.0000 0.0000 0.0000 0.0000 0.0000 159.2814
#
#
#
# Elastic Compliance Matrix: (Units=1/GPa)
#
#
# Indices 1 2 3 4 5 6 
#
# 1 0.010292 -0.002972 -0.002379 0.000000 0.000000 0.000000
# 2 -0.002972 0.010292 -0.002379 0.000000 0.000000 0.000000
# 3 -0.002379 -0.002379 0.014104 0.000000 0.000000 0.000000
# 4 0.000000 0.000000 0.000000 -0.031640 0.000000 0.000000
# 5 0.000000 0.000000 0.000000 0.000000 -0.031636 0.000000
# 6 0.000000 0.000000 0.000000 0.000000 0.000000 0.006278
#
#
# Mechanical properties :
#
#
# Convention : Reuss Voigt Hill
#
# Bulk Modulus (GPa) = 52.00349 54.44310 53.22329
# Shear Modulus (GPa) = -11326.19736 33.72526 -5646.23605
#
# Velocity S-wave (km/s) = -75.91353 4.14243 -53.59899
# Velocity P-wave (km/s) = 87.50633 7.11201 61.67162
#
# Compressibility (1/GPa) = 0.01922948
#
# Stress axis : x y z
#
# Youngs Moduli (GPa) = 97.16200 97.16218 70.90110
#
# Poissons Ratio (x) = 0.28876 0.16865
# Poissons Ratio (y) = 0.28876 0.16866
# Poissons Ratio (z) = 0.23112 0.23113
#
# Static dielectric constant tensor:
#      x y z
#    x 1.750740 0.000000 0.000000 
#    y 0.000000 1.750740 0.000000 
#    z 0.000000 0.000000 1.725230 
# 
# From -- ./inp_files/5618.got.cif
#   From: 2010.05.17/outbox.cif.g08.bks.cpg/sg133_3_cif.got.tgz:5618.got - 2010.05.20 12:37:36.
