data_PCOD9567820
_publ_section_title
;
Structure prediction by ZEFSAII (Michael W. Deem and Ramdas Pophale) SiO2 
 PCOD9567820
Probable space group: P 42/N B C
;
_chemical_formula_sum "Si O2"
_cell_formula_units_Z 52
_cell_length_a 14.646574
_cell_length_b 14.646574
_cell_length_c 11.357923
_cell_angle_alpha 90.000000
_cell_angle_beta 90.000000
_cell_angle_gamma 90.000000
_cell_volume 2436.525834
_symmetry_space_group_name_H-M "P 42/N B C"
_symmetry_group_IT_number 133
_space_group.IT_coordinate_system_code '2'
_symmetry_cell_setting 'tetragonal'
loop_
_space_group_symop_operation_xyz
x,y,z
1/2-y,x,1/2+z
1/2-x,1/2-y,z
y,1/2-x,1/2+z
x,1/2-y,-z
1/2-x,y,-z
y,x,1/2-z
1/2-y,1/2-x,1/2-z
-x,-y,-z
1/2+y,-x,1/2-z
1/2+x,1/2+y,-z
-y,1/2+x,1/2-z
-x,1/2+y,z
1/2+x,-y,z
-y,-x,1/2+z
1/2+y,1/2+x,1/2+z
loop_
_atom_site_type_symbol
_atom_site_label
_atom_site_fract_x
_atom_site_fract_y
_atom_site_fract_z
Si Si1 0.750000 0.750000 0.750000
Si Si2 0.998422 0.445001 0.622126
Si Si3 0.204341 0.429385 0.622737
Si Si4 0.384725 0.698944 0.729601
O O1 0.841965 0.746773 0.824779
O O2 0.916614 0.371831 0.628596
O O3 0.000550 0.499451 0.750000
O O4 0.000000 0.500000 0.500000
O O5 0.098413 0.399719 0.617566
O O6 0.250000 0.450872 0.500000
O O7 0.208073 0.522281 0.697031
O O8 0.300362 0.651351 0.798805
#
# Coordination Sequence:
#
# PCOD9567820 Si02
#       4
#     4  16  16  16
#     4  12  22  48  68  98 140 180 248 306 374 436
#     4  10  21  44  69 105 143 185 244 299 363 439
#     4  11  23  45  69 100 140 187 243 304 370 448
#     4  10  21  43  71 102 148 193 239 297 369 445
#
# _framework density 21.341863
#
# number of rings (size 3 to 8) (size 9 to 14) (size 15 to 20)
#    0.000    1.538    4.615    2.308    0.000    0.000 
#   22.154   21.538    0.000    0.000    0.000    0.000 
#    0.000    0.000    0.000    0.000    0.000    0.000 
#
# Total GULP energy -289816.680673 kJ/mol
# GULP energy per Si atom -5573.397705 kJ/mol
# Density = 2.129329 g / cm^3
# Si number density = 21.341863 Si / 1000 Ang^3
#
#
#
# Elastic Constant Matrix: (Units=GPa)
#
#
# Indices 1 2 3 4 5 6 
#
# 1 124.0668 49.6752 36.6884 0.0000 0.0000 0.0000
# 2 49.6752 124.0672 36.6885 0.0000 0.0000 0.0000
# 3 36.6884 36.6885 118.9427 0.0000 0.0000 0.0000
# 4 0.0000 0.0000 0.0000 16.1758 0.0000 0.0000
# 5 0.0000 0.0000 0.0000 0.0000 16.1759 0.0000
# 6 0.0000 0.0000 0.0000 0.0000 0.0000 39.5897
#
#
#
# Elastic Compliance Matrix: (Units=1/GPa)
#
#
# Indices 1 2 3 4 5 6 
#
# 1 0.010030 -0.003412 -0.002041 0.000000 0.000000 0.000000
# 2 -0.003412 0.010030 -0.002041 0.000000 0.000000 0.000000
# 3 -0.002041 -0.002041 0.009667 0.000000 0.000000 0.000000
# 4 0.000000 0.000000 0.000000 0.061821 0.000000 0.000000
# 5 0.000000 0.000000 0.000000 0.000000 0.061820 0.000000
# 6 0.000000 0.000000 0.000000 0.000000 0.000000 0.025259
#
#
# Mechanical properties :
#
#
# Convention : Reuss Voigt Hill
#
# Bulk Modulus (GPa) = 67.85600 68.13119 67.99359
# Shear Modulus (GPa) = 25.18523 30.65660 27.92091
#
# Velocity S-wave (km/s) = 3.43896 3.79417 3.62092
# Velocity P-wave (km/s) = 6.90163 7.15453 7.02922
#
# Compressibility (1/GPa) = 0.01473709
#
# Stress axis : x y z
#
# Youngs Moduli (GPa) = 99.70033 99.70065 103.44802
#
# Poissons Ratio (x) = 0.34021 0.21117
# Poissons Ratio (y) = 0.34021 0.21117
# Poissons Ratio (z) = 0.20352 0.20352
#
# Static dielectric constant tensor:
#      x y z
#    x 1.876400 0.000000 0.000000 
#    y 0.000000 1.876410 0.000000 
#    z 0.000000 0.000000 1.889760 
# 
# From -- ./inp_files/2762.got.cif
#   From: 2010.05.17/outbox.cif.g08.bks.cpg/sg133_2_cif.got.tgz:2762.got - 2010.05.20 12:37:36.
