data_PCOD9567110
_publ_section_title
;
Structure prediction by ZEFSAII (Michael W. Deem and Ramdas Pophale) SiO2 
 PCOD9567110
Probable space group: P 42/M C M
;
_chemical_formula_sum "Si O2"
_cell_formula_units_Z 96
_cell_length_a 15.272096
_cell_length_b 15.272096
_cell_length_c 19.379207
_cell_angle_alpha 90.000000
_cell_angle_beta 90.000000
_cell_angle_gamma 90.000000
_cell_volume 4519.946480
_symmetry_space_group_name_H-M "P 42/M C M"
_symmetry_group_IT_number 132
_symmetry_cell_setting 'tetragonal'
loop_
_space_group_symop_operation_xyz
x,y,z
-y,x,1/2+z
-x,-y,z
y,-x,1/2+z
x,-y,1/2-z
-x,y,1/2-z
y,x,-z
-y,-x,-z
-x,-y,-z
y,-x,1/2-z
x,y,-z
-y,x,1/2-z
-x,y,1/2+z
x,-y,1/2+z
-y,-x,z
y,x,z
loop_
_atom_site_type_symbol
_atom_site_label
_atom_site_fract_x
_atom_site_fract_y
_atom_site_fract_z
Si Si1 0.775813 0.580552 0.422718
Si Si2 0.861235 0.995529 0.166302
Si Si3 0.076005 0.565310 0.422017
Si Si4 0.674865 0.178834 0.316540
Si Si5 0.332758 0.468501 0.174588
Si Si6 0.724341 0.127408 0.833663
O O1 0.748561 0.604329 0.500000
O O2 0.840068 0.497567 0.427779
O O3 0.698542 0.547874 0.373101
O O4 0.832390 0.656136 0.386943
O O5 0.934766 0.065235 0.143246
O O6 0.768514 0.035773 0.145052
O O7 0.859599 0.000000 0.250000
O O8 0.900581 0.900581 0.147387
O O9 0.049536 0.592652 0.500000
O O10 0.110094 0.643796 0.374286
O O11 0.000000 0.500000 0.394072
O O12 0.762140 0.237861 0.329614
O O13 0.597057 0.250637 0.312247
O O14 0.684658 0.129460 0.243371
O O15 0.359186 0.500000 0.250000
O O16 0.410189 0.410189 0.142906
O O17 0.804001 0.196000 0.829346
#
# Coordination Sequence:
#
# PCOD9567110 Si02
#       6
#    16  16  16  16  16  16
#     4  10  21  36  55  79 111 153 197 242 302 368
#     4   8  15  29  49  75 108 143 180 230 292 348
#     4   9  19  35  53  77 113 151 188 239 297 356
#     4   9  18  32  53  80 110 148 194 245 298 355
#     4  10  19  34  56  80 112 150 194 252 309 361
#     4  10  19  32  52  78 110 145 187 242 295 351
#
# _framework density 21.239191000000002
#
# number of rings (size 3 to 8) (size 9 to 14) (size 15 to 20)
#    0.000    2.667    1.667    0.500    0.000    2.500 
#    0.000    4.167    0.000    0.500    0.000    7.000 
#    0.000    0.667    0.000    6.500    0.000    0.167 
#
# Total GULP energy -535356.699378 kJ/mol
# GULP energy per Si atom -5576.632285 kJ/mol
# Density = 2.119085 g / cm^3
# Si number density = 21.239191 Si / 1000 Ang^3
#
#
#
# Elastic Constant Matrix: (Units=GPa)
#
#
# Indices 1 2 3 4 5 6 
#
# 1 96.6024 66.4341 51.9062 0.0000 0.0000 0.0000
# 2 66.4341 96.6024 51.9062 0.0000 0.0000 0.0000
# 3 51.9062 51.9062 112.9129 0.0000 0.0000 0.0000
# 4 0.0000 0.0000 0.0000 -1.9036 0.0000 0.0000
# 5 0.0000 0.0000 0.0000 0.0000 -1.9036 0.0000
# 6 0.0000 0.0000 0.0000 0.0000 0.0000 34.7582
#
#
#
# Elastic Compliance Matrix: (Units=1/GPa)
#
#
# Indices 1 2 3 4 5 6 
#
# 1 0.020910 -0.012238 -0.003987 0.000000 0.000000 0.000000
# 2 -0.012238 0.020910 -0.003987 0.000000 0.000000 0.000000
# 3 -0.003987 -0.003987 0.012522 0.000000 0.000000 0.000000
# 4 0.000000 0.000000 0.000000 -0.525310 0.000000 0.000000
# 5 0.000000 0.000000 0.000000 0.000000 -0.525310 0.000000
# 6 0.000000 0.000000 0.000000 0.000000 0.000000 0.028770
#
#
# Mechanical properties :
#
#
# Convention : Reuss Voigt Hill
#
# Bulk Modulus (GPa) = 71.84172 71.84561 71.84366
# Shear Modulus (GPa) = -5.42036 15.24827 4.91395
#
# Velocity S-wave (km/s) = -1.59925 2.68233 1.52271
# Velocity P-wave (km/s) = 5.52163 6.59496 6.08202
#
# Compressibility (1/GPa) = 0.01391949
#
# Stress axis : x y z
#
# Youngs Moduli (GPa) = 47.82470 47.82470 79.86193
#
# Poissons Ratio (x) = 0.58526 0.31837
# Poissons Ratio (y) = 0.58526 0.31837
# Poissons Ratio (z) = 0.19065 0.19065
#
# Static dielectric constant tensor:
#      x y z
#    x 1.831710 0.000000 0.000000 
#    y 0.000000 1.831710 0.000000 
#    z 0.000000 0.000000 1.734090 
# 
# From -- ./inp_files/7871.got.cif
#   From: 2010.05.17/outbox.cif.g08.bks.cpg/sg132_4_cif.got.tgz:7871.got - 2010.05.20 12:30:18.
