data_PCOD9567498
_publ_section_title
;
Structure prediction by ZEFSAII (Michael W. Deem and Ramdas Pophale) SiO2 
 PCOD9567498
Probable space group: P 42/M C M
;
_chemical_formula_sum "Si O2"
_cell_formula_units_Z 88
_cell_length_a 13.641311
_cell_length_b 13.641311
_cell_length_c 27.077263
_cell_angle_alpha 90.000000
_cell_angle_beta 90.000000
_cell_angle_gamma 90.000000
_cell_volume 5038.682390
_symmetry_space_group_name_H-M "P 42/M C M"
_symmetry_group_IT_number 132
_symmetry_cell_setting 'tetragonal'
loop_
_space_group_symop_operation_xyz
x,y,z
-y,x,1/2+z
-x,-y,z
y,-x,1/2+z
x,-y,1/2-z
-x,y,1/2-z
y,x,-z
-y,-x,-z
-x,-y,-z
y,-x,1/2-z
x,y,-z
-y,x,1/2-z
-x,y,1/2+z
x,-y,1/2+z
-y,-x,z
y,x,z
loop_
_atom_site_type_symbol
_atom_site_label
_atom_site_fract_x
_atom_site_fract_y
_atom_site_fract_z
Si Si1 0.139510 0.702317 0.355499
Si Si2 0.495831 0.661320 0.302353
Si Si3 0.664409 0.501421 0.000000
Si Si4 0.114885 0.723180 0.242991
Si Si5 0.399007 0.944721 0.847845
Si Si6 0.494896 0.782378 0.399179
O O1 0.194160 0.805841 0.364239
O O2 0.149244 0.682411 0.296371
O O3 0.189149 0.617735 0.387842
O O4 0.023878 0.683309 0.363538
O O5 0.500000 0.716922 0.250000
O O6 0.390383 0.609618 0.309198
O O7 0.575087 0.575087 0.295812
O O8 0.521323 0.715923 0.352148
O O9 0.728775 0.495741 0.950738
O O10 0.601267 0.601267 0.000000
O O11 0.586631 0.413370 0.000000
O O12 0.185369 0.814632 0.231492
O O13 0.113418 0.645526 0.198603
O O14 0.000000 0.752303 0.250000
O O15 0.435370 0.876246 0.892193
O O16 0.500000 0.000000 0.831929
#
# Coordination Sequence:
#
# PCOD9567498 Si02
#       6
#    16  16   8  16  16  16
#     4   9  18  33  52  74 103 139 178 217 267 327
#     4   9  18  30  44  68 102 135 168 209 254 307
#     4  11  24  40  55  74 107 147 181 218 266 326
#     4   9  18  31  49  75 108 146 184 224 273 327
#     4   9  20  34  51  78 111 141 177 228 279 323
#     4  11  21  33  53  75 100 139 180 222 266 319
#
# _framework density 17.464883
#
# number of rings (size 3 to 8) (size 9 to 14) (size 15 to 20)
#    0.000    2.455    0.000    2.727    2.545   10.727 
#    0.000    4.091    0.000    0.000    0.000    0.000 
#    0.000    0.727    0.000    0.000    0.000    1.091 
#
# Total GULP energy -490314.585230 kJ/mol
# GULP energy per Si atom -5571.756650 kJ/mol
# Density = 1.742513 g / cm^3
# Si number density = 17.464883 Si / 1000 Ang^3
#
#
#
# Elastic Constant Matrix: (Units=GPa)
#
#
# Indices 1 2 3 4 5 6 
#
# 1 75.9852 49.1956 52.9077 0.0000 0.0000 0.0000
# 2 49.1956 75.9846 52.9071 0.0000 0.0000 0.0000
# 3 52.9077 52.9071 126.1752 0.0000 0.0000 0.0000
# 4 0.0000 0.0000 0.0000 21.6373 0.0000 0.0000
# 5 0.0000 0.0000 0.0000 0.0000 21.6382 0.0000
# 6 0.0000 0.0000 0.0000 0.0000 0.0000 39.6954
#
#
#
# Elastic Compliance Matrix: (Units=1/GPa)
#
#
# Indices 1 2 3 4 5 6 
#
# 1 0.024851 -0.012477 -0.005189 0.000000 0.000000 0.000000
# 2 -0.012477 0.024851 -0.005189 0.000000 0.000000 0.000000
# 3 -0.005189 -0.005189 0.012277 0.000000 0.000000 0.000000
# 4 0.000000 0.000000 0.000000 0.046216 0.000000 0.000000
# 5 0.000000 0.000000 0.000000 0.000000 0.046215 0.000000
# 6 0.000000 0.000000 0.000000 0.000000 0.000000 0.025192
#
#
# Mechanical properties :
#
#
# Convention : Reuss Voigt Hill
#
# Bulk Modulus (GPa) = 61.45997 65.35176 63.40586
# Shear Modulus (GPa) = 21.66983 24.80316 23.23649
#
# Velocity S-wave (km/s) = 3.52627 3.77261 3.65152
# Velocity P-wave (km/s) = 7.20045 7.51511 7.35946
#
# Compressibility (1/GPa) = 0.01627075
#
# Stress axis : x y z
#
# Youngs Moduli (GPa) = 40.23918 40.23913 81.45269
#
# Poissons Ratio (x) = 0.50206 0.42266
# Poissons Ratio (y) = 0.50206 0.42264
# Poissons Ratio (z) = 0.20880 0.20879
#
# Static dielectric constant tensor:
#      x y z
#    x 1.645820 0.000000 0.000000 
#    y 0.000000 1.645820 0.000000 
#    z 0.000000 0.000000 1.580680 
# 
# From -- ./inp_files/8938.got.cif
#   From: 2010.05.17/outbox.cif.g08.bks.cpg/sg132_5_cif.got.tgz:8938.got - 2010.05.20 12:30:18.
