data_PCOD9567636
_publ_section_title
;
Structure prediction by ZEFSAII (Michael W. Deem and Ramdas Pophale) SiO2 
 PCOD9567636
Probable space group: P 42/N B C
;
_chemical_formula_sum "Si O2"
_cell_formula_units_Z 56
_cell_length_a 13.168628
_cell_length_b 13.168628
_cell_length_c 13.491374
_cell_angle_alpha 90.000000
_cell_angle_beta 90.000000
_cell_angle_gamma 90.000000
_cell_volume 2339.576447
_symmetry_space_group_name_H-M "P 42/N B C"
_symmetry_group_IT_number 133
_space_group.IT_coordinate_system_code '2'
_symmetry_cell_setting 'tetragonal'
loop_
_space_group_symop_operation_xyz
x,y,z
1/2-y,x,1/2+z
1/2-x,1/2-y,z
y,1/2-x,1/2+z
x,1/2-y,-z
1/2-x,y,-z
y,x,1/2-z
1/2-y,1/2-x,1/2-z
-x,-y,-z
1/2+y,-x,1/2-z
1/2+x,1/2+y,-z
-y,1/2+x,1/2-z
-x,1/2+y,z
1/2+x,-y,z
-y,-x,1/2+z
1/2+y,1/2+x,1/2+z
loop_
_atom_site_type_symbol
_atom_site_label
_atom_site_fract_x
_atom_site_fract_y
_atom_site_fract_z
Si Si1 0.403581 0.837039 0.129282
Si Si2 0.616280 0.616280 0.250000
Si Si3 0.279063 0.505093 0.168020
Si Si4 0.113016 0.557221 0.418457
O O1 0.308690 0.911625 0.143976
O O2 0.464308 0.836432 0.231037
O O3 0.381641 0.717241 0.110849
O O4 0.467399 0.870992 0.033409
O O5 0.597603 0.721142 0.306872
O O6 0.531618 0.605831 0.162637
O O7 0.364389 0.520055 0.086663
#
# Coordination Sequence:
#
# PCOD9567636 Si02
#       4
#    16   8  16  16
#     4  10  19  33  58  83 118 151 191 257 331 366
#     4  10  22  34  56  84 122 160 198 250 318 374
#     4  11  19  35  53  86 121 152 197 252 309 382
#     4  10  21  35  55  87 118 157 194 253 316 379
#
# _framework density 23.935953999999999
#
# number of rings (size 3 to 8) (size 9 to 14) (size 15 to 20)
#    0.000    1.714    5.714    1.714    0.000    3.429 
#    0.000    0.000    0.000    0.857    0.000    0.000 
#    0.000    0.000    0.000    0.000    0.000    0.000 
#
# Total GULP energy -312691.056499 kJ/mol
# GULP energy per Si atom -5583.768866 kJ/mol
# Density = 2.388148 g / cm^3
# Si number density = 23.935954 Si / 1000 Ang^3
#
#
#
# Elastic Constant Matrix: (Units=GPa)
#
#
# Indices 1 2 3 4 5 6 
#
# 1 41.1825 34.1058 14.2460 0.0000 0.0000 0.0000
# 2 34.1058 41.1825 14.2460 0.0000 0.0000 0.0000
# 3 14.2460 14.2460 123.2674 0.0000 0.0000 0.0000
# 4 0.0000 0.0000 0.0000 28.3702 0.0000 0.0000
# 5 0.0000 0.0000 0.0000 0.0000 28.3702 0.0000
# 6 0.0000 0.0000 0.0000 0.0000 0.0000 38.7842
#
#
#
# Elastic Compliance Matrix: (Units=1/GPa)
#
#
# Indices 1 2 3 4 5 6 
#
# 1 0.077599 -0.063709 -0.001605 0.000000 0.000000 0.000000
# 2 -0.063709 0.077599 -0.001605 0.000000 0.000000 0.000000
# 3 -0.001605 -0.001605 0.008483 0.000000 0.000000 0.000000
# 4 0.000000 0.000000 0.000000 0.035248 0.000000 0.000000
# 5 0.000000 0.000000 0.000000 0.000000 0.035248 0.000000
# 6 0.000000 0.000000 0.000000 0.000000 0.000000 0.025784
#
#
# Mechanical properties :
#
#
# Convention : Reuss Voigt Hill
#
# Bulk Modulus (GPa) = 33.50975 36.75867 35.13421
# Shear Modulus (GPa) = 12.38391 28.64054 20.51223
#
# Velocity S-wave (km/s) = 2.27706 3.46287 2.93057
# Velocity P-wave (km/s) = 4.57641 5.60170 5.11481
#
# Compressibility (1/GPa) = 0.02984206
#
# Stress axis : x y z
#
# Youngs Moduli (GPa) = 12.88672 12.88672 117.87610
#
# Poissons Ratio (x) = 0.82101 0.18922
# Poissons Ratio (y) = 0.82101 0.18922
# Poissons Ratio (z) = 0.02069 0.02069
#
# Static dielectric constant tensor:
#      x y z
#    x 1.968780 0.000000 0.000000 
#    y 0.000000 1.968780 0.000000 
#    z 0.000000 0.000000 1.893940 
# 
# From -- ./inp_files/4028.got.cif
#   From: 2010.05.17/outbox.cif.g08.bks.cpg/sg133_3_cif.got.tgz:4028.got - 2010.05.20 12:37:36.
