data_PCOD9567320
_publ_section_title
;
Structure prediction by ZEFSAII (Michael W. Deem and Ramdas Pophale) SiO2 
 PCOD9567320
Probable space group: P 42/M C M
;
_chemical_formula_sum "Si O2"
_cell_formula_units_Z 84
_cell_length_a 14.818604
_cell_length_b 14.818604
_cell_length_c 22.365296
_cell_angle_alpha 90.000000
_cell_angle_beta 90.000000
_cell_angle_gamma 90.000000
_cell_volume 4911.218262
_symmetry_space_group_name_H-M "P 42/M C M"
_symmetry_group_IT_number 132
_symmetry_cell_setting 'tetragonal'
loop_
_space_group_symop_operation_xyz
x,y,z
-y,x,1/2+z
-x,-y,z
y,-x,1/2+z
x,-y,1/2-z
-x,y,1/2-z
y,x,-z
-y,-x,-z
-x,-y,-z
y,-x,1/2-z
x,y,-z
-y,x,1/2-z
-x,y,1/2+z
x,-y,1/2+z
-y,-x,z
y,x,z
loop_
_atom_site_type_symbol
_atom_site_label
_atom_site_fract_x
_atom_site_fract_y
_atom_site_fract_z
Si Si1 0.576981 0.280961 0.500000
Si Si2 0.587793 0.064531 0.500000
Si Si3 0.500000 0.500000 0.330573
Si Si4 0.008569 0.610645 0.631055
Si Si5 0.665485 0.810125 0.335295
Si Si6 0.298331 0.508050 0.370550
Si Si7 0.812214 0.333239 0.693089
O O1 0.678364 0.321637 0.500000
O O2 0.570834 0.172232 0.500000
O O3 0.530121 0.316727 0.560109
O O4 0.631684 0.039865 0.436713
O O5 0.500000 0.000000 0.500000
O O6 0.389786 0.500124 0.334111
O O7 0.084752 0.652253 0.673815
O O8 0.000000 0.500000 0.638009
O O9 0.912779 0.655173 0.644590
O O10 0.759011 0.759011 0.348955
O O11 0.583917 0.756611 0.365945
O O12 0.650978 0.804429 0.263890
O O13 0.241046 0.589948 0.343333
O O14 0.761961 0.238040 0.680112
#
# Coordination Sequence:
#
# PCOD9567320 Si02
#       7
#     8   8   4  16  16  16  16
#     4  12  22  36  61  80 115 152 199 251 282 338
#     4  10  20  36  56  84 110 143 187 253 298 333
#     4  12  24  37  53  80 130 168 193 231 282 358
#     4  11  21  37  62  86 113 149 201 247 299 345
#     4  11  24  39  56  84 120 156 194 240 294 353
#     4  12  22  38  53  83 117 158 202 233 284 338
#     4  11  22  38  59  85 116 150 200 248 290 343
#
# _framework density 17.1037
#
# number of rings (size 3 to 8) (size 9 to 14) (size 15 to 20)
#    0.000    0.762    6.667    2.286    0.000    1.524 
#    0.000    3.333    0.000    0.571    0.000    2.667 
#    0.000    2.286    0.000    0.000    0.000    0.000 
#
# Total GULP energy -467858.282118 kJ/mol
# GULP energy per Si atom -5569.741454 kJ/mol
# Density = 1.706477 g / cm^3
# Si number density = 17.103700 Si / 1000 Ang^3
#
#
#
# Elastic Constant Matrix: (Units=GPa)
#
#
# Indices 1 2 3 4 5 6 
#
# 1 151.6032 -8.2919 7.6577 0.0000 0.0000 0.0000
# 2 -8.2919 151.5986 7.6545 0.0000 0.0000 0.0000
# 3 7.6577 7.6545 61.1311 0.0000 0.0000 0.0000
# 4 0.0000 0.0000 0.0000 -9.5528 0.0000 0.0000
# 5 0.0000 0.0000 0.0000 0.0000 -9.5530 0.0000
# 6 0.0000 0.0000 0.0000 0.0000 0.0000 16.4372
#
#
#
# Elastic Compliance Matrix: (Units=1/GPa)
#
#
# Indices 1 2 3 4 5 6 
#
# 1 0.006663 0.000409 -0.000886 0.000000 0.000000 0.000000
# 2 0.000409 0.006663 -0.000886 0.000000 0.000000 0.000000
# 3 -0.000886 -0.000886 0.016580 0.000000 0.000000 0.000000
# 4 0.000000 0.000000 0.000000 -0.104681 0.000000 0.000000
# 5 0.000000 0.000000 0.000000 0.000000 -0.104679 0.000000
# 6 0.000000 0.000000 0.000000 0.000000 0.000000 0.060838
#
#
# Mechanical properties :
#
#
# Convention : Reuss Voigt Hill
#
# Bulk Modulus (GPa) = 36.78877 42.04149 39.41513
# Shear Modulus (GPa) = -46.80348 23.28710 -11.75819
#
# Velocity S-wave (km/s) = -5.23679 3.69389 -2.62480
# Velocity P-wave (km/s) = 3.87419 6.54422 3.72944
#
# Compressibility (1/GPa) = 0.02718221
#
# Stress axis : x y z
#
# Youngs Moduli (GPa) = 150.07588 150.07203 60.31307
#
# Poissons Ratio (x) = -0.06141 0.05343
# Poissons Ratio (y) = -0.06141 0.05341
# Poissons Ratio (z) = 0.13296 0.13291
#
# Static dielectric constant tensor:
#      x y z
#    x 1.580970 0.000000 0.000000 
#    y 0.000000 1.580970 0.000000 
#    z 0.000000 0.000000 1.620990 
# 
# From -- ./inp_files/7818.got.cif
#   From: 2010.05.17/outbox.cif.g08.bks.cpg/sg132_4_cif.got.tgz:7818.got - 2010.05.20 12:30:18.
