data_PCOD9567860
_publ_section_title
;
Structure prediction by ZEFSAII (Michael W. Deem and Ramdas Pophale) SiO2 
 PCOD9567860
Probable space group: P 42/N B C
;
_chemical_formula_sum "Si O2"
_cell_formula_units_Z 52
_cell_length_a 15.507086
_cell_length_b 15.507086
_cell_length_c 9.085547
_cell_angle_alpha 90.000000
_cell_angle_beta 90.000000
_cell_angle_gamma 90.000000
_cell_volume 2184.798909
_symmetry_space_group_name_H-M "P 42/N B C"
_symmetry_group_IT_number 133
_space_group.IT_coordinate_system_code '2'
_symmetry_cell_setting 'tetragonal'
loop_
_space_group_symop_operation_xyz
x,y,z
1/2-y,x,1/2+z
1/2-x,1/2-y,z
y,1/2-x,1/2+z
x,1/2-y,-z
1/2-x,y,-z
y,x,1/2-z
1/2-y,1/2-x,1/2-z
-x,-y,-z
1/2+y,-x,1/2-z
1/2+x,1/2+y,-z
-y,1/2+x,1/2-z
-x,1/2+y,z
1/2+x,-y,z
-y,-x,1/2+z
1/2+y,1/2+x,1/2+z
loop_
_atom_site_type_symbol
_atom_site_label
_atom_site_fract_x
_atom_site_fract_y
_atom_site_fract_z
Si Si1 0.489484 0.646214 0.713703
Si Si2 0.159726 0.401760 0.530271
Si Si3 0.952223 0.952223 0.250000
Si Si4 0.750000 0.368820 0.000000
Si Si5 0.250000 0.750000 0.250000
O O1 0.518639 0.690110 0.865186
O O2 0.580560 0.639753 0.622909
O O3 0.448064 0.555683 0.766340
O O4 0.426193 0.687434 0.596979
O O5 0.250000 0.353595 0.500000
O O6 0.109253 0.428221 0.383924
O O7 0.705714 0.312579 0.130568
#
# Coordination Sequence:
#
# PCOD9567860 Si02
#       5
#    16  16   8   8   4
#     4  10  23  44  69 103 145 198 246 304 391 465
#     4  10  23  42  70 104 136 187 254 313 373 447
#     4  10  22  42  72 105 137 190 248 304 370 472
#     4  11  26  46  73 108 156 196 241 322 382 473
#     4  10  28  46  68 118 152 194 252 306 388 478
#
# _framework density 23.800818
#
# number of rings (size 3 to 8) (size 9 to 14) (size 15 to 20)
#    0.000    2.154    0.000    3.692   12.923    0.000 
#    0.000    0.769    0.000    0.000    0.000    0.000 
#    0.000    0.000    0.000    0.000    0.000    0.000 
#
# Total GULP energy -289483.024359 kJ/mol
# GULP energy per Si atom -5566.981238 kJ/mol
# Density = 2.374665 g / cm^3
# Si number density = 23.800818 Si / 1000 Ang^3
#
#
#
# Elastic Constant Matrix: (Units=GPa)
#
#
# Indices 1 2 3 4 5 6 
#
# 1 68.8103 44.5993 61.8745 0.0000 0.0000 0.0000
# 2 44.5993 68.8103 61.8745 0.0000 0.0000 0.0000
# 3 61.8745 61.8745 204.6491 0.0000 0.0000 0.0000
# 4 0.0000 0.0000 0.0000 69.0221 0.0000 0.0000
# 5 0.0000 0.0000 0.0000 0.0000 69.0221 0.0000
# 6 0.0000 0.0000 0.0000 0.0000 0.0000 -37.7140
#
#
#
# Elastic Compliance Matrix: (Units=1/GPa)
#
#
# Indices 1 2 3 4 5 6 
#
# 1 0.027231 -0.014072 -0.003978 0.000000 0.000000 0.000000
# 2 -0.014072 0.027231 -0.003978 0.000000 0.000000 0.000000
# 3 -0.003978 -0.003978 0.007292 0.000000 0.000000 0.000000
# 4 0.000000 0.000000 0.000000 0.014488 0.000000 0.000000
# 5 0.000000 0.000000 0.000000 0.000000 0.014488 0.000000
# 6 0.000000 0.000000 0.000000 0.000000 0.000000 -0.026515
#
#
# Mechanical properties :
#
#
# Convention : Reuss Voigt Hill
#
# Bulk Modulus (GPa) = 56.51060 75.44073 65.97567
# Shear Modulus (GPa) = 43.79333 31.66081 37.72707
#
# Velocity S-wave (km/s) = 4.29417 3.65120 3.98567
# Velocity P-wave (km/s) = 6.95566 7.03850 6.99720
#
# Compressibility (1/GPa) = 0.01769579
#
# Stress axis : x y z
#
# Youngs Moduli (GPa) = 36.72264 36.72263 137.13357
#
# Poissons Ratio (x) = 0.51677 0.54558
# Poissons Ratio (y) = 0.51677 0.54558
# Poissons Ratio (z) = 0.14610 0.14610
#
# Static dielectric constant tensor:
#      x y z
#    x 2.050650 0.000000 0.000000 
#    y 0.000000 2.050650 0.000000 
#    z 0.000000 0.000000 1.950690 
# 
# From -- ./inp_files/1248.got.cif
#   From: 2010.05.17/outbox.cif.g08.bks.cpg/sg133_1_cif.got.tgz:1248.got - 2010.05.20 12:37:36.
