data_PCOD9567335
_publ_section_title
;
Structure prediction by ZEFSAII (Michael W. Deem and Ramdas Pophale) SiO2 
 PCOD9567335
Probable space group: P 42/M C M
;
_chemical_formula_sum "Si O2"
_cell_formula_units_Z 96
_cell_length_a 24.509120
_cell_length_b 24.509120
_cell_length_c 8.770322
_cell_angle_alpha 90.000000
_cell_angle_beta 90.000000
_cell_angle_gamma 90.000000
_cell_volume 5268.305791
_symmetry_space_group_name_H-M "P 42/M C M"
_symmetry_group_IT_number 132
_symmetry_cell_setting 'tetragonal'
loop_
_space_group_symop_operation_xyz
x,y,z
-y,x,1/2+z
-x,-y,z
y,-x,1/2+z
x,-y,1/2-z
-x,y,1/2-z
y,x,-z
-y,-x,-z
-x,-y,-z
y,-x,1/2-z
x,y,-z
-y,x,1/2-z
-x,y,1/2+z
x,-y,1/2+z
-y,-x,z
y,x,z
loop_
_atom_site_type_symbol
_atom_site_label
_atom_site_fract_x
_atom_site_fract_y
_atom_site_fract_z
Si Si1 0.122333 0.246733 0.683396
Si Si2 0.248951 0.248951 0.683576
Si Si3 0.940265 0.145012 0.681867
Si Si4 0.152152 0.559658 0.816464
Si Si5 0.560578 0.722668 0.316431
Si Si6 0.334835 0.334835 0.817919
Si Si7 0.059695 0.355854 0.316117
O O1 0.120841 0.239803 0.500000
O O2 0.185318 0.259323 0.722000
O O3 0.099481 0.192609 0.759878
O O4 0.082911 0.296514 0.725960
O O5 0.255409 0.255409 0.500000
O O6 0.290157 0.290157 0.763670
O O7 0.943487 0.147770 0.500000
O O8 0.912089 0.087912 0.726309
O O9 0.000000 0.151790 0.750000
O O10 0.142213 0.500000 0.750000
O O11 0.214296 0.575699 0.775995
O O12 0.105374 0.600922 0.764653
O O13 0.150302 0.557435 0.000000
O O14 0.500000 0.712654 0.250000
O O15 0.559338 0.718278 0.500000
O O16 0.606823 0.683900 0.248207
O O17 0.336758 0.336758 0.000000
O O18 0.056777 0.358135 0.500000
O O19 0.000000 0.365794 0.250000
#
# Coordination Sequence:
#
# PCOD9567335 Si02
#       7
#    16   8  16  16  16   8  16
#     4  10  20  37  60  82 108 144 184 227 288 353
#     4  10  20  36  60  86 114 150 188 236 294 349
#     4  11  24  40  59  82 109 139 176 224 277 336
#     4   9  19  36  57  79 108 145 190 237 284 337
#     4  10  20  38  62  87 118 156 197 245 297 348
#     4  12  24  36  56  91 127 161 201 242 284 338
#     4  10  21  35  51  76 107 143 185 230 278 337
#
# _framework density 18.222178
#
# number of rings (size 3 to 8) (size 9 to 14) (size 15 to 20)
#    0.000    1.833    0.833    3.250    0.000    8.167 
#    0.000    4.167    0.000    0.250    0.000    1.750 
#    0.000    0.000    0.000    0.000    0.000    0.000 
#
# Total GULP energy -536223.577661 kJ/mol
# GULP energy per Si atom -5585.662267 kJ/mol
# Density = 1.818070 g / cm^3
# Si number density = 18.222178 Si / 1000 Ang^3
#
#
#
# Elastic Constant Matrix: (Units=GPa)
#
#
# Indices 1 2 3 4 5 6 
#
# 1 124.4853 85.9885 46.9982 0.0000 0.0000 0.0000
# 2 85.9885 124.4853 46.9982 0.0000 0.0000 0.0000
# 3 46.9982 46.9982 45.4076 0.0000 0.0000 0.0000
# 4 0.0000 0.0000 0.0000 22.0567 0.0000 0.0000
# 5 0.0000 0.0000 0.0000 0.0000 22.0567 0.0000
# 6 0.0000 0.0000 0.0000 0.0000 0.0000 29.1777
#
#
#
# Elastic Compliance Matrix: (Units=1/GPa)
#
#
# Indices 1 2 3 4 5 6 
#
# 1 0.017406 -0.008571 -0.009145 0.000000 0.000000 0.000000
# 2 -0.008571 0.017406 -0.009145 0.000000 0.000000 0.000000
# 3 -0.009145 -0.009145 0.040952 0.000000 0.000000 0.000000
# 4 0.000000 0.000000 0.000000 0.045338 0.000000 0.000000
# 5 0.000000 0.000000 0.000000 0.000000 0.045338 0.000000
# 6 0.000000 0.000000 0.000000 0.000000 0.000000 0.034273
#
#
# Mechanical properties :
#
#
# Convention : Reuss Voigt Hill
#
# Bulk Modulus (GPa) = 45.36298 72.70532 59.03415
# Shear Modulus (GPa) = 19.10006 22.28446 20.69226
#
# Velocity S-wave (km/s) = 3.24107 3.50084 3.37345
# Velocity P-wave (km/s) = 6.24135 7.50514 6.90223
#
# Compressibility (1/GPa) = 0.02204441
#
# Stress axis : x y z
#
# Youngs Moduli (GPa) = 57.45266 57.45266 24.41854
#
# Poissons Ratio (x) = 0.49240 0.22330
# Poissons Ratio (y) = 0.49240 0.22330
# Poissons Ratio (z) = 0.52538 0.52538
#
# Static dielectric constant tensor:
#      x y z
#    x 1.610830 0.000000 0.000000 
#    y 0.000000 1.610830 0.000000 
#    z 0.000000 0.000000 1.612750 
# 
# From -- ./inp_files/1857.got.cif
#   From: 2010.05.17/outbox.cif.g08.bks.cpg/sg132_1_cif.got.tgz:1857.got - 2010.05.20 12:30:18.
