data_PCOD9567268
_publ_section_title
;
Structure prediction by ZEFSAII (Michael W. Deem and Ramdas Pophale) SiO2 
 PCOD9567268
Probable space group: P 42/M C M
;
_chemical_formula_sum "Si O2"
_cell_formula_units_Z 96
_cell_length_a 24.140927
_cell_length_b 24.140927
_cell_length_c 8.826927
_cell_angle_alpha 90.000000
_cell_angle_beta 90.000000
_cell_angle_gamma 90.000000
_cell_volume 5144.194971
_symmetry_space_group_name_H-M "P 42/M C M"
_symmetry_group_IT_number 132
_symmetry_cell_setting 'tetragonal'
loop_
_space_group_symop_operation_xyz
x,y,z
-y,x,1/2+z
-x,-y,z
y,-x,1/2+z
x,-y,1/2-z
-x,y,1/2-z
y,x,-z
-y,-x,-z
-x,-y,-z
y,-x,1/2-z
x,y,-z
-y,x,1/2-z
-x,y,1/2+z
x,-y,1/2+z
-y,-x,z
y,x,z
loop_
_atom_site_type_symbol
_atom_site_label
_atom_site_fract_x
_atom_site_fract_y
_atom_site_fract_z
Si Si1 0.652786 0.437382 0.317051
Si Si2 0.756102 0.357717 0.677105
Si Si3 0.941604 0.708077 0.180161
Si Si4 0.587678 0.947339 0.673358
Si Si5 0.173929 0.261718 0.324453
Si Si6 0.175176 0.445408 0.325964
O O1 0.656314 0.500000 0.250000
O O2 0.656631 0.442167 0.500000
O O3 0.595430 0.404571 0.280296
O O4 0.702399 0.394063 0.271165
O O5 0.748365 0.345897 0.500000
O O6 0.779008 0.303538 0.760683
O O7 0.806775 0.398142 0.712007
O O8 0.937698 0.644388 0.235577
O O9 0.884451 0.734649 0.239255
O O10 0.000000 0.729394 0.250000
O O11 0.944168 0.711374 0.000000
O O12 0.602246 0.960602 0.500000
O O13 0.553698 0.891006 0.671230
O O14 0.560177 0.000000 0.750000
O O15 0.164400 0.277191 0.500000
O O16 0.201352 0.201352 0.316198
O O17 0.198905 0.500000 0.250000
O O18 0.194044 0.436858 0.500000
#
# Coordination Sequence:
#
# PCOD9567268 Si02
#       6
#    16  16  16  16  16  16
#     4  10  23  42  62  86 113 140 176 223 277 343
#     4  11  22  38  60  83 111 147 185 228 283 342
#     4  11  21  35  58  83 114 154 196 239 286 340
#     4  10  20  34  52  73 102 139 184 234 283 334
#     4  11  23  38  58  87 122 156 194 239 285 337
#     4  11  23  36  52  74 105 141 185 237 284 336
#
# _framework density 18.661812000000001
#
# number of rings (size 3 to 8) (size 9 to 14) (size 15 to 20)
#    0.000    1.333    1.667    5.500    0.000    7.500 
#    0.000    2.500    0.000    0.000    0.000    0.000 
#    0.000    0.333    0.000    3.500    0.000    1.500 
#
# Total GULP energy -535403.797897 kJ/mol
# GULP energy per Si atom -5577.122895 kJ/mol
# Density = 1.861934 g / cm^3
# Si number density = 18.661812 Si / 1000 Ang^3
#
#
#
# Elastic Constant Matrix: (Units=GPa)
#
#
# Indices 1 2 3 4 5 6 
#
# 1 87.4822 47.9711 47.4916 0.0000 0.0000 0.0000
# 2 47.9711 87.4822 47.4916 0.0000 0.0000 0.0000
# 3 47.4916 47.4916 125.8872 0.0000 0.0000 0.0000
# 4 0.0000 0.0000 0.0000 22.8777 0.0000 0.0000
# 5 0.0000 0.0000 0.0000 0.0000 22.8777 0.0000
# 6 0.0000 0.0000 0.0000 0.0000 0.0000 77.4099
#
#
#
# Elastic Compliance Matrix: (Units=1/GPa)
#
#
# Indices 1 2 3 4 5 6 
#
# 1 0.017674 -0.007636 -0.003787 0.000000 0.000000 0.000000
# 2 -0.007636 0.017674 -0.003787 0.000000 0.000000 0.000000
# 3 -0.003787 -0.003787 0.010801 0.000000 0.000000 0.000000
# 4 0.000000 0.000000 0.000000 0.043711 0.000000 0.000000
# 5 0.000000 0.000000 0.000000 0.000000 0.043711 0.000000
# 6 0.000000 0.000000 0.000000 0.000000 0.000000 0.012918
#
#
# Mechanical properties :
#
#
# Convention : Reuss Voigt Hill
#
# Bulk Modulus (GPa) = 63.57525 65.19560 64.38543
# Shear Modulus (GPa) = 27.44989 35.15955 31.30472
#
# Velocity S-wave (km/s) = 3.83941 4.34526 4.10014
# Velocity P-wave (km/s) = 7.33456 7.75797 7.54924
#
# Compressibility (1/GPa) = 0.01572939
#
# Stress axis : x y z
#
# Youngs Moduli (GPa) = 56.58118 56.58118 92.58487
#
# Poissons Ratio (x) = 0.43203 0.35061
# Poissons Ratio (y) = 0.43203 0.35061
# Poissons Ratio (z) = 0.21427 0.21427
#
# Static dielectric constant tensor:
#      x y z
#    x 1.402850 0.000000 0.000000 
#    y 0.000000 1.402850 0.000000 
#    z 0.000000 0.000000 1.649660 
# 
# From -- ./inp_files/1767.got.cif
#   From: 2010.05.17/outbox.cif.g08.bks.cpg/sg132_1_cif.got.tgz:1767.got - 2010.05.20 12:30:18.
