data_PCOD9567328
_publ_section_title
;
Structure prediction by ZEFSAII (Michael W. Deem and Ramdas Pophale) SiO2 
 PCOD9567328
Probable space group: P 42/M C M
;
_chemical_formula_sum "Si O2"
_cell_formula_units_Z 96
_cell_length_a 13.759669
_cell_length_b 13.759669
_cell_length_c 25.601901
_cell_angle_alpha 90.000000
_cell_angle_beta 90.000000
_cell_angle_gamma 90.000000
_cell_volume 4847.169283
_symmetry_space_group_name_H-M "P 42/M C M"
_symmetry_group_IT_number 132
_symmetry_cell_setting 'tetragonal'
loop_
_space_group_symop_operation_xyz
x,y,z
-y,x,1/2+z
-x,-y,z
y,-x,1/2+z
x,-y,1/2-z
-x,y,1/2-z
y,x,-z
-y,-x,-z
-x,-y,-z
y,-x,1/2-z
x,y,-z
-y,x,1/2-z
-x,y,1/2+z
x,-y,1/2+z
-y,-x,z
y,x,z
loop_
_atom_site_type_symbol
_atom_site_label
_atom_site_fract_x
_atom_site_fract_y
_atom_site_fract_z
Si Si1 0.026807 0.612231 0.130632
Si Si2 0.292605 0.446402 0.903361
Si Si3 0.787649 0.360214 0.061961
Si Si4 0.596822 0.755967 0.216145
Si Si5 0.861297 0.702416 0.059589
Si Si6 0.737105 0.101201 0.771713
O O1 0.112136 0.611317 0.088125
O O2 0.071016 0.668792 0.179974
O O3 0.000000 0.500000 0.143114
O O4 0.939980 0.671701 0.102659
O O5 0.397590 0.397590 0.906396
O O6 0.286303 0.556039 0.920804
O O7 0.254033 0.431803 0.844220
O O8 0.219534 0.382308 0.938177
O O9 0.742862 0.257139 0.079292
O O10 0.796996 0.359132 0.000000
O O11 0.500000 0.762446 0.250000
O O12 0.660745 0.660745 0.230103
O O13 0.666660 0.846642 0.229225
O O14 0.801651 0.801651 0.071541
O O15 0.899996 0.708492 0.000000
O O16 0.821025 0.178976 0.784772
O O17 0.778265 0.000000 0.750000
#
# Coordination Sequence:
#
# PCOD9567328 Si02
#       6
#    16  16  16  16  16  16
#     4  12  24  39  66  98 127 166 210 261 320 383
#     4  10  20  36  58  86 121 164 210 256 304 365
#     4  11  24  40  59  89 131 173 211 259 317 372
#     4  10  22  38  59  88 125 164 209 261 314 377
#     4  10  21  38  62  93 125 158 205 263 314 366
#     4  11  26  44  66  95 128 164 210 264 319 378
#
# _framework density 19.805375000000002
#
# number of rings (size 3 to 8) (size 9 to 14) (size 15 to 20)
#    0.000    1.333    1.667    3.500    2.333    6.333 
#    0.000    2.500    0.000    1.500    0.000    5.833 
#    0.000    0.000    0.000    0.000    0.000    0.000 
#
# Total GULP energy -536374.727143 kJ/mol
# GULP energy per Si atom -5587.236741 kJ/mol
# Density = 1.976030 g / cm^3
# Si number density = 19.805375 Si / 1000 Ang^3
#
#
#
# Elastic Constant Matrix: (Units=GPa)
#
#
# Indices 1 2 3 4 5 6 
#
# 1 65.7108 48.4314 21.5407 0.0000 0.0000 0.0000
# 2 48.4314 65.7108 21.5407 0.0000 0.0000 0.0000
# 3 21.5407 21.5407 60.7423 0.0000 0.0000 0.0000
# 4 0.0000 0.0000 0.0000 24.2936 0.0000 0.0000
# 5 0.0000 0.0000 0.0000 0.0000 24.2936 0.0000
# 6 0.0000 0.0000 0.0000 0.0000 0.0000 25.5376
#
#
#
# Elastic Compliance Matrix: (Units=1/GPa)
#
#
# Indices 1 2 3 4 5 6 
#
# 1 0.033994 -0.023879 -0.003587 0.000000 0.000000 0.000000
# 2 -0.023879 0.033994 -0.003587 0.000000 0.000000 0.000000
# 3 -0.003587 -0.003587 0.019007 0.000000 0.000000 0.000000
# 4 0.000000 0.000000 0.000000 0.041163 0.000000 0.000000
# 5 0.000000 0.000000 0.000000 0.000000 0.041163 0.000000
# 6 0.000000 0.000000 0.000000 0.000000 0.000000 0.039158
#
#
# Mechanical properties :
#
#
# Convention : Reuss Voigt Hill
#
# Bulk Modulus (GPa) = 40.17859 41.68771 40.93315
# Shear Modulus (GPa) = 17.92883 21.53504 19.73194
#
# Velocity S-wave (km/s) = 3.01200 3.30105 3.15983
# Velocity P-wave (km/s) = 5.69447 5.96855 5.83312
#
# Compressibility (1/GPa) = 0.02488888
#
# Stress axis : x y z
#
# Youngs Moduli (GPa) = 29.41720 29.41720 52.61204
#
# Poissons Ratio (x) = 0.70245 0.18872
# Poissons Ratio (y) = 0.70245 0.18872
# Poissons Ratio (z) = 0.10552 0.10552
#
# Static dielectric constant tensor:
#      x y z
#    x 1.691410 0.000000 0.000000 
#    y 0.000000 1.691410 0.000000 
#    z 0.000000 0.000000 1.704980 
# 
# From -- ./inp_files/7917.got.cif
#   From: 2010.05.17/outbox.cif.g08.bks.cpg/sg132_4_cif.got.tgz:7917.got - 2010.05.20 12:30:18.
