data_PCOD9567767
_publ_section_title
;
Structure prediction by ZEFSAII (Michael W. Deem and Ramdas Pophale) SiO2 
 PCOD9567767
Probable space group: P 42/N B C
;
_chemical_formula_sum "Si O2"
_cell_formula_units_Z 40
_cell_length_a 13.304027
_cell_length_b 13.304027
_cell_length_c 9.208570
_cell_angle_alpha 90.000000
_cell_angle_beta 90.000000
_cell_angle_gamma 90.000000
_cell_volume 1629.890502
_symmetry_space_group_name_H-M "P 42/N B C"
_symmetry_group_IT_number 133
_space_group.IT_coordinate_system_code '2'
_symmetry_cell_setting 'tetragonal'
loop_
_space_group_symop_operation_xyz
x,y,z
1/2-y,x,1/2+z
1/2-x,1/2-y,z
y,1/2-x,1/2+z
x,1/2-y,-z
1/2-x,y,-z
y,x,1/2-z
1/2-y,1/2-x,1/2-z
-x,-y,-z
1/2+y,-x,1/2-z
1/2+x,1/2+y,-z
-y,1/2+x,1/2-z
-x,1/2+y,z
1/2+x,-y,z
-y,-x,1/2+z
1/2+y,1/2+x,1/2+z
loop_
_atom_site_type_symbol
_atom_site_label
_atom_site_fract_x
_atom_site_fract_y
_atom_site_fract_z
Si Si1 0.877041 0.250000 0.500000
Si Si2 0.869421 0.630580 0.750000
Si Si3 0.959985 0.057735 0.360940
Si Si4 0.750000 0.750000 0.500000
Si Si5 0.750000 0.250000 0.750000
O O1 0.933055 0.167111 0.409975
O O2 0.815301 0.192651 0.628801
O O3 0.870314 0.510112 0.710281
O O4 0.822803 0.686268 0.609309
O O5 0.052100 0.052100 0.250000
O O6 0.000000 0.000000 0.500000
#
# Coordination Sequence:
#
# PCOD9567767 Si02
#       5
#     8   8  16   4   4
#     4  11  22  45  69 102 158 201 260 346 415 478
#     4   9  24  44  74 120 156 215 274 334 426 499
#     4  10  23  46  67 111 150 207 268 341 409 501
#     4  10  20  52  78 116 172 220 268 364 414 518
#     4  10  24  38  68 106 136 198 256 318 396 498
#
# _framework density 24.541526000000001
#
# number of rings (size 3 to 8) (size 9 to 14) (size 15 to 20)
#    1.200    0.800    0.000    2.400    0.000    4.800 
#   14.400    0.000    0.000    0.000    0.000    0.000 
#    0.000    0.000    0.000    0.000    0.000    0.000 
#
# Total GULP energy -222702.993368 kJ/mol
# GULP energy per Si atom -5567.574834 kJ/mol
# Density = 2.448567 g / cm^3
# Si number density = 24.541526 Si / 1000 Ang^3
#
#
#
# Elastic Constant Matrix: (Units=GPa)
#
#
# Indices 1 2 3 4 5 6 
#
# 1 107.0059 44.2403 64.3400 0.0000 0.0000 0.0000
# 2 44.2403 107.0046 64.3395 0.0000 0.0000 0.0000
# 3 64.3400 64.3395 216.6987 0.0000 0.0000 0.0000
# 4 0.0000 0.0000 0.0000 47.9307 0.0000 0.0000
# 5 0.0000 0.0000 0.0000 0.0000 47.9311 0.0000
# 6 0.0000 0.0000 0.0000 0.0000 0.0000 26.4451
#
#
#
# Elastic Compliance Matrix: (Units=1/GPa)
#
#
# Indices 1 2 3 4 5 6 
#
# 1 0.012389 -0.003543 -0.002627 0.000000 0.000000 0.000000
# 2 -0.003543 0.012390 -0.002627 0.000000 0.000000 0.000000
# 3 -0.002627 -0.002627 0.006174 0.000000 0.000000 0.000000
# 4 0.000000 0.000000 0.000000 0.020863 0.000000 0.000000
# 5 0.000000 0.000000 0.000000 0.000000 0.020863 0.000000
# 6 0.000000 0.000000 0.000000 0.000000 0.000000 0.037814
#
#
# Mechanical properties :
#
#
# Convention : Reuss Voigt Hill
#
# Bulk Modulus (GPa) = 74.84481 86.28320 80.56400
# Shear Modulus (GPa) = 37.72440 41.64736 39.68588
#
# Velocity S-wave (km/s) = 3.92492 4.12395 4.02567
# Velocity P-wave (km/s) = 7.14867 7.60989 7.38288
#
# Compressibility (1/GPa) = 0.01336098
#
# Stress axis : x y z
#
# Youngs Moduli (GPa) = 80.71429 80.71329 161.95850
#
# Poissons Ratio (x) = 0.28597 0.42540
# Poissons Ratio (y) = 0.28597 0.42540
# Poissons Ratio (z) = 0.21200 0.21200
#
# Static dielectric constant tensor:
#      x y z
#    x 2.073550 0.000000 0.000000 
#    y 0.000000 2.073550 0.000000 
#    z 0.000000 0.000000 1.912610 
# 
# From -- ./inp_files/895.got.cif
#   From: 2010.05.17/outbox.cif.g08.bks.cpg/sg133_1_cif.got.tgz:895.got - 2010.05.20 12:37:36.
