data_PCOD9567409
_publ_section_title
;
Structure prediction by ZEFSAII (Michael W. Deem and Ramdas Pophale) SiO2 
 PCOD9567409
Probable space group: P 42/M C M
;
_chemical_formula_sum "Si O2"
_cell_formula_units_Z 96
_cell_length_a 24.410322
_cell_length_b 24.410322
_cell_length_c 7.828673
_cell_angle_alpha 90.000000
_cell_angle_beta 90.000000
_cell_angle_gamma 90.000000
_cell_volume 4664.823000
_symmetry_space_group_name_H-M "P 42/M C M"
_symmetry_group_IT_number 132
_symmetry_cell_setting 'tetragonal'
loop_
_space_group_symop_operation_xyz
x,y,z
-y,x,1/2+z
-x,-y,z
y,-x,1/2+z
x,-y,1/2-z
-x,y,1/2-z
y,x,-z
-y,-x,-z
-x,-y,-z
y,-x,1/2-z
x,y,-z
-y,x,1/2-z
-x,y,1/2+z
x,-y,1/2+z
-y,-x,z
y,x,z
loop_
_atom_site_type_symbol
_atom_site_label
_atom_site_fract_x
_atom_site_fract_y
_atom_site_fract_z
Si Si1 0.435724 0.267255 0.198467
Si Si2 0.936382 0.846483 0.706231
Si Si3 0.758865 0.758865 0.792227
Si Si4 0.942743 0.437395 0.299388
Si Si5 0.667082 0.332919 0.290244
Si Si6 0.156493 0.623650 0.806383
Si Si7 0.117810 0.265323 0.301246
O O1 0.500000 0.264348 0.250000
O O2 0.392630 0.312249 0.272165
O O3 0.402820 0.209915 0.222373
O O4 0.438409 0.279251 0.000000
O O5 0.931865 0.845328 0.500000
O O6 0.894327 0.894327 0.765867
O O7 0.916002 0.786420 0.769844
O O8 0.000000 0.856286 0.750000
O O9 0.713273 0.713273 0.746744
O O10 0.747558 0.818123 0.715912
O O11 0.761237 0.761237 0.000000
O O12 0.948912 0.500000 0.250000
O O13 0.932738 0.431003 0.500000
O O14 0.890435 0.420606 0.192712
O O15 0.000000 0.408688 0.250000
O O16 0.666342 0.333659 0.500000
O O17 0.122269 0.674065 0.722265
O O18 0.172557 0.638977 0.000000
O O19 0.100643 0.270831 0.500000
#
# Coordination Sequence:
#
# PCOD9567409 Si02
#       7
#    16  16   8  16   8  16  16
#     4  11  22  39  59  87 122 158 197 246 298 350
#     4  10  22  41  62  84 115 150 190 241 296 350
#     4  11  19  33  59  89 115 149 189 230 281 345
#     4  11  22  38  57  76 105 146 194 243 287 339
#     4   9  20  37  59  86 122 156 193 242 297 345
#     4  11  22  36  57  86 116 153 194 236 289 350
#     4  10  21  38  59  84 118 153 185 230 286 346
#
# _framework density 20.579559
#
# number of rings (size 3 to 8) (size 9 to 14) (size 15 to 20)
#    0.000    1.500    2.500    3.750    0.000    2.500 
#    0.000    4.167    0.000    0.250    0.000    1.750 
#    0.000    0.000    0.000    0.000    0.000    0.000 
#
# Total GULP energy -534417.869330 kJ/mol
# GULP energy per Si atom -5566.852806 kJ/mol
# Density = 2.053272 g / cm^3
# Si number density = 20.579559 Si / 1000 Ang^3
#
#
#
# Elastic Constant Matrix: (Units=GPa)
#
#
# Indices 1 2 3 4 5 6 
#
# 1 125.0508 64.2602 -2.4702 0.0000 0.0000 0.0000
# 2 64.2602 125.0514 -2.4698 0.0000 0.0000 0.0000
# 3 -2.4702 -2.4698 46.3702 0.0000 0.0000 0.0000
# 4 0.0000 0.0000 0.0000 75.4792 0.0000 0.0000
# 5 0.0000 0.0000 0.0000 0.0000 75.4922 0.0000
# 6 0.0000 0.0000 0.0000 0.0000 0.0000 32.6541
#
#
#
# Elastic Compliance Matrix: (Units=1/GPa)
#
#
# Indices 1 2 3 4 5 6 
#
# 1 0.010870 -0.005580 0.000282 0.000000 0.000000 0.000000
# 2 -0.005580 0.010870 0.000282 0.000000 0.000000 0.000000
# 3 0.000282 0.000282 0.021596 0.000000 0.000000 0.000000
# 4 0.000000 0.000000 0.000000 0.013249 0.000000 0.000000
# 5 0.000000 0.000000 0.000000 0.000000 0.013246 0.000000
# 6 0.000000 0.000000 0.000000 0.000000 0.000000 0.030624
#
#
# Mechanical properties :
#
#
# Convention : Reuss Voigt Hill
#
# Bulk Modulus (GPa) = 30.02823 46.12364 38.07593
# Shear Modulus (GPa) = 41.12247 52.53523 46.82885
#
# Velocity S-wave (km/s) = 4.47499 5.05799 4.77540
# Velocity P-wave (km/s) = 6.42835 7.52144 6.99628
#
# Compressibility (1/GPa) = 0.03330200
#
# Stress axis : x y z
#
# Youngs Moduli (GPa) = 91.99824 91.99872 46.30570
#
# Poissons Ratio (x) = 0.51336 -0.01305
# Poissons Ratio (y) = 0.51336 -0.01304
# Poissons Ratio (z) = -0.02593 -0.02592
#
# Static dielectric constant tensor:
#      x y z
#    x 1.596040 0.000000 0.000000 
#    y 0.000000 1.596040 0.000000 
#    z 0.000000 0.000000 1.834330 
# 
# From -- ./inp_files/1824.got.cif
#   From: 2010.05.17/outbox.cif.g08.bks.cpg/sg132_1_cif.got.tgz:1824.got - 2010.05.20 12:30:18.
