data_PCOD9567304
_publ_section_title
;
Structure prediction by ZEFSAII (Michael W. Deem and Ramdas Pophale) SiO2 
 PCOD9567304
Probable space group: P 42/M C M
;
_chemical_formula_sum "Si O2"
_cell_formula_units_Z 88
_cell_length_a 11.137826
_cell_length_b 11.137826
_cell_length_c 31.899614
_cell_angle_alpha 90.000000
_cell_angle_beta 90.000000
_cell_angle_gamma 90.000000
_cell_volume 3957.184376
_symmetry_space_group_name_H-M "P 42/M C M"
_symmetry_group_IT_number 132
_symmetry_cell_setting 'tetragonal'
loop_
_space_group_symop_operation_xyz
x,y,z
-y,x,1/2+z
-x,-y,z
y,-x,1/2+z
x,-y,1/2-z
-x,y,1/2-z
y,x,-z
-y,-x,-z
-x,-y,-z
y,-x,1/2-z
x,y,-z
-y,x,1/2-z
-x,y,1/2+z
x,-y,1/2+z
-y,-x,z
y,x,z
loop_
_atom_site_type_symbol
_atom_site_label
_atom_site_fract_x
_atom_site_fract_y
_atom_site_fract_z
Si Si1 0.500000 0.703319 0.750000
Si Si2 0.975491 0.358533 0.870887
Si Si3 0.002890 0.199605 0.295066
Si Si4 0.551157 0.258750 0.840135
Si Si5 0.676616 0.117524 0.546718
Si Si6 0.498713 0.306421 0.070665
O O1 0.616174 0.616174 0.754950
O O2 0.491190 0.775984 0.793729
O O3 0.032399 0.281856 0.833792
O O4 0.835448 0.355396 0.859612
O O5 0.000000 0.500000 0.866889
O O6 0.021711 0.316933 0.915943
O O7 0.130160 0.130160 0.301097
O O8 0.000000 0.264307 0.250000
O O9 0.905110 0.094891 0.291343
O O10 0.613866 0.386135 0.833136
O O11 0.468234 0.280318 0.880296
O O12 0.691544 0.067583 0.500000
O O13 0.779339 0.220662 0.552650
O O14 0.546160 0.184375 0.549282
O O15 0.630758 0.369243 0.067394
O O16 0.408487 0.408487 0.054875
#
# Coordination Sequence:
#
# PCOD9567304 Si02
#       6
#     8  16  16  16  16  16
#     4   9  18  34  57  84 118 164 209 243 278 334
#     4  12  23  37  55  89 123 157 184 236 307 366
#     4   9  20  41  66  86 109 154 213 258 287 329
#     4  10  20  35  54  83 119 157 197 237 286 343
#     4  10  22  41  63  85 110 148 199 247 295 355
#     4   9  17  33  57  83 113 149 192 237 281 342
#
# _framework density 22.238036000000001
#
# number of rings (size 3 to 8) (size 9 to 14) (size 15 to 20)
#    0.000    2.091    1.818    2.182    0.000    4.727 
#    0.000    3.636    0.000    2.182    0.000    6.364 
#    0.000    0.000    0.000    0.000    0.000    0.000 
#
# Total GULP energy -490202.691598 kJ/mol
# GULP energy per Si atom -5570.485132 kJ/mol
# Density = 2.218742 g / cm^3
# Si number density = 22.238036 Si / 1000 Ang^3
#
#
#
# Elastic Constant Matrix: (Units=GPa)
#
#
# Indices 1 2 3 4 5 6 
#
# 1 52.3139 0.5677 46.1719 0.0000 0.0000 0.0000
# 2 0.5677 52.3139 46.1719 0.0000 0.0000 0.0000
# 3 46.1719 46.1719 217.6830 0.0000 0.0000 0.0000
# 4 0.0000 0.0000 0.0000 29.2567 0.0000 0.0000
# 5 0.0000 0.0000 0.0000 0.0000 29.2567 0.0000
# 6 0.0000 0.0000 0.0000 0.0000 0.0000 11.1066
#
#
#
# Elastic Compliance Matrix: (Units=1/GPa)
#
#
# Indices 1 2 3 4 5 6 
#
# 1 0.024680 0.005355 -0.006371 0.000000 0.000000 0.000000
# 2 0.005355 0.024680 -0.006371 0.000000 0.000000 0.000000
# 3 -0.006371 -0.006371 0.007296 0.000000 0.000000 0.000000
# 4 0.000000 0.000000 0.000000 0.034180 0.000000 0.000000
# 5 0.000000 0.000000 0.000000 0.000000 0.034180 0.000000
# 6 0.000000 0.000000 0.000000 0.000000 0.000000 0.090037
#
#
# Mechanical properties :
#
#
# Convention : Reuss Voigt Hill
#
# Bulk Modulus (GPa) = 23.87578 56.45933 40.16755
# Shear Modulus (GPa) = 20.50970 29.21727 24.86348
#
# Velocity S-wave (km/s) = 3.04020 3.62863 3.34737
# Velocity P-wave (km/s) = 4.80453 6.55741 5.74818
#
# Compressibility (1/GPa) = 0.04188345
#
# Stress axis : x y z
#
# Youngs Moduli (GPa) = 40.51883 40.51883 137.05576
#
# Poissons Ratio (x) = -0.21697 0.87312
# Poissons Ratio (y) = -0.21697 0.87312
# Poissons Ratio (z) = 0.25813 0.25813
#
# Static dielectric constant tensor:
#      x y z
#    x 1.912370 0.000000 0.000000 
#    y 0.000000 1.912370 0.000000 
#    z 0.000000 0.000000 1.899740 
# 
# From -- ./inp_files/10777.got.cif
#   From: 2010.05.17/outbox.cif.g08.bks.cpg/sg132_6_cif.got.tgz:10777.got - 2010.05.20 12:30:18.
