data_PCOD9567539
_publ_section_title
;
Structure prediction by ZEFSAII (Michael W. Deem and Ramdas Pophale) SiO2 
 PCOD9567539
Probable space group: P 42/M C M
;
_chemical_formula_sum "Si O2"
_cell_formula_units_Z 48
_cell_length_a 10.383915
_cell_length_b 10.383915
_cell_length_c 17.298967
_cell_angle_alpha 90.000000
_cell_angle_beta 90.000000
_cell_angle_gamma 90.000000
_cell_volume 1865.273066
_symmetry_space_group_name_H-M "P 42/M C M"
_symmetry_group_IT_number 132
_symmetry_cell_setting 'tetragonal'
loop_
_space_group_symop_operation_xyz
x,y,z
-y,x,1/2+z
-x,-y,z
y,-x,1/2+z
x,-y,1/2-z
-x,y,1/2-z
y,x,-z
-y,-x,-z
-x,-y,-z
y,-x,1/2-z
x,y,-z
-y,x,1/2-z
-x,y,1/2+z
x,-y,1/2+z
-y,-x,z
y,x,z
loop_
_atom_site_type_symbol
_atom_site_label
_atom_site_fract_x
_atom_site_fract_y
_atom_site_fract_z
Si Si1 0.964688 0.229984 0.087835
Si Si2 0.457255 0.753079 0.087986
Si Si3 0.859141 0.657075 0.207799
O O1 0.891694 0.108307 0.123186
O O2 0.864004 0.348493 0.086922
O O3 0.086809 0.271375 0.133212
O O4 0.994206 0.201535 0.000000
O O5 0.382278 0.617723 0.094363
O O6 0.538363 0.786101 0.165351
O O7 0.517224 0.757278 0.000000
O O8 0.752870 0.752870 0.245971
O O9 0.000000 0.635318 0.250000
#
# Coordination Sequence:
#
# PCOD9567539 Si02
#       3
#    16  16  16
#     4   9  19  38  65  95 127 171 232 294 345 402
#     4   9  20  42  73 106 135 170 230 306 374 432
#     4  12  26  41  60  93 142 195 239 283 344 419
#
# _framework density 25.733501
#
# number of rings (size 3 to 8) (size 9 to 14) (size 15 to 20)
#    0.000    2.000    0.000    5.000    0.000   11.000 
#    0.000    3.333    0.000    0.000    0.000    9.333 
#    0.000    0.000    0.000    3.000    0.000    0.667 
#
# Total GULP energy -267905.683163 kJ/mol
# GULP energy per Si atom -5581.368399 kJ/mol
# Density = 2.567493 g / cm^3
# Si number density = 25.733501 Si / 1000 Ang^3
#
#
#
# Elastic Constant Matrix: (Units=GPa)
#
#
# Indices 1 2 3 4 5 6 
#
# 1 174.6565 -3.0092 51.3471 0.0000 0.0000 0.0000
# 2 -3.0092 174.6565 51.3471 0.0000 0.0000 0.0000
# 3 51.3471 51.3471 145.8457 0.0000 0.0000 0.0000
# 4 0.0000 0.0000 0.0000 123.2905 0.0000 0.0000
# 5 0.0000 0.0000 0.0000 0.0000 123.2905 0.0000
# 6 0.0000 0.0000 0.0000 0.0000 0.0000 42.3205
#
#
#
# Elastic Compliance Matrix: (Units=1/GPa)
#
#
# Indices 1 2 3 4 5 6 
#
# 1 0.006505 0.000876 -0.002598 0.000000 0.000000 0.000000
# 2 0.000876 0.006505 -0.002598 0.000000 0.000000 0.000000
# 3 -0.002598 -0.002598 0.008686 0.000000 0.000000 0.000000
# 4 0.000000 0.000000 0.000000 0.008111 0.000000 0.000000
# 5 0.000000 0.000000 0.000000 0.000000 0.008111 0.000000
# 6 0.000000 0.000000 0.000000 0.000000 0.000000 0.023629
#
#
# Mechanical properties :
#
#
# Convention : Reuss Voigt Hill
#
# Bulk Modulus (GPa) = 76.60767 77.16985 76.88876
# Shear Modulus (GPa) = 67.07887 84.14523 75.61205
#
# Velocity S-wave (km/s) = 5.11110 5.72448 5.42646
# Velocity P-wave (km/s) = 8.04148 8.58756 8.31900
#
# Compressibility (1/GPa) = 0.01305352
#
# Stress axis : x y z
#
# Youngs Moduli (GPa) = 153.73930 153.73930 115.12547
#
# Poissons Ratio (x) = -0.13467 0.29914
# Poissons Ratio (y) = -0.13467 0.29914
# Poissons Ratio (z) = 0.39948 0.39948
#
# Static dielectric constant tensor:
#      x y z
#    x 2.112020 0.000000 0.000000 
#    y 0.000000 2.112020 0.000000 
#    z 0.000000 0.000000 2.065090 
# 
# From -- ./inp_files/5670.got.cif
#   From: 2010.05.17/outbox.cif.g08.bks.cpg/sg132_3_cif.got.tgz:5670.got - 2010.05.20 12:30:18.
