data_PCOD9567670
_publ_section_title
;
Structure prediction by ZEFSAII (Michael W. Deem and Ramdas Pophale) SiO2 
 PCOD9567670
Probable space group: P 42/N B C
;
_chemical_formula_sum "Si O2"
_cell_formula_units_Z 112
_cell_length_a 14.009403
_cell_length_b 14.009403
_cell_length_c 27.447502
_cell_angle_alpha 90.000000
_cell_angle_beta 90.000000
_cell_angle_gamma 90.000000
_cell_volume 5386.939307
_symmetry_space_group_name_H-M "P 42/N B C"
_symmetry_group_IT_number 133
_space_group.IT_coordinate_system_code '2'
_symmetry_cell_setting 'tetragonal'
loop_
_space_group_symop_operation_xyz
x,y,z
1/2-y,x,1/2+z
1/2-x,1/2-y,z
y,1/2-x,1/2+z
x,1/2-y,-z
1/2-x,y,-z
y,x,1/2-z
1/2-y,1/2-x,1/2-z
-x,-y,-z
1/2+y,-x,1/2-z
1/2+x,1/2+y,-z
-y,1/2+x,1/2-z
-x,1/2+y,z
1/2+x,-y,z
-y,-x,1/2+z
1/2+y,1/2+x,1/2+z
loop_
_atom_site_type_symbol
_atom_site_label
_atom_site_fract_x
_atom_site_fract_y
_atom_site_fract_z
Si Si1 0.822087 0.894744 0.067095
Si Si2 0.309668 0.923146 0.133521
Si Si3 0.775955 0.857705 0.336104
Si Si4 0.402686 0.395407 0.461969
Si Si5 0.033755 0.055807 0.697220
Si Si6 0.286836 0.522192 0.391757
Si Si7 0.089069 0.926756 0.112069
O O1 0.844397 0.823224 0.110537
O O2 0.712568 0.873927 0.052968
O O3 0.827475 0.998761 0.091263
O O4 0.889093 0.896635 0.020040
O O5 0.377305 0.834593 0.121802
O O6 0.196049 0.911373 0.132804
O O7 0.353951 0.969247 0.182295
O O8 0.750000 0.750000 0.319959
O O9 0.857382 0.905367 0.303383
O O10 0.700540 0.941530 0.348804
O O11 0.335351 0.474946 0.438739
O O12 0.504951 0.408456 0.435227
O O13 0.013505 0.013505 0.750000
O O14 0.027747 0.978288 0.653833
O O15 0.176005 0.545164 0.399072
#
# Coordination Sequence:
#
# PCOD9567670 Si02
#       7
#    16  16  16  16  16  16  16
#     4   9  20  37  60  90 124 166 215 260 313 391
#     4  10  21  41  65  86 126 176 204 271 333 392
#     4  10  20  38  62  93 129 163 213 269 323 382
#     4  10  19  38  62  88 126 170 211 260 322 378
#     4  10  22  42  64  93 127 163 215 278 336 405
#     4  11  21  37  62  91 125 171 212 254 329 385
#     4  10  22  42  64  92 129 167 215 271 323 401
#
# _framework density 20.791027
#
# number of rings (size 3 to 8) (size 9 to 14) (size 15 to 20)
#    0.000    2.000    2.857    0.429    0.000    1.429 
#    7.714    0.000    0.000    3.429    0.000    0.000 
#    0.000    0.000    0.000    0.000    0.000    0.000 
#
# Total GULP energy -625120.463632 kJ/mol
# GULP energy per Si atom -5581.432711 kJ/mol
# Density = 2.074371 g / cm^3
# Si number density = 20.791027 Si / 1000 Ang^3
#
#
#
# Elastic Constant Matrix: (Units=GPa)
#
#
# Indices 1 2 3 4 5 6 
#
# 1 102.5183 20.4337 3.9939 0.0000 0.0000 0.0000
# 2 20.4337 102.5183 3.9939 0.0000 0.0000 0.0000
# 3 3.9939 3.9939 61.0703 0.0000 0.0000 0.0000
# 4 0.0000 0.0000 0.0000 12.2517 0.0000 0.0000
# 5 0.0000 0.0000 0.0000 0.0000 12.2517 0.0000
# 6 0.0000 0.0000 0.0000 0.0000 0.0000 41.2121
#
#
#
# Elastic Compliance Matrix: (Units=1/GPa)
#
#
# Indices 1 2 3 4 5 6 
#
# 1 0.010175 -0.002007 -0.000534 0.000000 0.000000 0.000000
# 2 -0.002007 0.010175 -0.000534 0.000000 0.000000 0.000000
# 3 -0.000534 -0.000534 0.016444 0.000000 0.000000 0.000000
# 4 0.000000 0.000000 0.000000 0.081621 0.000000 0.000000
# 5 0.000000 0.000000 0.000000 0.000000 0.081621 0.000000
# 6 0.000000 0.000000 0.000000 0.000000 0.000000 0.024265
#
#
# Mechanical properties :
#
#
# Convention : Reuss Voigt Hill
#
# Bulk Modulus (GPa) = 32.63315 35.88330 34.25823
# Shear Modulus (GPa) = 20.77554 28.98881 24.88217
#
# Velocity S-wave (km/s) = 3.16453 3.73808 3.46320
# Velocity P-wave (km/s) = 5.39279 5.99395 5.70130
#
# Compressibility (1/GPa) = 0.03064368
#
# Stress axis : x y z
#
# Youngs Moduli (GPa) = 98.27763 98.27763 60.81087
#
# Poissons Ratio (x) = 0.19727 0.03248
# Poissons Ratio (y) = 0.19727 0.03248
# Poissons Ratio (z) = 0.05250 0.05250
#
# Static dielectric constant tensor:
#      x y z
#    x 1.798170 0.000000 0.000000 
#    y 0.000000 1.798170 0.000000 
#    z 0.000000 0.000000 1.727470 
# 
# From -- ./inp_files/7633.got.cif
#   From: 2010.05.17/outbox.cif.g08.bks.cpg/sg133_4_cif.got.tgz:7633.got - 2010.05.20 12:37:36.
