data_PCOD9567578
_publ_section_title
;
Structure prediction by ZEFSAII (Michael W. Deem and Ramdas Pophale) SiO2 
 PCOD9567578
Probable space group: P 42/N B C
;
_chemical_formula_sum "Si O2"
_cell_formula_units_Z 116
_cell_length_a 18.710244
_cell_length_b 18.710244
_cell_length_c 15.669433
_cell_angle_alpha 90.000000
_cell_angle_beta 90.000000
_cell_angle_gamma 90.000000
_cell_volume 5485.449031
_symmetry_space_group_name_H-M "P 42/N B C"
_symmetry_group_IT_number 133
_space_group.IT_coordinate_system_code '2'
_symmetry_cell_setting 'tetragonal'
loop_
_space_group_symop_operation_xyz
x,y,z
1/2-y,x,1/2+z
1/2-x,1/2-y,z
y,1/2-x,1/2+z
x,1/2-y,-z
1/2-x,y,-z
y,x,1/2-z
1/2-y,1/2-x,1/2-z
-x,-y,-z
1/2+y,-x,1/2-z
1/2+x,1/2+y,-z
-y,1/2+x,1/2-z
-x,1/2+y,z
1/2+x,-y,z
-y,-x,1/2+z
1/2+y,1/2+x,1/2+z
loop_
_atom_site_type_symbol
_atom_site_label
_atom_site_fract_x
_atom_site_fract_y
_atom_site_fract_z
Si Si1 0.691984 0.952488 0.595321
Si Si2 0.247067 0.885677 0.599235
Si Si3 0.090634 0.027501 0.162626
Si Si4 0.377170 0.175334 0.914995
Si Si5 0.750000 0.750000 0.500000
Si Si6 0.552499 0.531474 0.149996
Si Si7 0.320228 0.896634 0.884974
Si Si8 0.152709 0.905399 0.912056
O O1 0.757189 0.908089 0.638186
O O2 0.680301 0.929820 0.496608
O O3 0.613862 0.935150 0.629561
O O4 0.715208 0.034562 0.602781
O O5 0.250000 0.861629 0.500000
O O6 0.184699 0.838747 0.642322
O O7 0.330555 0.880371 0.623419
O O8 0.062796 0.062796 0.250000
O O9 0.124821 0.095324 0.116684
O O10 0.141691 0.958859 0.169226
O O11 0.021410 0.999008 0.111394
O O12 0.299955 0.200159 0.944108
O O13 0.535766 0.535766 0.250000
O O14 0.612551 0.474774 0.124241
O O15 0.235597 0.906534 0.886247
O O16 0.348139 0.905475 0.983724
#
# Coordination Sequence:
#
# PCOD9567578 Si02
#       8
#    16  16  16  16   4  16  16  16
#     4  10  19  35  61  88 112 154 208 250 299 369
#     4  10  17  34  61  94 122 151 197 249 308 373
#     4  11  24  39  58  85 123 163 209 250 296 364
#     4  10  21  37  62  89 113 159 202 255 318 360
#     4   8  20  40  58  88 120 140 204 270 308 376
#     4  11  24  39  57  87 123 166 204 251 298 364
#     4  10  21  37  63  94 126 158 200 257 317 366
#     4  10  22  37  62  94 126 159 198 256 318 374
#
# _framework density 21.146856
#
# number of rings (size 3 to 8) (size 9 to 14) (size 15 to 20)
#    0.000    1.931    2.759    2.069    1.931    7.172 
#    0.000    0.345    0.000    0.000    7.172    0.000 
#    0.000    0.000    0.000    0.000    0.000    0.000 
#
# Total GULP energy -646746.409292 kJ/mol
# GULP energy per Si atom -5575.400080 kJ/mol
# Density = 2.109872 g / cm^3
# Si number density = 21.146856 Si / 1000 Ang^3
#
#
#
# Elastic Constant Matrix: (Units=GPa)
#
#
# Indices 1 2 3 4 5 6 
#
# 1 154.7663 53.7144 16.8718 0.0000 0.0000 0.0000
# 2 53.7144 154.7663 16.8718 0.0000 0.0000 0.0000
# 3 16.8718 16.8718 19.9197 0.0000 0.0000 0.0000
# 4 0.0000 0.0000 0.0000 4.7940 0.0000 0.0000
# 5 0.0000 0.0000 0.0000 0.0000 4.7940 0.0000
# 6 0.0000 0.0000 0.0000 0.0000 0.0000 -399.7863
#
#
#
# Elastic Compliance Matrix: (Units=1/GPa)
#
#
# Indices 1 2 3 4 5 6 
#
# 1 0.007727 -0.002169 -0.004708 0.000000 0.000000 0.000000
# 2 -0.002169 0.007727 -0.004708 0.000000 0.000000 0.000000
# 3 -0.004708 -0.004708 0.058177 0.000000 0.000000 0.000000
# 4 0.000000 0.000000 0.000000 0.208593 0.000000 0.000000
# 5 0.000000 0.000000 0.000000 0.000000 0.208593 0.000000
# 6 0.000000 0.000000 0.000000 0.000000 0.000000 -0.002501
#
#
# Mechanical properties :
#
#
# Convention : Reuss Voigt Hill
#
# Bulk Modulus (GPa) = 19.81695 56.04092 37.92893
# Shear Modulus (GPa) = 9.46421 -61.90670 -26.22124
#
# Velocity S-wave (km/s) = 2.11783 -5.41648 -3.52513
# Velocity P-wave (km/s) = 3.92068 3.54390 1.18584
#
# Compressibility (1/GPa) = 0.05046185
#
# Stress axis : x y z
#
# Youngs Moduli (GPa) = 129.41180 129.41180 17.18892
#
# Poissons Ratio (x) = 0.28065 0.08093
# Poissons Ratio (y) = 0.28065 0.08093
# Poissons Ratio (z) = 0.60928 0.60928
#
# Static dielectric constant tensor:
#      x y z
#    x -2.671200 0.000000 0.000000 
#    y 0.000000 -2.671200 0.000000 
#    z 0.000000 0.000000 1.804080 
# 
# From -- ./inp_files/5647.got.cif
#   From: 2010.05.17/outbox.cif.g08.bks.cpg/sg133_3_cif.got.tgz:5647.got - 2010.05.20 12:37:36.
