data_PCOD9567372
_publ_section_title
;
Structure prediction by ZEFSAII (Michael W. Deem and Ramdas Pophale) SiO2 
 PCOD9567372
Probable space group: P 42/M C M
;
_chemical_formula_sum "Si O2"
_cell_formula_units_Z 112
_cell_length_a 15.258381
_cell_length_b 15.258381
_cell_length_c 23.530717
_cell_angle_alpha 90.000000
_cell_angle_beta 90.000000
_cell_angle_gamma 90.000000
_cell_volume 5478.378959
_symmetry_space_group_name_H-M "P 42/M C M"
_symmetry_group_IT_number 132
_symmetry_cell_setting 'tetragonal'
loop_
_space_group_symop_operation_xyz
x,y,z
-y,x,1/2+z
-x,-y,z
y,-x,1/2+z
x,-y,1/2-z
-x,y,1/2-z
y,x,-z
-y,-x,-z
-x,-y,-z
y,-x,1/2-z
x,y,-z
-y,x,1/2-z
-x,y,1/2+z
x,-y,1/2+z
-y,-x,z
y,x,z
loop_
_atom_site_type_symbol
_atom_site_label
_atom_site_fract_x
_atom_site_fract_y
_atom_site_fract_z
Si Si1 0.417410 0.104425 0.065605
Si Si2 0.704760 0.430538 0.168156
Si Si3 0.159000 0.303061 0.267560
Si Si4 0.625621 0.771473 0.160075
Si Si5 0.185398 0.609547 0.935801
Si Si6 0.310452 0.964181 0.130841
Si Si7 0.001388 0.853557 0.064413
O O1 0.377477 0.189292 0.096904
O O2 0.520495 0.126858 0.064752
O O3 0.387695 0.025893 0.106893
O O4 0.390474 0.089383 0.000000
O O5 0.607836 0.392165 0.179633
O O6 0.771972 0.370694 0.203789
O O7 0.731222 0.531251 0.177111
O O8 0.731315 0.410638 0.102986
O O9 0.208336 0.208336 0.268743
O O10 0.154070 0.340042 0.203684
O O11 0.071313 0.308489 0.304985
O O12 0.694814 0.694814 0.164752
O O13 0.125813 0.682164 0.905864
O O14 0.206635 0.631764 0.000000
O O15 0.220886 0.008390 0.110972
O O16 0.088841 0.911160 0.073193
O O17 0.004305 0.816597 0.000000
O O18 0.921449 0.921449 0.066636
#
# Coordination Sequence:
#
# PCOD9567372 Si02
#       7
#    16  16  16  16  16  16  16
#     4  10  21  35  52  77 107 140 183 233 280 329
#     4   9  18  33  54  80 109 143 186 233 275 325
#     4   9  19  35  54  80 111 140 177 227 283 339
#     4  10  21  37  55  76 110 152 187 230 285 332
#     4   9  18  32  49  75 111 142 173 225 286 331
#     4  11  19  31  55  79 103 141 183 222 274 344
#     4   9  18  31  46  70 106 141 175 221 271 318
#
# _framework density 20.444004
#
# number of rings (size 3 to 8) (size 9 to 14) (size 15 to 20)
#    0.000    2.429    0.000    3.000    0.000    3.714 
#    0.000    0.000    0.000    7.714    0.000    4.000 
#    0.000    3.429    0.000    0.143    0.000    0.000 
#
# Total GULP energy -624545.417376 kJ/mol
# GULP energy per Si atom -5576.298369 kJ/mol
# Density = 2.039747 g / cm^3
# Si number density = 20.444004 Si / 1000 Ang^3
#
#
#
# Elastic Constant Matrix: (Units=GPa)
#
#
# Indices 1 2 3 4 5 6 
#
# 1 57.2913 18.9855 17.7943 0.0000 0.0000 0.0000
# 2 18.9855 57.2913 17.7943 0.0000 0.0000 0.0000
# 3 17.7943 17.7943 90.1250 0.0000 0.0000 0.0000
# 4 0.0000 0.0000 0.0000 22.6730 0.0000 0.0000
# 5 0.0000 0.0000 0.0000 0.0000 22.6730 0.0000
# 6 0.0000 0.0000 0.0000 0.0000 0.0000 18.1369
#
#
#
# Elastic Compliance Matrix: (Units=1/GPa)
#
#
# Indices 1 2 3 4 5 6 
#
# 1 0.020273 -0.005833 -0.002851 0.000000 0.000000 0.000000
# 2 -0.005833 0.020273 -0.002851 0.000000 0.000000 0.000000
# 3 -0.002851 -0.002851 0.012222 0.000000 0.000000 0.000000
# 4 0.000000 0.000000 0.000000 0.044105 0.000000 0.000000
# 5 0.000000 0.000000 0.000000 0.000000 0.044105 0.000000
# 6 0.000000 0.000000 0.000000 0.000000 0.000000 0.055136
#
#
# Mechanical properties :
#
#
# Convention : Reuss Voigt Hill
#
# Bulk Modulus (GPa) = 33.67246 34.87289 34.27267
# Shear Modulus (GPa) = 21.82609 22.70547 22.26578
#
# Velocity S-wave (km/s) = 3.27096 3.33621 3.30375
# Velocity P-wave (km/s) = 5.54725 5.65112 5.59942
#
# Compressibility (1/GPa) = 0.02969786
#
# Stress axis : x y z
#
# Youngs Moduli (GPa) = 49.32658 49.32658 81.82265
#
# Poissons Ratio (x) = 0.28770 0.23329
# Poissons Ratio (y) = 0.28770 0.23329
# Poissons Ratio (z) = 0.14064 0.14064
#
# Static dielectric constant tensor:
#      x y z
#    x 1.745940 0.000000 0.000000 
#    y 0.000000 1.745940 0.000000 
#    z 0.000000 0.000000 1.775690 
# 
# From -- ./inp_files/9150.got.cif
#   From: 2010.05.17/outbox.cif.g08.bks.cpg/sg132_5_cif.got.tgz:9150.got - 2010.05.20 12:30:18.
