data_PCOD9567968
_publ_section_title
;
Structure prediction by ZEFSAII (Michael W. Deem and Ramdas Pophale) SiO2 
 PCOD9567968
Probable space group: P 42/N B C
;
_chemical_formula_sum "Si O2"
_cell_formula_units_Z 64
_cell_length_a 11.685598
_cell_length_b 11.685598
_cell_length_c 18.900508
_cell_angle_alpha 90.000000
_cell_angle_beta 90.000000
_cell_angle_gamma 90.000000
_cell_volume 2580.924861
_symmetry_space_group_name_H-M "P 42/N B C"
_symmetry_group_IT_number 133
_space_group.IT_coordinate_system_code '2'
_symmetry_cell_setting 'tetragonal'
loop_
_space_group_symop_operation_xyz
x,y,z
1/2-y,x,1/2+z
1/2-x,1/2-y,z
y,1/2-x,1/2+z
x,1/2-y,-z
1/2-x,y,-z
y,x,1/2-z
1/2-y,1/2-x,1/2-z
-x,-y,-z
1/2+y,-x,1/2-z
1/2+x,1/2+y,-z
-y,1/2+x,1/2-z
-x,1/2+y,z
1/2+x,-y,z
-y,-x,1/2+z
1/2+y,1/2+x,1/2+z
loop_
_atom_site_type_symbol
_atom_site_label
_atom_site_fract_x
_atom_site_fract_y
_atom_site_fract_z
Si Si1 0.825076 0.523376 0.700041
Si Si2 0.809904 0.586259 0.428303
Si Si3 0.513041 0.183109 0.669866
Si Si4 0.320169 0.868283 0.065200
O O1 0.912824 0.587177 0.750000
O O2 0.790498 0.588723 0.629665
O O3 0.712307 0.516255 0.749193
O O4 0.883114 0.406573 0.674798
O O5 0.750000 0.629163 0.500000
O O6 0.916118 0.640570 0.384875
O O7 0.847184 0.454102 0.445165
O O8 0.561241 0.299625 0.635827
O O9 0.250000 0.750000 0.073325
O O10 0.250000 0.925041 0.000000
#
# Coordination Sequence:
#
# PCOD9567968 Si02
#       4
#    16  16  16  16
#     4  12  26  46  69 104 147 189 249 308 377 458
#     4  12  26  48  73 108 148 194 248 313 383 462
#     4  12  26  43  76 107 145 197 248 312 382 455
#     4  11  21  44  73 105 139 187 246 304 364 447
#
# _framework density 24.797311000000001
#
# number of rings (size 3 to 8) (size 9 to 14) (size 15 to 20)
#    0.000    0.250    5.000    5.250    0.000    8.000 
#    0.000    1.250    0.000    0.000    0.000    0.000 
#    0.000    0.000    0.000    0.000    0.000    0.000 
#
# Total GULP energy -357933.874928 kJ/mol
# GULP energy per Si atom -5592.716796 kJ/mol
# Density = 2.474087 g / cm^3
# Si number density = 24.797311 Si / 1000 Ang^3
#
#
#
# Elastic Constant Matrix: (Units=GPa)
#
#
# Indices 1 2 3 4 5 6 
#
# 1 92.1988 46.7133 48.0262 0.0000 0.0000 0.0000
# 2 46.7133 92.2004 48.0269 0.0000 0.0000 0.0000
# 3 48.0262 48.0269 208.8634 0.0000 0.0000 0.0000
# 4 0.0000 0.0000 0.0000 21.8719 0.0000 0.0000
# 5 0.0000 0.0000 0.0000 0.0000 21.8720 0.0000
# 6 0.0000 0.0000 0.0000 0.0000 0.0000 95.4344
#
#
#
# Elastic Compliance Matrix: (Units=1/GPa)
#
#
# Indices 1 2 3 4 5 6 
#
# 1 0.015272 -0.006712 -0.001968 0.000000 0.000000 0.000000
# 2 -0.006712 0.015272 -0.001968 0.000000 0.000000 0.000000
# 3 -0.001968 -0.001968 0.005693 0.000000 0.000000 0.000000
# 4 0.000000 0.000000 0.000000 0.045721 0.000000 0.000000
# 5 0.000000 0.000000 0.000000 0.000000 0.045721 0.000000
# 6 0.000000 0.000000 0.000000 0.000000 0.000000 0.010478
#
#
# Mechanical properties :
#
#
# Convention : Reuss Voigt Hill
#
# Bulk Modulus (GPa) = 66.93684 75.42171 71.17928
# Shear Modulus (GPa) = 30.40719 44.53540 37.47129
#
# Velocity S-wave (km/s) = 3.50555 4.24249 3.89151
# Velocity P-wave (km/s) = 6.59071 7.38103 6.99704
#
# Compressibility (1/GPa) = 0.01493946
#
# Stress axis : x y z
#
# Youngs Moduli (GPa) = 65.47802 65.47907 175.65481
#
# Poissons Ratio (x) = 0.43953 0.34573
# Poissons Ratio (y) = 0.43952 0.34573
# Poissons Ratio (z) = 0.12888 0.12888
#
# Static dielectric constant tensor:
#      x y z
#    x 2.016800 0.000000 0.000000 
#    y 0.000000 2.016810 0.000000 
#    z 0.000000 0.000000 2.706140 
# 
# From -- ./inp_files/6142.got.cif
#   From: 2010.05.17/outbox.cif.g08.bks.cpg/sg133_4_cif.got.tgz:6142.got - 2010.05.20 12:37:36.
