data_PCOD9567628
_publ_section_title
;
Structure prediction by ZEFSAII (Michael W. Deem and Ramdas Pophale) SiO2 
 PCOD9567628
Probable space group: P 42/N B C
;
_chemical_formula_sum "Si O2"
_cell_formula_units_Z 80
_cell_length_a 29.335545
_cell_length_b 29.335545
_cell_length_c 5.350534
_cell_angle_alpha 90.000000
_cell_angle_beta 90.000000
_cell_angle_gamma 90.000000
_cell_volume 4604.531519
_symmetry_space_group_name_H-M "P 42/N B C"
_symmetry_group_IT_number 133
_space_group.IT_coordinate_system_code '2'
_symmetry_cell_setting 'tetragonal'
loop_
_space_group_symop_operation_xyz
x,y,z
1/2-y,x,1/2+z
1/2-x,1/2-y,z
y,1/2-x,1/2+z
x,1/2-y,-z
1/2-x,y,-z
y,x,1/2-z
1/2-y,1/2-x,1/2-z
-x,-y,-z
1/2+y,-x,1/2-z
1/2+x,1/2+y,-z
-y,1/2+x,1/2-z
-x,1/2+y,z
1/2+x,-y,z
-y,-x,1/2+z
1/2+y,1/2+x,1/2+z
loop_
_atom_site_type_symbol
_atom_site_label
_atom_site_fract_x
_atom_site_fract_y
_atom_site_fract_z
Si Si1 0.846951 0.304805 0.482602
Si Si2 0.665251 0.602130 0.668895
Si Si3 0.006425 0.194629 0.993043
Si Si4 0.128720 0.250000 0.500000
Si Si5 0.821645 0.821645 0.250000
Si Si6 0.805157 0.047403 0.994088
O O1 0.844705 0.250000 0.500000
O O2 0.825617 0.321178 0.221490
O O3 0.899984 0.319317 0.493434
O O4 0.613018 0.613018 0.750000
O O5 0.672606 0.556036 0.517343
O O6 0.707719 0.601714 0.871672
O O7 0.669202 0.645645 0.485800
O O8 0.981099 0.181159 0.738407
O O9 0.011591 0.250000 0.000000
O O10 0.976846 0.181488 0.236104
O O11 0.163674 0.229048 0.695476
O O12 0.750000 0.047774 0.000000
#
# Coordination Sequence:
#
# PCOD9567628 Si02
#       6
#    16  16  16   8   8  16
#     4  11  22  37  57  83 124 162 196 230 253 292
#     4  10  22  33  50  69 100 131 177 226 286 342
#     4  10  19  32  54  75 102 139 179 227 286 345
#     4  10  20  34  45  64  90 130 176 216 271 336
#     4  10  20  34  45  64  90 130 172 224 268 328
#     4   9  20  34  52  80 106 141 185 228 273 311
#
# _framework density 17.374191
#
# number of rings (size 3 to 8) (size 9 to 14) (size 15 to 20)
#    0.000    2.000    0.000    3.600    9.800    4.400 
#    0.000   14.500    0.000    0.000    0.000    0.000 
#    0.000   16.000    0.000    0.000    0.000    0.000 
#
# Total GULP energy -445382.022763 kJ/mol
# GULP energy per Si atom -5567.275285 kJ/mol
# Density = 1.733465 g / cm^3
# Si number density = 17.374191 Si / 1000 Ang^3
#
#
#
# Elastic Constant Matrix: (Units=GPa)
#
#
# Indices 1 2 3 4 5 6 
#
# 1 58.3209 28.1632 18.9842 0.0000 0.0000 0.0000
# 2 28.1632 58.3209 18.9842 0.0000 0.0000 0.0000
# 3 18.9842 18.9842 88.4792 0.0000 0.0000 0.0000
# 4 0.0000 0.0000 0.0000 23.0292 0.0000 0.0000
# 5 0.0000 0.0000 0.0000 0.0000 23.0292 0.0000
# 6 0.0000 0.0000 0.0000 0.0000 0.0000 1.0203
#
#
#
# Elastic Compliance Matrix: (Units=1/GPa)
#
#
# Indices 1 2 3 4 5 6 
#
# 1 0.022962 -0.010197 -0.002739 0.000000 0.000000 0.000000
# 2 -0.010197 0.022962 -0.002739 0.000000 0.000000 0.000000
# 3 -0.002739 -0.002739 0.012477 0.000000 0.000000 0.000000
# 4 0.000000 0.000000 0.000000 0.043423 0.000000 0.000000
# 5 0.000000 0.000000 0.000000 0.000000 0.043423 0.000000
# 6 0.000000 0.000000 0.000000 0.000000 0.000000 0.980087
#
#
# Mechanical properties :
#
#
# Convention : Reuss Voigt Hill
#
# Bulk Modulus (GPa) = 36.96551 37.48713 37.22632
# Shear Modulus (GPa) = 4.28926 18.68168 11.48547
#
# Velocity S-wave (km/s) = 1.57293 3.28267 2.57391
# Velocity P-wave (km/s) = 4.96197 5.99925 5.50509
#
# Compressibility (1/GPa) = 0.02705224
#
# Stress axis : x y z
#
# Youngs Moduli (GPa) = 43.54994 43.54994 80.14469
#
# Poissons Ratio (x) = 0.44407 0.21951
# Poissons Ratio (y) = 0.44407 0.21951
# Poissons Ratio (z) = 0.11928 0.11928
#
# Static dielectric constant tensor:
#      x y z
#    x 1.632240 0.000000 0.000000 
#    y 0.000000 1.632240 0.000000 
#    z 0.000000 0.000000 1.841730 
# 
# From -- ./inp_files/516.got.cif
#   From: 2010.05.17/outbox.cif.g08.bks.cpg/sg133_1_cif.got.tgz:516.got - 2010.05.20 12:37:36.
