data_PCOD9567907
_publ_section_title
;
Structure prediction by ZEFSAII (Michael W. Deem and Ramdas Pophale) SiO2 
 PCOD9567907
Probable space group: P 42/N B C
;
_chemical_formula_sum "Si O2"
_cell_formula_units_Z 52
_cell_length_a 16.126386
_cell_length_b 16.126386
_cell_length_c 7.979399
_cell_angle_alpha 90.000000
_cell_angle_beta 90.000000
_cell_angle_gamma 90.000000
_cell_volume 2075.125101
_symmetry_space_group_name_H-M "P 42/N B C"
_symmetry_group_IT_number 133
_space_group.IT_coordinate_system_code '2'
_symmetry_cell_setting 'tetragonal'
loop_
_space_group_symop_operation_xyz
x,y,z
1/2-y,x,1/2+z
1/2-x,1/2-y,z
y,1/2-x,1/2+z
x,1/2-y,-z
1/2-x,y,-z
y,x,1/2-z
1/2-y,1/2-x,1/2-z
-x,-y,-z
1/2+y,-x,1/2-z
1/2+x,1/2+y,-z
-y,1/2+x,1/2-z
-x,1/2+y,z
1/2+x,-y,z
-y,-x,1/2+z
1/2+y,1/2+x,1/2+z
loop_
_atom_site_type_symbol
_atom_site_label
_atom_site_fract_x
_atom_site_fract_y
_atom_site_fract_z
Si Si1 0.991476 0.858452 0.194871
Si Si2 0.862462 0.403303 0.021651
Si Si3 0.072927 0.201727 0.325490
Si Si4 0.250000 0.750000 0.500000
O O1 0.932764 0.932764 0.250000
O O2 0.940260 0.775086 0.193540
O O3 0.062938 0.844466 0.335749
O O4 0.040995 0.882473 0.031142
O O5 0.840068 0.483933 0.131868
O O6 0.812964 0.319804 0.073217
O O7 0.097624 0.250000 0.500000
O O8 0.136613 0.136613 0.250000
#
# Coordination Sequence:
#
# PCOD9567907 Si02
#       4
#    16  16  16   4
#     4  11  24  45  69 104 143 196 250 309 383 451
#     4  11  25  44  71 108 148 191 247 322 385 455
#     4  10  23  48  74 107 154 199 257 322 385 458
#     4  12  24  46  76 106 158 184 256 318 392 466
#
# _framework density 25.058731000000002
#
# number of rings (size 3 to 8) (size 9 to 14) (size 15 to 20)
#    0.000    1.231    4.615    1.846    4.308    4.308 
#    0.000    4.615    0.000    1.846    0.000    0.000 
#    0.000    0.000    0.000    0.000    0.000    0.000 
#
# Total GULP energy -290730.152222 kJ/mol
# GULP energy per Si atom -5590.964466 kJ/mol
# Density = 2.500170 g / cm^3
# Si number density = 25.058731 Si / 1000 Ang^3
#
#
#
# Elastic Constant Matrix: (Units=GPa)
#
#
# Indices 1 2 3 4 5 6 
#
# 1 164.8297 125.2266 49.5248 0.0000 0.0000 0.0000
# 2 125.2266 164.8297 49.5248 0.0000 0.0000 0.0000
# 3 49.5248 49.5248 86.4611 0.0000 0.0000 0.0000
# 4 0.0000 0.0000 0.0000 30.0479 0.0000 0.0000
# 5 0.0000 0.0000 0.0000 0.0000 30.0479 0.0000
# 6 0.0000 0.0000 0.0000 0.0000 0.0000 51.1406
#
#
#
# Elastic Compliance Matrix: (Units=1/GPa)
#
#
# Indices 1 2 3 4 5 6 
#
# 1 0.014768 -0.010482 -0.002455 0.000000 0.000000 0.000000
# 2 -0.010482 0.014768 -0.002455 0.000000 0.000000 0.000000
# 3 -0.002455 -0.002455 0.014378 0.000000 0.000000 0.000000
# 4 0.000000 0.000000 0.000000 0.033280 0.000000 0.000000
# 5 0.000000 0.000000 0.000000 0.000000 0.033280 0.000000
# 6 0.000000 0.000000 0.000000 0.000000 0.000000 0.019554
#
#
# Mechanical properties :
#
#
# Convention : Reuss Voigt Hill
#
# Bulk Modulus (GPa) = 76.15986 96.07479 86.11733
# Shear Modulus (GPa) = 30.26807 35.03687 32.65247
#
# Velocity S-wave (km/s) = 3.47923 3.74329 3.61368
# Velocity P-wave (km/s) = 6.82632 7.55686 7.20086
#
# Compressibility (1/GPa) = 0.01313028
#
# Stress axis : x y z
#
# Youngs Moduli (GPa) = 67.71283 67.71283 69.54911
#
# Poissons Ratio (x) = 0.70979 0.17074
# Poissons Ratio (y) = 0.70979 0.17074
# Poissons Ratio (z) = 0.16623 0.16623
#
# Static dielectric constant tensor:
#      x y z
#    x 1.977270 0.000000 0.000000 
#    y 0.000000 1.977270 0.000000 
#    z 0.000000 0.000000 2.133450 
# 
# From -- ./inp_files/1204.got.cif
#   From: 2010.05.17/outbox.cif.g08.bks.cpg/sg133_1_cif.got.tgz:1204.got - 2010.05.20 12:37:36.
