data_PCOD9567482
_publ_section_title
;
Structure prediction by ZEFSAII (Michael W. Deem and Ramdas Pophale) SiO2 
 PCOD9567482
Probable space group: P 42/M C M
;
_chemical_formula_sum "Si O2"
_cell_formula_units_Z 64
_cell_length_a 10.644043
_cell_length_b 10.644043
_cell_length_c 28.265356
_cell_angle_alpha 90.000000
_cell_angle_beta 90.000000
_cell_angle_gamma 90.000000
_cell_volume 3202.341920
_symmetry_space_group_name_H-M "P 42/M C M"
_symmetry_group_IT_number 132
_symmetry_cell_setting 'tetragonal'
loop_
_space_group_symop_operation_xyz
x,y,z
-y,x,1/2+z
-x,-y,z
y,-x,1/2+z
x,-y,1/2-z
-x,y,1/2-z
y,x,-z
-y,-x,-z
-x,-y,-z
y,-x,1/2-z
x,y,-z
-y,x,1/2-z
-x,y,1/2+z
x,-y,1/2+z
-y,-x,z
y,x,z
loop_
_atom_site_type_symbol
_atom_site_label
_atom_site_fract_x
_atom_site_fract_y
_atom_site_fract_z
Si Si1 0.347251 0.848377 0.625232
Si Si2 0.236637 0.441306 0.446145
Si Si3 0.971182 0.221890 0.946027
Si Si4 0.994284 0.207403 0.193912
O O1 0.275184 0.724816 0.643170
O O2 0.470516 0.801775 0.597566
O O3 0.329601 0.956961 0.665216
O O4 0.268624 0.914226 0.583731
O O5 0.235097 0.498517 0.500000
O O6 0.369608 0.369608 0.440211
O O7 0.131030 0.333350 0.446531
O O8 0.899857 0.100144 0.926511
O O9 0.004421 0.198313 0.000000
O O10 0.098692 0.098692 0.184136
O O11 0.000000 0.231257 0.250000
O O12 0.859317 0.140684 0.183026
#
# Coordination Sequence:
#
# PCOD9567482 Si02
#       4
#    16  16  16  16
#     4  11  20  28  46  76 102 126 163 211 258 305
#     4   9  19  35  50  64  93 143 189 214 241 291
#     4   9  18  32  48  66  93 131 169 205 250 302
#     4   8  15  29  47  68  99 134 160 192 253 328
#
# _framework density 19.985372999999999
#
# number of rings (size 3 to 8) (size 9 to 14) (size 15 to 20)
#    0.000    2.750    0.000    4.500    0.000    6.000 
#    0.000    2.500    0.000    3.000    0.000    0.000 
#    0.000    0.000    0.000   27.500    0.000   14.500 
#
# Total GULP energy -356269.921575 kJ/mol
# GULP energy per Si atom -5566.717525 kJ/mol
# Density = 1.993989 g / cm^3
# Si number density = 19.985373 Si / 1000 Ang^3
#
#
#
# Elastic Constant Matrix: (Units=GPa)
#
#
# Indices 1 2 3 4 5 6 
#
# 1 65.4939 31.6410 36.2295 0.0000 0.0000 0.0000
# 2 31.6410 65.4939 36.2295 0.0000 0.0000 0.0000
# 3 36.2295 36.2295 107.9681 0.0000 0.0000 0.0000
# 4 0.0000 0.0000 0.0000 23.0573 0.0000 0.0000
# 5 0.0000 0.0000 0.0000 0.0000 23.0573 0.0000
# 6 0.0000 0.0000 0.0000 0.0000 0.0000 19.3712
#
#
#
# Elastic Compliance Matrix: (Units=1/GPa)
#
#
# Indices 1 2 3 4 5 6 
#
# 1 0.021636 -0.007904 -0.004608 0.000000 0.000000 0.000000
# 2 -0.007904 0.021636 -0.004608 0.000000 0.000000 0.000000
# 3 -0.004608 -0.004608 0.012354 0.000000 0.000000 0.000000
# 4 0.000000 0.000000 0.000000 0.043370 0.000000 0.000000
# 5 0.000000 0.000000 0.000000 0.000000 0.043370 0.000000
# 6 0.000000 0.000000 0.000000 0.000000 0.000000 0.051623
#
#
# Mechanical properties :
#
#
# Convention : Reuss Voigt Hill
#
# Bulk Modulus (GPa) = 46.75688 49.68398 48.22043
# Shear Modulus (GPa) = 21.24423 22.08757 21.66590
#
# Velocity S-wave (km/s) = 3.26389 3.32804 3.29612
# Velocity P-wave (km/s) = 6.13598 6.29936 6.21821
#
# Compressibility (1/GPa) = 0.02138723
#
# Stress axis : x y z
#
# Youngs Moduli (GPa) = 46.21930 46.21930 80.94223
#
# Poissons Ratio (x) = 0.36530 0.37298
# Poissons Ratio (y) = 0.36530 0.37298
# Poissons Ratio (z) = 0.21298 0.21298
#
# Static dielectric constant tensor:
#      x y z
#    x 1.747410 0.000000 0.000000 
#    y 0.000000 1.747410 0.000000 
#    z 0.000000 0.000000 1.736620 
# 
# From -- ./inp_files/9641.got.cif
#   From: 2010.05.17/outbox.cif.g08.bks.cpg/sg132_5_cif.got.tgz:9641.got - 2010.05.20 12:30:18.
