data_PCOD9567898
_publ_section_title
;
Structure prediction by ZEFSAII (Michael W. Deem and Ramdas Pophale) SiO2 
 PCOD9567898
Probable space group: P 42/N B C
;
_chemical_formula_sum "Si O2"
_cell_formula_units_Z 104
_cell_length_a 13.141922
_cell_length_b 13.141922
_cell_length_c 25.298489
_cell_angle_alpha 90.000000
_cell_angle_beta 90.000000
_cell_angle_gamma 90.000000
_cell_volume 4369.304916
_symmetry_space_group_name_H-M "P 42/N B C"
_symmetry_group_IT_number 133
_space_group.IT_coordinate_system_code '2'
_symmetry_cell_setting 'tetragonal'
loop_
_space_group_symop_operation_xyz
x,y,z
1/2-y,x,1/2+z
1/2-x,1/2-y,z
y,1/2-x,1/2+z
x,1/2-y,-z
1/2-x,y,-z
y,x,1/2-z
1/2-y,1/2-x,1/2-z
-x,-y,-z
1/2+y,-x,1/2-z
1/2+x,1/2+y,-z
-y,1/2+x,1/2-z
-x,1/2+y,z
1/2+x,-y,z
-y,-x,1/2+z
1/2+y,1/2+x,1/2+z
loop_
_atom_site_type_symbol
_atom_site_label
_atom_site_fract_x
_atom_site_fract_y
_atom_site_fract_z
Si Si1 0.628078 0.482299 0.236810
Si Si2 0.552528 0.323599 0.312131
Si Si3 0.035074 0.444804 0.447552
Si Si4 0.868468 0.043197 0.635285
Si Si5 0.116203 0.672883 0.914561
Si Si6 0.171292 0.336152 0.686110
Si Si7 0.750000 0.053826 0.000000
O O1 0.600890 0.600890 0.250000
O O2 0.563182 0.430461 0.282719
O O3 0.743181 0.440892 0.236320
O O4 0.598182 0.432681 0.181039
O O5 0.626087 0.333900 0.361357
O O6 0.440153 0.303621 0.333348
O O7 0.956336 0.487035 0.404521
O O8 0.015368 0.325797 0.462740
O O9 0.000000 0.500000 0.500000
O O10 0.139082 0.498671 0.427814
O O11 0.791131 0.109800 0.600533
O O12 0.811287 0.947249 0.661611
O O13 0.181840 0.627485 0.962725
O O14 0.250000 0.250000 0.670868
O O15 0.161137 0.338864 0.750000
#
# Coordination Sequence:
#
# PCOD9567898 Si02
#       7
#    16  16  16  16  16  16   8
#     4  12  25  41  66  98 145 187 230 289 351 426
#     4  12  24  42  67 101 143 188 232 290 355 426
#     4  10  23  44  68  96 139 182 233 306 361 428
#     4  12  23  45  69 101 142 183 237 298 361 426
#     4  11  25  43  74 101 141 186 235 303 367 432
#     4  11  24  43  68 104 145 192 243 281 348 441
#     4  10  24  45  68 103 138 182 240 293 380 431
#
# _framework density 23.802410999999999
#
# number of rings (size 3 to 8) (size 9 to 14) (size 15 to 20)
#    0.000    0.769    4.615    1.846    2.154    9.538 
#    0.000    0.000    0.000    3.692    0.000    0.000 
#    0.000    0.000    0.000    0.000    0.000    0.000 
#
# Total GULP energy -580346.978610 kJ/mol
# GULP energy per Si atom -5580.259410 kJ/mol
# Density = 2.374824 g / cm^3
# Si number density = 23.802411 Si / 1000 Ang^3
#
#
#
# Elastic Constant Matrix: (Units=GPa)
#
#
# Indices 1 2 3 4 5 6 
#
# 1 46.9353 23.7680 4.1586 0.0000 0.0000 0.0000
# 2 23.7680 46.9355 4.1584 0.0000 0.0000 0.0000
# 3 4.1586 4.1584 87.8094 0.0000 0.0000 0.0000
# 4 0.0000 0.0000 0.0000 27.9826 0.0000 0.0000
# 5 0.0000 0.0000 0.0000 0.0000 27.9826 0.0000
# 6 0.0000 0.0000 0.0000 0.0000 0.0000 34.3222
#
#
#
# Elastic Compliance Matrix: (Units=1/GPa)
#
#
# Indices 1 2 3 4 5 6 
#
# 1 0.028694 -0.014471 -0.000674 0.000000 0.000000 0.000000
# 2 -0.014471 0.028693 -0.000674 0.000000 0.000000 0.000000
# 3 -0.000674 -0.000674 0.011452 0.000000 0.000000 0.000000
# 4 0.000000 0.000000 0.000000 0.035737 0.000000 0.000000
# 5 0.000000 0.000000 0.000000 0.000000 0.035737 0.000000
# 6 0.000000 0.000000 0.000000 0.000000 0.000000 0.029136
#
#
# Mechanical properties :
#
#
# Convention : Reuss Voigt Hill
#
# Bulk Modulus (GPa) = 26.87919 27.31667 27.09793
# Shear Modulus (GPa) = 23.42091 28.03050 25.72570
#
# Velocity S-wave (km/s) = 3.14024 3.43539 3.29112
# Velocity P-wave (km/s) = 4.94624 5.21893 5.08441
#
# Compressibility (1/GPa) = 0.03720350
#
# Stress axis : x y z
#
# Youngs Moduli (GPa) = 34.85105 34.85120 87.32027
#
# Poissons Ratio (x) = 0.50432 0.05882
# Poissons Ratio (y) = 0.50432 0.05881
# Poissons Ratio (z) = 0.02348 0.02347
#
# Static dielectric constant tensor:
#      x y z
#    x 1.976870 0.000000 0.000000 
#    y 0.000000 1.976870 0.000000 
#    z 0.000000 0.000000 1.785040 
# 
# From -- ./inp_files/7272.got.cif
#   From: 2010.05.17/outbox.cif.g08.bks.cpg/sg133_4_cif.got.tgz:7272.got - 2010.05.20 12:37:36.
