data_PCOD9567170
_publ_section_title
;
Structure prediction by ZEFSAII (Michael W. Deem and Ramdas Pophale) SiO2 
 PCOD9567170
Probable space group: P 42/M C M
;
_chemical_formula_sum "Si O2"
_cell_formula_units_Z 96
_cell_length_a 24.965722
_cell_length_b 24.965722
_cell_length_c 9.127817
_cell_angle_alpha 90.000000
_cell_angle_beta 90.000000
_cell_angle_gamma 90.000000
_cell_volume 5689.252184
_symmetry_space_group_name_H-M "P 42/M C M"
_symmetry_group_IT_number 132
_symmetry_cell_setting 'tetragonal'
loop_
_space_group_symop_operation_xyz
x,y,z
-y,x,1/2+z
-x,-y,z
y,-x,1/2+z
x,-y,1/2-z
-x,y,1/2-z
y,x,-z
-y,-x,-z
-x,-y,-z
y,-x,1/2-z
x,y,-z
-y,x,1/2-z
-x,y,1/2+z
x,-y,1/2+z
-y,-x,z
y,x,z
loop_
_atom_site_type_symbol
_atom_site_label
_atom_site_fract_x
_atom_site_fract_y
_atom_site_fract_z
Si Si1 0.260211 0.850189 0.328376
Si Si2 0.444349 0.783558 0.828017
Si Si3 0.942118 0.057883 0.178341
Si Si4 0.445269 0.912899 0.171247
Si Si5 0.050026 0.338927 0.170034
Si Si6 0.147762 0.852239 0.824951
Si Si7 0.334894 0.249281 0.824121
O O1 0.246315 0.842707 0.500000
O O2 0.301818 0.898410 0.317699
O O3 0.206725 0.863552 0.240083
O O4 0.292583 0.797230 0.279388
O O5 0.500000 0.767668 0.750000
O O6 0.440253 0.848278 0.814628
O O7 0.391511 0.759039 0.753944
O O8 0.446449 0.770614 0.000000
O O9 0.897081 0.102920 0.212247
O O10 0.000000 0.072100 0.250000
O O11 0.946719 0.053282 0.000000
O O12 0.500000 0.929087 0.250000
O O13 0.394577 0.938275 0.249897
O O14 0.446694 0.926302 0.000000
O O15 0.000000 0.312338 0.250000
O O16 0.038409 0.348241 0.000000
O O17 0.150300 0.849701 0.000000
O O18 0.305541 0.305541 0.794863
O O19 0.342166 0.243640 0.000000
#
# Coordination Sequence:
#
# PCOD9567170 Si02
#       7
#    16  16   8  16  16   8  16
#     4  10  21  38  57  78 107 145 182 217 268 329
#     4  10  20  33  53  80 111 146 184 228 275 324
#     4  10  22  41  64  90 112 138 172 218 274 335
#     4  10  20  34  53  76 101 134 180 229 279 327
#     4  11  23  38  55  74 102 138 179 227 274 326
#     4  11  24  38  59  88 116 140 174 220 267 321
#     4  10  19  34  56  81 110 144 185 227 271 326
#
# _framework density 16.873922
#
# number of rings (size 3 to 8) (size 9 to 14) (size 15 to 20)
#    0.000    1.750    2.500    2.250    0.000    6.000 
#    0.000    5.000    0.000    0.000    0.000    0.000 
#    0.000    0.333    0.000    3.500    0.000    1.500 
#
# Total GULP energy -536008.913962 kJ/mol
# GULP energy per Si atom -5583.426187 kJ/mol
# Density = 1.683552 g / cm^3
# Si number density = 16.873922 Si / 1000 Ang^3
#
#
#
# Elastic Constant Matrix: (Units=GPa)
#
#
# Indices 1 2 3 4 5 6 
#
# 1 103.6124 57.0364 59.9379 0.0000 0.0000 0.0000
# 2 57.0364 103.6122 59.9378 0.0000 0.0000 0.0000
# 3 59.9379 59.9378 102.5303 0.0000 0.0000 0.0000
# 4 0.0000 0.0000 0.0000 28.0215 0.0000 0.0000
# 5 0.0000 0.0000 0.0000 0.0000 28.0218 0.0000
# 6 0.0000 0.0000 0.0000 0.0000 0.0000 26.7661
#
#
#
# Elastic Compliance Matrix: (Units=1/GPa)
#
#
# Indices 1 2 3 4 5 6 
#
# 1 0.016256 -0.005215 -0.006454 0.000000 0.000000 0.000000
# 2 -0.005215 0.016256 -0.006454 0.000000 0.000000 0.000000
# 3 -0.006454 -0.006454 0.017300 0.000000 0.000000 0.000000
# 4 0.000000 0.000000 0.000000 0.035687 0.000000 0.000000
# 5 0.000000 0.000000 0.000000 0.000000 0.035687 0.000000
# 6 0.000000 0.000000 0.000000 0.000000 0.000000 0.037361
#
#
# Mechanical properties :
#
#
# Convention : Reuss Voigt Hill
#
# Bulk Modulus (GPa) = 73.72515 73.73099 73.72807
# Shear Modulus (GPa) = 25.08612 25.41807 25.25209
#
# Velocity S-wave (km/s) = 3.85993 3.88539 3.87268
# Velocity P-wave (km/s) = 7.97822 7.99490 7.98656
#
# Compressibility (1/GPa) = 0.01356389
#
# Stress axis : x y z
#
# Youngs Moduli (GPa) = 61.51701 61.51688 57.80485
#
# Poissons Ratio (x) = 0.32079 0.37310
# Poissons Ratio (y) = 0.32079 0.37310
# Poissons Ratio (z) = 0.39706 0.39706
#
# Static dielectric constant tensor:
#      x y z
#    x 1.568010 0.000000 0.000000 
#    y 0.000000 1.568010 0.000000 
#    z 0.000000 0.000000 1.566040 
# 
# From -- ./inp_files/1853.got.cif
#   From: 2010.05.17/outbox.cif.g08.bks.cpg/sg132_1_cif.got.tgz:1853.got - 2010.05.20 12:30:18.
