data_PCOD9567471
_publ_section_title
;
Structure prediction by ZEFSAII (Michael W. Deem and Ramdas Pophale) SiO2 
 PCOD9567471
Probable space group: P 42/M C M
;
_chemical_formula_sum "Si O2"
_cell_formula_units_Z 44
_cell_length_a 10.797322
_cell_length_b 10.797322
_cell_length_c 19.962896
_cell_angle_alpha 90.000000
_cell_angle_beta 90.000000
_cell_angle_gamma 90.000000
_cell_volume 2327.317583
_symmetry_space_group_name_H-M "P 42/M C M"
_symmetry_group_IT_number 132
_symmetry_cell_setting 'tetragonal'
loop_
_space_group_symop_operation_xyz
x,y,z
-y,x,1/2+z
-x,-y,z
y,-x,1/2+z
x,-y,1/2-z
-x,y,1/2-z
y,x,-z
-y,-x,-z
-x,-y,-z
y,-x,1/2-z
x,y,-z
-y,x,1/2-z
-x,y,1/2+z
x,-y,1/2+z
-y,-x,z
y,x,z
loop_
_atom_site_type_symbol
_atom_site_label
_atom_site_fract_x
_atom_site_fract_y
_atom_site_fract_z
Si Si1 0.496326 0.292238 0.000000
Si Si2 0.864838 0.135163 0.874159
Si Si3 0.000000 0.000000 0.000000
Si Si4 0.429289 0.129540 0.373355
Si Si5 0.000000 0.000000 0.750000
Si Si6 0.500000 0.299707 0.250000
O O1 0.517100 0.205985 0.935940
O O2 0.366482 0.366482 0.000000
O O3 0.603404 0.396597 0.000000
O O4 0.888784 0.282168 0.878527
O O5 0.918571 0.081430 0.803187
O O6 0.925346 0.074655 0.939755
O O7 0.452946 0.214293 0.309163
O O8 0.500000 0.000000 0.367614
O O9 0.389661 0.389661 0.226374
#
# Coordination Sequence:
#
# PCOD9567471 Si02
#       6
#     8   8   2  16   2   8
#     4  11  22  44  69  97 134 170 220 285 347 403
#     4  11  24  48  70  97 141 172 240 277 335 412
#     4  10  24  50  76  94 134 200 216 294 344 386
#     4  12  25  42  69  99 133 179 224 280 342 408
#     4  10  28  42  64  98 128 190 216 274 328 386
#     4  11  23  42  68  98 133 173 220 284 350 403
#
# _framework density 18.905885000000001
#
# number of rings (size 3 to 8) (size 9 to 14) (size 15 to 20)
#    0.000    0.727    3.636    3.273    5.091    2.909 
#   13.091    0.000    0.000    0.000    0.000    0.000 
#    0.000    0.000    0.000    0.000    0.000    0.000 
#
# Total GULP energy -245432.396097 kJ/mol
# GULP energy per Si atom -5578.009002 kJ/mol
# Density = 1.886285 g / cm^3
# Si number density = 18.905885 Si / 1000 Ang^3
#
#
#
# Elastic Constant Matrix: (Units=GPa)
#
#
# Indices 1 2 3 4 5 6 
#
# 1 143.3088 98.4155 50.0973 0.0000 0.0000 0.0000
# 2 98.4155 143.3089 50.0972 0.0000 0.0000 0.0000
# 3 50.0973 50.0972 132.5686 0.0000 0.0000 0.0000
# 4 0.0000 0.0000 0.0000 26.4676 0.0000 0.0000
# 5 0.0000 0.0000 0.0000 0.0000 26.4675 0.0000
# 6 0.0000 0.0000 0.0000 0.0000 0.0000 34.8935
#
#
#
# Elastic Compliance Matrix: (Units=1/GPa)
#
#
# Indices 1 2 3 4 5 6 
#
# 1 0.013590 -0.008685 -0.001854 0.000000 0.000000 0.000000
# 2 -0.008685 0.013590 -0.001854 0.000000 0.000000 0.000000
# 3 -0.001854 -0.001854 0.008944 0.000000 0.000000 0.000000
# 4 0.000000 0.000000 0.000000 0.037782 0.000000 0.000000
# 5 0.000000 0.000000 0.000000 0.000000 0.037782 0.000000
# 6 0.000000 0.000000 0.000000 0.000000 0.000000 0.028659
#
#
# Mechanical properties :
#
#
# Convention : Reuss Voigt Hill
#
# Bulk Modulus (GPa) = 88.18273 90.71181 89.44727
# Shear Modulus (GPa) = 29.60122 32.27081 30.93602
#
# Velocity S-wave (km/s) = 3.96120 4.13597 4.04953
# Velocity P-wave (km/s) = 8.22592 8.41981 8.32343
#
# Compressibility (1/GPa) = 0.01134009
#
# Stress axis : x y z
#
# Youngs Moduli (GPa) = 73.58261 73.58264 111.80334
#
# Poissons Ratio (x) = 0.63906 0.20725
# Poissons Ratio (y) = 0.63906 0.20725
# Poissons Ratio (z) = 0.13640 0.13640
#
# Static dielectric constant tensor:
#      x y z
#    x 1.651140 0.000000 0.000000 
#    y 0.000000 1.651140 0.000000 
#    z 0.000000 0.000000 1.631660 
# 
# From -- ./inp_files/5799.got.cif
#   From: 2010.05.17/outbox.cif.g08.bks.cpg/sg132_3_cif.got.tgz:5799.got - 2010.05.20 12:30:18.
