data_PCOD9567798
_publ_section_title
;
Structure prediction by ZEFSAII (Michael W. Deem and Ramdas Pophale) SiO2 
 PCOD9567798
Probable space group: P 42/N B C
;
_chemical_formula_sum "Si O2"
_cell_formula_units_Z 108
_cell_length_a 14.439415
_cell_length_b 14.439415
_cell_length_c 23.772071
_cell_angle_alpha 90.000000
_cell_angle_beta 90.000000
_cell_angle_gamma 90.000000
_cell_volume 4956.398487
_symmetry_space_group_name_H-M "P 42/N B C"
_symmetry_group_IT_number 133
_space_group.IT_coordinate_system_code '2'
_symmetry_cell_setting 'tetragonal'
loop_
_space_group_symop_operation_xyz
x,y,z
1/2-y,x,1/2+z
1/2-x,1/2-y,z
y,1/2-x,1/2+z
x,1/2-y,-z
1/2-x,y,-z
y,x,1/2-z
1/2-y,1/2-x,1/2-z
-x,-y,-z
1/2+y,-x,1/2-z
1/2+x,1/2+y,-z
-y,1/2+x,1/2-z
-x,1/2+y,z
1/2+x,-y,z
-y,-x,1/2+z
1/2+y,1/2+x,1/2+z
loop_
_atom_site_type_symbol
_atom_site_label
_atom_site_fract_x
_atom_site_fract_y
_atom_site_fract_z
Si Si1 0.754395 0.599086 0.655675
Si Si2 0.165596 0.875030 0.261486
Si Si3 0.035582 0.604055 0.124734
Si Si4 0.833806 0.874558 0.457400
Si Si5 0.997886 0.250000 0.500000
Si Si6 0.005261 0.926477 0.193314
Si Si7 0.063137 0.908523 0.003740
Si Si8 0.250000 0.250000 0.250000
O O1 0.658648 0.560622 0.631534
O O2 0.803686 0.650932 0.604953
O O3 0.824652 0.516534 0.671447
O O4 0.745587 0.661599 0.709898
O O5 0.272237 0.873110 0.246796
O O6 0.145402 0.902567 0.325319
O O7 0.108371 0.938088 0.217807
O O8 0.073221 0.619280 0.062132
O O9 0.019412 0.498326 0.144047
O O10 0.750000 0.851844 0.500000
O O11 0.928095 0.816763 0.467964
O O12 0.844988 0.987666 0.463745
O O13 0.932559 0.332872 0.525926
O O14 0.945337 0.945337 0.250000
O O15 0.000000 0.000000 0.000000
#
# Coordination Sequence:
#
# PCOD9567798 Si02
#       8
#    16  16  16  16   8  16  16   4
#     4  12  25  47  67 100 143 178 236 292 355 428
#     4  10  21  39  61  93 131 174 235 278 337 418
#     4  11  23  42  68  95 134 184 224 291 350 418
#     4  11  23  43  74  99 141 187 232 294 365 429
#     4  10  23  42  71 106 138 180 246 296 351 429
#     4  10  21  40  64  91 131 182 228 280 349 411
#     4  10  22  45  65 102 136 178 236 289 361 426
#     4  12  32  40  66 112 136 176 236 302 348 424
#
# _framework density 21.790015
#
# number of rings (size 3 to 8) (size 9 to 14) (size 15 to 20)
#    0.000    1.333    3.704    2.000    5.185    0.000 
#    8.000    0.370    0.000    0.000    0.000    0.000 
#    0.000    0.000    0.000    0.000    0.000    0.000 
#
# Total GULP energy -602130.518277 kJ/mol
# GULP energy per Si atom -5575.282577 kJ/mol
# Density = 2.174042 g / cm^3
# Si number density = 21.790015 Si / 1000 Ang^3
#
#
#
# Elastic Constant Matrix: (Units=GPa)
#
#
# Indices 1 2 3 4 5 6 
#
# 1 53.1846 53.5940 17.9032 0.0000 0.0000 0.0000
# 2 53.5940 53.1846 17.9032 0.0000 0.0000 0.0000
# 3 17.9032 17.9032 106.7555 0.0000 0.0000 0.0000
# 4 0.0000 0.0000 0.0000 15.9887 0.0000 0.0000
# 5 0.0000 0.0000 0.0000 0.0000 15.9887 0.0000
# 6 0.0000 0.0000 0.0000 0.0000 0.0000 39.9688
#
#
#
# Elastic Compliance Matrix: (Units=1/GPa)
#
#
# Indices 1 2 3 4 5 6 
#
# 1 -1.216319 1.226243 -0.001664 0.000000 0.000000 0.000000
# 2 1.226243 -1.216319 -0.001664 0.000000 0.000000 0.000000
# 3 -0.001664 -0.001664 0.009925 0.000000 0.000000 0.000000
# 4 0.000000 0.000000 0.000000 0.062544 0.000000 0.000000
# 5 0.000000 0.000000 0.000000 0.000000 0.062544 0.000000
# 6 0.000000 0.000000 0.000000 0.000000 0.000000 0.025020
#
#
# Mechanical properties :
#
#
# Convention : Reuss Voigt Hill
#
# Bulk Modulus (GPa) = 43.26160 43.54729 43.40445
# Shear Modulus (GPa) = -1.06141 22.63752 10.78806
#
# Velocity S-wave (km/s) = -0.69869 3.22668 2.22748
# Velocity P-wave (km/s) = 4.38704 5.82326 5.15541
#
# Compressibility (1/GPa) = 0.02311519
#
# Stress axis : x y z
#
# Youngs Moduli (GPa) = -0.82215 -0.82215 100.75199
#
# Poissons Ratio (x) = 1.00816 0.16767
# Poissons Ratio (y) = 1.00816 0.16767
# Poissons Ratio (z) = -0.00137 -0.00137
#
# Static dielectric constant tensor:
#      x y z
#    x 1.893870 0.000000 0.000000 
#    y 0.000000 1.893870 0.000000 
#    z 0.000000 0.000000 1.815340 
# 
# From -- ./inp_files/7289.got.cif
#   From: 2010.05.17/outbox.cif.g08.bks.cpg/sg133_4_cif.got.tgz:7289.got - 2010.05.20 12:37:36.
