data_PCOD9567008
_publ_section_title
;
Structure prediction by ZEFSAII (Michael W. Deem and Ramdas Pophale) SiO2 
 PCOD9567008
Probable space group: P 42/M C M
;
_chemical_formula_sum "Si O2"
_cell_formula_units_Z 72
_cell_length_a 12.446168
_cell_length_b 12.446168
_cell_length_c 24.694970
_cell_angle_alpha 90.000000
_cell_angle_beta 90.000000
_cell_angle_gamma 90.000000
_cell_volume 3825.426135
_symmetry_space_group_name_H-M "P 42/M C M"
_symmetry_group_IT_number 132
_symmetry_cell_setting 'tetragonal'
loop_
_space_group_symop_operation_xyz
x,y,z
-y,x,1/2+z
-x,-y,z
y,-x,1/2+z
x,-y,1/2-z
-x,y,1/2-z
y,x,-z
-y,-x,-z
-x,-y,-z
y,-x,1/2-z
x,y,-z
-y,x,1/2-z
-x,y,1/2+z
x,-y,1/2+z
-y,-x,z
y,x,z
loop_
_atom_site_type_symbol
_atom_site_label
_atom_site_fract_x
_atom_site_fract_y
_atom_site_fract_z
Si Si1 0.281134 0.018106 0.866677
Si Si2 0.567750 0.887370 0.438228
Si Si3 0.500000 0.819071 0.750000
Si Si4 0.419716 0.238542 0.864493
Si Si5 0.089634 0.910367 0.559589
Si Si6 0.316521 0.000000 0.250000
O O1 0.345326 0.919165 0.892880
O O2 0.249258 0.000489 0.804759
O O3 0.353164 0.126219 0.863398
O O4 0.186966 0.042412 0.907205
O O5 0.605254 0.867853 0.500000
O O6 0.500270 0.787773 0.414022
O O7 0.500000 0.000000 0.440829
O O8 0.520622 0.755400 0.806023
O O9 0.397243 0.898240 0.755594
O O10 0.337499 0.337499 0.871688
O O11 0.125224 0.874777 0.500000
O O12 0.000000 0.000000 0.554861
#
# Coordination Sequence:
#
# PCOD9567008 Si02
#       6
#    16  16   8  16   8   8
#     4  10  18  35  51  78 103 147 197 237 285 337
#     4   9  17  29  48  75 107 143 183 228 283 345
#     4   9  16  30  50  77 106 144 184 227 292 361
#     4  10  18  30  51  81 111 140 184 234 296 353
#     4  11  24  40  54  74 114 162 199 233 282 349
#     4   9  16  30  57  72 104 142 191 242 291 340
#
# _framework density 18.821432000000001
#
# number of rings (size 3 to 8) (size 9 to 14) (size 15 to 20)
#    0.000    2.333    3.333    0.667    0.000    1.333 
#    2.000    0.000    0.000    0.333    0.000    0.000 
#    0.000    0.000    0.000    6.667    0.000    0.000 
#
# Total GULP energy -400848.458020 kJ/mol
# GULP energy per Si atom -5567.339695 kJ/mol
# Density = 1.877859 g / cm^3
# Si number density = 18.821432 Si / 1000 Ang^3
#
#
#
# Elastic Constant Matrix: (Units=GPa)
#
#
# Indices 1 2 3 4 5 6 
#
# 1 33.7066 25.9578 43.2433 0.0000 0.0000 0.0000
# 2 25.9578 33.7066 43.2432 0.0000 0.0000 0.0000
# 3 43.2433 43.2432 200.3050 0.0000 0.0000 0.0000
# 4 0.0000 0.0000 0.0000 27.7830 0.0000 0.0000
# 5 0.0000 0.0000 0.0000 0.0000 27.7828 0.0000
# 6 0.0000 0.0000 0.0000 0.0000 0.0000 23.1541
#
#
#
# Elastic Compliance Matrix: (Units=1/GPa)
#
#
# Indices 1 2 3 4 5 6 
#
# 1 0.076723 -0.052329 -0.005266 0.000000 0.000000 0.000000
# 2 -0.052329 0.076723 -0.005266 0.000000 0.000000 0.000000
# 3 -0.005266 -0.005266 0.007266 0.000000 0.000000 0.000000
# 4 0.000000 0.000000 0.000000 0.035993 0.000000 0.000000
# 5 0.000000 0.000000 0.000000 0.000000 0.035993 0.000000
# 6 0.000000 0.000000 0.000000 0.000000 0.000000 0.043189
#
#
# Mechanical properties :
#
#
# Convention : Reuss Voigt Hill
#
# Bulk Modulus (GPa) = 28.58016 54.73408 41.65712
# Shear Modulus (GPa) = 12.09849 26.09557 19.09703
#
# Velocity S-wave (km/s) = 2.53811 3.72759 3.18880
# Velocity P-wave (km/s) = 4.87926 6.90438 5.97819
#
# Compressibility (1/GPa) = 0.03498930
#
# Stress axis : x y z
#
# Youngs Moduli (GPa) = 13.03387 13.03389 137.62185
#
# Poissons Ratio (x) = 0.68205 0.72478
# Poissons Ratio (y) = 0.68205 0.72477
# Poissons Ratio (z) = 0.06864 0.06864
#
# Static dielectric constant tensor:
#      x y z
#    x 0.017090 0.000000 0.000000 
#    y 0.000000 0.017230 0.000000 
#    z 0.000000 0.000000 1.693600 
# 
# From -- ./inp_files/9828.got.cif
#   From: 2010.05.17/outbox.cif.g08.bks.cpg/sg132_5_cif.got.tgz:9828.got - 2010.05.20 12:30:18.
