data_PCOD9567838
_publ_section_title
;
Structure prediction by ZEFSAII (Michael W. Deem and Ramdas Pophale) SiO2 
 PCOD9567838
Probable space group: P 42/N B C
;
_chemical_formula_sum "Si O2"
_cell_formula_units_Z 64
_cell_length_a 15.596776
_cell_length_b 15.596776
_cell_length_c 12.134627
_cell_angle_alpha 90.000000
_cell_angle_beta 90.000000
_cell_angle_gamma 90.000000
_cell_volume 2951.862345
_symmetry_space_group_name_H-M "P 42/N B C"
_symmetry_group_IT_number 133
_space_group.IT_coordinate_system_code '2'
_symmetry_cell_setting 'tetragonal'
loop_
_space_group_symop_operation_xyz
x,y,z
1/2-y,x,1/2+z
1/2-x,1/2-y,z
y,1/2-x,1/2+z
x,1/2-y,-z
1/2-x,y,-z
y,x,1/2-z
1/2-y,1/2-x,1/2-z
-x,-y,-z
1/2+y,-x,1/2-z
1/2+x,1/2+y,-z
-y,1/2+x,1/2-z
-x,1/2+y,z
1/2+x,-y,z
-y,-x,1/2+z
1/2+y,1/2+x,1/2+z
loop_
_atom_site_type_symbol
_atom_site_label
_atom_site_fract_x
_atom_site_fract_y
_atom_site_fract_z
Si Si1 0.468602 0.804464 0.397351
Si Si2 0.099149 0.439691 0.628961
Si Si3 0.438466 0.843792 0.954787
Si Si4 0.214538 0.077995 0.708717
O O1 0.440428 0.750000 0.500000
O O2 0.544252 0.869044 0.433324
O O3 0.388520 0.867412 0.379057
O O4 0.510605 0.745962 0.303059
O O5 0.055341 0.444660 0.750000
O O6 0.105563 0.528408 0.563527
O O7 0.194069 0.401787 0.651103
O O8 0.523704 0.836445 0.881421
O O9 0.413352 0.750000 0.000000
O O10 0.157981 0.157981 0.750000
#
# Coordination Sequence:
#
# PCOD9567838 Si02
#       4
#    16  16  16  16
#     4  11  23  37  59  89 119 161 209 258 320 387
#     4   9  20  38  61  88 118 159 206 258 322 394
#     4  10  22  41  60  85 123 165 214 269 324 393
#     4  10  22  39  62  91 124 163 206 263 329 397
#
# _framework density 21.681228999999998
#
# number of rings (size 3 to 8) (size 9 to 14) (size 15 to 20)
#    0.000    2.000    0.000    2.250    0.000   14.000 
#    0.000    1.250    0.000    0.000    0.000    0.000 
#    0.000    0.000    0.000    0.000    0.000    0.000 
#
# Total GULP energy -356744.601073 kJ/mol
# GULP energy per Si atom -5574.134392 kJ/mol
# Density = 2.163188 g / cm^3
# Si number density = 21.681229 Si / 1000 Ang^3
#
#
#
# Elastic Constant Matrix: (Units=GPa)
#
#
# Indices 1 2 3 4 5 6 
#
# 1 47.1147 36.2082 28.7817 0.0000 0.0000 0.0000
# 2 36.2082 47.1147 28.7819 0.0000 0.0000 0.0000
# 3 28.7817 28.7819 47.1719 0.0000 0.0000 0.0000
# 4 0.0000 0.0000 0.0000 27.2998 0.0000 0.0000
# 5 0.0000 0.0000 0.0000 0.0000 27.2999 0.0000
# 6 0.0000 0.0000 0.0000 0.0000 0.0000 35.7105
#
#
#
# Elastic Compliance Matrix: (Units=1/GPa)
#
#
# Indices 1 2 3 4 5 6 
#
# 1 0.056217 -0.035471 -0.012658 0.000000 0.000000 0.000000
# 2 -0.035471 0.056218 -0.012659 0.000000 0.000000 0.000000
# 3 -0.012658 -0.012659 0.036646 0.000000 0.000000 0.000000
# 4 0.000000 0.000000 0.000000 0.036630 0.000000 0.000000
# 5 0.000000 0.000000 0.000000 0.000000 0.036630 0.000000
# 6 0.000000 0.000000 0.000000 0.000000 0.000000 0.028003
#
#
# Mechanical properties :
#
#
# Convention : Reuss Voigt Hill
#
# Bulk Modulus (GPa) = 36.35647 36.54943 36.45295
# Shear Modulus (GPa) = 13.12030 21.23734 17.17882
#
# Velocity S-wave (km/s) = 2.46264 3.13313 2.81790
# Velocity P-wave (km/s) = 4.98911 5.47567 5.23804
#
# Compressibility (1/GPa) = 0.02750542
#
# Stress axis : x y z
#
# Youngs Moduli (GPa) = 17.78815 17.78799 27.28795
#
# Poissons Ratio (x) = 0.63095 0.34542
# Poissons Ratio (y) = 0.63096 0.34544
# Poissons Ratio (z) = 0.22517 0.22518
#
# Static dielectric constant tensor:
#      x y z
#    x 1.820920 0.000000 0.000000 
#    y 0.000000 1.820910 0.000000 
#    z 0.000000 0.000000 1.844240 
# 
# From -- ./inp_files/4133.got.cif
#   From: 2010.05.17/outbox.cif.g08.bks.cpg/sg133_3_cif.got.tgz:4133.got - 2010.05.20 12:37:36.
