data_PCOD9567022
_publ_section_title
;
Structure prediction by ZEFSAII (Michael W. Deem and Ramdas Pophale) SiO2 
 PCOD9567022
Probable space group: P 42/M C M
;
_chemical_formula_sum "Si O2"
_cell_formula_units_Z 120
_cell_length_a 21.810547
_cell_length_b 21.810547
_cell_length_c 13.764938
_cell_angle_alpha 90.000000
_cell_angle_beta 90.000000
_cell_angle_gamma 90.000000
_cell_volume 6547.980462
_symmetry_space_group_name_H-M "P 42/M C M"
_symmetry_group_IT_number 132
_symmetry_cell_setting 'tetragonal'
loop_
_space_group_symop_operation_xyz
x,y,z
-y,x,1/2+z
-x,-y,z
y,-x,1/2+z
x,-y,1/2-z
-x,y,1/2-z
y,x,-z
-y,-x,-z
-x,-y,-z
y,-x,1/2-z
x,y,-z
-y,x,1/2-z
-x,y,1/2+z
x,-y,1/2+z
-y,-x,z
y,x,z
loop_
_atom_site_type_symbol
_atom_site_label
_atom_site_fract_x
_atom_site_fract_y
_atom_site_fract_z
Si Si1 0.918420 0.358168 0.616282
Si Si2 0.735539 0.500000 0.250000
Si Si3 0.607310 0.710060 0.384226
Si Si4 0.850873 0.384098 0.116503
Si Si5 0.474787 0.153811 0.883080
Si Si6 0.933719 0.165809 0.225260
Si Si7 0.141660 0.763361 0.613312
Si Si8 0.707451 0.955425 0.382693
O O1 0.925719 0.365124 0.500000
O O2 0.895561 0.424375 0.649608
O O3 0.865678 0.308022 0.633917
O O4 0.981300 0.325626 0.647642
O O5 0.698991 0.450712 0.185875
O O6 0.782041 0.467317 0.326630
O O7 0.590665 0.710199 0.500000
O O8 0.661119 0.661119 0.370700
O O9 0.627621 0.779822 0.359217
O O10 0.865567 0.455141 0.138013
O O11 0.899774 0.335375 0.153841
O O12 0.854480 0.379194 0.000000
O O13 0.469865 0.162641 0.000000
O O14 0.884693 0.115308 0.189876
O O15 0.903942 0.197179 0.320661
O O16 0.946515 0.223851 0.155678
O O17 0.000000 0.137992 0.250000
O O18 0.125293 0.772035 0.500000
O O19 0.208713 0.791288 0.629192
O O20 0.709683 0.955250 0.500000
#
# Coordination Sequence:
#
# PCOD9567022 Si02
#       8
#    16   8  16  16  16  16  16  16
#     4   9  17  31  52  73 101 141 179 219 268 323
#     4  10  18  32  54  80 110 144 186 234 274 316
#     4   9  18  34  56  80 109 148 189 227 272 327
#     4   8  16  31  51  76 110 145 180 220 261 314
#     4   9  18  32  49  75 109 147 186 223 266 316
#     4  11  23  38  56  77  99 129 167 218 280 337
#     4   9  18  34  54  73  95 129 172 213 259 319
#     4  10  20  35  54  78 107 140 176 221 272 323
#
# _framework density 18.326262
#
# number of rings (size 3 to 8) (size 9 to 14) (size 15 to 20)
#    0.000    2.667    1.333    1.200    0.000    3.600 
#    0.000    6.000    0.000    5.800    0.000    3.733 
#    0.000    0.000    0.000    0.000    0.000    0.000 
#
# Total GULP energy -668850.128267 kJ/mol
# GULP energy per Si atom -5573.751069 kJ/mol
# Density = 1.828455 g / cm^3
# Si number density = 18.326262 Si / 1000 Ang^3
#
#
#
# Elastic Constant Matrix: (Units=GPa)
#
#
# Indices 1 2 3 4 5 6 
#
# 1 103.7524 90.7398 35.2956 0.0000 0.0000 0.0000
# 2 90.7398 103.7524 35.2956 0.0000 0.0000 0.0000
# 3 35.2956 35.2956 82.7630 0.0000 0.0000 0.0000
# 4 0.0000 0.0000 0.0000 23.7679 0.0000 0.0000
# 5 0.0000 0.0000 0.0000 0.0000 23.7679 0.0000
# 6 0.0000 0.0000 0.0000 0.0000 0.0000 35.2901
#
#
#
# Elastic Compliance Matrix: (Units=1/GPa)
#
#
# Indices 1 2 3 4 5 6 
#
# 1 0.041466 -0.035383 -0.002594 0.000000 0.000000 0.000000
# 2 -0.035383 0.041466 -0.002594 0.000000 0.000000 0.000000
# 3 -0.002594 -0.002594 0.014295 0.000000 0.000000 0.000000
# 4 0.000000 0.000000 0.000000 0.042073 0.000000 0.000000
# 5 0.000000 0.000000 0.000000 0.000000 0.042073 0.000000
# 6 0.000000 0.000000 0.000000 0.000000 0.000000 0.028337
#
#
# Mechanical properties :
#
#
# Convention : Reuss Voigt Hill
#
# Bulk Modulus (GPa) = 62.17083 68.10333 65.13708
# Shear Modulus (GPa) = 16.87962 25.16096 21.02029
#
# Velocity S-wave (km/s) = 3.03819 3.70935 3.39042
# Velocity P-wave (km/s) = 6.80482 7.45573 7.13770
#
# Compressibility (1/GPa) = 0.01608471
#
# Stress axis : x y z
#
# Youngs Moduli (GPa) = 24.11616 24.11616 69.95238
#
# Poissons Ratio (x) = 0.85330 0.18148
# Poissons Ratio (y) = 0.85330 0.18148
# Poissons Ratio (z) = 0.06256 0.06256
#
# Static dielectric constant tensor:
#      x y z
#    x 1.630570 0.000000 0.000000 
#    y 0.000000 1.630570 0.000000 
#    z 0.000000 0.000000 1.698980 
# 
# From -- ./inp_files/5130.got.cif
#   From: 2010.05.17/outbox.cif.g08.bks.cpg/sg132_3_cif.got.tgz:5130.got - 2010.05.20 12:30:18.
