data_PCOD9567803
_publ_section_title
;
Structure prediction by ZEFSAII (Michael W. Deem and Ramdas Pophale) SiO2 
 PCOD9567803
Probable space group: P 42/N B C
;
_chemical_formula_sum "Si O2"
_cell_formula_units_Z 96
_cell_length_a 14.436092
_cell_length_b 14.436092
_cell_length_c 23.075006
_cell_angle_alpha 90.000000
_cell_angle_beta 90.000000
_cell_angle_gamma 90.000000
_cell_volume 4808.848608
_symmetry_space_group_name_H-M "P 42/N B C"
_symmetry_group_IT_number 133
_space_group.IT_coordinate_system_code '2'
_symmetry_cell_setting 'tetragonal'
loop_
_space_group_symop_operation_xyz
x,y,z
1/2-y,x,1/2+z
1/2-x,1/2-y,z
y,1/2-x,1/2+z
x,1/2-y,-z
1/2-x,y,-z
y,x,1/2-z
1/2-y,1/2-x,1/2-z
-x,-y,-z
1/2+y,-x,1/2-z
1/2+x,1/2+y,-z
-y,1/2+x,1/2-z
-x,1/2+y,z
1/2+x,-y,z
-y,-x,1/2+z
1/2+y,1/2+x,1/2+z
loop_
_atom_site_type_symbol
_atom_site_label
_atom_site_fract_x
_atom_site_fract_y
_atom_site_fract_z
Si Si1 0.195626 0.894199 0.759664
Si Si2 0.854460 0.077668 0.014912
Si Si3 0.214263 0.008947 0.441629
Si Si4 0.967731 0.896241 0.602199
Si Si5 0.520674 0.684674 0.366787
Si Si6 0.987540 0.870008 0.154158
O O1 0.302587 0.863805 0.754067
O O2 0.172031 0.972646 0.712932
O O3 0.174913 0.934541 0.822938
O O4 0.850034 0.009093 0.069692
O O5 0.750000 0.107674 0.000000
O O6 0.917746 0.162956 0.033794
O O7 0.891530 0.021369 0.959595
O O8 0.250000 0.059376 0.500000
O O9 0.133419 0.063266 0.408689
O O10 0.201552 0.991517 0.602083
O O11 0.959588 0.793253 0.627429
O O12 0.033256 0.959476 0.641920
O O13 0.604327 0.620591 0.345413
#
# Coordination Sequence:
#
# PCOD9567803 Si02
#       6
#    16  16  16  16  16  16
#     4  11  24  43  69 101 130 170 228 288 339 395
#     4  10  21  39  65  97 130 176 214 272 340 395
#     4  12  23  39  67  99 134 175 221 273 335 410
#     4  11  23  44  65  96 137 174 220 280 332 407
#     4  11  23  44  67  94 133 177 223 269 337 409
#     4  12  24  43  68  95 134 180 220 272 345 399
#
# _framework density 19.963197000000001
#
# number of rings (size 3 to 8) (size 9 to 14) (size 15 to 20)
#    0.000    0.833    5.000    3.000    0.000    1.000 
#    0.000    1.667    0.000    2.000    0.000    0.000 
#    0.000    0.000    0.000    0.000    0.000    0.000 
#
# Total GULP energy -536796.106328 kJ/mol
# GULP energy per Si atom -5591.626108 kJ/mol
# Density = 1.991776 g / cm^3
# Si number density = 19.963197 Si / 1000 Ang^3
#
#
#
# Elastic Constant Matrix: (Units=GPa)
#
#
# Indices 1 2 3 4 5 6 
#
# 1 85.2386 33.9822 7.4166 0.0000 0.0000 0.0000
# 2 33.9822 85.2386 7.4166 0.0000 0.0000 0.0000
# 3 7.4166 7.4166 58.3131 0.0000 0.0000 0.0000
# 4 0.0000 0.0000 0.0000 26.6418 0.0000 0.0000
# 5 0.0000 0.0000 0.0000 0.0000 26.6418 0.0000
# 6 0.0000 0.0000 0.0000 0.0000 0.0000 15.0728
#
#
#
# Elastic Compliance Matrix: (Units=1/GPa)
#
#
# Indices 1 2 3 4 5 6 
#
# 1 0.014016 -0.005494 -0.001084 0.000000 0.000000 0.000000
# 2 -0.005494 0.014016 -0.001084 0.000000 0.000000 0.000000
# 3 -0.001084 -0.001084 0.017425 0.000000 0.000000 0.000000
# 4 0.000000 0.000000 0.000000 0.037535 0.000000 0.000000
# 5 0.000000 0.000000 0.000000 0.000000 0.037535 0.000000
# 6 0.000000 0.000000 0.000000 0.000000 0.000000 0.066345
#
#
# Mechanical properties :
#
#
# Convention : Reuss Voigt Hill
#
# Bulk Modulus (GPa) = 33.18510 36.26902 34.72706
# Shear Modulus (GPa) = 23.55833 25.66961 24.61397
#
# Velocity S-wave (km/s) = 3.43897 3.58976 3.51517
# Velocity P-wave (km/s) = 5.69455 5.94888 5.82311
#
# Compressibility (1/GPa) = 0.03013400
#
# Stress axis : x y z
#
# Youngs Moduli (GPa) = 71.34597 71.34597 57.39037
#
# Poissons Ratio (x) = 0.39194 0.06221
# Poissons Ratio (y) = 0.39194 0.06221
# Poissons Ratio (z) = 0.07734 0.07734
#
# Static dielectric constant tensor:
#      x y z
#    x 1.701340 0.000000 0.000000 
#    y 0.000000 1.701340 0.000000 
#    z 0.000000 0.000000 1.693900 
# 
# From -- ./inp_files/6498.got.cif
#   From: 2010.05.17/outbox.cif.g08.bks.cpg/sg133_4_cif.got.tgz:6498.got - 2010.05.20 12:37:36.
