data_PCOD9567795
_publ_section_title
;
Structure prediction by ZEFSAII (Michael W. Deem and Ramdas Pophale) SiO2 
 PCOD9567795
Probable space group: P 42/N B C
;
_chemical_formula_sum "Si O2"
_cell_formula_units_Z 108
_cell_length_a 14.547884
_cell_length_b 14.547884
_cell_length_c 24.793284
_cell_angle_alpha 90.000000
_cell_angle_beta 90.000000
_cell_angle_gamma 90.000000
_cell_volume 5247.273656
_symmetry_space_group_name_H-M "P 42/N B C"
_symmetry_group_IT_number 133
_space_group.IT_coordinate_system_code '2'
_symmetry_cell_setting 'tetragonal'
loop_
_space_group_symop_operation_xyz
x,y,z
1/2-y,x,1/2+z
1/2-x,1/2-y,z
y,1/2-x,1/2+z
x,1/2-y,-z
1/2-x,y,-z
y,x,1/2-z
1/2-y,1/2-x,1/2-z
-x,-y,-z
1/2+y,-x,1/2-z
1/2+x,1/2+y,-z
-y,1/2+x,1/2-z
-x,1/2+y,z
1/2+x,-y,z
-y,-x,1/2+z
1/2+y,1/2+x,1/2+z
loop_
_atom_site_type_symbol
_atom_site_label
_atom_site_fract_x
_atom_site_fract_y
_atom_site_fract_z
Si Si1 0.862294 0.489378 0.645199
Si Si2 0.834835 0.986815 0.889529
Si Si3 0.378987 0.821384 0.750411
Si Si4 0.924517 0.441196 0.465626
Si Si5 0.198492 0.414574 0.579092
Si Si6 0.250000 0.549506 0.000000
Si Si7 0.011541 0.867104 0.348421
Si Si8 0.750000 0.750000 0.000000
O O1 0.819043 0.443414 0.697806
O O2 0.785829 0.538075 0.607571
O O3 0.929928 0.409335 0.619202
O O4 0.923245 0.573969 0.665762
O O5 0.887341 0.889665 0.883326
O O6 0.788285 0.990936 0.949541
O O7 0.742194 0.994172 0.854329
O O8 0.361153 0.718139 0.731314
O O9 0.416287 0.877871 0.699652
O O10 0.840753 0.508457 0.460367
O O11 0.895648 0.341980 0.487570
O O12 0.960014 0.410958 0.406152
O O13 0.000000 0.500000 0.500000
O O14 0.213699 0.324166 0.543729
#
# Coordination Sequence:
#
# PCOD9567795 Si02
#       8
#    16  16  16  16  16   8  16   4
#     4  12  25  45  73 103 138 186 245 290 363 435
#     4  11  23  44  69  99 140 188 232 296 355 421
#     4  11  24  45  72 105 141 185 240 302 365 430
#     4  11  22  40  70  98 144 187 235 286 357 433
#     4  12  26  44  68 104 139 190 235 293 355 441
#     4  10  21  38  69 100 136 188 233 286 355 428
#     4  11  23  44  70 104 136 187 234 292 363 431
#     4  12  30  40  72 108 150 190 238 296 376 442
#
# _framework density 20.582117
#
# number of rings (size 3 to 8) (size 9 to 14) (size 15 to 20)
#    0.000    0.741    4.444    2.667    6.222    0.000 
#    0.000    1.481    0.000    1.778    0.000    0.000 
#    0.000    0.000    0.000    0.000    0.000    0.000 
#
# Total GULP energy -601475.821950 kJ/mol
# GULP energy per Si atom -5569.220574 kJ/mol
# Density = 2.053527 g / cm^3
# Si number density = 20.582117 Si / 1000 Ang^3
#
#
#
# Elastic Constant Matrix: (Units=GPa)
#
#
# Indices 1 2 3 4 5 6 
#
# 1 137.4593 71.9830 26.7826 0.0000 0.0000 0.0000
# 2 71.9830 137.4593 26.7826 0.0000 0.0000 0.0000
# 3 26.7826 26.7826 52.0559 0.0000 0.0000 0.0000
# 4 0.0000 0.0000 0.0000 25.1710 0.0000 0.0000
# 5 0.0000 0.0000 0.0000 0.0000 25.1710 0.0000
# 6 0.0000 0.0000 0.0000 0.0000 0.0000 35.2853
#
#
#
# Elastic Compliance Matrix: (Units=1/GPa)
#
#
# Indices 1 2 3 4 5 6 
#
# 1 0.010385 -0.004887 -0.002829 0.000000 0.000000 0.000000
# 2 -0.004887 0.010385 -0.002829 0.000000 0.000000 0.000000
# 3 -0.002829 -0.002829 0.022121 0.000000 0.000000 0.000000
# 4 0.000000 0.000000 0.000000 0.039728 0.000000 0.000000
# 5 0.000000 0.000000 0.000000 0.000000 0.039728 0.000000
# 6 0.000000 0.000000 0.000000 0.000000 0.000000 0.028340
#
#
# Mechanical properties :
#
#
# Convention : Reuss Voigt Hill
#
# Bulk Modulus (GPa) = 45.86725 64.23009 55.04867
# Shear Modulus (GPa) = 27.92587 30.55388 29.23987
#
# Velocity S-wave (km/s) = 3.68748 3.85708 3.77323
# Velocity P-wave (km/s) = 6.36108 7.14917 6.76661
#
# Compressibility (1/GPa) = 0.02180205
#
# Stress axis : x y z
#
# Youngs Moduli (GPa) = 96.28936 96.28936 45.20617
#
# Poissons Ratio (x) = 0.47060 0.12788
# Poissons Ratio (y) = 0.47060 0.12788
# Poissons Ratio (z) = 0.27238 0.27238
#
# Static dielectric constant tensor:
#      x y z
#    x 1.903580 0.000000 0.000000 
#    y 0.000000 1.903580 0.000000 
#    z 0.000000 0.000000 2.068530 
# 
# From -- ./inp_files/7301.got.cif
#   From: 2010.05.17/outbox.cif.g08.bks.cpg/sg133_4_cif.got.tgz:7301.got - 2010.05.20 12:37:36.
