data_PCOD9567917
_publ_section_title
;
Structure prediction by ZEFSAII (Michael W. Deem and Ramdas Pophale) SiO2 
 PCOD9567917
Probable space group: P 42/N B C
;
_chemical_formula_sum "Si O2"
_cell_formula_units_Z 52
_cell_length_a 16.307082
_cell_length_b 16.307082
_cell_length_c 8.874553
_cell_angle_alpha 90.000000
_cell_angle_beta 90.000000
_cell_angle_gamma 90.000000
_cell_volume 2359.929328
_symmetry_space_group_name_H-M "P 42/N B C"
_symmetry_group_IT_number 133
_space_group.IT_coordinate_system_code '2'
_symmetry_cell_setting 'tetragonal'
loop_
_space_group_symop_operation_xyz
x,y,z
1/2-y,x,1/2+z
1/2-x,1/2-y,z
y,1/2-x,1/2+z
x,1/2-y,-z
1/2-x,y,-z
y,x,1/2-z
1/2-y,1/2-x,1/2-z
-x,-y,-z
1/2+y,-x,1/2-z
1/2+x,1/2+y,-z
-y,1/2+x,1/2-z
-x,1/2+y,z
1/2+x,-y,z
-y,-x,1/2+z
1/2+y,1/2+x,1/2+z
loop_
_atom_site_type_symbol
_atom_site_label
_atom_site_fract_x
_atom_site_fract_y
_atom_site_fract_z
Si Si1 0.750000 0.750000 0.750000
Si Si2 0.671367 0.451083 0.900940
Si Si3 0.761481 0.935431 0.330745
Si Si4 0.911971 0.466635 0.792177
O O1 0.662422 0.752241 0.832990
O O2 0.702782 0.527051 0.799195
O O3 0.622777 0.396002 0.780172
O O4 0.750000 0.421716 0.000000
O O5 0.605514 0.469037 0.031163
O O6 0.750000 0.967123 0.500000
O O7 0.849418 0.969663 0.282471
O O8 0.002438 0.497563 0.750000
#
# Coordination Sequence:
#
# PCOD9567917 Si02
#       4
#     4  16  16  16
#     4  12  26  40  64  98 154 188 242 280 362 432
#     4  10  24  42  67  98 133 174 237 291 357 427
#     4  11  25  41  66  99 142 188 232 293 357 431
#     4  11  22  41  65  95 132 181 231 286 350 425
#
# _framework density 22.034555999999998
#
# number of rings (size 3 to 8) (size 9 to 14) (size 15 to 20)
#    0.000    1.231    1.538    3.231    6.462    2.462 
#    0.000    0.000    0.000   52.615    0.000    0.000 
#    0.000    0.000    0.000    0.000    0.000    0.000 
#
# Total GULP energy -289880.706053 kJ/mol
# GULP energy per Si atom -5574.628963 kJ/mol
# Density = 2.198440 g / cm^3
# Si number density = 22.034556 Si / 1000 Ang^3
#
#
#
# Elastic Constant Matrix: (Units=GPa)
#
#
# Indices 1 2 3 4 5 6 
#
# 1 77.4804 47.7960 40.4909 0.0000 0.0000 0.0000
# 2 47.7960 77.4812 40.4920 0.0000 0.0000 0.0000
# 3 40.4909 40.4920 181.0355 0.0000 0.0000 0.0000
# 4 0.0000 0.0000 0.0000 -81.7812 0.0000 0.0000
# 5 0.0000 0.0000 0.0000 0.0000 -81.7709 0.0000
# 6 0.0000 0.0000 0.0000 0.0000 0.0000 30.3124
#
#
#
# Elastic Compliance Matrix: (Units=1/GPa)
#
#
# Indices 1 2 3 4 5 6 
#
# 1 0.021509 -0.012178 -0.002087 0.000000 0.000000 0.000000
# 2 -0.012178 0.021509 -0.002087 0.000000 0.000000 0.000000
# 3 -0.002087 -0.002087 0.006457 0.000000 0.000000 0.000000
# 4 0.000000 0.000000 0.000000 -0.012228 0.000000 0.000000
# 5 0.000000 0.000000 0.000000 0.000000 -0.012229 0.000000
# 6 0.000000 0.000000 0.000000 0.000000 0.000000 0.032990
#
#
# Mechanical properties :
#
#
# Convention : Reuss Voigt Hill
#
# Bulk Modulus (GPa) = 59.62353 65.95052 62.78702
# Shear Modulus (GPa) = 51.91897 -12.83339 19.54279
#
# Velocity S-wave (km/s) = 4.85939 -2.41596 2.98134
# Velocity P-wave (km/s) = 7.65524 4.71307 6.35672
#
# Compressibility (1/GPa) = 0.01677190
#
# Stress axis : x y z
#
# Youngs Moduli (GPa) = 46.49120 46.49143 154.86060
#
# Poissons Ratio (x) = 0.56617 0.32320
# Poissons Ratio (y) = 0.56616 0.32323
# Poissons Ratio (z) = 0.09703 0.09704
#
# Static dielectric constant tensor:
#      x y z
#    x 1.850350 0.000000 0.000000 
#    y 0.000000 1.850350 0.000000 
#    z 0.000000 0.000000 1.853020 
# 
# From -- ./inp_files/1181.got.cif
#   From: 2010.05.17/outbox.cif.g08.bks.cpg/sg133_1_cif.got.tgz:1181.got - 2010.05.20 12:37:36.
