data_PCOD9567843
_publ_section_title
;
Structure prediction by ZEFSAII (Michael W. Deem and Ramdas Pophale) SiO2 
 PCOD9567843
Probable space group: P 42/N B C
;
_chemical_formula_sum "Si O2"
_cell_formula_units_Z 56
_cell_length_a 18.096425
_cell_length_b 18.096425
_cell_length_c 8.564181
_cell_angle_alpha 90.000000
_cell_angle_beta 90.000000
_cell_angle_gamma 90.000000
_cell_volume 2804.603113
_symmetry_space_group_name_H-M "P 42/N B C"
_symmetry_group_IT_number 133
_space_group.IT_coordinate_system_code '2'
_symmetry_cell_setting 'tetragonal'
loop_
_space_group_symop_operation_xyz
x,y,z
1/2-y,x,1/2+z
1/2-x,1/2-y,z
y,1/2-x,1/2+z
x,1/2-y,-z
1/2-x,y,-z
y,x,1/2-z
1/2-y,1/2-x,1/2-z
-x,-y,-z
1/2+y,-x,1/2-z
1/2+x,1/2+y,-z
-y,1/2+x,1/2-z
-x,1/2+y,z
1/2+x,-y,z
-y,-x,1/2+z
1/2+y,1/2+x,1/2+z
loop_
_atom_site_type_symbol
_atom_site_label
_atom_site_fract_x
_atom_site_fract_y
_atom_site_fract_z
Si Si1 0.377206 0.750000 0.000000
Si Si2 0.024291 0.392712 0.474993
Si Si3 0.877580 0.750000 0.500000
Si Si4 0.750000 0.250000 0.250000
Si Si5 0.750000 0.750000 0.750000
Si Si6 0.037196 0.607819 0.873909
O O1 0.320989 0.767674 0.142473
O O2 0.427403 0.680835 0.051855
O O3 0.071595 0.321285 0.508473
O O4 0.079086 0.462960 0.460453
O O5 0.961040 0.407624 0.601749
O O6 0.984229 0.383553 0.306984
O O7 0.823145 0.748138 0.646573
#
# Coordination Sequence:
#
# PCOD9567843 Si02
#       6
#     8  16   8   4   4  16
#     4  11  22  40  62  85 126 164 200 257 310 358
#     4  10  23  40  62  92 121 156 206 251 301 367
#     4  11  24  44  66  91 130 166 202 259 312 360
#     4  10  24  38  56  94 120 158 216 246 296 386
#     4  10  24  42  64  98 124 162 216 246 300 390
#     4  10  22  40  62  91 120 157 205 249 301 364
#
# _framework density 19.967172999999999
#
# number of rings (size 3 to 8) (size 9 to 14) (size 15 to 20)
#    0.000    1.714    0.000    3.429    0.000   16.000 
#    0.000    0.000    0.000    0.000    0.000    0.000 
#    0.000    0.000    0.000    0.000    0.000    0.000 
#
# Total GULP energy -313170.302402 kJ/mol
# GULP energy per Si atom -5592.326829 kJ/mol
# Density = 1.992173 g / cm^3
# Si number density = 19.967173 Si / 1000 Ang^3
#
#
#
# Elastic Constant Matrix: (Units=GPa)
#
#
# Indices 1 2 3 4 5 6 
#
# 1 144.3703 110.3478 59.4299 0.0000 0.0000 0.0000
# 2 110.3478 144.3703 59.4299 0.0000 0.0000 0.0000
# 3 59.4299 59.4299 94.6048 0.0000 0.0000 0.0000
# 4 0.0000 0.0000 0.0000 29.2570 0.0000 0.0000
# 5 0.0000 0.0000 0.0000 0.0000 29.2570 0.0000
# 6 0.0000 0.0000 0.0000 0.0000 0.0000 48.4575
#
#
#
# Elastic Compliance Matrix: (Units=1/GPa)
#
#
# Indices 1 2 3 4 5 6 
#
# 1 0.017473 -0.011919 -0.003489 0.000000 0.000000 0.000000
# 2 -0.011919 0.017473 -0.003489 0.000000 0.000000 0.000000
# 3 -0.003489 -0.003489 0.014954 0.000000 0.000000 0.000000
# 4 0.000000 0.000000 0.000000 0.034180 0.000000 0.000000
# 5 0.000000 0.000000 0.000000 0.000000 0.034180 0.000000
# 6 0.000000 0.000000 0.000000 0.000000 0.000000 0.020637
#
#
# Mechanical properties :
#
#
# Convention : Reuss Voigt Hill
#
# Bulk Modulus (GPa) = 82.60456 93.52897 88.06677
# Shear Modulus (GPa) = 27.66622 31.67015 29.66818
#
# Velocity S-wave (km/s) = 3.72638 3.98692 3.85885
# Velocity P-wave (km/s) = 7.74433 8.25452 8.00349
#
# Compressibility (1/GPa) = 0.01210587
#
# Stress axis : x y z
#
# Youngs Moduli (GPa) = 57.23076 57.23076 66.87280
#
# Poissons Ratio (x) = 0.68214 0.23332
# Poissons Ratio (y) = 0.68214 0.23332
# Poissons Ratio (z) = 0.19968 0.19968
#
# Static dielectric constant tensor:
#      x y z
#    x 1.672540 0.000000 0.000000 
#    y 0.000000 1.672540 0.000000 
#    z 0.000000 0.000000 1.710810 
# 
# From -- ./inp_files/1414.got.cif
#   From: 2010.05.17/outbox.cif.g08.bks.cpg/sg133_1_cif.got.tgz:1414.got - 2010.05.20 12:37:36.
