data_PCOD9567787
_publ_section_title
;
Structure prediction by ZEFSAII (Michael W. Deem and Ramdas Pophale) SiO2 
 PCOD9567787
Probable space group: P 42/N B C
;
_chemical_formula_sum "Si O2"
_cell_formula_units_Z 112
_cell_length_a 14.681961
_cell_length_b 14.681961
_cell_length_c 28.951384
_cell_angle_alpha 90.000000
_cell_angle_beta 90.000000
_cell_angle_gamma 90.000000
_cell_volume 6240.759721
_symmetry_space_group_name_H-M "P 42/N B C"
_symmetry_group_IT_number 133
_space_group.IT_coordinate_system_code '2'
_symmetry_cell_setting 'tetragonal'
loop_
_space_group_symop_operation_xyz
x,y,z
1/2-y,x,1/2+z
1/2-x,1/2-y,z
y,1/2-x,1/2+z
x,1/2-y,-z
1/2-x,y,-z
y,x,1/2-z
1/2-y,1/2-x,1/2-z
-x,-y,-z
1/2+y,-x,1/2-z
1/2+x,1/2+y,-z
-y,1/2+x,1/2-z
-x,1/2+y,z
1/2+x,-y,z
-y,-x,1/2+z
1/2+y,1/2+x,1/2+z
loop_
_atom_site_type_symbol
_atom_site_label
_atom_site_fract_x
_atom_site_fract_y
_atom_site_fract_z
Si Si1 0.301365 0.602903 0.300940
Si Si2 0.892891 0.533170 0.923417
Si Si3 0.288677 0.490639 0.544731
Si Si4 0.581954 0.150148 0.514756
Si Si5 0.511683 0.870624 0.116582
Si Si6 0.302121 0.609760 0.194111
Si Si7 0.524930 0.688380 0.609180
O O1 0.336011 0.525122 0.334601
O O2 0.311752 0.577937 0.247109
O O3 0.197039 0.631823 0.310631
O O4 0.355744 0.697469 0.309958
O O5 0.794873 0.543485 0.899348
O O6 0.936935 0.631558 0.929641
O O7 0.957810 0.463306 0.896106
O O8 0.880728 0.486628 0.974072
O O9 0.250000 0.437921 0.500000
O O10 0.338247 0.579047 0.523507
O O11 0.206526 0.512201 0.579070
O O12 0.616023 0.250000 0.500000
O O13 0.528505 0.158248 0.562934
O O14 0.618964 0.891536 0.114580
O O15 0.321462 0.537709 0.154405
#
# Coordination Sequence:
#
# PCOD9567787 Si02
#       7
#    16  16  16  16  16  16  16
#     4   9  19  35  61  93 121 149 198 257 318 367
#     4  11  23  42  58  85 125 157 205 251 297 360
#     4  12  23  38  61  85 124 160 198 253 296 360
#     4  10  21  38  58  89 117 154 201 249 300 354
#     4  12  23  38  61  90 117 164 205 244 305 364
#     4   9  18  37  61  90 122 153 195 259 315 362
#     4  11  22  38  62  85 120 163 200 248 295 364
#
# _framework density 17.946534
#
# number of rings (size 3 to 8) (size 9 to 14) (size 15 to 20)
#    0.000    1.429    4.286    3.000    0.000    1.429 
#    0.000    0.714    0.000    0.857    0.000    2.000 
#    0.000    0.000    0.000    0.000    0.000    0.000 
#
# Total GULP energy -625332.388838 kJ/mol
# GULP energy per Si atom -5583.324900 kJ/mol
# Density = 1.790569 g / cm^3
# Si number density = 17.946534 Si / 1000 Ang^3
#
#
#
# Elastic Constant Matrix: (Units=GPa)
#
#
# Indices 1 2 3 4 5 6 
#
# 1 75.1111 33.2200 30.8259 0.0000 0.0000 0.0000
# 2 33.2200 75.1111 30.8259 0.0000 0.0000 0.0000
# 3 30.8259 30.8259 94.7618 0.0000 0.0000 0.0000
# 4 0.0000 0.0000 0.0000 8.0037 0.0000 0.0000
# 5 0.0000 0.0000 0.0000 0.0000 8.0037 0.0000
# 6 0.0000 0.0000 0.0000 0.0000 0.0000 10.9785
#
#
#
# Elastic Compliance Matrix: (Units=1/GPa)
#
#
# Indices 1 2 3 4 5 6 
#
# 1 0.017600 -0.006272 -0.003685 0.000000 0.000000 0.000000
# 2 -0.006272 0.017600 -0.003685 0.000000 0.000000 0.000000
# 3 -0.003685 -0.003685 0.012950 0.000000 0.000000 0.000000
# 4 0.000000 0.000000 0.000000 0.124942 0.000000 0.000000
# 5 0.000000 0.000000 0.000000 0.000000 0.124942 0.000000
# 6 0.000000 0.000000 0.000000 0.000000 0.000000 0.091087
#
#
# Mechanical properties :
#
#
# Convention : Reuss Voigt Hill
#
# Bulk Modulus (GPa) = 47.92393 48.30305 48.11349
# Shear Modulus (GPa) = 11.81031 15.40468 13.60749
#
# Velocity S-wave (km/s) = 2.56810 2.93297 2.75657
# Velocity P-wave (km/s) = 5.96282 6.20025 6.08269
#
# Compressibility (1/GPa) = 0.02086640
#
# Stress axis : x y z
#
# Youngs Moduli (GPa) = 56.81890 56.81890 77.21859
#
# Poissons Ratio (x) = 0.35635 0.28455
# Poissons Ratio (y) = 0.35635 0.28455
# Poissons Ratio (z) = 0.20938 0.20938
#
# Static dielectric constant tensor:
#      x y z
#    x 1.612940 0.000000 0.000000 
#    y 0.000000 1.612940 0.000000 
#    z 0.000000 0.000000 1.605180 
# 
# From -- ./inp_files/7667.got.cif
#   From: 2010.05.17/outbox.cif.g08.bks.cpg/sg133_4_cif.got.tgz:7667.got - 2010.05.20 12:37:36.
