data_PCOD9567277
_publ_section_title
;
Structure prediction by ZEFSAII (Michael W. Deem and Ramdas Pophale) SiO2 
 PCOD9567277
Probable space group: P 42/M C M
;
_chemical_formula_sum "Si O2"
_cell_formula_units_Z 64
_cell_length_a 14.289757
_cell_length_b 14.289757
_cell_length_c 17.280281
_cell_angle_alpha 90.000000
_cell_angle_beta 90.000000
_cell_angle_gamma 90.000000
_cell_volume 3528.584220
_symmetry_space_group_name_H-M "P 42/M C M"
_symmetry_group_IT_number 132
_symmetry_cell_setting 'tetragonal'
loop_
_space_group_symop_operation_xyz
x,y,z
-y,x,1/2+z
-x,-y,z
y,-x,1/2+z
x,-y,1/2-z
-x,y,1/2-z
y,x,-z
-y,-x,-z
-x,-y,-z
y,-x,1/2-z
x,y,-z
-y,x,1/2-z
-x,y,1/2+z
x,-y,1/2+z
-y,-x,z
y,x,z
loop_
_atom_site_type_symbol
_atom_site_label
_atom_site_fract_x
_atom_site_fract_y
_atom_site_fract_z
Si Si1 0.682903 0.468312 0.589094
Si Si2 0.825256 0.674520 0.151564
Si Si3 0.017801 0.389691 0.591598
Si Si4 0.215887 0.634856 0.828318
O O1 0.672904 0.499622 0.500000
O O2 0.589416 0.410585 0.611608
O O3 0.767115 0.392931 0.594365
O O4 0.715167 0.552353 0.643625
O O5 0.775955 0.775955 0.147879
O O6 0.805386 0.633124 0.236964
O O7 0.933841 0.667476 0.131405
O O8 0.016376 0.372493 0.500000
O O9 0.119036 0.369963 0.626419
O O10 0.000000 0.500000 0.604789
O O11 0.269002 0.730999 0.844704
#
# Coordination Sequence:
#
# PCOD9567277 Si02
#       4
#    16  16  16  16
#     4  10  20  34  53  79 113 153 193 230 272 328
#     4  10  21  37  58  83 111 147 191 237 282 332
#     4  11  22  36  59  87 112 148 190 233 286 337
#     4  11  23  37  56  84 116 151 190 235 287 336
#
# _framework density 18.137585000000001
#
# number of rings (size 3 to 8) (size 9 to 14) (size 15 to 20)
#    0.000    1.500    2.500    3.000    0.000    5.000 
#    0.000    1.250    0.000    5.250    0.000    5.250 
#    0.000    0.000    0.000    0.000    0.000    0.000 
#
# Total GULP energy -357541.163842 kJ/mol
# GULP energy per Si atom -5586.580685 kJ/mol
# Density = 1.809630 g / cm^3
# Si number density = 18.137585 Si / 1000 Ang^3
#
#
#
# Elastic Constant Matrix: (Units=GPa)
#
#
# Indices 1 2 3 4 5 6 
#
# 1 95.0902 61.4406 69.6133 0.0000 0.0000 0.0000
# 2 61.4406 95.0902 69.6133 0.0000 0.0000 0.0000
# 3 69.6133 69.6133 89.6261 0.0000 0.0000 0.0000
# 4 0.0000 0.0000 0.0000 12.6009 0.0000 0.0000
# 5 0.0000 0.0000 0.0000 0.0000 12.6009 0.0000
# 6 0.0000 0.0000 0.0000 0.0000 0.0000 19.6845
#
#
#
# Elastic Compliance Matrix: (Units=1/GPa)
#
#
# Indices 1 2 3 4 5 6 
#
# 1 0.025191 -0.004527 -0.016050 0.000000 0.000000 0.000000
# 2 -0.004527 0.025191 -0.016050 0.000000 0.000000 0.000000
# 3 -0.016050 -0.016050 0.036090 0.000000 0.000000 0.000000
# 4 0.000000 0.000000 0.000000 0.079359 0.000000 0.000000
# 5 0.000000 0.000000 0.000000 0.000000 0.079359 0.000000
# 6 0.000000 0.000000 0.000000 0.000000 0.000000 0.050801
#
#
# Mechanical properties :
#
#
# Convention : Reuss Voigt Hill
#
# Bulk Modulus (GPa) = 75.65387 75.68230 75.66809
# Shear Modulus (GPa) = 13.38142 14.25324 13.81733
#
# Velocity S-wave (km/s) = 2.71914 2.80633 2.76308
# Velocity P-wave (km/s) = 7.18749 7.23312 7.21034
#
# Compressibility (1/GPa) = 0.01321809
#
# Stress axis : x y z
#
# Youngs Moduli (GPa) = 39.69641 39.69641 27.70847
#
# Poissons Ratio (x) = 0.17970 0.44473
# Poissons Ratio (y) = 0.17970 0.44473
# Poissons Ratio (z) = 0.63713 0.63713
#
# Static dielectric constant tensor:
#      x y z
#    x 1.611450 0.000000 0.000000 
#    y 0.000000 1.611450 0.000000 
#    z 0.000000 0.000000 1.640930 
# 
# From -- ./inp_files/4403.got.cif
#   From: 2010.05.17/outbox.cif.g08.bks.cpg/sg132_3_cif.got.tgz:4403.got - 2010.05.20 12:30:18.
