data_PCOD9567713
_publ_section_title
;
Structure prediction by ZEFSAII (Michael W. Deem and Ramdas Pophale) SiO2 
 PCOD9567713
Probable space group: P 42/N B C
;
_chemical_formula_sum "Si O2"
_cell_formula_units_Z 96
_cell_length_a 16.873359
_cell_length_b 16.873359
_cell_length_c 16.319107
_cell_angle_alpha 90.000000
_cell_angle_beta 90.000000
_cell_angle_gamma 90.000000
_cell_volume 4646.216935
_symmetry_space_group_name_H-M "P 42/N B C"
_symmetry_group_IT_number 133
_space_group.IT_coordinate_system_code '2'
_symmetry_cell_setting 'tetragonal'
loop_
_space_group_symop_operation_xyz
x,y,z
1/2-y,x,1/2+z
1/2-x,1/2-y,z
y,1/2-x,1/2+z
x,1/2-y,-z
1/2-x,y,-z
y,x,1/2-z
1/2-y,1/2-x,1/2-z
-x,-y,-z
1/2+y,-x,1/2-z
1/2+x,1/2+y,-z
-y,1/2+x,1/2-z
-x,1/2+y,z
1/2+x,-y,z
-y,-x,1/2+z
1/2+y,1/2+x,1/2+z
loop_
_atom_site_type_symbol
_atom_site_label
_atom_site_fract_x
_atom_site_fract_y
_atom_site_fract_z
Si Si1 0.401681 0.555376 0.050478
Si Si2 0.528518 0.838450 0.191255
Si Si3 0.705171 0.012063 0.586355
Si Si4 0.976625 0.439667 0.372249
Si Si5 0.630220 0.850070 0.656957
Si Si6 0.089212 0.318698 0.626426
O O1 0.415754 0.643076 0.084652
O O2 0.482740 0.516686 0.086748
O O3 0.336047 0.490522 0.075269
O O4 0.401463 0.563077 0.952352
O O5 0.475911 0.769182 0.156252
O O6 0.474670 0.916305 0.193232
O O7 0.561976 0.816746 0.278888
O O8 0.602300 0.855798 0.128501
O O9 0.750000 0.007361 0.500000
O O10 0.668883 0.924592 0.609047
O O11 0.039401 0.379389 0.335257
O O12 0.661178 0.838823 0.750000
O O13 0.630818 0.765532 0.610804
#
# Coordination Sequence:
#
# PCOD9567713 Si02
#       6
#    16  16  16  16  16  16
#     4   9  19  36  58  80 112 150 201 248 275 344
#     4  10  20  36  58  83 119 155 195 240 293 353
#     4  11  21  38  61  87 116 157 198 240 295 353
#     4   9  19  34  57  82 109 150 203 244 279 336
#     4  11  23  37  57  88 122 154 194 241 298 362
#     4  10  22  36  54  85 121 155 190 240 299 348
#
# _framework density 20.661971999999999
#
# number of rings (size 3 to 8) (size 9 to 14) (size 15 to 20)
#    0.000    2.000    3.333    0.000    9.333    1.333 
#    0.000    0.833    0.000    1.000    0.000    2.333 
#    0.000    0.000    0.000    0.000    0.000    0.000 
#
# Total GULP energy -535020.701076 kJ/mol
# GULP energy per Si atom -5573.132303 kJ/mol
# Density = 2.061494 g / cm^3
# Si number density = 20.661972 Si / 1000 Ang^3
#
#
#
# Elastic Constant Matrix: (Units=GPa)
#
#
# Indices 1 2 3 4 5 6 
#
# 1 50.4647 14.1974 -1.3881 0.0000 0.0000 0.0000
# 2 14.1974 50.4644 -1.3883 0.0000 0.0000 0.0000
# 3 -1.3881 -1.3883 35.9829 0.0000 0.0000 0.0000
# 4 0.0000 0.0000 0.0000 17.6453 0.0000 0.0000
# 5 0.0000 0.0000 0.0000 0.0000 17.6453 0.0000
# 6 0.0000 0.0000 0.0000 0.0000 0.0000 28.3580
#
#
#
# Elastic Compliance Matrix: (Units=1/GPa)
#
#
# Indices 1 2 3 4 5 6 
#
# 1 0.021532 -0.006041 0.000598 0.000000 0.000000 0.000000
# 2 -0.006041 0.021532 0.000598 0.000000 0.000000 0.000000
# 3 0.000598 0.000598 0.027837 0.000000 0.000000 0.000000
# 4 0.000000 0.000000 0.000000 0.056672 0.000000 0.000000
# 5 0.000000 0.000000 0.000000 0.000000 0.056672 0.000000
# 6 0.000000 0.000000 0.000000 0.000000 0.000000 0.035263
#
#
# Mechanical properties :
#
#
# Convention : Reuss Voigt Hill
#
# Bulk Modulus (GPa) = 16.33747 17.75044 17.04395
# Shear Modulus (GPa) = 20.03173 21.09578 20.56376
#
# Velocity S-wave (km/s) = 3.11705 3.19877 3.15818
# Velocity P-wave (km/s) = 4.56934 4.71724 4.64388
#
# Compressibility (1/GPa) = 0.06120900
#
# Stress axis : x y z
#
# Youngs Moduli (GPa) = 46.44283 46.44254 35.92328
#
# Poissons Ratio (x) = 0.28057 -0.02147
# Poissons Ratio (y) = 0.28057 -0.02147
# Poissons Ratio (z) = -0.02775 -0.02776
#
# Static dielectric constant tensor:
#      x y z
#    x 1.787980 0.000000 0.000000 
#    y 0.000000 1.787980 0.000000 
#    z 0.000000 0.000000 1.767830 
# 
# From -- ./inp_files/5545.got.cif
#   From: 2010.05.17/outbox.cif.g08.bks.cpg/sg133_3_cif.got.tgz:5545.got - 2010.05.20 12:37:36.
