data_PCOD9567994
_publ_section_title
;
Structure prediction by ZEFSAII (Michael W. Deem and Ramdas Pophale) SiO2 
 PCOD9567994
Probable space group: P 42/N B C
;
_chemical_formula_sum "Si O2"
_cell_formula_units_Z 48
_cell_length_a 16.115669
_cell_length_b 16.115669
_cell_length_c 8.756969
_cell_angle_alpha 90.000000
_cell_angle_beta 90.000000
_cell_angle_gamma 90.000000
_cell_volume 2274.314341
_symmetry_space_group_name_H-M "P 42/N B C"
_symmetry_group_IT_number 133
_space_group.IT_coordinate_system_code '2'
_symmetry_cell_setting 'tetragonal'
loop_
_space_group_symop_operation_xyz
x,y,z
1/2-y,x,1/2+z
1/2-x,1/2-y,z
y,1/2-x,1/2+z
x,1/2-y,-z
1/2-x,y,-z
y,x,1/2-z
1/2-y,1/2-x,1/2-z
-x,-y,-z
1/2+y,-x,1/2-z
1/2+x,1/2+y,-z
-y,1/2+x,1/2-z
-x,1/2+y,z
1/2+x,-y,z
-y,-x,1/2+z
1/2+y,1/2+x,1/2+z
loop_
_atom_site_type_symbol
_atom_site_label
_atom_site_fract_x
_atom_site_fract_y
_atom_site_fract_z
Si Si1 0.583640 0.513371 0.094574
Si Si2 0.301520 0.852465 0.157714
Si Si3 0.840472 0.832317 0.931175
O O1 0.558411 0.558411 0.250000
O O2 0.638687 0.431927 0.134338
O O3 0.500000 0.500000 0.000000
O O4 0.628875 0.579853 0.989652
O O5 0.354735 0.771564 0.212101
O O6 0.250000 0.843004 0.000000
O O7 0.833618 0.833618 0.750000
O O8 0.885835 0.750000 0.000000
O O9 0.750000 0.828248 0.000000
#
# Coordination Sequence:
#
# PCOD9567994 Si02
#       3
#    16  16  16
#     4  12  26  42  65 101 141 182 231 298 374 450
#     4  11  24  45  71  99 134 186 249 310 373 446
#     4  11  23  43  68  96 130 176 227 280 348 436
#
# _framework density 21.105262
#
# number of rings (size 3 to 8) (size 9 to 14) (size 15 to 20)
#    0.000    0.667    0.000   10.000    0.000    5.333 
#    0.000    0.000    0.000    0.000    0.000    0.000 
#    0.000    0.000    0.000    0.000    0.000    0.000 
#
# Total GULP energy -267790.668467 kJ/mol
# GULP energy per Si atom -5578.972260 kJ/mol
# Density = 2.105723 g / cm^3
# Si number density = 21.105262 Si / 1000 Ang^3
#
#
#
# Elastic Constant Matrix: (Units=GPa)
#
#
# Indices 1 2 3 4 5 6 
#
# 1 156.8044 103.0403 65.9787 0.0000 0.0000 0.0000
# 2 103.0403 156.8044 65.9787 0.0000 0.0000 0.0000
# 3 65.9787 65.9787 203.5660 0.0000 0.0000 0.0000
# 4 0.0000 0.0000 0.0000 41.3732 0.0000 0.0000
# 5 0.0000 0.0000 0.0000 0.0000 41.3732 0.0000
# 6 0.0000 0.0000 0.0000 0.0000 0.0000 69.2776
#
#
#
# Elastic Compliance Matrix: (Units=1/GPa)
#
#
# Indices 1 2 3 4 5 6 
#
# 1 0.011603 -0.006997 -0.001493 0.000000 0.000000 0.000000
# 2 -0.006997 0.011603 -0.001493 0.000000 0.000000 0.000000
# 3 -0.001493 -0.001493 0.005880 0.000000 0.000000 0.000000
# 4 0.000000 0.000000 0.000000 0.024170 0.000000 0.000000
# 5 0.000000 0.000000 0.000000 0.000000 0.024170 0.000000
# 6 0.000000 0.000000 0.000000 0.000000 0.000000 0.014435
#
#
# Mechanical properties :
#
#
# Convention : Reuss Voigt Hill
#
# Bulk Modulus (GPa) = 109.63367 109.68554 109.65961
# Shear Modulus (GPa) = 43.52832 49.21662 46.37247
#
# Velocity S-wave (km/s) = 4.54634 4.83428 4.69251
# Velocity P-wave (km/s) = 8.92288 9.12381 9.02390
#
# Compressibility (1/GPa) = 0.00912129
#
# Stress axis : x y z
#
# Youngs Moduli (GPa) = 86.18288 86.18288 170.05991
#
# Poissons Ratio (x) = 0.60298 0.25392
# Poissons Ratio (y) = 0.60298 0.25392
# Poissons Ratio (z) = 0.12868 0.12868
#
# Static dielectric constant tensor:
#      x y z
#    x 0.000000 0.000000 0.000000 
#    y 0.000000 0.000000 0.000000 
#    z 0.000000 0.000000 0.000000 
# 
# From -- ./inp_files/1055.got.cif
#   From: 2010.05.17/outbox.cif.g08.bks.cpg/sg133_1_cif.got.tgz:1055.got - 2010.05.20 12:37:36.
