data_PCOD9567929
_publ_section_title
;
Structure prediction by ZEFSAII (Michael W. Deem and Ramdas Pophale) SiO2 
 PCOD9567929
Probable space group: P 42/N B C
;
_chemical_formula_sum "Si O2"
_cell_formula_units_Z 56
_cell_length_a 12.574778
_cell_length_b 12.574778
_cell_length_c 14.886805
_cell_angle_alpha 90.000000
_cell_angle_beta 90.000000
_cell_angle_gamma 90.000000
_cell_volume 2353.976662
_symmetry_space_group_name_H-M "P 42/N B C"
_symmetry_group_IT_number 133
_space_group.IT_coordinate_system_code '2'
_symmetry_cell_setting 'tetragonal'
loop_
_space_group_symop_operation_xyz
x,y,z
1/2-y,x,1/2+z
1/2-x,1/2-y,z
y,1/2-x,1/2+z
x,1/2-y,-z
1/2-x,y,-z
y,x,1/2-z
1/2-y,1/2-x,1/2-z
-x,-y,-z
1/2+y,-x,1/2-z
1/2+x,1/2+y,-z
-y,1/2+x,1/2-z
-x,1/2+y,z
1/2+x,-y,z
-y,-x,1/2+z
1/2+y,1/2+x,1/2+z
loop_
_atom_site_type_symbol
_atom_site_label
_atom_site_fract_x
_atom_site_fract_y
_atom_site_fract_z
Si Si1 0.855127 0.098548 0.643252
Si Si2 0.750000 0.054540 0.000000
Si Si3 0.859510 0.989338 0.298609
Si Si4 0.370849 0.085444 0.498926
O O1 0.876942 0.206777 0.585038
O O2 0.939940 0.084588 0.722207
O O3 0.743787 0.064999 0.687572
O O4 0.867006 0.010369 0.567363
O O5 0.659754 0.968707 0.026314
O O6 0.872305 0.872305 0.250000
O O7 0.890111 0.961290 0.400046
O O8 0.250000 0.131918 0.500000
#
# Coordination Sequence:
#
# PCOD9567929 Si02
#       4
#    16   8  16  16
#     4  11  27  46  79 114 159 208 267 330 404 486
#     4  12  23  46  81 112 148 208 258 338 406 460
#     4  11  25  49  74 113 156 205 267 325 403 480
#     4  10  24  48  75 110 155 208 265 325 402 496
#
# _framework density 23.789531
#
# number of rings (size 3 to 8) (size 9 to 14) (size 15 to 20)
#    0.000    1.143    2.857    1.286    4.000    0.571 
#   10.286    4.286    0.000    0.000    0.000    0.000 
#    0.000    0.000    0.000    0.000    0.000    0.000 
#
# Total GULP energy -311830.025991 kJ/mol
# GULP energy per Si atom -5568.393321 kJ/mol
# Density = 2.373538 g / cm^3
# Si number density = 23.789531 Si / 1000 Ang^3
#
#
#
# Elastic Constant Matrix: (Units=GPa)
#
#
# Indices 1 2 3 4 5 6 
#
# 1 64.2127 103.1894 59.5996 0.0000 0.0000 0.0000
# 2 103.1894 64.2127 59.5996 0.0000 0.0000 0.0000
# 3 59.5996 59.5996 192.1579 0.0000 0.0000 0.0000
# 4 0.0000 0.0000 0.0000 35.2830 0.0000 0.0000
# 5 0.0000 0.0000 0.0000 0.0000 35.2830 0.0000
# 6 0.0000 0.0000 0.0000 0.0000 0.0000 41.4364
#
#
#
# Elastic Compliance Matrix: (Units=1/GPa)
#
#
# Indices 1 2 3 4 5 6 
#
# 1 -0.008995 0.016662 -0.002378 0.000000 0.000000 0.000000
# 2 0.016662 -0.008995 -0.002378 0.000000 0.000000 0.000000
# 3 -0.002378 -0.002378 0.006679 0.000000 0.000000 0.000000
# 4 0.000000 0.000000 0.000000 0.028342 0.000000 0.000000
# 5 0.000000 0.000000 0.000000 0.000000 0.028342 0.000000
# 6 0.000000 0.000000 0.000000 0.000000 0.000000 0.024133
#
#
# Mechanical properties :
#
#
# Convention : Reuss Voigt Hill
#
# Bulk Modulus (GPa) = 79.99317 85.04008 82.51663
# Shear Modulus (GPa) = 100.27438 28.94679 64.61059
#
# Velocity S-wave (km/s) = 6.49940 3.49203 5.21711
# Velocity P-wave (km/s) = 9.48795 7.21689 8.42926
#
# Compressibility (1/GPa) = 0.01250107
#
# Stress axis : x y z
#
# Youngs Moduli (GPa) = -111.17620 -111.17620 149.71974
#
# Poissons Ratio (x) = 1.85237 0.35603
# Poissons Ratio (y) = 1.85237 0.35603
# Poissons Ratio (z) = -0.26437 -0.26437
#
# Static dielectric constant tensor:
#      x y z
#    x 2.102410 0.000000 0.000000 
#    y 0.000000 2.102410 0.000000 
#    z 0.000000 0.000000 1.823740 
# 
# From -- ./inp_files/3979.got.cif
#   From: 2010.05.17/outbox.cif.g08.bks.cpg/sg133_2_cif.got.tgz:3979.got - 2010.05.20 12:37:36.
