data_PCOD9567557
_publ_section_title
;
Structure prediction by ZEFSAII (Michael W. Deem and Ramdas Pophale) SiO2 
 PCOD9567557
Probable space group: P 42/M C M
;
_chemical_formula_sum "Si O2"
_cell_formula_units_Z 112
_cell_length_a 15.000000
_cell_length_b 15.000000
_cell_length_c 24.000000
_cell_angle_alpha 90.000000
_cell_angle_beta 90.000000
_cell_angle_gamma 90.000000
_cell_volume 5400.000000
_symmetry_space_group_name_H-M "P 42/M C M"
_symmetry_group_IT_number 132
_symmetry_cell_setting 'tetragonal'
loop_
_space_group_symop_operation_xyz
x,y,z
-y,x,1/2+z
-x,-y,z
y,-x,1/2+z
x,-y,1/2-z
-x,y,1/2-z
y,x,-z
-y,-x,-z
-x,-y,-z
y,-x,1/2-z
x,y,-z
-y,x,1/2-z
-x,y,1/2+z
x,-y,1/2+z
-y,-x,z
y,x,z
loop_
_atom_site_type_symbol
_atom_site_label
_atom_site_fract_x
_atom_site_fract_y
_atom_site_fract_z
Si Si1 0.589241 0.942617 0.083822
Si Si2 0.583420 0.267653 0.435351
Si Si3 0.083363 0.269877 0.561673
Si Si4 0.751193 0.393413 0.241827
Si Si5 0.330246 0.068986 0.797153
Si Si6 0.244186 0.387799 0.388947
Si Si7 0.144158 0.004351 0.656106
O O1 0.599461 0.839191 0.067318
O O2 0.606998 0.945390 0.149770
O O3 0.500000 0.000000 0.070504
O O4 0.670656 0.995596 0.058510
O O5 0.566309 0.289983 0.500000
O O6 0.665038 0.334963 0.417139
O O7 0.489633 0.269951 0.402568
O O8 0.104680 0.237337 0.500000
O O9 0.160307 0.339252 0.581647
O O10 0.057290 0.193735 0.605922
O O11 0.746073 0.500000 0.250000
O O12 0.659079 0.340922 0.253760
O O13 0.830426 0.347199 0.276705
O O14 0.773221 0.379721 0.176771
O O15 0.227459 0.042190 0.811913
O O16 0.358815 0.000000 0.750000
O O17 0.328512 0.328512 0.404421
O O18 0.074596 0.925405 0.639703
O O19 0.080700 0.080700 0.684771
#
# Coordination Sequence:
#
# PCOD9567557 Si02
#       7
#    16  16  16  16  16  16  16
#     4  11  23  40  65  95 130 168 211 267 328 387
#     4  11  25  44  67  96 130 170 217 269 327 390
#     4  11  23  39  65  97 129 170 217 267 328 398
#     4  11  25  43  67  97 133 175 222 270 328 392
#     4  11  25  40  67  95 132 168 222 273 331 395
#     4  11  24  42  64  94 131 170 215 269 321 385
#     4  10  23  43  64  92 132 175 222 277 336 400
#
# _framework density 20.740741
#
# number of rings (size 3 to 8) (size 9 to 14) (size 15 to 20)
#    0.000    1.143    1.429    4.286    2.000   10.143 
#    0.000    3.571    0.000    0.000    0.000    0.000 
#    0.000    0.000    0.000    0.000    0.000    0.000 
#
# Total GULP energy -624863.011306 kJ/mol
# GULP energy per Si atom -5579.134030 kJ/mol
# Density = 2.069353 g / cm^3
# Si number density = 20.740741 Si / 1000 Ang^3
#
#
#
# Elastic Constant Matrix: (Units=GPa)
#
#
# Indices 1 2 3 4 5 6 
#
# 1 134.0822 69.8230 26.7182 0.0000 0.0000 0.0000
# 2 69.8230 134.0822 26.7182 0.0000 0.0000 0.0000
# 3 26.7182 26.7182 84.7069 0.0000 0.0000 0.0000
# 4 0.0000 0.0000 0.0000 36.6758 0.0000 0.0000
# 5 0.0000 0.0000 0.0000 0.0000 36.6758 0.0000
# 6 0.0000 0.0000 0.0000 0.0000 0.0000 43.5785
#
#
#
# Elastic Compliance Matrix: (Units=1/GPa)
#
#
# Indices 1 2 3 4 5 6 
#
# 1 0.010454 -0.005108 -0.001686 0.000000 0.000000 0.000000
# 2 -0.005108 0.010454 -0.001686 0.000000 0.000000 0.000000
# 3 -0.001686 -0.001686 0.012869 0.000000 0.000000 0.000000
# 4 0.000000 0.000000 0.000000 0.027266 0.000000 0.000000
# 5 0.000000 0.000000 0.000000 0.000000 0.027266 0.000000
# 6 0.000000 0.000000 0.000000 0.000000 0.000000 0.022947
#
#
# Mechanical properties :
#
#
# Convention : Reuss Voigt Hill
#
# Bulk Modulus (GPa) = 59.46585 66.59890 63.03237
# Shear Modulus (GPa) = 37.36289 38.69349 38.02819
#
# Velocity S-wave (km/s) = 4.24892 4.32392 4.28659
# Velocity P-wave (km/s) = 7.26667 7.55700 7.41326
#
# Compressibility (1/GPa) = 0.01681637
#
# Stress axis : x y z
#
# Youngs Moduli (GPa) = 95.65660 95.65660 77.70497
#
# Poissons Ratio (x) = 0.48861 0.13103
# Poissons Ratio (y) = 0.48861 0.13103
# Poissons Ratio (z) = 0.16130 0.16130
#
# Static dielectric constant tensor:
#      x y z
#    x 1.737920 0.000000 0.000000 
#    y 0.000000 1.737920 0.000000 
#    z 0.000000 0.000000 1.800650 
# 
# From -- ./inp_files/9160.got.cif
#   From: 2010.05.17/outbox.ucp.g08.bks.cvg/sg132_5_cif.got.tgz:9160.got - 2010.06.11 11:39:14.
