data_PCOD9567886
_publ_section_title
;
Structure prediction by ZEFSAII (Michael W. Deem and Ramdas Pophale) SiO2 
 PCOD9567886
Probable space group: P 42/N B C
;
_chemical_formula_sum "Si O2"
_cell_formula_units_Z 72
_cell_length_a 20.047548
_cell_length_b 20.047548
_cell_length_c 7.742497
_cell_angle_alpha 90.000000
_cell_angle_beta 90.000000
_cell_angle_gamma 90.000000
_cell_volume 3111.741914
_symmetry_space_group_name_H-M "P 42/N B C"
_symmetry_group_IT_number 133
_space_group.IT_coordinate_system_code '2'
_symmetry_cell_setting 'tetragonal'
loop_
_space_group_symop_operation_xyz
x,y,z
1/2-y,x,1/2+z
1/2-x,1/2-y,z
y,1/2-x,1/2+z
x,1/2-y,-z
1/2-x,y,-z
y,x,1/2-z
1/2-y,1/2-x,1/2-z
-x,-y,-z
1/2+y,-x,1/2-z
1/2+x,1/2+y,-z
-y,1/2+x,1/2-z
-x,1/2+y,z
1/2+x,-y,z
-y,-x,1/2+z
1/2+y,1/2+x,1/2+z
loop_
_atom_site_type_symbol
_atom_site_label
_atom_site_fract_x
_atom_site_fract_y
_atom_site_fract_z
Si Si1 0.742989 0.567262 0.199523
Si Si2 0.393827 0.038119 0.394043
Si Si3 0.610864 0.610864 0.750000
Si Si4 0.852038 0.387631 0.557069
Si Si5 0.911369 0.270551 0.715671
O O1 0.674987 0.571418 0.312409
O O2 0.810284 0.598372 0.274454
O O3 0.753219 0.488067 0.196728
O O4 0.750000 0.590559 0.000000
O O5 0.447969 0.052032 0.250000
O O6 0.414442 0.074723 0.573604
O O7 0.386587 0.958031 0.400414
O O8 0.889822 0.316887 0.555469
O O9 0.791831 0.375882 0.693001
O O10 0.823883 0.404867 0.370402
#
# Coordination Sequence:
#
# PCOD9567886 Si02
#       5
#    16  16   8  16  16
#     4  11  23  42  70  95 135 185 220 279 351 409
#     4  11  23  43  68  99 133 180 226 277 344 408
#     4  12  22  42  69  98 134 176 232 278 332 419
#     4  10  23  42  64  96 132 173 225 278 338 402
#     4  10  23  41  64  94 132 174 222 277 332 409
#
# _framework density 23.138162999999999
#
# number of rings (size 3 to 8) (size 9 to 14) (size 15 to 20)
#    0.000    1.333    4.444    0.667    6.222    0.444 
#    2.000    5.000    0.000    0.000    0.000    0.000 
#    0.000    0.000    0.000    0.000    0.000    0.000 
#
# Total GULP energy -401281.363960 kJ/mol
# GULP energy per Si atom -5573.352277 kJ/mol
# Density = 2.308550 g / cm^3
# Si number density = 23.138163 Si / 1000 Ang^3
#
#
#
# Elastic Constant Matrix: (Units=GPa)
#
#
# Indices 1 2 3 4 5 6 
#
# 1 46.3532 13.6829 -26.6874 0.0000 0.0000 0.0000
# 2 13.6829 46.3543 -26.6862 0.0000 0.0000 0.0000
# 3 -26.6874 -26.6862 96.5153 0.0000 0.0000 0.0000
# 4 0.0000 0.0000 0.0000 -303.5627 0.0000 0.0000
# 5 0.0000 0.0000 0.0000 0.0000 -303.7427 0.0000
# 6 0.0000 0.0000 0.0000 0.0000 0.0000 25.2964
#
#
#
# Elastic Compliance Matrix: (Units=1/GPa)
#
#
# Indices 1 2 3 4 5 6 
#
# 1 0.026348 -0.004261 0.006107 0.000000 0.000000 0.000000
# 2 -0.004261 0.026346 0.006106 0.000000 0.000000 0.000000
# 3 0.006107 0.006106 0.013738 0.000000 0.000000 0.000000
# 4 0.000000 0.000000 0.000000 -0.003294 0.000000 0.000000
# 5 0.000000 0.000000 0.000000 0.000000 -0.003292 0.000000
# 6 0.000000 0.000000 0.000000 0.000000 0.000000 0.039531
#
#
# Mechanical properties :
#
#
# Convention : Reuss Voigt Hill
#
# Bulk Modulus (GPa) = 12.14538 12.20460 12.17499
# Shear Modulus (GPa) = 45.07826 -101.14091 -28.03133
#
# Velocity S-wave (km/s) = 4.41865 -6.61866 -3.48440
# Velocity P-wave (km/s) = 5.59403 7.28853 3.30375
#
# Compressibility (1/GPa) = 0.08233584
#
# Stress axis : x y z
#
# Youngs Moduli (GPa) = 37.95425 37.95597 72.79025
#
# Poissons Ratio (x) = 0.16175 -0.44454
# Poissons Ratio (y) = 0.16174 -0.44448
# Poissons Ratio (z) = -0.23179 -0.23177
#
# Static dielectric constant tensor:
#      x y z
#    x 1.950290 0.000000 0.000000 
#    y 0.000000 1.950290 0.000000 
#    z 0.000000 0.000000 1.983860 
# 
# From -- ./inp_files/1683.got.cif
#   From: 2010.05.17/outbox.cif.g08.bks.cpg/sg133_1_cif.got.tgz:1683.got - 2010.05.20 12:37:36.
