data_PCOD9567250
_publ_section_title
;
Structure prediction by ZEFSAII (Michael W. Deem and Ramdas Pophale) SiO2 
 PCOD9567250
Probable space group: P 42/M C M
;
_chemical_formula_sum "Si O2"
_cell_formula_units_Z 84
_cell_length_a 25.323704
_cell_length_b 25.323704
_cell_length_c 8.011443
_cell_angle_alpha 90.000000
_cell_angle_beta 90.000000
_cell_angle_gamma 90.000000
_cell_volume 5137.658156
_symmetry_space_group_name_H-M "P 42/M C M"
_symmetry_group_IT_number 132
_symmetry_cell_setting 'tetragonal'
loop_
_space_group_symop_operation_xyz
x,y,z
-y,x,1/2+z
-x,-y,z
y,-x,1/2+z
x,-y,1/2-z
-x,y,1/2-z
y,x,-z
-y,-x,-z
-x,-y,-z
y,-x,1/2-z
x,y,-z
-y,x,1/2-z
-x,y,1/2+z
x,-y,1/2+z
-y,-x,z
y,x,z
loop_
_atom_site_type_symbol
_atom_site_label
_atom_site_fract_x
_atom_site_fract_y
_atom_site_fract_z
Si Si1 0.844289 0.263285 0.306780
Si Si2 0.441230 0.086117 0.809359
Si Si3 0.811654 0.811654 0.500000
Si Si4 0.444272 0.204436 0.693094
Si Si5 0.743118 0.660389 0.198226
Si Si6 0.941962 0.328777 0.191344
O O1 0.841834 0.243234 0.500000
O O2 0.792723 0.300201 0.280256
O O3 0.895720 0.300199 0.292619
O O4 0.841956 0.222408 0.152446
O O5 0.500000 0.071683 0.750000
O O6 0.437092 0.149903 0.793914
O O7 0.392032 0.063376 0.709231
O O8 0.434645 0.069949 0.000000
O O9 0.500000 0.228267 0.750000
O O10 0.447830 0.188839 0.500000
O O11 0.394824 0.242297 0.719562
O O12 0.691700 0.691700 0.260976
O O13 0.737286 0.651754 0.000000
O O14 0.000000 0.312969 0.250000
O O15 0.934436 0.314527 0.000000
#
# Coordination Sequence:
#
# PCOD9567250 Si02
#       6
#    16  16   4  16  16  16
#     4  11  22  37  55  82 110 137 178 227 271 323
#     4  11  21  35  52  71  94 131 181 234 281 325
#     4  12  22  36  60  82 108 138 178 227 269 330
#     4  11  21  32  49  70  98 132 169 213 266 323
#     4  10  20  33  51  74 102 130 164 215 267 317
#     4  12  24  39  55  76 105 144 184 230 279 327
#
# _framework density 16.349861000000001
#
# number of rings (size 3 to 8) (size 9 to 14) (size 15 to 20)
#    0.000    0.952    3.810    6.571    1.333    0.762 
#    0.000    1.905    0.000    0.000    0.000    0.000 
#    0.000    0.381    0.000    4.000    0.000    3.143 
#
# Total GULP energy -468036.859493 kJ/mol
# GULP energy per Si atom -5571.867375 kJ/mol
# Density = 1.631265 g / cm^3
# Si number density = 16.349861 Si / 1000 Ang^3
#
#
#
# Elastic Constant Matrix: (Units=GPa)
#
#
# Indices 1 2 3 4 5 6 
#
# 1 47.4828 38.3725 12.4110 0.0000 0.0000 0.0000
# 2 38.3725 47.4828 12.4110 0.0000 0.0000 0.0000
# 3 12.4110 12.4110 91.5040 0.0000 0.0000 0.0000
# 4 0.0000 0.0000 0.0000 22.2389 0.0000 0.0000
# 5 0.0000 0.0000 0.0000 0.0000 22.2389 0.0000
# 6 0.0000 0.0000 0.0000 0.0000 0.0000 -2.3821
#
#
#
# Elastic Compliance Matrix: (Units=1/GPa)
#
#
# Indices 1 2 3 4 5 6 
#
# 1 0.060945 -0.048822 -0.001644 0.000000 0.000000 0.000000
# 2 -0.048822 0.060945 -0.001644 0.000000 0.000000 0.000000
# 3 -0.001644 -0.001644 0.011375 0.000000 0.000000 0.000000
# 4 0.000000 0.000000 0.000000 0.044966 0.000000 0.000000
# 5 0.000000 0.000000 0.000000 0.000000 0.044966 0.000000
# 6 0.000000 0.000000 0.000000 0.000000 0.000000 -0.419796
#
#
# Mechanical properties :
#
#
# Convention : Reuss Voigt Hill
#
# Bulk Modulus (GPa) = 34.43145 34.76207 34.59676
# Shear Modulus (GPa) = -60.46032 16.63750 -21.91141
#
# Velocity S-wave (km/s) = -6.08764 3.19343 -3.66479
# Velocity P-wave (km/s) = 5.32049 5.90804 1.81622
#
# Compressibility (1/GPa) = 0.02904322
#
# Stress axis : x y z
#
# Youngs Moduli (GPa) = 16.40837 16.40837 87.91583
#
# Poissons Ratio (x) = 0.80108 0.14456
# Poissons Ratio (y) = 0.80108 0.14456
# Poissons Ratio (z) = 0.02698 0.02698
#
# Static dielectric constant tensor:
#      x y z
#    x 1.556710 0.000000 0.000000 
#    y 0.000000 1.556710 0.000000 
#    z 0.000000 0.000000 1.603050 
# 
# From -- ./inp_files/1645.got.cif
#   From: 2010.05.17/outbox.cif.g08.bks.cpg/sg132_1_cif.got.tgz:1645.got - 2010.05.20 12:30:18.
