data_PCOD9567457
_publ_section_title
;
Structure prediction by ZEFSAII (Michael W. Deem and Ramdas Pophale) SiO2 
 PCOD9567457
Probable space group: P 42/M C M
;
_chemical_formula_sum "Si O2"
_cell_formula_units_Z 116
_cell_length_a 18.437280
_cell_length_b 18.437280
_cell_length_c 15.573583
_cell_angle_alpha 90.000000
_cell_angle_beta 90.000000
_cell_angle_gamma 90.000000
_cell_volume 5293.979365
_symmetry_space_group_name_H-M "P 42/M C M"
_symmetry_group_IT_number 132
_symmetry_cell_setting 'tetragonal'
loop_
_space_group_symop_operation_xyz
x,y,z
-y,x,1/2+z
-x,-y,z
y,-x,1/2+z
x,-y,1/2-z
-x,y,1/2-z
y,x,-z
-y,-x,-z
-x,-y,-z
y,-x,1/2-z
x,y,-z
-y,x,1/2-z
-x,y,1/2+z
x,-y,1/2+z
-y,-x,z
y,x,z
loop_
_atom_site_type_symbol
_atom_site_label
_atom_site_fract_x
_atom_site_fract_y
_atom_site_fract_z
Si Si1 0.638025 0.150649 0.599070
Si Si2 0.709890 0.599393 0.669949
Si Si3 0.791883 0.909147 0.843513
Si Si4 0.289638 0.442130 0.867106
Si Si5 0.510302 0.083220 0.104060
Si Si6 0.808455 0.925693 0.638278
Si Si7 0.155320 0.660493 0.099673
Si Si8 0.591623 0.408378 0.500000
O O1 0.643566 0.126452 0.500000
O O2 0.710641 0.121612 0.642687
O O3 0.621148 0.236456 0.599563
O O4 0.562177 0.121965 0.638683
O O5 0.636734 0.636734 0.635262
O O6 0.697029 0.578767 0.768712
O O7 0.738841 0.524880 0.628162
O O8 0.773815 0.657156 0.658448
O O9 0.849471 0.849471 0.875570
O O10 0.804296 0.919136 0.741755
O O11 0.805318 0.988875 0.883543
O O12 0.359728 0.446451 0.925028
O O13 0.590666 0.108517 0.128255
O O14 0.500000 0.000000 0.125855
O O15 0.507743 0.091293 0.000000
O O16 0.879046 0.879046 0.610466
O O17 0.735231 0.887583 0.605756
O O18 0.177462 0.650677 0.000000
#
# Coordination Sequence:
#
# PCOD9567457 Si02
#       8
#    16  16  16  16  16  16  16   4
#     4  11  21  36  61  92 128 161 206 266 325 393
#     4  11  24  43  65  94 133 172 216 274 330 393
#     4  10  23  40  63  92 123 167 219 277 342 404
#     4  11  24  42  67  96 127 170 218 275 339 390
#     4   9  18  33  54  83 122 165 207 256 311 378
#     4  10  22  42  62  88 128 169 219 276 334 403
#     4  11  22  38  63  94 130 176 223 264 324 401
#     4  12  24  44  73  96 124 170 229 276 328 406
#
# _framework density 21.911684000000001
#
# number of rings (size 3 to 8) (size 9 to 14) (size 15 to 20)
#    0.000    1.517    2.759    2.069    1.931    4.414 
#    0.000    2.069    0.000    3.310    0.000    1.931 
#    0.000    0.000    0.000    0.000    0.000    0.000 
#
# Total GULP energy -646308.147723 kJ/mol
# GULP energy per Si atom -5571.621963 kJ/mol
# Density = 2.186181 g / cm^3
# Si number density = 21.911684 Si / 1000 Ang^3
#
#
#
# Elastic Constant Matrix: (Units=GPa)
#
#
# Indices 1 2 3 4 5 6 
#
# 1 59.9338 134.3587 4.5754 0.0000 0.0000 0.0000
# 2 134.3587 59.9316 4.5739 0.0000 0.0000 0.0000
# 3 4.5754 4.5739 42.6207 0.0000 0.0000 0.0000
# 4 0.0000 0.0000 0.0000 15.9539 0.0000 0.0000
# 5 0.0000 0.0000 0.0000 0.0000 15.9541 0.0000
# 6 0.0000 0.0000 0.0000 0.0000 0.0000 36.7094
#
#
#
# Elastic Compliance Matrix: (Units=1/GPa)
#
#
# Indices 1 2 3 4 5 6 
#
# 1 -0.004131 0.009305 -0.000555 0.000000 0.000000 0.000000
# 2 0.009305 -0.004132 -0.000555 0.000000 0.000000 0.000000
# 3 -0.000555 -0.000555 0.023582 0.000000 0.000000 0.000000
# 4 0.000000 0.000000 0.000000 0.062681 0.000000 0.000000
# 5 0.000000 0.000000 0.000000 0.000000 0.062680 0.000000
# 6 0.000000 0.000000 0.000000 0.000000 0.000000 0.027241
#
#
# Mechanical properties :
#
#
# Convention : Reuss Voigt Hill
#
# Bulk Modulus (GPa) = 31.53866 49.94468 40.74167
# Shear Modulus (GPa) = 30.84496 14.98869 22.91682
#
# Velocity S-wave (km/s) = 3.75600 2.61827 3.23750
# Velocity P-wave (km/s) = 5.76496 5.65540 5.71045
#
# Compressibility (1/GPa) = 0.03170712
#
# Stress axis : x y z
#
# Youngs Moduli (GPa) = -242.04366 -242.03589 42.40525
#
# Poissons Ratio (x) = 2.25205 0.02354
# Poissons Ratio (y) = 2.25212 0.02355
# Poissons Ratio (z) = -0.13434 -0.13444
#
# Static dielectric constant tensor:
#      x y z
#    x 1.886300 0.000000 0.000000 
#    y 0.000000 1.886310 0.000000 
#    z 0.000000 0.000000 1.809130 
# 
# From -- ./inp_files/6639.got.cif
#   From: 2010.05.17/outbox.cif.g08.bks.cpg/sg132_4_cif.got.tgz:6639.got - 2010.05.20 12:30:18.
