data_PCOD9567812
_publ_section_title
;
Structure prediction by ZEFSAII (Michael W. Deem and Ramdas Pophale) SiO2 
 PCOD9567812
Probable space group: P 42/N B C
;
_chemical_formula_sum "Si O2"
_cell_formula_units_Z 64
_cell_length_a 12.283286
_cell_length_b 12.283286
_cell_length_c 18.629203
_cell_angle_alpha 90.000000
_cell_angle_beta 90.000000
_cell_angle_gamma 90.000000
_cell_volume 2810.757661
_symmetry_space_group_name_H-M "P 42/N B C"
_symmetry_group_IT_number 133
_space_group.IT_coordinate_system_code '2'
_symmetry_cell_setting 'tetragonal'
loop_
_space_group_symop_operation_xyz
x,y,z
1/2-y,x,1/2+z
1/2-x,1/2-y,z
y,1/2-x,1/2+z
x,1/2-y,-z
1/2-x,y,-z
y,x,1/2-z
1/2-y,1/2-x,1/2-z
-x,-y,-z
1/2+y,-x,1/2-z
1/2+x,1/2+y,-z
-y,1/2+x,1/2-z
-x,1/2+y,z
1/2+x,-y,z
-y,-x,1/2+z
1/2+y,1/2+x,1/2+z
loop_
_atom_site_type_symbol
_atom_site_label
_atom_site_fract_x
_atom_site_fract_y
_atom_site_fract_z
Si Si1 0.518240 0.631200 0.404393
Si Si2 0.123959 0.237997 0.826017
Si Si3 0.446497 0.358131 0.037225
Si Si4 0.424288 0.755260 0.276103
O O1 0.613320 0.597723 0.348660
O O2 0.434156 0.538317 0.428488
O O3 0.584603 0.633600 0.480001
O O4 0.452674 0.723986 0.359263
O O5 0.250000 0.250000 0.812415
O O6 0.114816 0.313981 0.894777
O O7 0.036852 0.271380 0.766328
O O8 0.496274 0.250000 0.000000
O O9 0.358207 0.654138 0.239356
#
# Coordination Sequence:
#
# PCOD9567812 Si02
#       4
#    16  16  16  16
#     4  10  21  41  71 107 140 197 236 304 370 437
#     4  11  24  44  70 106 142 186 244 308 377 439
#     4   9  20  42  72 103 148 189 247 298 362 447
#     4  11  24  45  72 104 150 194 247 308 373 456
#
# _framework density 22.769660999999999
#
# number of rings (size 3 to 8) (size 9 to 14) (size 15 to 20)
#    0.000    1.750    2.500    0.750    0.000    8.500 
#    4.500    5.000    0.000    4.500    0.000    0.000 
#    0.000    0.000    0.000    0.000    0.000    0.000 
#
# Total GULP energy -356749.966542 kJ/mol
# GULP energy per Si atom -5574.218227 kJ/mol
# Density = 2.271784 g / cm^3
# Si number density = 22.769661 Si / 1000 Ang^3
#
#
#
# Elastic Constant Matrix: (Units=GPa)
#
#
# Indices 1 2 3 4 5 6 
#
# 1 -1322.6811 1508.3111 52.0404 0.0000 0.0000 0.0000
# 2 1508.3111-1322.6811 52.0404 0.0000 0.0000 0.0000
# 3 52.0404 52.0404 146.7326 0.0000 0.0000 0.0000
# 4 0.0000 0.0000 0.0000 26.0703 0.0000 0.0000
# 5 0.0000 0.0000 0.0000 0.0000 26.0703 0.0000
# 6 0.0000 0.0000 0.0000 0.0000 0.0000 -72.6723
#
#
#
# Elastic Compliance Matrix: (Units=1/GPa)
#
#
# Indices 1 2 3 4 5 6 
#
# 1 0.003185 0.003539 -0.002385 0.000000 0.000000 0.000000
# 2 0.003539 0.003185 -0.002385 0.000000 0.000000 0.000000
# 3 -0.002385 -0.002385 0.008507 0.000000 0.000000 0.000000
# 4 0.000000 0.000000 0.000000 0.038358 0.000000 0.000000
# 5 0.000000 0.000000 0.000000 0.000000 0.038358 0.000000
# 6 0.000000 0.000000 0.000000 0.000000 0.000000 -0.013760
#
#
# Mechanical properties :
#
#
# Convention : Reuss Voigt Hill
#
# Bulk Modulus (GPa) = 80.54212 80.68380 80.61296
# Shear Modulus (GPa) = 59.21822 -278.17445 -109.47812
#
# Velocity S-wave (km/s) = 5.10529 -11.06500 -6.94155
# Velocity P-wave (km/s) = 8.37862 11.30194 5.36342
#
# Compressibility (1/GPa) = 0.01241586
#
# Stress axis : x y z
#
# Youngs Moduli (GPa) = 313.92415 313.92415 117.55412
#
# Poissons Ratio (x) = -1.11089 0.28034
# Poissons Ratio (y) = -1.11089 0.28034
# Poissons Ratio (z) = 0.74865 0.74865
#
# Static dielectric constant tensor:
#      x y z
#    x 1.848710 0.000000 0.000000 
#    y 0.000000 1.848710 0.000000 
#    z 0.000000 0.000000 1.654150 
# 
# From -- ./inp_files/6143.got.cif
#   From: 2010.05.17/outbox.cif.g08.bks.cpg/sg133_4_cif.got.tgz:6143.got - 2010.05.20 12:37:36.
