data_PCOD9567813
_publ_section_title
;
Structure prediction by ZEFSAII (Michael W. Deem and Ramdas Pophale) SiO2 
 PCOD9567813
Probable space group: P 42/N B C
;
_chemical_formula_sum "Si O2"
_cell_formula_units_Z 52
_cell_length_a 14.331888
_cell_length_b 14.331888
_cell_length_c 9.950718
_cell_angle_alpha 90.000000
_cell_angle_beta 90.000000
_cell_angle_gamma 90.000000
_cell_volume 2043.907465
_symmetry_space_group_name_H-M "P 42/N B C"
_symmetry_group_IT_number 133
_space_group.IT_coordinate_system_code '2'
_symmetry_cell_setting 'tetragonal'
loop_
_space_group_symop_operation_xyz
x,y,z
1/2-y,x,1/2+z
1/2-x,1/2-y,z
y,1/2-x,1/2+z
x,1/2-y,-z
1/2-x,y,-z
y,x,1/2-z
1/2-y,1/2-x,1/2-z
-x,-y,-z
1/2+y,-x,1/2-z
1/2+x,1/2+y,-z
-y,1/2+x,1/2-z
-x,1/2+y,z
1/2+x,-y,z
-y,-x,1/2+z
1/2+y,1/2+x,1/2+z
loop_
_atom_site_type_symbol
_atom_site_label
_atom_site_fract_x
_atom_site_fract_y
_atom_site_fract_z
Si Si1 0.730285 0.920600 0.716513
Si Si2 0.372746 0.907215 0.387427
Si Si3 0.750000 0.250000 0.750000
Si Si4 0.072999 0.427002 0.750000
Si Si5 0.527275 0.250000 0.500000
O O1 0.671537 0.828463 0.750000
O O2 0.834877 0.912131 0.658266
O O3 0.673785 0.992284 0.623375
O O4 0.746328 0.968180 0.863658
O O5 0.297365 0.835390 0.328125
O O6 0.469790 0.920891 0.308653
O O7 0.410147 0.844454 0.511175
#
# Coordination Sequence:
#
# PCOD9567813 Si02
#       5
#    16  16   4   8   8
#     4  11  23  44  71 100 150 189 235 308 366 445
#     4  11  22  42  72 101 143 182 242 304 361 444
#     4  12  20  42  68 100 142 188 228 306 360 424
#     4  10  21  42  66 101 142 182 234 302 352 425
#     4  10  24  43  71 108 140 182 250 296 368 446
#
# _framework density 25.441462999999999
#
# number of rings (size 3 to 8) (size 9 to 14) (size 15 to 20)
#    0.000    1.231    7.692    0.462    0.000    1.846 
#    0.000   12.308   13.538    0.000    0.000    0.000 
#    0.000    0.000    0.000    0.000    0.000    0.000 
#
# Total GULP energy -290170.169047 kJ/mol
# GULP energy per Si atom -5580.195559 kJ/mol
# Density = 2.538356 g / cm^3
# Si number density = 25.441463 Si / 1000 Ang^3
#
#
#
# Elastic Constant Matrix: (Units=GPa)
#
#
# Indices 1 2 3 4 5 6 
#
# 1 175.8692 61.1673 21.5541 0.0000 0.0000 0.0000
# 2 61.1673 175.8723 21.5543 0.0000 0.0000 0.0000
# 3 21.5541 21.5543 82.7874 0.0000 0.0000 0.0000
# 4 0.0000 0.0000 0.0000 16.1817 0.0000 0.0000
# 5 0.0000 0.0000 0.0000 0.0000 16.1799 0.0000
# 6 0.0000 0.0000 0.0000 0.0000 0.0000 74.7991
#
#
#
# Elastic Compliance Matrix: (Units=1/GPa)
#
#
# Indices 1 2 3 4 5 6 
#
# 1 0.006573 -0.002145 -0.001153 0.000000 0.000000 0.000000
# 2 -0.002145 0.006573 -0.001153 0.000000 0.000000 0.000000
# 3 -0.001153 -0.001153 0.012680 0.000000 0.000000 0.000000
# 4 0.000000 0.000000 0.000000 0.061798 0.000000 0.000000
# 5 0.000000 0.000000 0.000000 0.000000 0.061805 0.000000
# 6 0.000000 0.000000 0.000000 0.000000 0.000000 0.013369
#
#
# Mechanical properties :
#
#
# Convention : Reuss Voigt Hill
#
# Bulk Modulus (GPa) = 59.08606 71.45337 65.26971
# Shear Modulus (GPa) = 28.19414 43.44901 35.82157
#
# Velocity S-wave (km/s) = 3.33257 4.13704 3.75640
# Velocity P-wave (km/s) = 6.17112 7.13908 6.67268
#
# Compressibility (1/GPa) = 0.01692447
#
# Stress axis : x y z
#
# Youngs Moduli (GPa) = 152.12987 152.13252 78.86746
#
# Poissons Ratio (x) = 0.32630 0.09093
# Poissons Ratio (y) = 0.32630 0.09093
# Poissons Ratio (z) = 0.17540 0.17540
#
# Static dielectric constant tensor:
#      x y z
#    x 2.076890 0.000000 0.000000 
#    y 0.000000 2.076880 0.000000 
#    z 0.000000 0.000000 2.156440 
# 
# From -- ./inp_files/2803.got.cif
#   From: 2010.05.17/outbox.cif.g08.bks.cpg/sg133_2_cif.got.tgz:2803.got - 2010.05.20 12:37:36.
