data_PCOD9567620
_publ_section_title
;
Structure prediction by ZEFSAII (Michael W. Deem and Ramdas Pophale) SiO2 
 PCOD9567620
Probable space group: P 42/N B C
;
_chemical_formula_sum "Si O2"
_cell_formula_units_Z 104
_cell_length_a 17.363041
_cell_length_b 17.363041
_cell_length_c 17.856390
_cell_angle_alpha 90.000000
_cell_angle_beta 90.000000
_cell_angle_gamma 90.000000
_cell_volume 5383.258617
_symmetry_space_group_name_H-M "P 42/N B C"
_symmetry_group_IT_number 133
_space_group.IT_coordinate_system_code '2'
_symmetry_cell_setting 'tetragonal'
loop_
_space_group_symop_operation_xyz
x,y,z
1/2-y,x,1/2+z
1/2-x,1/2-y,z
y,1/2-x,1/2+z
x,1/2-y,-z
1/2-x,y,-z
y,x,1/2-z
1/2-y,1/2-x,1/2-z
-x,-y,-z
1/2+y,-x,1/2-z
1/2+x,1/2+y,-z
-y,1/2+x,1/2-z
-x,1/2+y,z
1/2+x,-y,z
-y,-x,1/2+z
1/2+y,1/2+x,1/2+z
loop_
_atom_site_type_symbol
_atom_site_label
_atom_site_fract_x
_atom_site_fract_y
_atom_site_fract_z
Si Si1 0.853508 0.190322 0.244258
Si Si2 0.505004 0.817933 0.346366
Si Si3 0.085792 0.164364 0.678408
Si Si4 0.419937 0.880907 0.608757
Si Si5 0.250000 0.557213 0.000000
Si Si6 0.336144 0.163009 0.474066
Si Si7 0.042784 0.057119 0.059699
O O1 0.776203 0.162402 0.285830
O O2 0.928949 0.183680 0.295090
O O3 0.854885 0.134298 0.174626
O O4 0.564444 0.755585 0.310154
O O5 0.487295 0.781222 0.427761
O O6 0.526466 0.905131 0.370571
O O7 0.117310 0.117310 0.750000
O O8 0.150476 0.160042 0.614356
O O9 0.007650 0.128054 0.641089
O O10 0.405673 0.826325 0.536727
O O11 0.400553 0.969013 0.592609
O O12 0.354194 0.250000 0.500000
O O13 0.250000 0.146711 0.500000
O O14 0.391631 0.101761 0.512853
O O15 0.000000 0.000000 0.000000
#
# Coordination Sequence:
#
# PCOD9567620 Si02
#       7
#    16  16  16  16   8  16  16
#     4  11  24  43  63  93 139 183 217 280 355 413
#     4  11  22  41  69  95 137 178 233 284 346 414
#     4  11  23  42  70  98 137 181 224 280 359 419
#     4  11  24  40  67 101 133 180 237 282 351 413
#     4  10  18  42  63  92 131 178 218 278 346 418
#     4  11  24  46  71  97 135 184 230 286 351 412
#     4  12  22  39  72 100 128 177 238 288 335 414
#
# _framework density 19.319153
#
# number of rings (size 3 to 8) (size 9 to 14) (size 15 to 20)
#    0.000    0.923    7.692    0.923    3.231    1.231 
#    2.769    3.077    0.000    0.000    0.000    0.000 
#    0.000    0.000    0.000    0.000    0.000    0.000 
#
# Total GULP energy -579302.840043 kJ/mol
# GULP energy per Si atom -5570.219616 kJ/mol
# Density = 1.927518 g / cm^3
# Si number density = 19.319153 Si / 1000 Ang^3
#
#
#
# Elastic Constant Matrix: (Units=GPa)
#
#
# Indices 1 2 3 4 5 6 
#
# 1 125.1087 40.2958 40.5690 0.0000 0.0000 0.0000
# 2 40.2958 125.1087 40.5690 0.0000 0.0000 0.0000
# 3 40.5690 40.5690 95.8845 0.0000 0.0000 0.0000
# 4 0.0000 0.0000 0.0000 28.4802 0.0000 0.0000
# 5 0.0000 0.0000 0.0000 0.0000 28.4802 0.0000
# 6 0.0000 0.0000 0.0000 0.0000 0.0000 21.9820
#
#
#
# Elastic Compliance Matrix: (Units=1/GPa)
#
#
# Indices 1 2 3 4 5 6 
#
# 1 0.009710 -0.002081 -0.003228 0.000000 0.000000 0.000000
# 2 -0.002081 0.009710 -0.003228 0.000000 0.000000 0.000000
# 3 -0.003228 -0.003228 0.013161 0.000000 0.000000 0.000000
# 4 0.000000 0.000000 0.000000 0.035112 0.000000 0.000000
# 5 0.000000 0.000000 0.000000 0.000000 0.035112 0.000000
# 6 0.000000 0.000000 0.000000 0.000000 0.000000 0.045492
#
#
# Mechanical properties :
#
#
# Convention : Reuss Voigt Hill
#
# Bulk Modulus (GPa) = 64.48538 65.44105 64.96321
# Shear Modulus (GPa) = 29.31879 30.76634 30.04257
#
# Velocity S-wave (km/s) = 3.89987 3.99498 3.94771
# Velocity P-wave (km/s) = 7.33008 7.43149 7.38096
#
# Compressibility (1/GPa) = 0.01550739
#
# Stress axis : x y z
#
# Youngs Moduli (GPa) = 102.98721 102.98721 75.98373
#
# Poissons Ratio (x) = 0.21429 0.24527
# Poissons Ratio (y) = 0.21429 0.24527
# Poissons Ratio (z) = 0.33244 0.33244
#
# Static dielectric constant tensor:
#      x y z
#    x 1.776370 0.000000 0.000000 
#    y 0.000000 1.776370 0.000000 
#    z 0.000000 0.000000 1.705420 
# 
# From -- ./inp_files/5599.got.cif
#   From: 2010.05.17/outbox.cif.g08.bks.cpg/sg133_3_cif.got.tgz:5599.got - 2010.05.20 12:37:36.
