data_PCOD9567818
_publ_section_title
;
Structure prediction by ZEFSAII (Michael W. Deem and Ramdas Pophale) SiO2 
 PCOD9567818
Probable space group: P 42/N B C
;
_chemical_formula_sum "Si O2"
_cell_formula_units_Z 40
_cell_length_a 12.096287
_cell_length_b 12.096287
_cell_length_c 12.097141
_cell_angle_alpha 90.000000
_cell_angle_beta 90.000000
_cell_angle_gamma 90.000000
_cell_volume 1770.055597
_symmetry_space_group_name_H-M "P 42/N B C"
_symmetry_group_IT_number 133
_space_group.IT_coordinate_system_code '2'
_symmetry_cell_setting 'tetragonal'
loop_
_space_group_symop_operation_xyz
x,y,z
1/2-y,x,1/2+z
1/2-x,1/2-y,z
y,1/2-x,1/2+z
x,1/2-y,-z
1/2-x,y,-z
y,x,1/2-z
1/2-y,1/2-x,1/2-z
-x,-y,-z
1/2+y,-x,1/2-z
1/2+x,1/2+y,-z
-y,1/2+x,1/2-z
-x,1/2+y,z
1/2+x,-y,z
-y,-x,1/2+z
1/2+y,1/2+x,1/2+z
loop_
_atom_site_type_symbol
_atom_site_label
_atom_site_fract_x
_atom_site_fract_y
_atom_site_fract_z
Si Si1 0.274698 0.932331 0.735019
Si Si2 0.373332 0.301290 0.640337
Si Si3 0.750000 0.951697 0.500000
O O1 0.368902 0.841294 0.749577
O O2 0.279672 0.027143 0.829696
O O3 0.277828 0.981642 0.611005
O O4 0.250000 0.250000 0.642624
O O5 0.377660 0.377660 0.750000
O O6 0.358023 0.377352 0.533234
#
# Coordination Sequence:
#
# PCOD9567818 Si02
#       3
#    16  16   8
#     4  10  23  44  67 100 141 177 226 283 342 411
#     4   9  19  41  64  95 132 174 229 278 325 401
#     4  10  21  43  64  98 132 184 233 269 346 394
#
# _framework density 22.59816
#
# number of rings (size 3 to 8) (size 9 to 14) (size 15 to 20)
#    0.000    2.400    0.000    0.600    0.000    6.400 
#   57.600    0.000    0.000    0.000    0.000    0.000 
#    0.000    0.000    0.000    0.000    0.000    0.000 
#
# Total GULP energy -222745.228650 kJ/mol
# GULP energy per Si atom -5568.630716 kJ/mol
# Density = 2.254673 g / cm^3
# Si number density = 22.598160 Si / 1000 Ang^3
#
#
#
# Elastic Constant Matrix: (Units=GPa)
#
#
# Indices 1 2 3 4 5 6 
#
# 1 114.8847 64.9814 77.7413 0.0000 0.0000 0.0000
# 2 64.9814 114.8847 77.7413 0.0000 0.0000 0.0000
# 3 77.7413 77.7413 211.8771 0.0000 0.0000 0.0000
# 4 0.0000 0.0000 0.0000 35.8358 0.0000 0.0000
# 5 0.0000 0.0000 0.0000 0.0000 35.8358 0.0000
# 6 0.0000 0.0000 0.0000 0.0000 0.0000 22.7258
#
#
#
# Elastic Compliance Matrix: (Units=1/GPa)
#
#
# Indices 1 2 3 4 5 6 
#
# 1 0.014090 -0.005948 -0.002988 0.000000 0.000000 0.000000
# 2 -0.005948 0.014090 -0.002988 0.000000 0.000000 0.000000
# 3 -0.002988 -0.002988 0.006912 0.000000 0.000000 0.000000
# 4 0.000000 0.000000 0.000000 0.027905 0.000000 0.000000
# 5 0.000000 0.000000 0.000000 0.000000 0.027905 0.000000
# 6 0.000000 0.000000 0.000000 0.000000 0.000000 0.044003
#
#
# Mechanical properties :
#
#
# Convention : Reuss Voigt Hill
#
# Bulk Modulus (GPa) = 88.91724 98.06384 93.49054
# Shear Modulus (GPa) = 30.76898 33.62500 32.19699
#
# Velocity S-wave (km/s) = 3.69395 3.86158 3.77870
# Velocity P-wave (km/s) = 7.59119 7.96061 7.77809
#
# Compressibility (1/GPa) = 0.01124641
#
# Stress axis : x y z
#
# Youngs Moduli (GPa) = 70.96988 70.96988 144.67476
#
# Poissons Ratio (x) = 0.42215 0.43222
# Poissons Ratio (y) = 0.42215 0.43222
# Poissons Ratio (z) = 0.21202 0.21202
#
# Static dielectric constant tensor:
#      x y z
#    x 1.957730 0.000000 0.000000 
#    y 0.000000 1.957730 0.000000 
#    z 0.000000 0.000000 1.891660 
# 
# From -- ./inp_files/3768.got.cif
#   From: 2010.05.17/outbox.cif.g08.bks.cpg/sg133_2_cif.got.tgz:3768.got - 2010.05.20 12:37:36.
