data_PCOD9567975
_publ_section_title
;
Structure prediction by ZEFSAII (Michael W. Deem and Ramdas Pophale) SiO2 
 PCOD9567975
Probable space group: P 42/N B C
;
_chemical_formula_sum "Si O2"
_cell_formula_units_Z 64
_cell_length_a 11.658924
_cell_length_b 11.658924
_cell_length_c 21.615374
_cell_angle_alpha 90.000000
_cell_angle_beta 90.000000
_cell_angle_gamma 90.000000
_cell_volume 2938.188787
_symmetry_space_group_name_H-M "P 42/N B C"
_symmetry_group_IT_number 133
_space_group.IT_coordinate_system_code '2'
_symmetry_cell_setting 'tetragonal'
loop_
_space_group_symop_operation_xyz
x,y,z
1/2-y,x,1/2+z
1/2-x,1/2-y,z
y,1/2-x,1/2+z
x,1/2-y,-z
1/2-x,y,-z
y,x,1/2-z
1/2-y,1/2-x,1/2-z
-x,-y,-z
1/2+y,-x,1/2-z
1/2+x,1/2+y,-z
-y,1/2+x,1/2-z
-x,1/2+y,z
1/2+x,-y,z
-y,-x,1/2+z
1/2+y,1/2+x,1/2+z
loop_
_atom_site_type_symbol
_atom_site_label
_atom_site_fract_x
_atom_site_fract_y
_atom_site_fract_z
Si Si1 0.283218 0.941756 0.388551
Si Si2 0.675419 0.655628 0.062996
Si Si3 0.058308 0.252306 0.756053
Si Si4 0.426450 0.771852 0.631109
O O1 0.391393 0.856191 0.389362
O O2 0.174406 0.857112 0.390075
O O3 0.300516 0.044897 0.437092
O O4 0.266368 0.002462 0.322581
O O5 0.750000 0.750000 0.099713
O O6 0.681066 0.538147 0.098241
O O7 0.750000 0.640494 0.000000
O O8 0.153405 0.153405 0.750000
O O9 0.126156 0.373845 0.750000
O O10 0.960580 0.236419 0.703487
#
# Coordination Sequence:
#
# PCOD9567975 Si02
#       4
#    16  16  16  16
#     4  11  25  44  69 106 143 181 240 295 355 433
#     4  11  26  47  71  99 134 185 240 291 353 420
#     4  11  22  37  68 105 145 186 229 282 358 436
#     4  11  25  44  70 106 142 186 233 296 360 428
#
# _framework density 21.782126999999999
#
# number of rings (size 3 to 8) (size 9 to 14) (size 15 to 20)
#    0.000    1.000    2.500    3.000    7.000    5.000 
#    4.500    1.250    0.000    0.000    0.000    0.000 
#    0.000    0.000    0.000    0.000    0.000    0.000 
#
# Total GULP energy -357377.016822 kJ/mol
# GULP energy per Si atom -5584.015888 kJ/mol
# Density = 2.173255 g / cm^3
# Si number density = 21.782127 Si / 1000 Ang^3
#
#
#
# Elastic Constant Matrix: (Units=GPa)
#
#
# Indices 1 2 3 4 5 6 
#
# 1 120.2346 48.1273 32.4048 0.0000 0.0000 0.0000
# 2 48.1273 120.2336 32.4049 0.0000 0.0000 0.0000
# 3 32.4048 32.4049 97.1908 0.0000 0.0000 0.0000
# 4 0.0000 0.0000 0.0000 -16.9799 0.0000 0.0000
# 5 0.0000 0.0000 0.0000 0.0000 -16.9790 0.0000
# 6 0.0000 0.0000 0.0000 0.0000 0.0000 32.7849
#
#
#
# Elastic Compliance Matrix: (Units=1/GPa)
#
#
# Indices 1 2 3 4 5 6 
#
# 1 0.010341 -0.003527 -0.002272 0.000000 0.000000 0.000000
# 2 -0.003527 0.010341 -0.002272 0.000000 0.000000 0.000000
# 3 -0.002272 -0.002272 0.011804 0.000000 0.000000 0.000000
# 4 0.000000 0.000000 0.000000 -0.058893 0.000000 0.000000
# 5 0.000000 0.000000 0.000000 0.000000 -0.058896 0.000000
# 6 0.000000 0.000000 0.000000 0.000000 0.000000 0.030502
#
#
# Mechanical properties :
#
#
# Convention : Reuss Voigt Hill
#
# Bulk Modulus (GPa) = 61.18226 62.61477 61.89852
# Shear Modulus (GPa) = -150.55236 14.74667 -67.90284
#
# Velocity S-wave (km/s) = -8.32271 2.60476 -5.58939
# Velocity P-wave (km/s) = 8.01295 6.15262 3.62992
#
# Compressibility (1/GPa) = 0.01634461
#
# Stress axis : x y z
#
# Youngs Moduli (GPa) = 96.70058 96.69971 84.71676
#
# Poissons Ratio (x) = 0.34107 0.19247
# Poissons Ratio (y) = 0.34107 0.19247
# Poissons Ratio (z) = 0.21970 0.21970
#
# Static dielectric constant tensor:
#      x y z
#    x 1.802720 0.000000 0.000000 
#    y 0.000000 1.802720 0.000000 
#    z 0.000000 0.000000 1.855070 
# 
# From -- ./inp_files/6993.got.cif
#   From: 2010.05.17/outbox.cif.g08.bks.cpg/sg133_4_cif.got.tgz:6993.got - 2010.05.20 12:37:36.
