data_PCOD9567506
_publ_section_title
;
Structure prediction by ZEFSAII (Michael W. Deem and Ramdas Pophale) SiO2 
 PCOD9567506
Probable space group: P 42/M C M
;
_chemical_formula_sum "Si O2"
_cell_formula_units_Z 116
_cell_length_a 17.791195
_cell_length_b 17.791195
_cell_length_c 18.931531
_cell_angle_alpha 90.000000
_cell_angle_beta 90.000000
_cell_angle_gamma 90.000000
_cell_volume 5992.333510
_symmetry_space_group_name_H-M "P 42/M C M"
_symmetry_group_IT_number 132
_symmetry_cell_setting 'tetragonal'
loop_
_space_group_symop_operation_xyz
x,y,z
-y,x,1/2+z
-x,-y,z
y,-x,1/2+z
x,-y,1/2-z
-x,y,1/2-z
y,x,-z
-y,-x,-z
-x,-y,-z
y,-x,1/2-z
x,y,-z
-y,x,1/2-z
-x,y,1/2+z
x,-y,1/2+z
-y,-x,z
y,x,z
loop_
_atom_site_type_symbol
_atom_site_label
_atom_site_fract_x
_atom_site_fract_y
_atom_site_fract_z
Si Si1 0.470070 0.918660 0.582093
Si Si2 0.269650 0.269650 0.000000
Si Si3 0.312547 0.186090 0.725356
Si Si4 0.948303 0.829353 0.084198
Si Si5 0.470244 0.776722 0.169838
Si Si6 0.497870 0.625363 0.584007
Si Si7 0.682708 0.852618 0.113928
Si Si8 0.932294 0.192696 0.805639
O O1 0.492115 0.909292 0.500000
O O2 0.500203 0.849625 0.628337
O O3 0.380166 0.910871 0.588058
O O4 0.500000 0.000000 0.606059
O O5 0.311537 0.218225 0.061728
O O6 0.250587 0.250587 0.726394
O O7 0.381194 0.212441 0.677946
O O8 0.335541 0.171664 0.806480
O O9 0.271455 0.111128 0.697973
O O10 0.907989 0.907989 0.102043
O O11 0.893723 0.763316 0.112043
O O12 0.028659 0.821485 0.119521
O O13 0.950122 0.822204 0.000000
O O14 0.500000 0.773591 0.250000
O O15 0.492615 0.700778 0.128659
O O16 0.494185 0.642449 0.500000
O O17 0.422762 0.577239 0.601548
O O18 0.568005 0.568005 0.594784
O O19 0.872400 0.127601 0.789208
O O20 0.000000 0.191536 0.750000
#
# Coordination Sequence:
#
# PCOD9567506 Si02
#       8
#    16   4  16  16  16  16  16  16
#     4  11  26  45  64  91 131 170 220 274 327 388
#     4  12  20  36  74 100 125 160 219 274 332 390
#     4  11  24  42  63  91 130 170 210 259 317 385
#     4  11  21  38  63  91 121 158 210 270 333 390
#     4  12  25  42  63  98 134 170 213 265 325 395
#     4   9  20  43  72 100 132 173 218 264 322 393
#     4  12  20  40  65  96 124 163 213 267 330 390
#     4  11  24  39  60  87 123 169 218 267 328 397
#
# _framework density 19.358067999999999
#
# number of rings (size 3 to 8) (size 9 to 14) (size 15 to 20)
#    0.000    0.966    5.517    1.655    1.931    2.621 
#    1.241    2.069    0.000    1.655    0.000    0.000 
#    0.000    0.000    0.000    0.000    0.000    0.000 
#
# Total GULP energy -647248.491916 kJ/mol
# GULP energy per Si atom -5579.728379 kJ/mol
# Density = 1.931401 g / cm^3
# Si number density = 19.358068 Si / 1000 Ang^3
#
#
#
# Elastic Constant Matrix: (Units=GPa)
#
#
# Indices 1 2 3 4 5 6 
#
# 1 125.3745 49.6332 56.4056 0.0000 0.0000 0.0000
# 2 49.6332 125.3745 56.4056 0.0000 0.0000 0.0000
# 3 56.4056 56.4056 85.7692 0.0000 0.0000 0.0000
# 4 0.0000 0.0000 0.0000 18.5830 0.0000 0.0000
# 5 0.0000 0.0000 0.0000 0.0000 18.5830 0.0000
# 6 0.0000 0.0000 0.0000 0.0000 0.0000 30.3017
#
#
#
# Elastic Compliance Matrix: (Units=1/GPa)
#
#
# Indices 1 2 3 4 5 6 
#
# 1 0.011561 -0.001642 -0.006523 0.000000 0.000000 0.000000
# 2 -0.001642 0.011561 -0.006523 0.000000 0.000000 0.000000
# 3 -0.006523 -0.006523 0.020239 0.000000 0.000000 0.000000
# 4 0.000000 0.000000 0.000000 0.053813 0.000000 0.000000
# 5 0.000000 0.000000 0.000000 0.000000 0.053813 0.000000
# 6 0.000000 0.000000 0.000000 0.000000 0.000000 0.033001
#
#
# Mechanical properties :
#
#
# Convention : Reuss Voigt Hill
#
# Bulk Modulus (GPa) = 71.50863 73.48967 72.49915
# Shear Modulus (GPa) = 22.93317 25.09847 24.01582
#
# Velocity S-wave (km/s) = 3.44566 3.60465 3.52605
# Velocity P-wave (km/s) = 7.26982 7.44113 7.35597
#
# Compressibility (1/GPa) = 0.01398433
#
# Stress axis : x y z
#
# Youngs Moduli (GPa) = 86.49884 86.49884 49.40977
#
# Poissons Ratio (x) = 0.14203 0.32230
# Poissons Ratio (y) = 0.14203 0.32230
# Poissons Ratio (z) = 0.56424 0.56424
#
# Static dielectric constant tensor:
#      x y z
#    x 1.682050 0.000000 0.000000 
#    y 0.000000 1.682050 0.000000 
#    z 0.000000 0.000000 1.676490 
# 
# From -- ./inp_files/6651.got.cif
#   From: 2010.05.17/outbox.cif.g08.bks.cpg/sg132_4_cif.got.tgz:6651.got - 2010.05.20 12:30:18.
