data_PCOD9567782
_publ_section_title
;
Structure prediction by ZEFSAII (Michael W. Deem and Ramdas Pophale) SiO2 
 PCOD9567782
Probable space group: P 42/N B C
;
_chemical_formula_sum "Si O2"
_cell_formula_units_Z 112
_cell_length_a 14.568634
_cell_length_b 14.568634
_cell_length_c 24.136102
_cell_angle_alpha 90.000000
_cell_angle_beta 90.000000
_cell_angle_gamma 90.000000
_cell_volume 5122.769301
_symmetry_space_group_name_H-M "P 42/N B C"
_symmetry_group_IT_number 133
_space_group.IT_coordinate_system_code '2'
_symmetry_cell_setting 'tetragonal'
loop_
_space_group_symop_operation_xyz
x,y,z
1/2-y,x,1/2+z
1/2-x,1/2-y,z
y,1/2-x,1/2+z
x,1/2-y,-z
1/2-x,y,-z
y,x,1/2-z
1/2-y,1/2-x,1/2-z
-x,-y,-z
1/2+y,-x,1/2-z
1/2+x,1/2+y,-z
-y,1/2+x,1/2-z
-x,1/2+y,z
1/2+x,-y,z
-y,-x,1/2+z
1/2+y,1/2+x,1/2+z
loop_
_atom_site_type_symbol
_atom_site_label
_atom_site_fract_x
_atom_site_fract_y
_atom_site_fract_z
Si Si1 0.650772 0.563694 0.482264
Si Si2 0.616048 0.482812 0.369151
Si Si3 0.492177 0.281218 0.555591
Si Si4 0.187476 0.338424 0.814042
Si Si5 0.483006 0.157048 0.331191
Si Si6 0.586690 0.918289 0.094623
Si Si7 0.324708 0.619281 0.737444
O O1 0.750000 0.600867 0.500000
O O2 0.659490 0.495148 0.430259
O O3 0.582018 0.641739 0.460730
O O4 0.608932 0.528000 0.540543
O O5 0.595670 0.581552 0.341646
O O6 0.513245 0.446624 0.380288
O O7 0.665356 0.418650 0.324728
O O8 0.545651 0.250000 0.500000
O O9 0.537176 0.321892 0.611217
O O10 0.436804 0.189584 0.572136
O O11 0.250000 0.250000 0.827129
O O12 0.162761 0.337240 0.750000
O O13 0.249871 0.428759 0.818969
O O14 0.102272 0.345334 0.856403
O O15 0.548164 0.131051 0.280856
O O16 0.218729 0.630051 0.755255
#
# Coordination Sequence:
#
# PCOD9567782 Si02
#       7
#    16  16  16  16  16  16  16
#     4  10  22  36  61  93 127 169 212 265 329 393
#     4  11  24  41  62  92 133 168 215 274 333 398
#     4   8  17  35  58  85 121 160 202 250 302 382
#     4  10  23  36  61  94 132 172 213 265 337 410
#     4  10  22  40  60  92 128 163 205 266 327 395
#     4  10  21  37  60  89 128 171 212 256 327 396
#     4  11  25  44  67  89 120 170 227 278 330 398
#
# _framework density 21.863173
#
# number of rings (size 3 to 8) (size 9 to 14) (size 15 to 20)
#    0.000    2.000    0.000    2.571   10.000    5.429 
#    0.000    0.000    0.000    0.000    0.000    1.000 
#    0.000    0.000    0.000    0.000    0.000    0.000 
#
# Total GULP energy -624894.897283 kJ/mol
# GULP energy per Si atom -5579.418726 kJ/mol
# Density = 2.181341 g / cm^3
# Si number density = 21.863173 Si / 1000 Ang^3
#
#
#
# Elastic Constant Matrix: (Units=GPa)
#
#
# Indices 1 2 3 4 5 6 
#
# 1 37.4867 10.8381 39.0164 0.0000 0.0000 0.0000
# 2 10.8381 37.4872 39.0158 0.0000 0.0000 0.0000
# 3 39.0164 39.0158 143.5378 0.0000 0.0000 0.0000
# 4 0.0000 0.0000 0.0000 1498.6787 0.0000 0.0000
# 5 0.0000 0.0000 0.0000 0.0000 1497.6867 0.0000
# 6 0.0000 0.0000 0.0000 0.0000 0.0000 -6.3292
#
#
#
# Elastic Compliance Matrix: (Units=1/GPa)
#
#
# Indices 1 2 3 4 5 6 
#
# 1 0.037203 -0.000322 -0.010025 0.000000 0.000000 0.000000
# 2 -0.000322 0.037202 -0.010025 0.000000 0.000000 0.000000
# 3 -0.010025 -0.010025 0.012417 0.000000 0.000000 0.000000
# 4 0.000000 0.000000 0.000000 0.000667 0.000000 0.000000
# 5 0.000000 0.000000 0.000000 0.000000 0.000668 0.000000
# 6 0.000000 0.000000 0.000000 0.000000 0.000000 -0.157997
#
#
# Mechanical properties :
#
#
# Convention : Reuss Voigt Hill
#
# Bulk Modulus (GPa) = 21.70200 44.02805 32.86503
# Shear Modulus (GPa) = -363.99024 606.64999 121.32988
#
# Velocity S-wave (km/s) = -12.91693 16.67567 7.45758
# Velocity P-wave (km/s) = 14.57789 19.77252 9.44557
#
# Compressibility (1/GPa) = 0.04607870
#
# Stress axis : x y z
#
# Youngs Moduli (GPa) = 26.87925 26.88010 80.53696
#
# Poissons Ratio (x) = 0.00866 0.80739
# Poissons Ratio (y) = 0.00866 0.80735
# Poissons Ratio (z) = 0.26947 0.26946
#
# Static dielectric constant tensor:
#      x y z
#    x 1.818410 0.000000 0.000000 
#    y 0.000000 1.818410 0.000000 
#    z 0.000000 0.000000 1.928180 
# 
# From -- ./inp_files/7246.got.cif
#   From: 2010.05.17/outbox.cif.g08.bks.cpg/sg133_4_cif.got.tgz:7246.got - 2010.05.20 12:37:36.
