data_PCOD9567960
_publ_section_title
;
Structure prediction by ZEFSAII (Michael W. Deem and Ramdas Pophale) SiO2 
 PCOD9567960
Probable space group: P 42/N B C
;
_chemical_formula_sum "Si O2"
_cell_formula_units_Z 96
_cell_length_a 14.642233
_cell_length_b 14.642233
_cell_length_c 21.754598
_cell_angle_alpha 90.000000
_cell_angle_beta 90.000000
_cell_angle_gamma 90.000000
_cell_volume 4664.076760
_symmetry_space_group_name_H-M "P 42/N B C"
_symmetry_group_IT_number 133
_space_group.IT_coordinate_system_code '2'
_symmetry_cell_setting 'tetragonal'
loop_
_space_group_symop_operation_xyz
x,y,z
1/2-y,x,1/2+z
1/2-x,1/2-y,z
y,1/2-x,1/2+z
x,1/2-y,-z
1/2-x,y,-z
y,x,1/2-z
1/2-y,1/2-x,1/2-z
-x,-y,-z
1/2+y,-x,1/2-z
1/2+x,1/2+y,-z
-y,1/2+x,1/2-z
-x,1/2+y,z
1/2+x,-y,z
-y,-x,1/2+z
1/2+y,1/2+x,1/2+z
loop_
_atom_site_type_symbol
_atom_site_label
_atom_site_fract_x
_atom_site_fract_y
_atom_site_fract_z
Si Si1 0.143544 0.028337 0.997161
Si Si2 0.666950 0.815945 0.609667
Si Si3 0.763201 0.004059 0.337251
Si Si4 0.978403 0.461869 0.185136
Si Si5 0.198967 0.075554 0.214358
Si Si6 0.982383 0.413724 0.918588
O O1 0.149274 0.110983 0.948552
O O2 0.085437 0.941223 0.973585
O O3 0.250000 0.001167 0.000000
O O4 0.084959 0.069192 0.054414
O O5 0.750000 0.750000 0.591260
O O6 0.710613 0.902260 0.642745
O O7 0.602513 0.765189 0.659350
O O8 0.732325 0.994451 0.266624
O O9 0.861313 0.053097 0.334816
O O10 0.682761 0.032172 0.384096
O O11 0.893048 0.529620 0.189919
O O12 0.032160 0.467841 0.250000
O O13 0.037378 0.508782 0.132342
O O14 0.167079 0.167079 0.250000
#
# Coordination Sequence:
#
# PCOD9567960 Si02
#       6
#    16  16  16  16  16  16
#     4  11  25  44  67  94 141 187 226 281 346 403
#     4  12  22  37  66 105 134 165 225 288 349 402
#     4  12  23  37  68 100 131 179 227 277 343 417
#     4  11  21  42  65  98 135 181 213 282 358 408
#     4  11  21  36  62  97 146 167 213 280 355 410
#     4  11  24  46  64  99 137 180 227 285 337 410
#
# _framework density 20.582851000000002
#
# number of rings (size 3 to 8) (size 9 to 14) (size 15 to 20)
#    0.000    0.667    6.667    3.500    0.000    2.333 
#    0.000    0.000    0.000   11.500    0.000    0.000 
#    0.000    0.000    0.000    0.000    0.000    0.000 
#
# Total GULP energy -535722.273566 kJ/mol
# GULP energy per Si atom -5580.440350 kJ/mol
# Density = 2.053600 g / cm^3
# Si number density = 20.582851 Si / 1000 Ang^3
#
#
#
# Elastic Constant Matrix: (Units=GPa)
#
#
# Indices 1 2 3 4 5 6 
#
# 1 75.1016 8.6946 30.3720 0.0000 0.0000 0.0000
# 2 8.6946 75.1016 30.3720 0.0000 0.0000 0.0000
# 3 30.3720 30.3720 99.5881 0.0000 0.0000 0.0000
# 4 0.0000 0.0000 0.0000 29.5011 0.0000 0.0000
# 5 0.0000 0.0000 0.0000 0.0000 29.5009 0.0000
# 6 0.0000 0.0000 0.0000 0.0000 0.0000 27.1149
#
#
#
# Elastic Compliance Matrix: (Units=1/GPa)
#
#
# Indices 1 2 3 4 5 6 
#
# 1 0.015190 0.000131 -0.004672 0.000000 0.000000 0.000000
# 2 0.000131 0.015190 -0.004672 0.000000 0.000000 0.000000
# 3 -0.004672 -0.004672 0.012891 0.000000 0.000000 0.000000
# 4 0.000000 0.000000 0.000000 0.033897 0.000000 0.000000
# 5 0.000000 0.000000 0.000000 0.000000 0.033897 0.000000
# 6 0.000000 0.000000 0.000000 0.000000 0.000000 0.036880
#
#
# Mechanical properties :
#
#
# Convention : Reuss Voigt Hill
#
# Bulk Modulus (GPa) = 40.25270 43.18536 41.71903
# Shear Modulus (GPa) = 28.62802 29.24689 28.93746
#
# Velocity S-wave (km/s) = 3.73348 3.77362 3.75360
# Velocity P-wave (km/s) = 6.17932 6.32564 6.25291
#
# Compressibility (1/GPa) = 0.02484305
#
# Stress axis : x y z
#
# Youngs Moduli (GPa) = 65.83395 65.83398 77.57139
#
# Poissons Ratio (x) = -0.00863 0.36245
# Poissons Ratio (y) = -0.00863 0.36245
# Poissons Ratio (z) = 0.30761 0.30761
#
# Static dielectric constant tensor:
#      x y z
#    x 1.770320 0.000000 0.000000 
#    y 0.000000 1.770320 0.000000 
#    z 0.000000 0.000000 1.829130 
# 
# From -- ./inp_files/6526.got.cif
#   From: 2010.05.17/outbox.cif.g08.bks.cpg/sg133_4_cif.got.tgz:6526.got - 2010.05.20 12:37:36.
