data_PCOD9567711
_publ_section_title
;
Structure prediction by ZEFSAII (Michael W. Deem and Ramdas Pophale) SiO2 
 PCOD9567711
Probable space group: P 42/N B C
;
_chemical_formula_sum "Si O2"
_cell_formula_units_Z 112
_cell_length_a 14.566035
_cell_length_b 14.566035
_cell_length_c 25.733116
_cell_angle_alpha 90.000000
_cell_angle_beta 90.000000
_cell_angle_gamma 90.000000
_cell_volume 5459.779155
_symmetry_space_group_name_H-M "P 42/N B C"
_symmetry_group_IT_number 133
_space_group.IT_coordinate_system_code '2'
_symmetry_cell_setting 'tetragonal'
loop_
_space_group_symop_operation_xyz
x,y,z
1/2-y,x,1/2+z
1/2-x,1/2-y,z
y,1/2-x,1/2+z
x,1/2-y,-z
1/2-x,y,-z
y,x,1/2-z
1/2-y,1/2-x,1/2-z
-x,-y,-z
1/2+y,-x,1/2-z
1/2+x,1/2+y,-z
-y,1/2+x,1/2-z
-x,1/2+y,z
1/2+x,-y,z
-y,-x,1/2+z
1/2+y,1/2+x,1/2+z
loop_
_atom_site_type_symbol
_atom_site_label
_atom_site_fract_x
_atom_site_fract_y
_atom_site_fract_z
Si Si1 0.647990 0.967727 0.892423
Si Si2 0.023378 0.021778 0.059560
Si Si3 0.140911 0.351166 0.002380
Si Si4 0.555204 0.632420 0.802110
Si Si5 0.148519 0.969481 0.134283
Si Si6 0.337570 0.625402 0.242536
Si Si7 0.692275 0.842699 0.689333
O O1 0.566100 0.039892 0.904873
O O2 0.630743 0.902983 0.942742
O O3 0.748614 0.012434 0.886373
O O4 0.641983 0.899932 0.843308
O O5 0.080966 0.941850 0.087772
O O6 0.099115 0.099437 0.047968
O O7 0.000000 0.000000 0.000000
O O8 0.100483 0.250000 0.000000
O O9 0.250000 0.346066 0.000000
O O10 0.615824 0.615824 0.750000
O O11 0.599367 0.561382 0.842481
O O12 0.451030 0.620789 0.781677
O O13 0.574738 0.736261 0.818799
O O14 0.145664 0.902935 0.183195
O O15 0.227229 0.625996 0.248168
O O16 0.750000 0.750000 0.674233
O O17 0.667074 0.832927 0.750000
#
# Coordination Sequence:
#
# PCOD9567711 Si02
#       7
#    16  16  16  16  16  16  16
#     4  11  23  37  64  93 130 176 210 267 341 404
#     4  10  24  42  59  96 128 167 219 268 339 409
#     4  10  21  38  64  93 127 166 214 284 340 396
#     4  10  20  36  57  88 128 163 209 270 317 389
#     4  11  22  40  64  94 127 170 218 273 338 396
#     4  10  24  44  62  88 130 182 229 270 320 400
#     4  11  19  34  56  92 135 168 203 257 326 394
#
# _framework density 20.513650999999999
#
# number of rings (size 3 to 8) (size 9 to 14) (size 15 to 20)
#    0.000    1.571    4.286    0.857    8.000    0.000 
#    0.000    0.000    0.000    0.000    0.000    4.000 
#    0.000    0.000    0.000    0.000    0.000    0.000 
#
# Total GULP energy -624079.700260 kJ/mol
# GULP energy per Si atom -5572.140181 kJ/mol
# Density = 2.046696 g / cm^3
# Si number density = 20.513651 Si / 1000 Ang^3
#
#
#
# Elastic Constant Matrix: (Units=GPa)
#
#
# Indices 1 2 3 4 5 6 
#
# 1 63.0834 6.7956 30.0923 0.0000 0.0000 0.0000
# 2 6.7956 63.0833 30.0925 0.0000 0.0000 0.0000
# 3 30.0923 30.0925 117.2692 0.0000 0.0000 0.0000
# 4 0.0000 0.0000 0.0000 17.6169 0.0000 0.0000
# 5 0.0000 0.0000 0.0000 0.0000 17.6168 0.0000
# 6 0.0000 0.0000 0.0000 0.0000 0.0000 10.3979
#
#
#
# Elastic Compliance Matrix: (Units=1/GPa)
#
#
# Indices 1 2 3 4 5 6 
#
# 1 0.018068 0.000302 -0.004714 0.000000 0.000000 0.000000
# 2 0.000302 0.018068 -0.004714 0.000000 0.000000 0.000000
# 3 -0.004714 -0.004714 0.010947 0.000000 0.000000 0.000000
# 4 0.000000 0.000000 0.000000 0.056764 0.000000 0.000000
# 5 0.000000 0.000000 0.000000 0.000000 0.056764 0.000000
# 6 0.000000 0.000000 0.000000 0.000000 0.000000 0.096174
#
#
# Mechanical properties :
#
#
# Convention : Reuss Voigt Hill
#
# Bulk Modulus (GPa) = 34.68417 41.93296 38.30857
# Shear Modulus (GPa) = 17.56564 20.89000 19.22782
#
# Velocity S-wave (km/s) = 2.92942 3.19462 3.06489
# Velocity P-wave (km/s) = 5.32790 5.83895 5.58927
#
# Compressibility (1/GPa) = 0.02883160
#
# Stress axis : x y z
#
# Youngs Moduli (GPa) = 55.34595 55.34580 91.35142
#
# Poissons Ratio (x) = -0.01673 0.43063
# Poissons Ratio (y) = -0.01673 0.43064
# Poissons Ratio (z) = 0.26090 0.26090
#
# Static dielectric constant tensor:
#      x y z
#    x 2.318870 0.000000 0.000000 
#    y 0.000000 2.318890 0.000000 
#    z 0.000000 0.000000 1.829490 
# 
# From -- ./inp_files/7639.got.cif
#   From: 2010.05.17/outbox.cif.g08.bks.cpg/sg133_4_cif.got.tgz:7639.got - 2010.05.20 12:37:36.
