data_PCOD9567026
_publ_section_title
;
Structure prediction by ZEFSAII (Michael W. Deem and Ramdas Pophale) SiO2 
 PCOD9567026
Probable space group: P 42/M C M
;
_chemical_formula_sum "Si O2"
_cell_formula_units_Z 96
_cell_length_a 25.621697
_cell_length_b 25.621697
_cell_length_c 8.489520
_cell_angle_alpha 90.000000
_cell_angle_beta 90.000000
_cell_angle_gamma 90.000000
_cell_volume 5573.126716
_symmetry_space_group_name_H-M "P 42/M C M"
_symmetry_group_IT_number 132
_symmetry_cell_setting 'tetragonal'
loop_
_space_group_symop_operation_xyz
x,y,z
-y,x,1/2+z
-x,-y,z
y,-x,1/2+z
x,-y,1/2-z
-x,y,1/2-z
y,x,-z
-y,-x,-z
-x,-y,-z
y,-x,1/2-z
x,y,-z
-y,x,1/2-z
-x,y,1/2+z
x,-y,1/2+z
-y,-x,z
y,x,z
loop_
_atom_site_type_symbol
_atom_site_label
_atom_site_fract_x
_atom_site_fract_y
_atom_site_fract_z
Si Si1 0.262094 0.942275 0.689462
Si Si2 0.942633 0.858448 0.810018
Si Si3 0.842970 0.322978 0.811713
Si Si4 0.337350 0.337350 0.691251
Si Si5 0.744528 0.744528 0.184324
Si Si6 0.175034 0.556358 0.190542
Si Si7 0.704729 0.447529 0.188014
O O1 0.264899 0.940923 0.500000
O O2 0.201560 0.932596 0.737434
O O3 0.298189 0.897701 0.760876
O O4 0.275950 0.000000 0.750000
O O5 0.898130 0.898130 0.754173
O O6 0.000000 0.873400 0.750000
O O7 0.943236 0.859581 0.000000
O O8 0.797394 0.283359 0.750473
O O9 0.842130 0.384587 0.759927
O O10 0.837048 0.324131 0.000000
O O11 0.330812 0.330812 0.500000
O O12 0.298709 0.298709 0.777848
O O13 0.395712 0.324021 0.735796
O O14 0.753285 0.753285 0.000000
O O15 0.152363 0.500000 0.250000
O O16 0.235485 0.555474 0.243759
O O17 0.171830 0.554908 0.000000
O O18 0.679825 0.500000 0.250000
O O19 0.706599 0.449080 0.000000
#
# Coordination Sequence:
#
# PCOD9567026 Si02
#       7
#    16  16  16   8   8  16  16
#     4  10  21  38  59  82 109 145 186 227 271 322
#     4   9  19  35  53  75 106 139 176 224 268 313
#     4  11  22  38  57  81 113 148 181 222 274 326
#     4  10  18  34  52  69 103 142 173 215 271 324
#     4  12  24  34  50  82 115 145 179 221 269 324
#     4   9  18  32  52  76 107 141 174 214 262 320
#     4   9  17  30  48  69  97 134 174 215 262 318
#
# _framework density 17.225519999999999
#
# number of rings (size 3 to 8) (size 9 to 14) (size 15 to 20)
#    0.000    2.167    1.667    1.750    1.167    3.167 
#    0.000    0.833    0.000    0.750    0.000    5.250 
#    0.000    0.000    0.000    0.000    0.000    0.000 
#
# Total GULP energy -534666.256032 kJ/mol
# GULP energy per Si atom -5569.440167 kJ/mol
# Density = 1.718631 g / cm^3
# Si number density = 17.225520 Si / 1000 Ang^3
#
#
#
# Elastic Constant Matrix: (Units=GPa)
#
#
# Indices 1 2 3 4 5 6 
#
# 1 123.3858 93.7578 27.9713 0.0000 0.0000 0.0000
# 2 93.7578 123.3858 27.9713 0.0000 0.0000 0.0000
# 3 27.9713 27.9713 30.0745 0.0000 0.0000 0.0000
# 4 0.0000 0.0000 0.0000 26.1837 0.0000 0.0000
# 5 0.0000 0.0000 0.0000 0.0000 26.1837 0.0000
# 6 0.0000 0.0000 0.0000 0.0000 0.0000 10.5400
#
#
#
# Elastic Compliance Matrix: (Units=1/GPa)
#
#
# Indices 1 2 3 4 5 6 
#
# 1 0.019904 -0.013848 -0.005633 0.000000 0.000000 0.000000
# 2 -0.013848 0.019904 -0.005633 0.000000 0.000000 0.000000
# 3 -0.005633 -0.005633 0.043729 0.000000 0.000000 0.000000
# 4 0.000000 0.000000 0.000000 0.038192 0.000000 0.000000
# 5 0.000000 0.000000 0.000000 0.000000 0.038192 0.000000
# 6 0.000000 0.000000 0.000000 0.000000 0.000000 0.094877
#
#
# Mechanical properties :
#
#
# Convention : Reuss Voigt Hill
#
# Bulk Modulus (GPa) = 30.02097 64.02745 47.02421
# Shear Modulus (GPa) = 15.81640 21.05786 18.43713
#
# Velocity S-wave (km/s) = 3.03346 3.50019 3.27515
# Velocity P-wave (km/s) = 5.45300 7.32024 6.45450
#
# Compressibility (1/GPa) = 0.03331005
#
# Stress axis : x y z
#
# Youngs Moduli (GPa) = 50.24075 50.24075 22.86821
#
# Poissons Ratio (x) = 0.69572 0.12881
# Poissons Ratio (y) = 0.69572 0.12881
# Poissons Ratio (z) = 0.28300 0.28300
#
# Static dielectric constant tensor:
#      x y z
#    x 1.585440 0.000000 0.000000 
#    y 0.000000 1.585440 0.000000 
#    z 0.000000 0.000000 1.592610 
# 
# From -- ./inp_files/1860.got.cif
#   From: 2010.05.17/outbox.cif.g08.bks.cpg/sg132_1_cif.got.tgz:1860.got - 2010.05.20 12:30:18.
