data_PCOD9567583
_publ_section_title
;
Structure prediction by ZEFSAII (Michael W. Deem and Ramdas Pophale) SiO2 
 PCOD9567583
Probable space group: P 42/N B C
;
_chemical_formula_sum "Si O2"
_cell_formula_units_Z 80
_cell_length_a 14.185643
_cell_length_b 14.185643
_cell_length_c 20.691343
_cell_angle_alpha 90.000000
_cell_angle_beta 90.000000
_cell_angle_gamma 90.000000
_cell_volume 4163.770004
_symmetry_space_group_name_H-M "P 42/N B C"
_symmetry_group_IT_number 133
_space_group.IT_coordinate_system_code '2'
_symmetry_cell_setting 'tetragonal'
loop_
_space_group_symop_operation_xyz
x,y,z
1/2-y,x,1/2+z
1/2-x,1/2-y,z
y,1/2-x,1/2+z
x,1/2-y,-z
1/2-x,y,-z
y,x,1/2-z
1/2-y,1/2-x,1/2-z
-x,-y,-z
1/2+y,-x,1/2-z
1/2+x,1/2+y,-z
-y,1/2+x,1/2-z
-x,1/2+y,z
1/2+x,-y,z
-y,-x,1/2+z
1/2+y,1/2+x,1/2+z
loop_
_atom_site_type_symbol
_atom_site_label
_atom_site_fract_x
_atom_site_fract_y
_atom_site_fract_z
Si Si1 0.343921 0.002888 0.772046
Si Si2 0.299983 0.651339 0.937182
Si Si3 0.507476 0.849352 0.011745
Si Si4 0.645160 0.043704 0.812756
Si Si5 0.018987 0.531601 0.393037
O O1 0.380528 0.915486 0.728195
O O2 0.229810 0.006624 0.773340
O O3 0.383651 0.979013 0.843050
O O4 0.402795 0.097206 0.750000
O O5 0.250000 0.750000 0.926402
O O6 0.407407 0.671727 0.955330
O O7 0.302813 0.592696 0.872570
O O8 0.250000 0.605257 0.000000
O O9 0.547919 0.927443 0.060827
O O10 0.558641 0.750000 0.000000
O O11 0.484723 0.897484 0.943363
O O12 0.562108 0.984760 0.847850
#
# Coordination Sequence:
#
# PCOD9567583 Si02
#       5
#    16  16  16  16  16
#     4  10  22  38  55  83 115 155 201 245 294 356
#     4  10  18  29  50  90 118 138 180 235 312 356
#     4  10  18  33  57  83 117 154 188 240 295 368
#     4  10  22  35  57  81 118 155 192 246 300 357
#     4   9  21  37  55  84 118 157 192 237 307 355
#
# _framework density 19.213356999999998
#
# number of rings (size 3 to 8) (size 9 to 14) (size 15 to 20)
#    0.000    2.200    2.000    1.200    2.800    3.200 
#    0.000    0.000    0.000   15.000    0.000    0.000 
#    0.000    0.000    0.000    0.000    0.000    0.000 
#
# Total GULP energy -445494.553380 kJ/mol
# GULP energy per Si atom -5568.681917 kJ/mol
# Density = 1.916963 g / cm^3
# Si number density = 19.213357 Si / 1000 Ang^3
#
#
#
# Elastic Constant Matrix: (Units=GPa)
#
#
# Indices 1 2 3 4 5 6 
#
# 1 71.0958 27.2040 14.5213 0.0000 0.0000 0.0000
# 2 27.2040 71.0955 14.5222 0.0000 0.0000 0.0000
# 3 14.5213 14.5222 59.8589 0.0000 0.0000 0.0000
# 4 0.0000 0.0000 0.0000 16.0208 0.0000 0.0000
# 5 0.0000 0.0000 0.0000 0.0000 16.0211 0.0000
# 6 0.0000 0.0000 0.0000 0.0000 0.0000 -7.6025
#
#
#
# Elastic Compliance Matrix: (Units=1/GPa)
#
#
# Indices 1 2 3 4 5 6 
#
# 1 0.016871 -0.005912 -0.002658 0.000000 0.000000 0.000000
# 2 -0.005912 0.016871 -0.002659 0.000000 0.000000 0.000000
# 3 -0.002658 -0.002659 0.017996 0.000000 0.000000 0.000000
# 4 0.000000 0.000000 0.000000 0.062419 0.000000 0.000000
# 5 0.000000 0.000000 0.000000 0.000000 0.062418 0.000000
# 6 0.000000 0.000000 0.000000 0.000000 0.000000 -0.131535
#
#
# Mechanical properties :
#
#
# Convention : Reuss Voigt Hill
#
# Bulk Modulus (GPa) = 34.15450 34.94946 34.55198
# Shear Modulus (GPa) = 64.71822 14.60804 39.66313
#
# Velocity S-wave (km/s) = 5.81009 2.76036 4.54844
# Velocity P-wave (km/s) = 7.92619 5.32814 6.75328
#
# Compressibility (1/GPa) = 0.02927872
#
# Stress axis : x y z
#
# Youngs Moduli (GPa) = 59.27388 59.27322 55.56829
#
# Poissons Ratio (x) = 0.35045 0.14772
# Poissons Ratio (y) = 0.35046 0.14774
# Poissons Ratio (z) = 0.15757 0.15759
#
# Static dielectric constant tensor:
#      x y z
#    x 1.752670 0.000000 0.000000 
#    y 0.000000 1.752670 0.000000 
#    z 0.000000 0.000000 1.709980 
# 
# From -- ./inp_files/6344.got.cif
#   From: 2010.05.17/outbox.cif.g08.bks.cpg/sg133_4_cif.got.tgz:6344.got - 2010.05.20 12:37:36.
