data_PCOD9567187
_publ_section_title
;
Structure prediction by ZEFSAII (Michael W. Deem and Ramdas Pophale) SiO2 
 PCOD9567187
Probable space group: P 42/M C M
;
_chemical_formula_sum "Si O2"
_cell_formula_units_Z 60
_cell_length_a 11.954444
_cell_length_b 11.954444
_cell_length_c 21.471000
_cell_angle_alpha 90.000000
_cell_angle_beta 90.000000
_cell_angle_gamma 90.000000
_cell_volume 3068.393371
_symmetry_space_group_name_H-M "P 42/M C M"
_symmetry_group_IT_number 132
_symmetry_cell_setting 'tetragonal'
loop_
_space_group_symop_operation_xyz
x,y,z
-y,x,1/2+z
-x,-y,z
y,-x,1/2+z
x,-y,1/2-z
-x,y,1/2-z
y,x,-z
-y,-x,-z
-x,-y,-z
y,-x,1/2-z
x,y,-z
-y,x,1/2-z
-x,y,1/2+z
x,-y,1/2+z
-y,-x,z
y,x,z
loop_
_atom_site_type_symbol
_atom_site_label
_atom_site_fract_x
_atom_site_fract_y
_atom_site_fract_z
Si Si1 0.776105 0.413256 0.124052
Si Si2 0.912059 0.087942 0.388362
Si Si3 0.500000 0.312462 0.750000
Si Si4 0.932958 0.751387 0.692266
Si Si5 0.209770 0.209770 0.000000
Si Si6 0.134362 0.530190 0.500000
O O1 0.667847 0.332154 0.114350
O O2 0.752958 0.489208 0.185053
O O3 0.878398 0.335365 0.145396
O O4 0.810325 0.476761 0.061838
O O5 0.845352 0.154649 0.439551
O O6 0.982815 0.170216 0.345096
O O7 0.000000 0.000000 0.417260
O O8 0.391776 0.391776 0.753618
O O9 0.831131 0.831131 0.715341
O O10 0.000000 0.700517 0.750000
O O11 0.339732 0.171987 0.000000
O O12 0.000000 0.500000 0.500000
#
# Coordination Sequence:
#
# PCOD9567187 Si02
#       6
#    16   8   8  16   4   8
#     4  10  23  42  65  91 125 175 217 264 333 392
#     4  10  21  38  64  89 133 166 215 257 319 405
#     4   9  20  40  65  92 122 154 211 278 321 380
#     4  10  19  35  62  96 128 167 210 270 324 394
#     4  12  27  42  63  96 118 184 218 270 337 382
#     4  12  27  46  63  94 138 168 222 280 325 396
#
# _framework density 19.554207000000002
#
# number of rings (size 3 to 8) (size 9 to 14) (size 15 to 20)
#    0.000    1.733    1.333    2.200    1.867    4.267 
#    0.000    6.000    0.000    0.000    0.000    0.000 
#    0.000    0.000    0.000    0.000    0.000    0.000 
#
# Total GULP energy -334991.403288 kJ/mol
# GULP energy per Si atom -5583.190055 kJ/mol
# Density = 1.950970 g / cm^3
# Si number density = 19.554207 Si / 1000 Ang^3
#
#
#
# Elastic Constant Matrix: (Units=GPa)
#
#
# Indices 1 2 3 4 5 6 
#
# 1 97.6770 47.3063 68.1599 0.0000 0.0000 0.0000
# 2 47.3063 97.6770 68.1599 0.0000 0.0000 0.0000
# 3 68.1599 68.1599 155.2188 0.0000 0.0000 0.0000
# 4 0.0000 0.0000 0.0000 -6.4725 0.0000 0.0000
# 5 0.0000 0.0000 0.0000 0.0000 -6.4725 0.0000
# 6 0.0000 0.0000 0.0000 0.0000 0.0000 -139.6311
#
#
#
# Elastic Compliance Matrix: (Units=1/GPa)
#
#
# Indices 1 2 3 4 5 6 
#
# 1 0.015800 -0.004053 -0.005159 0.000000 0.000000 0.000000
# 2 -0.004053 0.015800 -0.005159 0.000000 0.000000 0.000000
# 3 -0.005159 -0.005159 0.010973 0.000000 0.000000 0.000000
# 4 0.000000 0.000000 0.000000 -0.154501 0.000000 0.000000
# 5 0.000000 0.000000 0.000000 0.000000 -0.154501 0.000000
# 6 0.000000 0.000000 0.000000 0.000000 0.000000 -0.007162
#
#
# Mechanical properties :
#
#
# Convention : Reuss Voigt Hill
#
# Bulk Modulus (GPa) = 72.28635 79.75834 76.02235
# Shear Modulus (GPa) = -20.81266 -19.38542 -20.09904
#
# Velocity S-wave (km/s) = -3.26599 -3.15202 -3.20951
# Velocity P-wave (km/s) = 4.77757 5.25642 5.02270
#
# Compressibility (1/GPa) = 0.01383387
#
# Stress axis : x y z
#
# Youngs Moduli (GPa) = 63.28998 63.28998 91.13186
#
# Poissons Ratio (x) = 0.25648 0.47012
# Poissons Ratio (y) = 0.25648 0.47012
# Poissons Ratio (z) = 0.32649 0.32649
#
# Static dielectric constant tensor:
#      x y z
#    x 1.703080 0.000000 0.000000 
#    y 0.000000 1.703080 0.000000 
#    z 0.000000 0.000000 1.666640 
# 
# From -- ./inp_files/7493.got.cif
#   From: 2010.05.17/outbox.cif.g08.bks.cpg/sg132_4_cif.got.tgz:7493.got - 2010.05.20 12:30:18.
