data_PCOD9567844
_publ_section_title
;
Structure prediction by ZEFSAII (Michael W. Deem and Ramdas Pophale) SiO2 
 PCOD9567844
Probable space group: P 42/N B C
;
_chemical_formula_sum "Si O2"
_cell_formula_units_Z 52
_cell_length_a 12.571218
_cell_length_b 12.571218
_cell_length_c 13.653007
_cell_angle_alpha 90.000000
_cell_angle_beta 90.000000
_cell_angle_gamma 90.000000
_cell_volume 2157.660088
_symmetry_space_group_name_H-M "P 42/N B C"
_symmetry_group_IT_number 133
_space_group.IT_coordinate_system_code '2'
_symmetry_cell_setting 'tetragonal'
loop_
_space_group_symop_operation_xyz
x,y,z
1/2-y,x,1/2+z
1/2-x,1/2-y,z
y,1/2-x,1/2+z
x,1/2-y,-z
1/2-x,y,-z
y,x,1/2-z
1/2-y,1/2-x,1/2-z
-x,-y,-z
1/2+y,-x,1/2-z
1/2+x,1/2+y,-z
-y,1/2+x,1/2-z
-x,1/2+y,z
1/2+x,-y,z
-y,-x,1/2+z
1/2+y,1/2+x,1/2+z
loop_
_atom_site_type_symbol
_atom_site_label
_atom_site_fract_x
_atom_site_fract_y
_atom_site_fract_z
Si Si1 0.564165 0.214989 0.607590
Si Si2 0.867482 0.925169 0.524175
Si Si3 0.558179 0.019270 0.848854
Si Si4 0.250000 0.750000 0.750000
O O1 0.605873 0.250000 0.500000
O O2 0.649101 0.543084 0.923411
O O3 0.515921 0.316938 0.662641
O O4 0.663575 0.190646 0.679065
O O5 0.750000 0.884771 0.500000
O O6 0.922185 0.963527 0.423782
O O7 0.871402 0.024843 0.597777
O O8 0.496248 0.003752 0.750000
#
# Coordination Sequence:
#
# PCOD9567844 Si02
#       4
#    16  16  16   4
#     4  10  23  40  64  99 134 180 237 294 357 422
#     4  10  23  43  67  96 138 183 231 298 364 429
#     4  10  22  40  64  97 131 175 232 284 350 428
#     4  12  22  40  68  94 140 188 238 304 360 442
#
# _framework density 24.100182
#
# number of rings (size 3 to 8) (size 9 to 14) (size 15 to 20)
#    0.000    1.846    0.000    2.308    0.000   17.846 
#    0.000    1.538    0.000    0.000    0.000    0.000 
#    0.000    0.000    0.000    0.000    0.000    0.000 
#
# Total GULP energy -289652.740544 kJ/mol
# GULP energy per Si atom -5570.245010 kJ/mol
# Density = 2.404533 g / cm^3
# Si number density = 24.100182 Si / 1000 Ang^3
#
#
#
# Elastic Constant Matrix: (Units=GPa)
#
#
# Indices 1 2 3 4 5 6 
#
# 1 118.2396 62.4625 52.5321 0.0000 0.0000 0.0000
# 2 62.4625 118.2392 52.5323 0.0000 0.0000 0.0000
# 3 52.5321 52.5323 151.3732 0.0000 0.0000 0.0000
# 4 0.0000 0.0000 0.0000 15.6262 0.0000 0.0000
# 5 0.0000 0.0000 0.0000 0.0000 15.6280 0.0000
# 6 0.0000 0.0000 0.0000 0.0000 0.0000 31.4895
#
#
#
# Elastic Compliance Matrix: (Units=1/GPa)
#
#
# Indices 1 2 3 4 5 6 
#
# 1 0.012431 -0.005498 -0.002406 0.000000 0.000000 0.000000
# 2 -0.005498 0.012431 -0.002406 0.000000 0.000000 0.000000
# 3 -0.002406 -0.002406 0.008276 0.000000 0.000000 0.000000
# 4 0.000000 0.000000 0.000000 0.063995 0.000000 0.000000
# 5 0.000000 0.000000 0.000000 0.000000 0.063988 0.000000
# 6 0.000000 0.000000 0.000000 0.000000 0.000000 0.031757
#
#
# Mechanical properties :
#
#
# Convention : Reuss Voigt Hill
#
# Bulk Modulus (GPa) = 79.88512 80.32287 80.10400
# Shear Modulus (GPa) = 22.97065 27.23709 25.10387
#
# Velocity S-wave (km/s) = 3.09063 3.36543 3.23096
# Velocity P-wave (km/s) = 6.77902 6.96438 6.87232
#
# Compressibility (1/GPa) = 0.01251798
#
# Stress axis : x y z
#
# Youngs Moduli (GPa) = 80.44615 80.44567 120.82967
#
# Poissons Ratio (x) = 0.44228 0.29071
# Poissons Ratio (y) = 0.44228 0.29071
# Poissons Ratio (z) = 0.19355 0.19355
#
# Static dielectric constant tensor:
#      x y z
#    x 2.086510 0.000000 0.000000 
#    y 0.000000 2.086500 0.000000 
#    z 0.000000 0.000000 1.908670 
# 
# From -- ./inp_files/3995.got.cif
#   From: 2010.05.17/outbox.cif.g08.bks.cpg/sg133_2_cif.got.tgz:3995.got - 2010.05.20 12:37:36.
