data_PCOD9567606
_publ_section_title
;
Structure prediction by ZEFSAII (Michael W. Deem and Ramdas Pophale) SiO2 
 PCOD9567606
Probable space group: P 42/N B C
;
_chemical_formula_sum "Si O2"
_cell_formula_units_Z 76
_cell_length_a 18.468312
_cell_length_b 18.468312
_cell_length_c 10.436466
_cell_angle_alpha 90.000000
_cell_angle_beta 90.000000
_cell_angle_gamma 90.000000
_cell_volume 3559.654671
_symmetry_space_group_name_H-M "P 42/N B C"
_symmetry_group_IT_number 133
_space_group.IT_coordinate_system_code '2'
_symmetry_cell_setting 'tetragonal'
loop_
_space_group_symop_operation_xyz
x,y,z
1/2-y,x,1/2+z
1/2-x,1/2-y,z
y,1/2-x,1/2+z
x,1/2-y,-z
1/2-x,y,-z
y,x,1/2-z
1/2-y,1/2-x,1/2-z
-x,-y,-z
1/2+y,-x,1/2-z
1/2+x,1/2+y,-z
-y,1/2+x,1/2-z
-x,1/2+y,z
1/2+x,-y,z
-y,-x,1/2+z
1/2+y,1/2+x,1/2+z
loop_
_atom_site_type_symbol
_atom_site_label
_atom_site_fract_x
_atom_site_fract_y
_atom_site_fract_z
Si Si1 0.500496 0.646736 0.274415
Si Si2 0.250000 0.750000 0.750000
Si Si3 0.593787 0.227405 0.648271
Si Si4 0.165861 0.165861 0.750000
Si Si5 0.148399 0.250000 0.500000
Si Si6 0.369026 0.466996 0.072382
Si Si7 0.514428 0.514428 0.750000
O O1 0.440499 0.708192 0.267028
O O2 0.579087 0.674030 0.229223
O O3 0.509932 0.626988 0.424847
O O4 0.479803 0.570295 0.215783
O O5 0.219934 0.678402 0.821661
O O6 0.589608 0.250000 0.500000
O O7 0.534082 0.163788 0.654032
O O8 0.184997 0.207609 0.618848
O O9 0.097141 0.310035 0.568851
O O10 0.446580 0.446462 0.130363
#
# Coordination Sequence:
#
# PCOD9567606 Si02
#       7
#    16   4  16   8   8  16   8
#     4   9  18  34  54  84 117 154 204 256 311 363
#     4  12  22  28  52  86 120 168 210 248 300 382
#     4  10  19  36  52  75 118 166 197 244 309 369
#     4   9  16  32  62  91 111 157 210 257 324 385
#     4  10  18  36  64  86 116 164 202 264 332 393
#     4  10  18  35  55  79 120 156 196 253 315 369
#     4  11  20  28  56  93 107 142 210 264 292 367
#
# _framework density 21.350386
#
# number of rings (size 3 to 8) (size 9 to 14) (size 15 to 20)
#    0.000    2.105    5.263    2.211    0.000    0.000 
#    0.000    0.000    0.000    6.947    0.000    0.000 
#    0.000    0.000    0.000    0.000    0.000    0.000 
#
# Total GULP energy -423142.404508 kJ/mol
# GULP energy per Si atom -5567.663217 kJ/mol
# Density = 2.130179 g / cm^3
# Si number density = 21.350386 Si / 1000 Ang^3
#
#
#
# Elastic Constant Matrix: (Units=GPa)
#
#
# Indices 1 2 3 4 5 6 
#
# 1 67.3836 70.5163 30.6705 0.0000 0.0000 0.0000
# 2 70.5163 67.3836 30.6705 0.0000 0.0000 0.0000
# 3 30.6705 30.6705 62.6956 0.0000 0.0000 0.0000
# 4 0.0000 0.0000 0.0000 13.7294 0.0000 0.0000
# 5 0.0000 0.0000 0.0000 0.0000 13.7294 0.0000
# 6 0.0000 0.0000 0.0000 0.0000 0.0000 24.0818
#
#
#
# Elastic Compliance Matrix: (Units=1/GPa)
#
#
# Indices 1 2 3 4 5 6 
#
# 1 -0.154972 0.164240 -0.004534 0.000000 0.000000 0.000000
# 2 0.164240 -0.154972 -0.004534 0.000000 0.000000 0.000000
# 3 -0.004534 -0.004534 0.020386 0.000000 0.000000 0.000000
# 4 0.000000 0.000000 0.000000 0.072837 0.000000 0.000000
# 5 0.000000 0.000000 0.000000 0.000000 0.072837 0.000000
# 6 0.000000 0.000000 0.000000 0.000000 0.000000 0.041525
#
#
# Mechanical properties :
#
#
# Convention : Reuss Voigt Hill
#
# Bulk Modulus (GPa) = 48.10752 51.24191 49.67472
# Shear Modulus (GPa) = -12.32211 14.68181 1.17985
#
# Velocity S-wave (km/s) = -2.40497 2.62517 0.74419
# Velocity P-wave (km/s) = 3.85609 5.76552 4.90463
#
# Compressibility (1/GPa) = 0.02078677
#
# Stress axis : x y z
#
# Youngs Moduli (GPa) = -6.45278 -6.45278 49.05273
#
# Poissons Ratio (x) = 1.05981 0.22241
# Poissons Ratio (y) = 1.05981 0.22241
# Poissons Ratio (z) = -0.02926 -0.02926
#
# Static dielectric constant tensor:
#      x y z
#    x 1.881370 0.000000 0.000000 
#    y 0.000000 1.881370 0.000000 
#    z 0.000000 0.000000 1.753180 
# 
# From -- ./inp_files/3276.got.cif
#   From: 2010.05.17/outbox.cif.g08.bks.cpg/sg133_2_cif.got.tgz:3276.got - 2010.05.20 12:37:36.
