data_PCOD9567346
_publ_section_title
;
Structure prediction by ZEFSAII (Michael W. Deem and Ramdas Pophale) SiO2 
 PCOD9567346
Probable space group: P 42/M C M
;
_chemical_formula_sum "Si O2"
_cell_formula_units_Z 80
_cell_length_a 12.336268
_cell_length_b 12.336268
_cell_length_c 29.224442
_cell_angle_alpha 90.000000
_cell_angle_beta 90.000000
_cell_angle_gamma 90.000000
_cell_volume 4447.478108
_symmetry_space_group_name_H-M "P 42/M C M"
_symmetry_group_IT_number 132
_symmetry_cell_setting 'tetragonal'
loop_
_space_group_symop_operation_xyz
x,y,z
-y,x,1/2+z
-x,-y,z
y,-x,1/2+z
x,-y,1/2-z
-x,y,1/2-z
y,x,-z
-y,-x,-z
-x,-y,-z
y,-x,1/2-z
x,y,-z
-y,x,1/2-z
-x,y,1/2+z
x,-y,1/2+z
-y,-x,z
y,x,z
loop_
_atom_site_type_symbol
_atom_site_label
_atom_site_fract_x
_atom_site_fract_y
_atom_site_fract_z
Si Si1 0.685954 0.134772 0.445942
Si Si2 0.872572 0.484942 0.120240
Si Si3 0.419989 0.762219 0.293082
Si Si4 0.058284 0.765729 0.702692
Si Si5 0.071594 0.750021 0.109960
O O1 0.671213 0.120257 0.500000
O O2 0.760678 0.239323 0.437707
O O3 0.572574 0.145164 0.419534
O O4 0.744877 0.030992 0.423648
O O5 0.792539 0.512360 0.161703
O O6 0.863165 0.361937 0.103861
O O7 0.000000 0.500000 0.134522
O O8 0.500000 0.753986 0.250000
O O9 0.344338 0.655663 0.297517
O O10 0.337213 0.863849 0.288564
O O11 0.136261 0.863740 0.688353
O O12 0.000000 0.792185 0.750000
O O13 0.974638 0.747039 0.661771
O O14 0.146781 0.853220 0.103304
#
# Coordination Sequence:
#
# PCOD9567346 Si02
#       5
#    16  16  16  16  16
#     4  10  21  39  64  91 117 154 202 248 297 352
#     4  10  20  37  61  82 115 156 200 242 286 344
#     4  11  23  37  57  83 114 153 199 246 295 347
#     4  11  22  35  53  79 114 157 200 239 286 350
#     4  11  23  37  57  89 122 154 193 242 301 360
#
# _framework density 17.987721000000001
#
# number of rings (size 3 to 8) (size 9 to 14) (size 15 to 20)
#    0.000    1.400    4.000    3.000    0.000    9.200 
#    0.000    1.000    0.000    1.800    0.000    1.400 
#    0.000    0.000    0.000    0.000    0.000    0.000 
#
# Total GULP energy -446806.826685 kJ/mol
# GULP energy per Si atom -5585.085334 kJ/mol
# Density = 1.794678 g / cm^3
# Si number density = 17.987721 Si / 1000 Ang^3
#
#
#
# Elastic Constant Matrix: (Units=GPa)
#
#
# Indices 1 2 3 4 5 6 
#
# 1 70.8019 38.4248 51.1136 0.0000 0.0000 0.0000
# 2 38.4248 70.8019 51.1136 0.0000 0.0000 0.0000
# 3 51.1136 51.1136 116.4730 0.0000 0.0000 0.0000
# 4 0.0000 0.0000 0.0000 9.5666 0.0000 0.0000
# 5 0.0000 0.0000 0.0000 0.0000 9.5666 0.0000
# 6 0.0000 0.0000 0.0000 0.0000 0.0000 15.9024
#
#
#
# Elastic Compliance Matrix: (Units=1/GPa)
#
#
# Indices 1 2 3 4 5 6 
#
# 1 0.023211 -0.007675 -0.006818 0.000000 0.000000 0.000000
# 2 -0.007675 0.023211 -0.006818 0.000000 0.000000 0.000000
# 3 -0.006818 -0.006818 0.014570 0.000000 0.000000 0.000000
# 4 0.000000 0.000000 0.000000 0.104531 0.000000 0.000000
# 5 0.000000 0.000000 0.000000 0.000000 0.104531 0.000000
# 6 0.000000 0.000000 0.000000 0.000000 0.000000 0.062884
#
#
# Mechanical properties :
#
#
# Convention : Reuss Voigt Hill
#
# Bulk Modulus (GPa) = 54.43548 59.93119 57.18333
# Shear Modulus (GPa) = 13.09988 14.83542 13.96765
#
# Velocity S-wave (km/s) = 2.70157 2.87497 2.78962
# Velocity P-wave (km/s) = 6.32926 6.66414 6.49886
#
# Compressibility (1/GPa) = 0.01837037
#
# Stress axis : x y z
#
# Youngs Moduli (GPa) = 43.08254 43.08254 68.63485
#
# Poissons Ratio (x) = 0.33065 0.46796
# Poissons Ratio (y) = 0.33065 0.46796
# Poissons Ratio (z) = 0.29374 0.29374
#
# Static dielectric constant tensor:
#      x y z
#    x 1.619440 0.000000 0.000000 
#    y 0.000000 1.619440 0.000000 
#    z 0.000000 0.000000 1.592820 
# 
# From -- ./inp_files/10591.got.cif
#   From: 2010.05.17/outbox.cif.g08.bks.cpg/sg132_6_cif.got.tgz:10591.got - 2010.05.20 12:30:18.
