data_PCOD9567889
_publ_section_title
;
Structure prediction by ZEFSAII (Michael W. Deem and Ramdas Pophale) SiO2 
 PCOD9567889
Probable space group: P 42/N B C
;
_chemical_formula_sum "Si O2"
_cell_formula_units_Z 112
_cell_length_a 13.535841
_cell_length_b 13.535841
_cell_length_c 26.815031
_cell_angle_alpha 90.000000
_cell_angle_beta 90.000000
_cell_angle_gamma 90.000000
_cell_volume 4913.022939
_symmetry_space_group_name_H-M "P 42/N B C"
_symmetry_group_IT_number 133
_space_group.IT_coordinate_system_code '2'
_symmetry_cell_setting 'tetragonal'
loop_
_space_group_symop_operation_xyz
x,y,z
1/2-y,x,1/2+z
1/2-x,1/2-y,z
y,1/2-x,1/2+z
x,1/2-y,-z
1/2-x,y,-z
y,x,1/2-z
1/2-y,1/2-x,1/2-z
-x,-y,-z
1/2+y,-x,1/2-z
1/2+x,1/2+y,-z
-y,1/2+x,1/2-z
-x,1/2+y,z
1/2+x,-y,z
-y,-x,1/2+z
1/2+y,1/2+x,1/2+z
loop_
_atom_site_type_symbol
_atom_site_label
_atom_site_fract_x
_atom_site_fract_y
_atom_site_fract_z
Si Si1 0.688012 0.116436 0.753024
Si Si2 0.420728 0.480283 0.300285
Si Si3 0.079351 0.353236 0.089162
Si Si4 0.645475 0.067337 0.942558
Si Si5 0.135686 0.443399 0.300245
Si Si6 0.425899 0.634707 0.560631
Si Si7 0.637284 0.936955 0.407082
O O1 0.649782 0.210654 0.721928
O O2 0.598038 0.094214 0.789928
O O3 0.713851 0.024492 0.717803
O O4 0.415806 0.415806 0.250000
O O5 0.539327 0.487097 0.309218
O O6 0.369371 0.431166 0.347170
O O7 0.129368 0.448895 0.064667
O O8 0.108735 0.351391 0.147623
O O9 0.098066 0.241797 0.071333
O O10 0.960472 0.371278 0.083741
O O11 0.753477 0.097869 0.923039
O O12 0.553663 0.120576 0.916717
O O13 0.634869 0.090154 0.001131
O O14 0.119011 0.380990 0.250000
O O15 0.542344 0.616695 0.570300
#
# Coordination Sequence:
#
# PCOD9567889 Si02
#       7
#    16  16  16  16  16  16  16
#     4   9  17  28  46  76 109 141 182 230 280 337
#     4   9  18  34  52  76 116 157 188 230 294 345
#     4  11  21  38  64  91 117 154 204 247 290 352
#     4  10  23  42  61  87 124 158 192 245 310 365
#     4   9  18  34  52  76 116 157 188 230 294 345
#     4  10  23  42  61  87 124 158 192 245 310 365
#     4  11  21  38  64  91 117 154 204 247 290 352
#
# _framework density 22.796554
#
# number of rings (size 3 to 8) (size 9 to 14) (size 15 to 20)
#    0.000    2.429    2.857    2.571    0.000    4.571 
#    0.000    4.286    0.000    0.000    0.000    0.000 
#    0.000    0.000    0.000    0.000    0.000    0.000 
#
# Total GULP energy -624189.053081 kJ/mol
# GULP energy per Si atom -5573.116545 kJ/mol
# Density = 2.274467 g / cm^3
# Si number density = 22.796554 Si / 1000 Ang^3
#
#
#
# Elastic Constant Matrix: (Units=GPa)
#
#
# Indices 1 2 3 4 5 6 
#
# 1 47.1853 -18.7592 -0.2100 0.0000 0.0000 0.0000
# 2 -18.7592 47.1854 -0.2100 0.0000 0.0000 0.0000
# 3 -0.2100 -0.2100 68.6207 0.0000 0.0000 0.0000
# 4 0.0000 0.0000 0.0000 -13.8448 0.0000 0.0000
# 5 0.0000 0.0000 0.0000 0.0000 -13.8445 0.0000
# 6 0.0000 0.0000 0.0000 0.0000 0.0000 7.4404
#
#
#
# Elastic Compliance Matrix: (Units=1/GPa)
#
#
# Indices 1 2 3 4 5 6 
#
# 1 0.025172 0.010008 0.000108 0.000000 0.000000 0.000000
# 2 0.010008 0.025172 0.000108 0.000000 0.000000 0.000000
# 3 0.000108 0.000108 0.014574 0.000000 0.000000 0.000000
# 4 0.000000 0.000000 0.000000 -0.072229 0.000000 0.000000
# 5 0.000000 0.000000 0.000000 0.000000 -0.072231 0.000000
# 6 0.000000 0.000000 0.000000 0.000000 0.000000 0.134402
#
#
# Mechanical properties :
#
#
# Convention : Reuss Voigt Hill
#
# Bulk Modulus (GPa) = 11.71440 13.84812 12.78126
# Shear Modulus (GPa) = 79.53091 8.09491 43.81291
#
# Velocity S-wave (km/s) = 5.91295 1.88644 4.38871
# Velocity P-wave (km/s) = 7.19494 3.29131 5.59463
#
# Compressibility (1/GPa) = 0.08536502
#
# Stress axis : x y z
#
# Youngs Moduli (GPa) = 39.72610 39.72617 68.61763
#
# Poissons Ratio (x) = -0.39758 -0.00739
# Poissons Ratio (y) = -0.39758 -0.00739
# Poissons Ratio (z) = -0.00428 -0.00428
#
# Static dielectric constant tensor:
#      x y z
#    x 1.927000 0.000000 0.000000 
#    y 0.000000 1.927000 0.000000 
#    z 0.000000 0.000000 1.868860 
# 
# From -- ./inp_files/7635.got.cif
#   From: 2010.05.17/outbox.cif.g08.bks.cpg/sg133_4_cif.got.tgz:7635.got - 2010.05.20 12:37:36.
