data_PCOD9567501
_publ_section_title
;
Structure prediction by ZEFSAII (Michael W. Deem and Ramdas Pophale) SiO2 
 PCOD9567501
Probable space group: P 42/M C M
;
_chemical_formula_sum "Si O2"
_cell_formula_units_Z 104
_cell_length_a 20.408176
_cell_length_b 20.408176
_cell_length_c 14.784264
_cell_angle_alpha 90.000000
_cell_angle_beta 90.000000
_cell_angle_gamma 90.000000
_cell_volume 6157.552041
_symmetry_space_group_name_H-M "P 42/M C M"
_symmetry_group_IT_number 132
_symmetry_cell_setting 'tetragonal'
loop_
_space_group_symop_operation_xyz
x,y,z
-y,x,1/2+z
-x,-y,z
y,-x,1/2+z
x,-y,1/2-z
-x,y,1/2-z
y,x,-z
-y,-x,-z
-x,-y,-z
y,-x,1/2-z
x,y,-z
-y,x,1/2-z
-x,y,1/2+z
x,-y,1/2+z
-y,-x,z
y,x,z
loop_
_atom_site_type_symbol
_atom_site_label
_atom_site_fract_x
_atom_site_fract_y
_atom_site_fract_z
Si Si1 0.351101 0.056316 0.318989
Si Si2 0.370769 0.522592 0.851827
Si Si3 0.165850 0.533045 0.500000
Si Si4 0.049427 0.436901 0.500000
Si Si5 0.731762 0.626241 0.700585
Si Si6 0.425385 0.321884 0.000000
Si Si7 0.431639 0.842942 0.300582
Si Si8 0.828288 0.274965 0.107226
O O1 0.393004 0.038734 0.409426
O O2 0.397529 0.100784 0.256318
O O3 0.291253 0.102311 0.349436
O O4 0.330212 0.000000 0.250000
O O5 0.385033 0.500000 0.750000
O O6 0.429801 0.570200 0.882977
O O7 0.304355 0.566005 0.846847
O O8 0.354903 0.461768 0.914538
O O9 0.126205 0.462616 0.500000
O O10 0.244562 0.550901 0.500000
O O11 0.141310 0.562147 0.594712
O O12 0.000000 0.500000 0.500000
O O13 0.674728 0.674728 0.729470
O O14 0.775135 0.606019 0.785333
O O15 0.779953 0.664952 0.633316
O O16 0.350094 0.350094 0.000000
O O17 0.500000 0.832197 0.250000
O O18 0.790227 0.209774 0.138652
O O19 0.834998 0.272351 0.000000
#
# Coordination Sequence:
#
# PCOD9567501 Si02
#       8
#    16  16   8   8  16   8  16  16
#     4  11  23  36  56  86 120 153 189 231 285 342
#     4  11  23  37  54  70  92 125 168 230 304 369
#     4  12  24  37  56  74  98 143 184 230 288 353
#     4  12  24  38  58  83 119 156 192 233 290 357
#     4   9  19  33  52  76 100 131 178 239 299 353
#     4  12  27  40  54  74  98 130 181 239 299 365
#     4  11  21  35  52  72 103 140 180 227 283 351
#     4   9  18  34  57  83 114 149 192 241 283 324
#
# _framework density 16.889828999999999
#
# number of rings (size 3 to 8) (size 9 to 14) (size 15 to 20)
#    0.000    1.385    2.308    3.923    3.231    3.231 
#    0.000    0.000    0.000    0.000    0.000    0.538 
#    0.000    0.308    0.000    1.692    0.000    0.000 
#
# Total GULP energy -580043.319745 kJ/mol
# GULP energy per Si atom -5577.339613 kJ/mol
# Density = 1.685139 g / cm^3
# Si number density = 16.889829 Si / 1000 Ang^3
#
#
#
# Elastic Constant Matrix: (Units=GPa)
#
#
# Indices 1 2 3 4 5 6 
#
# 1 73.8197 35.3818 29.3442 0.0000 0.0000 0.0000
# 2 35.3818 73.8197 29.3442 0.0000 0.0000 0.0000
# 3 29.3442 29.3442 118.3754 0.0000 0.0000 0.0000
# 4 0.0000 0.0000 0.0000 22.0355 0.0000 0.0000
# 5 0.0000 0.0000 0.0000 0.0000 22.0355 0.0000
# 6 0.0000 0.0000 0.0000 0.0000 0.0000 18.7618
#
#
#
# Elastic Compliance Matrix: (Units=1/GPa)
#
#
# Indices 1 2 3 4 5 6 
#
# 1 0.018290 -0.007726 -0.002619 0.000000 0.000000 0.000000
# 2 -0.007726 0.018290 -0.002619 0.000000 0.000000 0.000000
# 3 -0.002619 -0.002619 0.009746 0.000000 0.000000 0.000000
# 4 0.000000 0.000000 0.000000 0.045381 0.000000 0.000000
# 5 0.000000 0.000000 0.000000 0.000000 0.045381 0.000000
# 6 0.000000 0.000000 0.000000 0.000000 0.000000 0.053300
#
#
# Mechanical properties :
#
#
# Convention : Reuss Voigt Hill
#
# Bulk Modulus (GPa) = 49.01930 50.46171 49.74051
# Shear Modulus (GPa) = 22.40985 24.02954 23.21969
#
# Velocity S-wave (km/s) = 3.64651 3.77599 3.71182
# Velocity P-wave (km/s) = 6.84218 6.99662 6.91983
#
# Compressibility (1/GPa) = 0.02040013
#
# Stress axis : x y z
#
# Youngs Moduli (GPa) = 54.67333 54.67333 102.60489
#
# Poissons Ratio (x) = 0.42238 0.26872
# Poissons Ratio (y) = 0.42238 0.26872
# Poissons Ratio (z) = 0.14319 0.14319
#
# Static dielectric constant tensor:
#      x y z
#    x 1.627790 0.000000 0.000000 
#    y 0.000000 1.627790 0.000000 
#    z 0.000000 0.000000 1.562150 
# 
# From -- ./inp_files/5112.got.cif
#   From: 2010.05.17/outbox.cif.g08.bks.cpg/sg132_3_cif.got.tgz:5112.got - 2010.05.20 12:30:18.
