data_PCOD9567294
_publ_section_title
;
Structure prediction by ZEFSAII (Michael W. Deem and Ramdas Pophale) SiO2 
 PCOD9567294
Probable space group: P 42/M C M
;
_chemical_formula_sum "Si O2"
_cell_formula_units_Z 64
_cell_length_a 11.899810
_cell_length_b 11.899810
_cell_length_c 21.000900
_cell_angle_alpha 90.000000
_cell_angle_beta 90.000000
_cell_angle_gamma 90.000000
_cell_volume 2973.842484
_symmetry_space_group_name_H-M "P 42/M C M"
_symmetry_group_IT_number 132
_symmetry_cell_setting 'tetragonal'
loop_
_space_group_symop_operation_xyz
x,y,z
-y,x,1/2+z
-x,-y,z
y,-x,1/2+z
x,-y,1/2-z
-x,y,1/2-z
y,x,-z
-y,-x,-z
-x,-y,-z
y,-x,1/2-z
x,y,-z
-y,x,1/2-z
-x,y,1/2+z
x,-y,1/2+z
-y,-x,z
y,x,z
loop_
_atom_site_type_symbol
_atom_site_label
_atom_site_fract_x
_atom_site_fract_y
_atom_site_fract_z
Si Si1 0.538954 0.712361 0.320657
Si Si2 0.712782 0.107306 0.862182
Si Si3 0.403932 0.100985 0.500000
Si Si4 0.204068 0.376202 0.000000
Si Si5 0.677622 0.853636 0.861687
O O1 0.500000 0.683140 0.250000
O O2 0.602167 0.602167 0.348849
O O3 0.633416 0.809044 0.322595
O O4 0.431240 0.775964 0.349416
O O5 0.837256 0.162745 0.860251
O O6 0.688613 0.980911 0.838659
O O7 0.667661 0.107536 0.935552
O O8 0.490419 0.204470 0.500000
O O9 0.500000 0.000000 0.500000
O O10 0.142976 0.325347 0.938464
O O11 0.328584 0.328584 0.000000
O O12 0.783902 0.783902 0.838457
#
# Coordination Sequence:
#
# PCOD9567294 Si02
#       5
#    16  16   8   8  16
#     4  11  24  42  64  89 118 154 201 257 316 377
#     4  11  23  38  61  92 123 164 209 248 301 365
#     4  12  17  36  63  86 122 160 202 249 294 352
#     4  10  20  34  58  90 124 159 196 244 305 359
#     4  11  22  39  62  89 125 164 201 251 305 362
#
# _framework density 21.520976999999998
#
# number of rings (size 3 to 8) (size 9 to 14) (size 15 to 20)
#    0.000    1.000    5.000    1.875    0.000    4.250 
#    0.000    0.625    0.000    7.500    0.000    3.500 
#    0.000    0.000    0.000    0.000    0.000    0.000 
#
# Total GULP energy -356698.648118 kJ/mol
# GULP energy per Si atom -5573.416377 kJ/mol
# Density = 2.147199 g / cm^3
# Si number density = 21.520977 Si / 1000 Ang^3
#
#
#
# Elastic Constant Matrix: (Units=GPa)
#
#
# Indices 1 2 3 4 5 6 
#
# 1 109.0136 92.7411 16.7546 0.0000 0.0000 0.0000
# 2 92.7411 109.0136 16.7546 0.0000 0.0000 0.0000
# 3 16.7546 16.7546 23.0000 0.0000 0.0000 0.0000
# 4 0.0000 0.0000 0.0000 0.1853 0.0000 0.0000
# 5 0.0000 0.0000 0.0000 0.0000 0.1853 0.0000
# 6 0.0000 0.0000 0.0000 0.0000 0.0000 36.1486
#
#
#
# Elastic Compliance Matrix: (Units=1/GPa)
#
#
# Indices 1 2 3 4 5 6 
#
# 1 0.033546 -0.027907 -0.004108 0.000000 0.000000 0.000000
# 2 -0.027907 0.033546 -0.004108 0.000000 0.000000 0.000000
# 3 -0.004108 -0.004108 0.049463 0.000000 0.000000 0.000000
# 4 0.000000 0.000000 0.000000 5.395766 0.000000 0.000000
# 5 0.000000 0.000000 0.000000 0.000000 5.395766 0.000000
# 6 0.000000 0.000000 0.000000 0.000000 0.000000 0.027664
#
#
# Mechanical properties :
#
#
# Convention : Reuss Voigt Hill
#
# Bulk Modulus (GPa) = 22.56841 54.83643 38.70242
# Shear Modulus (GPa) = 0.45361 14.95564 7.70463
#
# Velocity S-wave (km/s) = 0.45960 2.63902 1.89416
# Velocity P-wave (km/s) = 3.28498 5.90099 4.77560
#
# Compressibility (1/GPa) = 0.04430973
#
# Stress axis : x y z
#
# Youngs Moduli (GPa) = 29.80973 29.80973 20.21727
#
# Poissons Ratio (x) = 0.83191 0.08304
# Poissons Ratio (y) = 0.83191 0.08304
# Poissons Ratio (z) = 0.12245 0.12245
#
# Static dielectric constant tensor:
#      x y z
#    x 1.843260 0.000000 0.000000 
#    y 0.000000 1.843260 0.000000 
#    z 0.000000 0.000000 1.831060 
# 
# From -- ./inp_files/8758.got.cif
#   From: 2010.05.17/outbox.cif.g08.bks.cpg/sg132_5_cif.got.tgz:8758.got - 2010.05.20 12:30:18.
