data_PCOD9567273
_publ_section_title
;
Structure prediction by ZEFSAII (Michael W. Deem and Ramdas Pophale) SiO2 
 PCOD9567273
Probable space group: P 42/M C M
;
_chemical_formula_sum "Si O2"
_cell_formula_units_Z 96
_cell_length_a 25.196279
_cell_length_b 25.196279
_cell_length_c 8.714611
_cell_angle_alpha 90.000000
_cell_angle_beta 90.000000
_cell_angle_gamma 90.000000
_cell_volume 5532.492366
_symmetry_space_group_name_H-M "P 42/M C M"
_symmetry_group_IT_number 132
_symmetry_cell_setting 'tetragonal'
loop_
_space_group_symop_operation_xyz
x,y,z
-y,x,1/2+z
-x,-y,z
y,-x,1/2+z
x,-y,1/2-z
-x,y,1/2-z
y,x,-z
-y,-x,-z
-x,-y,-z
y,-x,1/2-z
x,y,-z
-y,x,1/2-z
-x,y,1/2+z
x,-y,1/2+z
-y,-x,z
y,x,z
loop_
_atom_site_type_symbol
_atom_site_label
_atom_site_fract_x
_atom_site_fract_y
_atom_site_fract_z
Si Si1 0.661884 0.661884 0.824913
Si Si2 0.856235 0.942399 0.814627
Si Si3 0.556170 0.818084 0.324568
Si Si4 0.554508 0.310040 0.176010
Si Si5 0.672632 0.162496 0.684344
Si Si6 0.740758 0.259243 0.179212
Si Si7 0.266057 0.942753 0.315274
O O1 0.673522 0.601494 0.787296
O O2 0.696167 0.696167 0.706828
O O3 0.675866 0.675866 0.000000
O O4 0.896503 0.896503 0.763950
O O5 0.795163 0.931910 0.767844
O O6 0.871443 0.000000 0.750000
O O7 0.857504 0.944407 0.000000
O O8 0.500000 0.836063 0.250000
O O9 0.558532 0.837061 0.500000
O O10 0.553750 0.754002 0.326998
O O11 0.612098 0.831221 0.242692
O O12 0.500000 0.329001 0.250000
O O13 0.562046 0.328067 0.000000
O O14 0.672328 0.166558 0.500000
O O15 0.713651 0.207154 0.746556
O O16 0.696152 0.105403 0.731362
O O17 0.750081 0.249920 0.000000
O O18 0.266672 0.945496 0.500000
O O19 0.281446 0.000000 0.250000
#
# Coordination Sequence:
#
# PCOD9567273 Si02
#       7
#     8  16  16  16  16   8  16
#     4  12  22  34  54  77 109 146 180 223 273 326
#     4   9  18  33  52  73 102 137 177 223 269 319
#     4  10  20  34  54  79 112 146 180 221 268 324
#     4  10  20  34  52  75 106 142 183 224 269 323
#     4  11  22  36  57  83 112 147 184 225 276 330
#     4  12  24  36  50  80 117 149 181 223 276 326
#     4   9  20  37  58  80 106 143 184 225 270 326
#
# _framework density 17.352034
#
# number of rings (size 3 to 8) (size 9 to 14) (size 15 to 20)
#    0.000    1.833    1.667    3.000    1.167    3.167 
#    0.000    0.833    0.000    0.750    0.000    5.250 
#    0.000    0.000    0.000    0.000    0.000    0.000 
#
# Total GULP energy -535403.505200 kJ/mol
# GULP energy per Si atom -5577.119846 kJ/mol
# Density = 1.731254 g / cm^3
# Si number density = 17.352034 Si / 1000 Ang^3
#
#
#
# Elastic Constant Matrix: (Units=GPa)
#
#
# Indices 1 2 3 4 5 6 
#
# 1 102.5723 56.4239 34.7864 0.0000 0.0000 0.0000
# 2 56.4239 102.5724 34.7865 0.0000 0.0000 0.0000
# 3 34.7864 34.7865 71.4757 0.0000 0.0000 0.0000
# 4 0.0000 0.0000 0.0000 24.0893 0.0000 0.0000
# 5 0.0000 0.0000 0.0000 0.0000 24.0894 0.0000
# 6 0.0000 0.0000 0.0000 0.0000 0.0000 15.4205
#
#
#
# Elastic Compliance Matrix: (Units=1/GPa)
#
#
# Indices 1 2 3 4 5 6 
#
# 1 0.014830 -0.006839 -0.003889 0.000000 0.000000 0.000000
# 2 -0.006839 0.014830 -0.003889 0.000000 0.000000 0.000000
# 3 -0.003889 -0.003889 0.017777 0.000000 0.000000 0.000000
# 4 0.000000 0.000000 0.000000 0.041512 0.000000 0.000000
# 5 0.000000 0.000000 0.000000 0.000000 0.041512 0.000000
# 6 0.000000 0.000000 0.000000 0.000000 0.000000 0.064849
#
#
# Mechanical properties :
#
#
# Convention : Reuss Voigt Hill
#
# Bulk Modulus (GPa) = 54.93904 58.73491 56.83697
# Shear Modulus (GPa) = 21.68141 22.76142 22.22142
#
# Velocity S-wave (km/s) = 3.53867 3.62573 3.58246
# Velocity P-wave (km/s) = 6.95891 7.17289 7.06671
#
# Compressibility (1/GPa) = 0.01820199
#
# Stress axis : x y z
#
# Youngs Moduli (GPa) = 67.42971 67.42970 56.25404
#
# Poissons Ratio (x) = 0.46115 0.21879
# Poissons Ratio (y) = 0.46115 0.21879
# Poissons Ratio (z) = 0.26225 0.26225
#
# Static dielectric constant tensor:
#      x y z
#    x 1.582630 0.000000 0.000000 
#    y 0.000000 1.582630 0.000000 
#    z 0.000000 0.000000 1.599060 
# 
# From -- ./inp_files/1838.got.cif
#   From: 2010.05.17/outbox.cif.g08.bks.cpg/sg132_1_cif.got.tgz:1838.got - 2010.05.20 12:30:18.
