data_PCOD9567891
_publ_section_title
;
Structure prediction by ZEFSAII (Michael W. Deem and Ramdas Pophale) SiO2 
 PCOD9567891
Probable space group: P 42/N B C
;
_chemical_formula_sum "Si O2"
_cell_formula_units_Z 88
_cell_length_a 13.864799
_cell_length_b 13.864799
_cell_length_c 21.790120
_cell_angle_alpha 90.000000
_cell_angle_beta 90.000000
_cell_angle_gamma 90.000000
_cell_volume 4188.772540
_symmetry_space_group_name_H-M "P 42/N B C"
_symmetry_group_IT_number 133
_space_group.IT_coordinate_system_code '2'
_symmetry_cell_setting 'tetragonal'
loop_
_space_group_symop_operation_xyz
x,y,z
1/2-y,x,1/2+z
1/2-x,1/2-y,z
y,1/2-x,1/2+z
x,1/2-y,-z
1/2-x,y,-z
y,x,1/2-z
1/2-y,1/2-x,1/2-z
-x,-y,-z
1/2+y,-x,1/2-z
1/2+x,1/2+y,-z
-y,1/2+x,1/2-z
-x,1/2+y,z
1/2+x,-y,z
-y,-x,1/2+z
1/2+y,1/2+x,1/2+z
loop_
_atom_site_type_symbol
_atom_site_label
_atom_site_fract_x
_atom_site_fract_y
_atom_site_fract_z
Si Si1 0.644675 0.861675 0.481860
Si Si2 0.597301 0.511009 0.873478
Si Si3 0.863319 0.264569 0.573811
Si Si4 0.601377 0.898624 0.250000
Si Si5 0.470511 0.111495 0.404222
Si Si6 0.205438 0.355780 0.313152
O O1 0.648878 0.750000 0.500000
O O2 0.750000 0.903131 0.500000
O O3 0.602031 0.864497 0.413551
O O4 0.562810 0.903846 0.525851
O O5 0.635361 0.411062 0.903367
O O6 0.614792 0.519488 0.801137
O O7 0.483931 0.517441 0.879660
O O8 0.750000 0.250000 0.591698
O O9 0.866178 0.250000 0.500000
O O10 0.946885 0.192606 0.599293
O O11 0.589618 0.802425 0.207525
O O12 0.370030 0.125876 0.367165
O O13 0.250000 0.250000 0.323476
O O14 0.145002 0.354999 0.250000
#
# Coordination Sequence:
#
# PCOD9567891 Si02
#       6
#    16  16  16   8  16  16
#     4  11  23  38  69 102 134 169 222 300 355 407
#     4  12  24  44  65 101 137 181 232 281 349 431
#     4  11  24  44  67  98 145 189 227 286 360 430
#     4  10  23  42  66  96 137 166 224 294 352 418
#     4  12  23  40  70  98 133 177 230 286 347 419
#     4   9  20  37  68  94 126 166 216 282 345 398
#
# _framework density 21.008541000000001
#
# number of rings (size 3 to 8) (size 9 to 14) (size 15 to 20)
#    0.000    1.273    3.636    3.818    3.818    2.909 
#    0.000    0.000    0.000    0.000    0.000    0.000 
#    0.000    0.000    0.000    0.000    0.000    0.000 
#
# Total GULP energy -490086.817773 kJ/mol
# GULP energy per Si atom -5569.168384 kJ/mol
# Density = 2.096072 g / cm^3
# Si number density = 21.008541 Si / 1000 Ang^3
#
#
#
# Elastic Constant Matrix: (Units=GPa)
#
#
# Indices 1 2 3 4 5 6 
#
# 1 61.8621 15.0398 18.9014 0.0000 0.0000 0.0000
# 2 15.0398 61.8622 18.9017 0.0000 0.0000 0.0000
# 3 18.9014 18.9017 118.4604 0.0000 0.0000 0.0000
# 4 0.0000 0.0000 0.0000 19.7886 0.0000 0.0000
# 5 0.0000 0.0000 0.0000 0.0000 19.7883 0.0000
# 6 0.0000 0.0000 0.0000 0.0000 0.0000 12.2579
#
#
#
# Elastic Compliance Matrix: (Units=1/GPa)
#
#
# Indices 1 2 3 4 5 6 
#
# 1 0.017734 -0.003623 -0.002251 0.000000 0.000000 0.000000
# 2 -0.003623 0.017734 -0.002251 0.000000 0.000000 0.000000
# 3 -0.002251 -0.002251 0.009160 0.000000 0.000000 0.000000
# 4 0.000000 0.000000 0.000000 0.050534 0.000000 0.000000
# 5 0.000000 0.000000 0.000000 0.000000 0.050535 0.000000
# 6 0.000000 0.000000 0.000000 0.000000 0.000000 0.081580
#
#
# Mechanical properties :
#
#
# Convention : Reuss Voigt Hill
#
# Bulk Modulus (GPa) = 35.24229 38.65227 36.94728
# Shear Modulus (GPa) = 19.76378 22.98975 21.37676
#
# Velocity S-wave (km/s) = 3.07049 3.31162 3.19333
# Velocity P-wave (km/s) = 5.42053 5.74984 5.58762
#
# Compressibility (1/GPa) = 0.02837500
#
# Stress axis : x y z
#
# Youngs Moduli (GPa) = 56.38947 56.38942 109.16883
#
# Poissons Ratio (x) = 0.20433 0.24579
# Poissons Ratio (y) = 0.20433 0.24579
# Poissons Ratio (z) = 0.12696 0.12696
#
# Static dielectric constant tensor:
#      x y z
#    x 1.778200 0.000000 0.000000 
#    y 0.000000 1.778200 0.000000 
#    z 0.000000 0.000000 1.875550 
# 
# From -- ./inp_files/6451.got.cif
#   From: 2010.05.17/outbox.cif.g08.bks.cpg/sg133_4_cif.got.tgz:6451.got - 2010.05.20 12:37:36.
