data_PCOD9567926
_publ_section_title
;
Structure prediction by ZEFSAII (Michael W. Deem and Ramdas Pophale) SiO2 
 PCOD9567926
Probable space group: P 42/N B C
;
_chemical_formula_sum "Si O2"
_cell_formula_units_Z 36
_cell_length_a 13.314188
_cell_length_b 13.314188
_cell_length_c 7.860031
_cell_angle_alpha 90.000000
_cell_angle_beta 90.000000
_cell_angle_gamma 90.000000
_cell_volume 1393.328848
_symmetry_space_group_name_H-M "P 42/N B C"
_symmetry_group_IT_number 133
_space_group.IT_coordinate_system_code '2'
_symmetry_cell_setting 'tetragonal'
loop_
_space_group_symop_operation_xyz
x,y,z
1/2-y,x,1/2+z
1/2-x,1/2-y,z
y,1/2-x,1/2+z
x,1/2-y,-z
1/2-x,y,-z
y,x,1/2-z
1/2-y,1/2-x,1/2-z
-x,-y,-z
1/2+y,-x,1/2-z
1/2+x,1/2+y,-z
-y,1/2+x,1/2-z
-x,1/2+y,z
1/2+x,-y,z
-y,-x,1/2+z
1/2+y,1/2+x,1/2+z
loop_
_atom_site_type_symbol
_atom_site_label
_atom_site_fract_x
_atom_site_fract_y
_atom_site_fract_z
Si Si1 0.431441 0.250000 0.000000
Si Si2 0.601939 0.446425 0.297600
Si Si3 0.250000 0.250000 0.250000
Si Si4 0.750000 0.430594 0.000000
O O1 0.498903 0.154409 0.042102
O O2 0.353551 0.255160 0.151638
O O3 0.494093 0.494093 0.250000
O O4 0.610806 0.329811 0.355828
O O5 0.669402 0.474878 0.132296
#
# Coordination Sequence:
#
# PCOD9567926 Si02
#       4
#     8  16   4   8
#     4  11  24  45  84 122 170 223 282 349 436 518
#     4  12  28  52  84 120 169 226 286 368 440 531
#     4  10  24  46  76 130 180 222 280 354 436 530
#     4  12  30  53  80 119 168 218 294 343 456 523
#
# _framework density 25.837403999999999
#
# number of rings (size 3 to 8) (size 9 to 14) (size 15 to 20)
#    0.000    0.444    2.222    4.000    6.222    7.111 
#    4.000    0.000    0.000    2.667    0.000    0.000 
#    0.000    0.000    0.000    0.000    0.000    0.000 
#
# Total GULP energy -200569.064347 kJ/mol
# GULP energy per Si atom -5571.362899 kJ/mol
# Density = 2.577860 g / cm^3
# Si number density = 25.837404 Si / 1000 Ang^3
#
#
#
# Elastic Constant Matrix: (Units=GPa)
#
#
# Indices 1 2 3 4 5 6 
#
# 1 126.0482 29.0171 29.5950 0.0000 0.0000 0.0000
# 2 29.0171 126.0482 29.5950 0.0000 0.0000 0.0000
# 3 29.5950 29.5950 112.2580 0.0000 0.0000 0.0000
# 4 0.0000 0.0000 0.0000 40.7529 0.0000 0.0000
# 5 0.0000 0.0000 0.0000 0.0000 40.7529 0.0000
# 6 0.0000 0.0000 0.0000 0.0000 0.0000 34.1712
#
#
#
# Elastic Compliance Matrix: (Units=1/GPa)
#
#
# Indices 1 2 3 4 5 6 
#
# 1 0.008738 -0.001568 -0.001890 0.000000 0.000000 0.000000
# 2 -0.001568 0.008738 -0.001890 0.000000 0.000000 0.000000
# 3 -0.001890 -0.001890 0.009905 0.000000 0.000000 0.000000
# 4 0.000000 0.000000 0.000000 0.024538 0.000000 0.000000
# 5 0.000000 0.000000 0.000000 0.000000 0.024538 0.000000
# 6 0.000000 0.000000 0.000000 0.000000 0.000000 0.029264
#
#
# Mechanical properties :
#
#
# Convention : Reuss Voigt Hill
#
# Bulk Modulus (GPa) = 59.93687 60.08539 60.01113
# Shear Modulus (GPa) = 40.99021 41.54521 41.26771
#
# Velocity S-wave (km/s) = 3.98737 4.01427 4.00084
# Velocity P-wave (km/s) = 6.66685 6.69265 6.67976
#
# Compressibility (1/GPa) = 0.01668422
#
# Stress axis : x y z
#
# Youngs Moduli (GPa) = 114.43978 114.43978 100.96128
#
# Poissons Ratio (x) = 0.17941 0.19086
# Poissons Ratio (y) = 0.17941 0.19086
# Poissons Ratio (z) = 0.21633 0.21633
#
# Static dielectric constant tensor:
#      x y z
#    x 2.033810 0.000000 0.000000 
#    y 0.000000 2.033810 0.000000 
#    z 0.000000 0.000000 2.057570 
# 
# From -- ./inp_files/877.got.cif
#   From: 2010.05.17/outbox.cif.g08.bks.cpg/sg133_1_cif.got.tgz:877.got - 2010.05.20 12:37:36.
