data_PCOD9567603
_publ_section_title
;
Structure prediction by ZEFSAII (Michael W. Deem and Ramdas Pophale) SiO2 
 PCOD9567603
Probable space group: P 42/N B C
;
_chemical_formula_sum "Si O2"
_cell_formula_units_Z 96
_cell_length_a 20.359955
_cell_length_b 20.359955
_cell_length_c 13.349364
_cell_angle_alpha 90.000000
_cell_angle_beta 90.000000
_cell_angle_gamma 90.000000
_cell_volume 5533.682058
_symmetry_space_group_name_H-M "P 42/N B C"
_symmetry_group_IT_number 133
_space_group.IT_coordinate_system_code '2'
_symmetry_cell_setting 'tetragonal'
loop_
_space_group_symop_operation_xyz
x,y,z
1/2-y,x,1/2+z
1/2-x,1/2-y,z
y,1/2-x,1/2+z
x,1/2-y,-z
1/2-x,y,-z
y,x,1/2-z
1/2-y,1/2-x,1/2-z
-x,-y,-z
1/2+y,-x,1/2-z
1/2+x,1/2+y,-z
-y,1/2+x,1/2-z
-x,1/2+y,z
1/2+x,-y,z
-y,-x,1/2+z
1/2+y,1/2+x,1/2+z
loop_
_atom_site_type_symbol
_atom_site_label
_atom_site_fract_x
_atom_site_fract_y
_atom_site_fract_z
Si Si1 0.477919 0.213916 0.600369
Si Si2 0.580458 0.331448 0.230771
Si Si3 0.543314 0.104773 0.975604
Si Si4 0.184008 0.573566 0.335202
Si Si5 0.437700 0.162627 0.284255
Si Si6 0.041241 0.407807 0.485495
O O1 0.507145 0.250000 0.500000
O O2 0.530740 0.185222 0.678160
O O3 0.435260 0.267260 0.660060
O O4 0.438944 0.153489 0.553555
O O5 0.553285 0.375426 0.139400
O O6 0.592398 0.259591 0.182916
O O7 0.640429 0.372803 0.276448
O O8 0.467226 0.089486 0.993896
O O9 0.570302 0.160169 0.050237
O O10 0.575826 0.035065 0.006018
O O11 0.169906 0.499613 0.291395
O O12 0.368496 0.131505 0.250000
O O13 0.458521 0.111071 0.369563
#
# Coordination Sequence:
#
# PCOD9567603 Si02
#       6
#    16  16  16  16  16  16
#     4   9  20  36  55  82 115 151 188 233 293 358
#     4  11  23  37  56  79 114 157 197 238 293 344
#     4  11  21  34  55  87 115 144 192 253 297 344
#     4  11  22  37  55  77 116 151 199 243 285 345
#     4  10  18  34  57  82 114 153 187 233 296 356
#     4  10  19  33  57  85 117 146 185 242 304 351
#
# _framework density 17.348305
#
# number of rings (size 3 to 8) (size 9 to 14) (size 15 to 20)
#    0.000    1.667    5.000    0.500    0.000    1.000 
#    0.000    0.000    0.000    2.000    0.000    9.333 
#    0.000    0.000    0.000    0.000    0.000    0.000 
#
# Total GULP energy -534445.137294 kJ/mol
# GULP energy per Si atom -5567.136847 kJ/mol
# Density = 1.730882 g / cm^3
# Si number density = 17.348305 Si / 1000 Ang^3
#
#
#
# Elastic Constant Matrix: (Units=GPa)
#
#
# Indices 1 2 3 4 5 6 
#
# 1 61.4909 36.5673 22.5553 0.0000 0.0000 0.0000
# 2 36.5673 61.4897 22.5579 0.0000 0.0000 0.0000
# 3 22.5553 22.5579 75.1929 0.0000 0.0000 0.0000
# 4 0.0000 0.0000 0.0000 20.8218 0.0000 0.0000
# 5 0.0000 0.0000 0.0000 0.0000 20.8235 0.0000
# 6 0.0000 0.0000 0.0000 0.0000 0.0000 12.9273
#
#
#
# Elastic Compliance Matrix: (Units=1/GPa)
#
#
# Indices 1 2 3 4 5 6 
#
# 1 0.025977 -0.014146 -0.003548 0.000000 0.000000 0.000000
# 2 -0.014146 0.025978 -0.003550 0.000000 0.000000 0.000000
# 3 -0.003548 -0.003550 0.015428 0.000000 0.000000 0.000000
# 4 0.000000 0.000000 0.000000 0.048027 0.000000 0.000000
# 5 0.000000 0.000000 0.000000 0.000000 0.048023 0.000000
# 6 0.000000 0.000000 0.000000 0.000000 0.000000 0.077355
#
#
# Mechanical properties :
#
#
# Convention : Reuss Voigt Hill
#
# Bulk Modulus (GPa) = 40.17038 40.17051 40.17044
# Shear Modulus (GPa) = 17.14828 18.68074 17.91451
#
# Velocity S-wave (km/s) = 3.14741 3.28503 3.21695
# Velocity P-wave (km/s) = 6.03438 6.13141 6.08308
#
# Compressibility (1/GPa) = 0.02489397
#
# Stress axis : x y z
#
# Youngs Moduli (GPa) = 38.49617 38.49425 64.81534
#
# Poissons Ratio (x) = 0.54455 0.22998
# Poissons Ratio (y) = 0.54458 0.23009
# Poissons Ratio (z) = 0.13659 0.13665
#
# Static dielectric constant tensor:
#      x y z
#    x 1.594990 0.000000 0.000000 
#    y 0.000000 1.594990 0.000000 
#    z 0.000000 0.000000 1.613500 
# 
# From -- ./inp_files/3366.got.cif
#   From: 2010.05.17/outbox.cif.g08.bks.cpg/sg133_2_cif.got.tgz:3366.got - 2010.05.20 12:37:36.
