data_PCOD9567615
_publ_section_title
;
Structure prediction by ZEFSAII (Michael W. Deem and Ramdas Pophale) SiO2 
 PCOD9567615
Probable space group: P 42/N B C
;
_chemical_formula_sum "Si O2"
_cell_formula_units_Z 56
_cell_length_a 17.109384
_cell_length_b 17.109384
_cell_length_c 8.356715
_cell_angle_alpha 90.000000
_cell_angle_beta 90.000000
_cell_angle_gamma 90.000000
_cell_volume 2446.269713
_symmetry_space_group_name_H-M "P 42/N B C"
_symmetry_group_IT_number 133
_space_group.IT_coordinate_system_code '2'
_symmetry_cell_setting 'tetragonal'
loop_
_space_group_symop_operation_xyz
x,y,z
1/2-y,x,1/2+z
1/2-x,1/2-y,z
y,1/2-x,1/2+z
x,1/2-y,-z
1/2-x,y,-z
y,x,1/2-z
1/2-y,1/2-x,1/2-z
-x,-y,-z
1/2+y,-x,1/2-z
1/2+x,1/2+y,-z
-y,1/2+x,1/2-z
-x,1/2+y,z
1/2+x,-y,z
-y,-x,1/2+z
1/2+y,1/2+x,1/2+z
loop_
_atom_site_type_symbol
_atom_site_label
_atom_site_fract_x
_atom_site_fract_y
_atom_site_fract_z
Si Si1 0.850509 0.916874 0.898667
Si Si2 0.212077 0.642165 0.324726
Si Si3 0.310406 0.475290 0.776967
Si Si4 0.135410 0.250000 0.000000
O O1 0.911222 0.911222 0.750000
O O2 0.778378 0.969741 0.843501
O O3 0.824035 0.825089 0.919629
O O4 0.866398 0.949444 0.077176
O O5 0.250000 0.639743 0.500000
O O6 0.156999 0.716543 0.298786
O O7 0.171011 0.561171 0.284720
O O8 0.296185 0.417627 0.628060
#
# Coordination Sequence:
#
# PCOD9567615 Si02
#       4
#    16  16  16   8
#     4   9  20  33  59  87 128 166 209 255 307 373
#     4  11  24  41  68  97 122 155 211 277 337 395
#     4  10  20  36  60  90 125 167 204 264 323 385
#     4  10  18  37  54  89 122 172 212 254 308 372
#
# _framework density 22.891998000000001
#
# number of rings (size 3 to 8) (size 9 to 14) (size 15 to 20)
#    0.000    2.000    1.429    2.571    8.000    2.286 
#    0.000   11.429    0.000   18.857    0.000    0.000 
#    0.000    0.000    0.000    0.000    0.000    0.000 
#
# Total GULP energy -311766.806938 kJ/mol
# GULP energy per Si atom -5567.264410 kJ/mol
# Density = 2.283990 g / cm^3
# Si number density = 22.891998 Si / 1000 Ang^3
#
#
#
# Elastic Constant Matrix: (Units=GPa)
#
#
# Indices 1 2 3 4 5 6 
#
# 1 61.2577 -12.7757 18.2048 0.0000 0.0000 0.0000
# 2 -12.7757 61.2577 18.2048 0.0000 0.0000 0.0000
# 3 18.2048 18.2048 186.6392 0.0000 0.0000 0.0000
# 4 0.0000 0.0000 0.0000 20.5058 0.0000 0.0000
# 5 0.0000 0.0000 0.0000 0.0000 20.5058 0.0000
# 6 0.0000 0.0000 0.0000 0.0000 0.0000 37.7170
#
#
#
# Elastic Compliance Matrix: (Units=1/GPa)
#
#
# Indices 1 2 3 4 5 6 
#
# 1 0.017882 0.004375 -0.002171 0.000000 0.000000 0.000000
# 2 0.004375 0.017882 -0.002171 0.000000 0.000000 0.000000
# 3 -0.002171 -0.002171 0.005781 0.000000 0.000000 0.000000
# 4 0.000000 0.000000 0.000000 0.048767 0.000000 0.000000
# 5 0.000000 0.000000 0.000000 0.000000 0.048767 0.000000
# 6 0.000000 0.000000 0.000000 0.000000 0.000000 0.026513
#
#
# Mechanical properties :
#
#
# Convention : Reuss Voigt Hill
#
# Bulk Modulus (GPa) = 24.03215 39.60247 31.81731
# Shear Modulus (GPa) = 27.87120 34.78044 31.32582
#
# Velocity S-wave (km/s) = 3.49307 3.90208 3.70323
# Velocity P-wave (km/s) = 5.17586 6.13506 5.67576
#
# Compressibility (1/GPa) = 0.04161093
#
# Stress axis : x y z
#
# Youngs Moduli (GPa) = 55.92219 55.92219 172.96752
#
# Poissons Ratio (x) = -0.24464 0.37550
# Poissons Ratio (y) = -0.24464 0.37550
# Poissons Ratio (z) = 0.12140 0.12140
#
# Static dielectric constant tensor:
#      x y z
#    x 1.863170 0.000000 0.000000 
#    y 0.000000 1.863170 0.000000 
#    z 0.000000 0.000000 2.033830 
# 
# From -- ./inp_files/1272.got.cif
#   From: 2010.05.17/outbox.cif.g08.bks.cpg/sg133_1_cif.got.tgz:1272.got - 2010.05.20 12:37:36.
