data_PCOD9567676
_publ_section_title
;
Structure prediction by ZEFSAII (Michael W. Deem and Ramdas Pophale) SiO2 
 PCOD9567676
Probable space group: P 42/N B C
;
_chemical_formula_sum "Si O2"
_cell_formula_units_Z 72
_cell_length_a 18.955009
_cell_length_b 18.955009
_cell_length_c 8.828396
_cell_angle_alpha 90.000000
_cell_angle_beta 90.000000
_cell_angle_gamma 90.000000
_cell_volume 3171.975289
_symmetry_space_group_name_H-M "P 42/N B C"
_symmetry_group_IT_number 133
_space_group.IT_coordinate_system_code '2'
_symmetry_cell_setting 'tetragonal'
loop_
_space_group_symop_operation_xyz
x,y,z
1/2-y,x,1/2+z
1/2-x,1/2-y,z
y,1/2-x,1/2+z
x,1/2-y,-z
1/2-x,y,-z
y,x,1/2-z
1/2-y,1/2-x,1/2-z
-x,-y,-z
1/2+y,-x,1/2-z
1/2+x,1/2+y,-z
-y,1/2+x,1/2-z
-x,1/2+y,z
1/2+x,-y,z
-y,-x,1/2+z
1/2+y,1/2+x,1/2+z
loop_
_atom_site_type_symbol
_atom_site_label
_atom_site_fract_x
_atom_site_fract_y
_atom_site_fract_z
Si Si1 0.746951 0.854634 0.824797
Si Si2 0.976649 0.269525 0.325081
Si Si3 0.397272 0.057868 0.582725
Si Si4 0.250000 0.496975 0.500000
Si Si5 0.423638 0.985612 0.133590
O O1 0.811256 0.811256 0.750000
O O2 0.676914 0.823086 0.750000
O O3 0.746210 0.939057 0.816485
O O4 0.750000 0.835946 0.000000
O O5 0.954725 0.250000 0.500000
O O6 0.956794 0.351363 0.305215
O O7 0.957694 0.240882 0.155699
O O8 0.411975 0.088026 0.750000
O O9 0.455404 0.099882 0.486869
O O10 0.319932 0.053179 0.510276
O O11 0.426791 0.977258 0.575215
O O12 0.469829 0.030172 0.250000
#
# Coordination Sequence:
#
# PCOD9567676 Si02
#       5
#    16  16  16   8  16
#     4  10  21  33  48  68 103 158 210 251 293 349
#     4  11  24  37  58  87 125 162 213 268 321 380
#     4  10  22  38  65  92 120 168 223 270 337 398
#     4  12  24  38  62  95 125 158 212 272 328 390
#     4  10  19  40  62  84 124 171 215 275 327 391
#
# _framework density 22.698788
#
# number of rings (size 3 to 8) (size 9 to 14) (size 15 to 20)
#    0.000    1.556    2.222    3.333    3.111    2.667 
#    0.000    0.000    0.000    0.000    0.000    0.778 
#    0.000    0.000    0.000    0.000    0.000    0.000 
#
# Total GULP energy -401558.386474 kJ/mol
# GULP energy per Si atom -5577.199812 kJ/mol
# Density = 2.264712 g / cm^3
# Si number density = 22.698788 Si / 1000 Ang^3
#
#
#
# Elastic Constant Matrix: (Units=GPa)
#
#
# Indices 1 2 3 4 5 6 
#
# 1 64.0477 16.9055 9.6770 0.0000 0.0000 0.0000
# 2 16.9055 64.0489 9.6747 0.0000 0.0000 0.0000
# 3 9.6770 9.6747 176.2639 0.0000 0.0000 0.0000
# 4 0.0000 0.0000 0.0000 16.7017 0.0000 0.0000
# 5 0.0000 0.0000 0.0000 0.0000 16.7012 0.0000
# 6 0.0000 0.0000 0.0000 0.0000 0.0000 13.8182
#
#
#
# Elastic Compliance Matrix: (Units=1/GPa)
#
#
# Indices 1 2 3 4 5 6 
#
# 1 0.016865 -0.004348 -0.000687 0.000000 0.000000 0.000000
# 2 -0.004348 0.016864 -0.000687 0.000000 0.000000 0.000000
# 3 -0.000687 -0.000687 0.005749 0.000000 0.000000 0.000000
# 4 0.000000 0.000000 0.000000 0.059874 0.000000 0.000000
# 5 0.000000 0.000000 0.000000 0.000000 0.059876 0.000000
# 6 0.000000 0.000000 0.000000 0.000000 0.000000 0.072368
#
#
# Mechanical properties :
#
#
# Convention : Reuss Voigt Hill
#
# Bulk Modulus (GPa) = 35.67063 41.87500 38.77281
# Shear Modulus (GPa) = 19.81104 27.31777 23.56441
#
# Velocity S-wave (km/s) = 2.95749 3.47290 3.22551
# Velocity P-wave (km/s) = 5.23557 5.87959 5.56690
#
# Compressibility (1/GPa) = 0.02803427
#
# Stress axis : x y z
#
# Youngs Moduli (GPa) = 59.29523 59.29663 173.95094
#
# Poissons Ratio (x) = 0.25780 0.11955
# Poissons Ratio (y) = 0.25779 0.11950
# Poissons Ratio (z) = 0.04075 0.04073
#
# Static dielectric constant tensor:
#      x y z
#    x 1.876200 0.000000 0.000000 
#    y 0.000000 1.876200 0.000000 
#    z 0.000000 0.000000 2.083770 
# 
# From -- ./inp_files/1693.got.cif
#   From: 2010.05.17/outbox.cif.g08.bks.cpg/sg133_1_cif.got.tgz:1693.got - 2010.05.20 12:37:36.
