data_PCOD9567977
_publ_section_title
;
Structure prediction by ZEFSAII (Michael W. Deem and Ramdas Pophale) SiO2 
 PCOD9567977
Probable space group: P 42/N B C
;
_chemical_formula_sum "Si O2"
_cell_formula_units_Z 84
_cell_length_a 12.683381
_cell_length_b 12.683381
_cell_length_c 23.947076
_cell_angle_alpha 90.000000
_cell_angle_beta 90.000000
_cell_angle_gamma 90.000000
_cell_volume 3852.321900
_symmetry_space_group_name_H-M "P 42/N B C"
_symmetry_group_IT_number 133
_space_group.IT_coordinate_system_code '2'
_symmetry_cell_setting 'tetragonal'
loop_
_space_group_symop_operation_xyz
x,y,z
1/2-y,x,1/2+z
1/2-x,1/2-y,z
y,1/2-x,1/2+z
x,1/2-y,-z
1/2-x,y,-z
y,x,1/2-z
1/2-y,1/2-x,1/2-z
-x,-y,-z
1/2+y,-x,1/2-z
1/2+x,1/2+y,-z
-y,1/2+x,1/2-z
-x,1/2+y,z
1/2+x,-y,z
-y,-x,1/2+z
1/2+y,1/2+x,1/2+z
loop_
_atom_site_type_symbol
_atom_site_label
_atom_site_fract_x
_atom_site_fract_y
_atom_site_fract_z
Si Si1 0.483103 0.341425 0.288159
Si Si2 0.416340 0.295859 0.412633
Si Si3 0.795859 0.916340 0.412633
Si Si4 0.341424 0.016898 0.288159
Si Si5 0.587368 0.412631 0.982398
Si Si6 0.750000 0.250000 0.500000
O O1 0.391443 0.391443 0.250000
O O2 0.438549 0.300420 0.346516
O O3 0.531952 0.250000 0.250000
O O4 0.567220 0.432781 0.299943
O O5 0.320610 0.375479 0.426733
O O6 0.375479 0.179390 0.426732
O O7 0.518995 0.333346 0.444549
O O8 0.800418 0.938548 0.346516
O O9 0.833346 0.018995 0.444548
O O10 0.391442 0.108559 0.250000
O O11 0.500000 0.500000 0.000000
O O12 0.662096 0.337904 0.021329
#
# Coordination Sequence:
#
# PCOD9567977 Si02
#       6
#    16  16  16  16  16   4
#     4  11  22  38  61  94 136 178 219 270 329 401
#     4  11  23  40  68 101 132 178 228 279 343 413
#     4  11  23  40  68 101 132 178 228 279 343 413
#     4  11  22  38  61  94 136 178 219 270 329 401
#     4  12  26  50  73  98 137 175 232 301 349 424
#     4  12  28  52  76 104 130 188 224 284 388 416
#
# _framework density 21.805029000000001
#
# number of rings (size 3 to 8) (size 9 to 14) (size 15 to 20)
#    0.000    0.762    5.714    2.286    0.000    0.762 
#    3.429    1.905    0.000    0.000    0.000    0.000 
#    0.000    0.000    0.000    0.000    0.000    0.000 
#
# Total GULP energy -468923.599519 kJ/mol
# GULP energy per Si atom -5582.423804 kJ/mol
# Density = 2.175540 g / cm^3
# Si number density = 21.805029 Si / 1000 Ang^3
#
#
#
# Elastic Constant Matrix: (Units=GPa)
#
#
# Indices 1 2 3 4 5 6 
#
# 1 90.2039 64.7274 33.8628 0.0000 0.0000 0.0000
# 2 64.7274 90.2033 33.8630 0.0000 0.0000 0.0000
# 3 33.8628 33.8630 60.4817 0.0000 0.0000 0.0000
# 4 0.0000 0.0000 0.0000 28.6108 0.0000 0.0000
# 5 0.0000 0.0000 0.0000 0.0000 28.6109 0.0000
# 6 0.0000 0.0000 0.0000 0.0000 0.0000 39.1815
#
#
#
# Elastic Compliance Matrix: (Units=1/GPa)
#
#
# Indices 1 2 3 4 5 6 
#
# 1 0.023899 -0.015353 -0.004785 0.000000 0.000000 0.000000
# 2 -0.015353 0.023899 -0.004785 0.000000 0.000000 0.000000
# 3 -0.004785 -0.004785 0.021892 0.000000 0.000000 0.000000
# 4 0.000000 0.000000 0.000000 0.034952 0.000000 0.000000
# 5 0.000000 0.000000 0.000000 0.000000 0.034952 0.000000
# 6 0.000000 0.000000 0.000000 0.000000 0.000000 0.025522
#
#
# Mechanical properties :
#
#
# Convention : Reuss Voigt Hill
#
# Bulk Modulus (GPa) = 50.39132 56.19948 53.29540
# Shear Modulus (GPa) = 22.56556 26.50970 24.53763
#
# Velocity S-wave (km/s) = 3.22044 3.49056 3.35822
# Velocity P-wave (km/s) = 6.08181 6.48652 6.28742
#
# Compressibility (1/GPa) = 0.01984469
#
# Stress axis : x y z
#
# Youngs Moduli (GPa) = 41.84264 41.84213 45.67898
#
# Poissons Ratio (x) = 0.64241 0.21856
# Poissons Ratio (y) = 0.64241 0.21857
# Poissons Ratio (z) = 0.20021 0.20021
#
# Static dielectric constant tensor:
#      x y z
#    x 1.804750 0.000000 0.000000 
#    y 0.000000 1.804750 0.000000 
#    z 0.000000 0.000000 1.771750 
# 
# From -- ./inp_files/7974.got.cif
#   From: 2010.05.17/outbox.cif.g08.bks.cpg/sg133_4_cif.got.tgz:7974.got - 2010.05.20 12:37:36.
