data_PCOD9567282
_publ_section_title
;
Structure prediction by ZEFSAII (Michael W. Deem and Ramdas Pophale) SiO2 
 PCOD9567282
Probable space group: P 42/M C M
;
_chemical_formula_sum "Si O2"
_cell_formula_units_Z 64
_cell_length_a 20.243343
_cell_length_b 20.243343
_cell_length_c 8.442859
_cell_angle_alpha 90.000000
_cell_angle_beta 90.000000
_cell_angle_gamma 90.000000
_cell_volume 3459.823976
_symmetry_space_group_name_H-M "P 42/M C M"
_symmetry_group_IT_number 132
_symmetry_cell_setting 'tetragonal'
loop_
_space_group_symop_operation_xyz
x,y,z
-y,x,1/2+z
-x,-y,z
y,-x,1/2+z
x,-y,1/2-z
-x,y,1/2-z
y,x,-z
-y,-x,-z
-x,-y,-z
y,-x,1/2-z
x,y,-z
-y,x,1/2-z
-x,y,1/2+z
x,-y,1/2+z
-y,-x,z
y,x,z
loop_
_atom_site_type_symbol
_atom_site_label
_atom_site_fract_x
_atom_site_fract_y
_atom_site_fract_z
Si Si1 0.245195 0.069033 0.186386
Si Si2 0.571229 0.778952 0.311086
Si Si3 0.605799 0.930237 0.308000
Si Si4 0.204107 0.204107 0.321448
Si Si5 0.696431 0.696431 0.817575
O O1 0.323180 0.069368 0.223050
O O2 0.217437 0.128519 0.287770
O O3 0.218328 0.000000 0.250000
O O4 0.233643 0.077365 0.000000
O O5 0.500000 0.755908 0.250000
O O6 0.572570 0.778153 0.500000
O O7 0.578238 0.857226 0.264653
O O8 0.630805 0.731363 0.253951
O O9 0.611694 0.932832 0.500000
O O10 0.574122 0.000000 0.250000
O O11 0.223025 0.223025 0.500000
O O12 0.247677 0.247677 0.203825
O O13 0.682796 0.682796 0.000000
#
# Coordination Sequence:
#
# PCOD9567282 Si02
#       5
#    16  16  16   8   8
#     4  11  21  34  54  82 115 153 196 243 297 351
#     4  11  24  41  62  88 122 160 200 247 299 352
#     4  10  20  34  54  81 119 161 200 243 289 344
#     4  12  22  36  58  85 116 153 198 248 298 347
#     4  12  24  40  64  91 118 153 198 246 298 353
#
# _framework density 18.498051
#
# number of rings (size 3 to 8) (size 9 to 14) (size 15 to 20)
#    0.000    1.000    2.500    7.500    0.000    3.500 
#    0.000    2.500    0.000    0.750    0.000    5.250 
#    0.000    0.000    0.000    0.000    0.000    0.000 
#
# Total GULP energy -357083.550710 kJ/mol
# GULP energy per Si atom -5579.430480 kJ/mol
# Density = 1.845595 g / cm^3
# Si number density = 18.498051 Si / 1000 Ang^3
#
#
#
# Elastic Constant Matrix: (Units=GPa)
#
#
# Indices 1 2 3 4 5 6 
#
# 1 109.2110 55.1942 12.0051 0.0000 0.0000 0.0000
# 2 55.1942 109.2110 12.0051 0.0000 0.0000 0.0000
# 3 12.0051 12.0051 69.4117 0.0000 0.0000 0.0000
# 4 0.0000 0.0000 0.0000 24.2972 0.0000 0.0000
# 5 0.0000 0.0000 0.0000 0.0000 24.2972 0.0000
# 6 0.0000 0.0000 0.0000 0.0000 0.0000 11.9652
#
#
#
# Elastic Compliance Matrix: (Units=1/GPa)
#
#
# Indices 1 2 3 4 5 6 
#
# 1 0.012376 -0.006136 -0.001079 0.000000 0.000000 0.000000
# 2 -0.006136 0.012376 -0.001079 0.000000 0.000000 0.000000
# 3 -0.001079 -0.001079 0.014780 0.000000 0.000000 0.000000
# 4 0.000000 0.000000 0.000000 0.041157 0.000000 0.000000
# 5 0.000000 0.000000 0.000000 0.000000 0.041157 0.000000
# 6 0.000000 0.000000 0.000000 0.000000 0.000000 0.083576
#
#
# Mechanical properties :
#
#
# Convention : Reuss Voigt Hill
#
# Bulk Modulus (GPa) = 43.58559 49.58251 46.58405
# Shear Modulus (GPa) = 21.77128 26.02053 23.89591
#
# Velocity S-wave (km/s) = 3.43439 3.75462 3.59807
# Velocity P-wave (km/s) = 6.27217 6.75711 6.51915
#
# Compressibility (1/GPa) = 0.02294336
#
# Stress axis : x y z
#
# Youngs Moduli (GPa) = 80.79859 80.79859 67.65846
#
# Poissons Ratio (x) = 0.49580 0.07302
# Poissons Ratio (y) = 0.49580 0.07302
# Poissons Ratio (z) = 0.08720 0.08720
#
# Static dielectric constant tensor:
#      x y z
#    x 1.585010 0.000000 0.000000 
#    y 0.000000 1.585010 0.000000 
#    z 0.000000 0.000000 1.629260 
# 
# From -- ./inp_files/1288.got.cif
#   From: 2010.05.17/outbox.cif.g08.bks.cpg/sg132_1_cif.got.tgz:1288.got - 2010.05.20 12:30:18.
