data_PCOD9567559
_publ_section_title
;
Structure prediction by ZEFSAII (Michael W. Deem and Ramdas Pophale) SiO2 
 PCOD9567559
Probable space group: P 42/M C M
;
_chemical_formula_sum "Si O2"
_cell_formula_units_Z 88
_cell_length_a 12.000000
_cell_length_b 12.000000
_cell_length_c 30.000000
_cell_angle_alpha 90.000000
_cell_angle_beta 90.000000
_cell_angle_gamma 90.000000
_cell_volume 4320.000000
_symmetry_space_group_name_H-M "P 42/M C M"
_symmetry_group_IT_number 132
_symmetry_cell_setting 'tetragonal'
loop_
_space_group_symop_operation_xyz
x,y,z
-y,x,1/2+z
-x,-y,z
y,-x,1/2+z
x,-y,1/2-z
-x,y,1/2-z
y,x,-z
-y,-x,-z
-x,-y,-z
y,-x,1/2-z
x,y,-z
-y,x,1/2-z
-x,y,1/2+z
x,-y,1/2+z
-y,-x,z
y,x,z
loop_
_atom_site_type_symbol
_atom_site_label
_atom_site_fract_x
_atom_site_fract_y
_atom_site_fract_z
Si Si1 0.085331 0.085331 0.053526
Si Si2 0.348452 0.176877 0.596459
Si Si3 0.336503 0.849791 0.708948
Si Si4 0.713817 0.105799 0.196303
Si Si5 0.760312 0.426520 0.620747
Si Si6 0.341886 0.051766 0.052937
O O1 0.210483 0.052973 0.063954
O O2 0.078764 0.078764 0.000000
O O3 0.000000 0.000000 0.074843
O O4 0.241215 0.241215 0.577977
O O5 0.322424 0.135257 0.646477
O O6 0.449323 0.261810 0.604302
O O7 0.382052 0.071225 0.566649
O O8 0.237878 0.762123 0.702449
O O9 0.362050 0.850223 0.762071
O O10 0.423051 0.815289 0.670349
O O11 0.290916 0.973233 0.699677
O O12 0.832889 0.167111 0.203281
O O13 0.655225 0.344776 0.620057
O O14 0.852800 0.385839 0.585440
O O15 0.358440 0.072508 0.000000
#
# Coordination Sequence:
#
# PCOD9567559 Si02
#       6
#     8  16  16  16  16  16
#     4   9  18  34  58  86 117 149 179 221 284 352
#     4  11  24  40  59  86 118 154 198 243 290 343
#     4   9  18  33  54  83 118 155 192 231 281 343
#     4   9  18  33  54  83 119 154 190 233 283 342
#     4  11  23  40  61  86 116 153 199 244 290 345
#     4  11  22  39  61  88 119 150 190 239 294 352
#
# _framework density 20.370370000000001
#
# number of rings (size 3 to 8) (size 9 to 14) (size 15 to 20)
#    0.000    1.909    2.727    1.091    0.000    4.000 
#    0.000    3.636    0.000    0.000    0.000    7.636 
#    0.000    0.000    0.000    0.000    0.000    0.000 
#
# Total GULP energy -490520.583462 kJ/mol
# GULP energy per Si atom -5574.097539 kJ/mol
# Density = 2.032401 g / cm^3
# Si number density = 20.370370 Si / 1000 Ang^3
#
#
#
# Elastic Constant Matrix: (Units=GPa)
#
#
# Indices 1 2 3 4 5 6 
#
# 1 51.3700 0.0825 2.4210 0.0000 0.0000 0.0000
# 2 0.0825 51.3700 2.4210 0.0000 0.0000 0.0000
# 3 2.4210 2.4210 69.1952 0.0000 0.0000 0.0000
# 4 0.0000 0.0000 0.0000 11.6101 0.0000 0.0000
# 5 0.0000 0.0000 0.0000 0.0000 11.6101 0.0000
# 6 0.0000 0.0000 0.0000 0.0000 0.0000 16.2511
#
#
#
# Elastic Compliance Matrix: (Units=1/GPa)
#
#
# Indices 1 2 3 4 5 6 
#
# 1 0.019499 0.000001 -0.000682 0.000000 0.000000 0.000000
# 2 0.000001 0.019499 -0.000682 0.000000 0.000000 0.000000
# 3 -0.000682 -0.000682 0.014500 0.000000 0.000000 0.000000
# 4 0.000000 0.000000 0.000000 0.086132 0.000000 0.000000
# 5 0.000000 0.000000 0.000000 0.000000 0.086132 0.000000
# 6 0.000000 0.000000 0.000000 0.000000 0.000000 0.061534
#
#
# Mechanical properties :
#
#
# Convention : Reuss Voigt Hill
#
# Bulk Modulus (GPa) = 19.69671 20.19821 19.94746
# Shear Modulus (GPa) = 16.28954 19.02832 17.65893
#
# Velocity S-wave (km/s) = 2.83091 3.05965 2.94750
# Velocity P-wave (km/s) = 4.51394 4.73486 4.62572
#
# Compressibility (1/GPa) = 0.05076991
#
# Stress axis : x y z
#
# Youngs Moduli (GPa) = 51.28525 51.28525 68.96739
#
# Poissons Ratio (x) = -0.00004 0.04705
# Poissons Ratio (y) = -0.00004 0.04705
# Poissons Ratio (z) = 0.03499 0.03499
#
# Static dielectric constant tensor:
#      x y z
#    x 1.747510 0.000000 0.000000 
#    y 0.000000 1.747510 0.000000 
#    z 0.000000 0.000000 1.716310 
# 
# From -- ./inp_files/10784.got.cif
#   From: 2010.05.17/outbox.ucp.g08.bks.cvg/sg132_6_cif.got.tgz:10784.got - 2010.06.11 11:39:14.
