data_PCOD9567887
_publ_section_title
;
Structure prediction by ZEFSAII (Michael W. Deem and Ramdas Pophale) SiO2 
 PCOD9567887
Probable space group: P 42/N B C
;
_chemical_formula_sum "Si O2"
_cell_formula_units_Z 112
_cell_length_a 14.221506
_cell_length_b 14.221506
_cell_length_c 22.503769
_cell_angle_alpha 90.000000
_cell_angle_beta 90.000000
_cell_angle_gamma 90.000000
_cell_volume 4551.415025
_symmetry_space_group_name_H-M "P 42/N B C"
_symmetry_group_IT_number 133
_space_group.IT_coordinate_system_code '2'
_symmetry_cell_setting 'tetragonal'
loop_
_space_group_symop_operation_xyz
x,y,z
1/2-y,x,1/2+z
1/2-x,1/2-y,z
y,1/2-x,1/2+z
x,1/2-y,-z
1/2-x,y,-z
y,x,1/2-z
1/2-y,1/2-x,1/2-z
-x,-y,-z
1/2+y,-x,1/2-z
1/2+x,1/2+y,-z
-y,1/2+x,1/2-z
-x,1/2+y,z
1/2+x,-y,z
-y,-x,1/2+z
1/2+y,1/2+x,1/2+z
loop_
_atom_site_type_symbol
_atom_site_label
_atom_site_fract_x
_atom_site_fract_y
_atom_site_fract_z
Si Si1 0.116733 0.730652 0.270217
Si Si2 0.506451 0.583703 0.597237
Si Si3 0.698132 0.663500 0.319219
Si Si4 0.206488 0.968743 0.562379
Si Si5 0.199173 0.002142 0.871170
Si Si6 0.856232 0.602948 0.980680
Si Si7 0.992216 0.161340 0.167457
O O1 0.158476 0.799109 0.218722
O O2 0.083204 0.796108 0.324167
O O3 0.041925 0.668489 0.235411
O O4 0.397204 0.567383 0.581814
O O5 0.517598 0.688965 0.621978
O O6 0.568094 0.584662 0.537208
O O7 0.556961 0.514476 0.643856
O O8 0.750000 0.750000 0.350478
O O9 0.684409 0.684409 0.250000
O O10 0.592660 0.652600 0.341278
O O11 0.771839 0.582382 0.327452
O O12 0.250000 0.934099 0.500000
O O13 0.182782 0.080773 0.551132
O O14 0.282925 0.943715 0.612619
O O15 0.157789 0.011487 0.937421
O O16 0.750000 0.630636 0.000000
#
# Coordination Sequence:
#
# PCOD9567887 Si02
#       7
#    16  16  16  16  16  16  16
#     4  11  27  47  66  94 136 193 250 302 362 443
#     4  11  25  43  65 103 137 182 234 297 372 437
#     4  11  21  37  63 100 137 171 214 279 362 434
#     4  12  25  41  66 101 139 179 232 292 370 443
#     4  11  22  43  69  98 139 180 236 291 364 450
#     4  10  23  41  66  96 134 177 225 291 365 440
#     4  12  24  41  70 102 136 184 233 304 372 444
#
# _framework density 24.60773
#
# number of rings (size 3 to 8) (size 9 to 14) (size 15 to 20)
#    0.000    0.857    5.714    1.286    2.000    0.857 
#    0.000    0.000    0.000    3.000    0.000    0.000 
#    0.000    0.000    0.000    0.000    0.000    0.000 
#
# Total GULP energy -625026.303184 kJ/mol
# GULP energy per Si atom -5580.591993 kJ/mol
# Density = 2.455172 g / cm^3
# Si number density = 24.607730 Si / 1000 Ang^3
#
#
#
# Elastic Constant Matrix: (Units=GPa)
#
#
# Indices 1 2 3 4 5 6 
#
# 1 80.3205 -1.9962 20.7908 0.0000 0.0000 0.0000
# 2 -1.9962 80.3205 20.7908 0.0000 0.0000 0.0000
# 3 20.7908 20.7908 94.2911 0.0000 0.0000 0.0000
# 4 0.0000 0.0000 0.0000 98.9840 0.0000 0.0000
# 5 0.0000 0.0000 0.0000 0.0000 98.9840 0.0000
# 6 0.0000 0.0000 0.0000 0.0000 0.0000 34.1671
#
#
#
# Elastic Compliance Matrix: (Units=1/GPa)
#
#
# Indices 1 2 3 4 5 6 
#
# 1 0.013304 0.001156 -0.003188 0.000000 0.000000 0.000000
# 2 0.001156 0.013304 -0.003188 0.000000 0.000000 0.000000
# 3 -0.003188 -0.003188 0.012012 0.000000 0.000000 0.000000
# 4 0.000000 0.000000 0.000000 0.010103 0.000000 0.000000
# 5 0.000000 0.000000 0.000000 0.000000 0.010103 0.000000
# 6 0.000000 0.000000 0.000000 0.000000 0.000000 0.029268
#
#
# Mechanical properties :
#
#
# Convention : Reuss Voigt Hill
#
# Bulk Modulus (GPa) = 35.48847 37.12255 36.30551
# Shear Modulus (GPa) = 46.32741 60.78346 53.55543
#
# Velocity S-wave (km/s) = 4.34364 4.97540 4.67022
# Velocity P-wave (km/s) = 6.29359 6.93719 6.62321
#
# Compressibility (1/GPa) = 0.02817816
#
# Stress axis : x y z
#
# Youngs Moduli (GPa) = 75.16445 75.16445 83.25343
#
# Poissons Ratio (x) = -0.08689 0.26545
# Poissons Ratio (y) = -0.08689 0.26545
# Poissons Ratio (z) = 0.23965 0.23965
#
# Static dielectric constant tensor:
#      x y z
#    x 1.794410 0.000000 0.000000 
#    y 0.000000 1.794410 0.000000 
#    z 0.000000 0.000000 2.023480 
# 
# From -- ./inp_files/7242.got.cif
#   From: 2010.05.17/outbox.cif.g08.bks.cpg/sg133_4_cif.got.tgz:7242.got - 2010.05.20 12:37:36.
