data_PCOD9567292
_publ_section_title
;
Structure prediction by ZEFSAII (Michael W. Deem and Ramdas Pophale) SiO2 
 PCOD9567292
Probable space group: P 42/M C M
;
_chemical_formula_sum "Si O2"
_cell_formula_units_Z 88
_cell_length_a 17.776163
_cell_length_b 17.776163
_cell_length_c 15.418886
_cell_angle_alpha 90.000000
_cell_angle_beta 90.000000
_cell_angle_gamma 90.000000
_cell_volume 4872.244178
_symmetry_space_group_name_H-M "P 42/M C M"
_symmetry_group_IT_number 132
_symmetry_cell_setting 'tetragonal'
loop_
_space_group_symop_operation_xyz
x,y,z
-y,x,1/2+z
-x,-y,z
y,-x,1/2+z
x,-y,1/2-z
-x,y,1/2-z
y,x,-z
-y,-x,-z
-x,-y,-z
y,-x,1/2-z
x,y,-z
-y,x,1/2-z
-x,y,1/2+z
x,-y,1/2+z
-y,-x,z
y,x,z
loop_
_atom_site_type_symbol
_atom_site_label
_atom_site_fract_x
_atom_site_fract_y
_atom_site_fract_z
Si Si1 0.937839 0.190320 0.675398
Si Si2 0.127424 0.998284 0.000000
Si Si3 0.589809 0.007694 0.349905
Si Si4 0.812981 0.311076 0.722665
Si Si5 0.382726 0.847052 0.903764
Si Si6 0.438371 0.828304 0.596568
O O1 0.879456 0.120545 0.684590
O O2 0.982209 0.177156 0.584903
O O3 0.886311 0.265041 0.686980
O O4 0.000000 0.188685 0.750000
O O5 0.060446 0.060446 0.000000
O O6 0.082541 0.917460 0.000000
O O7 0.593434 0.086470 0.398151
O O8 0.500000 0.000000 0.343015
O O9 0.617002 0.000000 0.250000
O O10 0.621768 0.937570 0.401202
O O11 0.745705 0.254296 0.710142
O O12 0.821371 0.332904 0.823347
O O13 0.793922 0.387762 0.671628
O O14 0.471751 0.829074 0.887743
O O15 0.362700 0.819461 0.000000
O O16 0.425397 0.798079 0.500000
#
# Coordination Sequence:
#
# PCOD9567292 Si02
#       6
#    16   8  16  16  16  16
#     4  10  22  38  55  77 102 138 188 236 286 333
#     4   9  18  36  62  80  92 123 180 250 297 324
#     4   9  15  27  50  78 104 127 163 216 263 304
#     4  11  24  37  51  78 115 149 178 221 281 334
#     4  10  20  36  57  80 106 141 185 222 264 329
#     4  10  20  34  57  82 105 140 181 223 270 326
#
# _framework density 18.061492000000001
#
# number of rings (size 3 to 8) (size 9 to 14) (size 15 to 20)
#    0.000    2.091    1.818    1.636    3.818    3.818 
#    1.636    0.000    0.000    0.000    0.000    0.000 
#    0.000    5.818    0.000   16.000    0.000    0.000 
#
# Total GULP energy -490164.532885 kJ/mol
# GULP energy per Si atom -5570.051510 kJ/mol
# Density = 1.802038 g / cm^3
# Si number density = 18.061492 Si / 1000 Ang^3
#
#
#
# Elastic Constant Matrix: (Units=GPa)
#
#
# Indices 1 2 3 4 5 6 
#
# 1 45.7408 4.3215 25.3733 0.0000 0.0000 0.0000
# 2 4.3215 45.7410 25.3734 0.0000 0.0000 0.0000
# 3 25.3733 25.3734 129.8951 0.0000 0.0000 0.0000
# 4 0.0000 0.0000 0.0000 -34.8031 0.0000 0.0000
# 5 0.0000 0.0000 0.0000 0.0000 -34.8034 0.0000
# 6 0.0000 0.0000 0.0000 0.0000 0.0000 14.2179
#
#
#
# Elastic Compliance Matrix: (Units=1/GPa)
#
#
# Indices 1 2 3 4 5 6 
#
# 1 0.024525 0.000382 -0.004865 0.000000 0.000000 0.000000
# 2 0.000382 0.024525 -0.004865 0.000000 0.000000 0.000000
# 3 -0.004865 -0.004865 0.009599 0.000000 0.000000 0.000000
# 4 0.000000 0.000000 0.000000 -0.028733 0.000000 0.000000
# 5 0.000000 0.000000 0.000000 0.000000 -0.028733 0.000000
# 6 0.000000 0.000000 0.000000 0.000000 0.000000 0.070334
#
#
# Mechanical properties :
#
#
# Convention : Reuss Voigt Hill
#
# Bulk Modulus (GPa) = 25.03006 36.83481 30.93243
# Shear Modulus (GPa) = 48.29430 0.00954 24.15192
#
# Velocity S-wave (km/s) = 5.17657 0.07275 3.66075
# Velocity P-wave (km/s) = 7.04397 4.52166 5.91874
#
# Compressibility (1/GPa) = 0.03995197
#
# Stress axis : x y z
#
# Youngs Moduli (GPa) = 40.77458 40.77471 104.17492
#
# Poissons Ratio (x) = -0.01557 0.50683
# Poissons Ratio (y) = -0.01557 0.50684
# Poissons Ratio (z) = 0.19838 0.19838
#
# Static dielectric constant tensor:
#      x y z
#    x 1.635040 0.000000 0.000000 
#    y 0.000000 1.635040 0.000000 
#    z 0.000000 0.000000 1.678410 
# 
# From -- ./inp_files/4756.got.cif
#   From: 2010.05.17/outbox.cif.g08.bks.cpg/sg132_3_cif.got.tgz:4756.got - 2010.05.20 12:30:18.
