data_PCOD9567043
_publ_section_title
;
Structure prediction by ZEFSAII (Michael W. Deem and Ramdas Pophale) SiO2 
 PCOD9567043
Probable space group: P 42/M C M
;
_chemical_formula_sum "Si O2"
_cell_formula_units_Z 96
_cell_length_a 18.034306
_cell_length_b 18.034306
_cell_length_c 18.109586
_cell_angle_alpha 90.000000
_cell_angle_beta 90.000000
_cell_angle_gamma 90.000000
_cell_volume 5889.892806
_symmetry_space_group_name_H-M "P 42/M C M"
_symmetry_group_IT_number 132
_symmetry_cell_setting 'tetragonal'
loop_
_space_group_symop_operation_xyz
x,y,z
-y,x,1/2+z
-x,-y,z
y,-x,1/2+z
x,-y,1/2-z
-x,y,1/2-z
y,x,-z
-y,-x,-z
-x,-y,-z
y,-x,1/2-z
x,y,-z
-y,x,1/2-z
-x,y,1/2+z
x,-y,1/2+z
-y,-x,z
y,x,z
loop_
_atom_site_type_symbol
_atom_site_label
_atom_site_fract_x
_atom_site_fract_y
_atom_site_fract_z
Si Si1 0.206926 0.086080 0.588516
Si Si2 0.814374 0.443625 0.807502
Si Si3 0.921553 0.342452 0.291444
Si Si4 0.054496 0.177353 0.817354
Si Si5 0.540346 0.920464 0.086070
Si Si6 0.799271 0.325707 0.916397
O O1 0.205243 0.087061 0.500000
O O2 0.140321 0.140321 0.615091
O O3 0.285305 0.124447 0.609245
O O4 0.195864 0.003997 0.618231
O O5 0.776365 0.500000 0.750000
O O6 0.864174 0.390577 0.755847
O O7 0.865499 0.490555 0.864130
O O8 0.771512 0.388134 0.860994
O O9 0.905622 0.254932 0.296929
O O10 0.926192 0.381157 0.371683
O O11 0.000000 0.349216 0.250000
O O12 0.113092 0.113092 0.833132
O O13 0.000000 0.155821 0.750000
O O14 0.500000 0.000000 0.088694
O O15 0.546771 0.898573 0.000000
O O16 0.740435 0.259566 0.919684
O O17 0.810628 0.354074 0.000000
#
# Coordination Sequence:
#
# PCOD9567043 Si02
#       6
#    16  16  16  16  16  16
#     4   9  19  34  50  67  85 110 152 207 258 294
#     4  10  19  29  46  68  99 126 152 189 231 283
#     4  10  19  32  44  62  91 119 149 194 237 294
#     4  11  23  35  48  65  86 119 163 207 250 291
#     4  10  19  29  46  69  91 118 149 183 235 293
#     4   9  17  31  51  74  99 128 163 201 243 290
#
# _framework density 16.299106999999999
#
# number of rings (size 3 to 8) (size 9 to 14) (size 15 to 20)
#    0.000    2.167    1.667    4.000    0.000    4.167 
#    0.000    0.833    0.000    0.000    0.000    0.000 
#    0.000    2.333    0.000    1.833    0.000    1.833 
#
# Total GULP energy -535033.236679 kJ/mol
# GULP energy per Si atom -5573.262882 kJ/mol
# Density = 1.626201 g / cm^3
# Si number density = 16.299107 Si / 1000 Ang^3
#
#
#
# Elastic Constant Matrix: (Units=GPa)
#
#
# Indices 1 2 3 4 5 6 
#
# 1 49.4106 20.8073 26.3049 0.0000 0.0000 0.0000
# 2 20.8073 49.4106 26.3049 0.0000 0.0000 0.0000
# 3 26.3049 26.3049 90.2596 0.0000 0.0000 0.0000
# 4 0.0000 0.0000 0.0000 20.9062 0.0000 0.0000
# 5 0.0000 0.0000 0.0000 0.0000 20.9062 0.0000
# 6 0.0000 0.0000 0.0000 0.0000 0.0000 4.5090
#
#
#
# Elastic Compliance Matrix: (Units=1/GPa)
#
#
# Indices 1 2 3 4 5 6 
#
# 1 0.026590 -0.008371 -0.005310 0.000000 0.000000 0.000000
# 2 -0.008371 0.026590 -0.005310 0.000000 0.000000 0.000000
# 3 -0.005310 -0.005310 0.014174 0.000000 0.000000 0.000000
# 4 0.000000 0.000000 0.000000 0.047833 0.000000 0.000000
# 5 0.000000 0.000000 0.000000 0.000000 0.047833 0.000000
# 6 0.000000 0.000000 0.000000 0.000000 0.000000 0.221780
#
#
# Mechanical properties :
#
#
# Convention : Reuss Voigt Hill
#
# Bulk Modulus (GPa) = 34.04359 37.32385 35.68372
# Shear Modulus (GPa) = 11.55874 16.97517 14.26695
#
# Velocity S-wave (km/s) = 2.66590 3.23070 2.96179
# Velocity P-wave (km/s) = 5.51436 6.07170 5.79973
#
# Compressibility (1/GPa) = 0.02937411
#
# Stress axis : x y z
#
# Youngs Moduli (GPa) = 37.60758 37.60758 70.55102
#
# Poissons Ratio (x) = 0.31480 0.37462
# Poissons Ratio (y) = 0.31480 0.37462
# Poissons Ratio (z) = 0.19969 0.19969
#
# Static dielectric constant tensor:
#      x y z
#    x 1.554640 0.000000 0.000000 
#    y 0.000000 1.554640 0.000000 
#    z 0.000000 0.000000 1.595310 
# 
# From -- ./inp_files/6435.got.cif
#   From: 2010.05.17/outbox.cif.g08.bks.cpg/sg132_4_cif.got.tgz:6435.got - 2010.05.20 12:30:18.
