data_PCOD9567784
_publ_section_title
;
Structure prediction by ZEFSAII (Michael W. Deem and Ramdas Pophale) SiO2 
 PCOD9567784
Probable space group: P 42/N B C
;
_chemical_formula_sum "Si O2"
_cell_formula_units_Z 128
_cell_length_a 23.002913
_cell_length_b 23.002913
_cell_length_c 12.234420
_cell_angle_alpha 90.000000
_cell_angle_beta 90.000000
_cell_angle_gamma 90.000000
_cell_volume 6473.647672
_symmetry_space_group_name_H-M "P 42/N B C"
_symmetry_group_IT_number 133
_space_group.IT_coordinate_system_code '2'
_symmetry_cell_setting 'tetragonal'
loop_
_space_group_symop_operation_xyz
x,y,z
1/2-y,x,1/2+z
1/2-x,1/2-y,z
y,1/2-x,1/2+z
x,1/2-y,-z
1/2-x,y,-z
y,x,1/2-z
1/2-y,1/2-x,1/2-z
-x,-y,-z
1/2+y,-x,1/2-z
1/2+x,1/2+y,-z
-y,1/2+x,1/2-z
-x,1/2+y,z
1/2+x,-y,z
-y,-x,1/2+z
1/2+y,1/2+x,1/2+z
loop_
_atom_site_type_symbol
_atom_site_label
_atom_site_fract_x
_atom_site_fract_y
_atom_site_fract_z
Si Si1 0.537753 0.686449 0.507661
Si Si2 0.088760 0.077136 0.625253
Si Si3 0.463020 0.368780 0.256386
Si Si4 0.480830 0.186107 0.977423
Si Si5 0.832820 0.068863 0.142237
Si Si6 0.848815 0.390556 0.529244
Si Si7 0.221795 0.838422 0.716808
Si Si8 0.454155 0.566325 0.193105
O O1 0.567415 0.750000 0.500000
O O2 0.566400 0.630504 0.447755
O O3 0.531140 0.668753 0.633834
O O4 0.477508 0.692730 0.441041
O O5 0.097871 0.097871 0.750000
O O6 0.143967 0.051044 0.562580
O O7 0.051241 0.016742 0.639504
O O8 0.401626 0.401626 0.250000
O O9 0.470677 0.333034 0.146239
O O10 0.512224 0.418784 0.261476
O O11 0.459338 0.250000 0.000000
O O12 0.549861 0.182479 0.997776
O O13 0.787106 0.100155 0.221897
O O14 0.883637 0.038838 0.214593
O O15 0.861105 0.120731 0.072988
O O16 0.805937 0.349110 0.597624
O O17 0.902046 0.412098 0.606074
O O18 0.287417 0.816101 0.725800
#
# Coordination Sequence:
#
# PCOD9567784 Si02
#       8
#    16  16  16  16  16  16  16  16
#     4  12  28  42  67 100 138 180 222 279 346 416
#     4  11  23  45  65 101 138 178 221 269 341 418
#     4  12  24  42  66 102 141 173 221 280 342 421
#     4  11  26  42  70 102 136 179 219 280 349 415
#     4  11  22  39  60  93 128 172 223 281 342 402
#     4  10  22  37  61  92 127 170 221 279 337 402
#     4  10  25  42  59  83 124 186 245 295 333 384
#     4  10  21  37  66  94 135 171 215 274 346 409
#
# _framework density 19.772469000000001
#
# number of rings (size 3 to 8) (size 9 to 14) (size 15 to 20)
#    0.000    1.125    5.000    0.375    5.250    0.500 
#    0.000    1.250    0.000    0.375    0.000    1.750 
#    0.000    0.000    0.000    0.000    0.000    0.000 
#
# Total GULP energy -715087.993371 kJ/mol
# GULP energy per Si atom -5586.624948 kJ/mol
# Density = 1.972747 g / cm^3
# Si number density = 19.772469 Si / 1000 Ang^3
#
#
#
# Elastic Constant Matrix: (Units=GPa)
#
#
# Indices 1 2 3 4 5 6 
#
# 1 76.8593 19.5494 25.2226 0.0000 0.0000 0.0000
# 2 19.5494 76.8593 25.2226 0.0000 0.0000 0.0000
# 3 25.2226 25.2226 105.0575 0.0000 0.0000 0.0000
# 4 0.0000 0.0000 0.0000 16.3927 0.0000 0.0000
# 5 0.0000 0.0000 0.0000 0.0000 16.3927 0.0000
# 6 0.0000 0.0000 0.0000 0.0000 0.0000 14.9635
#
#
#
# Elastic Compliance Matrix: (Units=1/GPa)
#
#
# Indices 1 2 3 4 5 6 
#
# 1 0.014656 -0.002793 -0.002848 0.000000 0.000000 0.000000
# 2 -0.002793 0.014656 -0.002848 0.000000 0.000000 0.000000
# 3 -0.002848 -0.002848 0.010886 0.000000 0.000000 0.000000
# 4 0.000000 0.000000 0.000000 0.061003 0.000000 0.000000
# 5 0.000000 0.000000 0.000000 0.000000 0.061003 0.000000
# 6 0.000000 0.000000 0.000000 0.000000 0.000000 0.066829
#
#
# Mechanical properties :
#
#
# Convention : Reuss Voigt Hill
#
# Bulk Modulus (GPa) = 43.06742 44.30725 43.68734
# Shear Modulus (GPa) = 19.70439 22.13523 20.91981
#
# Velocity S-wave (km/s) = 3.16025 3.34952 3.25626
# Velocity P-wave (km/s) = 5.92833 6.11688 6.02334
#
# Compressibility (1/GPa) = 0.02321941
#
# Stress axis : x y z
#
# Youngs Moduli (GPa) = 68.23206 68.23206 91.85991
#
# Poissons Ratio (x) = 0.19058 0.26162
# Poissons Ratio (y) = 0.19058 0.26162
# Poissons Ratio (z) = 0.19433 0.19433
#
# Static dielectric constant tensor:
#      x y z
#    x 1.706160 0.000000 0.000000 
#    y 0.000000 1.706160 0.000000 
#    z 0.000000 0.000000 1.701040 
# 
# From -- ./inp_files/3518.got.cif
#   From: 2010.05.17/outbox.cif.g08.bks.cpg/sg133_2_cif.got.tgz:3518.got - 2010.05.20 12:37:36.
