data_PCOD9567732
_publ_section_title
;
Structure prediction by ZEFSAII (Michael W. Deem and Ramdas Pophale) SiO2 
 PCOD9567732
Probable space group: P 42/N B C
;
_chemical_formula_sum "Si O2"
_cell_formula_units_Z 120
_cell_length_a 20.751537
_cell_length_b 20.751537
_cell_length_c 15.403924
_cell_angle_alpha 90.000000
_cell_angle_beta 90.000000
_cell_angle_gamma 90.000000
_cell_volume 6633.334611
_symmetry_space_group_name_H-M "P 42/N B C"
_symmetry_group_IT_number 133
_space_group.IT_coordinate_system_code '2'
_symmetry_cell_setting 'tetragonal'
loop_
_space_group_symop_operation_xyz
x,y,z
1/2-y,x,1/2+z
1/2-x,1/2-y,z
y,1/2-x,1/2+z
x,1/2-y,-z
1/2-x,y,-z
y,x,1/2-z
1/2-y,1/2-x,1/2-z
-x,-y,-z
1/2+y,-x,1/2-z
1/2+x,1/2+y,-z
-y,1/2+x,1/2-z
-x,1/2+y,z
1/2+x,-y,z
-y,-x,1/2+z
1/2+y,1/2+x,1/2+z
loop_
_atom_site_type_symbol
_atom_site_label
_atom_site_fract_x
_atom_site_fract_y
_atom_site_fract_z
Si Si1 0.176692 0.032630 0.018232
Si Si2 0.882752 0.312562 0.548451
Si Si3 0.787181 0.148596 0.756165
Si Si4 0.041177 0.039021 0.927048
Si Si5 0.541396 0.158871 0.043009
Si Si6 0.293549 0.529201 0.361414
Si Si7 0.643116 0.547492 0.783891
Si Si8 0.505287 0.994713 0.250000
O O1 0.178282 0.954733 0.012411
O O2 0.163933 0.050703 0.117709
O O3 0.250000 0.055300 0.000000
O O4 0.113730 0.052137 0.961582
O O5 0.853183 0.250000 0.500000
O O6 0.884380 0.297190 0.650670
O O7 0.848393 0.381300 0.538718
O O8 0.713035 0.170382 0.747617
O O9 0.803780 0.099500 0.679872
O O10 0.997667 0.102049 0.912577
O O11 0.039656 0.004742 0.833314
O O12 0.000000 0.000000 0.000000
O O13 0.526851 0.223550 0.095468
O O14 0.517681 0.160057 0.943103
O O15 0.305541 0.479901 0.283599
O O16 0.614862 0.614862 0.750000
O O17 0.580032 0.500853 0.779868
#
# Coordination Sequence:
#
# PCOD9567732 Si02
#       8
#    16  16  16  16  16  16  16   8
#     4  11  23  38  61  90 128 160 199 259 327 384
#     4  11  21  36  52  82 116 161 210 258 306 365
#     4  11  22  36  51  76 115 167 216 255 293 360
#     4  12  21  41  60  92 127 157 212 268 322 387
#     4  11  23  38  57  83 121 166 205 272 315 369
#     4  11  22  37  56  83 118 163 215 259 313 378
#     4  10  20  38  60  91 117 159 204 257 324 382
#     4  10  22  34  66  90 120 165 201 258 330 378
#
# _framework density 18.090447000000001
#
# number of rings (size 3 to 8) (size 9 to 14) (size 15 to 20)
#    0.400    0.667    5.333    2.400    0.000    1.067 
#    0.000    0.000    0.000    0.000    0.000    8.400 
#    0.000    0.000    0.000    0.000    0.000    0.000 
#
# Total GULP energy -669349.250510 kJ/mol
# GULP energy per Si atom -5577.910421 kJ/mol
# Density = 1.804927 g / cm^3
# Si number density = 18.090447 Si / 1000 Ang^3
#
#
#
# Elastic Constant Matrix: (Units=GPa)
#
#
# Indices 1 2 3 4 5 6 
#
# 1 68.0908 20.7357 25.4501 0.0000 0.0000 0.0000
# 2 20.7357 68.0908 25.4501 0.0000 0.0000 0.0000
# 3 25.4501 25.4501 119.7785 0.0000 0.0000 0.0000
# 4 0.0000 0.0000 0.0000 26.6254 0.0000 0.0000
# 5 0.0000 0.0000 0.0000 0.0000 26.6254 0.0000
# 6 0.0000 0.0000 0.0000 0.0000 0.0000 16.3695
#
#
#
# Elastic Compliance Matrix: (Units=1/GPa)
#
#
# Indices 1 2 3 4 5 6 
#
# 1 0.016968 -0.004149 -0.002724 0.000000 0.000000 0.000000
# 2 -0.004149 0.016968 -0.002724 0.000000 0.000000 0.000000
# 3 -0.002724 -0.002724 0.009506 0.000000 0.000000 0.000000
# 4 0.000000 0.000000 0.000000 0.037558 0.000000 0.000000
# 5 0.000000 0.000000 0.000000 0.000000 0.037558 0.000000
# 6 0.000000 0.000000 0.000000 0.000000 0.000000 0.061089
#
#
# Mechanical properties :
#
#
# Convention : Reuss Voigt Hill
#
# Bulk Modulus (GPa) = 41.23913 44.35910 42.79911
# Shear Modulus (GPa) = 24.16354 26.21234 25.18794
#
# Velocity S-wave (km/s) = 3.65870 3.81065 3.73545
# Velocity P-wave (km/s) = 6.37916 6.62838 6.50496
#
# Compressibility (1/GPa) = 0.02424881
#
# Stress axis : x y z
#
# Youngs Moduli (GPa) = 58.93506 58.93506 105.19491
#
# Poissons Ratio (x) = 0.24453 0.28651
# Poissons Ratio (y) = 0.24453 0.28651
# Poissons Ratio (z) = 0.16052 0.16052
#
# Static dielectric constant tensor:
#      x y z
#    x 1.636670 0.000000 0.000000 
#    y 0.000000 1.636670 0.000000 
#    z 0.000000 0.000000 1.634250 
# 
# From -- ./inp_files/4690.got.cif
#   From: 2010.05.17/outbox.cif.g08.bks.cpg/sg133_3_cif.got.tgz:4690.got - 2010.05.20 12:37:36.
