data_PCOD9567508
_publ_section_title
;
Structure prediction by ZEFSAII (Michael W. Deem and Ramdas Pophale) SiO2 
 PCOD9567508
Probable space group: P 42/M C M
;
_chemical_formula_sum "Si O2"
_cell_formula_units_Z 60
_cell_length_a 15.620594
_cell_length_b 15.620594
_cell_length_c 14.138311
_cell_angle_alpha 90.000000
_cell_angle_beta 90.000000
_cell_angle_gamma 90.000000
_cell_volume 3449.789690
_symmetry_space_group_name_H-M "P 42/M C M"
_symmetry_group_IT_number 132
_symmetry_cell_setting 'tetragonal'
loop_
_space_group_symop_operation_xyz
x,y,z
-y,x,1/2+z
-x,-y,z
y,-x,1/2+z
x,-y,1/2-z
-x,y,1/2-z
y,x,-z
-y,-x,-z
-x,-y,-z
y,-x,1/2-z
x,y,-z
-y,x,1/2-z
-x,y,1/2+z
x,-y,1/2+z
-y,-x,z
y,x,z
loop_
_atom_site_type_symbol
_atom_site_label
_atom_site_fract_x
_atom_site_fract_y
_atom_site_fract_z
Si Si1 0.618658 0.618658 0.115009
Si Si2 0.061805 0.582435 0.500000
Si Si3 0.271442 0.078643 0.500000
Si Si4 0.795900 0.467171 0.646494
Si Si5 0.000000 0.000000 0.250000
Si Si6 0.500000 0.500000 0.750000
Si Si7 0.895387 0.895387 0.601084
Si Si8 0.611978 0.246443 0.000000
O O1 0.596944 0.715959 0.142436
O O2 0.558089 0.558089 0.179684
O O3 0.607111 0.607111 0.000000
O O4 0.124290 0.572739 0.590164
O O5 0.000000 0.500000 0.500000
O O6 0.003455 0.667262 0.500000
O O7 0.205821 0.085706 0.588875
O O8 0.327936 0.163577 0.500000
O O9 0.818907 0.500000 0.750000
O O10 0.761492 0.549630 0.589158
O O11 0.059656 0.940345 0.186330
O O12 0.930156 0.930156 0.500000
O O13 0.668699 0.331302 0.000000
#
# Coordination Sequence:
#
# PCOD9567508 Si02
#       8
#     8   8   8  16   2   2   8   8
#     4  12  23  43  59  91 125 169 213 265 322 364
#     4  11  21  44  64  87 128 175 213 257 331 378
#     4   9  19  44  60  94 125 159 211 262 307 385
#     4  11  25  40  62  93 128 169 217 272 308 388
#     4  12  18  44  68  98 128 168 194 260 344 382
#     4  12  26  36  68  86 124 160 234 252 308 386
#     4   8  21  39  65  92 132 153 209 261 311 387
#     4  11  21  40  64  84 126 170 209 257 323 368
#
# _framework density 17.392365000000002
#
# number of rings (size 3 to 8) (size 9 to 14) (size 15 to 20)
#    0.800    0.533    8.000    0.400    3.733    0.533 
#    4.800    2.667    0.000    0.000    0.000    0.000 
#    0.000    0.000    0.000    0.000    0.000    0.000 
#
# Total GULP energy -334311.016417 kJ/mol
# GULP energy per Si atom -5571.850274 kJ/mol
# Density = 1.735278 g / cm^3
# Si number density = 17.392365 Si / 1000 Ang^3
#
#
#
# Elastic Constant Matrix: (Units=GPa)
#
#
# Indices 1 2 3 4 5 6 
#
# 1 135.4452 72.8625 36.7471 0.0000 0.0000 0.0000
# 2 72.8625 135.4438 36.7468 0.0000 0.0000 0.0000
# 3 36.7471 36.7468 103.6279 0.0000 0.0000 0.0000
# 4 0.0000 0.0000 0.0000 0.7956 0.0000 0.0000
# 5 0.0000 0.0000 0.0000 0.0000 0.7987 0.0000
# 6 0.0000 0.0000 0.0000 0.0000 0.0000 51.5530
#
#
#
# Elastic Compliance Matrix: (Units=1/GPa)
#
#
# Indices 1 2 3 4 5 6 
#
# 1 0.010733 -0.005246 -0.001946 0.000000 0.000000 0.000000
# 2 -0.005246 0.010733 -0.001946 0.000000 0.000000 0.000000
# 3 -0.001946 -0.001946 0.011030 0.000000 0.000000 0.000000
# 4 0.000000 0.000000 0.000000 1.256897 0.000000 0.000000
# 5 0.000000 0.000000 0.000000 0.000000 1.252086 0.000000
# 6 0.000000 0.000000 0.000000 0.000000 0.000000 0.019398
#
#
# Mechanical properties :
#
#
# Convention : Reuss Voigt Hill
#
# Bulk Modulus (GPa) = 70.31829 74.13661 72.22745
# Shear Modulus (GPa) = 1.93507 25.84016 13.88761
#
# Velocity S-wave (km/s) = 1.05594 3.85868 2.82882
# Velocity P-wave (km/s) = 6.48113 7.91019 7.23105
#
# Compressibility (1/GPa) = 0.01422105
#
# Stress axis : x y z
#
# Youngs Moduli (GPa) = 93.17049 93.16958 90.66306
#
# Poissons Ratio (x) = 0.48876 0.17641
# Poissons Ratio (y) = 0.48877 0.17641
# Poissons Ratio (z) = 0.18129 0.18128
#
# Static dielectric constant tensor:
#      x y z
#    x 1.615280 0.000000 0.000000 
#    y 0.000000 1.615280 0.000000 
#    z 0.000000 0.000000 1.604730 
# 
# From -- ./inp_files/4525.got.cif
#   From: 2010.05.17/outbox.cif.g08.bks.cpg/sg132_3_cif.got.tgz:4525.got - 2010.05.20 12:30:18.
