data_PCOD9567034
_publ_section_title
;
Structure prediction by ZEFSAII (Michael W. Deem and Ramdas Pophale) SiO2 
 PCOD9567034
Probable space group: P 42/M C M
;
_chemical_formula_sum "Si O2"
_cell_formula_units_Z 80
_cell_length_a 19.606230
_cell_length_b 19.606230
_cell_length_c 14.604017
_cell_angle_alpha 90.000000
_cell_angle_beta 90.000000
_cell_angle_gamma 90.000000
_cell_volume 5613.846272
_symmetry_space_group_name_H-M "P 42/M C M"
_symmetry_group_IT_number 132
_symmetry_cell_setting 'tetragonal'
loop_
_space_group_symop_operation_xyz
x,y,z
-y,x,1/2+z
-x,-y,z
y,-x,1/2+z
x,-y,1/2-z
-x,y,1/2-z
y,x,-z
-y,-x,-z
-x,-y,-z
y,-x,1/2-z
x,y,-z
-y,x,1/2-z
-x,y,1/2+z
x,-y,1/2+z
-y,-x,z
y,x,z
loop_
_atom_site_type_symbol
_atom_site_label
_atom_site_fract_x
_atom_site_fract_y
_atom_site_fract_z
Si Si1 0.723090 0.832742 0.746699
Si Si2 0.809469 0.081337 0.890523
Si Si3 0.998375 0.395891 0.393867
Si Si4 0.883571 0.574589 0.249421
Si Si5 0.942649 0.757850 0.894919
O O1 0.759515 0.759515 0.745607
O O2 0.750454 0.875350 0.659289
O O3 0.641331 0.836069 0.753425
O O4 0.752304 0.877568 0.830892
O O5 0.879016 0.120985 0.869458
O O6 0.808747 0.002150 0.863504
O O7 0.798356 0.082998 0.000000
O O8 0.002724 0.416187 0.500000
O O9 0.934257 0.426289 0.338455
O O10 0.981762 0.315148 0.390812
O O11 0.065472 0.413587 0.335663
O O12 0.850224 0.500000 0.250000
O O13 0.923610 0.771162 0.000000
#
# Coordination Sequence:
#
# PCOD9567034 Si02
#       5
#    16  16  16  16  16
#     4  10  19  30  43  58  80 109 138 168 206 248
#     4   9  16  26  42  62  81 104 136 172 207 243
#     4   9  16  27  42  61  86 112 134 159 193 238
#     4  10  19  28  40  61  85 107 136 168 197 239
#     4   9  16  27  43  60  80 107 139 171 202 239
#
# _framework density 14.250479
#
# number of rings (size 3 to 8) (size 9 to 14) (size 15 to 20)
#    0.000    2.600    2.000    1.800    0.000    2.000 
#    0.000    0.000    0.000    0.600    0.000    5.600 
#    0.000    0.400    0.000    0.000    0.000    0.000 
#
# Total GULP energy -445522.245519 kJ/mol
# GULP energy per Si atom -5569.028069 kJ/mol
# Density = 1.421804 g / cm^3
# Si number density = 14.250479 Si / 1000 Ang^3
#
#
#
# Elastic Constant Matrix: (Units=GPa)
#
#
# Indices 1 2 3 4 5 6 
#
# 1 61.9845 37.3400 14.9792 0.0000 0.0000 0.0000
# 2 37.3400 61.9845 14.9792 0.0000 0.0000 0.0000
# 3 14.9792 14.9792 71.9027 0.0000 0.0000 0.0000
# 4 0.0000 0.0000 0.0000 9.3109 0.0000 0.0000
# 5 0.0000 0.0000 0.0000 0.0000 9.3109 0.0000
# 6 0.0000 0.0000 0.0000 0.0000 0.0000 8.2044
#
#
#
# Elastic Compliance Matrix: (Units=1/GPa)
#
#
# Indices 1 2 3 4 5 6 
#
# 1 0.025660 -0.014917 -0.002238 0.000000 0.000000 0.000000
# 2 -0.014917 0.025660 -0.002238 0.000000 0.000000 0.000000
# 3 -0.002238 -0.002238 0.014840 0.000000 0.000000 0.000000
# 4 0.000000 0.000000 0.000000 0.107401 0.000000 0.000000
# 5 0.000000 0.000000 0.000000 0.000000 0.107401 0.000000
# 6 0.000000 0.000000 0.000000 0.000000 0.000000 0.121885
#
#
# Mechanical properties :
#
#
# Convention : Reuss Voigt Hill
#
# Bulk Modulus (GPa) = 36.53091 36.71869 36.62480
# Shear Modulus (GPa) = 11.09244 13.93682 12.51463
#
# Velocity S-wave (km/s) = 2.79299 3.13067 2.96664
# Velocity P-wave (km/s) = 6.00763 6.23624 6.12300
#
# Compressibility (1/GPa) = 0.02737408
#
# Stress axis : x y z
#
# Youngs Moduli (GPa) = 38.97112 38.97112 67.38464
#
# Poissons Ratio (x) = 0.58133 0.15081
# Poissons Ratio (y) = 0.58133 0.15081
# Poissons Ratio (z) = 0.08722 0.08722
#
# Static dielectric constant tensor:
#      x y z
#    x 1.481790 0.000000 0.000000 
#    y 0.000000 1.481790 0.000000 
#    z 0.000000 0.000000 1.501660 
# 
# From -- ./inp_files/4867.got.cif
#   From: 2010.05.17/outbox.cif.g08.bks.cpg/sg132_3_cif.got.tgz:4867.got - 2010.05.20 12:30:18.
