data_PCOD9567751
_publ_section_title
;
Structure prediction by ZEFSAII (Michael W. Deem and Ramdas Pophale) SiO2 
 PCOD9567751
Probable space group: P 42/N B C
;
_chemical_formula_sum "Si O2"
_cell_formula_units_Z 96
_cell_length_a 15.551523
_cell_length_b 15.551523
_cell_length_c 19.564633
_cell_angle_alpha 90.000000
_cell_angle_beta 90.000000
_cell_angle_gamma 90.000000
_cell_volume 4731.703901
_symmetry_space_group_name_H-M "P 42/N B C"
_symmetry_group_IT_number 133
_space_group.IT_coordinate_system_code '2'
_symmetry_cell_setting 'tetragonal'
loop_
_space_group_symop_operation_xyz
x,y,z
1/2-y,x,1/2+z
1/2-x,1/2-y,z
y,1/2-x,1/2+z
x,1/2-y,-z
1/2-x,y,-z
y,x,1/2-z
1/2-y,1/2-x,1/2-z
-x,-y,-z
1/2+y,-x,1/2-z
1/2+x,1/2+y,-z
-y,1/2+x,1/2-z
-x,1/2+y,z
1/2+x,-y,z
-y,-x,1/2+z
1/2+y,1/2+x,1/2+z
loop_
_atom_site_type_symbol
_atom_site_label
_atom_site_fract_x
_atom_site_fract_y
_atom_site_fract_z
Si Si1 0.951846 0.657219 0.704814
Si Si2 0.528559 0.937610 0.918158
Si Si3 0.939875 0.878727 0.944028
Si Si4 0.161037 0.197568 0.328442
Si Si5 0.215079 0.624620 0.277613
Si Si6 0.584345 0.268068 0.929376
O O1 0.869798 0.630203 0.750000
O O2 0.954423 0.580753 0.650665
O O3 0.922613 0.742574 0.667210
O O4 0.035262 0.674448 0.751070
O O5 0.454509 0.864256 0.919274
O O6 0.486647 0.030363 0.930905
O O7 0.590040 0.897555 0.977880
O O8 0.872440 0.852558 0.886770
O O9 0.008629 0.801814 0.939503
O O10 0.250000 0.250000 0.339595
O O11 0.163125 0.163125 0.250000
O O12 0.147655 0.701486 0.267373
O O13 0.247603 0.625253 0.355646
O O14 0.635922 0.250000 0.000000
#
# Coordination Sequence:
#
# PCOD9567751 Si02
#       6
#    16  16  16  16  16  16
#     4  12  22  38  64  91 127 163 214 262 320 385
#     4  10  22  39  62  95 121 171 217 262 314 403
#     4  10  22  40  63  91 131 164 219 264 323 390
#     4  11  22  38  61  93 130 166 203 269 332 389
#     4  11  25  43  64  95 128 168 223 274 316 386
#     4  10  20  40  67  91 126 172 214 267 323 388
#
# _framework density 20.288674
#
# number of rings (size 3 to 8) (size 9 to 14) (size 15 to 20)
#    0.000    1.333    3.333    3.000    2.333    1.333 
#    0.000    2.500    3.667    0.000    0.000    0.000 
#    0.000    0.000    0.000    0.000    0.000    0.000 
#
# Total GULP energy -534724.926001 kJ/mol
# GULP energy per Si atom -5570.051313 kJ/mol
# Density = 2.024250 g / cm^3
# Si number density = 20.288674 Si / 1000 Ang^3
#
#
#
# Elastic Constant Matrix: (Units=GPa)
#
#
# Indices 1 2 3 4 5 6 
#
# 1 74.8596 18.5888 21.7268 0.0000 0.0000 0.0000
# 2 18.5888 74.8587 21.7274 0.0000 0.0000 0.0000
# 3 21.7268 21.7274 108.2217 0.0000 0.0000 0.0000
# 4 0.0000 0.0000 0.0000 52.5910 0.0000 0.0000
# 5 0.0000 0.0000 0.0000 0.0000 52.5949 0.0000
# 6 0.0000 0.0000 0.0000 0.0000 0.0000 23.2041
#
#
#
# Elastic Compliance Matrix: (Units=1/GPa)
#
#
# Indices 1 2 3 4 5 6 
#
# 1 0.014787 -0.002984 -0.002370 0.000000 0.000000 0.000000
# 2 -0.002984 0.014787 -0.002370 0.000000 0.000000 0.000000
# 3 -0.002370 -0.002370 0.010192 0.000000 0.000000 0.000000
# 4 0.000000 0.000000 0.000000 0.019015 0.000000 0.000000
# 5 0.000000 0.000000 0.000000 0.000000 0.019013 0.000000
# 6 0.000000 0.000000 0.000000 0.000000 0.000000 0.043096
#
#
# Mechanical properties :
#
#
# Convention : Reuss Voigt Hill
#
# Bulk Modulus (GPa) = 41.11956 42.44732 41.78344
# Shear Modulus (GPa) = 34.61567 38.73778 36.67673
#
# Velocity S-wave (km/s) = 4.13505 4.37433 4.25637
# Velocity P-wave (km/s) = 6.56577 6.81763 6.69289
#
# Compressibility (1/GPa) = 0.02431933
#
# Stress axis : x y z
#
# Youngs Moduli (GPa) = 67.62659 67.62549 98.11838
#
# Poissons Ratio (x) = 0.20181 0.23250
# Poissons Ratio (y) = 0.20181 0.23251
# Poissons Ratio (z) = 0.16025 0.16025
#
# Static dielectric constant tensor:
#      x y z
#    x 1.720390 0.000000 0.000000 
#    y 0.000000 1.720390 0.000000 
#    z 0.000000 0.000000 1.905890 
# 
# From -- ./inp_files/6500.got.cif
#   From: 2010.05.17/outbox.cif.g08.bks.cpg/sg133_4_cif.got.tgz:6500.got - 2010.05.20 12:37:36.
