data_PCOD9567771
_publ_section_title
;
Structure prediction by ZEFSAII (Michael W. Deem and Ramdas Pophale) SiO2 
 PCOD9567771
Probable space group: P 42/N B C
;
_chemical_formula_sum "Si O2"
_cell_formula_units_Z 72
_cell_length_a 17.233106
_cell_length_b 17.233106
_cell_length_c 11.852731
_cell_angle_alpha 90.000000
_cell_angle_beta 90.000000
_cell_angle_gamma 90.000000
_cell_volume 3520.023370
_symmetry_space_group_name_H-M "P 42/N B C"
_symmetry_group_IT_number 133
_space_group.IT_coordinate_system_code '2'
_symmetry_cell_setting 'tetragonal'
loop_
_space_group_symop_operation_xyz
x,y,z
1/2-y,x,1/2+z
1/2-x,1/2-y,z
y,1/2-x,1/2+z
x,1/2-y,-z
1/2-x,y,-z
y,x,1/2-z
1/2-y,1/2-x,1/2-z
-x,-y,-z
1/2+y,-x,1/2-z
1/2+x,1/2+y,-z
-y,1/2+x,1/2-z
-x,1/2+y,z
1/2+x,-y,z
-y,-x,1/2+z
1/2+y,1/2+x,1/2+z
loop_
_atom_site_type_symbol
_atom_site_label
_atom_site_fract_x
_atom_site_fract_y
_atom_site_fract_z
Si Si1 0.931981 0.083202 0.583806
Si Si2 0.311879 0.887782 0.405919
Si Si3 0.052051 0.174342 0.451891
Si Si4 0.936175 0.936175 0.750000
Si Si5 0.091398 0.752428 0.322452
O O1 0.882314 0.067125 0.469285
O O2 0.893460 0.162312 0.629396
O O3 0.017018 0.112891 0.542880
O O4 0.932206 0.018990 0.682358
O O5 0.250000 0.868869 0.500000
O O6 0.341210 0.808904 0.346392
O O7 0.267497 0.932309 0.306293
O O8 0.096569 0.250000 0.500000
O O9 0.083166 0.123641 0.349743
O O10 0.978423 0.215765 0.392572
#
# Coordination Sequence:
#
# PCOD9567771 Si02
#       5
#    16  16  16   8  16
#     4  10  21  34  51  78 111 146 186 225 266 324
#     4  11  20  31  48  74 111 157 193 214 250 313
#     4   9  20  36  52  77 113 142 181 236 277 321
#     4  12  20  36  60  80 110 152 184 226 286 338
#     4  10  21  34  47  73 113 151 185 223 258 309
#
# _framework density 20.454408999999998
#
# number of rings (size 3 to 8) (size 9 to 14) (size 15 to 20)
#    0.000    1.778    0.000    8.000    0.000    5.778 
#    0.000    0.000    0.000    0.000    0.000    0.000 
#    0.000  130.667    0.000    0.000    0.000    0.000 
#
# Total GULP energy -401144.317738 kJ/mol
# GULP energy per Si atom -5571.448857 kJ/mol
# Density = 2.040785 g / cm^3
# Si number density = 20.454409 Si / 1000 Ang^3
#
#
#
# Elastic Constant Matrix: (Units=GPa)
#
#
# Indices 1 2 3 4 5 6 
#
# 1 40.1889 12.1224 11.0793 0.0000 0.0000 0.0000
# 2 12.1224 40.1889 11.0793 0.0000 0.0000 0.0000
# 3 11.0793 11.0793 107.2666 0.0000 0.0000 0.0000
# 4 0.0000 0.0000 0.0000 39.5902 0.0000 0.0000
# 5 0.0000 0.0000 0.0000 0.0000 39.5902 0.0000
# 6 0.0000 0.0000 0.0000 0.0000 0.0000 8.7042
#
#
#
# Elastic Compliance Matrix: (Units=1/GPa)
#
#
# Indices 1 2 3 4 5 6 
#
# 1 0.027810 -0.007819 -0.002065 0.000000 0.000000 0.000000
# 2 -0.007819 0.027810 -0.002065 0.000000 0.000000 0.000000
# 3 -0.002065 -0.002065 0.009749 0.000000 0.000000 0.000000
# 4 0.000000 0.000000 0.000000 0.025259 0.000000 0.000000
# 5 0.000000 0.000000 0.000000 0.000000 0.025259 0.000000
# 6 0.000000 0.000000 0.000000 0.000000 0.000000 0.114887
#
#
# Mechanical properties :
#
#
# Convention : Reuss Voigt Hill
#
# Bulk Modulus (GPa) = 24.11279 28.46737 26.29008
# Shear Modulus (GPa) = 18.62222 27.80115 23.21169
#
# Velocity S-wave (km/s) = 3.02060 3.69070 3.37234
# Velocity P-wave (km/s) = 4.89689 5.66651 5.29570
#
# Compressibility (1/GPa) = 0.04147177
#
# Stress axis : x y z
#
# Youngs Moduli (GPa) = 35.95791 35.95791 102.57352
#
# Poissons Ratio (x) = 0.28117 0.21180
# Poissons Ratio (y) = 0.28117 0.21180
# Poissons Ratio (z) = 0.07425 0.07425
#
# Static dielectric constant tensor:
#      x y z
#    x 1.786000 0.000000 0.000000 
#    y 0.000000 1.786000 0.000000 
#    z 0.000000 0.000000 1.908910 
# 
# From -- ./inp_files/3073.got.cif
#   From: 2010.05.17/outbox.cif.g08.bks.cpg/sg133_2_cif.got.tgz:3073.got - 2010.05.20 12:37:36.
