data_PCOD9567716
_publ_section_title
;
Structure prediction by ZEFSAII (Michael W. Deem and Ramdas Pophale) SiO2 
 PCOD9567716
Probable space group: P 42/N B C
;
_chemical_formula_sum "Si O2"
_cell_formula_units_Z 80
_cell_length_a 24.283702
_cell_length_b 24.283702
_cell_length_c 7.649858
_cell_angle_alpha 90.000000
_cell_angle_beta 90.000000
_cell_angle_gamma 90.000000
_cell_volume 4511.107361
_symmetry_space_group_name_H-M "P 42/N B C"
_symmetry_group_IT_number 133
_space_group.IT_coordinate_system_code '2'
_symmetry_cell_setting 'tetragonal'
loop_
_space_group_symop_operation_xyz
x,y,z
1/2-y,x,1/2+z
1/2-x,1/2-y,z
y,1/2-x,1/2+z
x,1/2-y,-z
1/2-x,y,-z
y,x,1/2-z
1/2-y,1/2-x,1/2-z
-x,-y,-z
1/2+y,-x,1/2-z
1/2+x,1/2+y,-z
-y,1/2+x,1/2-z
-x,1/2+y,z
1/2+x,-y,z
-y,-x,1/2+z
1/2+y,1/2+x,1/2+z
loop_
_atom_site_type_symbol
_atom_site_label
_atom_site_fract_x
_atom_site_fract_y
_atom_site_fract_z
Si Si1 0.440584 0.059417 0.250000
Si Si2 0.632761 0.579417 0.580894
Si Si3 0.516846 0.236256 0.298078
Si Si4 0.615067 0.451433 0.124691
Si Si5 0.750000 0.573409 0.500000
Si Si6 0.957084 0.353297 0.775019
O O1 0.407762 0.081559 0.417452
O O2 0.504346 0.074081 0.285520
O O3 0.607449 0.607449 0.750000
O O4 0.692936 0.603565 0.538534
O O5 0.640633 0.514604 0.623852
O O6 0.501320 0.250000 0.500000
O O7 0.543125 0.175814 0.291955
O O8 0.464968 0.237339 0.168649
O O9 0.554268 0.288007 0.239057
O O10 0.589300 0.391103 0.140279
O O11 0.623739 0.465381 0.921198
#
# Coordination Sequence:
#
# PCOD9567716 Si02
#       6
#     8  16  16  16   8  16
#     4  12  22  34  56  82 117 148 178 223 288 332
#     4  11  22  37  54  87 115 145 187 227 278 341
#     4   9  20  37  53  76 109 149 193 224 269 334
#     4  11  21  35  54  81 115 147 186 230 281 336
#     4  10  20  36  60  76 111 149 184 224 276 332
#     4  10  22  35  54  80 114 150 182 231 279 334
#
# _framework density 17.734005
#
# number of rings (size 3 to 8) (size 9 to 14) (size 15 to 20)
#    0.000    1.600    4.000    1.200    4.200    1.600 
#    0.000    0.000    0.000    0.600    0.000    6.300 
#    0.000    0.000    0.000    0.000    0.000    0.000 
#
# Total GULP energy -446428.347614 kJ/mol
# GULP energy per Si atom -5580.354345 kJ/mol
# Density = 1.769364 g / cm^3
# Si number density = 17.734005 Si / 1000 Ang^3
#
#
#
# Elastic Constant Matrix: (Units=GPa)
#
#
# Indices 1 2 3 4 5 6 
#
# 1 73.0339 29.8053 18.9072 0.0000 0.0000 0.0000
# 2 29.8053 73.0322 18.9075 0.0000 0.0000 0.0000
# 3 18.9072 18.9075 73.1729 0.0000 0.0000 0.0000
# 4 0.0000 0.0000 0.0000 18.1291 0.0000 0.0000
# 5 0.0000 0.0000 0.0000 0.0000 18.1294 0.0000
# 6 0.0000 0.0000 0.0000 0.0000 0.0000 4.5393
#
#
#
# Elastic Compliance Matrix: (Units=1/GPa)
#
#
# Indices 1 2 3 4 5 6 
#
# 1 0.016939 -0.006194 -0.002776 0.000000 0.000000 0.000000
# 2 -0.006194 0.016939 -0.002777 0.000000 0.000000 0.000000
# 3 -0.002776 -0.002777 0.015101 0.000000 0.000000 0.000000
# 4 0.000000 0.000000 0.000000 0.055160 0.000000 0.000000
# 5 0.000000 0.000000 0.000000 0.000000 0.055159 0.000000
# 6 0.000000 0.000000 0.000000 0.000000 0.000000 0.220297
#
#
# Mechanical properties :
#
#
# Convention : Reuss Voigt Hill
#
# Bulk Modulus (GPa) = 39.23836 39.38654 39.31245
# Shear Modulus (GPa) = 12.14816 18.26749 15.20783
#
# Velocity S-wave (km/s) = 2.62013 3.21297 2.93158
# Velocity P-wave (km/s) = 5.59710 6.00184 5.80300
#
# Compressibility (1/GPa) = 0.02548527
#
# Stress axis : x y z
#
# Youngs Moduli (GPa) = 59.03584 59.03420 66.22049
#
# Poissons Ratio (x) = 0.36567 0.18385
# Poissons Ratio (y) = 0.36568 0.18386
# Poissons Ratio (z) = 0.16390 0.16391
#
# Static dielectric constant tensor:
#      x y z
#    x 1.604110 0.000000 0.000000 
#    y 0.000000 1.604110 0.000000 
#    z 0.000000 0.000000 1.643330 
# 
# From -- ./inp_files/1827.got.cif
#   From: 2010.05.17/outbox.cif.g08.bks.cpg/sg133_1_cif.got.tgz:1827.got - 2010.05.20 12:37:36.
