data_PCOD9567862
_publ_section_title
;
Structure prediction by ZEFSAII (Michael W. Deem and Ramdas Pophale) SiO2 
 PCOD9567862
Probable space group: P 42/N B C
;
_chemical_formula_sum "Si O2"
_cell_formula_units_Z 28
_cell_length_a 9.155953
_cell_length_b 9.155953
_cell_length_c 14.042521
_cell_angle_alpha 90.000000
_cell_angle_beta 90.000000
_cell_angle_gamma 90.000000
_cell_volume 1177.205253
_symmetry_space_group_name_H-M "P 42/N B C"
_symmetry_group_IT_number 133
_space_group.IT_coordinate_system_code '2'
_symmetry_cell_setting 'tetragonal'
loop_
_space_group_symop_operation_xyz
x,y,z
1/2-y,x,1/2+z
1/2-x,1/2-y,z
y,1/2-x,1/2+z
x,1/2-y,-z
1/2-x,y,-z
y,x,1/2-z
1/2-y,1/2-x,1/2-z
-x,-y,-z
1/2+y,-x,1/2-z
1/2+x,1/2+y,-z
-y,1/2+x,1/2-z
-x,1/2+y,z
1/2+x,-y,z
-y,-x,1/2+z
1/2+y,1/2+x,1/2+z
loop_
_atom_site_type_symbol
_atom_site_label
_atom_site_fract_x
_atom_site_fract_y
_atom_site_fract_z
Si Si1 0.250000 0.750000 0.250000
Si Si2 0.956769 0.154444 0.089953
Si Si3 0.750000 0.574369 0.000000
O O1 0.225708 0.891856 0.315775
O O2 0.864693 0.008012 0.069558
O O3 0.909292 0.250000 0.000000
O O4 0.130575 0.140933 0.074478
#
# Coordination Sequence:
#
# PCOD9567862 Si02
#       3
#     4  16   8
#     4  12  22  40  72 106 156 192 278 328 388 458
#     4  11  22  44  66 106 147 201 248 324 390 459
#     4  10  22  42  72  96 152 204 246 310 408 459
#
# _framework density 23.785148
#
# number of rings (size 3 to 8) (size 9 to 14) (size 15 to 20)
#    0.000    1.143    5.714    0.857    0.000    2.286 
#    0.000    0.000    0.000    6.857    0.000    0.000 
#    0.000    0.000    0.000    0.000    0.000    0.000 
#
# Total GULP energy -156008.474683 kJ/mol
# GULP energy per Si atom -5571.731239 kJ/mol
# Density = 2.373101 g / cm^3
# Si number density = 23.785148 Si / 1000 Ang^3
#
#
#
# Elastic Constant Matrix: (Units=GPa)
#
#
# Indices 1 2 3 4 5 6 
#
# 1 183.6370 68.6942 65.1767 0.0000 0.0000 0.0000
# 2 68.6942 183.6370 65.1767 0.0000 0.0000 0.0000
# 3 65.1767 65.1767 154.7350 0.0000 0.0000 0.0000
# 4 0.0000 0.0000 0.0000 -38.4635 0.0000 0.0000
# 5 0.0000 0.0000 0.0000 0.0000 -38.4635 0.0000
# 6 0.0000 0.0000 0.0000 0.0000 0.0000 49.3272
#
#
#
# Elastic Compliance Matrix: (Units=1/GPa)
#
#
# Indices 1 2 3 4 5 6 
#
# 1 0.006883 -0.001817 -0.002134 0.000000 0.000000 0.000000
# 2 -0.001817 0.006883 -0.002134 0.000000 0.000000 0.000000
# 3 -0.002134 -0.002134 0.008260 0.000000 0.000000 0.000000
# 4 0.000000 0.000000 0.000000 -0.025999 0.000000 0.000000
# 5 0.000000 0.000000 0.000000 0.000000 -0.025999 0.000000
# 6 0.000000 0.000000 0.000000 0.000000 0.000000 0.020273
#
#
# Mechanical properties :
#
#
# Convention : Reuss Voigt Hill
#
# Bulk Modulus (GPa) = 101.45810 102.23380 101.84595
# Shear Modulus (GPa) = 868.79493 16.01079 442.40286
#
# Velocity S-wave (km/s) = 19.13272 2.59731 13.65296
# Velocity P-wave (km/s) = 23.03974 7.21597 17.07191
#
# Compressibility (1/GPa) = 0.00985629
#
# Stress axis : x y z
#
# Youngs Moduli (GPa) = 145.29388 145.29388 121.06498
#
# Poissons Ratio (x) = 0.26405 0.25830
# Poissons Ratio (y) = 0.26405 0.25830
# Poissons Ratio (z) = 0.30999 0.30999
#
# Static dielectric constant tensor:
#      x y z
#    x 1.753600 0.000000 0.000000 
#    y 0.000000 1.753600 0.000000 
#    z 0.000000 0.000000 1.781260 
# 
# From -- ./inp_files/2205.got.cif
#   From: 2010.05.17/outbox.cif.g08.bks.cpg/sg133_2_cif.got.tgz:2205.got - 2010.05.20 12:37:36.
