data_PCOD9567607
_publ_section_title
;
Structure prediction by ZEFSAII (Michael W. Deem and Ramdas Pophale) SiO2 
 PCOD9567607
Probable space group: P 42/N B C
;
_chemical_formula_sum "Si O2"
_cell_formula_units_Z 112
_cell_length_a 15.205066
_cell_length_b 15.205066
_cell_length_c 28.664151
_cell_angle_alpha 90.000000
_cell_angle_beta 90.000000
_cell_angle_gamma 90.000000
_cell_volume 6626.980645
_symmetry_space_group_name_H-M "P 42/N B C"
_symmetry_group_IT_number 133
_space_group.IT_coordinate_system_code '2'
_symmetry_cell_setting 'tetragonal'
loop_
_space_group_symop_operation_xyz
x,y,z
1/2-y,x,1/2+z
1/2-x,1/2-y,z
y,1/2-x,1/2+z
x,1/2-y,-z
1/2-x,y,-z
y,x,1/2-z
1/2-y,1/2-x,1/2-z
-x,-y,-z
1/2+y,-x,1/2-z
1/2+x,1/2+y,-z
-y,1/2+x,1/2-z
-x,1/2+y,z
1/2+x,-y,z
-y,-x,1/2+z
1/2+y,1/2+x,1/2+z
loop_
_atom_site_type_symbol
_atom_site_label
_atom_site_fract_x
_atom_site_fract_y
_atom_site_fract_z
Si Si1 0.839821 0.353554 0.754857
Si Si2 0.751955 0.151478 0.914410
Si Si3 0.144452 0.941624 0.449579
Si Si4 0.348003 0.947706 0.445181
Si Si5 0.487288 0.791066 0.664021
Si Si6 0.508483 0.976546 0.623744
Si Si7 0.386342 0.476106 0.206102
O O1 0.853321 0.253304 0.772240
O O2 0.826986 0.422499 0.795874
O O3 0.923727 0.378036 0.724631
O O4 0.750000 0.250000 0.893067
O O5 0.664806 0.143752 0.945740
O O6 0.842329 0.144112 0.941897
O O7 0.748617 0.076526 0.875490
O O8 0.244805 0.969294 0.438482
O O9 0.125046 0.972633 0.502136
O O10 0.073626 0.971856 0.411883
O O11 0.409178 0.987543 0.405408
O O12 0.544021 0.710577 0.684875
O O13 0.530236 0.878681 0.642772
O O14 0.479619 0.040095 0.665961
O O15 0.416683 0.416683 0.250000
#
# Coordination Sequence:
#
# PCOD9567607 Si02
#       7
#    16  16  16  16  16  16  16
#     4   9  19  31  52  80 108 139 170 219 279 337
#     4   9  17  28  51  83 117 139 168 215 282 341
#     4   9  20  33  54  84 113 143 182 221 273 337
#     4  10  18  35  55  80 114 149 175 221 279 329
#     4  10  20  33  50  80 112 139 187 223 268 332
#     4  11  21  35  55  84 108 144 185 227 271 328
#     4  11  21  36  52  78 110 147 180 227 278 323
#
# _framework density 16.900607999999998
#
# number of rings (size 3 to 8) (size 9 to 14) (size 15 to 20)
#    0.000    2.143    2.857    0.857    4.000    2.857 
#    0.000    0.000    0.000    0.857    3.714    2.000 
#    0.000    0.000    0.000    0.000    0.000    0.000 
#
# Total GULP energy -624087.282707 kJ/mol
# GULP energy per Si atom -5572.207881 kJ/mol
# Density = 1.686214 g / cm^3
# Si number density = 16.900608 Si / 1000 Ang^3
#
#
#
# Elastic Constant Matrix: (Units=GPa)
#
#
# Indices 1 2 3 4 5 6 
#
# 1 66.0342 36.5623 40.8746 0.0000 0.0000 0.0000
# 2 36.5623 66.0342 40.8746 0.0000 0.0000 0.0000
# 3 40.8746 40.8746 90.1571 0.0000 0.0000 0.0000
# 4 0.0000 0.0000 0.0000 17.4559 0.0000 0.0000
# 5 0.0000 0.0000 0.0000 0.0000 17.4559 0.0000
# 6 0.0000 0.0000 0.0000 0.0000 0.0000 25.9527
#
#
#
# Elastic Compliance Matrix: (Units=1/GPa)
#
#
# Indices 1 2 3 4 5 6 
#
# 1 0.024595 -0.009336 -0.006918 0.000000 0.000000 0.000000
# 2 -0.009336 0.024595 -0.006918 0.000000 0.000000 0.000000
# 3 -0.006918 -0.006918 0.017365 0.000000 0.000000 0.000000
# 4 0.000000 0.000000 0.000000 0.057287 0.000000 0.000000
# 5 0.000000 0.000000 0.000000 0.000000 0.057287 0.000000
# 6 0.000000 0.000000 0.000000 0.000000 0.000000 0.038532
#
#
# Mechanical properties :
#
#
# Convention : Reuss Voigt Hill
#
# Bulk Modulus (GPa) = 49.47848 50.98318 50.23083
# Shear Modulus (GPa) = 18.33240 19.10052 18.71646
#
# Velocity S-wave (km/s) = 3.29708 3.36544 3.33144
# Velocity P-wave (km/s) = 6.62073 6.73302 6.67711
#
# Compressibility (1/GPa) = 0.02021081
#
# Stress axis : x y z
#
# Youngs Moduli (GPa) = 40.65875 40.65875 57.58804
#
# Poissons Ratio (x) = 0.37958 0.39840
# Poissons Ratio (y) = 0.37958 0.39840
# Poissons Ratio (z) = 0.28128 0.28128
#
# Static dielectric constant tensor:
#      x y z
#    x 1.575530 0.000000 0.000000 
#    y 0.000000 1.575530 0.000000 
#    z 0.000000 0.000000 1.588990 
# 
# From -- ./inp_files/7651.got.cif
#   From: 2010.05.17/outbox.cif.g08.bks.cpg/sg133_4_cif.got.tgz:7651.got - 2010.05.20 12:37:36.
