data_PCOD9567922
_publ_section_title
;
Structure prediction by ZEFSAII (Michael W. Deem and Ramdas Pophale) SiO2 
 PCOD9567922
Probable space group: P 42/N B C
;
_chemical_formula_sum "Si O2"
_cell_formula_units_Z 84
_cell_length_a 10.862828
_cell_length_b 10.862828
_cell_length_c 30.122344
_cell_angle_alpha 90.000000
_cell_angle_beta 90.000000
_cell_angle_gamma 90.000000
_cell_volume 3554.467683
_symmetry_space_group_name_H-M "P 42/N B C"
_symmetry_group_IT_number 133
_space_group.IT_coordinate_system_code '2'
_symmetry_cell_setting 'tetragonal'
loop_
_space_group_symop_operation_xyz
x,y,z
1/2-y,x,1/2+z
1/2-x,1/2-y,z
y,1/2-x,1/2+z
x,1/2-y,-z
1/2-x,y,-z
y,x,1/2-z
1/2-y,1/2-x,1/2-z
-x,-y,-z
1/2+y,-x,1/2-z
1/2+x,1/2+y,-z
-y,1/2+x,1/2-z
-x,1/2+y,z
1/2+x,-y,z
-y,-x,1/2+z
1/2+y,1/2+x,1/2+z
loop_
_atom_site_type_symbol
_atom_site_label
_atom_site_fract_x
_atom_site_fract_y
_atom_site_fract_z
Si Si1 0.870680 0.908237 0.425825
Si Si2 0.566966 0.601995 0.698192
Si Si3 0.839914 0.093164 0.175556
Si Si4 0.250000 0.250000 0.644390
Si Si5 0.250000 0.750000 0.250000
Si Si6 0.250000 0.750000 0.000000
Si Si7 0.250000 0.250000 0.500000
Si Si8 0.144174 0.593041 0.578290
O O1 0.855177 0.806373 0.387186
O O2 0.837051 0.835866 0.470459
O O3 0.007015 0.963796 0.426086
O O4 0.759026 0.001871 0.419046
O O5 0.590797 0.590797 0.750000
O O6 0.477375 0.715386 0.687640
O O7 0.521768 0.469726 0.680477
O O8 0.692343 0.641816 0.673519
O O9 0.847538 0.194817 0.214995
O O10 0.835948 0.140676 0.125257
O O11 0.171715 0.832846 0.966022
#
# Coordination Sequence:
#
# PCOD9567922 Si02
#       8
#    16  16  16   8   4   4   4  16
#     4  11  25  47  77 109 156 207 267 345 424 512
#     4  12  26  49  80 118 163 222 282 345 413 515
#     4  12  27  49  81 115 170 217 279 346 424 504
#     4  11  23  45  75 114 152 214 273 333 423 493
#     4  12  26  48  72 118 156 228 262 344 412 498
#     4  12  30  48  80 122 150 224 284 370 424 526
#     4  10  24  44  74 112 148 196 268 346 410 516
#     4  12  27  51  79 113 161 212 280 348 433 500
#
# _framework density 23.632231999999998
#
# number of rings (size 3 to 8) (size 9 to 14) (size 15 to 20)
#    0.000    0.381    5.714    2.000    0.000   12.190 
#    0.000    0.000    0.000    0.000    0.000    0.000 
#    0.000    0.000    0.000    0.000    0.000    0.000 
#
# Total GULP energy -469936.851078 kJ/mol
# GULP energy per Si atom -5594.486322 kJ/mol
# Density = 2.357844 g / cm^3
# Si number density = 23.632232 Si / 1000 Ang^3
#
#
#
# Elastic Constant Matrix: (Units=GPa)
#
#
# Indices 1 2 3 4 5 6 
#
# 1 142.7083 54.6274 53.8733 0.0000 0.0000 0.0000
# 2 54.6274 142.7083 53.8733 0.0000 0.0000 0.0000
# 3 53.8733 53.8733 211.1307 0.0000 0.0000 0.0000
# 4 0.0000 0.0000 0.0000 20.9007 0.0000 0.0000
# 5 0.0000 0.0000 0.0000 0.0000 20.9007 0.0000
# 6 0.0000 0.0000 0.0000 0.0000 0.0000 57.9425
#
#
#
# Elastic Compliance Matrix: (Units=1/GPa)
#
#
# Indices 1 2 3 4 5 6 
#
# 1 0.008621 -0.002733 -0.001502 0.000000 0.000000 0.000000
# 2 -0.002733 0.008621 -0.001502 0.000000 0.000000 0.000000
# 3 -0.001502 -0.001502 0.005503 0.000000 0.000000 0.000000
# 4 0.000000 0.000000 0.000000 0.047845 0.000000 0.000000
# 5 0.000000 0.000000 0.000000 0.000000 0.047845 0.000000
# 6 0.000000 0.000000 0.000000 0.000000 0.000000 0.017258
#
#
# Mechanical properties :
#
#
# Convention : Reuss Voigt Hill
#
# Bulk Modulus (GPa) = 88.73695 91.25501 89.99598
# Shear Modulus (GPa) = 33.12914 42.22699 37.67806
#
# Velocity S-wave (km/s) = 3.74821 4.23169 3.99726
# Velocity P-wave (km/s) = 7.50751 7.91042 7.71160
#
# Compressibility (1/GPa) = 0.01126926
#
# Stress axis : x y z
#
# Youngs Moduli (GPa) = 116.00246 116.00246 181.71550
#
# Poissons Ratio (x) = 0.31700 0.27300
# Poissons Ratio (y) = 0.31700 0.27300
# Poissons Ratio (z) = 0.17428 0.17428
#
# Static dielectric constant tensor:
#      x y z
#    x 1.966320 0.000000 0.000000 
#    y 0.000000 1.966320 0.000000 
#    z 0.000000 0.000000 1.893080 
# 
# From -- ./inp_files/8024.got.cif
#   From: 2010.05.17/outbox.cif.g08.bks.cpg/sg133_5_cif.got.tgz:8024.got - 2010.05.20 12:37:36.
