data_PCOD9567234
_publ_section_title
;
Structure prediction by ZEFSAII (Michael W. Deem and Ramdas Pophale) SiO2 
 PCOD9567234
Probable space group: P 42/M C M
;
_chemical_formula_sum "Si O2"
_cell_formula_units_Z 128
_cell_length_a 15.559676
_cell_length_b 15.559676
_cell_length_c 26.921507
_cell_angle_alpha 90.000000
_cell_angle_beta 90.000000
_cell_angle_gamma 90.000000
_cell_volume 6517.791534
_symmetry_space_group_name_H-M "P 42/M C M"
_symmetry_group_IT_number 132
_symmetry_cell_setting 'tetragonal'
loop_
_space_group_symop_operation_xyz
x,y,z
-y,x,1/2+z
-x,-y,z
y,-x,1/2+z
x,-y,1/2-z
-x,y,1/2-z
y,x,-z
-y,-x,-z
-x,-y,-z
y,-x,1/2-z
x,y,-z
-y,x,1/2-z
-x,y,1/2+z
x,-y,1/2+z
-y,-x,z
y,x,z
loop_
_atom_site_type_symbol
_atom_site_label
_atom_site_fract_x
_atom_site_fract_y
_atom_site_fract_z
Si Si1 0.551175 0.304982 0.351450
Si Si2 0.321398 0.183817 0.198934
Si Si3 0.045048 0.191980 0.197271
Si Si4 0.073191 0.436133 0.378381
Si Si5 0.680795 0.953955 0.056324
Si Si6 0.006325 0.860639 0.907543
Si Si7 0.442866 0.196113 0.941418
Si Si8 0.794180 0.572251 0.708828
O O1 0.611678 0.388323 0.341440
O O2 0.600072 0.217916 0.333349
O O3 0.545536 0.283610 0.409708
O O4 0.464240 0.292408 0.318759
O O5 0.244540 0.244540 0.181880
O O6 0.286114 0.088597 0.192529
O O7 0.345271 0.207380 0.255578
O O8 0.120027 0.120027 0.197531
O O9 0.987483 0.170985 0.149663
O O10 0.000000 0.186950 0.250000
O O11 0.021115 0.362329 0.406229
O O12 0.129938 0.486697 0.419440
O O13 0.136567 0.412296 0.333973
O O14 0.000000 0.500000 0.358326
O O15 0.781652 0.969099 0.061609
O O16 0.646754 0.856969 0.066371
O O17 0.652180 0.972744 0.000000
O O18 0.934971 0.934971 0.908572
O O19 0.095433 0.904568 0.923880
O O20 0.452659 0.210420 0.000000
O O21 0.819992 0.500000 0.750000
#
# Coordination Sequence:
#
# PCOD9567234 Si02
#       8
#    16  16  16  16  16  16  16  16
#     4   9  17  31  49  69 101 135 161 194 244 303
#     4   9  18  32  49  70  98 131 164 204 250 296
#     4  10  20  33  49  69  94 127 167 211 259 309
#     4   9  18  32  48  69 100 132 162 206 264 321
#     4  10  20  33  51  71  92 127 174 220 269 323
#     4  10  22  38  52  68  96 134 176 225 275 319
#     4   9  17  30  49  73 101 129 164 209 259 314
#     4   9  18  32  47  72 101 132 168 199 247 304
#
# _framework density 19.638552000000001
#
# number of rings (size 3 to 8) (size 9 to 14) (size 15 to 20)
#    0.000    2.625    0.000    1.500    1.750    5.625 
#    0.000    1.875    0.000    0.375    0.000    2.625 
#    0.000    4.500    0.000    4.500    0.000    3.500 
#
# Total GULP energy -712712.571515 kJ/mol
# GULP energy per Si atom -5568.066965 kJ/mol
# Density = 1.959385 g / cm^3
# Si number density = 19.638552 Si / 1000 Ang^3
#
#
#
# Elastic Constant Matrix: (Units=GPa)
#
#
# Indices 1 2 3 4 5 6 
#
# 1 34.9478 0.0119 -0.4485 0.0000 0.0000 0.0000
# 2 0.0119 34.9478 -0.4485 0.0000 0.0000 0.0000
# 3 -0.4485 -0.4485 82.6608 0.0000 0.0000 0.0000
# 4 0.0000 0.0000 0.0000 17.8230 0.0000 0.0000
# 5 0.0000 0.0000 0.0000 0.0000 17.8230 0.0000
# 6 0.0000 0.0000 0.0000 0.0000 0.0000 15.3963
#
#
#
# Elastic Compliance Matrix: (Units=1/GPa)
#
#
# Indices 1 2 3 4 5 6 
#
# 1 0.028616 -0.000008 0.000155 0.000000 0.000000 0.000000
# 2 -0.000008 0.028616 0.000155 0.000000 0.000000 0.000000
# 3 0.000155 0.000155 0.012099 0.000000 0.000000 0.000000
# 4 0.000000 0.000000 0.000000 0.056107 0.000000 0.000000
# 5 0.000000 0.000000 0.000000 0.000000 0.056107 0.000000
# 6 0.000000 0.000000 0.000000 0.000000 0.000000 0.064951
#
#
# Mechanical properties :
#
#
# Convention : Reuss Voigt Hill
#
# Bulk Modulus (GPa) = 14.29863 16.75403 15.52633
# Shear Modulus (GPa) = 18.57330 20.43789 19.50560
#
# Velocity S-wave (km/s) = 3.07865 3.22949 3.15497
# Velocity P-wave (km/s) = 4.46477 4.73876 4.60381
#
# Compressibility (1/GPa) = 0.06993679
#
# Stress axis : x y z
#
# Youngs Moduli (GPa) = 34.94541 34.94541 82.64925
#
# Poissons Ratio (x) = 0.00027 -0.01283
# Poissons Ratio (y) = 0.00027 -0.01283
# Poissons Ratio (z) = -0.00542 -0.00542
#
# Static dielectric constant tensor:
#      x y z
#    x 1.730330 0.000000 0.000000 
#    y 0.000000 1.730330 0.000000 
#    z 0.000000 0.000000 1.723010 
# 
# From -- ./inp_files/9338.got.cif
#   From: 2010.05.17/outbox.cif.g08.bks.cpg/sg132_5_cif.got.tgz:9338.got - 2010.05.20 12:30:18.
