data_PCOD9567053
_publ_section_title
;
Structure prediction by ZEFSAII (Michael W. Deem and Ramdas Pophale) SiO2 
 PCOD9567053
Probable space group: P 42/M C M
;
_chemical_formula_sum "Si O2"
_cell_formula_units_Z 96
_cell_length_a 27.812268
_cell_length_b 27.812268
_cell_length_c 8.880335
_cell_angle_alpha 90.000000
_cell_angle_beta 90.000000
_cell_angle_gamma 90.000000
_cell_volume 6869.136722
_symmetry_space_group_name_H-M "P 42/M C M"
_symmetry_group_IT_number 132
_symmetry_cell_setting 'tetragonal'
loop_
_space_group_symop_operation_xyz
x,y,z
-y,x,1/2+z
-x,-y,z
y,-x,1/2+z
x,-y,1/2-z
-x,y,1/2-z
y,x,-z
-y,-x,-z
-x,-y,-z
y,-x,1/2-z
x,y,-z
-y,x,1/2-z
-x,y,1/2+z
x,-y,1/2+z
-y,-x,z
y,x,z
loop_
_atom_site_type_symbol
_atom_site_label
_atom_site_fract_x
_atom_site_fract_y
_atom_site_fract_z
Si Si1 0.265460 0.345243 0.680136
Si Si2 0.132099 0.947603 0.319918
Si Si3 0.449580 0.726201 0.678767
Si Si4 0.192217 0.274232 0.171197
Si Si5 0.877455 0.205267 0.173488
Si Si6 0.623088 0.544410 0.674634
O O1 0.268396 0.350275 0.500000
O O2 0.313187 0.313187 0.726355
O O3 0.259130 0.397865 0.752966
O O4 0.219553 0.313655 0.729341
O O5 0.134659 0.950466 0.500000
O O6 0.087247 0.912754 0.280142
O O7 0.179776 0.921563 0.256961
O O8 0.126187 0.000000 0.250000
O O9 0.500000 0.745750 0.750000
O O10 0.450300 0.733232 0.500000
O O11 0.450127 0.670018 0.724101
O O12 0.230262 0.230262 0.163663
O O13 0.144617 0.251636 0.244336
O O14 0.184275 0.291072 0.000000
O O15 0.834982 0.165019 0.174354
O O16 0.889061 0.215547 0.000000
O O17 0.595349 0.500000 0.750000
O O18 0.635984 0.534996 0.500000
O O19 0.591855 0.591855 0.678351
#
# Coordination Sequence:
#
# PCOD9567053 Si02
#       6
#    16  16  16  16  16  16
#     4  10  19  30  44  62  83 104 128 160 197 237
#     4  10  20  32  45  61  82 111 149 192 234 272
#     4  11  21  32  45  58  74  97 124 153 187 229
#     4   9  16  26  41  62  85 106 130 161 199 243
#     4   9  16  27  43  61  82 108 137 171 213 258
#     4  10  20  32  44  56  69  86 110 142 181 224
#
# _framework density 13.975555999999999
#
# number of rings (size 3 to 8) (size 9 to 14) (size 15 to 20)
#    0.000    2.167    0.000    5.500    0.000    9.667 
#    0.000    1.667    0.000    0.000    0.000    0.000 
#    0.000    0.000    0.000    0.000    0.000    0.833 
#
# Total GULP energy -534683.306065 kJ/mol
# GULP energy per Si atom -5569.617772 kJ/mol
# Density = 1.394375 g / cm^3
# Si number density = 13.975556 Si / 1000 Ang^3
#
#
#
# Elastic Constant Matrix: (Units=GPa)
#
#
# Indices 1 2 3 4 5 6 
#
# 1 57.1334 49.6760 36.6012 0.0000 0.0000 0.0000
# 2 49.6760 57.1334 36.6012 0.0000 0.0000 0.0000
# 3 36.6012 36.6012 91.1373 0.0000 0.0000 0.0000
# 4 0.0000 0.0000 0.0000 21.6997 0.0000 0.0000
# 5 0.0000 0.0000 0.0000 0.0000 21.6997 0.0000
# 6 0.0000 0.0000 0.0000 0.0000 0.0000 13.5115
#
#
#
# Elastic Compliance Matrix: (Units=1/GPa)
#
#
# Indices 1 2 3 4 5 6 
#
# 1 0.073507 -0.060589 -0.005188 0.000000 0.000000 0.000000
# 2 -0.060589 0.073507 -0.005188 0.000000 0.000000 0.000000
# 3 -0.005188 -0.005188 0.015139 0.000000 0.000000 0.000000
# 4 0.000000 0.000000 0.000000 0.046084 0.000000 0.000000
# 5 0.000000 0.000000 0.000000 0.000000 0.046084 0.000000
# 6 0.000000 0.000000 0.000000 0.000000 0.000000 0.074011
#
#
# Mechanical properties :
#
#
# Convention : Reuss Voigt Hill
#
# Bulk Modulus (GPa) = 49.44675 50.12898 49.78787
# Shear Modulus (GPa) = 10.48215 16.88388 13.68302
#
# Velocity S-wave (km/s) = 2.74165 3.47955 3.13240
# Velocity P-wave (km/s) = 6.74388 7.21733 6.98462
#
# Compressibility (1/GPa) = 0.02022378
#
# Stress axis : x y z
#
# Youngs Moduli (GPa) = 13.60422 13.60422 66.05242
#
# Poissons Ratio (x) = 0.82426 0.34268
# Poissons Ratio (y) = 0.82426 0.34268
# Poissons Ratio (z) = 0.07058 0.07058
#
# Static dielectric constant tensor:
#      x y z
#    x 1.467100 0.000000 0.000000 
#    y 0.000000 1.467100 0.000000 
#    z 0.000000 0.000000 1.479660 
# 
# From -- ./inp_files/1902.got.cif
#   From: 2010.05.17/outbox.cif.g08.bks.cpg/sg132_1_cif.got.tgz:1902.got - 2010.05.20 12:30:18.
