data_PCOD9567904
_publ_section_title
;
Structure prediction by ZEFSAII (Michael W. Deem and Ramdas Pophale) SiO2 
 PCOD9567904
Probable space group: P 42/N B C
;
_chemical_formula_sum "Si O2"
_cell_formula_units_Z 88
_cell_length_a 14.647383
_cell_length_b 14.647383
_cell_length_c 19.847363
_cell_angle_alpha 90.000000
_cell_angle_beta 90.000000
_cell_angle_gamma 90.000000
_cell_volume 4258.168943
_symmetry_space_group_name_H-M "P 42/N B C"
_symmetry_group_IT_number 133
_space_group.IT_coordinate_system_code '2'
_symmetry_cell_setting 'tetragonal'
loop_
_space_group_symop_operation_xyz
x,y,z
1/2-y,x,1/2+z
1/2-x,1/2-y,z
y,1/2-x,1/2+z
x,1/2-y,-z
1/2-x,y,-z
y,x,1/2-z
1/2-y,1/2-x,1/2-z
-x,-y,-z
1/2+y,-x,1/2-z
1/2+x,1/2+y,-z
-y,1/2+x,1/2-z
-x,1/2+y,z
1/2+x,-y,z
-y,-x,1/2+z
1/2+y,1/2+x,1/2+z
loop_
_atom_site_type_symbol
_atom_site_label
_atom_site_fract_x
_atom_site_fract_y
_atom_site_fract_z
Si Si1 0.635301 0.952721 0.165981
Si Si2 0.292671 0.607266 0.263401
Si Si3 0.569966 0.796245 0.564474
Si Si4 0.282719 0.029087 0.638840
Si Si5 0.111509 0.250000 0.000000
Si Si6 0.455351 0.067430 0.168295
O O1 0.709228 0.923312 0.111734
O O2 0.591877 0.853465 0.180385
O O3 0.687196 0.021196 0.216175
O O4 0.547127 0.014299 0.146395
O O5 0.190212 0.641781 0.254189
O O6 0.307188 0.573159 0.339235
O O7 0.518781 0.750000 0.500000
O O8 0.666977 0.832799 0.534671
O O9 0.536193 0.876044 0.615621
O O10 0.291261 0.051518 0.560459
O O11 0.177121 0.041892 0.659307
O O12 0.447580 0.052421 0.250000
#
# Coordination Sequence:
#
# PCOD9567904 Si02
#       6
#    16  16  16  16   8  16
#     4  12  25  42  72 103 140 187 239 301 366 430
#     4  11  24  45  71 100 144 192 241 304 365 430
#     4  11  24  44  72  99 142 192 236 300 370 439
#     4  11  23  43  71  98 140 186 231 300 360 424
#     4  10  23  46  68  99 142 186 243 296 366 432
#     4  11  25  44  68 107 143 178 251 304 360 448
#
# _framework density 20.666160999999999
#
# number of rings (size 3 to 8) (size 9 to 14) (size 15 to 20)
#    0.000    0.909    3.636    3.000    5.091    0.727 
#    0.000    0.909    0.000    1.091    0.000    0.000 
#    0.000    0.000    0.000    0.000    0.000    0.000 
#
# Total GULP energy -489975.408221 kJ/mol
# GULP energy per Si atom -5567.902366 kJ/mol
# Density = 2.061912 g / cm^3
# Si number density = 20.666161 Si / 1000 Ang^3
#
#
#
# Elastic Constant Matrix: (Units=GPa)
#
#
# Indices 1 2 3 4 5 6 
#
# 1 103.6901 41.3917 60.8660 0.0000 0.0000 0.0000
# 2 41.3917 103.6896 60.8663 0.0000 0.0000 0.0000
# 3 60.8660 60.8663 125.2213 0.0000 0.0000 0.0000
# 4 0.0000 0.0000 0.0000 16.4936 0.0000 0.0000
# 5 0.0000 0.0000 0.0000 0.0000 16.4936 0.0000
# 6 0.0000 0.0000 0.0000 0.0000 0.0000 8.7777
#
#
#
# Elastic Compliance Matrix: (Units=1/GPa)
#
#
# Indices 1 2 3 4 5 6 
#
# 1 0.013846 -0.002206 -0.005658 0.000000 0.000000 0.000000
# 2 -0.002206 0.013846 -0.005658 0.000000 0.000000 0.000000
# 3 -0.005658 -0.005658 0.013486 0.000000 0.000000 0.000000
# 4 0.000000 0.000000 0.000000 0.060630 0.000000 0.000000
# 5 0.000000 0.000000 0.000000 0.000000 0.060630 0.000000
# 6 0.000000 0.000000 0.000000 0.000000 0.000000 0.113925
#
#
# Mechanical properties :
#
#
# Convention : Reuss Voigt Hill
#
# Bulk Modulus (GPa) = 70.74808 73.20543 71.97675
# Shear Modulus (GPa) = 16.22765 19.65146 17.93955
#
# Velocity S-wave (km/s) = 2.80523 3.08701 2.94949
# Velocity P-wave (km/s) = 6.69332 6.94305 6.81933
#
# Compressibility (1/GPa) = 0.01413466
#
# Stress axis : x y z
#
# Youngs Moduli (GPa) = 72.22411 72.22325 74.15085
#
# Poissons Ratio (x) = 0.15932 0.41953
# Poissons Ratio (y) = 0.15932 0.41954
# Poissons Ratio (z) = 0.40863 0.40863
#
# Static dielectric constant tensor:
#      x y z
#    x 1.771460 0.000000 0.000000 
#    y 0.000000 1.771460 0.000000 
#    z 0.000000 0.000000 1.894970 
# 
# From -- ./inp_files/6408.got.cif
#   From: 2010.05.17/outbox.cif.g08.bks.cpg/sg133_4_cif.got.tgz:6408.got - 2010.05.20 12:37:36.
