data_PCOD9567380
_publ_section_title
;
Structure prediction by ZEFSAII (Michael W. Deem and Ramdas Pophale) SiO2 
 PCOD9567380
Probable space group: P 42/M C M
;
_chemical_formula_sum "Si O2"
_cell_formula_units_Z 80
_cell_length_a 12.946967
_cell_length_b 12.946967
_cell_length_c 28.170442
_cell_angle_alpha 90.000000
_cell_angle_beta 90.000000
_cell_angle_gamma 90.000000
_cell_volume 4722.040888
_symmetry_space_group_name_H-M "P 42/M C M"
_symmetry_group_IT_number 132
_symmetry_cell_setting 'tetragonal'
loop_
_space_group_symop_operation_xyz
x,y,z
-y,x,1/2+z
-x,-y,z
y,-x,1/2+z
x,-y,1/2-z
-x,y,1/2-z
y,x,-z
-y,-x,-z
-x,-y,-z
y,-x,1/2-z
x,y,-z
-y,x,1/2-z
-x,y,1/2+z
x,-y,1/2+z
-y,-x,z
y,x,z
loop_
_atom_site_type_symbol
_atom_site_label
_atom_site_fract_x
_atom_site_fract_y
_atom_site_fract_z
Si Si1 0.169435 0.002294 0.118062
Si Si2 0.687956 0.861302 0.324413
Si Si3 0.311805 0.139881 0.055361
Si Si4 0.523613 0.121111 0.364348
Si Si5 0.610328 0.784883 0.769813
O O1 0.092269 0.907732 0.104915
O O2 0.249688 0.960119 0.156859
O O3 0.237373 0.048994 0.075439
O O4 0.094820 0.094820 0.135357
O O5 0.768272 0.768272 0.325749
O O6 0.591294 0.833876 0.358089
O O7 0.646844 0.865756 0.270618
O O8 0.244536 0.244536 0.060809
O O9 0.413362 0.141788 0.087880
O O10 0.334305 0.124700 0.000000
O O11 0.590441 0.162748 0.320301
O O12 0.500000 0.000000 0.359230
O O13 0.500000 0.744786 0.750000
O O14 0.694385 0.694385 0.773477
#
# Coordination Sequence:
#
# PCOD9567380 Si02
#       5
#    16  16  16  16  16
#     4   9  17  32  53  76 106 141 176 212 254 307
#     4   9  18  34  52  76 107 137 171 212 254 307
#     4  10  21  36  54  77 104 136 177 221 264 310
#     4  11  20  34  54  78 105 141 173 213 266 315
#     4   9  19  33  53  77 106 137 175 216 258 310
#
# _framework density 16.941825999999999
#
# number of rings (size 3 to 8) (size 9 to 14) (size 15 to 20)
#    0.000    2.400    2.000    0.600    0.000    4.600 
#    0.000    2.000    0.000    3.600    0.000    7.000 
#    0.000    0.000    0.000    0.000    0.000    0.000 
#
# Total GULP energy -445773.437627 kJ/mol
# GULP energy per Si atom -5572.167970 kJ/mol
# Density = 1.690327 g / cm^3
# Si number density = 16.941826 Si / 1000 Ang^3
#
#
#
# Elastic Constant Matrix: (Units=GPa)
#
#
# Indices 1 2 3 4 5 6 
#
# 1 76.5921 29.3783 60.3406 0.0000 0.0000 0.0000
# 2 29.3783 76.5921 60.3406 0.0000 0.0000 0.0000
# 3 60.3406 60.3406 120.0942 0.0000 0.0000 0.0000
# 4 0.0000 0.0000 0.0000 24.2306 0.0000 0.0000
# 5 0.0000 0.0000 0.0000 0.0000 24.2306 0.0000
# 6 0.0000 0.0000 0.0000 0.0000 0.0000 17.0349
#
#
#
# Elastic Compliance Matrix: (Units=1/GPa)
#
#
# Indices 1 2 3 4 5 6 
#
# 1 0.021619 0.000439 -0.011083 0.000000 0.000000 0.000000
# 2 0.000439 0.021619 -0.011083 0.000000 0.000000 0.000000
# 3 -0.011083 -0.011083 0.019464 0.000000 0.000000 0.000000
# 4 0.000000 0.000000 0.000000 0.041270 0.000000 0.000000
# 5 0.000000 0.000000 0.000000 0.000000 0.041270 0.000000
# 6 0.000000 0.000000 0.000000 0.000000 0.000000 0.058703
#
#
# Mechanical properties :
#
#
# Convention : Reuss Voigt Hill
#
# Bulk Modulus (GPa) = 51.95266 63.71082 57.83174
# Shear Modulus (GPa) = 19.69934 21.31381 20.50657
#
# Velocity S-wave (km/s) = 3.41363 3.55076 3.48287
# Velocity P-wave (km/s) = 6.80214 7.38226 7.09813
#
# Compressibility (1/GPa) = 0.01924829
#
# Stress axis : x y z
#
# Youngs Moduli (GPa) = 46.25527 46.25527 51.37712
#
# Poissons Ratio (x) = -0.02030 0.56941
# Poissons Ratio (y) = -0.02030 0.56941
# Poissons Ratio (z) = 0.51265 0.51265
#
# Static dielectric constant tensor:
#      x y z
#    x 1.591690 0.000000 0.000000 
#    y 0.000000 1.591690 0.000000 
#    z 0.000000 0.000000 1.556260 
# 
# From -- ./inp_files/10563.got.cif
#   From: 2010.05.17/outbox.cif.g08.bks.cpg/sg132_6_cif.got.tgz:10563.got - 2010.05.20 12:30:18.
