data_PCOD9567391
_publ_section_title
;
Structure prediction by ZEFSAII (Michael W. Deem and Ramdas Pophale) SiO2 
 PCOD9567391
Probable space group: P 42/M C M
;
_chemical_formula_sum "Si O2"
_cell_formula_units_Z 120
_cell_length_a 20.370992
_cell_length_b 20.370992
_cell_length_c 17.087255
_cell_angle_alpha 90.000000
_cell_angle_beta 90.000000
_cell_angle_gamma 90.000000
_cell_volume 7090.823202
_symmetry_space_group_name_H-M "P 42/M C M"
_symmetry_group_IT_number 132
_symmetry_cell_setting 'tetragonal'
loop_
_space_group_symop_operation_xyz
x,y,z
-y,x,1/2+z
-x,-y,z
y,-x,1/2+z
x,-y,1/2-z
-x,y,1/2-z
y,x,-z
-y,-x,-z
-x,-y,-z
y,-x,1/2-z
x,y,-z
-y,x,1/2-z
-x,y,1/2+z
x,-y,1/2+z
-y,-x,z
y,x,z
loop_
_atom_site_type_symbol
_atom_site_label
_atom_site_fract_x
_atom_site_fract_y
_atom_site_fract_z
Si Si1 0.444652 0.555349 0.092695
Si Si2 0.528814 0.304928 0.163068
Si Si3 0.651989 0.947813 0.905649
Si Si4 0.666468 0.773536 0.672548
Si Si5 0.215126 0.434158 0.913967
Si Si6 0.512775 0.092672 0.339628
Si Si7 0.633103 0.090746 0.092983
Si Si8 0.808396 0.298063 0.351760
O O1 0.500000 0.500000 0.098846
O O2 0.463662 0.620942 0.137557
O O3 0.432477 0.567524 0.000000
O O4 0.500000 0.299569 0.250000
O O5 0.597566 0.264966 0.162060
O O6 0.477062 0.278057 0.099918
O O7 0.575751 0.942018 0.878201
O O8 0.693043 0.886724 0.869166
O O9 0.668962 0.022696 0.882556
O O10 0.655280 0.941649 0.000000
O O11 0.724761 0.724761 0.646118
O O12 0.661836 0.842882 0.628810
O O13 0.681098 0.791731 0.762948
O O14 0.167244 0.462393 0.847276
O O15 0.222814 0.356809 0.903156
O O16 0.186137 0.446813 0.000000
O O17 0.500000 0.074759 0.250000
O O18 0.443616 0.086899 0.382912
O O19 0.636500 0.094205 0.000000
O O20 0.771041 0.228960 0.367116
#
# Coordination Sequence:
#
# PCOD9567391 Si02
#       8
#     8  16  16  16  16  16  16  16
#     4  11  28  46  60  80 102 132 186 248 307 359
#     4  12  23  39  62  80 108 139 183 232 291 349
#     4  10  22  36  52  80 112 143 182 222 267 328
#     4  11  23  39  57  84 108 141 187 231 272 339
#     4  11  21  33  52  78 107 138 177 224 274 327
#     4  11  20  31  50  76 106 140 180 220 267 324
#     4  11  22  36  55  78 109 145 181 223 275 331
#     4  10  21  37  57  79 110 143 182 223 270 323
#
# _framework density 16.923282
#
# number of rings (size 3 to 8) (size 9 to 14) (size 15 to 20)
#    0.000    1.133    3.333    5.200    0.933    6.133 
#    0.000    0.000    0.000    0.000    0.000    0.000 
#    0.000    0.533    0.000    5.867    0.000    4.267 
#
# Total GULP energy -669225.306864 kJ/mol
# GULP energy per Si atom -5576.877557 kJ/mol
# Density = 1.688476 g / cm^3
# Si number density = 16.923282 Si / 1000 Ang^3
#
#
#
# Elastic Constant Matrix: (Units=GPa)
#
#
# Indices 1 2 3 4 5 6 
#
# 1 116.2975 58.1760 30.3221 0.0000 0.0000 0.0000
# 2 58.1760 116.2985 30.3222 0.0000 0.0000 0.0000
# 3 30.3221 30.3222 65.2824 0.0000 0.0000 0.0000
# 4 0.0000 0.0000 0.0000 -1.3810 0.0000 0.0000
# 5 0.0000 0.0000 0.0000 0.0000 -1.3714 0.0000
# 6 0.0000 0.0000 0.0000 0.0000 0.0000 90.1510
#
#
#
# Elastic Compliance Matrix: (Units=1/GPa)
#
#
# Indices 1 2 3 4 5 6 
#
# 1 0.012020 -0.005185 -0.003175 0.000000 0.000000 0.000000
# 2 -0.005185 0.012020 -0.003175 0.000000 0.000000 0.000000
# 3 -0.003175 -0.003175 0.018267 0.000000 0.000000 0.000000
# 4 0.000000 0.000000 0.000000 -0.724098 0.000000 0.000000
# 5 0.000000 0.000000 0.000000 0.000000 -0.729192 0.000000
# 6 0.000000 0.000000 0.000000 0.000000 0.000000 0.011093
#
#
# Mechanical properties :
#
#
# Convention : Reuss Voigt Hill
#
# Bulk Modulus (GPa) = 51.97935 59.50211 55.74073
# Shear Modulus (GPa) = -3.64855 29.41692 12.88419
#
# Velocity S-wave (km/s) = -1.46990 4.17376 2.76221
# Velocity P-wave (km/s) = 5.28210 7.64613 6.57129
#
# Compressibility (1/GPa) = 0.01923841
#
# Stress axis : x y z
#
# Youngs Moduli (GPa) = 83.19371 83.19442 54.74296
#
# Poissons Ratio (x) = 0.43137 0.17379
# Poissons Ratio (y) = 0.43137 0.17379
# Poissons Ratio (z) = 0.26412 0.26412
#
# Static dielectric constant tensor:
#      x y z
#    x 1.339180 0.000000 0.000000 
#    y 0.000000 1.339180 0.000000 
#    z 0.000000 0.000000 1.593950 
# 
# From -- ./inp_files/5119.got.cif
#   From: 2010.05.17/outbox.cif.g08.bks.cpg/sg132_3_cif.got.tgz:5119.got - 2010.05.20 12:30:18.
