data_PCOD9567937
_publ_section_title
;
Structure prediction by ZEFSAII (Michael W. Deem and Ramdas Pophale) SiO2 
 PCOD9567937
Probable space group: P 42/N B C
;
_chemical_formula_sum "Si O2"
_cell_formula_units_Z 48
_cell_length_a 13.375699
_cell_length_b 13.375699
_cell_length_c 13.546723
_cell_angle_alpha 90.000000
_cell_angle_beta 90.000000
_cell_angle_gamma 90.000000
_cell_volume 2423.635051
_symmetry_space_group_name_H-M "P 42/N B C"
_symmetry_group_IT_number 133
_space_group.IT_coordinate_system_code '2'
_symmetry_cell_setting 'tetragonal'
loop_
_space_group_symop_operation_xyz
x,y,z
1/2-y,x,1/2+z
1/2-x,1/2-y,z
y,1/2-x,1/2+z
x,1/2-y,-z
1/2-x,y,-z
y,x,1/2-z
1/2-y,1/2-x,1/2-z
-x,-y,-z
1/2+y,-x,1/2-z
1/2+x,1/2+y,-z
-y,1/2+x,1/2-z
-x,1/2+y,z
1/2+x,-y,z
-y,-x,1/2+z
1/2+y,1/2+x,1/2+z
loop_
_atom_site_type_symbol
_atom_site_label
_atom_site_fract_x
_atom_site_fract_y
_atom_site_fract_z
Si Si1 0.164026 0.882797 0.580402
Si Si2 0.250000 0.750000 0.250000
Si Si3 0.250000 0.250000 0.750000
Si Si4 0.486600 0.250000 0.500000
Si Si5 0.396379 0.135146 0.143138
O O1 0.250000 0.863010 0.500000
O O2 0.204820 0.836433 0.681628
O O3 0.061540 0.827559 0.552842
O O4 0.147478 0.000811 0.587583
O O5 0.260620 0.346229 0.680064
O O6 0.421370 0.313312 0.578182
O O7 0.416334 0.083667 0.250000
#
# Coordination Sequence:
#
# PCOD9567937 Si02
#       5
#    16   4   4   8  16
#     4  12  25  43  73 100 137 190 232 295 363 420
#     4  12  22  48  68  98 152 172 250 300 352 438
#     4   8  24  46  60 108 126 192 234 276 368 404
#     4  12  23  47  64 106 138 180 250 284 358 438
#     4  10  25  44  68 100 140 184 232 294 352 420
#
# _framework density 19.804960000000001
#
# number of rings (size 3 to 8) (size 9 to 14) (size 15 to 20)
#    1.000    0.000    3.333    3.000    4.667    0.000 
#    3.000    0.000    0.000    0.000    0.000    0.000 
#    0.000    0.000    0.000    0.000    0.000    0.000 
#
# Total GULP energy -267755.306136 kJ/mol
# GULP energy per Si atom -5578.235544 kJ/mol
# Density = 1.975988 g / cm^3
# Si number density = 19.804960 Si / 1000 Ang^3
#
#
#
# Elastic Constant Matrix: (Units=GPa)
#
#
# Indices 1 2 3 4 5 6 
#
# 1 135.0240 69.0302 59.6235 0.0000 0.0000 0.0000
# 2 69.0302 135.0244 59.6237 0.0000 0.0000 0.0000
# 3 59.6235 59.6237 127.0865 0.0000 0.0000 0.0000
# 4 0.0000 0.0000 0.0000 67.6980 0.0000 0.0000
# 5 0.0000 0.0000 0.0000 0.0000 67.7012 0.0000
# 6 0.0000 0.0000 0.0000 0.0000 0.0000 19.2508
#
#
#
# Elastic Compliance Matrix: (Units=1/GPa)
#
#
# Indices 1 2 3 4 5 6 
#
# 1 0.010952 -0.004201 -0.003168 0.000000 0.000000 0.000000
# 2 -0.004201 0.010952 -0.003168 0.000000 0.000000 0.000000
# 3 -0.003168 -0.003168 0.010841 0.000000 0.000000 0.000000
# 4 0.000000 0.000000 0.000000 0.014771 0.000000 0.000000
# 5 0.000000 0.000000 0.000000 0.000000 0.014771 0.000000
# 6 0.000000 0.000000 0.000000 0.000000 0.000000 0.051946
#
#
# Mechanical properties :
#
#
# Convention : Reuss Voigt Hill
#
# Bulk Modulus (GPa) = 85.66128 85.96551 85.81340
# Shear Modulus (GPa) = 35.92038 44.85382 40.38710
#
# Velocity S-wave (km/s) = 4.26338 4.76413 4.52070
# Velocity P-wave (km/s) = 8.22080 8.58853 8.40668
#
# Compressibility (1/GPa) = 0.01167389
#
# Stress axis : x y z
#
# Youngs Moduli (GPa) = 91.30453 91.30475 92.24306
#
# Poissons Ratio (x) = 0.38353 0.29219
# Poissons Ratio (y) = 0.38353 0.29220
# Poissons Ratio (z) = 0.28922 0.28922
#
# Static dielectric constant tensor:
#      x y z
#    x 1.698890 0.000000 0.000000 
#    y 0.000000 1.698890 0.000000 
#    z 0.000000 0.000000 1.742450 
# 
# From -- ./inp_files/2719.got.cif
#   From: 2010.05.17/outbox.cif.g08.bks.cpg/sg133_2_cif.got.tgz:2719.got - 2010.05.20 12:37:36.
