data_PCOD9567931
_publ_section_title
;
Structure prediction by ZEFSAII (Michael W. Deem and Ramdas Pophale) SiO2 
 PCOD9567931
Probable space group: P 42/N B C
;
_chemical_formula_sum "Si O2"
_cell_formula_units_Z 92
_cell_length_a 14.505598
_cell_length_b 14.505598
_cell_length_c 19.253021
_cell_angle_alpha 90.000000
_cell_angle_beta 90.000000
_cell_angle_gamma 90.000000
_cell_volume 4051.073843
_symmetry_space_group_name_H-M "P 42/N B C"
_symmetry_group_IT_number 133
_space_group.IT_coordinate_system_code '2'
_symmetry_cell_setting 'tetragonal'
loop_
_space_group_symop_operation_xyz
x,y,z
1/2-y,x,1/2+z
1/2-x,1/2-y,z
y,1/2-x,1/2+z
x,1/2-y,-z
1/2-x,y,-z
y,x,1/2-z
1/2-y,1/2-x,1/2-z
-x,-y,-z
1/2+y,-x,1/2-z
1/2+x,1/2+y,-z
-y,1/2+x,1/2-z
-x,1/2+y,z
1/2+x,-y,z
-y,-x,1/2+z
1/2+y,1/2+x,1/2+z
loop_
_atom_site_type_symbol
_atom_site_label
_atom_site_fract_x
_atom_site_fract_y
_atom_site_fract_z
Si Si1 0.643896 0.440404 0.680144
Si Si2 0.834417 0.144716 0.378861
Si Si3 0.750000 0.250000 0.500000
Si Si4 0.250000 0.250000 0.500000
Si Si5 0.138079 0.331352 0.374915
Si Si6 0.485434 0.503457 0.583274
Si Si7 0.750000 0.750000 0.750000
Si Si8 0.965902 0.262384 0.301039
O O1 0.738526 0.400273 0.645879
O O2 0.582979 0.490792 0.622133
O O3 0.569572 0.367256 0.713771
O O4 0.691274 0.496854 0.741799
O O5 0.812455 0.187661 0.452580
O O6 0.868122 0.223576 0.327338
O O7 0.929081 0.090713 0.390723
O O8 0.186992 0.306567 0.446800
O O9 0.086089 0.426105 0.389741
O O10 0.210607 0.322064 0.310874
O O11 0.050900 0.267483 0.353853
O O12 0.500000 0.500000 0.500000
#
# Coordination Sequence:
#
# PCOD9567931 Si02
#       8
#    16  16   4   4  16  16   4  16
#     4  11  23  46  71 109 149 196 247 322 392 463
#     4  12  25  42  73 100 143 190 242 314 380 459
#     4  12  24  40  70 104 140 196 248 304 400 462
#     4  10  24  50  76  98 142 204 236 312 380 448
#     4  10  26  46  73 104 147 192 258 309 380 475
#     4  11  28  46  69 108 150 197 255 319 389 469
#     4  10  24  50  72 102 144 210 252 320 386 470
#     4  11  23  42  73 105 145 186 249 310 384 463
#
# _framework density 22.710028000000001
#
# number of rings (size 3 to 8) (size 9 to 14) (size 15 to 20)
#    0.000    1.043    3.478    1.043    7.304    4.174 
#    0.000    0.000    0.000    0.000    0.000    0.000 
#    0.000    0.000    0.000    0.000    0.000    0.000 
#
# Total GULP energy -512185.247750 kJ/mol
# GULP energy per Si atom -5567.230954 kJ/mol
# Density = 2.265834 g / cm^3
# Si number density = 22.710028 Si / 1000 Ang^3
#
#
#
# Elastic Constant Matrix: (Units=GPa)
#
#
# Indices 1 2 3 4 5 6 
#
# 1 67.2598 23.2740 15.2089 0.0000 0.0000 0.0000
# 2 23.2740 67.2598 15.2089 0.0000 0.0000 0.0000
# 3 15.2089 15.2089 115.5670 0.0000 0.0000 0.0000
# 4 0.0000 0.0000 0.0000 31.6858 0.0000 0.0000
# 5 0.0000 0.0000 0.0000 0.0000 31.6858 0.0000
# 6 0.0000 0.0000 0.0000 0.0000 0.0000 37.7672
#
#
#
# Elastic Compliance Matrix: (Units=1/GPa)
#
#
# Indices 1 2 3 4 5 6 
#
# 1 0.017146 -0.005589 -0.001521 0.000000 0.000000 0.000000
# 2 -0.005589 0.017146 -0.001521 0.000000 0.000000 0.000000
# 3 -0.001521 -0.001521 0.009053 0.000000 0.000000 0.000000
# 4 0.000000 0.000000 0.000000 0.031560 0.000000 0.000000
# 5 0.000000 0.000000 0.000000 0.000000 0.031560 0.000000
# 6 0.000000 0.000000 0.000000 0.000000 0.000000 0.026478
#
#
# Mechanical properties :
#
#
# Convention : Reuss Voigt Hill
#
# Bulk Modulus (GPa) = 38.33922 39.71892 39.02907
# Shear Modulus (GPa) = 31.46671 33.32075 32.39373
#
# Velocity S-wave (km/s) = 3.72639 3.83459 3.78088
# Velocity P-wave (km/s) = 5.95259 6.09369 6.02355
#
# Compressibility (1/GPa) = 0.02608295
#
# Stress axis : x y z
#
# Youngs Moduli (GPa) = 58.32402 58.32402 110.45706
#
# Poissons Ratio (x) = 0.32597 0.16799
# Poissons Ratio (y) = 0.32597 0.16799
# Poissons Ratio (z) = 0.08870 0.08870
#
# Static dielectric constant tensor:
#      x y z
#    x 2.033140 0.000000 0.000000 
#    y 0.000000 2.033140 0.000000 
#    z 0.000000 0.000000 1.858430 
# 
# From -- ./inp_files/6603.got.cif
#   From: 2010.05.17/outbox.cif.g08.bks.cpg/sg133_4_cif.got.tgz:6603.got - 2010.05.20 12:37:36.
