data_PCOD9567502
_publ_section_title
;
Structure prediction by ZEFSAII (Michael W. Deem and Ramdas Pophale) SiO2 
 PCOD9567502
Probable space group: P 42/M C M
;
_chemical_formula_sum "Si O2"
_cell_formula_units_Z 60
_cell_length_a 14.356000
_cell_length_b 14.356000
_cell_length_c 14.417820
_cell_angle_alpha 90.000000
_cell_angle_beta 90.000000
_cell_angle_gamma 90.000000
_cell_volume 2971.436807
_symmetry_space_group_name_H-M "P 42/M C M"
_symmetry_group_IT_number 132
_symmetry_cell_setting 'tetragonal'
loop_
_space_group_symop_operation_xyz
x,y,z
-y,x,1/2+z
-x,-y,z
y,-x,1/2+z
x,-y,1/2-z
-x,y,1/2-z
y,x,-z
-y,-x,-z
-x,-y,-z
y,-x,1/2-z
x,y,-z
-y,x,1/2-z
-x,y,1/2+z
x,-y,1/2+z
-y,-x,z
y,x,z
loop_
_atom_site_type_symbol
_atom_site_label
_atom_site_fract_x
_atom_site_fract_y
_atom_site_fract_z
Si Si1 0.500000 0.000000 0.750000
Si Si2 0.995613 0.149044 0.387721
Si Si3 0.083882 0.653769 0.112862
Si Si4 0.418919 0.268267 0.320868
Si Si5 0.493578 0.651433 0.500000
O O1 0.569320 0.951627 0.676225
O O2 0.994014 0.148842 0.500000
O O3 0.897661 0.102340 0.357220
O O4 0.025807 0.253144 0.362602
O O5 0.076706 0.076706 0.359906
O O6 0.191034 0.655037 0.146077
O O7 0.079116 0.640442 0.000000
O O8 0.500000 0.239208 0.250000
O O9 0.360012 0.360012 0.290536
O O10 0.480262 0.291687 0.410426
O O11 0.566137 0.566137 0.500000
O O12 0.391106 0.608895 0.500000
#
# Coordination Sequence:
#
# PCOD9567502 Si02
#       5
#     4  16  16  16   8
#     4  12  26  44  60  88 118 164 214 260 320 380
#     4   8  15  31  60  96 126 154 197 258 325 391
#     4  11  22  40  65  88 122 168 215 263 325 398
#     4  11  21  35  58  90 127 171 221 271 321 373
#     4   9  18  32  52  81 121 169 218 269 323 370
#
# _framework density 20.192253000000001
#
# number of rings (size 3 to 8) (size 9 to 14) (size 15 to 20)
#    0.000    2.000    2.667    2.800    0.000    2.400 
#    0.000    2.667    0.000    1.600    0.000    0.000 
#    0.000    0.000    0.000    0.000    3.200    0.000 
#
# Total GULP energy -334015.606297 kJ/mol
# GULP energy per Si atom -5566.926772 kJ/mol
# Density = 2.014629 g / cm^3
# Si number density = 20.192253 Si / 1000 Ang^3
#
#
#
# Elastic Constant Matrix: (Units=GPa)
#
#
# Indices 1 2 3 4 5 6 
#
# 1 113.9907 74.7362 46.0562 0.0000 0.0000 0.0000
# 2 74.7362 113.9902 46.0560 0.0000 0.0000 0.0000
# 3 46.0562 46.0560 111.9191 0.0000 0.0000 0.0000
# 4 0.0000 0.0000 0.0000 10.8539 0.0000 0.0000
# 5 0.0000 0.0000 0.0000 0.0000 10.8502 0.0000
# 6 0.0000 0.0000 0.0000 0.0000 0.0000 35.5127
#
#
#
# Elastic Compliance Matrix: (Units=1/GPa)
#
#
# Indices 1 2 3 4 5 6 
#
# 1 0.016053 -0.009422 -0.002728 0.000000 0.000000 0.000000
# 2 -0.009422 0.016053 -0.002728 0.000000 0.000000 0.000000
# 3 -0.002728 -0.002728 0.011181 0.000000 0.000000 0.000000
# 4 0.000000 0.000000 0.000000 0.092133 0.000000 0.000000
# 5 0.000000 0.000000 0.000000 0.000000 0.092164 0.000000
# 6 0.000000 0.000000 0.000000 0.000000 0.000000 0.028159
#
#
# Mechanical properties :
#
#
# Convention : Reuss Voigt Hill
#
# Bulk Modulus (GPa) = 73.92377 74.84408 74.38393
# Shear Modulus (GPa) = 17.24083 22.98015 20.11049
#
# Velocity S-wave (km/s) = 2.92521 3.37719 3.15929
# Velocity P-wave (km/s) = 6.93532 7.23556 7.08703
#
# Compressibility (1/GPa) = 0.01352745
#
# Stress axis : x y z
#
# Youngs Moduli (GPa) = 62.29516 62.29496 89.44042
#
# Poissons Ratio (x) = 0.58696 0.24404
# Poissons Ratio (y) = 0.58696 0.24404
# Poissons Ratio (z) = 0.16997 0.16997
#
# Static dielectric constant tensor:
#      x y z
#    x 1.755840 0.000000 0.000000 
#    y 0.000000 1.755840 0.000000 
#    z 0.000000 0.000000 1.783480 
# 
# From -- ./inp_files/4466.got.cif
#   From: 2010.05.17/outbox.cif.g08.bks.cpg/sg132_3_cif.got.tgz:4466.got - 2010.05.20 12:30:18.
