data_PCOD9567866
_publ_section_title
;
Structure prediction by ZEFSAII (Michael W. Deem and Ramdas Pophale) SiO2 
 PCOD9567866
Probable space group: P 42/N B C
;
_chemical_formula_sum "Si O2"
_cell_formula_units_Z 56
_cell_length_a 14.319834
_cell_length_b 14.319834
_cell_length_c 10.428921
_cell_angle_alpha 90.000000
_cell_angle_beta 90.000000
_cell_angle_gamma 90.000000
_cell_volume 2138.529988
_symmetry_space_group_name_H-M "P 42/N B C"
_symmetry_group_IT_number 133
_space_group.IT_coordinate_system_code '2'
_symmetry_cell_setting 'tetragonal'
loop_
_space_group_symop_operation_xyz
x,y,z
1/2-y,x,1/2+z
1/2-x,1/2-y,z
y,1/2-x,1/2+z
x,1/2-y,-z
1/2-x,y,-z
y,x,1/2-z
1/2-y,1/2-x,1/2-z
-x,-y,-z
1/2+y,-x,1/2-z
1/2+x,1/2+y,-z
-y,1/2+x,1/2-z
-x,1/2+y,z
1/2+x,-y,z
-y,-x,1/2+z
1/2+y,1/2+x,1/2+z
loop_
_atom_site_type_symbol
_atom_site_label
_atom_site_fract_x
_atom_site_fract_y
_atom_site_fract_z
Si Si1 0.139192 0.487463 0.490750
Si Si2 0.122473 0.832350 0.219338
Si Si3 0.113421 0.113421 0.250000
Si Si4 0.557061 0.806020 0.628639
O O1 0.250000 0.488908 0.500000
O O2 0.121864 0.585238 0.413749
O O3 0.097384 0.456513 0.629085
O O4 0.116737 0.397101 0.403532
O O5 0.219154 0.867128 0.280013
O O6 0.036967 0.845224 0.312898
O O7 0.100604 0.221684 0.288668
O O8 0.535061 0.750000 0.500000
#
# Coordination Sequence:
#
# PCOD9567866 Si02
#       4
#    16  16   8  16
#     4  11  23  44  80 110 152 203 259 340 412 492
#     4  11  26  50  75 106 155 215 270 325 406 500
#     4  10  22  43  76 114 150 196 256 325 426 481
#     4  10  23  45  72 113 151 193 261 332 404 492
#
# _framework density 26.186212000000001
#
# number of rings (size 3 to 8) (size 9 to 14) (size 15 to 20)
#    0.000    1.429    2.857    0.857    0.000    8.571 
#    5.143    7.143    0.000    0.000    0.000    0.000 
#    0.000    0.000    0.000    0.000    0.000    0.000 
#
# Total GULP energy -313341.684793 kJ/mol
# GULP energy per Si atom -5595.387228 kJ/mol
# Density = 2.612661 g / cm^3
# Si number density = 26.186212 Si / 1000 Ang^3
#
#
#
# Elastic Constant Matrix: (Units=GPa)
#
#
# Indices 1 2 3 4 5 6 
#
# 1 145.6116 50.3532 59.8033 0.0000 0.0000 0.0000
# 2 50.3532 145.6116 59.8033 0.0000 0.0000 0.0000
# 3 59.8033 59.8033 169.4497 0.0000 0.0000 0.0000
# 4 0.0000 0.0000 0.0000 34.5314 0.0000 0.0000
# 5 0.0000 0.0000 0.0000 0.0000 34.5314 0.0000
# 6 0.0000 0.0000 0.0000 0.0000 0.0000 42.2780
#
#
#
# Elastic Compliance Matrix: (Units=1/GPa)
#
#
# Indices 1 2 3 4 5 6 
#
# 1 0.008501 -0.001997 -0.002295 0.000000 0.000000 0.000000
# 2 -0.001997 0.008501 -0.002295 0.000000 0.000000 0.000000
# 3 -0.002295 -0.002295 0.007522 0.000000 0.000000 0.000000
# 4 0.000000 0.000000 0.000000 0.028959 0.000000 0.000000
# 5 0.000000 0.000000 0.000000 0.000000 0.028959 0.000000
# 6 0.000000 0.000000 0.000000 0.000000 0.000000 0.023653
#
#
# Mechanical properties :
#
#
# Convention : Reuss Voigt Hill
#
# Bulk Modulus (GPa) = 88.12184 88.95473 88.53828
# Shear Modulus (GPa) = 40.63295 41.64902 41.14099
#
# Velocity S-wave (km/s) = 3.94343 3.99243 3.96800
# Velocity P-wave (km/s) = 7.37965 7.43616 7.40796
#
# Compressibility (1/GPa) = 0.01134792
#
# Stress axis : x y z
#
# Youngs Moduli (GPa) = 117.63513 117.63513 132.94896
#
# Poissons Ratio (x) = 0.23491 0.30517
# Poissons Ratio (y) = 0.23491 0.30517
# Poissons Ratio (z) = 0.27002 0.27002
#
# Static dielectric constant tensor:
#      x y z
#    x 2.039370 0.000000 0.000000 
#    y 0.000000 2.039370 0.000000 
#    z 0.000000 0.000000 2.187220 
# 
# From -- ./inp_files/2794.got.cif
#   From: 2010.05.17/outbox.cif.g08.bks.cpg/sg133_2_cif.got.tgz:2794.got - 2010.05.20 12:37:36.
