data_PCOD9567033
_publ_section_title
;
Structure prediction by ZEFSAII (Michael W. Deem and Ramdas Pophale) SiO2 
 PCOD9567033
Probable space group: P 42/M C M
;
_chemical_formula_sum "Si O2"
_cell_formula_units_Z 96
_cell_length_a 20.499293
_cell_length_b 20.499293
_cell_length_c 13.799804
_cell_angle_alpha 90.000000
_cell_angle_beta 90.000000
_cell_angle_gamma 90.000000
_cell_volume 5798.967623
_symmetry_space_group_name_H-M "P 42/M C M"
_symmetry_group_IT_number 132
_symmetry_cell_setting 'tetragonal'
loop_
_space_group_symop_operation_xyz
x,y,z
-y,x,1/2+z
-x,-y,z
y,-x,1/2+z
x,-y,1/2-z
-x,y,1/2-z
y,x,-z
-y,-x,-z
-x,-y,-z
y,-x,1/2-z
x,y,-z
-y,x,1/2-z
-x,y,1/2+z
x,-y,1/2+z
-y,-x,z
y,x,z
loop_
_atom_site_type_symbol
_atom_site_label
_atom_site_fract_x
_atom_site_fract_y
_atom_site_fract_z
Si Si1 0.905361 0.199312 0.175214
Si Si2 0.641088 0.912469 0.890050
Si Si3 0.572188 0.168936 0.231848
Si Si4 0.803043 0.305993 0.885198
Si Si5 0.946607 0.208639 0.391534
Si Si6 0.568020 0.037888 0.889600
O O1 0.858481 0.141520 0.136114
O O2 0.864452 0.266361 0.160718
O O3 0.919548 0.183207 0.288489
O O4 0.974870 0.207375 0.122749
O O5 0.608900 0.855296 0.828504
O O6 0.718689 0.916304 0.891913
O O7 0.619271 0.984107 0.855023
O O8 0.616164 0.907311 0.000000
O O9 0.500000 0.197362 0.250000
O O10 0.625272 0.207001 0.168059
O O11 0.561680 0.101755 0.173162
O O12 0.741213 0.258787 0.872612
O O13 0.814726 0.314041 0.000000
O O14 0.932683 0.180987 0.500000
O O15 0.500000 0.000000 0.888329
O O16 0.584552 0.056191 0.000000
#
# Coordination Sequence:
#
# PCOD9567033 Si02
#       6
#    16  16  16  16  16  16
#     4  10  20  34  53  76  99 127 170 220 266 313
#     4  10  20  31  43  65  97 131 166 202 243 297
#     4  12  21  30  50  73 103 138 173 209 250 298
#     4  10  21  37  55  75 102 139 182 222 256 295
#     4  10  20  34  52  71  94 125 163 214 268 318
#     4  10  19  28  39  63 100 136 168 203 244 291
#
# _framework density 16.554670999999999
#
# number of rings (size 3 to 8) (size 9 to 14) (size 15 to 20)
#    0.000    1.667    3.333    2.500    2.333    3.333 
#    0.000    0.000    0.000    4.500    0.000    4.667 
#    0.000    0.333    0.000    1.833    0.000    0.000 
#
# Total GULP energy -535208.745930 kJ/mol
# GULP energy per Si atom -5575.091103 kJ/mol
# Density = 1.651699 g / cm^3
# Si number density = 16.554671 Si / 1000 Ang^3
#
#
#
# Elastic Constant Matrix: (Units=GPa)
#
#
# Indices 1 2 3 4 5 6 
#
# 1 55.8599 26.9564 20.2128 0.0000 0.0000 0.0000
# 2 26.9564 55.8599 20.2128 0.0000 0.0000 0.0000
# 3 20.2128 20.2128 108.2365 0.0000 0.0000 0.0000
# 4 0.0000 0.0000 0.0000 39.1678 0.0000 0.0000
# 5 0.0000 0.0000 0.0000 0.0000 39.1678 0.0000
# 6 0.0000 0.0000 0.0000 0.0000 0.0000 14.1244
#
#
#
# Elastic Compliance Matrix: (Units=1/GPa)
#
#
# Indices 1 2 3 4 5 6 
#
# 1 0.023942 -0.010656 -0.002481 0.000000 0.000000 0.000000
# 2 -0.010656 0.023942 -0.002481 0.000000 0.000000 0.000000
# 3 -0.002481 -0.002481 0.010166 0.000000 0.000000 0.000000
# 4 0.000000 0.000000 0.000000 0.025531 0.000000 0.000000
# 5 0.000000 0.000000 0.000000 0.000000 0.025531 0.000000
# 6 0.000000 0.000000 0.000000 0.000000 0.000000 0.070799
#
#
# Mechanical properties :
#
#
# Convention : Reuss Voigt Hill
#
# Bulk Modulus (GPa) = 37.29495 39.41339 38.35417
# Shear Modulus (GPa) = 22.71846 28.66362 25.69104
#
# Velocity S-wave (km/s) = 3.70852 4.16559 3.94368
# Velocity P-wave (km/s) = 6.39646 6.85535 6.62988
#
# Compressibility (1/GPa) = 0.02681328
#
# Stress axis : x y z
#
# Youngs Moduli (GPa) = 41.76770 41.76770 98.36993
#
# Poissons Ratio (x) = 0.44507 0.24407
# Poissons Ratio (y) = 0.44507 0.24407
# Poissons Ratio (z) = 0.10363 0.10363
#
# Static dielectric constant tensor:
#      x y z
#    x 1.563960 0.000000 0.000000 
#    y 0.000000 1.563960 0.000000 
#    z 0.000000 0.000000 1.626180 
# 
# From -- ./inp_files/5006.got.cif
#   From: 2010.05.17/outbox.cif.g08.bks.cpg/sg132_3_cif.got.tgz:5006.got - 2010.05.20 12:30:18.
