data_PCOD9567723
_publ_section_title
;
Structure prediction by ZEFSAII (Michael W. Deem and Ramdas Pophale) SiO2 
 PCOD9567723
Probable space group: P 42/N B C
;
_chemical_formula_sum "Si O2"
_cell_formula_units_Z 96
_cell_length_a 22.690763
_cell_length_b 22.690763
_cell_length_c 8.680694
_cell_angle_alpha 90.000000
_cell_angle_beta 90.000000
_cell_angle_gamma 90.000000
_cell_volume 4469.435218
_symmetry_space_group_name_H-M "P 42/N B C"
_symmetry_group_IT_number 133
_space_group.IT_coordinate_system_code '2'
_symmetry_cell_setting 'tetragonal'
loop_
_space_group_symop_operation_xyz
x,y,z
1/2-y,x,1/2+z
1/2-x,1/2-y,z
y,1/2-x,1/2+z
x,1/2-y,-z
1/2-x,y,-z
y,x,1/2-z
1/2-y,1/2-x,1/2-z
-x,-y,-z
1/2+y,-x,1/2-z
1/2+x,1/2+y,-z
-y,1/2+x,1/2-z
-x,1/2+y,z
1/2+x,-y,z
-y,-x,1/2+z
1/2+y,1/2+x,1/2+z
loop_
_atom_site_type_symbol
_atom_site_label
_atom_site_fract_x
_atom_site_fract_y
_atom_site_fract_z
Si Si1 0.157190 0.749997 0.686955
Si Si2 0.318572 0.058743 0.531310
Si Si3 0.559207 0.318379 0.211916
Si Si4 0.897468 0.421231 0.993273
Si Si5 0.998265 0.903625 0.202561
Si Si6 0.190123 0.184670 0.069810
O O1 0.155993 0.750000 0.500000
O O2 0.194910 0.806554 0.745607
O O3 0.092653 0.756341 0.764945
O O4 0.250000 0.065350 0.500000
O O5 0.348894 0.029432 0.385011
O O6 0.343951 0.125186 0.549025
O O7 0.322268 0.009901 0.668057
O O8 0.592023 0.356649 0.079598
O O9 0.571855 0.348900 0.376026
O O10 0.886508 0.463746 0.850560
O O11 0.958229 0.435392 0.081350
O O12 0.947540 0.947540 0.250000
O O13 0.195012 0.195012 0.250000
O O14 0.188074 0.250000 0.000000
O O15 0.250000 0.155838 0.000000
#
# Coordination Sequence:
#
# PCOD9567723 Si02
#       6
#    16  16  16  16  16  16
#     4  11  23  37  57  86 117 163 224 273 316 375
#     4  10  24  39  56  88 123 157 196 244 307 371
#     4  10  21  39  58  83 123 161 202 261 321 366
#     4   9  20  37  60  89 114 155 208 248 307 378
#     4  10  20  37  61  85 117 155 197 251 301 361
#     4  10  21  41  67  93 121 156 195 238 294 368
#
# _framework density 21.479223999999999
#
# number of rings (size 3 to 8) (size 9 to 14) (size 15 to 20)
#    0.000    2.000    0.000    3.500    0.000   10.667 
#    0.000    2.500    0.000    0.000    0.000    0.000 
#    0.000    0.000    0.000    0.000    0.000    0.000 
#
# Total GULP energy -535679.916489 kJ/mol
# GULP energy per Si atom -5579.999130 kJ/mol
# Density = 2.143034 g / cm^3
# Si number density = 21.479224 Si / 1000 Ang^3
#
#
#
# Elastic Constant Matrix: (Units=GPa)
#
#
# Indices 1 2 3 4 5 6 
#
# 1 88.9857 40.7793 40.0854 0.0000 0.0000 0.0000
# 2 40.7793 88.9857 40.0854 0.0000 0.0000 0.0000
# 3 40.0854 40.0854 145.3445 0.0000 0.0000 0.0000
# 4 0.0000 0.0000 0.0000 2.1777 0.0000 0.0000
# 5 0.0000 0.0000 0.0000 0.0000 2.1777 0.0000
# 6 0.0000 0.0000 0.0000 0.0000 0.0000 16.0070
#
#
#
# Elastic Compliance Matrix: (Units=1/GPa)
#
#
# Indices 1 2 3 4 5 6 
#
# 1 0.015017 -0.005728 -0.002562 0.000000 0.000000 0.000000
# 2 -0.005728 0.015017 -0.002562 0.000000 0.000000 0.000000
# 3 -0.002562 -0.002562 0.008293 0.000000 0.000000 0.000000
# 4 0.000000 0.000000 0.000000 0.459201 0.000000 0.000000
# 5 0.000000 0.000000 0.000000 0.000000 0.459201 0.000000
# 6 0.000000 0.000000 0.000000 0.000000 0.000000 0.062473
#
#
# Mechanical properties :
#
#
# Convention : Reuss Voigt Hill
#
# Bulk Modulus (GPa) = 60.15461 62.80182 61.47822
# Shear Modulus (GPa) = 4.77809 17.56352 11.17080
#
# Velocity S-wave (km/s) = 1.49310 2.86264 2.28299
# Velocity P-wave (km/s) = 5.57128 6.34257 5.96940
#
# Compressibility (1/GPa) = 0.01662383
#
# Stress axis : x y z
#
# Youngs Moduli (GPa) = 66.59313 66.59313 120.57909
#
# Poissons Ratio (x) = 0.38142 0.30891
# Poissons Ratio (y) = 0.38142 0.30891
# Poissons Ratio (z) = 0.17060 0.17060
#
# Static dielectric constant tensor:
#      x y z
#    x 1.802130 0.000000 0.000000 
#    y 0.000000 1.802130 0.000000 
#    z 0.000000 0.000000 1.730370 
# 
# From -- ./inp_files/1910.got.cif
#   From: 2010.05.17/outbox.cif.g08.bks.cpg/sg133_1_cif.got.tgz:1910.got - 2010.05.20 12:37:36.
