data_PCOD9567198
_publ_section_title
;
Structure prediction by ZEFSAII (Michael W. Deem and Ramdas Pophale) SiO2 
 PCOD9567198
Probable space group: P 42/M C M
;
_chemical_formula_sum "Si O2"
_cell_formula_units_Z 72
_cell_length_a 11.685082
_cell_length_b 11.685082
_cell_length_c 30.150731
_cell_angle_alpha 90.000000
_cell_angle_beta 90.000000
_cell_angle_gamma 90.000000
_cell_volume 4116.815223
_symmetry_space_group_name_H-M "P 42/M C M"
_symmetry_group_IT_number 132
_symmetry_cell_setting 'tetragonal'
loop_
_space_group_symop_operation_xyz
x,y,z
-y,x,1/2+z
-x,-y,z
y,-x,1/2+z
x,-y,1/2-z
-x,y,1/2-z
y,x,-z
-y,-x,-z
-x,-y,-z
y,-x,1/2-z
x,y,-z
-y,x,1/2-z
-x,y,1/2+z
x,-y,1/2+z
-y,-x,z
y,x,z
loop_
_atom_site_type_symbol
_atom_site_label
_atom_site_fract_x
_atom_site_fract_y
_atom_site_fract_z
Si Si1 0.809838 0.993918 0.199606
Si Si2 0.527142 0.127338 0.573218
Si Si3 0.766690 0.950357 0.946553
Si Si4 0.688896 0.502687 0.000000
Si Si5 0.309091 0.875501 0.124089
O O1 0.872573 0.872573 0.191165
O O2 0.765495 0.000000 0.250000
O O3 0.720653 0.035410 0.163076
O O4 0.911710 0.088290 0.197658
O O5 0.664227 0.127683 0.573502
O O6 0.490103 0.229279 0.541817
O O7 0.444456 0.134816 0.615666
O O8 0.500000 0.000000 0.554420
O O9 0.887273 0.887273 0.938269
O O10 0.746783 0.067771 0.920250
O O11 0.753125 0.960221 0.000000
O O12 0.624955 0.624955 0.000000
O O13 0.592878 0.407123 0.000000
O O14 0.243103 0.756898 0.132619
#
# Coordination Sequence:
#
# PCOD9567198 Si02
#       5
#    16  16  16   8  16
#     4   8  14  27  47  69  95 126 155 185 228 286
#     4  10  20  33  47  63  91 125 158 192 236 284
#     4  10  20  33  48  63  88 130 170 197 226 274
#     4  11  21  32  48  66  85 119 170 214 234 261
#     4  10  20  30  46  73  99 119 149 195 243 286
#
# _framework density 17.489246000000001
#
# number of rings (size 3 to 8) (size 9 to 14) (size 15 to 20)
#    0.000    2.333    1.111    3.000    4.667    1.778 
#    0.000    1.111    0.000    6.000    0.000    0.000 
#    0.000    0.000    0.000    0.000    0.000  187.778 
#
# Total GULP energy -400909.093162 kJ/mol
# GULP energy per Si atom -5568.181849 kJ/mol
# Density = 1.744944 g / cm^3
# Si number density = 17.489246 Si / 1000 Ang^3
#
#
#
# Elastic Constant Matrix: (Units=GPa)
#
#
# Indices 1 2 3 4 5 6 
#
# 1 47.4203 11.0501 19.3777 0.0000 0.0000 0.0000
# 2 11.0501 47.4198 19.3778 0.0000 0.0000 0.0000
# 3 19.3777 19.3778 79.6351 0.0000 0.0000 0.0000
# 4 0.0000 0.0000 0.0000 9.5407 0.0000 0.0000
# 5 0.0000 0.0000 0.0000 0.0000 9.5394 0.0000
# 6 0.0000 0.0000 0.0000 0.0000 0.0000 21.5871
#
#
#
# Elastic Compliance Matrix: (Units=1/GPa)
#
#
# Indices 1 2 3 4 5 6 
#
# 1 0.023943 -0.003552 -0.004962 0.000000 0.000000 0.000000
# 2 -0.003552 0.023944 -0.004962 0.000000 0.000000 0.000000
# 3 -0.004962 -0.004962 0.014972 0.000000 0.000000 0.000000
# 4 0.000000 0.000000 0.000000 0.104814 0.000000 0.000000
# 5 0.000000 0.000000 0.000000 0.000000 0.104829 0.000000
# 6 0.000000 0.000000 0.000000 0.000000 0.000000 0.046324
#
#
# Mechanical properties :
#
#
# Convention : Reuss Voigt Hill
#
# Bulk Modulus (GPa) = 27.84925 30.45406 29.15166
# Shear Modulus (GPa) = 13.97638 16.44473 15.21056
#
# Velocity S-wave (km/s) = 2.82998 3.06972 2.95228
# Velocity P-wave (km/s) = 5.16106 5.47860 5.32220
#
# Compressibility (1/GPa) = 0.03590761
#
# Stress axis : x y z
#
# Youngs Moduli (GPa) = 41.76535 41.76480 66.79105
#
# Poissons Ratio (x) = 0.14834 0.33141
# Poissons Ratio (y) = 0.14834 0.33142
# Poissons Ratio (z) = 0.20723 0.20724
#
# Static dielectric constant tensor:
#      x y z
#    x 1.618600 0.000000 0.000000 
#    y 0.000000 1.618600 0.000000 
#    z 0.000000 0.000000 1.605900 
# 
# From -- ./inp_files/10499.got.cif
#   From: 2010.05.17/outbox.cif.g08.bks.cpg/sg132_6_cif.got.tgz:10499.got - 2010.05.20 12:30:18.
