data_PCOD9567003
_publ_section_title
;
Structure prediction by ZEFSAII (Michael W. Deem and Ramdas Pophale) SiO2 
 PCOD9567003
Probable space group: P 42/M C M
;
_chemical_formula_sum "Si O2"
_cell_formula_units_Z 74
_cell_length_a 22.396218
_cell_length_b 22.396218
_cell_length_c 10.204083
_cell_angle_alpha 90.000000
_cell_angle_beta 90.000000
_cell_angle_gamma 90.000000
_cell_volume 5118.271918
_symmetry_space_group_name_H-M "P 42/M C M"
_symmetry_group_IT_number 132
_symmetry_cell_setting 'tetragonal'
loop_
_space_group_symop_operation_xyz
x,y,z
-y,x,1/2+z
-x,-y,z
y,-x,1/2+z
x,-y,1/2-z
-x,y,1/2-z
y,x,-z
-y,-x,-z
-x,-y,-z
y,-x,1/2-z
x,y,-z
-y,x,1/2-z
-x,y,1/2+z
x,-y,1/2+z
-y,-x,z
y,x,z
loop_
_atom_site_type_symbol
_atom_site_label
_atom_site_fract_x
_atom_site_fract_y
_atom_site_fract_z
Si Si1 0.816978 0.000000 0.750000
Si Si2 0.001788 0.099008 0.500000
Si Si3 0.681941 0.777949 0.341568
Si Si4 0.875763 0.775585 0.342058
Si Si5 0.594710 0.594710 0.653185
Si Si6 0.500000 0.500000 0.750000
Si Si7 0.444469 0.727491 0.840290
O O1 0.859962 0.005072 0.625645
O O2 0.780611 0.060905 0.771614
O O3 0.951905 0.048096 0.500000
O O4 0.065621 0.065621 0.500000
O O5 0.684872 0.777111 0.500000
O O6 0.721356 0.721356 0.295895
O O7 0.717572 0.837263 0.301692
O O8 0.613129 0.768194 0.309542
O O9 0.884887 0.774010 0.500000
O O10 0.833260 0.833260 0.315890
O O11 0.604258 0.604258 0.500000
O O12 0.544449 0.544449 0.673568
O O13 0.573052 0.659407 0.700877
O O14 0.500000 0.745129 0.750000
O O15 0.455294 0.728723 0.000000
#
# Coordination Sequence:
#
# PCOD9567003 Si02
#       7
#     8   8  16  16   8   2  16
#     4  12  20  31  48  68  95 124 162 198 228 272
#     4  11  22  32  44  64  96 134 163 186 218 266
#     4   8  14  27  49  69  87 115 160 201 234 271
#     4   9  17  30  48  70  91 119 158 203 236 269
#     4  10  19  27  39  60  91 123 160 186 219 263
#     4  12  18  28  36  58  92 140 158 192 206 264
#     4  10  18  30  47  68  91 120 154 194 232 276
#
# _framework density 14.458005999999999
#
# number of rings (size 3 to 8) (size 9 to 14) (size 15 to 20)
#    0.000    2.270    3.243    3.405    0.000    0.865 
#    0.000    0.541    2.378    0.000    0.000    0.757 
#    0.000    5.189    0.000    0.000    0.000    0.000 
#
# Total GULP energy -412035.803552 kJ/mol
# GULP energy per Si atom -5568.051399 kJ/mol
# Density = 1.442510 g / cm^3
# Si number density = 14.458006 Si / 1000 Ang^3
#
#
#
# Elastic Constant Matrix: (Units=GPa)
#
#
# Indices 1 2 3 4 5 6 
#
# 1 110.5011 71.3392 33.9195 0.0000 0.0000 0.0000
# 2 71.3392 110.5012 33.9195 0.0000 0.0000 0.0000
# 3 33.9195 33.9195 49.7906 0.0000 0.0000 0.0000
# 4 0.0000 0.0000 0.0000 19.1761 0.0000 0.0000
# 5 0.0000 0.0000 0.0000 0.0000 19.1766 0.0000
# 6 0.0000 0.0000 0.0000 0.0000 0.0000 39.9803
#
#
#
# Elastic Compliance Matrix: (Units=1/GPa)
#
#
# Indices 1 2 3 4 5 6 
#
# 1 0.016454 -0.009081 -0.005023 0.000000 0.000000 0.000000
# 2 -0.009081 0.016454 -0.005023 0.000000 0.000000 0.000000
# 3 -0.005023 -0.005023 0.026928 0.000000 0.000000 0.000000
# 4 0.000000 0.000000 0.000000 0.052148 0.000000 0.000000
# 5 0.000000 0.000000 0.000000 0.000000 0.052147 0.000000
# 6 0.000000 0.000000 0.000000 0.000000 0.000000 0.025012
#
#
# Mechanical properties :
#
#
# Convention : Reuss Voigt Hill
#
# Bulk Modulus (GPa) = 46.33399 61.01659 53.67529
# Shear Modulus (GPa) = 21.31367 24.44092 22.87730
#
# Velocity S-wave (km/s) = 3.84367 4.11600 3.98216
# Velocity P-wave (km/s) = 7.19828 8.05499 7.63866
#
# Compressibility (1/GPa) = 0.02158243
#
# Stress axis : x y z
#
# Youngs Moduli (GPa) = 60.77513 60.77512 37.13633
#
# Poissons Ratio (x) = 0.55189 0.18653
# Poissons Ratio (y) = 0.55189 0.18653
# Poissons Ratio (z) = 0.30527 0.30527
#
# Static dielectric constant tensor:
#      x y z
#    x 1.491050 0.000000 0.000000 
#    y 0.000000 1.491050 0.000000 
#    z 0.000000 0.000000 1.468080 
# 
# From -- ./inp_files/3362.got.cif
#   From: 2010.05.17/outbox.cif.g08.bks.cpg/sg132_2_cif.got.tgz:3362.got - 2010.05.20 12:30:18.
