data_PCOD9567334
_publ_section_title
;
Structure prediction by ZEFSAII (Michael W. Deem and Ramdas Pophale) SiO2 
 PCOD9567334
Probable space group: P 42/M C M
;
_chemical_formula_sum "Si O2"
_cell_formula_units_Z 48
_cell_length_a 9.388290
_cell_length_b 9.388290
_cell_length_c 28.611039
_cell_angle_alpha 90.000000
_cell_angle_beta 90.000000
_cell_angle_gamma 90.000000
_cell_volume 2521.776666
_symmetry_space_group_name_H-M "P 42/M C M"
_symmetry_group_IT_number 132
_symmetry_cell_setting 'tetragonal'
loop_
_space_group_symop_operation_xyz
x,y,z
-y,x,1/2+z
-x,-y,z
y,-x,1/2+z
x,-y,1/2-z
-x,y,1/2-z
y,x,-z
-y,-x,-z
-x,-y,-z
y,-x,1/2-z
x,y,-z
-y,x,1/2-z
-x,y,1/2+z
x,-y,1/2+z
-y,-x,z
y,x,z
loop_
_atom_site_type_symbol
_atom_site_label
_atom_site_fract_x
_atom_site_fract_y
_atom_site_fract_z
Si Si1 0.571321 0.806513 0.300900
Si Si2 0.922017 0.310394 0.651630
Si Si3 0.239420 0.995279 0.948996
O O1 0.500000 0.817705 0.250000
O O2 0.666822 0.666822 0.303878
O O3 0.439689 0.816216 0.336542
O O4 0.667837 0.943864 0.313963
O O5 0.837427 0.162574 0.657627
O O6 0.977198 0.322620 0.598570
O O7 0.119760 0.119760 0.950107
O O8 0.311907 0.997608 0.000000
O O9 0.151659 0.848342 0.944786
#
# Coordination Sequence:
#
# PCOD9567334 Si02
#       3
#    16  16  16
#     4  11  24  40  56  78 110 146 184 226 278 335
#     4  10  20  36  60  86 110 140 183 230 268 315
#     4   8  14  27  51  83 115 145 176 214 268 328
#
# _framework density 19.034200999999999
#
# number of rings (size 3 to 8) (size 9 to 14) (size 15 to 20)
#    0.000    2.333    0.000    5.000    0.000    4.333 
#    0.000    5.000    0.000   15.000    0.000    4.667 
#    0.000    0.000    0.000    0.000    0.000    0.000 
#
# Total GULP energy -267581.807072 kJ/mol
# GULP energy per Si atom -5574.620981 kJ/mol
# Density = 1.899088 g / cm^3
# Si number density = 19.034201 Si / 1000 Ang^3
#
#
#
# Elastic Constant Matrix: (Units=GPa)
#
#
# Indices 1 2 3 4 5 6 
#
# 1 56.0731 24.7392 62.9702 0.0000 0.0000 0.0000
# 2 24.7392 56.0731 62.9702 0.0000 0.0000 0.0000
# 3 62.9702 62.9702 181.2569 0.0000 0.0000 0.0000
# 4 0.0000 0.0000 0.0000 22.4082 0.0000 0.0000
# 5 0.0000 0.0000 0.0000 0.0000 22.4082 0.0000
# 6 0.0000 0.0000 0.0000 0.0000 0.0000 47.7219
#
#
#
# Elastic Compliance Matrix: (Units=1/GPa)
#
#
# Indices 1 2 3 4 5 6 
#
# 1 0.029449 -0.002465 -0.009374 0.000000 0.000000 0.000000
# 2 -0.002465 0.029449 -0.009374 0.000000 0.000000 0.000000
# 3 -0.009374 -0.009374 0.012030 0.000000 0.000000 0.000000
# 4 0.000000 0.000000 0.000000 0.044627 0.000000 0.000000
# 5 0.000000 0.000000 0.000000 0.000000 0.044627 0.000000
# 6 0.000000 0.000000 0.000000 0.000000 0.000000 0.020955
#
#
# Mechanical properties :
#
#
# Convention : Reuss Voigt Hill
#
# Bulk Modulus (GPa) = 35.08727 66.08469 50.58598
# Shear Modulus (GPa) = 21.45329 28.02255 24.73792
#
# Velocity S-wave (km/s) = 3.36086 3.84112 3.60899
# Velocity P-wave (km/s) = 5.79088 7.38014 6.63328
#
# Compressibility (1/GPa) = 0.02850037
#
# Stress axis : x y z
#
# Youngs Moduli (GPa) = 33.95706 33.95706 83.12220
#
# Poissons Ratio (x) = 0.08372 0.77922
# Poissons Ratio (y) = 0.08372 0.77922
# Poissons Ratio (z) = 0.31833 0.31833
#
# Static dielectric constant tensor:
#      x y z
#    x 1.680840 0.000000 0.000000 
#    y 0.000000 1.680840 0.000000 
#    z 0.000000 0.000000 1.696040 
# 
# From -- ./inp_files/10226.got.cif
#   From: 2010.05.17/outbox.cif.g08.bks.cpg/sg132_6_cif.got.tgz:10226.got - 2010.05.20 12:30:18.
