data_PCOD9567035
_publ_section_title
;
Structure prediction by ZEFSAII (Michael W. Deem and Ramdas Pophale) SiO2 
 PCOD9567035
Probable space group: P 42/M C M
;
_chemical_formula_sum "Si O2"
_cell_formula_units_Z 80
_cell_length_a 17.606141
_cell_length_b 17.606141
_cell_length_c 18.677694
_cell_angle_alpha 90.000000
_cell_angle_beta 90.000000
_cell_angle_gamma 90.000000
_cell_volume 5789.640628
_symmetry_space_group_name_H-M "P 42/M C M"
_symmetry_group_IT_number 132
_symmetry_cell_setting 'tetragonal'
loop_
_space_group_symop_operation_xyz
x,y,z
-y,x,1/2+z
-x,-y,z
y,-x,1/2+z
x,-y,1/2-z
-x,y,1/2-z
y,x,-z
-y,-x,-z
-x,-y,-z
y,-x,1/2-z
x,y,-z
-y,x,1/2-z
-x,y,1/2+z
x,-y,1/2+z
-y,-x,z
y,x,z
loop_
_atom_site_type_symbol
_atom_site_label
_atom_site_fract_x
_atom_site_fract_y
_atom_site_fract_z
Si Si1 0.735427 0.264574 0.086713
Si Si2 0.871816 0.366392 0.913484
Si Si3 0.535408 0.660203 0.171416
Si Si4 0.610304 0.610304 0.585363
Si Si5 0.521354 0.164148 0.668252
Si Si6 0.033614 0.586120 0.581980
O O1 0.703307 0.182334 0.108817
O O2 0.672802 0.327199 0.108959
O O3 0.736411 0.263590 0.000000
O O4 0.840862 0.443391 0.877470
O O5 0.961555 0.362443 0.896372
O O6 0.867159 0.374993 0.000000
O O7 0.500000 0.646343 0.250000
O O8 0.609712 0.609712 0.162689
O O9 0.470969 0.634427 0.115883
O O10 0.550033 0.749758 0.165302
O O11 0.609253 0.609253 0.500000
O O12 0.500000 0.144629 0.750000
O O13 0.580439 0.104502 0.634752
O O14 0.056095 0.603570 0.500000
O O15 0.000000 0.500000 0.581531
#
# Coordination Sequence:
#
# PCOD9567035 Si02
#       6
#     8  16  16   8  16  16
#     4   9  16  27  44  63  84 104 135 180 211 249
#     4   9  16  28  44  61  81 108 135 167 215 260
#     4  11  22  34  45  56  79 114 146 182 227 263
#     4  11  21  32  47  62  76 102 148 191 224 252
#     4  10  19  28  41  61  79 106 139 179 214 259
#     4   8  15  27  43  59  79 105 131 164 213 262
#
# _framework density 13.817783
#
# number of rings (size 3 to 8) (size 9 to 14) (size 15 to 20)
#    0.000    2.400    3.000    2.100    0.000    5.200 
#    0.000    0.000    0.000    0.000    0.000    0.000 
#    0.000    0.000    0.000    0.900    0.000   11.700 
#
# Total GULP energy -445552.940853 kJ/mol
# GULP energy per Si atom -5569.411761 kJ/mol
# Density = 1.378633 g / cm^3
# Si number density = 13.817783 Si / 1000 Ang^3
#
#
#
# Elastic Constant Matrix: (Units=GPa)
#
#
# Indices 1 2 3 4 5 6 
#
# 1 82.8531 55.6256 35.0886 0.0000 0.0000 0.0000
# 2 55.6256 82.8532 35.0886 0.0000 0.0000 0.0000
# 3 35.0886 35.0886 51.7290 0.0000 0.0000 0.0000
# 4 0.0000 0.0000 0.0000 15.7368 0.0000 0.0000
# 5 0.0000 0.0000 0.0000 0.0000 15.7369 0.0000
# 6 0.0000 0.0000 0.0000 0.0000 0.0000 20.4891
#
#
#
# Elastic Compliance Matrix: (Units=1/GPa)
#
#
# Indices 1 2 3 4 5 6 
#
# 1 0.023866 -0.012862 -0.007464 0.000000 0.000000 0.000000
# 2 -0.012862 0.023866 -0.007464 0.000000 0.000000 0.000000
# 3 -0.007464 -0.007464 0.029458 0.000000 0.000000 0.000000
# 4 0.000000 0.000000 0.000000 0.063545 0.000000 0.000000
# 5 0.000000 0.000000 0.000000 0.000000 0.063545 0.000000
# 6 0.000000 0.000000 0.000000 0.000000 0.000000 0.048806
#
#
# Mechanical properties :
#
#
# Convention : Reuss Voigt Hill
#
# Bulk Modulus (GPa) = 46.27721 52.11565 49.19643
# Shear Modulus (GPa) = 15.82936 16.50140 16.16538
#
# Velocity S-wave (km/s) = 3.38831 3.45949 3.42409
# Velocity P-wave (km/s) = 6.99080 7.33183 7.16334
#
# Compressibility (1/GPa) = 0.02160891
#
# Stress axis : x y z
#
# Youngs Moduli (GPa) = 41.90112 41.90108 33.94708
#
# Poissons Ratio (x) = 0.53892 0.25339
# Poissons Ratio (y) = 0.53892 0.25339
# Poissons Ratio (z) = 0.31276 0.31276
#
# Static dielectric constant tensor:
#      x y z
#    x 1.457850 0.000000 0.000000 
#    y 0.000000 1.457850 0.000000 
#    z 0.000000 0.000000 1.467470 
# 
# From -- ./inp_files/6384.got.cif
#   From: 2010.05.17/outbox.cif.g08.bks.cpg/sg132_4_cif.got.tgz:6384.got - 2010.05.20 12:30:18.
