data_PCOD9567387
_publ_section_title
;
Structure prediction by ZEFSAII (Michael W. Deem and Ramdas Pophale) SiO2 
 PCOD9567387
Probable space group: P 42/M C M
;
_chemical_formula_sum "Si O2"
_cell_formula_units_Z 128
_cell_length_a 17.021384
_cell_length_b 17.021384
_cell_length_c 25.159420
_cell_angle_alpha 90.000000
_cell_angle_beta 90.000000
_cell_angle_gamma 90.000000
_cell_volume 7289.376192
_symmetry_space_group_name_H-M "P 42/M C M"
_symmetry_group_IT_number 132
_symmetry_cell_setting 'tetragonal'
loop_
_space_group_symop_operation_xyz
x,y,z
-y,x,1/2+z
-x,-y,z
y,-x,1/2+z
x,-y,1/2-z
-x,y,1/2-z
y,x,-z
-y,-x,-z
-x,-y,-z
y,-x,1/2-z
x,y,-z
-y,x,1/2-z
-x,y,1/2+z
x,-y,1/2+z
-y,-x,z
y,x,z
loop_
_atom_site_type_symbol
_atom_site_label
_atom_site_fract_x
_atom_site_fract_y
_atom_site_fract_z
Si Si1 0.179348 0.309689 0.215683
Si Si2 0.057230 0.631876 0.204934
Si Si3 0.292089 0.577904 0.773767
Si Si4 0.555168 0.076863 0.562068
Si Si5 0.451432 0.829775 0.136035
Si Si6 0.943298 0.287923 0.622458
Si Si7 0.166890 0.961586 0.062632
Si Si8 0.698997 0.172491 0.060781
O O1 0.238215 0.238215 0.221459
O O2 0.117623 0.312327 0.263863
O O3 0.230287 0.387960 0.229446
O O4 0.133748 0.298441 0.159956
O O5 0.099923 0.559556 0.177730
O O6 0.000000 0.601901 0.250000
O O7 0.011550 0.683074 0.162056
O O8 0.329763 0.500000 0.750000
O O9 0.353786 0.646215 0.784310
O O10 0.246970 0.554172 0.827674
O O11 0.547426 0.095046 0.500000
O O12 0.523774 0.147875 0.598726
O O13 0.645346 0.059744 0.576968
O O14 0.500000 0.000000 0.572511
O O15 0.373338 0.833387 0.100003
O O16 0.967152 0.203073 0.597805
O O17 0.086658 0.913343 0.077722
O O18 0.236870 0.896691 0.066131
O O19 0.158962 0.983194 0.000000
O O20 0.747359 0.252642 0.069183
O O21 0.670228 0.169767 0.000000
#
# Coordination Sequence:
#
# PCOD9567387 Si02
#       8
#    16  16  16  16  16  16  16  16
#     4   9  20  35  52  74 102 131 169 217 264 313
#     4   9  18  29  44  66  93 127 168 204 241 292
#     4  10  21  37  55  77 102 133 174 224 274 320
#     4  11  21  30  45  74 111 145 173 206 247 308
#     4  11  18  31  47  69 102 141 171 203 249 315
#     4  11  18  32  49  71  99 137 173 206 257 312
#     4   9  17  28  45  70  97 128 172 220 256 295
#     4   9  16  26  42  67  99 133 170 209 246 296
#
# _framework density 17.559802999999999
#
# number of rings (size 3 to 8) (size 9 to 14) (size 15 to 20)
#    0.000    2.125    2.500    2.625    0.000    3.125 
#    0.000    1.875    0.000    1.875    0.000    0.875 
#    0.000    1.500    0.000   10.125    0.000    0.000 
#
# Total GULP energy -713208.420598 kJ/mol
# GULP energy per Si atom -5571.940786 kJ/mol
# Density = 1.751984 g / cm^3
# Si number density = 17.559803 Si / 1000 Ang^3
#
#
#
# Elastic Constant Matrix: (Units=GPa)
#
#
# Indices 1 2 3 4 5 6 
#
# 1 53.8175 21.9462 33.6874 0.0000 0.0000 0.0000
# 2 21.9462 53.8175 33.6874 0.0000 0.0000 0.0000
# 3 33.6874 33.6874 82.9530 0.0000 0.0000 0.0000
# 4 0.0000 0.0000 0.0000 13.0346 0.0000 0.0000
# 5 0.0000 0.0000 0.0000 0.0000 13.0346 0.0000
# 6 0.0000 0.0000 0.0000 0.0000 0.0000 7.0675
#
#
#
# Elastic Compliance Matrix: (Units=1/GPa)
#
#
# Indices 1 2 3 4 5 6 
#
# 1 0.026018 -0.005358 -0.008390 0.000000 0.000000 0.000000
# 2 -0.005358 0.026018 -0.008390 0.000000 0.000000 0.000000
# 3 -0.008390 -0.008390 0.018870 0.000000 0.000000 0.000000
# 4 0.000000 0.000000 0.000000 0.076719 0.000000 0.000000
# 5 0.000000 0.000000 0.000000 0.000000 0.076719 0.000000
# 6 0.000000 0.000000 0.000000 0.000000 0.000000 0.141493
#
#
# Mechanical properties :
#
#
# Convention : Reuss Voigt Hill
#
# Bulk Modulus (GPa) = 37.55277 41.02556 39.28917
# Shear Modulus (GPa) = 11.93346 13.37845 12.65595
#
# Velocity S-wave (km/s) = 2.60972 2.76321 2.68756
# Velocity P-wave (km/s) = 5.52385 5.79608 5.66160
#
# Compressibility (1/GPa) = 0.02662920
#
# Stress axis : x y z
#
# Youngs Moduli (GPa) = 38.43476 38.43476 52.99556
#
# Poissons Ratio (x) = 0.20594 0.44464
# Poissons Ratio (y) = 0.20594 0.44464
# Poissons Ratio (z) = 0.32247 0.32247
#
# Static dielectric constant tensor:
#      x y z
#    x 1.625800 0.000000 0.000000 
#    y 0.000000 1.625800 0.000000 
#    z 0.000000 0.000000 1.641770 
# 
# From -- ./inp_files/9333.got.cif
#   From: 2010.05.17/outbox.cif.g08.bks.cpg/sg132_5_cif.got.tgz:9333.got - 2010.05.20 12:30:18.
