data_PCOD9567337
_publ_section_title
;
Structure prediction by ZEFSAII (Michael W. Deem and Ramdas Pophale) SiO2 
 PCOD9567337
Probable space group: P 42/M C M
;
_chemical_formula_sum "Si O2"
_cell_formula_units_Z 104
_cell_length_a 15.942291
_cell_length_b 15.942291
_cell_length_c 23.810691
_cell_angle_alpha 90.000000
_cell_angle_beta 90.000000
_cell_angle_gamma 90.000000
_cell_volume 6051.645276
_symmetry_space_group_name_H-M "P 42/M C M"
_symmetry_group_IT_number 132
_symmetry_cell_setting 'tetragonal'
loop_
_space_group_symop_operation_xyz
x,y,z
-y,x,1/2+z
-x,-y,z
y,-x,1/2+z
x,-y,1/2-z
-x,y,1/2-z
y,x,-z
-y,-x,-z
-x,-y,-z
y,-x,1/2-z
x,y,-z
-y,x,1/2-z
-x,y,1/2+z
x,-y,1/2+z
-y,-x,z
y,x,z
loop_
_atom_site_type_symbol
_atom_site_label
_atom_site_fract_x
_atom_site_fract_y
_atom_site_fract_z
Si Si1 0.730603 0.408693 0.380685
Si Si2 0.715335 0.975677 0.831913
Si Si3 0.153233 0.409063 0.228042
Si Si4 0.826233 0.312268 0.839241
Si Si5 0.589244 0.729692 0.565517
Si Si6 0.000000 0.135748 0.250000
Si Si7 0.281140 0.858302 0.563589
O O1 0.647826 0.352175 0.373685
O O2 0.778641 0.419384 0.321451
O O3 0.713933 0.497023 0.410098
O O4 0.794784 0.355383 0.419228
O O5 0.645357 0.923727 0.797008
O O6 0.802528 0.967862 0.798471
O O7 0.720485 0.932359 0.892039
O O8 0.697527 0.073820 0.838234
O O9 0.125514 0.500000 0.250000
O O10 0.192835 0.359931 0.280838
O O11 0.774921 0.225080 0.840076
O O12 0.795878 0.365787 0.892867
O O13 0.586122 0.756176 0.500000
O O14 0.646435 0.646435 0.568370
O O15 0.075378 0.075378 0.269022
O O16 0.291700 0.886991 0.500000
O O17 0.196591 0.803410 0.568084
#
# Coordination Sequence:
#
# PCOD9567337 Si02
#       7
#    16  16  16  16  16   8  16
#     4  10  20  36  61  86 110 145 189 234 285 343
#     4  11  22  35  59  86 112 148 190 233 280 346
#     4  11  21  38  59  86 117 147 183 232 288 343
#     4  11  22  38  58  81 115 154 188 232 283 335
#     4  10  22  39  57  80 112 151 193 235 280 335
#     4  11  22  36  55  82 116 148 187 240 288 337
#     4   9  19  36  57  83 115 147 184 234 285 333
#
# _framework density 17.185410000000001
#
# number of rings (size 3 to 8) (size 9 to 14) (size 15 to 20)
#    0.000    1.615    3.077    1.846    0.000    4.308 
#    0.000    0.769    0.000    4.154    0.000    5.385 
#    0.000    0.000    0.000    0.000    0.000    0.000 
#
# Total GULP energy -580497.140225 kJ/mol
# GULP energy per Si atom -5581.703271 kJ/mol
# Density = 1.714630 g / cm^3
# Si number density = 17.185410 Si / 1000 Ang^3
#
#
#
# Elastic Constant Matrix: (Units=GPa)
#
#
# Indices 1 2 3 4 5 6 
#
# 1 99.0103 42.1042 59.1024 0.0000 0.0000 0.0000
# 2 42.1042 99.0103 59.1024 0.0000 0.0000 0.0000
# 3 59.1024 59.1024 159.4633 0.0000 0.0000 0.0000
# 4 0.0000 0.0000 0.0000 25.1705 0.0000 0.0000
# 5 0.0000 0.0000 0.0000 0.0000 25.1705 0.0000
# 6 0.0000 0.0000 0.0000 0.0000 0.0000 14.8961
#
#
#
# Elastic Compliance Matrix: (Units=1/GPa)
#
#
# Indices 1 2 3 4 5 6 
#
# 1 0.013925 -0.003648 -0.003809 0.000000 0.000000 0.000000
# 2 -0.003648 0.013925 -0.003809 0.000000 0.000000 0.000000
# 3 -0.003809 -0.003809 0.009095 0.000000 0.000000 0.000000
# 4 0.000000 0.000000 0.000000 0.039729 0.000000 0.000000
# 5 0.000000 0.000000 0.000000 0.000000 0.039729 0.000000
# 6 0.000000 0.000000 0.000000 0.000000 0.000000 0.067132
#
#
# Mechanical properties :
#
#
# Convention : Reuss Voigt Hill
#
# Bulk Modulus (GPa) = 69.38377 75.34465 72.36421
# Shear Modulus (GPa) = 23.71125 26.19241 24.95183
#
# Velocity S-wave (km/s) = 3.71850 3.90822 3.81454
# Velocity P-wave (km/s) = 7.67448 8.01891 7.84859
#
# Compressibility (1/GPa) = 0.01441259
#
# Stress axis : x y z
#
# Youngs Moduli (GPa) = 71.81357 71.81357 109.95615
#
# Poissons Ratio (x) = 0.26197 0.41883
# Poissons Ratio (y) = 0.26197 0.41883
# Poissons Ratio (z) = 0.27354 0.27354
#
# Static dielectric constant tensor:
#      x y z
#    x 1.568930 0.000000 0.000000 
#    y 0.000000 1.568930 0.000000 
#    z 0.000000 0.000000 1.576020 
# 
# From -- ./inp_files/9156.got.cif
#   From: 2010.05.17/outbox.cif.g08.bks.cpg/sg132_5_cif.got.tgz:9156.got - 2010.05.20 12:30:18.
