data_PCOD9567742
_publ_section_title
;
Structure prediction by ZEFSAII (Michael W. Deem and Ramdas Pophale) SiO2 
 PCOD9567742
Probable space group: P 42/N B C
;
_chemical_formula_sum "Si O2"
_cell_formula_units_Z 72
_cell_length_a 14.148167
_cell_length_b 14.148167
_cell_length_c 16.436309
_cell_angle_alpha 90.000000
_cell_angle_beta 90.000000
_cell_angle_gamma 90.000000
_cell_volume 3290.066319
_symmetry_space_group_name_H-M "P 42/N B C"
_symmetry_group_IT_number 133
_space_group.IT_coordinate_system_code '2'
_symmetry_cell_setting 'tetragonal'
loop_
_space_group_symop_operation_xyz
x,y,z
1/2-y,x,1/2+z
1/2-x,1/2-y,z
y,1/2-x,1/2+z
x,1/2-y,-z
1/2-x,y,-z
y,x,1/2-z
1/2-y,1/2-x,1/2-z
-x,-y,-z
1/2+y,-x,1/2-z
1/2+x,1/2+y,-z
-y,1/2+x,1/2-z
-x,1/2+y,z
1/2+x,-y,z
-y,-x,1/2+z
1/2+y,1/2+x,1/2+z
loop_
_atom_site_type_symbol
_atom_site_label
_atom_site_fract_x
_atom_site_fract_y
_atom_site_fract_z
Si Si1 0.570748 0.946426 0.631804
Si Si2 0.489573 0.222533 0.264048
Si Si3 0.762080 0.139255 0.121127
Si Si4 0.136630 0.915250 0.510944
Si Si5 0.439406 0.060595 0.750000
O O1 0.591409 0.986177 0.541631
O O2 0.485360 0.004778 0.673839
O O3 0.558536 0.837911 0.662198
O O4 0.664061 0.977333 0.682415
O O5 0.598013 0.227606 0.290131
O O6 0.455050 0.328313 0.256397
O O7 0.750000 0.250000 0.117032
O O8 0.664220 0.107144 0.078319
O O9 0.856061 0.110538 0.070106
O O10 0.250000 0.927937 0.500000
#
# Coordination Sequence:
#
# PCOD9567742 Si02
#       5
#    16  16  16  16   8
#     4  10  23  38  58  93 122 160 216 259 318 382
#     4  10  21  38  59  86 123 163 215 260 313 377
#     4   9  18  35  59  89 121 165 197 256 334 380
#     4   9  18  36  59  88 129 158 203 260 318 385
#     4  10  20  39  58  85 124 160 210 268 306 380
#
# _framework density 21.884058
#
# number of rings (size 3 to 8) (size 9 to 14) (size 15 to 20)
#    0.000    2.667    2.222    1.333    0.000    9.778 
#    0.000    3.333    0.000    0.000    0.000    0.000 
#    0.000    0.000    0.000    0.000    0.000    0.000 
#
# Total GULP energy -401480.467430 kJ/mol
# GULP energy per Si atom -5576.117603 kJ/mol
# Density = 2.183425 g / cm^3
# Si number density = 21.884058 Si / 1000 Ang^3
#
#
#
# Elastic Constant Matrix: (Units=GPa)
#
#
# Indices 1 2 3 4 5 6 
#
# 1 105.5788 32.7452 27.7281 0.0000 0.0000 0.0000
# 2 32.7452 105.5801 27.7280 0.0000 0.0000 0.0000
# 3 27.7281 27.7280 21.5333 0.0000 0.0000 0.0000
# 4 0.0000 0.0000 0.0000 34.6607 0.0000 0.0000
# 5 0.0000 0.0000 0.0000 0.0000 34.6611 0.0000
# 6 0.0000 0.0000 0.0000 0.0000 0.0000 21.5481
#
#
#
# Elastic Compliance Matrix: (Units=1/GPa)
#
#
# Indices 1 2 3 4 5 6 
#
# 1 0.014337 0.000607 -0.019244 0.000000 0.000000 0.000000
# 2 0.000607 0.014337 -0.019243 0.000000 0.000000 0.000000
# 3 -0.019244 -0.019243 0.095999 0.000000 0.000000 0.000000
# 4 0.000000 0.000000 0.000000 0.028851 0.000000 0.000000
# 5 0.000000 0.000000 0.000000 0.000000 0.028851 0.000000
# 6 0.000000 0.000000 0.000000 0.000000 0.000000 0.046408
#
#
# Mechanical properties :
#
#
# Convention : Reuss Voigt Hill
#
# Bulk Modulus (GPa) = 20.44429 45.45499 32.94964
# Shear Modulus (GPa) = 15.58371 27.80669 21.69520
#
# Velocity S-wave (km/s) = 2.67142 3.56847 3.15202
# Velocity P-wave (km/s) = 4.34485 6.14772 5.32317
#
# Compressibility (1/GPa) = 0.04891340
#
# Stress axis : x y z
#
# Youngs Moduli (GPa) = 69.74830 69.74988 10.41674
#
# Poissons Ratio (x) = -0.04236 0.20046
# Poissons Ratio (y) = -0.04236 0.20045
# Poissons Ratio (z) = 1.34223 1.34223
#
# Static dielectric constant tensor:
#      x y z
#    x 1.830130 0.000000 0.000000 
#    y 0.000000 1.830130 0.000000 
#    z 0.000000 0.000000 1.908340 
# 
# From -- ./inp_files/5348.got.cif
#   From: 2010.05.17/outbox.cif.g08.bks.cpg/sg133_3_cif.got.tgz:5348.got - 2010.05.20 12:37:36.
