data_PCOD9567489
_publ_section_title
;
Structure prediction by ZEFSAII (Michael W. Deem and Ramdas Pophale) SiO2 
 PCOD9567489
Probable space group: P 42/M C M
;
_chemical_formula_sum "Si O2"
_cell_formula_units_Z 56
_cell_length_a 12.574947
_cell_length_b 12.574947
_cell_length_c 19.213772
_cell_angle_alpha 90.000000
_cell_angle_beta 90.000000
_cell_angle_gamma 90.000000
_cell_volume 3038.260164
_symmetry_space_group_name_H-M "P 42/M C M"
_symmetry_group_IT_number 132
_symmetry_cell_setting 'tetragonal'
loop_
_space_group_symop_operation_xyz
x,y,z
-y,x,1/2+z
-x,-y,z
y,-x,1/2+z
x,-y,1/2-z
-x,y,1/2-z
y,x,-z
-y,-x,-z
-x,-y,-z
y,-x,1/2-z
x,y,-z
-y,x,1/2-z
-x,y,1/2+z
x,-y,1/2+z
-y,-x,z
y,x,z
loop_
_atom_site_type_symbol
_atom_site_label
_atom_site_fract_x
_atom_site_fract_y
_atom_site_fract_z
Si Si1 0.998478 0.176000 0.082781
Si Si2 0.591866 0.408135 0.420160
Si Si3 0.729013 0.550588 0.325430
Si Si4 0.963310 0.617795 0.330663
O O1 0.893404 0.106597 0.101443
O O2 0.006846 0.284127 0.125389
O O3 0.993572 0.196655 0.000000
O O4 0.098270 0.098270 0.095596
O O5 0.500000 0.500000 0.420785
O O6 0.617324 0.382677 0.500000
O O7 0.691256 0.459576 0.379241
O O8 0.745644 0.500000 0.250000
O O9 0.632337 0.632337 0.321041
O O10 0.836550 0.612922 0.341476
O O11 0.000000 0.500000 0.352853
O O12 0.000000 0.629795 0.250000
#
# Coordination Sequence:
#
# PCOD9567489 Si02
#       4
#    16   8  16  16
#     4   9  20  41  66  89 115 153 201 251 305 359
#     4   9  20  36  58  90 118 146 201 252 283 347
#     4  11  20  35  60  83 115 162 201 239 299 352
#     4  11  23  39  56  87 126 156 195 248 297 361
#
# _framework density 18.431601000000001
#
# number of rings (size 3 to 8) (size 9 to 14) (size 15 to 20)
#    0.000    1.857    4.286    1.714    0.000    4.000 
#    2.571    4.286    0.000    0.000    0.000    0.000 
#    0.000    0.000    0.000    0.000    0.000    0.000 
#
# Total GULP energy -312400.234803 kJ/mol
# GULP energy per Si atom -5578.575621 kJ/mol
# Density = 1.838965 g / cm^3
# Si number density = 18.431601 Si / 1000 Ang^3
#
#
#
# Elastic Constant Matrix: (Units=GPa)
#
#
# Indices 1 2 3 4 5 6 
#
# 1 91.3568 4.5136 36.0650 0.0000 0.0000 0.0000
# 2 4.5136 91.3568 36.0650 0.0000 0.0000 0.0000
# 3 36.0650 36.0650 79.8467 0.0000 0.0000 0.0000
# 4 0.0000 0.0000 0.0000 23.1115 0.0000 0.0000
# 5 0.0000 0.0000 0.0000 0.0000 23.1115 0.0000
# 6 0.0000 0.0000 0.0000 0.0000 0.0000 15.7585
#
#
#
# Elastic Compliance Matrix: (Units=1/GPa)
#
#
# Indices 1 2 3 4 5 6 
#
# 1 0.013658 0.002143 -0.007137 0.000000 0.000000 0.000000
# 2 0.002143 0.013658 -0.007137 0.000000 0.000000 0.000000
# 3 -0.007137 -0.007137 0.018971 0.000000 0.000000 0.000000
# 4 0.000000 0.000000 0.000000 0.043269 0.000000 0.000000
# 5 0.000000 0.000000 0.000000 0.000000 0.043268 0.000000
# 6 0.000000 0.000000 0.000000 0.000000 0.000000 0.063458
#
#
# Mechanical properties :
#
#
# Convention : Reuss Voigt Hill
#
# Bulk Modulus (GPa) = 45.40338 46.20529 45.80433
# Shear Modulus (GPa) = 21.94105 24.79075 23.36590
#
# Velocity S-wave (km/s) = 3.45397 3.67142 3.56435
# Velocity P-wave (km/s) = 6.37130 6.56471 6.46873
#
# Compressibility (1/GPa) = 0.02202479
#
# Stress axis : x y z
#
# Youngs Moduli (GPa) = 73.21962 73.21960 52.71244
#
# Poissons Ratio (x) = -0.15688 0.37618
# Poissons Ratio (y) = -0.15688 0.37619
# Poissons Ratio (z) = 0.52254 0.52254
#
# Static dielectric constant tensor:
#      x y z
#    x 1.651950 0.000000 0.000000 
#    y 0.000000 1.651950 0.000000 
#    z 0.000000 0.000000 1.614680 
# 
# From -- ./inp_files/7288.got.cif
#   From: 2010.05.17/outbox.cif.g08.bks.cpg/sg132_4_cif.got.tgz:7288.got - 2010.05.20 12:30:18.
