data_PCOD9567293
_publ_section_title
;
Structure prediction by ZEFSAII (Michael W. Deem and Ramdas Pophale) SiO2 
 PCOD9567293
Probable space group: P 42/M C M
;
_chemical_formula_sum "Si O2"
_cell_formula_units_Z 96
_cell_length_a 15.593184
_cell_length_b 15.593184
_cell_length_c 18.592453
_cell_angle_alpha 90.000000
_cell_angle_beta 90.000000
_cell_angle_gamma 90.000000
_cell_volume 4520.706370
_symmetry_space_group_name_H-M "P 42/M C M"
_symmetry_group_IT_number 132
_symmetry_cell_setting 'tetragonal'
loop_
_space_group_symop_operation_xyz
x,y,z
-y,x,1/2+z
-x,-y,z
y,-x,1/2+z
x,-y,1/2-z
-x,y,1/2-z
y,x,-z
-y,-x,-z
-x,-y,-z
y,-x,1/2-z
x,y,-z
-y,x,1/2-z
-x,y,1/2+z
x,-y,1/2+z
-y,-x,z
y,x,z
loop_
_atom_site_type_symbol
_atom_site_label
_atom_site_fract_x
_atom_site_fract_y
_atom_site_fract_z
Si Si1 0.562467 0.930949 0.418280
Si Si2 0.813192 0.671068 0.783063
Si Si3 0.439852 0.301417 0.688316
Si Si4 0.806800 0.947546 0.182368
Si Si5 0.562160 0.769062 0.920046
Si Si6 0.896761 0.756705 0.586580
O O1 0.580533 0.965036 0.500000
O O2 0.500643 0.850372 0.424431
O O3 0.656091 0.901588 0.391331
O O4 0.500000 0.000000 0.379993
O O5 0.747624 0.747624 0.766513
O O6 0.786711 0.596109 0.726541
O O7 0.905089 0.716856 0.790274
O O8 0.790592 0.634837 0.862202
O O9 0.500000 0.340273 0.750000
O O10 0.358618 0.358618 0.672680
O O11 0.499051 0.296981 0.618665
O O12 0.870865 0.870865 0.162195
O O13 0.842458 0.000000 0.250000
O O14 0.794730 0.016019 0.119205
O O15 0.591966 0.747256 0.000000
O O16 0.895951 0.759547 0.500000
O O17 0.814478 0.814478 0.610731
#
# Coordination Sequence:
#
# PCOD9567293 Si02
#       6
#    16  16  16  16  16  16
#     4   9  18  33  54  81 115 152 189 234 290 353
#     4   9  20  39  59  81 115 159 202 243 297 365
#     4   9  19  36  57  81 116 159 201 245 297 364
#     4  11  24  40  61  87 114 152 201 252 301 351
#     4  10  20  34  57  89 120 150 192 249 304 355
#     4  10  22  39  59  85 119 159 199 244 305 371
#
# _framework density 21.235619
#
# number of rings (size 3 to 8) (size 9 to 14) (size 15 to 20)
#    0.000    2.333    0.000    1.500    2.333    5.000 
#    0.000    4.167    0.000    0.000    0.000    4.667 
#    0.000    0.000    0.000    0.000    0.000    0.000 
#
# Total GULP energy -534762.696638 kJ/mol
# GULP energy per Si atom -5570.444757 kJ/mol
# Density = 2.118729 g / cm^3
# Si number density = 21.235619 Si / 1000 Ang^3
#
#
#
# Elastic Constant Matrix: (Units=GPa)
#
#
# Indices 1 2 3 4 5 6 
#
# 1 77.3317 33.8379 1.8336 0.0000 0.0000 0.0000
# 2 33.8379 77.3317 1.8336 0.0000 0.0000 0.0000
# 3 1.8336 1.8336 68.8905 0.0000 0.0000 0.0000
# 4 0.0000 0.0000 0.0000 20.6671 0.0000 0.0000
# 5 0.0000 0.0000 0.0000 0.0000 20.6671 0.0000
# 6 0.0000 0.0000 0.0000 0.0000 0.0000 9.1799
#
#
#
# Elastic Compliance Matrix: (Units=1/GPa)
#
#
# Indices 1 2 3 4 5 6 
#
# 1 0.015997 -0.006994 -0.000240 0.000000 0.000000 0.000000
# 2 -0.006994 0.015997 -0.000240 0.000000 0.000000 0.000000
# 3 -0.000240 -0.000240 0.014529 0.000000 0.000000 0.000000
# 4 0.000000 0.000000 0.000000 0.048386 0.000000 0.000000
# 5 0.000000 0.000000 0.000000 0.000000 0.048386 0.000000
# 6 0.000000 0.000000 0.000000 0.000000 0.000000 0.108933
#
#
# Mechanical properties :
#
#
# Convention : Reuss Voigt Hill
#
# Bulk Modulus (GPa) = 31.66925 33.17378 32.42151
# Shear Modulus (GPa) = 18.00497 22.50610 20.25554
#
# Velocity S-wave (km/s) = 2.91497 3.25903 3.09179
# Velocity P-wave (km/s) = 5.12592 5.46053 5.29587
#
# Compressibility (1/GPa) = 0.03157638
#
# Stress axis : x y z
#
# Youngs Moduli (GPa) = 62.50987 62.50987 68.82999
#
# Poissons Ratio (x) = 0.43721 0.01649
# Poissons Ratio (y) = 0.43721 0.01649
# Poissons Ratio (z) = 0.01498 0.01498
#
# Static dielectric constant tensor:
#      x y z
#    x 1.724970 0.000000 0.000000 
#    y 0.000000 1.724970 0.000000 
#    z 0.000000 0.000000 1.809860 
# 
# From -- ./inp_files/7905.got.cif
#   From: 2010.05.17/outbox.cif.g08.bks.cpg/sg132_4_cif.got.tgz:7905.got - 2010.05.20 12:30:18.
