data_PCOD9567793
_publ_section_title
;
Structure prediction by ZEFSAII (Michael W. Deem and Ramdas Pophale) SiO2 
 PCOD9567793
Probable space group: P 42/N B C
;
_chemical_formula_sum "Si O2"
_cell_formula_units_Z 64
_cell_length_a 12.867794
_cell_length_b 12.867794
_cell_length_c 16.947647
_cell_angle_alpha 90.000000
_cell_angle_beta 90.000000
_cell_angle_gamma 90.000000
_cell_volume 2806.193465
_symmetry_space_group_name_H-M "P 42/N B C"
_symmetry_group_IT_number 133
_space_group.IT_coordinate_system_code '2'
_symmetry_cell_setting 'tetragonal'
loop_
_space_group_symop_operation_xyz
x,y,z
1/2-y,x,1/2+z
1/2-x,1/2-y,z
y,1/2-x,1/2+z
x,1/2-y,-z
1/2-x,y,-z
y,x,1/2-z
1/2-y,1/2-x,1/2-z
-x,-y,-z
1/2+y,-x,1/2-z
1/2+x,1/2+y,-z
-y,1/2+x,1/2-z
-x,1/2+y,z
1/2+x,-y,z
-y,-x,1/2+z
1/2+y,1/2+x,1/2+z
loop_
_atom_site_type_symbol
_atom_site_label
_atom_site_fract_x
_atom_site_fract_y
_atom_site_fract_z
Si Si1 0.327696 0.542386 0.110694
Si Si2 0.890228 0.427273 0.930890
Si Si3 0.102633 0.190396 0.082356
Si Si4 0.464636 0.115308 0.167438
O O1 0.211782 0.584155 0.122474
O O2 0.335379 0.414784 0.107841
O O3 0.410747 0.600444 0.165235
O O4 0.356836 0.570931 0.021106
O O5 0.932833 0.539125 0.904486
O O6 0.983532 0.347757 0.924400
O O7 0.092399 0.277050 0.149538
O O8 0.132340 0.250000 0.000000
O O9 0.427258 0.072743 0.250000
#
# Coordination Sequence:
#
# PCOD9567793 Si02
#       4
#    16  16  16  16
#     4  10  21  39  63  92 129 167 220 274 327 392
#     4  10  21  38  62  95 123 167 228 263 326 394
#     4  11  19  39  65  90 126 171 219 276 328 395
#     4  11  23  39  60  92 131 172 210 272 340 389
#
# _framework density 22.806694
#
# number of rings (size 3 to 8) (size 9 to 14) (size 15 to 20)
#    0.000    1.500    5.000    1.500    0.000    6.000 
#    0.000    1.250    0.000    6.000    0.000    0.000 
#    0.000    0.000    0.000    0.000    0.000    0.000 
#
# Total GULP energy -357234.874554 kJ/mol
# GULP energy per Si atom -5581.794915 kJ/mol
# Density = 2.275479 g / cm^3
# Si number density = 22.806694 Si / 1000 Ang^3
#
#
#
# Elastic Constant Matrix: (Units=GPa)
#
#
# Indices 1 2 3 4 5 6 
#
# 1 72.1265 -16.7414 25.9189 0.0000 0.0000 0.0000
# 2 -16.7414 72.1240 25.9198 0.0000 0.0000 0.0000
# 3 25.9189 25.9198 47.0710 0.0000 0.0000 0.0000
# 4 0.0000 0.0000 0.0000 26.5126 0.0000 0.0000
# 5 0.0000 0.0000 0.0000 0.0000 26.5132 0.0000
# 6 0.0000 0.0000 0.0000 0.0000 0.0000 9.5039
#
#
#
# Elastic Compliance Matrix: (Units=1/GPa)
#
#
# Indices 1 2 3 4 5 6 
#
# 1 0.024255 0.013003 -0.020516 0.000000 0.000000 0.000000
# 2 0.013003 0.024257 -0.020517 0.000000 0.000000 0.000000
# 3 -0.020516 -0.020517 0.043839 0.000000 0.000000 0.000000
# 4 0.000000 0.000000 0.000000 0.037718 0.000000 0.000000
# 5 0.000000 0.000000 0.000000 0.000000 0.037717 0.000000
# 6 0.000000 0.000000 0.000000 0.000000 0.000000 0.105220
#
#
# Mechanical properties :
#
#
# Convention : Reuss Voigt Hill
#
# Bulk Modulus (GPa) = 27.55486 29.05734 28.30610
# Shear Modulus (GPa) = 14.65583 22.92090 18.78836
#
# Velocity S-wave (km/s) = 2.53773 3.17362 2.87332
# Velocity P-wave (km/s) = 4.54916 5.11835 4.84213
#
# Compressibility (1/GPa) = 0.03629123
#
# Stress axis : x y z
#
# Youngs Moduli (GPa) = 41.22846 41.22600 22.81085
#
# Poissons Ratio (x) = -0.53606 0.46798
# Poissons Ratio (y) = -0.53609 0.46801
# Poissons Ratio (z) = 0.84583 0.84583
#
# Static dielectric constant tensor:
#      x y z
#    x 2.043030 0.000000 0.000000 
#    y 0.000000 2.044420 0.000000 
#    z 0.000000 0.000000 1.838510 
# 
# From -- ./inp_files/4162.got.cif
#   From: 2010.05.17/outbox.cif.g08.bks.cpg/sg133_3_cif.got.tgz:4162.got - 2010.05.20 12:37:36.
