data_PCOD9567700
_publ_section_title
;
Structure prediction by ZEFSAII (Michael W. Deem and Ramdas Pophale) SiO2 
 PCOD9567700
Probable space group: P 42/N B C
;
_chemical_formula_sum "Si O2"
_cell_formula_units_Z 56
_cell_length_a 13.017811
_cell_length_b 13.017811
_cell_length_c 13.633913
_cell_angle_alpha 90.000000
_cell_angle_beta 90.000000
_cell_angle_gamma 90.000000
_cell_volume 2310.449296
_symmetry_space_group_name_H-M "P 42/N B C"
_symmetry_group_IT_number 133
_space_group.IT_coordinate_system_code '2'
_symmetry_cell_setting 'tetragonal'
loop_
_space_group_symop_operation_xyz
x,y,z
1/2-y,x,1/2+z
1/2-x,1/2-y,z
y,1/2-x,1/2+z
x,1/2-y,-z
1/2-x,y,-z
y,x,1/2-z
1/2-y,1/2-x,1/2-z
-x,-y,-z
1/2+y,-x,1/2-z
1/2+x,1/2+y,-z
-y,1/2+x,1/2-z
-x,1/2+y,z
1/2+x,-y,z
-y,-x,1/2+z
1/2+y,1/2+x,1/2+z
loop_
_atom_site_type_symbol
_atom_site_label
_atom_site_fract_x
_atom_site_fract_y
_atom_site_fract_z
Si Si1 0.367345 0.955884 0.178564
Si Si2 0.611738 0.929333 0.417595
Si Si3 0.750000 0.033891 0.000000
Si Si4 0.333150 0.450190 0.629953
O O1 0.368999 0.078550 0.156672
O O2 0.332630 0.957145 0.291067
O O3 0.485010 0.926572 0.157989
O O4 0.299895 0.907368 0.092426
O O5 0.536354 0.837510 0.446688
O O6 0.723153 0.896923 0.378900
O O7 0.633732 0.986174 0.521598
#
# Coordination Sequence:
#
# PCOD9567700 Si02
#       4
#    16  16   8  16
#     4  10  21  36  58  85 115 150 196 245 300 366
#     4  10  21  38  59  83 120 155 193 251 303 364
#     4  10  20  35  58  87 114 154 196 245 312 365
#     4   9  20  36  56  84 114 148 192 244 301 354
#
# _framework density 24.237708999999999
#
# number of rings (size 3 to 8) (size 9 to 14) (size 15 to 20)
#    0.000    2.286    0.000    3.429    0.000   17.143 
#    0.000    5.714    0.000   24.857    0.000    0.000 
#    0.000    0.000    0.000    0.000    0.000    0.000 
#
# Total GULP energy -312191.483457 kJ/mol
# GULP energy per Si atom -5574.847919 kJ/mol
# Density = 2.418254 g / cm^3
# Si number density = 24.237709 Si / 1000 Ang^3
#
#
#
# Elastic Constant Matrix: (Units=GPa)
#
#
# Indices 1 2 3 4 5 6 
#
# 1 40.3823 20.6816 -0.6773 0.0000 0.0000 0.0000
# 2 20.6816 40.3823 -0.6773 0.0000 0.0000 0.0000
# 3 -0.6773 -0.6773 108.5709 0.0000 0.0000 0.0000
# 4 0.0000 0.0000 0.0000 18.0929 0.0000 0.0000
# 5 0.0000 0.0000 0.0000 0.0000 18.0929 0.0000
# 6 0.0000 0.0000 0.0000 0.0000 0.0000 6.8074
#
#
#
# Elastic Compliance Matrix: (Units=1/GPa)
#
#
# Indices 1 2 3 4 5 6 
#
# 1 0.033569 -0.017190 0.000102 0.000000 0.000000 0.000000
# 2 -0.017190 0.033569 0.000102 0.000000 0.000000 0.000000
# 3 0.000102 0.000102 0.009212 0.000000 0.000000 0.000000
# 4 0.000000 0.000000 0.000000 0.055270 0.000000 0.000000
# 5 0.000000 0.000000 0.000000 0.000000 0.055270 0.000000
# 6 0.000000 0.000000 0.000000 0.000000 0.000000 0.146899
#
#
# Mechanical properties :
#
#
# Convention : Reuss Voigt Hill
#
# Bulk Modulus (GPa) = 23.59735 25.33217 24.46476
# Shear Modulus (GPa) = 13.09285 19.93255 16.51270
#
# Velocity S-wave (km/s) = 2.32671 2.87082 2.61297
# Velocity P-wave (km/s) = 4.12008 4.63283 4.38395
#
# Compressibility (1/GPa) = 0.04237765
#
# Stress axis : x y z
#
# Youngs Moduli (GPa) = 29.78937 29.78937 108.55591
#
# Poissons Ratio (x) = 0.51209 -0.01109
# Poissons Ratio (y) = 0.51209 -0.01109
# Poissons Ratio (z) = -0.00304 -0.00304
#
# Static dielectric constant tensor:
#      x y z
#    x 1.980920 0.000000 0.000000 
#    y 0.000000 1.980920 0.000000 
#    z 0.000000 0.000000 2.126470 
# 
# From -- ./inp_files/4008.got.cif
#   From: 2010.05.17/outbox.cif.g08.bks.cpg/sg133_3_cif.got.tgz:4008.got - 2010.05.20 12:37:36.
