data_PCOD9567748
_publ_section_title
;
Structure prediction by ZEFSAII (Michael W. Deem and Ramdas Pophale) SiO2 
 PCOD9567748
Probable space group: P 42/N B C
;
_chemical_formula_sum "Si O2"
_cell_formula_units_Z 72
_cell_length_a 19.481087
_cell_length_b 19.481087
_cell_length_c 9.121592
_cell_angle_alpha 90.000000
_cell_angle_beta 90.000000
_cell_angle_gamma 90.000000
_cell_volume 3461.760471
_symmetry_space_group_name_H-M "P 42/N B C"
_symmetry_group_IT_number 133
_space_group.IT_coordinate_system_code '2'
_symmetry_cell_setting 'tetragonal'
loop_
_space_group_symop_operation_xyz
x,y,z
1/2-y,x,1/2+z
1/2-x,1/2-y,z
y,1/2-x,1/2+z
x,1/2-y,-z
1/2-x,y,-z
y,x,1/2-z
1/2-y,1/2-x,1/2-z
-x,-y,-z
1/2+y,-x,1/2-z
1/2+x,1/2+y,-z
-y,1/2+x,1/2-z
-x,1/2+y,z
1/2+x,-y,z
-y,-x,1/2+z
1/2+y,1/2+x,1/2+z
loop_
_atom_site_type_symbol
_atom_site_label
_atom_site_fract_x
_atom_site_fract_y
_atom_site_fract_z
Si Si1 0.395708 0.517590 0.944690
Si Si2 0.129570 0.512424 0.709923
Si Si3 0.009863 0.228162 0.745425
Si Si4 0.250000 0.120707 0.000000
Si Si5 0.640204 0.596020 0.474753
O O1 0.449836 0.571796 0.884819
O O2 0.325365 0.530639 0.856430
O O3 0.409589 0.437304 0.912644
O O4 0.390377 0.519804 0.120310
O O5 0.208764 0.536308 0.701229
O O6 0.136445 0.437945 0.634185
O O7 0.069419 0.257522 0.637961
O O8 0.049901 0.189591 0.875233
O O9 0.322961 0.158357 0.020758
#
# Coordination Sequence:
#
# PCOD9567748 Si02
#       5
#    16  16  16   8  16
#     4  11  23  40  66  96 131 170 222 277 337 398
#     4  12  23  41  65  98 132 172 223 280 338 393
#     4  11  22  43  63  94 135 174 221 279 340 398
#     4  10  20  40  63  88 132 179 220 272 330 386
#     4  11  23  39  65  95 132 178 227 276 331 407
#
# _framework density 20.798666000000001
#
# number of rings (size 3 to 8) (size 9 to 14) (size 15 to 20)
#    0.000    0.889    4.444    6.000    0.000    1.778 
#    0.000    2.222    0.000   11.333    0.000    3.111 
#    0.000    0.000    0.000    0.000    0.000    0.000 
#
# Total GULP energy -402053.151806 kJ/mol
# GULP energy per Si atom -5584.071553 kJ/mol
# Density = 2.075133 g / cm^3
# Si number density = 20.798666 Si / 1000 Ang^3
#
#
#
# Elastic Constant Matrix: (Units=GPa)
#
#
# Indices 1 2 3 4 5 6 
#
# 1 90.4099 47.0559 55.8254 0.0000 0.0000 0.0000
# 2 47.0559 90.4099 55.8254 0.0000 0.0000 0.0000
# 3 55.8254 55.8254 156.5101 0.0000 0.0000 0.0000
# 4 0.0000 0.0000 0.0000 35.4296 0.0000 0.0000
# 5 0.0000 0.0000 0.0000 0.0000 35.4296 0.0000
# 6 0.0000 0.0000 0.0000 0.0000 0.0000 1.2193
#
#
#
# Elastic Compliance Matrix: (Units=1/GPa)
#
#
# Indices 1 2 3 4 5 6 
#
# 1 0.016654 -0.006412 -0.003653 0.000000 0.000000 0.000000
# 2 -0.006412 0.016654 -0.003653 0.000000 0.000000 0.000000
# 3 -0.003653 -0.003653 0.008995 0.000000 0.000000 0.000000
# 4 0.000000 0.000000 0.000000 0.028225 0.000000 0.000000
# 5 0.000000 0.000000 0.000000 0.000000 0.028225 0.000000
# 6 0.000000 0.000000 0.000000 0.000000 0.000000 0.820170
#
#
# Mechanical properties :
#
#
# Convention : Reuss Voigt Hill
#
# Bulk Modulus (GPa) = 67.26624 72.74926 70.00775
# Shear Modulus (GPa) = 5.25588 26.32389 15.78989
#
# Velocity S-wave (km/s) = 1.59139 3.56146 2.75831
# Velocity P-wave (km/s) = 5.98235 7.20873 6.62398
#
# Compressibility (1/GPa) = 0.01486630
#
# Stress axis : x y z
#
# Youngs Moduli (GPa) = 60.04651 60.04651 111.16828
#
# Poissons Ratio (x) = 0.38503 0.40610
# Poissons Ratio (y) = 0.38503 0.40610
# Poissons Ratio (z) = 0.21935 0.21935
#
# Static dielectric constant tensor:
#      x y z
#    x 1.806420 0.000000 0.000000 
#    y 0.000000 1.806420 0.000000 
#    z 0.000000 0.000000 1.793300 
# 
# From -- ./inp_files/1675.got.cif
#   From: 2010.05.17/outbox.cif.g08.bks.cpg/sg133_1_cif.got.tgz:1675.got - 2010.05.20 12:37:36.
