data_PCOD9567964
_publ_section_title
;
Structure prediction by ZEFSAII (Michael W. Deem and Ramdas Pophale) SiO2 
 PCOD9567964
Probable space group: P 42/N B C
;
_chemical_formula_sum "Si O2"
_cell_formula_units_Z 112
_cell_length_a 15.759730
_cell_length_b 15.759730
_cell_length_c 23.460129
_cell_angle_alpha 90.000000
_cell_angle_beta 90.000000
_cell_angle_gamma 90.000000
_cell_volume 5826.770883
_symmetry_space_group_name_H-M "P 42/N B C"
_symmetry_group_IT_number 133
_space_group.IT_coordinate_system_code '2'
_symmetry_cell_setting 'tetragonal'
loop_
_space_group_symop_operation_xyz
x,y,z
1/2-y,x,1/2+z
1/2-x,1/2-y,z
y,1/2-x,1/2+z
x,1/2-y,-z
1/2-x,y,-z
y,x,1/2-z
1/2-y,1/2-x,1/2-z
-x,-y,-z
1/2+y,-x,1/2-z
1/2+x,1/2+y,-z
-y,1/2+x,1/2-z
-x,1/2+y,z
1/2+x,-y,z
-y,-x,1/2+z
1/2+y,1/2+x,1/2+z
loop_
_atom_site_type_symbol
_atom_site_label
_atom_site_fract_x
_atom_site_fract_y
_atom_site_fract_z
Si Si1 0.838554 0.902582 0.691007
Si Si2 0.907885 0.929807 0.092002
Si Si3 0.382997 0.559300 0.376523
Si Si4 0.466747 0.352717 0.790828
Si Si5 0.843685 0.775809 0.589161
Si Si6 0.655110 0.941708 0.478607
Si Si7 0.831564 0.354255 0.768712
O O1 0.877365 0.877365 0.750000
O O2 0.745567 0.941784 0.700895
O O3 0.834198 0.820388 0.650698
O O4 0.894637 0.975310 0.661920
O O5 0.957086 0.891802 0.146355
O O6 0.811361 0.895095 0.090890
O O7 0.904664 0.029475 0.100805
O O8 0.954737 0.902696 0.033946
O O9 0.339077 0.517466 0.432228
O O10 0.344738 0.627392 0.331813
O O11 0.399460 0.399460 0.750000
O O12 0.558746 0.361202 0.761360
O O13 0.750000 0.750000 0.569543
O O14 0.875963 0.853624 0.550428
O O15 0.750000 0.926782 0.500000
O O16 0.856485 0.270934 0.732400
#
# Coordination Sequence:
#
# PCOD9567964 Si02
#       7
#    16  16  16  16  16  16  16
#     4  11  24  38  60  97 141 176 220 278 340 412
#     4  12  23  38  66  98 137 180 219 274 342 406
#     4  11  25  44  62  96 135 177 234 274 337 408
#     4  12  23  39  66 100 134 175 219 284 348 409
#     4  11  21  38  63 100 135 177 220 274 347 420
#     4  11  23  42  70  97 136 179 225 282 341 417
#     4  11  25  45  69  91 130 183 232 280 340 415
#
# _framework density 19.221623999999998
#
# number of rings (size 3 to 8) (size 9 to 14) (size 15 to 20)
#    0.000    0.714    5.714    2.571    2.000    0.000 
#    2.571    0.000    0.000    0.000    0.000    0.000 
#    0.000    0.000    0.000    0.000    0.000    0.000 
#
# Total GULP energy -625268.949602 kJ/mol
# GULP energy per Si atom -5582.758479 kJ/mol
# Density = 1.917788 g / cm^3
# Si number density = 19.221624 Si / 1000 Ang^3
#
#
#
# Elastic Constant Matrix: (Units=GPa)
#
#
# Indices 1 2 3 4 5 6 
#
# 1 80.8132 25.8418 30.9776 0.0000 0.0000 0.0000
# 2 25.8418 80.8132 30.9776 0.0000 0.0000 0.0000
# 3 30.9776 30.9776 137.7394 0.0000 0.0000 0.0000
# 4 0.0000 0.0000 0.0000 22.4907 0.0000 0.0000
# 5 0.0000 0.0000 0.0000 0.0000 22.4907 0.0000
# 6 0.0000 0.0000 0.0000 0.0000 0.0000 32.5223
#
#
#
# Elastic Compliance Matrix: (Units=1/GPa)
#
#
# Indices 1 2 3 4 5 6 
#
# 1 0.014488 -0.003703 -0.002426 0.000000 0.000000 0.000000
# 2 -0.003703 0.014488 -0.002426 0.000000 0.000000 0.000000
# 3 -0.002426 -0.002426 0.008351 0.000000 0.000000 0.000000
# 4 0.000000 0.000000 0.000000 0.044463 0.000000 0.000000
# 5 0.000000 0.000000 0.000000 0.000000 0.044463 0.000000
# 6 0.000000 0.000000 0.000000 0.000000 0.000000 0.030748
#
#
# Mechanical properties :
#
#
# Convention : Reuss Voigt Hill
#
# Bulk Modulus (GPa) = 49.45862 52.77332 51.11597
# Shear Modulus (GPa) = 27.64735 29.60534 28.62635
#
# Velocity S-wave (km/s) = 3.79667 3.92881 3.86330
# Velocity P-wave (km/s) = 6.70866 6.93509 6.82282
#
# Compressibility (1/GPa) = 0.02021892
#
# Stress axis : x y z
#
# Youngs Moduli (GPa) = 69.02196 69.02196 119.74473
#
# Poissons Ratio (x) = 0.25560 0.29045
# Poissons Ratio (y) = 0.25560 0.29045
# Poissons Ratio (z) = 0.16742 0.16742
#
# Static dielectric constant tensor:
#      x y z
#    x 1.568220 0.000000 0.000000 
#    y 0.000000 1.568220 0.000000 
#    z 0.000000 0.000000 1.694990 
# 
# From -- ./inp_files/7236.got.cif
#   From: 2010.05.17/outbox.cif.g08.bks.cpg/sg133_4_cif.got.tgz:7236.got - 2010.05.20 12:37:36.
