data_PCOD9567478
_publ_section_title
;
Structure prediction by ZEFSAII (Michael W. Deem and Ramdas Pophale) SiO2 
 PCOD9567478
Probable space group: P 42/M C M
;
_chemical_formula_sum "Si O2"
_cell_formula_units_Z 84
_cell_length_a 12.373873
_cell_length_b 12.373873
_cell_length_c 28.588851
_cell_angle_alpha 90.000000
_cell_angle_beta 90.000000
_cell_angle_gamma 90.000000
_cell_volume 4377.317111
_symmetry_space_group_name_H-M "P 42/M C M"
_symmetry_group_IT_number 132
_symmetry_cell_setting 'tetragonal'
loop_
_space_group_symop_operation_xyz
x,y,z
-y,x,1/2+z
-x,-y,z
y,-x,1/2+z
x,-y,1/2-z
-x,y,1/2-z
y,x,-z
-y,-x,-z
-x,-y,-z
y,-x,1/2-z
x,y,-z
-y,x,1/2-z
-x,y,1/2+z
x,-y,1/2+z
-y,-x,z
y,x,z
loop_
_atom_site_type_symbol
_atom_site_label
_atom_site_fract_x
_atom_site_fract_y
_atom_site_fract_z
Si Si1 0.628062 0.021679 0.804167
Si Si2 0.488137 0.744292 0.396600
Si Si3 0.500000 0.500000 0.927054
Si Si4 0.280406 0.895012 0.609906
Si Si5 0.927982 0.610094 0.446697
Si Si6 0.253917 0.428901 0.295330
O O1 0.641172 0.149734 0.809570
O O2 0.500000 0.000000 0.813851
O O3 0.650133 0.000000 0.750000
O O4 0.693529 0.946219 0.839249
O O5 0.498155 0.633237 0.424125
O O6 0.374950 0.807633 0.401240
O O7 0.580278 0.826134 0.414729
O O8 0.502495 0.718859 0.341446
O O9 0.167907 0.832094 0.607901
O O10 0.298534 0.994631 0.574632
O O11 0.896544 0.632260 0.500000
O O12 0.000000 0.500000 0.446330
O O13 0.224655 0.500000 0.250000
O O14 0.354306 0.354306 0.282905
#
# Coordination Sequence:
#
# PCOD9567478 Si02
#       6
#    16  16   4  16  16  16
#     4  11  19  36  56  80 119 167 222 257 308 386
#     4  11  21  37  55  84 131 172 202 252 317 393
#     4  12  24  36  58  92 138 168 198 256 324 400
#     4  11  20  34  63  92 120 161 214 274 325 370
#     4   9  19  38  62  85 115 163 215 265 321 378
#     4  12  24  35  57  86 124 167 210 253 308 379
#
# _framework density 19.189837000000001
#
# number of rings (size 3 to 8) (size 9 to 14) (size 15 to 20)
#    0.000    1.143    7.619    0.571    1.333    2.857 
#    0.000    1.429    0.000    0.571    0.000    1.333 
#    0.000    3.048    0.000    0.000    0.000    0.000 
#
# Total GULP energy -467789.854367 kJ/mol
# GULP energy per Si atom -5568.926838 kJ/mol
# Density = 1.914616 g / cm^3
# Si number density = 19.189837 Si / 1000 Ang^3
#
#
#
# Elastic Constant Matrix: (Units=GPa)
#
#
# Indices 1 2 3 4 5 6 
#
# 1 96.5936 17.0931 28.8601 0.0000 0.0000 0.0000
# 2 17.0931 96.5936 28.8601 0.0000 0.0000 0.0000
# 3 28.8601 28.8601 99.6909 0.0000 0.0000 0.0000
# 4 0.0000 0.0000 0.0000 -7.6220 0.0000 0.0000
# 5 0.0000 0.0000 0.0000 0.0000 -7.6220 0.0000
# 6 0.0000 0.0000 0.0000 0.0000 0.0000 38.7176
#
#
#
# Elastic Compliance Matrix: (Units=1/GPa)
#
#
# Indices 1 2 3 4 5 6 
#
# 1 0.011445 -0.001133 -0.002985 0.000000 0.000000 0.000000
# 2 -0.001133 0.011445 -0.002985 0.000000 0.000000 0.000000
# 3 -0.002985 -0.002985 0.011759 0.000000 0.000000 0.000000
# 4 0.000000 0.000000 0.000000 -0.131199 0.000000 0.000000
# 5 0.000000 0.000000 0.000000 0.000000 -0.131199 0.000000
# 6 0.000000 0.000000 0.000000 0.000000 0.000000 0.025828
#
#
# Mechanical properties :
#
#
# Convention : Reuss Voigt Hill
#
# Bulk Modulus (GPa) = 48.91874 49.16718 49.04296
# Shear Modulus (GPa) = -27.63968 19.23236 -4.20366
#
# Velocity S-wave (km/s) = -3.79928 3.16921 -1.48166
# Velocity P-wave (km/s) = 2.51023 6.25052 4.76289
#
# Compressibility (1/GPa) = 0.02044206
#
# Stress axis : x y z
#
# Youngs Moduli (GPa) = 87.37335 87.37335 85.03822
#
# Poissons Ratio (x) = 0.09903 0.25386
# Poissons Ratio (y) = 0.09903 0.25386
# Poissons Ratio (z) = 0.26083 0.26083
#
# Static dielectric constant tensor:
#      x y z
#    x 1.671460 0.000000 0.000000 
#    y 0.000000 1.671460 0.000000 
#    z 0.000000 0.000000 1.693950 
# 
# From -- ./inp_files/10749.got.cif
#   From: 2010.05.17/outbox.cif.g08.bks.cpg/sg132_6_cif.got.tgz:10749.got - 2010.05.20 12:30:18.
