data_PCOD9567745
_publ_section_title
;
Structure prediction by ZEFSAII (Michael W. Deem and Ramdas Pophale) SiO2 
 PCOD9567745
Probable space group: P 42/N B C
;
_chemical_formula_sum "Si O2"
_cell_formula_units_Z 120
_cell_length_a 27.442471
_cell_length_b 27.442471
_cell_length_c 8.014154
_cell_angle_alpha 90.000000
_cell_angle_beta 90.000000
_cell_angle_gamma 90.000000
_cell_volume 6035.372941
_symmetry_space_group_name_H-M "P 42/N B C"
_symmetry_group_IT_number 133
_space_group.IT_coordinate_system_code '2'
_symmetry_cell_setting 'tetragonal'
loop_
_space_group_symop_operation_xyz
x,y,z
1/2-y,x,1/2+z
1/2-x,1/2-y,z
y,1/2-x,1/2+z
x,1/2-y,-z
1/2-x,y,-z
y,x,1/2-z
1/2-y,1/2-x,1/2-z
-x,-y,-z
1/2+y,-x,1/2-z
1/2+x,1/2+y,-z
-y,1/2+x,1/2-z
-x,1/2+y,z
1/2+x,-y,z
-y,-x,1/2+z
1/2+y,1/2+x,1/2+z
loop_
_atom_site_type_symbol
_atom_site_label
_atom_site_fract_x
_atom_site_fract_y
_atom_site_fract_z
Si Si1 0.360268 0.412991 0.001998
Si Si2 0.280677 0.570331 0.172096
Si Si3 0.015132 0.270920 0.164052
Si Si4 0.234157 0.675632 0.691208
Si Si5 0.577004 0.750000 0.500000
Si Si6 0.053640 0.977984 0.498349
Si Si7 0.452148 0.372666 0.870945
Si Si8 0.517202 0.384371 0.340855
O O1 0.303463 0.397479 0.030054
O O2 0.407766 0.377340 0.005345
O O3 0.363471 0.429016 0.809200
O O4 0.372662 0.461785 0.104645
O O5 0.251469 0.537547 0.304774
O O6 0.284397 0.625467 0.232798
O O7 0.333436 0.545424 0.159074
O O8 0.250000 0.567953 0.000000
O O9 0.044334 0.259482 0.334658
O O10 0.012506 0.326956 0.113412
O O11 0.041017 0.250000 0.000000
O O12 0.250000 0.669916 0.500000
O O13 0.194585 0.718486 0.708241
O O14 0.085711 0.984263 0.332139
O O15 0.045720 0.921543 0.538499
O O16 0.081445 0.012458 0.629183
O O17 0.000000 0.000000 0.500000
#
# Coordination Sequence:
#
# PCOD9567745 Si02
#       8
#    16  16  16  16   8  16  16  16
#     4  10  20  39  62  88 122 169 217 264 333 389
#     4  12  24  43  68  94 128 172 222 294 349 414
#     4  11  21  39  62  92 126 169 218 275 332 391
#     4  11  24  44  67  93 122 163 218 287 357 422
#     4  10  20  40  62  86 127 165 210 272 320 392
#     4  12  25  40  59  89 133 175 220 269 325 418
#     4  10  22  37  62  91 125 169 220 271 327 405
#     4  12  25  40  61  88 127 176 221 269 338 401
#
# _framework density 19.882781000000001
#
# number of rings (size 3 to 8) (size 9 to 14) (size 15 to 20)
#    0.000    0.933    3.333    4.800    1.867    3.200 
#    0.000    0.000    0.000    0.000    0.000    0.467 
#    0.000    4.267    0.000    0.400    0.000    0.000 
#
# Total GULP energy -669376.449756 kJ/mol
# GULP energy per Si atom -5578.137081 kJ/mol
# Density = 1.983753 g / cm^3
# Si number density = 19.882781 Si / 1000 Ang^3
#
#
#
# Elastic Constant Matrix: (Units=GPa)
#
#
# Indices 1 2 3 4 5 6 
#
# 1 133.0109 49.5759 23.9564 0.0000 0.0000 0.0000
# 2 49.5759 133.0109 23.9564 0.0000 0.0000 0.0000
# 3 23.9564 23.9564 87.0982 0.0000 0.0000 0.0000
# 4 0.0000 0.0000 0.0000 13.4262 0.0000 0.0000
# 5 0.0000 0.0000 0.0000 0.0000 13.4262 0.0000
# 6 0.0000 0.0000 0.0000 0.0000 0.0000 -11.8050
#
#
#
# Elastic Compliance Matrix: (Units=1/GPa)
#
#
# Indices 1 2 3 4 5 6 
#
# 1 0.008944 -0.003041 -0.001624 0.000000 0.000000 0.000000
# 2 -0.003041 0.008944 -0.001624 0.000000 0.000000 0.000000
# 3 -0.001624 -0.001624 0.012374 0.000000 0.000000 0.000000
# 4 0.000000 0.000000 0.000000 0.074481 0.000000 0.000000
# 5 0.000000 0.000000 0.000000 0.000000 0.074481 0.000000
# 6 0.000000 0.000000 0.000000 0.000000 0.000000 -0.084710
#
#
# Mechanical properties :
#
#
# Convention : Reuss Voigt Hill
#
# Bulk Modulus (GPa) = 56.54236 60.89969 58.72103
# Shear Modulus (GPa) = 44.25284 20.05158 32.15221
#
# Velocity S-wave (km/s) = 4.72284 3.17912 4.02567
# Velocity P-wave (km/s) = 7.63150 6.64617 7.15582
#
# Compressibility (1/GPa) = 0.01768585
#
# Stress axis : x y z
#
# Youngs Moduli (GPa) = 111.80506 111.80506 80.81181
#
# Poissons Ratio (x) = 0.34003 0.13121
# Poissons Ratio (y) = 0.34003 0.13121
# Poissons Ratio (z) = 0.18153 0.18153
#
# Static dielectric constant tensor:
#      x y z
#    x -9.844120 0.000000 0.000000 
#    y 0.000000 -9.844120 0.000000 
#    z 0.000000 0.000000 1.768830 
# 
# From -- ./inp_files/2094.got.cif
#   From: 2010.05.17/outbox.cif.g08.bks.cpg/sg133_2_cif.got.tgz:2094.got - 2010.05.20 12:37:36.
