data_PCOD9567367
_publ_section_title
;
Structure prediction by ZEFSAII (Michael W. Deem and Ramdas Pophale) SiO2 
 PCOD9567367
Probable space group: P 42/M C M
;
_chemical_formula_sum "Si O2"
_cell_formula_units_Z 112
_cell_length_a 15.232242
_cell_length_b 15.232242
_cell_length_c 24.056130
_cell_angle_alpha 90.000000
_cell_angle_beta 90.000000
_cell_angle_gamma 90.000000
_cell_volume 5581.532062
_symmetry_space_group_name_H-M "P 42/M C M"
_symmetry_group_IT_number 132
_symmetry_cell_setting 'tetragonal'
loop_
_space_group_symop_operation_xyz
x,y,z
-y,x,1/2+z
-x,-y,z
y,-x,1/2+z
x,-y,1/2-z
-x,y,1/2-z
y,x,-z
-y,-x,-z
-x,-y,-z
y,-x,1/2-z
x,y,-z
-y,x,1/2-z
-x,y,1/2+z
x,-y,1/2+z
-y,-x,z
y,x,z
loop_
_atom_site_type_symbol
_atom_site_label
_atom_site_fract_x
_atom_site_fract_y
_atom_site_fract_z
Si Si1 0.359408 0.496570 0.932721
Si Si2 0.243492 0.899549 0.563739
Si Si3 0.899021 0.511469 0.669899
Si Si4 0.422746 0.171125 0.434782
Si Si5 0.100359 0.238887 0.397437
Si Si6 0.330124 0.804641 0.668077
Si Si7 0.097028 0.691604 0.225131
O O1 0.429060 0.570941 0.915682
O O2 0.403221 0.403221 0.915901
O O3 0.263351 0.531796 0.916950
O O4 0.357780 0.495068 0.000000
O O5 0.274828 0.886954 0.500000
O O6 0.148374 0.851627 0.567270
O O7 0.301414 0.850357 0.610247
O O8 0.242966 0.002346 0.578322
O O9 0.899950 0.532427 0.604479
O O10 0.834516 0.429955 0.677664
O O11 0.868454 0.598240 0.701833
O O12 0.000000 0.500000 0.686977
O O13 0.436128 0.159545 0.500000
O O14 0.319627 0.159102 0.421073
O O15 0.149336 0.149336 0.411796
O O16 0.095902 0.249770 0.330347
O O17 0.294926 0.705075 0.666210
O O18 0.282276 0.847883 0.721228
O O19 0.000000 0.681929 0.250000
#
# Coordination Sequence:
#
# PCOD9567367 Si02
#       7
#    16  16  16  16  16  16  16
#     4   8  14  27  48  71  98 140 189 229 275 341
#     4  10  22  39  57  80 115 159 202 242 297 367
#     4  11  22  35  57  85 111 152 199 243 296 361
#     4  10  21  34  50  78 117 154 191 241 299 351
#     4  11  22  36  58  87 116 149 198 254 306 359
#     4  11  22  38  61  88 116 150 193 251 307 351
#     4  11  20  39  64  86 112 149 196 248 304 363
#
# _framework density 20.066175000000001
#
# number of rings (size 3 to 8) (size 9 to 14) (size 15 to 20)
#    0.000    1.714    2.857    3.000    0.000    3.429 
#    0.000    0.714    0.000    0.000    0.000    0.000 
#    0.000    5.714    0.000    0.000    0.000    0.000 
#
# Total GULP energy -624112.684667 kJ/mol
# GULP energy per Si atom -5572.434685 kJ/mol
# Density = 2.002050 g / cm^3
# Si number density = 20.066175 Si / 1000 Ang^3
#
#
#
# Elastic Constant Matrix: (Units=GPa)
#
#
# Indices 1 2 3 4 5 6 
#
# 1 71.0023 31.9299 13.3959 0.0000 0.0000 0.0000
# 2 31.9299 71.0023 13.3959 0.0000 0.0000 0.0000
# 3 13.3959 13.3959 127.3537 0.0000 0.0000 0.0000
# 4 0.0000 0.0000 0.0000 8.5253 0.0000 0.0000
# 5 0.0000 0.0000 0.0000 0.0000 8.5253 0.0000
# 6 0.0000 0.0000 0.0000 0.0000 0.0000 22.4373
#
#
#
# Elastic Compliance Matrix: (Units=1/GPa)
#
#
# Indices 1 2 3 4 5 6 
#
# 1 0.017791 -0.007802 -0.001051 0.000000 0.000000 0.000000
# 2 -0.007802 0.017791 -0.001051 0.000000 0.000000 0.000000
# 3 -0.001051 -0.001051 0.008073 0.000000 0.000000 0.000000
# 4 0.000000 0.000000 0.000000 0.117298 0.000000 0.000000
# 5 0.000000 0.000000 0.000000 0.000000 0.117298 0.000000
# 6 0.000000 0.000000 0.000000 0.000000 0.000000 0.044569
#
#
# Mechanical properties :
#
#
# Convention : Reuss Voigt Hill
#
# Bulk Modulus (GPa) = 41.93272 42.97796 42.45534
# Shear Modulus (GPa) = 14.26218 21.94001 18.10110
#
# Velocity S-wave (km/s) = 2.66890 3.31022 3.00671
# Velocity P-wave (km/s) = 5.51724 6.00622 5.76691
#
# Compressibility (1/GPa) = 0.02384773
#
# Stress axis : x y z
#
# Youngs Moduli (GPa) = 56.20810 56.20810 123.86691
#
# Poissons Ratio (x) = 0.43856 0.13014
# Poissons Ratio (y) = 0.43856 0.13014
# Poissons Ratio (z) = 0.05906 0.05906
#
# Static dielectric constant tensor:
#      x y z
#    x 1.744120 0.000000 0.000000 
#    y 0.000000 1.744120 0.000000 
#    z 0.000000 0.000000 1.733850 
# 
# From -- ./inp_files/9125.got.cif
#   From: 2010.05.17/outbox.cif.g08.bks.cpg/sg132_5_cif.got.tgz:9125.got - 2010.05.20 12:30:18.
