data_PCOD9567353
_publ_section_title
;
Structure prediction by ZEFSAII (Michael W. Deem and Ramdas Pophale) SiO2 
 PCOD9567353
Probable space group: P 42/M C M
;
_chemical_formula_sum "Si O2"
_cell_formula_units_Z 52
_cell_length_a 14.033824
_cell_length_b 14.033824
_cell_length_c 13.917660
_cell_angle_alpha 90.000000
_cell_angle_beta 90.000000
_cell_angle_gamma 90.000000
_cell_volume 2741.058309
_symmetry_space_group_name_H-M "P 42/M C M"
_symmetry_group_IT_number 132
_symmetry_cell_setting 'tetragonal'
loop_
_space_group_symop_operation_xyz
x,y,z
-y,x,1/2+z
-x,-y,z
y,-x,1/2+z
x,-y,1/2-z
-x,y,1/2-z
y,x,-z
-y,-x,-z
-x,-y,-z
y,-x,1/2-z
x,y,-z
-y,x,1/2-z
-x,y,1/2+z
x,-y,1/2+z
-y,-x,z
y,x,z
loop_
_atom_site_type_symbol
_atom_site_label
_atom_site_fract_x
_atom_site_fract_y
_atom_site_fract_z
Si Si1 0.397390 0.602610 0.500000
Si Si2 0.580092 0.265404 0.000000
Si Si3 0.142689 0.857312 0.612442
Si Si4 0.593279 0.848763 0.304802
Si Si5 0.703719 0.703719 0.826688
Si Si6 0.000000 0.251567 0.250000
O O1 0.352226 0.496315 0.500000
O O2 0.353145 0.646856 0.404980
O O3 0.569724 0.197378 0.907372
O O4 0.683413 0.316588 0.000000
O O5 0.123060 0.876941 0.500000
O O6 0.223971 0.776030 0.621100
O O7 0.054493 0.813612 0.672333
O O8 0.500000 0.886593 0.250000
O O9 0.633403 0.763593 0.239481
O O10 0.677914 0.926229 0.304188
#
# Coordination Sequence:
#
# PCOD9567353 Si02
#       6
#     4   8   8  16   8   8
#     4  12  21  38  62  94 128 175 230 250 306 383
#     4  12  25  38  64  96 135 179 222 261 323 380
#     4  10  22  43  68  95 126 163 210 263 334 411
#     4  11  22  41  62  93 132 169 219 275 320 386
#     4  10  20  38  61  85 129 175 208 256 323 374
#     4  10  25  43  66  96 128 166 216 273 337 398
#
# _framework density 18.970775
#
# number of rings (size 3 to 8) (size 9 to 14) (size 15 to 20)
#    0.000    1.231    5.385    0.692    2.154    0.308 
#    0.000    3.077    0.000    0.000    0.000    0.000 
#    0.000    0.000    0.000    0.000    0.000    0.000 
#
# Total GULP energy -290157.394892 kJ/mol
# GULP energy per Si atom -5579.949902 kJ/mol
# Density = 1.892760 g / cm^3
# Si number density = 18.970775 Si / 1000 Ang^3
#
#
#
# Elastic Constant Matrix: (Units=GPa)
#
#
# Indices 1 2 3 4 5 6 
#
# 1 104.1709 57.9471 75.3023 0.0000 0.0000 0.0000
# 2 57.9471 104.1732 75.3028 0.0000 0.0000 0.0000
# 3 75.3023 75.3028 159.9433 0.0000 0.0000 0.0000
# 4 0.0000 0.0000 0.0000 16.6382 0.0000 0.0000
# 5 0.0000 0.0000 0.0000 0.0000 16.6363 0.0000
# 6 0.0000 0.0000 0.0000 0.0000 0.0000 43.1608
#
#
#
# Elastic Compliance Matrix: (Units=1/GPa)
#
#
# Indices 1 2 3 4 5 6 
#
# 1 0.016299 -0.005335 -0.005162 0.000000 0.000000 0.000000
# 2 -0.005335 0.016298 -0.005162 0.000000 0.000000 0.000000
# 3 -0.005162 -0.005162 0.011112 0.000000 0.000000 0.000000
# 4 0.000000 0.000000 0.000000 0.060103 0.000000 0.000000
# 5 0.000000 0.000000 0.000000 0.000000 0.060109 0.000000
# 6 0.000000 0.000000 0.000000 0.000000 0.000000 0.023169
#
#
# Mechanical properties :
#
#
# Convention : Reuss Voigt Hill
#
# Bulk Modulus (GPa) = 80.69292 87.26574 83.97933
# Shear Modulus (GPa) = 22.46809 25.93608 24.20209
#
# Velocity S-wave (km/s) = 3.44518 3.70152 3.57565
# Velocity P-wave (km/s) = 7.64548 8.02299 7.83651
#
# Compressibility (1/GPa) = 0.01239266
#
# Stress axis : x y z
#
# Youngs Moduli (GPa) = 61.35513 61.35682 89.98898
#
# Poissons Ratio (x) = 0.32734 0.46450
# Poissons Ratio (y) = 0.32733 0.46448
# Poissons Ratio (z) = 0.31670 0.31670
#
# Static dielectric constant tensor:
#      x y z
#    x 1.659550 0.000000 0.000000 
#    y 0.000000 1.659550 0.000000 
#    z 0.000000 0.000000 1.602250 
# 
# From -- ./inp_files/2940.got.cif
#   From: 2010.05.17/outbox.cif.g08.bks.cpg/sg132_2_cif.got.tgz:2940.got - 2010.05.20 12:30:18.
