data_PCOD9567178
_publ_section_title
;
Structure prediction by ZEFSAII (Michael W. Deem and Ramdas Pophale) SiO2 
 PCOD9567178
Probable space group: P 42/M C M
;
_chemical_formula_sum "Si O2"
_cell_formula_units_Z 96
_cell_length_a 16.150450
_cell_length_b 16.150450
_cell_length_c 20.486069
_cell_angle_alpha 90.000000
_cell_angle_beta 90.000000
_cell_angle_gamma 90.000000
_cell_volume 5343.525501
_symmetry_space_group_name_H-M "P 42/M C M"
_symmetry_group_IT_number 132
_symmetry_cell_setting 'tetragonal'
loop_
_space_group_symop_operation_xyz
x,y,z
-y,x,1/2+z
-x,-y,z
y,-x,1/2+z
x,-y,1/2-z
-x,y,1/2-z
y,x,-z
-y,-x,-z
-x,-y,-z
y,-x,1/2-z
x,y,-z
-y,x,1/2-z
-x,y,1/2+z
x,-y,1/2+z
-y,-x,z
y,x,z
loop_
_atom_site_type_symbol
_atom_site_label
_atom_site_fract_x
_atom_site_fract_y
_atom_site_fract_z
Si Si1 0.863524 0.996381 0.925420
Si Si2 0.586017 0.134011 0.784495
Si Si3 0.005252 0.722961 0.825621
Si Si4 0.566347 0.705509 0.927624
Si Si5 0.818964 0.320956 0.344349
Si Si6 0.553433 0.690221 0.683162
O O1 0.909805 0.909805 0.906307
O O2 0.795706 0.029557 0.874702
O O3 0.831685 0.986184 0.000000
O O4 0.935776 0.064225 0.927715
O O5 0.500000 0.104988 0.750000
O O6 0.641820 0.063510 0.817817
O O7 0.639679 0.178366 0.727695
O O8 0.567702 0.212193 0.829690
O O9 0.000000 0.753374 0.750000
O O10 0.914853 0.700037 0.853243
O O11 0.640310 0.640310 0.932981
O O12 0.610182 0.784210 0.893468
O O13 0.500776 0.664980 0.878742
O O14 0.534093 0.723869 0.000000
O O15 0.758300 0.241701 0.346841
O O16 0.500000 0.682798 0.750000
O O17 0.635148 0.635148 0.689396
#
# Coordination Sequence:
#
# PCOD9567178 Si02
#       6
#    16  16  16  16  16  16
#     4   9  19  37  58  81 118 164 201 241 299 359
#     4  10  20  37  58  82 115 155 192 235 288 344
#     4  10  22  34  57  91 116 149 196 249 291 342
#     4  10  21  37  56  82 116 149 185 238 296 345
#     4  10  19  35  56  81 112 147 190 238 289 341
#     4  11  21  36  59  84 111 151 197 241 289 354
#
# _framework density 17.965667
#
# number of rings (size 3 to 8) (size 9 to 14) (size 15 to 20)
#    0.000    2.000    3.333    2.000    0.000    9.167 
#    0.000    4.167    0.000    1.000    0.000    0.000 
#    0.000    0.000    0.000    0.000    0.000    0.000 
#
# Total GULP energy -534443.216534 kJ/mol
# GULP energy per Si atom -5567.116839 kJ/mol
# Density = 1.792478 g / cm^3
# Si number density = 17.965667 Si / 1000 Ang^3
#
#
#
# Elastic Constant Matrix: (Units=GPa)
#
#
# Indices 1 2 3 4 5 6 
#
# 1 99.0557 42.4126 36.0540 0.0000 0.0000 0.0000
# 2 42.4126 99.0557 36.0540 0.0000 0.0000 0.0000
# 3 36.0540 36.0540 69.8034 0.0000 0.0000 0.0000
# 4 0.0000 0.0000 0.0000 16.4471 0.0000 0.0000
# 5 0.0000 0.0000 0.0000 0.0000 16.4471 0.0000
# 6 0.0000 0.0000 0.0000 0.0000 0.0000 28.0319
#
#
#
# Elastic Compliance Matrix: (Units=1/GPa)
#
#
# Indices 1 2 3 4 5 6 
#
# 1 0.013625 -0.004030 -0.004956 0.000000 0.000000 0.000000
# 2 -0.004030 0.013625 -0.004956 0.000000 0.000000 0.000000
# 3 -0.004956 -0.004956 0.019445 0.000000 0.000000 0.000000
# 4 0.000000 0.000000 0.000000 0.060801 0.000000 0.000000
# 5 0.000000 0.000000 0.000000 0.000000 0.060801 0.000000
# 6 0.000000 0.000000 0.000000 0.000000 0.000000 0.035674
#
#
# Mechanical properties :
#
#
# Convention : Reuss Voigt Hill
#
# Bulk Modulus (GPa) = 53.15819 55.21731 54.18775
# Shear Modulus (GPa) = 20.99753 22.41151 21.70452
#
# Velocity S-wave (km/s) = 3.42242 3.53578 3.47956
# Velocity P-wave (km/s) = 6.72832 6.88989 6.80958
#
# Compressibility (1/GPa) = 0.01881178
#
# Stress axis : x y z
#
# Youngs Moduli (GPa) = 73.39690 73.39690 51.42626
#
# Poissons Ratio (x) = 0.29578 0.25486
# Poissons Ratio (y) = 0.29578 0.25486
# Poissons Ratio (z) = 0.36374 0.36374
#
# Static dielectric constant tensor:
#      x y z
#    x 1.679930 0.000000 0.000000 
#    y 0.000000 1.679930 0.000000 
#    z 0.000000 0.000000 1.666370 
# 
# From -- ./inp_files/7866.got.cif
#   From: 2010.05.17/outbox.cif.g08.bks.cpg/sg132_4_cif.got.tgz:7866.got - 2010.05.20 12:30:18.
