data_PCOD9567051
_publ_section_title
;
Structure prediction by ZEFSAII (Michael W. Deem and Ramdas Pophale) SiO2 
 PCOD9567051
Probable space group: P 42/M C M
;
_chemical_formula_sum "Si O2"
_cell_formula_units_Z 120
_cell_length_a 14.837766
_cell_length_b 14.837766
_cell_length_c 24.689532
_cell_angle_alpha 90.000000
_cell_angle_beta 90.000000
_cell_angle_gamma 90.000000
_cell_volume 5435.630079
_symmetry_space_group_name_H-M "P 42/M C M"
_symmetry_group_IT_number 132
_symmetry_cell_setting 'tetragonal'
loop_
_space_group_symop_operation_xyz
x,y,z
-y,x,1/2+z
-x,-y,z
y,-x,1/2+z
x,-y,1/2-z
-x,y,1/2-z
y,x,-z
-y,-x,-z
-x,-y,-z
y,-x,1/2-z
x,y,-z
-y,x,1/2-z
-x,y,1/2+z
x,-y,1/2+z
-y,-x,z
y,x,z
loop_
_atom_site_type_symbol
_atom_site_label
_atom_site_fract_x
_atom_site_fract_y
_atom_site_fract_z
Si Si1 0.005626 0.855098 0.418160
Si Si2 0.328529 0.176382 0.939525
Si Si3 0.716023 0.429176 0.205282
Si Si4 0.570276 0.570276 0.563577
Si Si5 0.528505 0.775647 0.590554
Si Si6 0.243347 0.902386 0.664950
Si Si7 0.282832 0.864066 0.779294
Si Si8 0.131599 0.713483 0.904368
O O1 0.101289 0.898712 0.438736
O O2 0.027968 0.832315 0.355549
O O3 0.948168 0.766798 0.435138
O O4 0.933945 0.933945 0.424733
O O5 0.267568 0.267568 0.934819
O O6 0.434238 0.195381 0.934310
O O7 0.302928 0.112886 0.888838
O O8 0.309079 0.139786 0.000000
O O9 0.686618 0.500000 0.250000
O O10 0.631750 0.368251 0.185928
O O11 0.767507 0.476651 0.155815
O O12 0.787352 0.358488 0.229281
O O13 0.500000 0.500000 0.590349
O O14 0.561185 0.561185 0.500000
O O15 0.548028 0.673181 0.575091
O O16 0.615451 0.836598 0.575907
O O17 0.193038 0.806963 0.671382
O O18 0.284278 0.919654 0.723394
O O19 0.185954 0.814047 0.783495
O O20 0.300204 0.897174 0.840897
O O21 0.219297 0.780704 0.904534
#
# Coordination Sequence:
#
# PCOD9567051 Si02
#       8
#    16  16  16   8  16  16  16  16
#     4   9  18  33  57  89 119 146 178 221 273 332
#     4  10  21  36  56  80 104 137 183 233 284 337
#     4  10  19  30  43  66  99 143 194 234 271 320
#     4  11  22  34  52  78 109 141 179 235 290 334
#     4  11  19  35  52  74 106 147 186 226 281 334
#     4   9  17  32  53  78 109 146 183 224 275 332
#     4   8  15  28  46  69 103 146 187 217 255 321
#     4   9  17  32  52  76 113 155 186 217 267 334
#
# _framework density 22.076557999999999
#
# number of rings (size 3 to 8) (size 9 to 14) (size 15 to 20)
#    0.000    2.467    1.333    2.400    0.000    3.867 
#    0.000    2.667    0.000    8.400    0.000    5.600 
#    0.000    0.000    0.000    0.000    0.000    0.000 
#
# Total GULP energy -668090.411817 kJ/mol
# GULP energy per Si atom -5567.420098 kJ/mol
# Density = 2.202631 g / cm^3
# Si number density = 22.076558 Si / 1000 Ang^3
#
#
#
# Elastic Constant Matrix: (Units=GPa)
#
#
# Indices 1 2 3 4 5 6 
#
# 1 88.4042 46.9629 29.9172 0.0000 0.0000 0.0000
# 2 46.9629 88.4042 29.9172 0.0000 0.0000 0.0000
# 3 29.9172 29.9172 100.7374 0.0000 0.0000 0.0000
# 4 0.0000 0.0000 0.0000 -44.1157 0.0000 0.0000
# 5 0.0000 0.0000 0.0000 0.0000 -44.1157 0.0000
# 6 0.0000 0.0000 0.0000 0.0000 0.0000 28.2143
#
#
#
# Elastic Compliance Matrix: (Units=1/GPa)
#
#
# Indices 1 2 3 4 5 6 
#
# 1 0.016317 -0.007813 -0.002525 0.000000 0.000000 0.000000
# 2 -0.007813 0.016317 -0.002525 0.000000 0.000000 0.000000
# 3 -0.002525 -0.002525 0.011427 0.000000 0.000000 0.000000
# 4 0.000000 0.000000 0.000000 -0.022668 0.000000 0.000000
# 5 0.000000 0.000000 0.000000 0.000000 -0.022668 0.000000
# 6 0.000000 0.000000 0.000000 0.000000 0.000000 0.035443
#
#
# Mechanical properties :
#
#
# Convention : Reuss Voigt Hill
#
# Bulk Modulus (GPa) = 54.54843 54.57115 54.55979
# Shear Modulus (GPa) = 75.74837 -0.62020 37.56408
#
# Velocity S-wave (km/s) = 5.86397 -0.53061 4.12944
# Velocity P-wave (km/s) = 8.40301 4.93936 6.89231
#
# Compressibility (1/GPa) = 0.01833233
#
# Stress axis : x y z
#
# Youngs Moduli (GPa) = 61.28554 61.28554 87.51354
#
# Poissons Ratio (x) = 0.47885 0.22101
# Poissons Ratio (y) = 0.47885 0.22101
# Poissons Ratio (z) = 0.15477 0.15477
#
# Static dielectric constant tensor:
#      x y z
#    x 1.854060 0.000000 0.000000 
#    y 0.000000 1.854060 0.000000 
#    z 0.000000 0.000000 1.861590 
# 
# From -- ./inp_files/11096.got.cif
#   From: 2010.05.17/outbox.cif.g08.bks.cpg/sg132_6_cif.got.tgz:11096.got - 2010.05.20 12:30:18.
