data_PCOD9567526
_publ_section_title
;
Structure prediction by ZEFSAII (Michael W. Deem and Ramdas Pophale) SiO2 
 PCOD9567526
Probable space group: P 42/M C M
;
_chemical_formula_sum "Si O2"
_cell_formula_units_Z 84
_cell_length_a 12.168166
_cell_length_b 12.168166
_cell_length_c 28.298512
_cell_angle_alpha 90.000000
_cell_angle_beta 90.000000
_cell_angle_gamma 90.000000
_cell_volume 4189.998346
_symmetry_space_group_name_H-M "P 42/M C M"
_symmetry_group_IT_number 132
_symmetry_cell_setting 'tetragonal'
loop_
_space_group_symop_operation_xyz
x,y,z
-y,x,1/2+z
-x,-y,z
y,-x,1/2+z
x,-y,1/2-z
-x,y,1/2-z
y,x,-z
-y,-x,-z
-x,-y,-z
y,-x,1/2-z
x,y,-z
-y,x,1/2-z
-x,y,1/2+z
x,-y,1/2+z
-y,-x,z
y,x,z
loop_
_atom_site_type_symbol
_atom_site_label
_atom_site_fract_x
_atom_site_fract_y
_atom_site_fract_z
Si Si1 0.253629 0.001333 0.608905
Si Si2 0.000000 0.000000 0.418163
Si Si3 0.723582 0.545936 0.697800
Si Si4 0.219944 0.397640 0.890283
Si Si5 0.622256 0.803645 0.444045
Si Si6 0.907274 0.269387 0.787701
O O1 0.324836 0.094764 0.583566
O O2 0.235198 0.036883 0.663193
O O3 0.135775 0.998457 0.584154
O O4 0.322187 0.888527 0.609397
O O5 0.701261 0.500000 0.750000
O O6 0.618831 0.618831 0.681936
O O7 0.755641 0.451259 0.661087
O O8 0.826340 0.629203 0.702068
O O9 0.321518 0.321518 0.903482
O O10 0.209115 0.499246 0.925627
O O11 0.625833 0.822588 0.500000
O O12 0.696341 0.696341 0.433373
O O13 0.830854 0.169147 0.770190
O O14 0.000000 0.297923 0.750000
#
# Coordination Sequence:
#
# PCOD9567526 Si02
#       6
#    16   4  16  16  16  16
#     4  12  24  46  70 103 142 182 227 289 348 418
#     4  12  24  44  78 100 144 178 228 284 354 412
#     4  11  24  42  62  94 136 187 238 286 344 415
#     4  12  26  42  70 104 139 182 235 290 348 412
#     4  11  25  48  76 103 138 185 231 285 357 420
#     4  11  24  38  62  94 135 181 234 283 344 413
#
# _framework density 20.047740000000001
#
# number of rings (size 3 to 8) (size 9 to 14) (size 15 to 20)
#    0.000    0.571    4.762    2.857    1.333    8.000 
#    0.000    1.905    0.000    0.000    0.000    0.000 
#    0.000    0.000    0.000    0.000    0.000    0.000 
#
# Total GULP energy -469022.031832 kJ/mol
# GULP energy per Si atom -5583.595617 kJ/mol
# Density = 2.000211 g / cm^3
# Si number density = 20.047740 Si / 1000 Ang^3
#
#
#
# Elastic Constant Matrix: (Units=GPa)
#
#
# Indices 1 2 3 4 5 6 
#
# 1 128.8588 75.2411 16.6083 0.0000 0.0000 0.0000
# 2 75.2411 128.8588 16.6083 0.0000 0.0000 0.0000
# 3 16.6083 16.6083 56.3766 0.0000 0.0000 0.0000
# 4 0.0000 0.0000 0.0000 16.6645 0.0000 0.0000
# 5 0.0000 0.0000 0.0000 0.0000 16.6645 0.0000
# 6 0.0000 0.0000 0.0000 0.0000 0.0000 5.3560
#
#
#
# Elastic Compliance Matrix: (Units=1/GPa)
#
#
# Indices 1 2 3 4 5 6 
#
# 1 0.011898 -0.006752 -0.001516 0.000000 0.000000 0.000000
# 2 -0.006752 0.011898 -0.001516 0.000000 0.000000 0.000000
# 3 -0.001516 -0.001516 0.018631 0.000000 0.000000 0.000000
# 4 0.000000 0.000000 0.000000 0.060008 0.000000 0.000000
# 5 0.000000 0.000000 0.000000 0.000000 0.060008 0.000000
# 6 0.000000 0.000000 0.000000 0.000000 0.000000 0.186705
#
#
# Mechanical properties :
#
#
# Convention : Reuss Voigt Hill
#
# Bulk Modulus (GPa) = 43.74570 59.00108 51.37339
# Shear Modulus (GPa) = 13.28595 21.44608 17.36602
#
# Velocity S-wave (km/s) = 2.57712 3.27425 2.94638
# Velocity P-wave (km/s) = 5.54288 6.61729 6.10377
#
# Compressibility (1/GPa) = 0.02285939
#
# Stress axis : x y z
#
# Youngs Moduli (GPa) = 84.04461 84.04461 53.67368
#
# Poissons Ratio (x) = 0.56748 0.08137
# Poissons Ratio (y) = 0.56748 0.08137
# Poissons Ratio (z) = 0.12742 0.12742
#
# Static dielectric constant tensor:
#      x y z
#    x 1.685270 0.000000 0.000000 
#    y 0.000000 1.685270 0.000000 
#    z 0.000000 0.000000 1.695580 
# 
# From -- ./inp_files/10760.got.cif
#   From: 2010.05.17/outbox.cif.g08.bks.cpg/sg132_6_cif.got.tgz:10760.got - 2010.05.20 12:30:18.
