data_PCOD9567462
_publ_section_title
;
Structure prediction by ZEFSAII (Michael W. Deem and Ramdas Pophale) SiO2 
 PCOD9567462
Probable space group: P 42/M C M
;
_chemical_formula_sum "Si O2"
_cell_formula_units_Z 96
_cell_length_a 15.579511
_cell_length_b 15.579511
_cell_length_c 21.172912
_cell_angle_alpha 90.000000
_cell_angle_beta 90.000000
_cell_angle_gamma 90.000000
_cell_volume 5139.113825
_symmetry_space_group_name_H-M "P 42/M C M"
_symmetry_group_IT_number 132
_symmetry_cell_setting 'tetragonal'
loop_
_space_group_symop_operation_xyz
x,y,z
-y,x,1/2+z
-x,-y,z
y,-x,1/2+z
x,-y,1/2-z
-x,y,1/2-z
y,x,-z
-y,-x,-z
-x,-y,-z
y,-x,1/2-z
x,y,-z
-y,x,1/2-z
-x,y,1/2+z
x,-y,1/2+z
-y,-x,z
y,x,z
loop_
_atom_site_type_symbol
_atom_site_label
_atom_site_fract_x
_atom_site_fract_y
_atom_site_fract_z
Si Si1 0.672784 0.189599 0.426829
Si Si2 0.574658 0.710821 0.300196
Si Si3 0.712744 0.045405 0.341285
Si Si4 0.524768 0.333390 0.427267
Si Si5 0.859007 0.716091 0.292474
Si Si6 0.860959 0.995514 0.569333
O O1 0.687306 0.166871 0.500000
O O2 0.757605 0.242396 0.404557
O O3 0.655293 0.105761 0.385755
O O4 0.595754 0.257633 0.424541
O O5 0.500000 0.727596 0.250000
O O6 0.629567 0.629567 0.276803
O O7 0.539353 0.687088 0.370015
O O8 0.639510 0.790965 0.300115
O O9 0.723280 0.099626 0.277346
O O10 0.690919 0.945243 0.331029
O O11 0.800984 0.034263 0.378389
O O12 0.490864 0.334856 0.500000
O O13 0.578145 0.421856 0.417394
O O14 0.803470 0.803470 0.305778
O O15 0.818940 0.988171 0.500000
O O16 0.904418 0.904418 0.585026
O O17 0.937807 0.062194 0.563410
#
# Coordination Sequence:
#
# PCOD9567462 Si02
#       6
#    16  16  16  16  16  16
#     4   9  17  31  55  85 112 139 174 220 271 315
#     4  11  23  40  61  84 112 142 174 219 276 335
#     4  11  19  32  53  73  99 144 192 224 260 318
#     4   9  19  37  61  89 118 143 171 215 272 333
#     4  10  23  38  51  73 106 144 185 228 272 317
#     4   9  17  28  45  73 105 134 172 231 292 331
#
# _framework density 18.680264999999999
#
# number of rings (size 3 to 8) (size 9 to 14) (size 15 to 20)
#    0.000    2.167    0.000    5.500    0.000    5.500 
#    0.000    8.333    0.000   10.000    0.000    0.000 
#    0.000    0.000    0.000    0.000    0.000    0.000 
#
# Total GULP energy -534662.505983 kJ/mol
# GULP energy per Si atom -5569.401104 kJ/mol
# Density = 1.863775 g / cm^3
# Si number density = 18.680265 Si / 1000 Ang^3
#
#
#
# Elastic Constant Matrix: (Units=GPa)
#
#
# Indices 1 2 3 4 5 6 
#
# 1 86.3670 36.4390 40.3001 0.0000 0.0000 0.0000
# 2 36.4390 86.3670 40.3001 0.0000 0.0000 0.0000
# 3 40.3001 40.3001 79.4895 0.0000 0.0000 0.0000
# 4 0.0000 0.0000 0.0000 33.6561 0.0000 0.0000
# 5 0.0000 0.0000 0.0000 0.0000 33.6561 0.0000
# 6 0.0000 0.0000 0.0000 0.0000 0.0000 26.8140
#
#
#
# Elastic Compliance Matrix: (Units=1/GPa)
#
#
# Indices 1 2 3 4 5 6 
#
# 1 0.016116 -0.003913 -0.006187 0.000000 0.000000 0.000000
# 2 -0.003913 0.016116 -0.006187 0.000000 0.000000 0.000000
# 3 -0.006187 -0.006187 0.018854 0.000000 0.000000 0.000000
# 4 0.000000 0.000000 0.000000 0.029712 0.000000 0.000000
# 5 0.000000 0.000000 0.000000 0.000000 0.029712 0.000000
# 6 0.000000 0.000000 0.000000 0.000000 0.000000 0.037294
#
#
# Mechanical properties :
#
#
# Convention : Reuss Voigt Hill
#
# Bulk Modulus (GPa) = 54.01680 54.03356 54.02518
# Shear Modulus (GPa) = 26.80257 27.83752 27.32005
#
# Velocity S-wave (km/s) = 3.79199 3.86451 3.82842
# Velocity P-wave (km/s) = 6.93913 6.99292 6.96608
#
# Compressibility (1/GPa) = 0.01851276
#
# Stress axis : x y z
#
# Youngs Moduli (GPa) = 62.04919 62.04919 53.03971
#
# Poissons Ratio (x) = 0.24277 0.32816
# Poissons Ratio (y) = 0.24277 0.32816
# Poissons Ratio (z) = 0.38390 0.38390
#
# Static dielectric constant tensor:
#      x y z
#    x 1.654630 0.000000 0.000000 
#    y 0.000000 1.654630 0.000000 
#    z 0.000000 0.000000 1.693940 
# 
# From -- ./inp_files/7886.got.cif
#   From: 2010.05.17/outbox.cif.g08.bks.cpg/sg132_4_cif.got.tgz:7886.got - 2010.05.20 12:30:18.
