data_PCOD9567786
_publ_section_title
;
Structure prediction by ZEFSAII (Michael W. Deem and Ramdas Pophale) SiO2 
 PCOD9567786
Probable space group: P 42/N B C
;
_chemical_formula_sum "Si O2"
_cell_formula_units_Z 56
_cell_length_a 23.400261
_cell_length_b 23.400261
_cell_length_c 5.070883
_cell_angle_alpha 90.000000
_cell_angle_beta 90.000000
_cell_angle_gamma 90.000000
_cell_volume 2776.674636
_symmetry_space_group_name_H-M "P 42/N B C"
_symmetry_group_IT_number 133
_space_group.IT_coordinate_system_code '2'
_symmetry_cell_setting 'tetragonal'
loop_
_space_group_symop_operation_xyz
x,y,z
1/2-y,x,1/2+z
1/2-x,1/2-y,z
y,1/2-x,1/2+z
x,1/2-y,-z
1/2-x,y,-z
y,x,1/2-z
1/2-y,1/2-x,1/2-z
-x,-y,-z
1/2+y,-x,1/2-z
1/2+x,1/2+y,-z
-y,1/2+x,1/2-z
-x,1/2+y,z
1/2+x,-y,z
-y,-x,1/2+z
1/2+y,1/2+x,1/2+z
loop_
_atom_site_type_symbol
_atom_site_label
_atom_site_fract_x
_atom_site_fract_y
_atom_site_fract_z
Si Si1 0.081305 0.418696 0.250000
Si Si2 0.682464 0.374188 0.039985
Si Si3 0.366998 0.185446 0.011637
Si Si4 0.535963 0.411342 0.454731
O O1 0.140589 0.416445 0.413034
O O2 0.083122 0.471779 0.054063
O O3 0.666236 0.347078 0.320798
O O4 0.650148 0.434945 0.006233
O O5 0.750000 0.378057 0.000000
O O6 0.336589 0.163412 0.750000
O O7 0.387055 0.250000 0.000000
O O8 0.321985 0.178016 0.250000
O O9 0.546520 0.429050 0.153078
#
# Coordination Sequence:
#
# PCOD9567786 Si02
#       4
#     8  16  16  16
#     4  10  24  38  65  86 122 154 208 242 301 364
#     4  10  21  38  58  87 120 155 198 244 298 357
#     4  10  23  40  60  87 120 154 199 249 300 356
#     4  10  22  39  61  87 119 158 198 247 299 353
#
# _framework density 20.168008
#
# number of rings (size 3 to 8) (size 9 to 14) (size 15 to 20)
#    0.857    1.143    0.000    2.571    4.000    3.429 
#    5.143    0.000    0.000    0.000    0.000    0.000 
#    0.000    0.000    0.000    0.000    0.000    0.000 
#
# Total GULP energy -312680.859962 kJ/mol
# GULP energy per Si atom -5583.586785 kJ/mol
# Density = 2.012210 g / cm^3
# Si number density = 20.168008 Si / 1000 Ang^3
#
#
#
# Elastic Constant Matrix: (Units=GPa)
#
#
# Indices 1 2 3 4 5 6 
#
# 1 32.5819 97.0222 -15.5653 0.0000 0.0000 0.0000
# 2 97.0222 32.5708 -15.5691 0.0000 0.0000 0.0000
# 3 -15.5653 -15.5691 75.3013 0.0000 0.0000 0.0000
# 4 0.0000 0.0000 0.0000 57.2367 0.0000 0.0000
# 5 0.0000 0.0000 0.0000 0.0000 57.2623 0.0000
# 6 0.0000 0.0000 0.0000 0.0000 0.0000 8.0641
#
#
#
# Elastic Compliance Matrix: (Units=1/GPa)
#
#
# Indices 1 2 3 4 5 6 
#
# 1 -0.003698 0.011818 0.001679 0.000000 0.000000 0.000000
# 2 0.011818 -0.003700 0.001678 0.000000 0.000000 0.000000
# 3 0.001679 0.001678 0.013974 0.000000 0.000000 0.000000
# 4 0.000000 0.000000 0.000000 0.017471 0.000000 0.000000
# 5 0.000000 0.000000 0.000000 0.000000 0.017464 0.000000
# 6 0.000000 0.000000 0.000000 0.000000 0.000000 0.124006
#
#
# Mechanical properties :
#
#
# Convention : Reuss Voigt Hill
#
# Bulk Modulus (GPa) = 27.08053 30.24775 28.66414
# Shear Modulus (GPa) = 33.90378 29.48369 31.69373
#
# Velocity S-wave (km/s) = 4.10453 3.82763 3.96850
# Velocity P-wave (km/s) = 5.99329 5.87918 5.93651
#
# Compressibility (1/GPa) = 0.03692690
#
# Stress axis : x y z
#
# Youngs Moduli (GPa) = -270.41899 -270.30282 71.56146
#
# Poissons Ratio (x) = 3.19448 -0.12016
# Poissons Ratio (y) = 3.19585 -0.12008
# Poissons Ratio (z) = 0.45406 0.45356
#
# Static dielectric constant tensor:
#      x y z
#    x 1.697020 0.000000 0.000000 
#    y 0.000000 1.697020 0.000000 
#    z 0.000000 0.000000 1.717020 
# 
# From -- ./inp_files/329.got.cif
#   From: 2010.05.17/outbox.cif.g08.bks.cpg/sg133_1_cif.got.tgz:329.got - 2010.05.20 12:37:36.
