data_PCOD9567708
_publ_section_title
;
Structure prediction by ZEFSAII (Michael W. Deem and Ramdas Pophale) SiO2 
 PCOD9567708
Probable space group: P 42/N B C
;
_chemical_formula_sum "Si O2"
_cell_formula_units_Z 80
_cell_length_a 12.510883
_cell_length_b 12.510883
_cell_length_c 25.979638
_cell_angle_alpha 90.000000
_cell_angle_beta 90.000000
_cell_angle_gamma 90.000000
_cell_volume 4066.389925
_symmetry_space_group_name_H-M "P 42/N B C"
_symmetry_group_IT_number 133
_space_group.IT_coordinate_system_code '2'
_symmetry_cell_setting 'tetragonal'
loop_
_space_group_symop_operation_xyz
x,y,z
1/2-y,x,1/2+z
1/2-x,1/2-y,z
y,1/2-x,1/2+z
x,1/2-y,-z
1/2-x,y,-z
y,x,1/2-z
1/2-y,1/2-x,1/2-z
-x,-y,-z
1/2+y,-x,1/2-z
1/2+x,1/2+y,-z
-y,1/2+x,1/2-z
-x,1/2+y,z
1/2+x,-y,z
-y,-x,1/2+z
1/2+y,1/2+x,1/2+z
loop_
_atom_site_type_symbol
_atom_site_label
_atom_site_fract_x
_atom_site_fract_y
_atom_site_fract_z
Si Si1 0.384874 0.865964 0.744430
Si Si2 0.182883 0.351985 0.887407
Si Si3 0.486795 0.499555 0.166270
Si Si4 0.040439 0.389303 0.432512
Si Si5 0.654105 0.503751 0.530101
O O1 0.394538 0.738761 0.745963
O O2 0.428131 0.919738 0.692052
O O3 0.451091 0.916719 0.791012
O O4 0.250000 0.250000 0.866968
O O5 0.113831 0.423881 0.848416
O O6 0.271114 0.424366 0.916728
O O7 0.093561 0.312822 0.928353
O O8 0.531777 0.559430 0.115940
O O9 0.093652 0.429767 0.485262
O O10 0.916320 0.413502 0.443242
O O11 0.750000 0.451259 0.500000
#
# Coordination Sequence:
#
# PCOD9567708 Si02
#       5
#    16  16  16  16  16
#     4  10  22  42  63  82 118 162 193 248 316 367
#     4  11  21  35  61  90 120 160 199 248 301 359
#     4  10  23  39  59  91 118 150 207 251 301 359
#     4  10  21  34  58  88 123 154 199 250 294 355
#     4  10  20  36  56  86 121 164 201 239 299 354
#
# _framework density 19.673469000000001
#
# number of rings (size 3 to 8) (size 9 to 14) (size 15 to 20)
#    0.000    1.800    2.000    1.800    2.800    0.000 
#    0.000    1.000    0.000   20.400    0.000    0.000 
#    0.000    0.000    0.000    0.000    0.000    0.000 
#
# Total GULP energy -446154.517181 kJ/mol
# GULP energy per Si atom -5576.931465 kJ/mol
# Density = 1.962869 g / cm^3
# Si number density = 19.673469 Si / 1000 Ang^3
#
#
#
# Elastic Constant Matrix: (Units=GPa)
#
#
# Indices 1 2 3 4 5 6 
#
# 1 34.1218 19.2810 -11.5009 0.0000 0.0000 0.0000
# 2 19.2810 34.1218 -11.5009 0.0000 0.0000 0.0000
# 3 -11.5009 -11.5009 49.0925 0.0000 0.0000 0.0000
# 4 0.0000 0.0000 0.0000 22.5862 0.0000 0.0000
# 5 0.0000 0.0000 0.0000 0.0000 22.5862 0.0000
# 6 0.0000 0.0000 0.0000 0.0000 0.0000 32.5325
#
#
#
# Elastic Compliance Matrix: (Units=1/GPa)
#
#
# Indices 1 2 3 4 5 6 
#
# 1 0.044105 -0.023277 0.004879 0.000000 0.000000 0.000000
# 2 -0.023277 0.044105 0.004879 0.000000 0.000000 0.000000
# 3 0.004879 0.004879 0.022656 0.000000 0.000000 0.000000
# 4 0.000000 0.000000 0.000000 0.044275 0.000000 0.000000
# 5 0.000000 0.000000 0.000000 0.000000 0.044275 0.000000
# 6 0.000000 0.000000 0.000000 0.000000 0.000000 0.030739
#
#
# Mechanical properties :
#
#
# Convention : Reuss Voigt Hill
#
# Bulk Modulus (GPa) = 11.92934 12.21050 12.06992
# Shear Modulus (GPa) = 17.53565 23.61142 20.57354
#
# Velocity S-wave (km/s) = 2.98876 3.46810 3.23731
# Velocity P-wave (km/s) = 4.24112 4.71773 4.48576
#
# Compressibility (1/GPa) = 0.08382693
#
# Stress axis : x y z
#
# Youngs Moduli (GPa) = 22.67340 22.67340 44.13882
#
# Poissons Ratio (x) = 0.52778 -0.21536
# Poissons Ratio (y) = 0.52778 -0.21536
# Poissons Ratio (z) = -0.11063 -0.11063
#
# Static dielectric constant tensor:
#      x y z
#    x 1.694860 0.000000 0.000000 
#    y 0.000000 1.694860 0.000000 
#    z 0.000000 0.000000 1.700120 
# 
# From -- ./inp_files/7870.got.cif
#   From: 2010.05.17/outbox.cif.g08.bks.cpg/sg133_4_cif.got.tgz:7870.got - 2010.05.20 12:37:36.
