data_PCOD9567431
_publ_section_title
;
Structure prediction by ZEFSAII (Michael W. Deem and Ramdas Pophale) SiO2 
 PCOD9567431
Probable space group: P 42/M C M
;
_chemical_formula_sum "Si O2"
_cell_formula_units_Z 56
_cell_length_a 10.746197
_cell_length_b 10.746197
_cell_length_c 19.971617
_cell_angle_alpha 90.000000
_cell_angle_beta 90.000000
_cell_angle_gamma 90.000000
_cell_volume 2306.337309
_symmetry_space_group_name_H-M "P 42/M C M"
_symmetry_group_IT_number 132
_symmetry_cell_setting 'tetragonal'
loop_
_space_group_symop_operation_xyz
x,y,z
-y,x,1/2+z
-x,-y,z
y,-x,1/2+z
x,-y,1/2-z
-x,y,1/2-z
y,x,-z
-y,-x,-z
-x,-y,-z
y,-x,1/2-z
x,y,-z
-y,x,1/2-z
-x,y,1/2+z
x,-y,1/2+z
-y,-x,z
y,x,z
loop_
_atom_site_type_symbol
_atom_site_label
_atom_site_fract_x
_atom_site_fract_y
_atom_site_fract_z
Si Si1 0.729586 0.931370 0.358719
Si Si2 0.462747 0.263130 0.580113
Si Si3 0.180171 0.380462 0.199642
Si Si4 0.012952 0.799081 0.500000
O O1 0.861439 0.861439 0.341891
O O2 0.634194 0.824123 0.379671
O O3 0.735701 0.995837 0.430622
O O4 0.677046 0.042929 0.313332
O O5 0.475177 0.232999 0.500000
O O6 0.399644 0.399644 0.582557
O O7 0.578791 0.236353 0.627656
O O8 0.177764 0.500000 0.250000
O O9 0.273007 0.273007 0.227020
O O10 0.908027 0.908027 0.500000
O O11 0.148230 0.851771 0.500000
#
# Coordination Sequence:
#
# PCOD9567431 Si02
#       4
#    16  16  16   8
#     4  10  21  41  73 111 146 183 233 302 381 459
#     4  10  22  43  72 105 142 190 250 314 371 433
#     4  12  28  47  70 102 148 204 257 311 372 441
#     4   9  16  30  59 104 150 178 205 267 358 444
#
# _framework density 24.280922
#
# number of rings (size 3 to 8) (size 9 to 14) (size 15 to 20)
#    0.000    1.571    1.429    2.571    2.000    7.714 
#    0.000    1.429    0.000    1.714    0.000   12.000 
#    0.000    0.000    0.000    0.000    0.000    0.000 
#
# Total GULP energy -312110.344743 kJ/mol
# GULP energy per Si atom -5573.399013 kJ/mol
# Density = 2.422566 g / cm^3
# Si number density = 24.280922 Si / 1000 Ang^3
#
#
#
# Elastic Constant Matrix: (Units=GPa)
#
#
# Indices 1 2 3 4 5 6 
#
# 1 146.3799 76.7442 82.5140 0.0000 0.0000 0.0000
# 2 76.7442 146.3825 82.5133 0.0000 0.0000 0.0000
# 3 82.5140 82.5133 203.4028 0.0000 0.0000 0.0000
# 4 0.0000 0.0000 0.0000 83.6625 0.0000 0.0000
# 5 0.0000 0.0000 0.0000 0.0000 83.6623 0.0000
# 6 0.0000 0.0000 0.0000 0.0000 0.0000 48.5917
#
#
#
# Elastic Compliance Matrix: (Units=1/GPa)
#
#
# Indices 1 2 3 4 5 6 
#
# 1 0.010382 -0.003979 -0.002598 0.000000 0.000000 0.000000
# 2 -0.003979 0.010381 -0.002597 0.000000 0.000000 0.000000
# 3 -0.002598 -0.002597 0.007024 0.000000 0.000000 0.000000
# 4 0.000000 0.000000 0.000000 0.011953 0.000000 0.000000
# 5 0.000000 0.000000 0.000000 0.000000 0.011953 0.000000
# 6 0.000000 0.000000 0.000000 0.000000 0.000000 0.020580
#
#
# Mechanical properties :
#
#
# Convention : Reuss Voigt Hill
#
# Bulk Modulus (GPa) = 105.93473 108.85646 107.39559
# Shear Modulus (GPa) = 53.32439 60.14287 56.73363
#
# Velocity S-wave (km/s) = 4.69139 4.98231 4.83903
# Velocity P-wave (km/s) = 8.54804 8.83330 8.69184
#
# Compressibility (1/GPa) = 0.00943978
#
# Stress axis : x y z
#
# Youngs Moduli (GPa) = 96.32343 96.32615 142.37440
#
# Poissons Ratio (x) = 0.38325 0.36982
# Poissons Ratio (y) = 0.38324 0.36980
# Poissons Ratio (z) = 0.25020 0.25019
#
# Static dielectric constant tensor:
#      x y z
#    x 2.000590 0.000000 0.000000 
#    y 0.000000 2.000590 0.000000 
#    z 0.000000 0.000000 1.886780 
# 
# From -- ./inp_files/7453.got.cif
#   From: 2010.05.17/outbox.cif.g08.bks.cpg/sg132_4_cif.got.tgz:7453.got - 2010.05.20 12:30:18.
