data_PCOD9567719
_publ_section_title
;
Structure prediction by ZEFSAII (Michael W. Deem and Ramdas Pophale) SiO2 
 PCOD9567719
Probable space group: P 42/N B C
;
_chemical_formula_sum "Si O2"
_cell_formula_units_Z 88
_cell_length_a 16.934567
_cell_length_b 16.934567
_cell_length_c 13.318406
_cell_angle_alpha 90.000000
_cell_angle_beta 90.000000
_cell_angle_gamma 90.000000
_cell_volume 3819.446606
_symmetry_space_group_name_H-M "P 42/N B C"
_symmetry_group_IT_number 133
_space_group.IT_coordinate_system_code '2'
_symmetry_cell_setting 'tetragonal'
loop_
_space_group_symop_operation_xyz
x,y,z
1/2-y,x,1/2+z
1/2-x,1/2-y,z
y,1/2-x,1/2+z
x,1/2-y,-z
1/2-x,y,-z
y,x,1/2-z
1/2-y,1/2-x,1/2-z
-x,-y,-z
1/2+y,-x,1/2-z
1/2+x,1/2+y,-z
-y,1/2+x,1/2-z
-x,1/2+y,z
1/2+x,-y,z
-y,-x,1/2+z
1/2+y,1/2+x,1/2+z
loop_
_atom_site_type_symbol
_atom_site_label
_atom_site_fract_x
_atom_site_fract_y
_atom_site_fract_z
Si Si1 0.625712 0.264203 0.740246
Si Si2 0.253258 0.122229 0.245051
Si Si3 0.794554 0.996168 0.400257
Si Si4 0.822949 0.998383 0.884820
Si Si5 0.016603 0.483398 0.750000
Si Si6 0.967688 0.571653 0.565728
O O1 0.691473 0.327090 0.708253
O O2 0.567568 0.303334 0.822008
O O3 0.576039 0.223787 0.650884
O O4 0.191587 0.191587 0.250000
O O5 0.339624 0.160377 0.250000
O O6 0.234777 0.072832 0.146462
O O7 0.240782 0.065666 0.339563
O O8 0.750000 0.021993 0.500000
O O9 0.875216 0.949781 0.424002
O O10 0.901723 0.988671 0.813193
O O11 0.853163 0.990725 0.998465
O O12 0.008182 0.557473 0.673547
O O13 0.000000 0.500000 0.500000
#
# Coordination Sequence:
#
# PCOD9567719 Si02
#       6
#    16  16  16  16   8  16
#     4  10  22  43  69  96 143 186 227 282 358 423
#     4  10  21  40  66  93 135 177 220 270 344 412
#     4  11  24  42  70  97 134 181 232 283 347 413
#     4  10  20  40  69 100 131 182 228 288 343 410
#     4  10  20  36  69  96 137 170 226 296 340 400
#     4  10  22  38  66 102 128 171 235 281 339 398
#
# _framework density 23.039985000000001
#
# number of rings (size 3 to 8) (size 9 to 14) (size 15 to 20)
#    0.000    1.818    0.909    3.273    8.909    0.000 
#    0.000    8.182    4.000    0.000    0.000    0.000 
#    0.000    0.000    0.000    0.000    0.000    0.000 
#
# Total GULP energy -491921.629996 kJ/mol
# GULP energy per Si atom -5590.018523 kJ/mol
# Density = 2.298755 g / cm^3
# Si number density = 23.039985 Si / 1000 Ang^3
#
#
#
# Elastic Constant Matrix: (Units=GPa)
#
#
# Indices 1 2 3 4 5 6 
#
# 1 79.9143 32.3324 38.7509 0.0000 0.0000 0.0000
# 2 32.3324 79.9147 38.7503 0.0000 0.0000 0.0000
# 3 38.7509 38.7503 135.6237 0.0000 0.0000 0.0000
# 4 0.0000 0.0000 0.0000 27.9472 0.0000 0.0000
# 5 0.0000 0.0000 0.0000 0.0000 27.9454 0.0000
# 6 0.0000 0.0000 0.0000 0.0000 0.0000 48.9106
#
#
#
# Elastic Compliance Matrix: (Units=1/GPa)
#
#
# Indices 1 2 3 4 5 6 
#
# 1 0.016057 -0.004959 -0.003171 0.000000 0.000000 0.000000
# 2 -0.004959 0.016057 -0.003171 0.000000 0.000000 0.000000
# 3 -0.003171 -0.003171 0.009185 0.000000 0.000000 0.000000
# 4 0.000000 0.000000 0.000000 0.035782 0.000000 0.000000
# 5 0.000000 0.000000 0.000000 0.000000 0.035784 0.000000
# 6 0.000000 0.000000 0.000000 0.000000 0.000000 0.020445
#
#
# Mechanical properties :
#
#
# Convention : Reuss Voigt Hill
#
# Bulk Modulus (GPa) = 53.48164 57.23555 55.35860
# Shear Modulus (GPa) = 30.83636 33.33523 32.08580
#
# Velocity S-wave (km/s) = 3.66236 3.80786 3.73582
# Velocity P-wave (km/s) = 6.41458 6.65048 6.53359
#
# Compressibility (1/GPa) = 0.01869800
#
# Stress axis : x y z
#
# Youngs Moduli (GPa) = 62.27645 62.27711 108.86819
#
# Poissons Ratio (x) = 0.30883 0.34523
# Poissons Ratio (y) = 0.30883 0.34522
# Poissons Ratio (z) = 0.19749 0.19748
#
# Static dielectric constant tensor:
#      x y z
#    x 1.896290 0.000000 0.000000 
#    y 0.000000 1.896290 0.000000 
#    z 0.000000 0.000000 1.748740 
# 
# From -- ./inp_files/4459.got.cif
#   From: 2010.05.17/outbox.cif.g08.bks.cpg/sg133_3_cif.got.tgz:4459.got - 2010.05.20 12:37:36.
