data_PCOD9567149
_publ_section_title
;
Structure prediction by ZEFSAII (Michael W. Deem and Ramdas Pophale) SiO2 
 PCOD9567149
Probable space group: P 42/M C M
;
_chemical_formula_sum "Si O2"
_cell_formula_units_Z 112
_cell_length_a 14.634788
_cell_length_b 14.634788
_cell_length_c 28.468867
_cell_angle_alpha 90.000000
_cell_angle_beta 90.000000
_cell_angle_gamma 90.000000
_cell_volume 6097.377091
_symmetry_space_group_name_H-M "P 42/M C M"
_symmetry_group_IT_number 132
_symmetry_cell_setting 'tetragonal'
loop_
_space_group_symop_operation_xyz
x,y,z
-y,x,1/2+z
-x,-y,z
y,-x,1/2+z
x,-y,1/2-z
-x,y,1/2-z
y,x,-z
-y,-x,-z
-x,-y,-z
y,-x,1/2-z
x,y,-z
-y,x,1/2-z
-x,y,1/2+z
x,-y,1/2+z
-y,-x,z
y,x,z
loop_
_atom_site_type_symbol
_atom_site_label
_atom_site_fract_x
_atom_site_fract_y
_atom_site_fract_z
Si Si1 0.827721 0.675094 0.051153
Si Si2 0.716074 0.566130 0.212526
Si Si3 0.102410 0.336445 0.241793
Si Si4 0.119425 0.266796 0.655099
Si Si5 0.758390 0.911618 0.140682
Si Si6 0.589399 0.263152 0.862317
Si Si7 0.329474 0.523038 0.554187
O O1 0.765516 0.765516 0.048482
O O2 0.882232 0.688936 0.099204
O O3 0.755822 0.592982 0.055179
O O4 0.875890 0.666213 0.000000
O O5 0.667637 0.500000 0.250000
O O6 0.653318 0.653318 0.201219
O O7 0.810484 0.598150 0.236758
O O8 0.736132 0.502872 0.167997
O O9 0.116074 0.275590 0.288215
O O10 0.104576 0.281739 0.192825
O O11 0.000000 0.377249 0.250000
O O12 0.190615 0.190615 0.640452
O O13 0.164050 0.362550 0.638086
O O14 0.020666 0.237013 0.637290
O O15 0.850776 0.850776 0.136315
O O16 0.664970 0.335031 0.842371
O O17 0.558892 0.300507 0.912667
O O18 0.344363 0.497593 0.500000
O O19 0.418551 0.581450 0.570128
#
# Coordination Sequence:
#
# PCOD9567149 Si02
#       7
#    16  16  16  16  16  16  16
#     4   8  15  31  55  83 112 137 168 219 281 337
#     4  12  23  36  55  80 113 150 190 233 277 334
#     4  10  21  38  58  81 111 147 189 234 285 343
#     4  10  21  38  53  74 112 150 183 231 285 336
#     4  10  19  33  59  87 105 138 186 230 283 347
#     4  11  23  38  53  74 111 155 192 230 281 338
#     4   9  18  34  57  82 106 138 184 236 283 329
#
# _framework density 18.368554
#
# number of rings (size 3 to 8) (size 9 to 14) (size 15 to 20)
#    0.000    2.000    1.429    3.857    0.000    3.857 
#    0.000    3.571    0.000    5.571    0.000    2.000 
#    0.000    0.000    0.000    0.000    0.000    0.000 
#
# Total GULP energy -624046.577651 kJ/mol
# GULP energy per Si atom -5571.844443 kJ/mol
# Density = 1.832675 g / cm^3
# Si number density = 18.368554 Si / 1000 Ang^3
#
#
#
# Elastic Constant Matrix: (Units=GPa)
#
#
# Indices 1 2 3 4 5 6 
#
# 1 97.0939 44.0395 31.3939 0.0000 0.0000 0.0000
# 2 44.0395 97.0939 31.3939 0.0000 0.0000 0.0000
# 3 31.3939 31.3939 85.1244 0.0000 0.0000 0.0000
# 4 0.0000 0.0000 0.0000 -108.9227 0.0000 0.0000
# 5 0.0000 0.0000 0.0000 0.0000 -108.9227 0.0000
# 6 0.0000 0.0000 0.0000 0.0000 0.0000 15.2748
#
#
#
# Elastic Compliance Matrix: (Units=1/GPa)
#
#
# Indices 1 2 3 4 5 6 
#
# 1 0.013662 -0.005186 -0.003126 0.000000 0.000000 0.000000
# 2 -0.005186 0.013662 -0.003126 0.000000 0.000000 0.000000
# 3 -0.003126 -0.003126 0.014053 0.000000 0.000000 0.000000
# 4 0.000000 0.000000 0.000000 -0.009181 0.000000 0.000000
# 5 0.000000 0.000000 0.000000 0.000000 -0.009181 0.000000
# 6 0.000000 0.000000 0.000000 0.000000 0.000000 0.065467
#
#
# Mechanical properties :
#
#
# Convention : Reuss Voigt Hill
#
# Bulk Modulus (GPa) = 54.04942 54.77407 54.41174
# Shear Modulus (GPa) = 42.54336 -29.01511 6.76412
#
# Velocity S-wave (km/s) = 4.81781 -3.97874 1.92105
# Velocity P-wave (km/s) = 7.77414 2.96261 5.88278
#
# Compressibility (1/GPa) = 0.01850159
#
# Stress axis : x y z
#
# Youngs Moduli (GPa) = 73.19365 73.19365 71.15786
#
# Poissons Ratio (x) = 0.37960 0.22244
# Poissons Ratio (y) = 0.37960 0.22244
# Poissons Ratio (z) = 0.22880 0.22880
#
# Static dielectric constant tensor:
#      x y z
#    x 1.650650 0.000000 0.000000 
#    y 0.000000 1.650650 0.000000 
#    z 0.000000 0.000000 1.672400 
# 
# From -- ./inp_files/10090.got.cif
#   From: 2010.05.17/outbox.cif.g08.bks.cpg/sg132_6_cif.got.tgz:10090.got - 2010.05.20 12:30:18.
