data_PCOD9567430
_publ_section_title
;
Structure prediction by ZEFSAII (Michael W. Deem and Ramdas Pophale) SiO2 
 PCOD9567430
Probable space group: P 42/M C M
;
_chemical_formula_sum "Si O2"
_cell_formula_units_Z 112
_cell_length_a 14.931093
_cell_length_b 14.931093
_cell_length_c 24.675409
_cell_angle_alpha 90.000000
_cell_angle_beta 90.000000
_cell_angle_gamma 90.000000
_cell_volume 5501.074936
_symmetry_space_group_name_H-M "P 42/M C M"
_symmetry_group_IT_number 132
_symmetry_cell_setting 'tetragonal'
loop_
_space_group_symop_operation_xyz
x,y,z
-y,x,1/2+z
-x,-y,z
y,-x,1/2+z
x,-y,1/2-z
-x,y,1/2-z
y,x,-z
-y,-x,-z
-x,-y,-z
y,-x,1/2-z
x,y,-z
-y,x,1/2-z
-x,y,1/2+z
x,-y,1/2+z
-y,-x,z
y,x,z
loop_
_atom_site_type_symbol
_atom_site_label
_atom_site_fract_x
_atom_site_fract_y
_atom_site_fract_z
Si Si1 0.166615 0.600561 0.256163
Si Si2 0.742992 0.591787 0.129244
Si Si3 0.073668 0.572446 0.437884
Si Si4 0.998886 0.138602 0.890550
Si Si5 0.078628 0.222868 0.212903
Si Si6 0.385719 0.761022 0.864794
Si Si7 0.910917 0.698961 0.559516
O O1 0.129726 0.500000 0.250000
O O2 0.234671 0.602943 0.306932
O O3 0.094681 0.674830 0.271869
O O4 0.212149 0.620408 0.198535
O O5 0.665505 0.665505 0.114752
O O6 0.837717 0.596642 0.096127
O O7 0.724429 0.485422 0.122710
O O8 0.098048 0.543670 0.500000
O O9 0.000000 0.500000 0.415940
O O10 0.009713 0.657066 0.441561
O O11 0.931786 0.068215 0.861900
O O12 0.934700 0.199889 0.925955
O O13 0.047966 0.202528 0.847769
O O14 0.075823 0.075823 0.917048
O O15 0.170454 0.170454 0.223053
O O16 0.000000 0.185629 0.250000
O O17 0.314654 0.685347 0.877393
O O18 0.354838 0.848076 0.898925
O O19 0.869801 0.690967 0.500000
#
# Coordination Sequence:
#
# PCOD9567430 Si02
#       7
#    16  16  16  16  16  16  16
#     4  10  23  41  61  89 125 165 205 261 321 376
#     4  11  23  41  66  94 127 165 210 263 318 378
#     4  10  21  41  66  93 128 163 203 260 322 382
#     4  10  22  38  56  85 124 162 205 261 320 377
#     4  11  21  35  57  84 117 157 201 249 305 374
#     4  11  23  40  63  91 127 169 212 258 316 383
#     4  11  23  40  65  90 118 163 213 259 315 385
#
# _framework density 20.359656999999999
#
# number of rings (size 3 to 8) (size 9 to 14) (size 15 to 20)
#    0.000    1.429    1.429    3.857    0.000    4.714 
#    0.000    2.143    0.000    2.571    0.000    2.000 
#    0.000    0.000    0.000    0.000    0.000    0.000 
#
# Total GULP energy -624198.137798 kJ/mol
# GULP energy per Si atom -5573.197659 kJ/mol
# Density = 2.031332 g / cm^3
# Si number density = 20.359657 Si / 1000 Ang^3
#
#
#
# Elastic Constant Matrix: (Units=GPa)
#
#
# Indices 1 2 3 4 5 6 
#
# 1 101.9137 66.9527 42.3049 0.0000 0.0000 0.0000
# 2 66.9527 101.9137 42.3049 0.0000 0.0000 0.0000
# 3 42.3049 42.3049 85.3258 0.0000 0.0000 0.0000
# 4 0.0000 0.0000 0.0000 18.3319 0.0000 0.0000
# 5 0.0000 0.0000 0.0000 0.0000 18.3319 0.0000
# 6 0.0000 0.0000 0.0000 0.0000 0.0000 92.5913
#
#
#
# Elastic Compliance Matrix: (Units=1/GPa)
#
#
# Indices 1 2 3 4 5 6 
#
# 1 0.018241 -0.010362 -0.003907 0.000000 0.000000 0.000000
# 2 -0.010362 0.018241 -0.003907 0.000000 0.000000 0.000000
# 3 -0.003907 -0.003907 0.015594 0.000000 0.000000 0.000000
# 4 0.000000 0.000000 0.000000 0.054550 0.000000 0.000000
# 5 0.000000 0.000000 0.000000 0.000000 0.054550 0.000000
# 6 0.000000 0.000000 0.000000 0.000000 0.000000 0.010800
#
#
# Mechanical properties :
#
#
# Convention : Reuss Voigt Hill
#
# Bulk Modulus (GPa) = 63.58987 65.80870 64.69928
# Shear Modulus (GPa) = 23.41180 35.02375 29.21777
#
# Velocity S-wave (km/s) = 3.39471 4.15209 3.79236
# Velocity P-wave (km/s) = 6.83129 7.44176 7.14305
#
# Compressibility (1/GPa) = 0.01572578
#
# Stress axis : x y z
#
# Youngs Moduli (GPa) = 54.82082 54.82082 64.12908
#
# Poissons Ratio (x) = 0.56806 0.25052
# Poissons Ratio (y) = 0.56806 0.25052
# Poissons Ratio (z) = 0.21416 0.21416
#
# Static dielectric constant tensor:
#      x y z
#    x 1.797200 0.000000 0.000000 
#    y 0.000000 1.797200 0.000000 
#    z 0.000000 0.000000 1.750180 
# 
# From -- ./inp_files/9109.got.cif
#   From: 2010.05.17/outbox.cif.g08.bks.cpg/sg132_5_cif.got.tgz:9109.got - 2010.05.20 12:30:18.
