data_PCOD9567675
_publ_section_title
;
Structure prediction by ZEFSAII (Michael W. Deem and Ramdas Pophale) SiO2 
 PCOD9567675
Probable space group: P 42/N B C
;
_chemical_formula_sum "Si O2"
_cell_formula_units_Z 116
_cell_length_a 16.924153
_cell_length_b 16.924153
_cell_length_c 19.880399
_cell_angle_alpha 90.000000
_cell_angle_beta 90.000000
_cell_angle_gamma 90.000000
_cell_volume 5694.282145
_symmetry_space_group_name_H-M "P 42/N B C"
_symmetry_group_IT_number 133
_space_group.IT_coordinate_system_code '2'
_symmetry_cell_setting 'tetragonal'
loop_
_space_group_symop_operation_xyz
x,y,z
1/2-y,x,1/2+z
1/2-x,1/2-y,z
y,1/2-x,1/2+z
x,1/2-y,-z
1/2-x,y,-z
y,x,1/2-z
1/2-y,1/2-x,1/2-z
-x,-y,-z
1/2+y,-x,1/2-z
1/2+x,1/2+y,-z
-y,1/2+x,1/2-z
-x,1/2+y,z
1/2+x,-y,z
-y,-x,1/2+z
1/2+y,1/2+x,1/2+z
loop_
_atom_site_type_symbol
_atom_site_label
_atom_site_fract_x
_atom_site_fract_y
_atom_site_fract_z
Si Si1 0.491670 0.352273 0.424275
Si Si2 0.162058 0.035026 0.925110
Si Si3 0.223152 0.340900 0.426456
Si Si4 0.099040 0.351308 0.825575
Si Si5 0.664751 0.162144 0.115166
Si Si6 0.085106 0.815363 0.316129
Si Si7 0.250000 0.750000 0.500000
Si Si8 0.787234 0.434102 0.298930
O O1 0.482014 0.256678 0.426515
O O2 0.483802 0.375493 0.502378
O O3 0.423566 0.380646 0.374769
O O4 0.577110 0.375013 0.395611
O O5 0.151449 0.129056 0.915273
O O6 0.138816 0.972397 0.867169
O O7 0.250000 0.250000 0.430682
O O8 0.250000 0.375571 0.500000
O O9 0.272154 0.371241 0.362746
O O10 0.131922 0.368078 0.750000
O O11 0.005853 0.337727 0.825416
O O12 0.748990 0.141179 0.149831
O O13 0.693131 0.196142 0.044318
O O14 0.610144 0.227109 0.150870
O O15 0.035299 0.765338 0.262815
O O16 0.146764 0.870753 0.277581
#
# Coordination Sequence:
#
# PCOD9567675 Si02
#       8
#    16  16  16  16  16  16   4  16
#     4  10  20  41  66  99 132 177 220 285 345 401
#     4  10  19  39  72  98 129 174 237 280 336 416
#     4  11  20  42  70  96 128 178 237 285 342 412
#     4  12  26  44  65  97 140 182 229 293 354 420
#     4  11  22  38  68  99 133 173 224 287 335 406
#     4  11  22  43  67  98 130 179 228 283 349 414
#     4  12  20  36  66 112 136 162 242 290 332 408
#     4  12  25  43  66  98 135 180 230 277 353 429
#
# _framework density 20.371313000000001
#
# number of rings (size 3 to 8) (size 9 to 14) (size 15 to 20)
#    0.000    0.966    5.517    4.138    0.000    0.276 
#    3.724    0.690    0.000    0.000    0.000    0.000 
#    0.000    0.000    0.000    0.000    0.000    0.000 
#
# Total GULP energy -646921.325662 kJ/mol
# GULP energy per Si atom -5576.907980 kJ/mol
# Density = 2.032495 g / cm^3
# Si number density = 20.371313 Si / 1000 Ang^3
#
#
#
# Elastic Constant Matrix: (Units=GPa)
#
#
# Indices 1 2 3 4 5 6 
#
# 1 68.0299 14.1384 25.3697 0.0000 0.0000 0.0000
# 2 14.1384 68.0299 25.3697 0.0000 0.0000 0.0000
# 3 25.3697 25.3697 101.7841 0.0000 0.0000 0.0000
# 4 0.0000 0.0000 0.0000 15.3649 0.0000 0.0000
# 5 0.0000 0.0000 0.0000 0.0000 15.3649 0.0000
# 6 0.0000 0.0000 0.0000 0.0000 0.0000 8.4429
#
#
#
# Elastic Compliance Matrix: (Units=1/GPa)
#
#
# Indices 1 2 3 4 5 6 
#
# 1 0.016470 -0.002086 -0.003585 0.000000 0.000000 0.000000
# 2 -0.002086 0.016470 -0.003585 0.000000 0.000000 0.000000
# 3 -0.003585 -0.003585 0.011612 0.000000 0.000000 0.000000
# 4 0.000000 0.000000 0.000000 0.065083 0.000000 0.000000
# 5 0.000000 0.000000 0.000000 0.000000 0.065083 0.000000
# 6 0.000000 0.000000 0.000000 0.000000 0.000000 0.118442
#
#
# Mechanical properties :
#
#
# Convention : Reuss Voigt Hill
#
# Bulk Modulus (GPa) = 38.40373 40.84437 39.62405
# Shear Modulus (GPa) = 15.60780 19.36565 17.48672
#
# Velocity S-wave (km/s) = 2.77097 3.08658 2.93302
# Velocity P-wave (km/s) = 5.39727 5.72679 5.56447
#
# Compressibility (1/GPa) = 0.02603914
#
# Stress axis : x y z
#
# Youngs Moduli (GPa) = 60.71681 60.71681 86.11819
#
# Poissons Ratio (x) = 0.12665 0.30875
# Poissons Ratio (y) = 0.12665 0.30875
# Poissons Ratio (z) = 0.21768 0.21768
#
# Static dielectric constant tensor:
#      x y z
#    x 1.703310 0.000000 0.000000 
#    y 0.000000 1.703310 0.000000 
#    z 0.000000 0.000000 1.810400 
# 
# From -- ./inp_files/5643.got.cif
#   From: 2010.05.17/outbox.cif.g08.bks.cpg/sg133_3_cif.got.tgz:5643.got - 2010.05.20 12:37:36.
