data_PCOD9567378
_publ_section_title
;
Structure prediction by ZEFSAII (Michael W. Deem and Ramdas Pophale) SiO2 
 PCOD9567378
Probable space group: P 42/M C M
;
_chemical_formula_sum "Si O2"
_cell_formula_units_Z 96
_cell_length_a 14.389822
_cell_length_b 14.389822
_cell_length_c 27.818572
_cell_angle_alpha 90.000000
_cell_angle_beta 90.000000
_cell_angle_gamma 90.000000
_cell_volume 5760.307614
_symmetry_space_group_name_H-M "P 42/M C M"
_symmetry_group_IT_number 132
_symmetry_cell_setting 'tetragonal'
loop_
_space_group_symop_operation_xyz
x,y,z
-y,x,1/2+z
-x,-y,z
y,-x,1/2+z
x,-y,1/2-z
-x,y,1/2-z
y,x,-z
-y,-x,-z
-x,-y,-z
y,-x,1/2-z
x,y,-z
-y,x,1/2-z
-x,y,1/2+z
x,-y,1/2+z
-y,-x,z
y,x,z
loop_
_atom_site_type_symbol
_atom_site_label
_atom_site_fract_x
_atom_site_fract_y
_atom_site_fract_z
Si Si1 0.384911 0.893603 0.804085
Si Si2 0.838399 0.308511 0.097247
Si Si3 0.112409 0.608889 0.304320
Si Si4 0.604623 0.016184 0.556584
Si Si5 0.543277 0.306310 0.056910
Si Si6 0.784812 0.636621 0.901487
O O1 0.337113 0.837628 0.846747
O O2 0.496547 0.884379 0.806931
O O3 0.359923 0.864080 0.749855
O O4 0.364863 0.003761 0.811061
O O5 0.791445 0.208555 0.090327
O O6 0.942935 0.324904 0.079624
O O7 0.774782 0.382114 0.068259
O O8 0.178998 0.642031 0.346660
O O9 0.602247 0.998453 0.500000
O O10 0.500000 0.000000 0.576635
O O11 0.627316 0.122187 0.567401
O O12 0.597126 0.402875 0.067966
O O13 0.452854 0.279863 0.087527
O O14 0.520817 0.305916 0.000000
O O15 0.726604 0.726604 0.914220
#
# Coordination Sequence:
#
# PCOD9567378 Si02
#       6
#    16  16  16  16  16  16
#     4   9  16  31  56  79 106 139 175 218 270 320
#     4  11  20  32  56  85 108 135 177 227 272 316
#     4   9  17  31  53  81 108 138 174 220 269 319
#     4  11  21  36  57  78 107 145 182 226 271 316
#     4  10  21  36  53  77 110 148 188 225 263 314
#     4  12  23  35  55  83 113 145 181 225 275 324
#
# _framework density 16.665776000000001
#
# number of rings (size 3 to 8) (size 9 to 14) (size 15 to 20)
#    0.000    1.667    5.000    2.000    0.000    3.333 
#    0.000    0.833    0.000    0.500    0.000    1.167 
#    0.000    2.667    0.000    0.000    0.000    0.000 
#
# Total GULP energy -535424.475507 kJ/mol
# GULP energy per Si atom -5577.338287 kJ/mol
# Density = 1.662784 g / cm^3
# Si number density = 16.665776 Si / 1000 Ang^3
#
#
#
# Elastic Constant Matrix: (Units=GPa)
#
#
# Indices 1 2 3 4 5 6 
#
# 1 63.3220 42.6362 18.1934 0.0000 0.0000 0.0000
# 2 42.6362 63.3220 18.1934 0.0000 0.0000 0.0000
# 3 18.1934 18.1934 78.5776 0.0000 0.0000 0.0000
# 4 0.0000 0.0000 0.0000 0.5121 0.0000 0.0000
# 5 0.0000 0.0000 0.0000 0.0000 0.5121 0.0000
# 6 0.0000 0.0000 0.0000 0.0000 0.0000 23.1345
#
#
#
# Elastic Compliance Matrix: (Units=1/GPa)
#
#
# Indices 1 2 3 4 5 6 
#
# 1 0.029298 -0.019045 -0.002374 0.000000 0.000000 0.000000
# 2 -0.019045 0.029298 -0.002374 0.000000 0.000000 0.000000
# 3 -0.002374 -0.002374 0.013826 0.000000 0.000000 0.000000
# 4 0.000000 0.000000 0.000000 1.952611 0.000000 0.000000
# 5 0.000000 0.000000 0.000000 0.000000 1.952611 0.000000
# 6 0.000000 0.000000 0.000000 0.000000 0.000000 0.043225
#
#
# Mechanical properties :
#
#
# Convention : Reuss Voigt Hill
#
# Bulk Modulus (GPa) = 40.26454 40.36308 40.31381
# Shear Modulus (GPa) = 1.22647 13.24500 7.23574
#
# Velocity S-wave (km/s) = 0.85879 2.82218 2.08593
# Velocity P-wave (km/s) = 5.01954 5.90689 5.48120
#
# Compressibility (1/GPa) = 0.02483575
#
# Stress axis : x y z
#
# Youngs Moduli (GPa) = 34.13252 34.13252 72.32983
#
# Poissons Ratio (x) = 0.65004 0.17170
# Poissons Ratio (y) = 0.65004 0.17170
# Poissons Ratio (z) = 0.08103 0.08103
#
# Static dielectric constant tensor:
#      x y z
#    x 1.548990 0.000000 0.000000 
#    y 0.000000 1.548990 0.000000 
#    z 0.000000 0.000000 1.601800 
# 
# From -- ./inp_files/10898.got.cif
#   From: 2010.05.17/outbox.cif.g08.bks.cpg/sg132_6_cif.got.tgz:10898.got - 2010.05.20 12:30:18.
