data_PCOD9567265
_publ_section_title
;
Structure prediction by ZEFSAII (Michael W. Deem and Ramdas Pophale) SiO2 
 PCOD9567265
Probable space group: P 42/M C M
;
_chemical_formula_sum "Si O2"
_cell_formula_units_Z 116
_cell_length_a 28.064730
_cell_length_b 28.064730
_cell_length_c 8.799447
_cell_angle_alpha 90.000000
_cell_angle_beta 90.000000
_cell_angle_gamma 90.000000
_cell_volume 6930.700257
_symmetry_space_group_name_H-M "P 42/M C M"
_symmetry_group_IT_number 132
_symmetry_cell_setting 'tetragonal'
loop_
_space_group_symop_operation_xyz
x,y,z
-y,x,1/2+z
-x,-y,z
y,-x,1/2+z
x,-y,1/2-z
-x,y,1/2-z
y,x,-z
-y,-x,-z
-x,-y,-z
y,-x,1/2-z
x,y,-z
-y,x,1/2-z
-x,y,1/2+z
x,-y,1/2+z
-y,-x,z
y,x,z
loop_
_atom_site_type_symbol
_atom_site_label
_atom_site_fract_x
_atom_site_fract_y
_atom_site_fract_z
Si Si1 0.264177 0.187592 0.317703
Si Si2 0.617013 0.617013 0.000000
Si Si3 0.637139 0.846214 0.817109
Si Si4 0.050206 0.328875 0.818182
Si Si5 0.773670 0.091192 0.682405
Si Si6 0.452343 0.313136 0.168452
Si Si7 0.214420 0.552413 0.818902
Si Si8 0.050366 0.129889 0.680877
O O1 0.268298 0.184614 0.500000
O O2 0.236026 0.236026 0.279121
O O3 0.315863 0.181165 0.242937
O O4 0.233356 0.142961 0.257200
O O5 0.586710 0.647191 0.130607
O O6 0.643112 0.901841 0.771623
O O7 0.590671 0.821891 0.749308
O O8 0.636794 0.843948 0.000000
O O9 0.061103 0.273696 0.777523
O O10 0.000000 0.344456 0.750000
O O11 0.047057 0.331554 0.000000
O O12 0.775152 0.096151 0.500000
O O13 0.820677 0.066288 0.743507
O O14 0.500000 0.332017 0.250000
O O15 0.434516 0.268060 0.264264
O O16 0.466784 0.294251 0.000000
O O17 0.205451 0.500000 0.750000
O O18 0.211221 0.552009 0.000000
O O19 0.046140 0.136455 0.500000
O O20 0.090454 0.090454 0.710756
O O21 0.000000 0.115010 0.750000
#
# Coordination Sequence:
#
# PCOD9567265 Si02
#       8
#    16   4  16  16  16  16  16  16
#     4  10  20  34  51  76 110 148 180 218 266 319
#     4   8  20  32  58  87 116 152 198 240 300 336
#     4  10  21  37  54  79 111 145 185 227 271 331
#     4   9  19  33  52  78 108 140 174 212 260 312
#     4  10  20  34  54  78 104 135 177 213 254 313
#     4   9  17  34  56  82 112 149 192 238 286 337
#     4  11  21  36  60  86 110 145 189 236 283 332
#     4  11  24  39  54  73  95 122 160 211 265 320
#
# _framework density 16.737126
#
# number of rings (size 3 to 8) (size 9 to 14) (size 15 to 20)
#    0.414    1.655    0.000    5.793    0.000    8.414 
#    1.241    2.069    0.000    1.034    0.000    2.897 
#    0.000    0.000    0.000    0.000    0.000    0.000 
#
# Total GULP energy -645906.051393 kJ/mol
# GULP energy per Si atom -5568.155615 kJ/mol
# Density = 1.669903 g / cm^3
# Si number density = 16.737126 Si / 1000 Ang^3
#
#
#
# Elastic Constant Matrix: (Units=GPa)
#
#
# Indices 1 2 3 4 5 6 
#
# 1 101.3375 81.9758 47.6307 0.0000 0.0000 0.0000
# 2 81.9758 101.3375 47.6307 0.0000 0.0000 0.0000
# 3 47.6307 47.6307 81.6420 0.0000 0.0000 0.0000
# 4 0.0000 0.0000 0.0000 30.4775 0.0000 0.0000
# 5 0.0000 0.0000 0.0000 0.0000 30.4775 0.0000
# 6 0.0000 0.0000 0.0000 0.0000 0.0000 14.6173
#
#
#
# Elastic Compliance Matrix: (Units=1/GPa)
#
#
# Indices 1 2 3 4 5 6 
#
# 1 0.029738 -0.021910 -0.004567 0.000000 0.000000 0.000000
# 2 -0.021910 0.029738 -0.004567 0.000000 0.000000 0.000000
# 3 -0.004567 -0.004567 0.017578 0.000000 0.000000 0.000000
# 4 0.000000 0.000000 0.000000 0.032811 0.000000 0.000000
# 5 0.000000 0.000000 0.000000 0.000000 0.032811 0.000000
# 6 0.000000 0.000000 0.000000 0.000000 0.000000 0.068412
#
#
# Mechanical properties :
#
#
# Convention : Reuss Voigt Hill
#
# Bulk Modulus (GPa) = 66.81871 70.97682 68.89777
# Shear Modulus (GPa) = 17.97486 22.25311 20.11398
#
# Velocity S-wave (km/s) = 3.28067 3.65028 3.47040
# Velocity P-wave (km/s) = 7.37289 7.76305 7.57048
#
# Compressibility (1/GPa) = 0.01496587
#
# Stress axis : x y z
#
# Youngs Moduli (GPa) = 33.62647 33.62647 56.89002
#
# Poissons Ratio (x) = 0.73675 0.25983
# Poissons Ratio (y) = 0.73675 0.25983
# Poissons Ratio (z) = 0.15358 0.15358
#
# Static dielectric constant tensor:
#      x y z
#    x 1.557480 0.000000 0.000000 
#    y 0.000000 1.557480 0.000000 
#    z 0.000000 0.000000 1.565040 
# 
# From -- ./inp_files/2076.got.cif
#   From: 2010.05.17/outbox.cif.g08.bks.cpg/sg132_2_cif.got.tgz:2076.got - 2010.05.20 12:30:18.
