data_PCOD9567529
_publ_section_title
;
Structure prediction by ZEFSAII (Michael W. Deem and Ramdas Pophale) SiO2 
 PCOD9567529
Probable space group: P 42/M C M
;
_chemical_formula_sum "Si O2"
_cell_formula_units_Z 84
_cell_length_a 12.386640
_cell_length_b 12.386640
_cell_length_c 26.376003
_cell_angle_alpha 90.000000
_cell_angle_beta 90.000000
_cell_angle_gamma 90.000000
_cell_volume 4046.839821
_symmetry_space_group_name_H-M "P 42/M C M"
_symmetry_group_IT_number 132
_symmetry_cell_setting 'tetragonal'
loop_
_space_group_symop_operation_xyz
x,y,z
-y,x,1/2+z
-x,-y,z
y,-x,1/2+z
x,-y,1/2-z
-x,y,1/2-z
y,x,-z
-y,-x,-z
-x,-y,-z
y,-x,1/2-z
x,y,-z
-y,x,1/2-z
-x,y,1/2+z
x,-y,1/2+z
-y,-x,z
y,x,z
loop_
_atom_site_type_symbol
_atom_site_label
_atom_site_fract_x
_atom_site_fract_y
_atom_site_fract_z
Si Si1 0.499999 0.266304 0.693324
Si Si2 0.702889 0.876941 0.663089
Si Si3 0.297113 0.876941 0.663089
Si Si4 0.371479 0.196614 0.057032
Si Si5 0.500000 0.500000 0.849136
Si Si6 0.196617 0.628520 0.057032
O O1 0.500000 0.313121 0.750000
O O2 0.395195 0.192187 0.686176
O O3 0.604801 0.192185 0.686176
O O4 0.500000 0.366839 0.655740
O O5 0.812891 0.812891 0.673672
O O6 0.679524 0.871212 0.602534
O O7 0.702842 1.000000 0.680246
O O8 0.187114 0.812887 0.673672
O O9 0.320477 0.871216 0.602534
O O10 0.313361 0.313361 0.059835
O O11 0.499999 0.202717 0.063691
O O12 0.350873 0.154631 0.000000
O O13 0.313366 0.686635 0.059836
O O14 0.154634 0.649127 0.000000
#
# Coordination Sequence:
#
# PCOD9567529 Si02
#       6
#    16  16  16  16   4  16
#     4  12  24  42  66  95 127 156 195 249 308 370
#     4  11  24  41  61  89 122 162 209 254 304 360
#     4  11  24  41  61  89 122 162 209 254 304 360
#     4   9  18  33  53  82 120 160 201 247 301 364
#     4  12  25  44  72 100 125 158 197 240 304 376
#     4   9  18  33  53  82 120 160 201 247 301 364
#
# _framework density 20.756938999999999
#
# number of rings (size 3 to 8) (size 9 to 14) (size 15 to 20)
#    0.000    1.524    3.810    1.429    0.000    3.048 
#    0.000    3.810    0.000    0.000    0.000    8.000 
#    0.000    0.000    0.000    0.000    0.000    0.000 
#
# Total GULP energy -468471.652725 kJ/mol
# GULP energy per Si atom -5577.043485 kJ/mol
# Density = 2.070970 g / cm^3
# Si number density = 20.756939 Si / 1000 Ang^3
#
#
#
# Elastic Constant Matrix: (Units=GPa)
#
#
# Indices 1 2 3 4 5 6 
#
# 1 129.6128 56.5294 -6.3671 0.0000 0.0000 0.0000
# 2 56.5294 129.6128 -6.3671 0.0000 0.0000 0.0000
# 3 -6.3671 -6.3671 56.7198 0.0000 0.0000 0.0000
# 4 0.0000 0.0000 0.0000 -12.0755 0.0000 0.0000
# 5 0.0000 0.0000 0.0000 0.0000 -12.0755 0.0000
# 6 0.0000 0.0000 0.0000 0.0000 0.0000 11.3882
#
#
#
# Elastic Compliance Matrix: (Units=1/GPa)
#
#
# Indices 1 2 3 4 5 6 
#
# 1 0.009548 -0.004135 0.000608 0.000000 0.000000 0.000000
# 2 -0.004135 0.009548 0.000608 0.000000 0.000000 0.000000
# 3 0.000608 0.000608 0.017767 0.000000 0.000000 0.000000
# 4 0.000000 0.000000 0.000000 -0.082812 0.000000 0.000000
# 5 0.000000 0.000000 0.000000 0.000000 -0.082812 0.000000
# 6 0.000000 0.000000 0.000000 0.000000 0.000000 0.087810
#
#
# Mechanical properties :
#
#
# Convention : Reuss Voigt Hill
#
# Bulk Modulus (GPa) = 32.23157 44.83733 38.53445
# Shear Modulus (GPa) = -201.85839 15.59077 -93.13381
#
# Velocity S-wave (km/s) = -9.87217 2.74361 -6.70568
# Velocity P-wave (km/s) = 10.69507 5.62891 6.43039
#
# Compressibility (1/GPa) = 0.03102548
#
# Stress axis : x y z
#
# Youngs Moduli (GPa) = 104.72960 104.72960 56.28426
#
# Poissons Ratio (x) = 0.43301 -0.03421
# Poissons Ratio (y) = 0.43301 -0.03421
# Poissons Ratio (z) = -0.06365 -0.06365
#
# Static dielectric constant tensor:
#      x y z
#    x 1.709080 0.000000 0.000000 
#    y 0.000000 1.709080 0.000000 
#    z 0.000000 0.000000 1.821890 
# 
# From -- ./inp_files/10745.got.cif
#   From: 2010.05.17/outbox.cif.g08.bks.cpg/sg132_6_cif.got.tgz:10745.got - 2010.05.20 12:30:18.
