data_PCOD9567543
_publ_section_title
;
Structure prediction by ZEFSAII (Michael W. Deem and Ramdas Pophale) SiO2 
 PCOD9567543
Probable space group: P 42/M C M
;
_chemical_formula_sum "Si O2"
_cell_formula_units_Z 80
_cell_length_a 18.103550
_cell_length_b 18.103550
_cell_length_c 14.600256
_cell_angle_alpha 90.000000
_cell_angle_beta 90.000000
_cell_angle_gamma 90.000000
_cell_volume 4785.066331
_symmetry_space_group_name_H-M "P 42/M C M"
_symmetry_group_IT_number 132
_symmetry_cell_setting 'tetragonal'
loop_
_space_group_symop_operation_xyz
x,y,z
-y,x,1/2+z
-x,-y,z
y,-x,1/2+z
x,-y,1/2-z
-x,y,1/2-z
y,x,-z
-y,-x,-z
-x,-y,-z
y,-x,1/2-z
x,y,-z
-y,x,1/2-z
-x,y,1/2+z
x,-y,1/2+z
-y,-x,z
y,x,z
loop_
_atom_site_type_symbol
_atom_site_label
_atom_site_fract_x
_atom_site_fract_y
_atom_site_fract_z
Si Si1 0.669805 0.965609 0.889640
Si Si2 0.885757 0.114244 0.888900
Si Si3 0.867997 0.637080 0.393541
Si Si4 0.762678 0.762678 0.610786
Si Si5 0.484762 0.917740 0.643129
Si Si6 0.952542 0.834012 0.887560
O O1 0.602563 0.910304 0.868925
O O2 0.750017 0.940818 0.857573
O O3 0.654676 0.049701 0.853987
O O4 0.672141 0.970581 0.000000
O O5 0.824523 0.175478 0.869043
O O6 0.966740 0.138486 0.857991
O O7 0.889270 0.110731 0.000000
O O8 0.873297 0.659350 0.500000
O O9 0.800191 0.685790 0.355400
O O10 0.862782 0.547975 0.391829
O O11 0.754268 0.754268 0.500000
O O12 0.500000 0.920973 0.750000
O O13 0.500000 0.000000 0.603010
O O14 0.889398 0.889398 0.855989
O O15 0.952292 0.834913 0.000000
#
# Coordination Sequence:
#
# PCOD9567543 Si02
#       6
#    16   8  16   8  16  16
#     4   9  15  24  38  55  76 101 132 167 201 238
#     4   9  13  20  31  50  78 106 136 170 205 228
#     4   9  15  24  39  58  77  99 129 163 201 238
#     4   9  14  21  36  57  80 102 126 165 203 230
#     4   9  17  27  39  54  73  99 129 166 201 243
#     4   9  15  21  32  52  78 107 137 170 203 232
#
# _framework density 16.718681
#
# number of rings (size 3 to 8) (size 9 to 14) (size 15 to 20)
#    0.000    3.000    2.000    0.900    0.000    3.600 
#    0.000    0.000    2.200    0.000    0.000    0.000 
#    0.000    0.000    0.000    0.900    0.400   18.300 
#
# Total GULP energy -445403.279981 kJ/mol
# GULP energy per Si atom -5567.541000 kJ/mol
# Density = 1.668063 g / cm^3
# Si number density = 16.718681 Si / 1000 Ang^3
#
#
#
# Elastic Constant Matrix: (Units=GPa)
#
#
# Indices 1 2 3 4 5 6 
#
# 1 103.3428 74.5128 1.2310 0.0000 0.0000 0.0000
# 2 74.5128 103.3431 1.2311 0.0000 0.0000 0.0000
# 3 1.2310 1.2311 26.7695 0.0000 0.0000 0.0000
# 4 0.0000 0.0000 0.0000 7.9250 0.0000 0.0000
# 5 0.0000 0.0000 0.0000 0.0000 7.9251 0.0000
# 6 0.0000 0.0000 0.0000 0.0000 0.0000 26.8326
#
#
#
# Elastic Compliance Matrix: (Units=1/GPa)
#
#
# Indices 1 2 3 4 5 6 
#
# 1 0.020156 -0.014530 -0.000259 0.000000 0.000000 0.000000
# 2 -0.014530 0.020156 -0.000259 0.000000 0.000000 0.000000
# 3 -0.000259 -0.000259 0.037380 0.000000 0.000000 0.000000
# 4 0.000000 0.000000 0.000000 0.126182 0.000000 0.000000
# 5 0.000000 0.000000 0.000000 0.000000 0.126182 0.000000
# 6 0.000000 0.000000 0.000000 0.000000 0.000000 0.037268
#
#
# Mechanical properties :
#
#
# Convention : Reuss Voigt Hill
#
# Bulk Modulus (GPa) = 21.00968 43.04502 32.02735
# Shear Modulus (GPa) = 12.09820 18.96857 15.53338
#
# Velocity S-wave (km/s) = 2.69296 3.37200 3.05143
# Velocity P-wave (km/s) = 4.71840 6.40024 5.62256
#
# Compressibility (1/GPa) = 0.04759710
#
# Stress axis : x y z
#
# Youngs Moduli (GPa) = 49.61289 49.61302 26.75242
#
# Poissons Ratio (x) = 0.72087 0.00692
# Poissons Ratio (y) = 0.72087 0.00692
# Poissons Ratio (z) = 0.01283 0.01284
#
# Static dielectric constant tensor:
#      x y z
#    x 1.587910 0.000000 0.000000 
#    y 0.000000 1.587910 0.000000 
#    z 0.000000 0.000000 1.651760 
# 
# From -- ./inp_files/6356.got.cif
#   From: 2010.05.17/outbox.cif.g08.bks.cpg/sg132_4_cif.got.tgz:6356.got - 2010.05.20 12:30:18.
