data_PCOD9567039
_publ_section_title
;
Structure prediction by ZEFSAII (Michael W. Deem and Ramdas Pophale) SiO2 
 PCOD9567039
Probable space group: P 42/M C M
;
_chemical_formula_sum "Si O2"
_cell_formula_units_Z 58
_cell_length_a 19.931417
_cell_length_b 19.931417
_cell_length_c 8.201075
_cell_angle_alpha 90.000000
_cell_angle_beta 90.000000
_cell_angle_gamma 90.000000
_cell_volume 3257.970402
_symmetry_space_group_name_H-M "P 42/M C M"
_symmetry_group_IT_number 132
_symmetry_cell_setting 'tetragonal'
loop_
_space_group_symop_operation_xyz
x,y,z
-y,x,1/2+z
-x,-y,z
y,-x,1/2+z
x,-y,1/2-z
-x,y,1/2-z
y,x,-z
-y,-x,-z
-x,-y,-z
y,-x,1/2-z
x,y,-z
-y,x,1/2-z
-x,y,1/2+z
x,-y,1/2+z
-y,-x,z
y,x,z
loop_
_atom_site_type_symbol
_atom_site_label
_atom_site_fract_x
_atom_site_fract_y
_atom_site_fract_z
Si Si1 0.815747 0.923819 0.305722
Si Si2 0.710564 0.179362 0.303147
Si Si3 0.574050 0.759368 0.195468
Si Si4 0.500000 0.500000 0.750000
Si Si5 0.395541 0.395541 0.199741
O O1 0.818772 0.922601 0.500000
O O2 0.876076 0.876076 0.241375
O O3 0.746610 0.888284 0.252938
O O4 0.821429 0.000000 0.250000
O O5 0.709751 0.179400 0.500000
O O6 0.759451 0.240550 0.251292
O O7 0.635661 0.195143 0.243553
O O8 0.500000 0.779002 0.250000
O O9 0.588302 0.681576 0.238576
O O10 0.575797 0.761673 0.000000
O O11 0.555662 0.444339 0.801186
O O12 0.405966 0.405966 0.000000
#
# Coordination Sequence:
#
# PCOD9567039 Si02
#       5
#    16  16  16   2   8
#     4  10  21  36  56  84 115 143 173 206 244 297
#     4   9  17  32  54  74  99 137 179 220 263 311
#     4  10  19  32  48  69  97 132 175 222 269 316
#     4  12  18  28  44  58 100 140 178 216 266 328
#     4  10  19  29  41  62  93 131 173 215 264 317
#
# _framework density 17.802495
#
# number of rings (size 3 to 8) (size 9 to 14) (size 15 to 20)
#    0.000    2.207    2.759    1.034    0.000    3.034 
#    0.000    2.069    0.000    0.828    0.000    5.793 
#    0.000    0.000    0.000    0.000    0.000    0.000 
#
# Total GULP energy -323204.399438 kJ/mol
# GULP energy per Si atom -5572.489645 kJ/mol
# Density = 1.776198 g / cm^3
# Si number density = 17.802495 Si / 1000 Ang^3
#
#
#
# Elastic Constant Matrix: (Units=GPa)
#
#
# Indices 1 2 3 4 5 6 
#
# 1 135.1749 86.8156 17.7610 0.0000 0.0000 0.0000
# 2 86.8156 135.1749 17.7610 0.0000 0.0000 0.0000
# 3 17.7610 17.7610 16.8530 0.0000 0.0000 0.0000
# 4 0.0000 0.0000 0.0000 14.1747 0.0000 0.0000
# 5 0.0000 0.0000 0.0000 0.0000 14.1747 0.0000
# 6 0.0000 0.0000 0.0000 0.0000 0.0000 18.1224
#
#
#
# Elastic Compliance Matrix: (Units=1/GPa)
#
#
# Indices 1 2 3 4 5 6 
#
# 1 0.013048 -0.007630 -0.005710 0.000000 0.000000 0.000000
# 2 -0.007630 0.013048 -0.005710 0.000000 0.000000 0.000000
# 3 -0.005710 -0.005710 0.071373 0.000000 0.000000 0.000000
# 4 0.000000 0.000000 0.000000 0.070548 0.000000 0.000000
# 5 0.000000 0.000000 0.000000 0.000000 0.070548 0.000000
# 6 0.000000 0.000000 0.000000 0.000000 0.000000 0.055180
#
#
# Mechanical properties :
#
#
# Convention : Reuss Voigt Hill
#
# Bulk Modulus (GPa) = 16.84408 59.09757 37.97083
# Shear Modulus (GPa) = 14.21919 20.28537 17.25228
#
# Velocity S-wave (km/s) = 2.82923 3.37926 3.11640
# Velocity P-wave (km/s) = 4.48942 6.96378 5.85871
#
# Compressibility (1/GPa) = 0.05936802
#
# Stress axis : x y z
#
# Youngs Moduli (GPa) = 76.63719 76.63719 14.01097
#
# Poissons Ratio (x) = 0.58475 0.08001
# Poissons Ratio (y) = 0.58475 0.08001
# Poissons Ratio (z) = 0.43763 0.43763
#
# Static dielectric constant tensor:
#      x y z
#    x 1.606600 0.000000 0.000000 
#    y 0.000000 1.606600 0.000000 
#    z 0.000000 0.000000 1.648630 
# 
# From -- ./inp_files/1019.got.cif
#   From: 2010.05.17/outbox.cif.g08.bks.cpg/sg132_1_cif.got.tgz:1019.got - 2010.05.20 12:30:18.
