data_PCOD9567876
_publ_section_title
;
Structure prediction by ZEFSAII (Michael W. Deem and Ramdas Pophale) SiO2 
 PCOD9567876
Probable space group: P 42/N B C
;
_chemical_formula_sum "Si O2"
_cell_formula_units_Z 72
_cell_length_a 20.609178
_cell_length_b 20.609178
_cell_length_c 8.534863
_cell_angle_alpha 90.000000
_cell_angle_beta 90.000000
_cell_angle_gamma 90.000000
_cell_volume 3625.082500
_symmetry_space_group_name_H-M "P 42/N B C"
_symmetry_group_IT_number 133
_space_group.IT_coordinate_system_code '2'
_symmetry_cell_setting 'tetragonal'
loop_
_space_group_symop_operation_xyz
x,y,z
1/2-y,x,1/2+z
1/2-x,1/2-y,z
y,1/2-x,1/2+z
x,1/2-y,-z
1/2-x,y,-z
y,x,1/2-z
1/2-y,1/2-x,1/2-z
-x,-y,-z
1/2+y,-x,1/2-z
1/2+x,1/2+y,-z
-y,1/2+x,1/2-z
-x,1/2+y,z
1/2+x,-y,z
-y,-x,1/2+z
1/2+y,1/2+x,1/2+z
loop_
_atom_site_type_symbol
_atom_site_label
_atom_site_fract_x
_atom_site_fract_y
_atom_site_fract_z
Si Si1 0.862314 0.750000 0.000000
Si Si2 0.929494 0.884290 0.072444
Si Si3 0.250000 0.750000 0.250000
Si Si4 0.627385 0.184822 0.431859
Si Si5 0.250000 0.250000 0.250000
Si Si6 0.897634 0.428109 0.674099
Si Si7 0.549443 0.950558 0.250000
O O1 0.903936 0.813592 0.030504
O O2 0.813966 0.746699 0.146117
O O3 0.905630 0.905630 0.250000
O O4 0.006616 0.885717 0.082021
O O5 0.917683 0.925967 0.912914
O O6 0.208118 0.696623 0.148029
O O7 0.598845 0.250000 0.500000
O O8 0.626654 0.132754 0.571055
O O9 0.577550 0.151735 0.315672
O O10 0.971736 0.434897 0.738624
#
# Coordination Sequence:
#
# PCOD9567876 Si02
#       7
#     8  16   4  16   4  16   8
#     4  11  24  44  74 106 141 190 242 306 367 450
#     4  12  25  46  76 113 146 191 251 306 372 450
#     4  12  26  44  66  96 162 192 254 320 374 440
#     4  12  26  43  71 103 143 203 247 306 372 451
#     4  10  22  48  72  98 148 194 232 296 400 440
#     4  12  25  46  75 104 147 196 250 305 383 443
#     4  12  25  49  76 109 154 201 238 315 379 446
#
# _framework density 19.861616000000001
#
# number of rings (size 3 to 8) (size 9 to 14) (size 15 to 20)
#    0.000    0.222    6.667    3.000    0.000    3.556 
#    0.000    2.222    0.000    0.000    0.000    0.000 
#    0.000    0.000    0.000    0.000    0.000    0.000 
#
# Total GULP energy -400860.633444 kJ/mol
# GULP energy per Si atom -5567.508798 kJ/mol
# Density = 1.981641 g / cm^3
# Si number density = 19.861616 Si / 1000 Ang^3
#
#
#
# Elastic Constant Matrix: (Units=GPa)
#
#
# Indices 1 2 3 4 5 6 
#
# 1 109.9748 43.1633 56.0532 0.0000 0.0000 0.0000
# 2 43.1633 109.9754 56.0533 0.0000 0.0000 0.0000
# 3 56.0532 56.0533 131.1956 0.0000 0.0000 0.0000
# 4 0.0000 0.0000 0.0000 33.2783 0.0000 0.0000
# 5 0.0000 0.0000 0.0000 0.0000 33.2780 0.0000
# 6 0.0000 0.0000 0.0000 0.0000 0.0000 35.9111
#
#
#
# Elastic Compliance Matrix: (Units=1/GPa)
#
#
# Indices 1 2 3 4 5 6 
#
# 1 0.012235 -0.002733 -0.004060 0.000000 0.000000 0.000000
# 2 -0.002733 0.012235 -0.004060 0.000000 0.000000 0.000000
# 3 -0.004060 -0.004060 0.011091 0.000000 0.000000 0.000000
# 4 0.000000 0.000000 0.000000 0.030050 0.000000 0.000000
# 5 0.000000 0.000000 0.000000 0.000000 0.030050 0.000000
# 6 0.000000 0.000000 0.000000 0.000000 0.000000 0.027847
#
#
# Mechanical properties :
#
#
# Convention : Reuss Voigt Hill
#
# Bulk Modulus (GPa) = 72.16914 73.52061 72.84487
# Shear Modulus (GPa) = 33.37118 33.55186 33.46152
#
# Velocity S-wave (km/s) = 4.10345 4.11455 4.10900
# Velocity P-wave (km/s) = 7.67242 7.72460 7.69855
#
# Compressibility (1/GPa) = 0.01385634
#
# Stress axis : x y z
#
# Youngs Moduli (GPa) = 81.73443 81.73495 90.16124
#
# Poissons Ratio (x) = 0.22336 0.36603
# Poissons Ratio (y) = 0.22336 0.36603
# Poissons Ratio (z) = 0.33182 0.33182
#
# Static dielectric constant tensor:
#      x y z
#    x 1.682260 0.000000 0.000000 
#    y 0.000000 1.682260 0.000000 
#    z 0.000000 0.000000 1.708640 
# 
# From -- ./inp_files/1752.got.cif
#   From: 2010.05.17/outbox.cif.g08.bks.cpg/sg133_1_cif.got.tgz:1752.got - 2010.05.20 12:37:36.
