data_PCOD9567240
_publ_section_title
;
Structure prediction by ZEFSAII (Michael W. Deem and Ramdas Pophale) SiO2 
 PCOD9567240
Probable space group: P 42/M C M
;
_chemical_formula_sum "Si O2"
_cell_formula_units_Z 96
_cell_length_a 23.657801
_cell_length_b 23.657801
_cell_length_c 10.142149
_cell_angle_alpha 90.000000
_cell_angle_beta 90.000000
_cell_angle_gamma 90.000000
_cell_volume 5676.475075
_symmetry_space_group_name_H-M "P 42/M C M"
_symmetry_group_IT_number 132
_symmetry_cell_setting 'tetragonal'
loop_
_space_group_symop_operation_xyz
x,y,z
-y,x,1/2+z
-x,-y,z
y,-x,1/2+z
x,-y,1/2-z
-x,y,1/2-z
y,x,-z
-y,-x,-z
-x,-y,-z
y,-x,1/2-z
x,y,-z
-y,x,1/2-z
-x,y,1/2+z
x,-y,1/2+z
-y,-x,z
y,x,z
loop_
_atom_site_type_symbol
_atom_site_label
_atom_site_fract_x
_atom_site_fract_y
_atom_site_fract_z
Si Si1 0.246117 0.953621 0.000000
Si Si2 0.549351 0.232794 0.151955
Si Si3 0.619379 0.038285 0.000000
Si Si4 0.914658 0.754540 0.000000
Si Si5 0.382223 0.091970 0.000000
Si Si6 0.321874 0.770902 0.159015
Si Si7 0.861828 0.232011 0.221661
Si Si8 0.439386 0.894389 0.771874
O O1 0.229809 0.915594 0.125606
O O2 0.227765 0.019147 0.000000
O O3 0.313591 0.958285 0.000000
O O4 0.500000 0.253457 0.250000
O O5 0.613969 0.243044 0.198423
O O6 0.547112 0.164583 0.156202
O O7 0.542219 0.251757 0.000000
O O8 0.597826 0.068642 0.868953
O O9 0.600225 0.973747 0.000000
O O10 0.883712 0.775324 0.869158
O O11 0.908581 0.685853 0.000000
O O12 0.408375 0.117166 0.866564
O O13 0.279983 0.720018 0.195707
O O14 0.292010 0.828404 0.208865
O O15 0.322681 0.776322 0.000000
O O16 0.815732 0.184269 0.185510
O O17 0.500000 0.922930 0.750000
#
# Coordination Sequence:
#
# PCOD9567240 Si02
#       8
#     8  16   8   8   8  16  16  16
#     4  11  21  36  57  76 100 136 172 200 241 315
#     4  10  20  33  50  70  95 129 167 209 254 302
#     4  11  21  35  48  65  90 123 167 209 249 286
#     4  11  23  36  51  78 110 132 158 204 261 311
#     4  11  23  33  48  65  88 129 165 203 255 294
#     4   9  17  32  55  78 100 134 178 217 255 306
#     4  11  21  36  56  80 106 134 168 210 257 305
#     4  11  22  33  45  63  89 124 170 214 251 288
#
# _framework density 16.911904
#
# number of rings (size 3 to 8) (size 9 to 14) (size 15 to 20)
#    0.000    1.500    1.667    5.000    3.500    4.667 
#    1.500    0.000    0.000    0.000    0.000    0.000 
#    0.000   23.667    0.000    4.167    0.000    0.000 
#
# Total GULP energy -535821.459536 kJ/mol
# GULP energy per Si atom -5581.473537 kJ/mol
# Density = 1.687341 g / cm^3
# Si number density = 16.911904 Si / 1000 Ang^3
#
#
#
# Elastic Constant Matrix: (Units=GPa)
#
#
# Indices 1 2 3 4 5 6 
#
# 1 64.3415 12.1321 13.4666 0.0000 0.0000 0.0000
# 2 12.1321 64.3415 13.4666 0.0000 0.0000 0.0000
# 3 13.4666 13.4666 82.2684 0.0000 0.0000 0.0000
# 4 0.0000 0.0000 0.0000 28.1630 0.0000 0.0000
# 5 0.0000 0.0000 0.0000 0.0000 28.1630 0.0000
# 6 0.0000 0.0000 0.0000 0.0000 0.0000 12.7563
#
#
#
# Elastic Compliance Matrix: (Units=1/GPa)
#
#
# Indices 1 2 3 4 5 6 
#
# 1 0.016515 -0.002639 -0.002271 0.000000 0.000000 0.000000
# 2 -0.002639 0.016515 -0.002271 0.000000 0.000000 0.000000
# 3 -0.002271 -0.002271 0.012899 0.000000 0.000000 0.000000
# 4 0.000000 0.000000 0.000000 0.035508 0.000000 0.000000
# 5 0.000000 0.000000 0.000000 0.000000 0.035508 0.000000
# 6 0.000000 0.000000 0.000000 0.000000 0.000000 0.078393
#
#
# Mechanical properties :
#
#
# Convention : Reuss Voigt Hill
#
# Bulk Modulus (GPa) = 31.67968 32.12023 31.89996
# Shear Modulus (GPa) = 22.70436 25.27551 23.98994
#
# Velocity S-wave (km/s) = 3.66800 3.87012 3.77042
# Velocity P-wave (km/s) = 6.05903 6.24535 6.15289
#
# Compressibility (1/GPa) = 0.03156597
#
# Stress axis : x y z
#
# Youngs Moduli (GPa) = 60.55096 60.55096 77.52558
#
# Poissons Ratio (x) = 0.15977 0.17610
# Poissons Ratio (y) = 0.15977 0.17610
# Poissons Ratio (z) = 0.13754 0.13754
#
# Static dielectric constant tensor:
#      x y z
#    x 1.581530 0.000000 0.000000 
#    y 0.000000 1.581530 0.000000 
#    z 0.000000 0.000000 1.587560 
# 
# From -- ./inp_files/1872.got.cif
#   From: 2010.05.17/outbox.cif.g08.bks.cpg/sg132_1_cif.got.tgz:1872.got - 2010.05.20 12:30:18.
