data_PCOD9567677
_publ_section_title
;
Structure prediction by ZEFSAII (Michael W. Deem and Ramdas Pophale) SiO2 
 PCOD9567677
Probable space group: P 42/N B C
;
_chemical_formula_sum "Si O2"
_cell_formula_units_Z 112
_cell_length_a 14.158879
_cell_length_b 14.158879
_cell_length_c 28.791307
_cell_angle_alpha 90.000000
_cell_angle_beta 90.000000
_cell_angle_gamma 90.000000
_cell_volume 5771.904291
_symmetry_space_group_name_H-M "P 42/N B C"
_symmetry_group_IT_number 133
_space_group.IT_coordinate_system_code '2'
_symmetry_cell_setting 'tetragonal'
loop_
_space_group_symop_operation_xyz
x,y,z
1/2-y,x,1/2+z
1/2-x,1/2-y,z
y,1/2-x,1/2+z
x,1/2-y,-z
1/2-x,y,-z
y,x,1/2-z
1/2-y,1/2-x,1/2-z
-x,-y,-z
1/2+y,-x,1/2-z
1/2+x,1/2+y,-z
-y,1/2+x,1/2-z
-x,1/2+y,z
1/2+x,-y,z
-y,-x,1/2+z
1/2+y,1/2+x,1/2+z
loop_
_atom_site_type_symbol
_atom_site_label
_atom_site_fract_x
_atom_site_fract_y
_atom_site_fract_z
Si Si1 0.553349 0.250000 0.000000
Si Si2 0.202077 0.891952 0.252893
Si Si3 0.682915 0.591720 0.794863
Si Si4 0.750000 0.750000 0.362131
Si Si5 0.514953 0.516516 0.076850
Si Si6 0.950713 0.731695 0.905683
Si Si7 0.140037 0.544452 0.990437
Si Si8 0.883987 0.017052 0.660511
O O1 0.488136 0.269846 0.044905
O O2 0.615082 0.343468 0.990620
O O3 0.302787 0.851093 0.270400
O O4 0.133567 0.918106 0.295556
O O5 0.215275 0.988457 0.223175
O O6 0.655278 0.655278 0.750000
O O7 0.746344 0.656901 0.828753
O O8 0.583678 0.578395 0.821481
O O9 0.751861 0.841453 0.394613
O O10 0.525430 0.622488 0.093686
O O11 0.582820 0.500888 0.033026
O O12 0.546564 0.450477 0.118626
O O13 0.408417 0.503321 0.056517
O O14 0.002508 0.783164 0.863596
O O15 0.250000 0.529467 0.000000
#
# Coordination Sequence:
#
# PCOD9567677 Si02
#       8
#     8  16  16   8  16  16  16  16
#     4  10  19  41  58  84 134 158 209 256 307 372
#     4  10  23  42  62  93 128 162 204 258 326 383
#     4   9  20  39  60  87 119 160 207 262 311 376
#     4  10  21  37  60  92 120 160 220 251 309 380
#     4  10  22  39  60  92 123 160 211 259 303 377
#     4  10  22  37  60  89 121 168 203 262 308 358
#     4  10  21  39  61  89 124 168 207 253 318 367
#     4  10  21  41  63  86 124 159 210 260 307 381
#
# _framework density 19.404340000000001
#
# number of rings (size 3 to 8) (size 9 to 14) (size 15 to 20)
#    0.000    2.143    1.429    0.429    4.000    2.571 
#    0.000    2.857    0.000    0.000    0.000    0.000 
#    0.000    0.000    0.000    0.000    0.000    0.000 
#
# Total GULP energy -624356.162813 kJ/mol
# GULP energy per Si atom -5574.608597 kJ/mol
# Density = 1.936017 g / cm^3
# Si number density = 19.404340 Si / 1000 Ang^3
#
#
#
# Elastic Constant Matrix: (Units=GPa)
#
#
# Indices 1 2 3 4 5 6 
#
# 1 79.1606 25.6709 15.1098 0.0000 0.0000 0.0000
# 2 25.6709 79.1606 15.1098 0.0000 0.0000 0.0000
# 3 15.1098 15.1098 59.3587 0.0000 0.0000 0.0000
# 4 0.0000 0.0000 0.0000 23.6842 0.0000 0.0000
# 5 0.0000 0.0000 0.0000 0.0000 23.6842 0.0000
# 6 0.0000 0.0000 0.0000 0.0000 0.0000 11.9507
#
#
#
# Elastic Compliance Matrix: (Units=1/GPa)
#
#
# Indices 1 2 3 4 5 6 
#
# 1 0.014495 -0.004200 -0.002620 0.000000 0.000000 0.000000
# 2 -0.004200 0.014495 -0.002620 0.000000 0.000000 0.000000
# 3 -0.002620 -0.002620 0.018181 0.000000 0.000000 0.000000
# 4 0.000000 0.000000 0.000000 0.042222 0.000000 0.000000
# 5 0.000000 0.000000 0.000000 0.000000 0.042222 0.000000
# 6 0.000000 0.000000 0.000000 0.000000 0.000000 0.083677
#
#
# Mechanical properties :
#
#
# Convention : Reuss Voigt Hill
#
# Bulk Modulus (GPa) = 35.35075 36.60677 35.97876
# Shear Modulus (GPa) = 20.52513 22.64979 21.58746
#
# Velocity S-wave (km/s) = 3.25585 3.42022 3.33904
# Velocity P-wave (km/s) = 5.69136 5.87396 5.78338
#
# Compressibility (1/GPa) = 0.02828794
#
# Stress axis : x y z
#
# Youngs Moduli (GPa) = 68.99004 68.99004 55.00306
#
# Poissons Ratio (x) = 0.28978 0.14413
# Poissons Ratio (y) = 0.28978 0.14413
# Poissons Ratio (z) = 0.18079 0.18079
#
# Static dielectric constant tensor:
#      x y z
#    x 1.695280 0.000000 0.000000 
#    y 0.000000 1.695280 0.000000 
#    z 0.000000 0.000000 1.694550 
# 
# From -- ./inp_files/7700.got.cif
#   From: 2010.05.17/outbox.cif.g08.bks.cpg/sg133_4_cif.got.tgz:7700.got - 2010.05.20 12:37:36.
