data_PCOD9567963
_publ_section_title
;
Structure prediction by ZEFSAII (Michael W. Deem and Ramdas Pophale) SiO2 
 PCOD9567963
Probable space group: P 42/N B C
;
_chemical_formula_sum "Si O2"
_cell_formula_units_Z 96
_cell_length_a 14.696086
_cell_length_b 14.696086
_cell_length_c 22.289564
_cell_angle_alpha 90.000000
_cell_angle_beta 90.000000
_cell_angle_gamma 90.000000
_cell_volume 4813.987330
_symmetry_space_group_name_H-M "P 42/N B C"
_symmetry_group_IT_number 133
_space_group.IT_coordinate_system_code '2'
_symmetry_cell_setting 'tetragonal'
loop_
_space_group_symop_operation_xyz
x,y,z
1/2-y,x,1/2+z
1/2-x,1/2-y,z
y,1/2-x,1/2+z
x,1/2-y,-z
1/2-x,y,-z
y,x,1/2-z
1/2-y,1/2-x,1/2-z
-x,-y,-z
1/2+y,-x,1/2-z
1/2+x,1/2+y,-z
-y,1/2+x,1/2-z
-x,1/2+y,z
1/2+x,-y,z
-y,-x,1/2+z
1/2+y,1/2+x,1/2+z
loop_
_atom_site_type_symbol
_atom_site_label
_atom_site_fract_x
_atom_site_fract_y
_atom_site_fract_z
Si Si1 0.695112 0.615549 0.122785
Si Si2 0.490943 0.264706 0.734357
Si Si3 0.435159 0.559264 0.206026
Si Si4 0.155770 0.508256 0.015391
Si Si5 0.047990 0.020357 0.409818
Si Si6 0.887599 0.707436 0.154083
O O1 0.680703 0.544116 0.176336
O O2 0.694275 0.570834 0.058330
O O3 0.792309 0.657507 0.141611
O O4 0.621975 0.695392 0.123039
O O5 0.540015 0.172600 0.713113
O O6 0.545200 0.337510 0.774303
O O7 0.409352 0.230043 0.777149
O O8 0.491351 0.491351 0.250000
O O9 0.468064 0.531744 0.139478
O O10 0.076008 0.552057 0.056209
O O11 0.250000 0.561064 0.000000
O O12 0.100014 0.470531 0.958442
O O13 0.141006 0.038060 0.373894
#
# Coordination Sequence:
#
# PCOD9567963 Si02
#       6
#    16  16  16  16  16  16
#     4  11  22  38  64  98 131 167 219 283 351 410
#     4  12  23  39  66  96 136 176 220 274 350 414
#     4  12  23  42  65  95 134 178 224 278 340 414
#     4  11  22  41  64  92 129 181 225 270 335 412
#     4  11  23  40  62  93 133 175 224 276 337 410
#     4  11  21  38  62 100 135 165 215 288 346 407
#
# _framework density 19.941887999999999
#
# number of rings (size 3 to 8) (size 9 to 14) (size 15 to 20)
#    0.000    0.667    5.000    4.000    0.000    2.333 
#    0.000    0.000    0.000    0.000    0.000   10.500 
#    0.000    0.000    0.000    0.000    0.000    0.000 
#
# Total GULP energy -535895.881500 kJ/mol
# GULP energy per Si atom -5582.248766 kJ/mol
# Density = 1.989650 g / cm^3
# Si number density = 19.941888 Si / 1000 Ang^3
#
#
#
# Elastic Constant Matrix: (Units=GPa)
#
#
# Indices 1 2 3 4 5 6 
#
# 1 104.0380 35.3930 30.4236 0.0000 0.0000 0.0000
# 2 35.3930 104.0380 30.4236 0.0000 0.0000 0.0000
# 3 30.4236 30.4236 124.5943 0.0000 0.0000 0.0000
# 4 0.0000 0.0000 0.0000 14.5101 0.0000 0.0000
# 5 0.0000 0.0000 0.0000 0.0000 14.5101 0.0000
# 6 0.0000 0.0000 0.0000 0.0000 0.0000 11.9894
#
#
#
# Elastic Compliance Matrix: (Units=1/GPa)
#
#
# Indices 1 2 3 4 5 6 
#
# 1 0.011298 -0.003270 -0.001960 0.000000 0.000000 0.000000
# 2 -0.003270 0.011298 -0.001960 0.000000 0.000000 0.000000
# 3 -0.001960 -0.001960 0.008983 0.000000 0.000000 0.000000
# 4 0.000000 0.000000 0.000000 0.068918 0.000000 0.000000
# 5 0.000000 0.000000 0.000000 0.000000 0.068918 0.000000
# 6 0.000000 0.000000 0.000000 0.000000 0.000000 0.083407
#
#
# Mechanical properties :
#
#
# Convention : Reuss Voigt Hill
#
# Bulk Modulus (GPa) = 58.14782 58.35008 58.24895
# Shear Modulus (GPa) = 18.31943 23.96391 21.14167
#
# Velocity S-wave (km/s) = 3.03420 3.47030 3.25955
# Velocity P-wave (km/s) = 6.44182 6.73653 6.59082
#
# Compressibility (1/GPa) = 0.01719755
#
# Stress axis : x y z
#
# Youngs Moduli (GPa) = 88.51467 88.51467 111.31758
#
# Poissons Ratio (x) = 0.28946 0.21820
# Poissons Ratio (y) = 0.28946 0.21820
# Poissons Ratio (z) = 0.17350 0.17350
#
# Static dielectric constant tensor:
#      x y z
#    x 1.736310 0.000000 0.000000 
#    y 0.000000 1.736310 0.000000 
#    z 0.000000 0.000000 1.714910 
# 
# From -- ./inp_files/6540.got.cif
#   From: 2010.05.17/outbox.cif.g08.bks.cpg/sg133_4_cif.got.tgz:6540.got - 2010.05.20 12:37:36.
