data_PCOD9567858
_publ_section_title
;
Structure prediction by ZEFSAII (Michael W. Deem and Ramdas Pophale) SiO2 
 PCOD9567858
Probable space group: P 42/N B C
;
_chemical_formula_sum "Si O2"
_cell_formula_units_Z 112
_cell_length_a 14.394339
_cell_length_b 14.394339
_cell_length_c 31.293785
_cell_angle_alpha 90.000000
_cell_angle_beta 90.000000
_cell_angle_gamma 90.000000
_cell_volume 6483.978222
_symmetry_space_group_name_H-M "P 42/N B C"
_symmetry_group_IT_number 133
_space_group.IT_coordinate_system_code '2'
_symmetry_cell_setting 'tetragonal'
loop_
_space_group_symop_operation_xyz
x,y,z
1/2-y,x,1/2+z
1/2-x,1/2-y,z
y,1/2-x,1/2+z
x,1/2-y,-z
1/2-x,y,-z
y,x,1/2-z
1/2-y,1/2-x,1/2-z
-x,-y,-z
1/2+y,-x,1/2-z
1/2+x,1/2+y,-z
-y,1/2+x,1/2-z
-x,1/2+y,z
1/2+x,-y,z
-y,-x,1/2+z
1/2+y,1/2+x,1/2+z
loop_
_atom_site_type_symbol
_atom_site_label
_atom_site_fract_x
_atom_site_fract_y
_atom_site_fract_z
Si Si1 0.244499 0.515330 0.844240
Si Si2 0.067592 0.587792 0.111191
Si Si3 0.999840 0.753942 0.167816
Si Si4 0.926911 0.415641 0.108079
Si Si5 0.399873 0.724871 0.745081
Si Si6 0.250600 0.859841 0.551008
Si Si7 0.333898 0.319583 0.701632
O O1 0.337779 0.560421 0.863837
O O2 0.164302 0.525126 0.879392
O O3 0.205405 0.565448 0.802012
O O4 0.271953 0.417240 0.823713
O O5 0.095580 0.655734 0.071622
O O6 0.011075 0.659224 0.141468
O O7 0.009120 0.492602 0.102815
O O8 0.898445 0.794797 0.171118
O O9 0.055779 0.838421 0.145499
O O10 0.028654 0.731823 0.216378
O O11 0.906176 0.344321 0.069219
O O12 0.323896 0.650007 0.757924
O O13 0.250000 0.750000 0.563067
O O14 0.250000 0.867341 0.500000
O O15 0.250000 0.250000 0.707200
O O16 0.356775 0.356775 0.750000
#
# Coordination Sequence:
#
# PCOD9567858 Si02
#       7
#    16  16  16  16  16  16  16
#     4  12  21  36  56  83 115 156 203 245 289 334
#     4  11  23  38  61  88 117 151 192 238 291 352
#     4  11  21  36  53  82 112 152 206 242 282 340
#     4  11  23  38  61  89 117 151 192 241 292 350
#     4  11  21  31  51  79 114 152 196 253 297 328
#     4  10  22  42  69  95 117 143 184 239 301 367
#     4  11  23  36  50  73 117 165 201 240 286 330
#
# _framework density 17.273346
#
# number of rings (size 3 to 8) (size 9 to 14) (size 15 to 20)
#    0.000    1.000    7.143    0.857    0.000    0.571 
#    0.000    1.429    0.000    0.000    0.000    1.000 
#    0.000    0.000    0.000    0.000    0.000    0.000 
#
# Total GULP energy -623777.615614 kJ/mol
# GULP energy per Si atom -5569.442997 kJ/mol
# Density = 1.723403 g / cm^3
# Si number density = 17.273346 Si / 1000 Ang^3
#
#
#
# Elastic Constant Matrix: (Units=GPa)
#
#
# Indices 1 2 3 4 5 6 
#
# 1 60.5686 18.9288 31.0609 0.0000 0.0000 0.0000
# 2 18.9288 60.5686 31.0609 0.0000 0.0000 0.0000
# 3 31.0609 31.0609 79.6367 0.0000 0.0000 0.0000
# 4 0.0000 0.0000 0.0000 23.1035 0.0000 0.0000
# 5 0.0000 0.0000 0.0000 0.0000 23.1035 0.0000
# 6 0.0000 0.0000 0.0000 0.0000 0.0000 32.6656
#
#
#
# Elastic Compliance Matrix: (Units=1/GPa)
#
#
# Indices 1 2 3 4 5 6 
#
# 1 0.021055 -0.002961 -0.007057 0.000000 0.000000 0.000000
# 2 -0.002961 0.021055 -0.007057 0.000000 0.000000 0.000000
# 3 -0.007057 -0.007057 0.018062 0.000000 0.000000 0.000000
# 4 0.000000 0.000000 0.000000 0.043283 0.000000 0.000000
# 5 0.000000 0.000000 0.000000 0.000000 0.043283 0.000000
# 6 0.000000 0.000000 0.000000 0.000000 0.000000 0.030613
#
#
# Mechanical properties :
#
#
# Convention : Reuss Voigt Hill
#
# Bulk Modulus (GPa) = 38.43064 40.31947 39.37506
# Shear Modulus (GPa) = 22.70919 23.75609 23.23264
#
# Velocity S-wave (km/s) = 3.62981 3.71253 3.67140
# Velocity P-wave (km/s) = 6.31381 6.46296 6.38882
#
# Compressibility (1/GPa) = 0.02602091
#
# Stress axis : x y z
#
# Youngs Moduli (GPa) = 47.49557 47.49557 55.36474
#
# Poissons Ratio (x) = 0.14063 0.39072
# Poissons Ratio (y) = 0.14063 0.39072
# Poissons Ratio (z) = 0.33518 0.33518
#
# Static dielectric constant tensor:
#      x y z
#    x 1.584140 0.000000 0.000000 
#    y 0.000000 1.584140 0.000000 
#    z 0.000000 0.000000 1.587260 
# 
# From -- ./inp_files/8086.got.cif
#   From: 2010.05.17/outbox.cif.g08.bks.cpg/sg133_5_cif.got.tgz:8086.got - 2010.05.20 12:37:36.
