data_PCOD9567973
_publ_section_title
;
Structure prediction by ZEFSAII (Michael W. Deem and Ramdas Pophale) SiO2 
 PCOD9567973
Probable space group: P 42/N B C
;
_chemical_formula_sum "Si O2"
_cell_formula_units_Z 112
_cell_length_a 14.754758
_cell_length_b 14.754758
_cell_length_c 26.244372
_cell_angle_alpha 90.000000
_cell_angle_beta 90.000000
_cell_angle_gamma 90.000000
_cell_volume 5713.475464
_symmetry_space_group_name_H-M "P 42/N B C"
_symmetry_group_IT_number 133
_space_group.IT_coordinate_system_code '2'
_symmetry_cell_setting 'tetragonal'
loop_
_space_group_symop_operation_xyz
x,y,z
1/2-y,x,1/2+z
1/2-x,1/2-y,z
y,1/2-x,1/2+z
x,1/2-y,-z
1/2-x,y,-z
y,x,1/2-z
1/2-y,1/2-x,1/2-z
-x,-y,-z
1/2+y,-x,1/2-z
1/2+x,1/2+y,-z
-y,1/2+x,1/2-z
-x,1/2+y,z
1/2+x,-y,z
-y,-x,1/2+z
1/2+y,1/2+x,1/2+z
loop_
_atom_site_type_symbol
_atom_site_label
_atom_site_fract_x
_atom_site_fract_y
_atom_site_fract_z
Si Si1 0.404580 0.568987 0.357458
Si Si2 0.251585 0.465071 0.609152
Si Si3 0.804519 0.830057 0.053256
Si Si4 0.330051 0.322932 0.308114
Si Si5 0.837212 0.125588 0.749110
Si Si6 0.749681 0.509227 0.877032
Si Si7 0.430184 0.571047 0.146268
O O1 0.332277 0.533305 0.398920
O O2 0.357714 0.571686 0.302204
O O3 0.439754 0.670480 0.365730
O O4 0.490158 0.502281 0.355630
O O5 0.291324 0.405754 0.561905
O O6 0.209095 0.399257 0.653239
O O7 0.336836 0.520860 0.630040
O O8 0.750000 0.750000 0.081530
O O9 0.789496 0.924984 0.079933
O O10 0.750000 0.837430 0.000000
O O11 0.250000 0.250000 0.304108
O O12 0.352146 0.352146 0.250000
O O13 0.419653 0.277101 0.332271
O O14 0.729549 0.130055 0.757702
O O15 0.889256 0.085325 0.797437
O O16 0.656066 0.457365 0.888129
#
# Coordination Sequence:
#
# PCOD9567973 Si02
#       7
#    16  16  16  16  16  16  16
#     4  12  24  38  64  90 142 180 237 284 334 409
#     4  12  23  42  63 100 130 177 231 285 338 416
#     4  11  22  45  76  96 123 165 227 300 365 411
#     4  11  22  37  58  87 132 174 221 276 321 385
#     4  11  23  38  54  87 136 199 239 264 329 402
#     4  12  23  42  63  99 131 182 226 280 344 402
#     4  12  24  38  63  90 138 180 238 280 333 398
#
# _framework density 19.602779999999999
#
# number of rings (size 3 to 8) (size 9 to 14) (size 15 to 20)
#    0.000    0.429    8.571    0.429    4.000    0.571 
#    0.000    0.714    3.143    0.000    0.000    1.000 
#    0.000    0.000    0.000    0.000    0.000    0.000 
#
# Total GULP energy -624800.535033 kJ/mol
# GULP energy per Si atom -5578.576206 kJ/mol
# Density = 1.955816 g / cm^3
# Si number density = 19.602780 Si / 1000 Ang^3
#
#
#
# Elastic Constant Matrix: (Units=GPa)
#
#
# Indices 1 2 3 4 5 6 
#
# 1 113.4213 49.5196 22.7840 0.0000 0.0000 0.0000
# 2 49.5196 113.4213 22.7840 0.0000 0.0000 0.0000
# 3 22.7840 22.7840 65.0904 0.0000 0.0000 0.0000
# 4 0.0000 0.0000 0.0000 16.0490 0.0000 0.0000
# 5 0.0000 0.0000 0.0000 0.0000 16.0490 0.0000
# 6 0.0000 0.0000 0.0000 0.0000 0.0000 52.5403
#
#
#
# Elastic Compliance Matrix: (Units=1/GPa)
#
#
# Indices 1 2 3 4 5 6 
#
# 1 0.011226 -0.004423 -0.002381 0.000000 0.000000 0.000000
# 2 -0.004423 0.011226 -0.002381 0.000000 0.000000 0.000000
# 3 -0.002381 -0.002381 0.017030 0.000000 0.000000 0.000000
# 4 0.000000 0.000000 0.000000 0.062309 0.000000 0.000000
# 5 0.000000 0.000000 0.000000 0.000000 0.062309 0.000000
# 6 0.000000 0.000000 0.000000 0.000000 0.000000 0.019033
#
#
# Mechanical properties :
#
#
# Convention : Reuss Voigt Hill
#
# Bulk Modulus (GPa) = 47.36803 53.56756 50.46779
# Shear Modulus (GPa) = 23.97595 30.05069 27.01332
#
# Velocity S-wave (km/s) = 3.50106 3.91958 3.71622
# Velocity P-wave (km/s) = 6.36865 6.91881 6.64942
#
# Compressibility (1/GPa) = 0.02111129
#
# Stress axis : x y z
#
# Youngs Moduli (GPa) = 89.07819 89.07819 58.71866
#
# Poissons Ratio (x) = 0.39399 0.13983
# Poissons Ratio (y) = 0.39399 0.13983
# Poissons Ratio (z) = 0.21213 0.21213
#
# Static dielectric constant tensor:
#      x y z
#    x 1.721450 0.000000 0.000000 
#    y 0.000000 1.721450 0.000000 
#    z 0.000000 0.000000 1.737910 
# 
# From -- ./inp_files/8074.got.cif
#   From: 2010.05.17/outbox.cif.g08.bks.cpg/sg133_5_cif.got.tgz:8074.got - 2010.05.20 12:37:36.
