data_PCOD9567104
_publ_section_title
;
Structure prediction by ZEFSAII (Michael W. Deem and Ramdas Pophale) SiO2 
 PCOD9567104
Probable space group: P 42/M C M
;
_chemical_formula_sum "Si O2"
_cell_formula_units_Z 80
_cell_length_a 13.541448
_cell_length_b 13.541448
_cell_length_c 25.989815
_cell_angle_alpha 90.000000
_cell_angle_beta 90.000000
_cell_angle_gamma 90.000000
_cell_volume 4765.773531
_symmetry_space_group_name_H-M "P 42/M C M"
_symmetry_group_IT_number 132
_symmetry_cell_setting 'tetragonal'
loop_
_space_group_symop_operation_xyz
x,y,z
-y,x,1/2+z
-x,-y,z
y,-x,1/2+z
x,-y,1/2-z
-x,y,1/2-z
y,x,-z
-y,-x,-z
-x,-y,-z
y,-x,1/2-z
x,y,-z
-y,x,1/2-z
-x,y,1/2+z
x,-y,1/2+z
-y,-x,z
y,x,z
loop_
_atom_site_type_symbol
_atom_site_label
_atom_site_fract_x
_atom_site_fract_y
_atom_site_fract_z
Si Si1 0.623676 0.784366 0.286222
Si Si2 0.160811 0.681004 0.328825
Si Si3 0.041554 0.610136 0.867236
Si Si4 0.524508 0.687204 0.859528
Si Si5 0.377694 0.781950 0.940858
O O1 0.724139 0.724139 0.295993
O O2 0.632673 0.824058 0.227994
O O3 0.612782 0.879697 0.321300
O O4 0.538405 0.709673 0.307325
O O5 0.212102 0.787899 0.327334
O O6 0.230058 0.609674 0.362538
O O7 0.051102 0.677206 0.351034
O O8 0.109091 0.631297 0.916773
O O9 0.000000 0.500000 0.872075
O O10 0.582803 0.582803 0.859544
O O11 0.450754 0.714577 0.905884
O O12 0.272888 0.727113 0.938470
O O13 0.410900 0.784429 0.000000
#
# Coordination Sequence:
#
# PCOD9567104 Si02
#       5
#    16  16  16  16  16
#     4  10  20  32  50  77 111 148 183 214 255 313
#     4  10  20  33  49  77 112 142 176 218 261 310
#     4  11  19  33  57  80 101 138 182 223 266 314
#     4  10  19  32  50  76 111 146 181 216 254 308
#     4  10  22  39  57  78 104 136 178 228 281 334
#
# _framework density 16.786362
#
# number of rings (size 3 to 8) (size 9 to 14) (size 15 to 20)
#    0.000    1.800    4.000    3.600    0.000    3.200 
#    0.000    2.000    0.000   10.200    0.000    7.000 
#    0.000    0.000    0.000    0.000    0.000    0.000 
#
# Total GULP energy -445467.758720 kJ/mol
# GULP energy per Si atom -5568.346984 kJ/mol
# Density = 1.674816 g / cm^3
# Si number density = 16.786362 Si / 1000 Ang^3
#
#
#
# Elastic Constant Matrix: (Units=GPa)
#
#
# Indices 1 2 3 4 5 6 
#
# 1 92.4803 50.0152 46.7251 0.0000 0.0000 0.0000
# 2 50.0152 92.4803 46.7251 0.0000 0.0000 0.0000
# 3 46.7251 46.7251 105.8533 0.0000 0.0000 0.0000
# 4 0.0000 0.0000 0.0000 21.2558 0.0000 0.0000
# 5 0.0000 0.0000 0.0000 0.0000 21.2558 0.0000
# 6 0.0000 0.0000 0.0000 0.0000 0.0000 21.5446
#
#
#
# Elastic Compliance Matrix: (Units=1/GPa)
#
#
# Indices 1 2 3 4 5 6 
#
# 1 0.016713 -0.006836 -0.004360 0.000000 0.000000 0.000000
# 2 -0.006836 0.016713 -0.004360 0.000000 0.000000 0.000000
# 3 -0.004360 -0.004360 0.013296 0.000000 0.000000 0.000000
# 4 0.000000 0.000000 0.000000 0.047046 0.000000 0.000000
# 5 0.000000 0.000000 0.000000 0.000000 0.047046 0.000000
# 6 0.000000 0.000000 0.000000 0.000000 0.000000 0.046415
#
#
# Mechanical properties :
#
#
# Convention : Reuss Voigt Hill
#
# Bulk Modulus (GPa) = 64.05883 64.19387 64.12635
# Shear Modulus (GPa) = 22.36700 22.63448 22.50074
#
# Velocity S-wave (km/s) = 3.65423 3.67602 3.66514
# Velocity P-wave (km/s) = 7.48657 7.50614 7.49636
#
# Compressibility (1/GPa) = 0.01561065
#
# Stress axis : x y z
#
# Youngs Moduli (GPa) = 59.83413 59.83413 75.21045
#
# Poissons Ratio (x) = 0.40902 0.32791
# Poissons Ratio (y) = 0.40902 0.32791
# Poissons Ratio (z) = 0.26087 0.26087
#
# Static dielectric constant tensor:
#      x y z
#    x 1.581570 0.000000 0.000000 
#    y 0.000000 1.581570 0.000000 
#    z 0.000000 0.000000 1.591860 
# 
# From -- ./inp_files/8859.got.cif
#   From: 2010.05.17/outbox.cif.g08.bks.cpg/sg132_5_cif.got.tgz:8859.got - 2010.05.20 12:30:18.
