data_PCOD9567399
_publ_section_title
;
Structure prediction by ZEFSAII (Michael W. Deem and Ramdas Pophale) SiO2 
 PCOD9567399
Probable space group: P 42/M C M
;
_chemical_formula_sum "Si O2"
_cell_formula_units_Z 96
_cell_length_a 23.406291
_cell_length_b 23.406291
_cell_length_c 9.766378
_cell_angle_alpha 90.000000
_cell_angle_beta 90.000000
_cell_angle_gamma 90.000000
_cell_volume 5350.553729
_symmetry_space_group_name_H-M "P 42/M C M"
_symmetry_group_IT_number 132
_symmetry_cell_setting 'tetragonal'
loop_
_space_group_symop_operation_xyz
x,y,z
-y,x,1/2+z
-x,-y,z
y,-x,1/2+z
x,-y,1/2-z
-x,y,1/2-z
y,x,-z
-y,-x,-z
-x,-y,-z
y,-x,1/2-z
x,y,-z
-y,x,1/2-z
-x,y,1/2+z
x,-y,1/2+z
-y,-x,z
y,x,z
loop_
_atom_site_type_symbol
_atom_site_label
_atom_site_fract_x
_atom_site_fract_y
_atom_site_fract_z
Si Si1 0.252556 0.949561 0.000000
Si Si2 0.555352 0.240911 0.159389
Si Si3 0.614582 0.032990 0.000000
Si Si4 0.920265 0.759695 0.000000
Si Si5 0.378474 0.095707 0.000000
Si Si6 0.330676 0.766546 0.336429
Si Si7 0.855011 0.237883 0.230645
Si Si8 0.437804 0.888504 0.775182
O O1 0.318018 0.967012 0.000000
O O2 0.243836 0.907393 0.127221
O O3 0.223856 0.012497 0.000000
O O4 0.500000 0.259658 0.250000
O O5 0.613286 0.250030 0.248265
O O6 0.552068 0.171937 0.152400
O O7 0.556471 0.261744 0.000000
O O8 0.595658 0.067551 0.132271
O O9 0.594807 0.968121 0.000000
O O10 0.911872 0.689925 0.000000
O O11 0.885638 0.780674 0.869649
O O12 0.403662 0.123510 0.136138
O O13 0.341381 0.778310 0.500000
O O14 0.286069 0.713932 0.333689
O O15 0.295713 0.818850 0.264041
O O16 0.808947 0.191054 0.184142
O O17 0.500000 0.913742 0.750000
#
# Coordination Sequence:
#
# PCOD9567399 Si02
#       8
#     8  16   8   8   8  16  16  16
#     4  11  23  36  55  80 110 140 176 224 275 343
#     4  11  23  37  56  78 107 146 189 238 286 340
#     4  11  21  37  48  69  94 129 175 221 277 324
#     4  11  21  38  57  78 106 142 180 218 273 347
#     4  11  23  33  52  67  92 133 175 223 273 324
#     4  10  21  37  59  85 114 151 191 235 289 345
#     4  11  22  37  57  83 112 143 182 229 282 338
#     4  11  23  34  47  67  92 131 182 231 276 321
#
# _framework density 17.942069
#
# number of rings (size 3 to 8) (size 9 to 14) (size 15 to 20)
#    0.000    1.167    1.667    5.500    5.833    5.000 
#    0.000    0.000    0.000    0.000    0.000    0.000 
#    0.000   23.667    0.000    3.500    0.000    1.500 
#
# Total GULP energy -535737.037602 kJ/mol
# GULP energy per Si atom -5580.594142 kJ/mol
# Density = 1.790123 g / cm^3
# Si number density = 17.942069 Si / 1000 Ang^3
#
#
#
# Elastic Constant Matrix: (Units=GPa)
#
#
# Indices 1 2 3 4 5 6 
#
# 1 68.7191 10.9338 16.9992 0.0000 0.0000 0.0000
# 2 10.9338 68.7191 16.9992 0.0000 0.0000 0.0000
# 3 16.9992 16.9992 106.5770 0.0000 0.0000 0.0000
# 4 0.0000 0.0000 0.0000 -33.4946 0.0000 0.0000
# 5 0.0000 0.0000 0.0000 0.0000 -33.4946 0.0000
# 6 0.0000 0.0000 0.0000 0.0000 0.0000 5.3863
#
#
#
# Elastic Compliance Matrix: (Units=1/GPa)
#
#
# Indices 1 2 3 4 5 6 
#
# 1 0.015389 -0.001917 -0.002149 0.000000 0.000000 0.000000
# 2 -0.001917 0.015389 -0.002149 0.000000 0.000000 0.000000
# 3 -0.002149 -0.002149 0.010068 0.000000 0.000000 0.000000
# 4 0.000000 0.000000 0.000000 -0.029856 0.000000 0.000000
# 5 0.000000 0.000000 0.000000 0.000000 -0.029856 0.000000
# 6 0.000000 0.000000 0.000000 0.000000 0.000000 0.185655
#
#
# Mechanical properties :
#
#
# Convention : Reuss Voigt Hill
#
# Bulk Modulus (GPa) = 35.19067 37.09773 36.14420
# Shear Modulus (GPa) = 26.49844 0.95163 13.72504
#
# Velocity S-wave (km/s) = 3.84720 0.72907 2.76880
# Velocity P-wave (km/s) = 6.27620 4.62926 5.51456
#
# Compressibility (1/GPa) = 0.02841662
#
# Stress axis : x y z
#
# Youngs Moduli (GPa) = 64.98342 64.98342 99.32117
#
# Poissons Ratio (x) = 0.12457 0.21342
# Poissons Ratio (y) = 0.12457 0.21342
# Poissons Ratio (z) = 0.13963 0.13963
#
# Static dielectric constant tensor:
#      x y z
#    x 1.617190 0.000000 0.000000 
#    y 0.000000 1.617190 0.000000 
#    z 0.000000 0.000000 1.705520 
# 
# From -- ./inp_files/1873.got.cif
#   From: 2010.05.17/outbox.cif.g08.bks.cpg/sg132_1_cif.got.tgz:1873.got - 2010.05.20 12:30:18.
