data_PCOD9567312
_publ_section_title
;
Structure prediction by ZEFSAII (Michael W. Deem and Ramdas Pophale) SiO2 
 PCOD9567312
Probable space group: P 42/M C M
;
_chemical_formula_sum "Si O2"
_cell_formula_units_Z 72
_cell_length_a 10.506013
_cell_length_b 10.506013
_cell_length_c 32.023524
_cell_angle_alpha 90.000000
_cell_angle_beta 90.000000
_cell_angle_gamma 90.000000
_cell_volume 3534.638385
_symmetry_space_group_name_H-M "P 42/M C M"
_symmetry_group_IT_number 132
_symmetry_cell_setting 'tetragonal'
loop_
_space_group_symop_operation_xyz
x,y,z
-y,x,1/2+z
-x,-y,z
y,-x,1/2+z
x,-y,1/2-z
-x,y,1/2-z
y,x,-z
-y,-x,-z
-x,-y,-z
y,-x,1/2-z
x,y,-z
-y,x,1/2-z
-x,y,1/2+z
x,-y,1/2+z
-y,-x,z
y,x,z
loop_
_atom_site_type_symbol
_atom_site_label
_atom_site_fract_x
_atom_site_fract_y
_atom_site_fract_z
Si Si1 0.887961 0.330057 0.669432
Si Si2 0.001886 0.797643 0.908519
Si Si3 0.506451 0.289722 0.126769
Si Si4 0.784203 0.000000 0.750000
Si Si5 0.871940 0.416831 0.046136
O O1 0.780355 0.219646 0.670908
O O2 0.966418 0.300972 0.627527
O O3 0.813504 0.460642 0.660789
O O4 0.969973 0.304553 0.710341
O O5 0.876166 0.876166 0.921720
O O6 0.074196 0.723283 0.944516
O O7 0.099019 0.900982 0.890208
O O8 0.627951 0.372050 0.140116
O O9 0.389597 0.389597 0.120688
O O10 0.539455 0.220836 0.083174
O O11 0.879765 0.879765 0.742614
O O12 0.000000 0.500000 0.047064
O O13 0.813912 0.426409 0.000000
#
# Coordination Sequence:
#
# PCOD9567312 Si02
#       5
#    16  16  16   8  16
#     4   9  17  32  54  86 123 154 190 235 288 352
#     4  10  20  35  57  84 117 154 188 233 300 366
#     4  10  21  38  60  85 119 164 207 247 293 346
#     4   9  16  28  54  93 130 156 182 230 296 362
#     4  11  23  38  58  84 116 155 202 256 303 349
#
# _framework density 20.369834000000001
#
# number of rings (size 3 to 8) (size 9 to 14) (size 15 to 20)
#    0.000    2.111    2.222    1.333    0.000    5.333 
#    0.000    4.444    0.000    2.667    0.000    9.333 
#    0.000   12.444    0.000    0.000    0.000    0.000 
#
# Total GULP energy -401788.442385 kJ/mol
# GULP energy per Si atom -5580.395033 kJ/mol
# Density = 2.032347 g / cm^3
# Si number density = 20.369834 Si / 1000 Ang^3
#
#
#
# Elastic Constant Matrix: (Units=GPa)
#
#
# Indices 1 2 3 4 5 6 
#
# 1 80.3025 42.0391 42.0166 0.0000 0.0000 0.0000
# 2 42.0391 80.3025 42.0166 0.0000 0.0000 0.0000
# 3 42.0166 42.0166 101.2823 0.0000 0.0000 0.0000
# 4 0.0000 0.0000 0.0000 22.5976 0.0000 0.0000
# 5 0.0000 0.0000 0.0000 0.0000 22.5976 0.0000
# 6 0.0000 0.0000 0.0000 0.0000 0.0000 33.2355
#
#
#
# Elastic Compliance Matrix: (Units=1/GPa)
#
#
# Indices 1 2 3 4 5 6 
#
# 1 0.018783 -0.007352 -0.004742 0.000000 0.000000 0.000000
# 2 -0.007352 0.018783 -0.004742 0.000000 0.000000 0.000000
# 3 -0.004742 -0.004742 0.013808 0.000000 0.000000 0.000000
# 4 0.000000 0.000000 0.000000 0.044253 0.000000 0.000000
# 5 0.000000 0.000000 0.000000 0.000000 0.044253 0.000000
# 6 0.000000 0.000000 0.000000 0.000000 0.000000 0.030088
#
#
# Mechanical properties :
#
#
# Convention : Reuss Voigt Hill
#
# Bulk Modulus (GPa) = 56.49236 57.11466 56.80351
# Shear Modulus (GPa) = 23.86182 24.74046 24.30114
#
# Velocity S-wave (km/s) = 3.42633 3.48884 3.45773
# Velocity P-wave (km/s) = 6.59140 6.65801 6.62479
#
# Compressibility (1/GPa) = 0.01770151
#
# Stress axis : x y z
#
# Youngs Moduli (GPa) = 53.23998 53.23998 72.42222
#
# Poissons Ratio (x) = 0.39141 0.34344
# Poissons Ratio (y) = 0.39141 0.34344
# Poissons Ratio (z) = 0.25247 0.25247
#
# Static dielectric constant tensor:
#      x y z
#    x 1.770210 0.000000 0.000000 
#    y 0.000000 1.770210 0.000000 
#    z 0.000000 0.000000 1.695870 
# 
# From -- ./inp_files/9732.got.cif
#   From: 2010.05.17/outbox.cif.g08.bks.cpg/sg132_5_cif.got.tgz:9732.got - 2010.05.20 12:30:18.
