data_PCOD9567098
_publ_section_title
;
Structure prediction by ZEFSAII (Michael W. Deem and Ramdas Pophale) SiO2 
 PCOD9567098
Probable space group: P 42/M C M
;
_chemical_formula_sum "Si O2"
_cell_formula_units_Z 96
_cell_length_a 26.164655
_cell_length_b 26.164655
_cell_length_c 8.771221
_cell_angle_alpha 90.000000
_cell_angle_beta 90.000000
_cell_angle_gamma 90.000000
_cell_volume 6004.682915
_symmetry_space_group_name_H-M "P 42/M C M"
_symmetry_group_IT_number 132
_symmetry_cell_setting 'tetragonal'
loop_
_space_group_symop_operation_xyz
x,y,z
-y,x,1/2+z
-x,-y,z
y,-x,1/2+z
x,-y,1/2-z
-x,y,1/2-z
y,x,-z
-y,-x,-z
-x,-y,-z
y,-x,1/2-z
x,y,-z
-y,x,1/2-z
-x,y,1/2+z
x,-y,1/2+z
-y,-x,z
y,x,z
loop_
_atom_site_type_symbol
_atom_site_label
_atom_site_fract_x
_atom_site_fract_y
_atom_site_fract_z
Si Si1 0.309211 0.075283 0.323209
Si Si2 0.051026 0.582175 0.681748
Si Si3 0.805917 0.660930 0.323275
Si Si4 0.200677 0.946033 0.318519
Si Si5 0.446636 0.166164 0.817520
Si Si6 0.840442 0.840442 0.317115
Si Si7 0.240912 0.759089 0.319450
O O1 0.303132 0.059560 0.500000
O O2 0.361194 0.054445 0.252331
O O3 0.316193 0.136511 0.319172
O O4 0.260287 0.059219 0.227096
O O5 0.046984 0.584553 0.500000
O O6 0.105502 0.557275 0.721219
O O7 0.000000 0.557831 0.750000
O O8 0.790375 0.658121 0.500000
O O9 0.808638 0.604398 0.251744
O O10 0.772623 0.701889 0.232686
O O11 0.194726 0.945324 0.500000
O O12 0.174476 0.896367 0.244478
O O13 0.182147 0.000000 0.250000
O O14 0.500000 0.185767 0.750000
O O15 0.445978 0.170890 0.000000
O O16 0.839728 0.839728 0.500000
O O17 0.798897 0.798897 0.258249
O O18 0.235403 0.764598 0.500000
#
# Coordination Sequence:
#
# PCOD9567098 Si02
#       7
#    16  16  16  16  16   8   8
#     4  10  19  32  50  72 100 131 164 204 251 305
#     4  10  20  32  46  65  91 123 165 213 260 306
#     4  10  20  34  54  77 105 137 172 212 259 309
#     4  12  24  38  56  78 104 134 165 200 246 304
#     4  10  21  36  52  70  95 129 173 218 262 310
#     4  12  24  40  58  81 109 136 166 204 251 305
#     4  12  22  34  56  84 113 141 170 211 263 318
#
# _framework density 15.987522
#
# number of rings (size 3 to 8) (size 9 to 14) (size 15 to 20)
#    0.000    1.333    1.667    5.500    0.000    3.667 
#    0.000    1.667    0.000    0.250    0.000    1.750 
#    0.000    0.000    0.000    0.000    0.000    0.417 
#
# Total GULP energy -536480.213190 kJ/mol
# GULP energy per Si atom -5588.335554 kJ/mol
# Density = 1.595113 g / cm^3
# Si number density = 15.987522 Si / 1000 Ang^3
#
#
#
# Elastic Constant Matrix: (Units=GPa)
#
#
# Indices 1 2 3 4 5 6 
#
# 1 92.8773 50.0091 56.1509 0.0000 0.0000 0.0000
# 2 50.0091 92.8765 56.1505 0.0000 0.0000 0.0000
# 3 56.1509 56.1505 112.7380 0.0000 0.0000 0.0000
# 4 0.0000 0.0000 0.0000 20.4481 0.0000 0.0000
# 5 0.0000 0.0000 0.0000 0.0000 20.4481 0.0000
# 6 0.0000 0.0000 0.0000 0.0000 0.0000 -19.4254
#
#
#
# Elastic Compliance Matrix: (Units=1/GPa)
#
#
# Indices 1 2 3 4 5 6 
#
# 1 0.017414 -0.005914 -0.005728 0.000000 0.000000 0.000000
# 2 -0.005914 0.017414 -0.005728 0.000000 0.000000 0.000000
# 3 -0.005728 -0.005728 0.014576 0.000000 0.000000 0.000000
# 4 0.000000 0.000000 0.000000 0.048904 0.000000 0.000000
# 5 0.000000 0.000000 0.000000 0.000000 0.048904 0.000000
# 6 0.000000 0.000000 0.000000 0.000000 0.000000 -0.051479
#
#
# Mechanical properties :
#
#
# Convention : Reuss Voigt Hill
#
# Bulk Modulus (GPa) = 68.18958 69.23476 68.71217
# Shear Modulus (GPa) = 36.93827 13.37291 25.15559
#
# Velocity S-wave (km/s) = 4.81192 2.89530 3.97098
# Velocity P-wave (km/s) = 8.58004 7.38759 8.00605
#
# Compressibility (1/GPa) = 0.01466500
#
# Stress axis : x y z
#
# Youngs Moduli (GPa) = 57.42513 57.42484 68.60631
#
# Poissons Ratio (x) = 0.33958 0.39298
# Poissons Ratio (y) = 0.33958 0.39297
# Poissons Ratio (z) = 0.32893 0.32893
#
# Static dielectric constant tensor:
#      x y z
#    x 1.530080 0.000000 0.000000 
#    y 0.000000 1.530080 0.000000 
#    z 0.000000 0.000000 1.533860 
# 
# From -- ./inp_files/1831.got.cif
#   From: 2010.05.17/outbox.cif.g08.bks.cpg/sg132_1_cif.got.tgz:1831.got - 2010.05.20 12:30:18.
