data_PCOD9567880
_publ_section_title
;
Structure prediction by ZEFSAII (Michael W. Deem and Ramdas Pophale) SiO2 
 PCOD9567880
Probable space group: P 42/N B C
;
_chemical_formula_sum "Si O2"
_cell_formula_units_Z 60
_cell_length_a 12.005106
_cell_length_b 12.005106
_cell_length_c 20.033883
_cell_angle_alpha 90.000000
_cell_angle_beta 90.000000
_cell_angle_gamma 90.000000
_cell_volume 2887.334706
_symmetry_space_group_name_H-M "P 42/N B C"
_symmetry_group_IT_number 133
_space_group.IT_coordinate_system_code '2'
_symmetry_cell_setting 'tetragonal'
loop_
_space_group_symop_operation_xyz
x,y,z
1/2-y,x,1/2+z
1/2-x,1/2-y,z
y,1/2-x,1/2+z
x,1/2-y,-z
1/2-x,y,-z
y,x,1/2-z
1/2-y,1/2-x,1/2-z
-x,-y,-z
1/2+y,-x,1/2-z
1/2+x,1/2+y,-z
-y,1/2+x,1/2-z
-x,1/2+y,z
1/2+x,-y,z
-y,-x,1/2+z
1/2+y,1/2+x,1/2+z
loop_
_atom_site_type_symbol
_atom_site_label
_atom_site_fract_x
_atom_site_fract_y
_atom_site_fract_z
Si Si1 0.378650 0.220420 0.867951
Si Si2 0.933463 0.566538 0.250000
Si Si3 0.250000 0.750000 0.750000
Si Si4 0.861091 0.080657 0.348567
Si Si5 0.986286 0.625612 0.465827
O O1 0.250000 0.250000 0.861740
O O2 0.422769 0.170457 0.798699
O O3 0.463055 0.320909 0.878050
O O4 0.388383 0.128334 0.924972
O O5 0.937209 0.461396 0.202497
O O6 0.349862 0.775378 0.802344
O O7 0.913066 0.142137 0.412514
O O8 0.978533 0.750000 0.500000
O O9 0.000000 0.500000 0.500000
#
# Coordination Sequence:
#
# PCOD9567880 Si02
#       5
#    16   8   4  16  16
#     4  11  24  43  70  98 134 189 232 293 360 442
#     4  10  23  40  63 102 134 170 224 288 351 422
#     4  12  24  44  66 108 140 176 240 294 380 432
#     4  11  25  42  72 100 143 181 232 300 363 436
#     4  11  27  48  69 102 145 190 249 305 366 455
#
# _framework density 20.780411000000001
#
# number of rings (size 3 to 8) (size 9 to 14) (size 15 to 20)
#    0.000    1.067    2.667    2.000    7.467    3.733 
#    0.000    0.000    0.000    0.000    0.000    0.000 
#    0.000    0.000    0.000    0.000    0.000    0.000 
#
# Total GULP energy -334114.404178 kJ/mol
# GULP energy per Si atom -5568.573403 kJ/mol
# Density = 2.073311 g / cm^3
# Si number density = 20.780411 Si / 1000 Ang^3
#
#
#
# Elastic Constant Matrix: (Units=GPa)
#
#
# Indices 1 2 3 4 5 6 
#
# 1 89.8442 46.2121 42.2587 0.0000 0.0000 0.0000
# 2 46.2121 89.8456 42.2572 0.0000 0.0000 0.0000
# 3 42.2587 42.2572 102.7175 0.0000 0.0000 0.0000
# 4 0.0000 0.0000 0.0000 -38.7203 0.0000 0.0000
# 5 0.0000 0.0000 0.0000 0.0000 -38.7151 0.0000
# 6 0.0000 0.0000 0.0000 0.0000 0.0000 5018.9329
#
#
#
# Elastic Compliance Matrix: (Units=1/GPa)
#
#
# Indices 1 2 3 4 5 6 
#
# 1 0.016396 -0.006523 -0.004062 0.000000 0.000000 0.000000
# 2 -0.006523 0.016395 -0.004061 0.000000 0.000000 0.000000
# 3 -0.004062 -0.004061 0.013077 0.000000 0.000000 0.000000
# 4 0.000000 0.000000 0.000000 -0.025826 0.000000 0.000000
# 5 0.000000 0.000000 0.000000 0.000000 -0.025830 0.000000
# 6 0.000000 0.000000 0.000000 0.000000 0.000000 0.000199
#
#
# Mechanical properties :
#
#
# Convention : Reuss Voigt Hill
#
# Bulk Modulus (GPa) = 60.32677 60.42926 60.37801
# Shear Modulus (GPa) = 171.05621 998.41145 584.73383
#
# Velocity S-wave (km/s) = 9.08266 21.94313 16.79279
# Velocity P-wave (km/s) = 11.79350 25.90645 20.12748
#
# Compressibility (1/GPa) = 0.01657639
#
# Stress axis : x y z
#
# Youngs Moduli (GPa) = 60.99038 60.99261 76.46767
#
# Poissons Ratio (x) = 0.39784 0.31061
# Poissons Ratio (y) = 0.39783 0.31057
# Poissons Ratio (z) = 0.24774 0.24772
#
# Static dielectric constant tensor:
#      x y z
#    x 1.836850 0.000000 0.000000 
#    y 0.000000 1.836850 0.000000 
#    z 0.000000 0.000000 1.736410 
# 
# From -- ./inp_files/6203.got.cif
#   From: 2010.05.17/outbox.cif.g08.bks.cpg/sg133_4_cif.got.tgz:6203.got - 2010.05.20 12:37:36.
