data_PCOD9567426
_publ_section_title
;
Structure prediction by ZEFSAII (Michael W. Deem and Ramdas Pophale) SiO2 
 PCOD9567426
Probable space group: P 42/M C M
;
_chemical_formula_sum "Si O2"
_cell_formula_units_Z 84
_cell_length_a 11.736216
_cell_length_b 11.736216
_cell_length_c 30.513895
_cell_angle_alpha 90.000000
_cell_angle_beta 90.000000
_cell_angle_gamma 90.000000
_cell_volume 4202.946243
_symmetry_space_group_name_H-M "P 42/M C M"
_symmetry_group_IT_number 132
_symmetry_cell_setting 'tetragonal'
loop_
_space_group_symop_operation_xyz
x,y,z
-y,x,1/2+z
-x,-y,z
y,-x,1/2+z
x,-y,1/2-z
-x,y,1/2-z
y,x,-z
-y,-x,-z
-x,-y,-z
y,-x,1/2-z
x,y,-z
-y,x,1/2-z
-x,y,1/2+z
x,-y,1/2+z
-y,-x,z
y,x,z
loop_
_atom_site_type_symbol
_atom_site_label
_atom_site_fract_x
_atom_site_fract_y
_atom_site_fract_z
Si Si1 0.711026 0.104640 0.100025
Si Si2 0.771362 0.524765 0.879606
Si Si3 0.877702 0.305095 0.549958
Si Si4 0.500000 0.500000 0.114418
Si Si5 0.573687 0.893597 0.793728
Si Si6 0.003915 0.812640 0.810086
O O1 0.796530 0.203471 0.085753
O O2 0.591004 0.158738 0.112976
O O3 0.698136 0.008568 0.063558
O O4 0.764057 0.046200 0.143434
O O5 0.814992 0.614157 0.915444
O O6 0.639670 0.500915 0.885024
O O7 0.798224 0.571043 0.830806
O O8 0.862148 0.344958 0.500000
O O9 0.818461 0.181540 0.553429
O O10 0.500000 0.861450 0.750000
O O11 0.702205 0.941610 0.788189
O O12 0.500000 0.000000 0.811473
O O13 0.907152 0.907152 0.815990
O O14 0.114376 0.885625 0.791089
#
# Coordination Sequence:
#
# PCOD9567426 Si02
#       6
#    16  16  16   4  16  16
#     4  11  22  39  68 100 138 181 225 281 346 421
#     4  12  23  47  68  98 137 188 236 291 342 422
#     4  11  24  42  69 102 139 181 232 288 352 420
#     4  12  28  44  78  96 136 194 236 284 358 404
#     4  11  23  43  70 101 137 189 230 288 360 415
#     4  10  21  40  69 103 136 181 235 286 343 418
#
# _framework density 19.985979
#
# number of rings (size 3 to 8) (size 9 to 14) (size 15 to 20)
#    0.000    0.952    5.714    1.143    1.333    3.048 
#    1.714    5.238    0.000    4.571    0.000    0.000 
#    0.000    0.000    0.000    0.000    0.000    0.000 
#
# Total GULP energy -467915.971409 kJ/mol
# GULP energy per Si atom -5570.428231 kJ/mol
# Density = 1.994049 g / cm^3
# Si number density = 19.985979 Si / 1000 Ang^3
#
#
#
# Elastic Constant Matrix: (Units=GPa)
#
#
# Indices 1 2 3 4 5 6 
#
# 1 142.3496 27.9543 43.9705 0.0000 0.0000 0.0000
# 2 27.9543 142.3496 43.9705 0.0000 0.0000 0.0000
# 3 43.9705 43.9705 100.2243 0.0000 0.0000 0.0000
# 4 0.0000 0.0000 0.0000 -19.7963 0.0000 0.0000
# 5 0.0000 0.0000 0.0000 0.0000 -19.7963 0.0000
# 6 0.0000 0.0000 0.0000 0.0000 0.0000 29.9976
#
#
#
# Elastic Compliance Matrix: (Units=1/GPa)
#
#
# Indices 1 2 3 4 5 6 
#
# 1 0.008167 -0.000575 -0.003331 0.000000 0.000000 0.000000
# 2 -0.000575 0.008167 -0.003331 0.000000 0.000000 0.000000
# 3 -0.003331 -0.003331 0.012900 0.000000 0.000000 0.000000
# 4 0.000000 0.000000 0.000000 -0.050515 0.000000 0.000000
# 5 0.000000 0.000000 0.000000 0.000000 -0.050515 0.000000
# 6 0.000000 0.000000 0.000000 0.000000 0.000000 0.033336
#
#
# Mechanical properties :
#
#
# Convention : Reuss Voigt Hill
#
# Bulk Modulus (GPa) = 67.74643 68.52379 68.13511
# Shear Modulus (GPa) = -262.23381 16.01623 -123.10879
#
# Velocity S-wave (km/s) = -11.46707 2.83392 -7.85693
# Velocity P-wave (km/s) = 11.88926 6.71331 6.93851
#
# Compressibility (1/GPa) = 0.01476093
#
# Stress axis : x y z
#
# Youngs Moduli (GPa) = 122.44888 122.44888 77.51897
#
# Poissons Ratio (x) = 0.07040 0.25819
# Poissons Ratio (y) = 0.07040 0.25819
# Poissons Ratio (z) = 0.40783 0.40783
#
# Static dielectric constant tensor:
#      x y z
#    x 1.699470 0.000000 0.000000 
#    y 0.000000 1.699470 0.000000 
#    z 0.000000 0.000000 1.733270 
# 
# From -- ./inp_files/10792.got.cif
#   From: 2010.05.17/outbox.cif.g08.bks.cpg/sg132_6_cif.got.tgz:10792.got - 2010.05.20 12:30:18.
