data_PCOD9567037
_publ_section_title
;
Structure prediction by ZEFSAII (Michael W. Deem and Ramdas Pophale) SiO2 
 PCOD9567037
Probable space group: P 42/M C M
;
_chemical_formula_sum "Si O2"
_cell_formula_units_Z 96
_cell_length_a 24.447054
_cell_length_b 24.447054
_cell_length_c 7.454377
_cell_angle_alpha 90.000000
_cell_angle_beta 90.000000
_cell_angle_gamma 90.000000
_cell_volume 4455.171398
_symmetry_space_group_name_H-M "P 42/M C M"
_symmetry_group_IT_number 132
_symmetry_cell_setting 'tetragonal'
loop_
_space_group_symop_operation_xyz
x,y,z
-y,x,1/2+z
-x,-y,z
y,-x,1/2+z
x,-y,1/2-z
-x,y,1/2-z
y,x,-z
-y,-x,-z
-x,-y,-z
y,-x,1/2-z
x,y,-z
-y,x,1/2-z
-x,y,1/2+z
x,-y,1/2+z
-y,-x,z
y,x,z
loop_
_atom_site_type_symbol
_atom_site_label
_atom_site_fract_x
_atom_site_fract_y
_atom_site_fract_z
Si Si1 0.439628 0.351977 0.714783
Si Si2 0.775302 0.860833 0.293950
Si Si3 0.433105 0.770219 0.200198
Si Si4 0.935755 0.678343 0.285517
Si Si5 0.110325 0.440582 0.715568
Si Si6 0.229140 0.313048 0.788140
O O1 0.500000 0.375474 0.750000
O O2 0.432023 0.347151 0.500000
O O3 0.391606 0.391606 0.782661
O O4 0.440494 0.289450 0.786679
O O5 0.788532 0.875525 0.500000
O O6 0.830851 0.830851 0.218438
O O7 0.735455 0.908443 0.215652
O O8 0.731187 0.812143 0.287836
O O9 0.446860 0.827915 0.290316
O O10 0.368547 0.776308 0.187724
O O11 0.457639 0.768347 0.000000
O O12 0.925763 0.679135 0.500000
O O13 0.913590 0.618364 0.220911
O O14 0.000000 0.679413 0.250000
O O15 0.082177 0.500000 0.750000
O O16 0.113499 0.435734 0.500000
O O17 0.289689 0.289689 0.768287
O O18 0.218000 0.319410 0.000000
#
# Coordination Sequence:
#
# PCOD9567037 Si02
#       6
#    16  16  16  16  16  16
#     4  10  22  38  56  77  98 126 164 206 260 323
#     4   9  17  33  56  78 105 141 178 216 259 311
#     4  10  19  35  55  73  98 129 164 207 256 318
#     4  10  21  37  55  79 108 143 186 223 265 314
#     4  10  21  36  53  75 102 136 182 225 267 316
#     4  10  19  28  44  75 107 130 158 200 253 308
#
# _framework density 21.547992000000001
#
# number of rings (size 3 to 8) (size 9 to 14) (size 15 to 20)
#    0.000    2.167    1.667    1.500    0.000    5.167 
#    0.000    2.500    0.000    0.000    0.000    0.000 
#    0.000    0.333    0.000    4.167    0.000    0.000 
#
# Total GULP energy -534519.524282 kJ/mol
# GULP energy per Si atom -5567.911711 kJ/mol
# Density = 2.149895 g / cm^3
# Si number density = 21.547992 Si / 1000 Ang^3
#
#
#
# Elastic Constant Matrix: (Units=GPa)
#
#
# Indices 1 2 3 4 5 6 
#
# 1 128.1610 64.0344 3.3058 0.0000 0.0000 0.0000
# 2 64.0344 128.1610 3.3058 0.0000 0.0000 0.0000
# 3 3.3058 3.3058 68.3082 0.0000 0.0000 0.0000
# 4 0.0000 0.0000 0.0000 3.1686 0.0000 0.0000
# 5 0.0000 0.0000 0.0000 0.0000 3.1686 0.0000
# 6 0.0000 0.0000 0.0000 0.0000 0.0000 14.4259
#
#
#
# Elastic Compliance Matrix: (Units=1/GPa)
#
#
# Indices 1 2 3 4 5 6 
#
# 1 0.010403 -0.005191 -0.000252 0.000000 0.000000 0.000000
# 2 -0.005191 0.010403 -0.000252 0.000000 0.000000 0.000000
# 3 -0.000252 -0.000252 0.014664 0.000000 0.000000 0.000000
# 4 0.000000 0.000000 0.000000 0.315597 0.000000 0.000000
# 5 0.000000 0.000000 0.000000 0.000000 0.315597 0.000000
# 6 0.000000 0.000000 0.000000 0.000000 0.000000 0.069320
#
#
# Mechanical properties :
#
#
# Convention : Reuss Voigt Hill
#
# Bulk Modulus (GPa) = 41.53085 51.76912 46.64999
# Shear Modulus (GPa) = 6.61900 21.08491 13.85195
#
# Velocity S-wave (km/s) = 1.75454 3.13151 2.53818
# Velocity P-wave (km/s) = 4.83943 6.09527 5.50329
#
# Compressibility (1/GPa) = 0.02407848
#
# Stress axis : x y z
#
# Youngs Moduli (GPa) = 96.12676 96.12676 68.19448
#
# Poissons Ratio (x) = 0.49901 0.01720
# Poissons Ratio (y) = 0.49901 0.01720
# Poissons Ratio (z) = 0.02425 0.02425
#
# Static dielectric constant tensor:
#      x y z
#    x 1.822260 0.000000 0.000000 
#    y 0.000000 1.822260 0.000000 
#    z 0.000000 0.000000 1.872030 
# 
# From -- ./inp_files/1728.got.cif
#   From: 2010.05.17/outbox.cif.g08.bks.cpg/sg132_1_cif.got.tgz:1728.got - 2010.05.20 12:30:18.
