data_PCOD9567001
_publ_section_title
;
Structure prediction by ZEFSAII (Michael W. Deem and Ramdas Pophale) SiO2 
 PCOD9567001
Probable space group: P 42/M C M
;
_chemical_formula_sum "Si O2"
_cell_formula_units_Z 80
_cell_length_a 19.873106
_cell_length_b 19.873106
_cell_length_c 13.597073
_cell_angle_alpha 90.000000
_cell_angle_beta 90.000000
_cell_angle_gamma 90.000000
_cell_volume 5370.032662
_symmetry_space_group_name_H-M "P 42/M C M"
_symmetry_group_IT_number 132
_symmetry_cell_setting 'tetragonal'
loop_
_space_group_symop_operation_xyz
x,y,z
-y,x,1/2+z
-x,-y,z
y,-x,1/2+z
x,-y,1/2-z
-x,y,1/2-z
y,x,-z
-y,-x,-z
-x,-y,-z
y,-x,1/2-z
x,y,-z
-y,x,1/2-z
-x,y,1/2+z
x,-y,1/2+z
-y,-x,z
y,x,z
loop_
_atom_site_type_symbol
_atom_site_label
_atom_site_fract_x
_atom_site_fract_y
_atom_site_fract_z
Si Si1 0.243204 0.964062 0.609419
Si Si2 0.797248 0.312465 0.884546
Si Si3 0.879934 0.572791 0.722938
Si Si4 0.204960 0.902448 0.189255
Si Si5 0.398261 0.013716 0.889589
O O1 0.232772 0.936041 0.500000
O O2 0.235226 0.914994 0.701751
O O3 0.317788 0.996384 0.612476
O O4 0.196457 0.027282 0.633910
O O5 0.727162 0.272839 0.858523
O O6 0.825073 0.375020 0.819457
O O7 0.854702 0.256039 0.869491
O O8 0.793891 0.331339 0.000000
O O9 0.850724 0.500000 0.750000
O O10 0.921600 0.593289 0.820446
O O11 0.944372 0.568562 0.648226
O O12 0.135660 0.864341 0.199840
O O13 0.419768 0.027971 0.000000
#
# Coordination Sequence:
#
# PCOD9567001 Si02
#       5
#    16  16  16  16  16
#     4  10  18  30  47  65  90 116 148 193 234 281
#     4  10  19  32  50  70  93 121 156 197 232 267
#     4  11  20  30  45  67  96 129 161 191 225 271
#     4  10  18  30  48  67  86 113 151 193 238 282
#     4  10  18  30  44  65  96 128 158 188 225 270
#
# _framework density 14.897487999999999
#
# number of rings (size 3 to 8) (size 9 to 14) (size 15 to 20)
#    0.000    1.800    4.000    3.600    0.000    4.000 
#    0.000    0.000    0.000    5.400    0.000    5.600 
#    0.000    0.400    0.000    2.200    0.000    0.000 
#
# Total GULP energy -445346.154052 kJ/mol
# GULP energy per Si atom -5566.826926 kJ/mol
# Density = 1.486358 g / cm^3
# Si number density = 14.897488 Si / 1000 Ang^3
#
#
#
# Elastic Constant Matrix: (Units=GPa)
#
#
# Indices 1 2 3 4 5 6 
#
# 1 59.8787 36.1915 24.0661 0.0000 0.0000 0.0000
# 2 36.1915 59.8787 24.0661 0.0000 0.0000 0.0000
# 3 24.0661 24.0661 98.2733 0.0000 0.0000 0.0000
# 4 0.0000 0.0000 0.0000 5.4603 0.0000 0.0000
# 5 0.0000 0.0000 0.0000 0.0000 5.4603 0.0000
# 6 0.0000 0.0000 0.0000 0.0000 0.0000 -0.9842
#
#
#
# Elastic Compliance Matrix: (Units=1/GPa)
#
#
# Indices 1 2 3 4 5 6 
#
# 1 0.027041 -0.015176 -0.002906 0.000000 0.000000 0.000000
# 2 -0.015176 0.027041 -0.002906 0.000000 0.000000 0.000000
# 3 -0.002906 -0.002906 0.011599 0.000000 0.000000 0.000000
# 4 0.000000 0.000000 0.000000 0.183139 0.000000 0.000000
# 5 0.000000 0.000000 0.000000 0.000000 0.183139 0.000000
# 6 0.000000 0.000000 0.000000 0.000000 0.000000 -1.016059
#
#
# Mechanical properties :
#
#
# Convention : Reuss Voigt Hill
#
# Bulk Modulus (GPa) = 42.18322 42.96422 42.57372
# Shear Modulus (GPa) = -9.35938 10.90109 0.77085
#
# Velocity S-wave (km/s) = -2.50922 2.70800 0.72011
# Velocity P-wave (km/s) = 4.47015 6.21934 5.41583
#
# Compressibility (1/GPa) = 0.02370611
#
# Stress axis : x y z
#
# Youngs Moduli (GPa) = 36.98110 36.98110 86.21591
#
# Poissons Ratio (x) = 0.56123 0.25051
# Poissons Ratio (y) = 0.56123 0.25051
# Poissons Ratio (z) = 0.10745 0.10745
#
# Static dielectric constant tensor:
#      x y z
#    x 1.506710 0.000000 0.000000 
#    y 0.000000 1.506710 0.000000 
#    z 0.000000 0.000000 1.538010 
# 
# From -- ./inp_files/4855.got.cif
#   From: 2010.05.17/outbox.cif.g08.bks.cpg/sg132_3_cif.got.tgz:4855.got - 2010.05.20 12:30:18.
