data_PCOD9567356
_publ_section_title
;
Structure prediction by ZEFSAII (Michael W. Deem and Ramdas Pophale) SiO2 
 PCOD9567356
Probable space group: P 42/M C M
;
_chemical_formula_sum "Si O2"
_cell_formula_units_Z 64
_cell_length_a 12.596649
_cell_length_b 12.596649
_cell_length_c 19.585197
_cell_angle_alpha 90.000000
_cell_angle_beta 90.000000
_cell_angle_gamma 90.000000
_cell_volume 3107.692220
_symmetry_space_group_name_H-M "P 42/M C M"
_symmetry_group_IT_number 132
_symmetry_cell_setting 'tetragonal'
loop_
_space_group_symop_operation_xyz
x,y,z
-y,x,1/2+z
-x,-y,z
y,-x,1/2+z
x,-y,1/2-z
-x,y,1/2-z
y,x,-z
-y,-x,-z
-x,-y,-z
y,-x,1/2-z
x,y,-z
-y,x,1/2-z
-x,y,1/2+z
x,-y,1/2+z
-y,-x,z
y,x,z
loop_
_atom_site_type_symbol
_atom_site_label
_atom_site_fract_x
_atom_site_fract_y
_atom_site_fract_z
Si Si1 0.599791 0.239900 0.793746
Si Si2 0.059706 0.227192 0.320149
Si Si3 0.711528 0.535368 0.078016
Si Si4 0.052087 0.385761 0.920374
O O1 0.500000 0.204858 0.750000
O O2 0.659996 0.340005 0.760499
O O3 0.684043 0.147236 0.801310
O O4 0.556498 0.275915 0.867061
O O5 0.124570 0.124570 0.345905
O O6 0.000000 0.200067 0.250000
O O7 0.986644 0.287978 0.374686
O O8 0.611247 0.611247 0.090518
O O9 0.821217 0.601381 0.083630
O O10 0.705156 0.495925 0.000000
O O11 0.000000 0.500000 0.898945
O O12 0.021875 0.370776 0.000000
#
# Coordination Sequence:
#
# PCOD9567356 Si02
#       4
#    16  16  16  16
#     4  11  23  37  55  82 116 158 203 245 295 360
#     4  11  25  41  62  91 123 162 207 259 313 365
#     4  10  21  37  59  89 121 154 196 246 304 370
#     4  10  20  38  65  91 119 160 205 254 309 368
#
# _framework density 20.594059999999999
#
# number of rings (size 3 to 8) (size 9 to 14) (size 15 to 20)
#    0.000    1.500    2.500    2.250    0.000    6.000 
#    0.000    3.750    0.000    0.000    0.000    5.250 
#    0.000    0.000    0.000    0.000    0.000    0.000 
#
# Total GULP energy -357666.832690 kJ/mol
# GULP energy per Si atom -5588.544261 kJ/mol
# Density = 2.054719 g / cm^3
# Si number density = 20.594060 Si / 1000 Ang^3
#
#
#
# Elastic Constant Matrix: (Units=GPa)
#
#
# Indices 1 2 3 4 5 6 
#
# 1 -25.2700 85.5041 13.4162 0.0000 0.0000 0.0000
# 2 85.5041 -25.2700 13.4162 0.0000 0.0000 0.0000
# 3 13.4162 13.4162 65.8402 0.0000 0.0000 0.0000
# 4 0.0000 0.0000 0.0000 -0.3512 0.0000 0.0000
# 5 0.0000 0.0000 0.0000 0.0000 -0.3512 0.0000
# 6 0.0000 0.0000 0.0000 0.0000 0.0000 34.1864
#
#
#
# Elastic Compliance Matrix: (Units=1/GPa)
#
#
# Indices 1 2 3 4 5 6 
#
# 1 0.004616 0.013643 -0.003721 0.000000 0.000000 0.000000
# 2 0.013643 0.004616 -0.003721 0.000000 0.000000 0.000000
# 3 -0.003721 -0.003721 0.016705 0.000000 0.000000 0.000000
# 4 0.000000 0.000000 0.000000 -2.847312 0.000000 0.000000
# 5 0.000000 0.000000 0.000000 0.000000 -2.847312 0.000000
# 6 0.000000 0.000000 0.000000 0.000000 0.000000 0.029251
#
#
# Mechanical properties :
#
#
# Convention : Reuss Voigt Hill
#
# Bulk Modulus (GPa) = 26.08205 26.66368 26.37286
# Shear Modulus (GPa) = -0.88667 0.22770 -0.32948
#
# Velocity S-wave (km/s) = -0.65687 0.33288 -0.40042
# Velocity P-wave (km/s) = 3.48095 3.62258 3.55247
#
# Compressibility (1/GPa) = 0.03834055
#
# Stress axis : x y z
#
# Youngs Moduli (GPa) = 216.63867 216.63867 59.86377
#
# Poissons Ratio (x) = -2.95568 0.22273
# Poissons Ratio (y) = -2.95568 0.22273
# Poissons Ratio (z) = 0.80604 0.80604
#
# Static dielectric constant tensor:
#      x y z
#    x 1.731580 0.000000 0.000000 
#    y 0.000000 1.731580 0.000000 
#    z 0.000000 0.000000 1.737270 
# 
# From -- ./inp_files/7432.got.cif
#   From: 2010.05.17/outbox.cif.g08.bks.cpg/sg132_4_cif.got.tgz:7432.got - 2010.05.20 12:30:18.
