data_PCOD9567701
_publ_section_title
;
Structure prediction by ZEFSAII (Michael W. Deem and Ramdas Pophale) SiO2 
 PCOD9567701
Probable space group: P 42/N B C
;
_chemical_formula_sum "Si O2"
_cell_formula_units_Z 60
_cell_length_a 13.361889
_cell_length_b 13.361889
_cell_length_c 13.828825
_cell_angle_alpha 90.000000
_cell_angle_beta 90.000000
_cell_angle_gamma 90.000000
_cell_volume 2468.999489
_symmetry_space_group_name_H-M "P 42/N B C"
_symmetry_group_IT_number 133
_space_group.IT_coordinate_system_code '2'
_symmetry_cell_setting 'tetragonal'
loop_
_space_group_symop_operation_xyz
x,y,z
1/2-y,x,1/2+z
1/2-x,1/2-y,z
y,1/2-x,1/2+z
x,1/2-y,-z
1/2-x,y,-z
y,x,1/2-z
1/2-y,1/2-x,1/2-z
-x,-y,-z
1/2+y,-x,1/2-z
1/2+x,1/2+y,-z
-y,1/2+x,1/2-z
-x,1/2+y,z
1/2+x,-y,z
-y,-x,1/2+z
1/2+y,1/2+x,1/2+z
loop_
_atom_site_type_symbol
_atom_site_label
_atom_site_fract_x
_atom_site_fract_y
_atom_site_fract_z
Si Si1 0.159215 0.881221 0.781388
Si Si2 0.135510 0.115176 0.535753
Si Si3 0.250000 0.750000 0.500000
Si Si4 0.416918 0.615859 0.508746
Si Si5 0.904300 0.904300 0.250000
O O1 0.275671 0.883688 0.752929
O O2 0.133920 0.896743 0.894574
O O3 0.110892 0.978293 0.734570
O O4 0.250000 0.134226 0.500000
O O5 0.127915 0.147022 0.648816
O O6 0.033389 0.147377 0.476253
O O7 0.111392 0.997285 0.529986
O O8 0.327492 0.679854 0.556430
#
# Coordination Sequence:
#
# PCOD9567701 Si02
#       5
#    16  16   4  16   8
#     4  10  20  35  58  92 128 172 229 298 354 421
#     4  10  20  40  59  91 133 186 238 301 362 448
#     4  12  20  36  60 100 128 170 234 290 348 444
#     4  10  22  33  60  93 130 181 235 296 374 423
#     4  10  22  36  62  92 126 176 230 294 370 420
#
# _framework density 24.301342000000002
#
# number of rings (size 3 to 8) (size 9 to 14) (size 15 to 20)
#    0.000    1.867    1.333    3.200    3.733    0.000 
#    0.000    0.667    0.000    0.800    0.000    0.000 
#    0.000    0.000    0.000    0.000    0.000    0.800 
#
# Total GULP energy -334534.196210 kJ/mol
# GULP energy per Si atom -5575.569937 kJ/mol
# Density = 2.424603 g / cm^3
# Si number density = 24.301342 Si / 1000 Ang^3
#
#
#
# Elastic Constant Matrix: (Units=GPa)
#
#
# Indices 1 2 3 4 5 6 
#
# 1 136.2674 89.2005 18.8995 0.0000 0.0000 0.0000
# 2 89.2005 136.2674 18.8995 0.0000 0.0000 0.0000
# 3 18.8995 18.8995 111.1858 0.0000 0.0000 0.0000
# 4 0.0000 0.0000 0.0000 22.1072 0.0000 0.0000
# 5 0.0000 0.0000 0.0000 0.0000 22.1072 0.0000
# 6 0.0000 0.0000 0.0000 0.0000 0.0000 -42.8293
#
#
#
# Elastic Compliance Matrix: (Units=1/GPa)
#
#
# Indices 1 2 3 4 5 6 
#
# 1 0.012906 -0.008341 -0.000776 0.000000 0.000000 0.000000
# 2 -0.008341 0.012906 -0.000776 0.000000 0.000000 0.000000
# 3 -0.000776 -0.000776 0.009258 0.000000 0.000000 0.000000
# 4 0.000000 0.000000 0.000000 0.045234 0.000000 0.000000
# 5 0.000000 0.000000 0.000000 0.000000 0.045234 0.000000
# 6 0.000000 0.000000 0.000000 0.000000 0.000000 -0.023348
#
#
# Mechanical properties :
#
#
# Convention : Reuss Voigt Hill
#
# Bulk Modulus (GPa) = 65.42648 70.85775 68.14212
# Shear Modulus (GPa) = 39.34865 17.39175 28.37020
#
# Velocity S-wave (km/s) = 4.02829 2.67810 3.42048
# Velocity P-wave (km/s) = 6.97263 6.22770 6.61067
#
# Compressibility (1/GPa) = 0.01528433
#
# Stress axis : x y z
#
# Youngs Moduli (GPa) = 77.48423 77.48423 108.01731
#
# Poissons Ratio (x) = 0.64626 0.08382
# Poissons Ratio (y) = 0.64626 0.08382
# Poissons Ratio (z) = 0.06013 0.06013
#
# Static dielectric constant tensor:
#      x y z
#    x 1.988430 0.000000 0.000000 
#    y 0.000000 1.988430 0.000000 
#    z 0.000000 0.000000 2.033590 
# 
# From -- ./inp_files/4179.got.cif
#   From: 2010.05.17/outbox.cif.g08.bks.cpg/sg133_3_cif.got.tgz:4179.got - 2010.05.20 12:37:36.
