data_PCOD9567284
_publ_section_title
;
Structure prediction by ZEFSAII (Michael W. Deem and Ramdas Pophale) SiO2 
 PCOD9567284
Probable space group: P 42/M C M
;
_chemical_formula_sum "Si O2"
_cell_formula_units_Z 56
_cell_length_a 12.301548
_cell_length_b 12.301548
_cell_length_c 18.230751
_cell_angle_alpha 90.000000
_cell_angle_beta 90.000000
_cell_angle_gamma 90.000000
_cell_volume 2758.824604
_symmetry_space_group_name_H-M "P 42/M C M"
_symmetry_group_IT_number 132
_symmetry_cell_setting 'tetragonal'
loop_
_space_group_symop_operation_xyz
x,y,z
-y,x,1/2+z
-x,-y,z
y,-x,1/2+z
x,-y,1/2-z
-x,y,1/2-z
y,x,-z
-y,-x,-z
-x,-y,-z
y,-x,1/2-z
x,y,-z
-y,x,1/2-z
-x,y,1/2+z
x,-y,1/2+z
-y,-x,z
y,x,z
loop_
_atom_site_type_symbol
_atom_site_label
_atom_site_fract_x
_atom_site_fract_y
_atom_site_fract_z
Si Si1 0.960618 0.375018 0.580250
Si Si2 0.124430 0.693826 0.731027
Si Si3 0.192650 0.624738 0.880556
Si Si4 0.316516 0.503987 0.500000
O O1 0.914771 0.351836 0.500000
O O2 0.081257 0.323690 0.587814
O O3 0.000000 0.500000 0.585440
O O4 0.884623 0.347974 0.648121
O O5 0.204056 0.795945 0.734766
O O6 0.164913 0.610169 0.794238
O O7 0.000000 0.722067 0.750000
O O8 0.286006 0.713995 0.884540
O O9 0.240541 0.526018 0.929635
O O10 0.413510 0.413510 0.500000
O O11 0.380497 0.619504 0.500000
#
# Coordination Sequence:
#
# PCOD9567284 Si02
#       4
#    16  16  16   8
#     4  10  20  34  55  80 107 148 192 236 282 339
#     4   9  19  34  54  80 110 149 190 237 288 346
#     4   9  17  32  54  78 107 145 188 226 278 349
#     4   9  16  28  51  82 111 141 183 234 282 334
#
# _framework density 20.298499
#
# number of rings (size 3 to 8) (size 9 to 14) (size 15 to 20)
#    0.000    2.714    1.429    0.000    0.000    6.000 
#    0.000    1.429    0.000    1.714    0.000    8.000 
#    0.000    0.000    0.000    2.571    0.000    0.000 
#
# Total GULP energy -311887.585239 kJ/mol
# GULP energy per Si atom -5569.421165 kJ/mol
# Density = 2.025230 g / cm^3
# Si number density = 20.298499 Si / 1000 Ang^3
#
#
#
# Elastic Constant Matrix: (Units=GPa)
#
#
# Indices 1 2 3 4 5 6 
#
# 1 78.2450 40.9328 70.2849 0.0000 0.0000 0.0000
# 2 40.9328 78.2447 70.2848 0.0000 0.0000 0.0000
# 3 70.2849 70.2848 232.3569 0.0000 0.0000 0.0000
# 4 0.0000 0.0000 0.0000 27.1578 0.0000 0.0000
# 5 0.0000 0.0000 0.0000 0.0000 27.1579 0.0000
# 6 0.0000 0.0000 0.0000 0.0000 0.0000 18.0818
#
#
#
# Elastic Compliance Matrix: (Units=1/GPa)
#
#
# Indices 1 2 3 4 5 6 
#
# 1 0.019923 -0.006878 -0.003946 0.000000 0.000000 0.000000
# 2 -0.006878 0.019923 -0.003946 0.000000 0.000000 0.000000
# 3 -0.003946 -0.003946 0.006691 0.000000 0.000000 0.000000
# 4 0.000000 0.000000 0.000000 0.036822 0.000000 0.000000
# 5 0.000000 0.000000 0.000000 0.000000 0.036822 0.000000
# 6 0.000000 0.000000 0.000000 0.000000 0.000000 0.055304
#
#
# Mechanical properties :
#
#
# Convention : Reuss Voigt Hill
#
# Bulk Modulus (GPa) = 58.83303 83.53906 71.18604
# Shear Modulus (GPa) = 23.73151 28.30244 26.01697
#
# Velocity S-wave (km/s) = 3.42296 3.73810 3.58399
# Velocity P-wave (km/s) = 6.68349 7.73795 7.22997
#
# Compressibility (1/GPa) = 0.01699726
#
# Stress axis : x y z
#
# Youngs Moduli (GPa) = 50.19323 50.19299 149.45604
#
# Poissons Ratio (x) = 0.34523 0.58975
# Poissons Ratio (y) = 0.34523 0.58975
# Poissons Ratio (z) = 0.19806 0.19806
#
# Static dielectric constant tensor:
#      x y z
#    x 1.767270 0.000000 0.000000 
#    y 0.000000 1.767270 0.000000 
#    z 0.000000 0.000000 1.794060 
# 
# From -- ./inp_files/7345.got.cif
#   From: 2010.05.17/outbox.cif.g08.bks.cpg/sg132_4_cif.got.tgz:7345.got - 2010.05.20 12:30:18.
