data_PCOD9567879
_publ_section_title
;
Structure prediction by ZEFSAII (Michael W. Deem and Ramdas Pophale) SiO2 
 PCOD9567879
Probable space group: P 42/N B C
;
_chemical_formula_sum "Si O2"
_cell_formula_units_Z 116
_cell_length_a 18.940191
_cell_length_b 18.940191
_cell_length_c 15.981811
_cell_angle_alpha 90.000000
_cell_angle_beta 90.000000
_cell_angle_gamma 90.000000
_cell_volume 5733.168407
_symmetry_space_group_name_H-M "P 42/N B C"
_symmetry_group_IT_number 133
_space_group.IT_coordinate_system_code '2'
_symmetry_cell_setting 'tetragonal'
loop_
_space_group_symop_operation_xyz
x,y,z
1/2-y,x,1/2+z
1/2-x,1/2-y,z
y,1/2-x,1/2+z
x,1/2-y,-z
1/2-x,y,-z
y,x,1/2-z
1/2-y,1/2-x,1/2-z
-x,-y,-z
1/2+y,-x,1/2-z
1/2+x,1/2+y,-z
-y,1/2+x,1/2-z
-x,1/2+y,z
1/2+x,-y,z
-y,-x,1/2+z
1/2+y,1/2+x,1/2+z
loop_
_atom_site_type_symbol
_atom_site_label
_atom_site_fract_x
_atom_site_fract_y
_atom_site_fract_z
Si Si1 0.997906 0.078893 0.371955
Si Si2 0.730521 0.912347 0.699575
Si Si3 0.505919 0.822541 0.523288
Si Si4 0.250000 0.250000 0.250000
Si Si5 0.780050 0.049810 0.193596
Si Si6 0.350029 0.019856 0.588065
Si Si7 0.897993 0.552330 0.590132
Si Si8 0.415436 0.862390 0.226661
O O1 0.976918 0.138330 0.440579
O O2 0.979371 0.104295 0.279883
O O3 0.079225 0.061688 0.385903
O O4 0.953351 0.008562 0.388429
O O5 0.747918 0.829696 0.710976
O O6 0.784150 0.942358 0.630370
O O7 0.652313 0.923882 0.664226
O O8 0.734107 0.968329 0.776916
O O9 0.545131 0.750000 0.500000
O O10 0.451781 0.796554 0.594680
O O11 0.557336 0.879889 0.563014
O O12 0.713440 0.093443 0.228951
O O13 0.849525 0.085430 0.233296
O O14 0.352250 0.023115 0.488103
O O15 0.354466 0.943114 0.631791
#
# Coordination Sequence:
#
# PCOD9567879 Si02
#       8
#    16  16  16   4  16  16  16  16
#     4  11  21  39  64  95 122 162 211 263 312 370
#     4  11  25  41  61  88 131 170 212 252 312 374
#     4  11  22  37  62  95 128 159 210 267 318 369
#     4  12  28  40  58  92 128 172 210 268 304 362
#     4  11  23  42  64  94 124 167 205 258 316 376
#     4  10  23  37  62  89 122 166 209 262 303 372
#     4  11  22  41  62  91 127 167 212 259 312 376
#     4  11  22  39  66  93 124 163 210 259 315 376
#
# _framework density 20.233139999999999
#
# number of rings (size 3 to 8) (size 9 to 14) (size 15 to 20)
#    0.000    1.103    2.759    4.966    3.862    2.483 
#    0.000    0.690    0.000    0.000    0.000    0.000 
#    0.000    0.000    0.000    0.000    0.000    0.000 
#
# Total GULP energy -647215.107053 kJ/mol
# GULP energy per Si atom -5579.440578 kJ/mol
# Density = 2.018709 g / cm^3
# Si number density = 20.233140 Si / 1000 Ang^3
#
#
#
# Elastic Constant Matrix: (Units=GPa)
#
#
# Indices 1 2 3 4 5 6 
#
# 1 95.0050 20.6138 6.3369 0.0000 0.0000 0.0000
# 2 20.6138 95.0050 6.3369 0.0000 0.0000 0.0000
# 3 6.3369 6.3369 59.2001 0.0000 0.0000 0.0000
# 4 0.0000 0.0000 0.0000 15.1672 0.0000 0.0000
# 5 0.0000 0.0000 0.0000 0.0000 15.1672 0.0000
# 6 0.0000 0.0000 0.0000 0.0000 0.0000 20.0369
#
#
#
# Elastic Compliance Matrix: (Units=1/GPa)
#
#
# Indices 1 2 3 4 5 6 
#
# 1 0.011097 -0.002345 -0.000937 0.000000 0.000000 0.000000
# 2 -0.002345 0.011097 -0.000937 0.000000 0.000000 0.000000
# 3 -0.000937 -0.000937 0.017092 0.000000 0.000000 0.000000
# 4 0.000000 0.000000 0.000000 0.065932 0.000000 0.000000
# 5 0.000000 0.000000 0.000000 0.000000 0.065932 0.000000
# 6 0.000000 0.000000 0.000000 0.000000 0.000000 0.049908
#
#
# Mechanical properties :
#
#
# Convention : Reuss Voigt Hill
#
# Bulk Modulus (GPa) = 32.41620 35.08726 33.75173
# Shear Modulus (GPa) = 20.85255 24.46910 22.66082
#
# Velocity S-wave (km/s) = 3.21380 3.48135 3.35025
# Velocity P-wave (km/s) = 5.46145 5.79128 5.62878
#
# Compressibility (1/GPa) = 0.03084878
#
# Stress axis : x y z
#
# Youngs Moduli (GPa) = 90.11343 90.11343 58.50550
#
# Poissons Ratio (x) = 0.21134 0.05481
# Poissons Ratio (y) = 0.21134 0.05481
# Poissons Ratio (z) = 0.08442 0.08442
#
# Static dielectric constant tensor:
#      x y z
#    x 1.722130 0.000000 0.000000 
#    y 0.000000 1.722130 0.000000 
#    z 0.000000 0.000000 1.730560 
# 
# From -- ./inp_files/5656.got.cif
#   From: 2010.05.17/outbox.cif.g08.bks.cpg/sg133_3_cif.got.tgz:5656.got - 2010.05.20 12:37:36.
