data_PCOD9567783
_publ_section_title
;
Structure prediction by ZEFSAII (Michael W. Deem and Ramdas Pophale) SiO2 
 PCOD9567783
Probable space group: P 42/N B C
;
_chemical_formula_sum "Si O2"
_cell_formula_units_Z 96
_cell_length_a 23.513876
_cell_length_b 23.513876
_cell_length_c 8.407017
_cell_angle_alpha 90.000000
_cell_angle_beta 90.000000
_cell_angle_gamma 90.000000
_cell_volume 4648.259578
_symmetry_space_group_name_H-M "P 42/N B C"
_symmetry_group_IT_number 133
_space_group.IT_coordinate_system_code '2'
_symmetry_cell_setting 'tetragonal'
loop_
_space_group_symop_operation_xyz
x,y,z
1/2-y,x,1/2+z
1/2-x,1/2-y,z
y,1/2-x,1/2+z
x,1/2-y,-z
1/2-x,y,-z
y,x,1/2-z
1/2-y,1/2-x,1/2-z
-x,-y,-z
1/2+y,-x,1/2-z
1/2+x,1/2+y,-z
-y,1/2+x,1/2-z
-x,1/2+y,z
1/2+x,-y,z
-y,-x,1/2+z
1/2+y,1/2+x,1/2+z
loop_
_atom_site_type_symbol
_atom_site_label
_atom_site_fract_x
_atom_site_fract_y
_atom_site_fract_z
Si Si1 0.152897 0.667419 0.226782
Si Si2 0.615097 0.463624 0.156787
Si Si3 0.961876 0.293378 0.870844
Si Si4 0.338706 0.750000 0.500000
Si Si5 0.805719 0.964200 0.922695
Si Si6 0.494578 0.915759 0.001175
Si Si7 0.410801 0.410801 0.250000
O O1 0.140033 0.598834 0.213903
O O2 0.105677 0.702315 0.129877
O O3 0.141545 0.692645 0.403380
O O4 0.214474 0.681278 0.154859
O O5 0.593233 0.496147 0.313559
O O6 0.658989 0.501311 0.056369
O O7 0.559984 0.452672 0.048042
O O8 0.987773 0.282342 0.698792
O O9 0.983381 0.250000 0.000000
O O10 0.980899 0.354855 0.923876
O O11 0.847504 0.923994 0.817755
O O12 0.750000 0.935847 0.000000
O O13 0.550275 0.930315 0.101133
#
# Coordination Sequence:
#
# PCOD9567783 Si02
#       7
#    16  16  16   8  16  16   8
#     4  11  26  40  58  84 113 168 220 298 334 401
#     4  11  22  41  63  97 124 168 232 265 357 399
#     4  10  21  39  60  87 119 162 219 270 328 392
#     4  12  28  41  54  68 114 164 226 288 351 380
#     4  11  24  41  70  96 131 174 210 269 333 409
#     4  10  21  37  61  90 134 168 208 279 323 403
#     4  10  24  44  62 106 140 169 220 261 338 412
#
# _framework density 20.652892000000001
#
# number of rings (size 3 to 8) (size 9 to 14) (size 15 to 20)
#    0.000    1.333    0.000    7.000    9.333    4.333 
#    0.000    0.000    0.000    0.000    0.000    0.000 
#    0.000   78.667    0.000    0.000    0.000    0.000 
#
# Total GULP energy -535105.550410 kJ/mol
# GULP energy per Si atom -5574.016150 kJ/mol
# Density = 2.060588 g / cm^3
# Si number density = 20.652892 Si / 1000 Ang^3
#
#
#
# Elastic Constant Matrix: (Units=GPa)
#
#
# Indices 1 2 3 4 5 6 
#
# 1 82.2649 37.2983 35.8096 0.0000 0.0000 0.0000
# 2 37.2983 82.2649 35.8096 0.0000 0.0000 0.0000
# 3 35.8096 35.8096 122.9646 0.0000 0.0000 0.0000
# 4 0.0000 0.0000 0.0000 38.2232 0.0000 0.0000
# 5 0.0000 0.0000 0.0000 0.0000 38.2232 0.0000
# 6 0.0000 0.0000 0.0000 0.0000 0.0000 28.0350
#
#
#
# Elastic Compliance Matrix: (Units=1/GPa)
#
#
# Indices 1 2 3 4 5 6 
#
# 1 0.016185 -0.006054 -0.002950 0.000000 0.000000 0.000000
# 2 -0.006054 0.016185 -0.002950 0.000000 0.000000 0.000000
# 3 -0.002950 -0.002950 0.009851 0.000000 0.000000 0.000000
# 4 0.000000 0.000000 0.000000 0.026162 0.000000 0.000000
# 5 0.000000 0.000000 0.000000 0.000000 0.026162 0.000000
# 6 0.000000 0.000000 0.000000 0.000000 0.000000 0.035670
#
#
# Mechanical properties :
#
#
# Convention : Reuss Voigt Hill
#
# Bulk Modulus (GPa) = 54.61041 56.14769 55.37905
# Shear Modulus (GPa) = 31.20565 32.80143 32.00354
#
# Velocity S-wave (km/s) = 3.89132 3.98958 3.94076
# Velocity P-wave (km/s) = 6.83295 6.96187 6.89771
#
# Compressibility (1/GPa) = 0.01831153
#
# Stress axis : x y z
#
# Youngs Moduli (GPa) = 61.78603 61.78603 101.51441
#
# Poissons Ratio (x) = 0.37404 0.29950
# Poissons Ratio (y) = 0.37404 0.29950
# Poissons Ratio (z) = 0.18229 0.18229
#
# Static dielectric constant tensor:
#      x y z
#    x 1.786870 0.000000 0.000000 
#    y 0.000000 1.786870 0.000000 
#    z 0.000000 0.000000 1.760430 
# 
# From -- ./inp_files/1955.got.cif
#   From: 2010.05.17/outbox.cif.g08.bks.cpg/sg133_1_cif.got.tgz:1955.got - 2010.05.20 12:37:36.
