data_PCOD9567278
_publ_section_title
;
Structure prediction by ZEFSAII (Michael W. Deem and Ramdas Pophale) SiO2 
 PCOD9567278
Probable space group: P 42/M C M
;
_chemical_formula_sum "Si O2"
_cell_formula_units_Z 96
_cell_length_a 15.362384
_cell_length_b 15.362384
_cell_length_c 20.369536
_cell_angle_alpha 90.000000
_cell_angle_beta 90.000000
_cell_angle_gamma 90.000000
_cell_volume 4807.268390
_symmetry_space_group_name_H-M "P 42/M C M"
_symmetry_group_IT_number 132
_symmetry_cell_setting 'tetragonal'
loop_
_space_group_symop_operation_xyz
x,y,z
-y,x,1/2+z
-x,-y,z
y,-x,1/2+z
x,-y,1/2-z
-x,y,1/2-z
y,x,-z
-y,-x,-z
-x,-y,-z
y,-x,1/2-z
x,y,-z
-y,x,1/2-z
-x,y,1/2+z
x,-y,1/2+z
-y,-x,z
y,x,z
loop_
_atom_site_type_symbol
_atom_site_label
_atom_site_fract_x
_atom_site_fract_y
_atom_site_fract_z
Si Si1 0.907349 0.767434 0.599835
Si Si2 0.265256 0.405594 0.280987
Si Si3 0.922356 0.442300 0.574836
Si Si4 0.904915 0.298755 0.754299
Si Si5 0.104133 0.755508 0.388302
Si Si6 0.208258 0.599124 0.071831
O O1 0.847029 0.847029 0.579130
O O2 0.902237 0.755449 0.678627
O O3 0.862292 0.678013 0.575249
O O4 0.008749 0.779071 0.583558
O O5 0.277503 0.500000 0.250000
O O6 0.340123 0.340123 0.258145
O O7 0.172802 0.367179 0.257718
O O8 0.261947 0.400858 0.360665
O O9 0.951776 0.423679 0.500000
O O10 0.892905 0.349184 0.601701
O O11 0.842667 0.508315 0.573617
O O12 0.000000 0.500000 0.607051
O O13 0.897551 0.238755 0.690653
O O14 0.000000 0.342404 0.750000
O O15 0.183232 0.816769 0.412496
O O16 0.251588 0.606251 0.000000
#
# Coordination Sequence:
#
# PCOD9567278 Si02
#       6
#    16  16  16  16  16  16
#     4  10  20  34  53  80 118 160 198 239 288 346
#     4  11  23  39  60  89 123 157 197 245 302 368
#     4  10  20  36  56  80 112 148 191 243 301 359
#     4   9  19  35  55  82 115 150 191 248 301 353
#     4  11  21  34  55  81 115 158 199 244 298 357
#     4  10  20  37  63  90 115 151 200 254 304 356
#
# _framework density 19.969759
#
# number of rings (size 3 to 8) (size 9 to 14) (size 15 to 20)
#    0.000    1.833    1.667    4.000    0.000    2.500 
#    0.000    0.000    0.000    4.500    0.000    3.500 
#    0.000    0.000    0.000    0.000    0.000    0.000 
#
# Total GULP energy -535347.162433 kJ/mol
# GULP energy per Si atom -5576.532942 kJ/mol
# Density = 1.992431 g / cm^3
# Si number density = 19.969759 Si / 1000 Ang^3
#
#
#
# Elastic Constant Matrix: (Units=GPa)
#
#
# Indices 1 2 3 4 5 6 
#
# 1 118.6911 120.8594 24.1667 0.0000 0.0000 0.0000
# 2 120.8594 118.6911 24.1667 0.0000 0.0000 0.0000
# 3 24.1667 24.1667 86.6099 0.0000 0.0000 0.0000
# 4 0.0000 0.0000 0.0000 14.8241 0.0000 0.0000
# 5 0.0000 0.0000 0.0000 0.0000 14.8241 0.0000
# 6 0.0000 0.0000 0.0000 0.0000 0.0000 11.7873
#
#
#
# Elastic Compliance Matrix: (Units=1/GPa)
#
#
# Indices 1 2 3 4 5 6 
#
# 1 -0.228386 0.232809 -0.001234 0.000000 0.000000 0.000000
# 2 0.232809 -0.228386 -0.001234 0.000000 0.000000 0.000000
# 3 -0.001234 -0.001234 0.012235 0.000000 0.000000 0.000000
# 4 0.000000 0.000000 0.000000 0.067458 0.000000 0.000000
# 5 0.000000 0.000000 0.000000 0.000000 0.067458 0.000000
# 6 0.000000 0.000000 0.000000 0.000000 0.000000 0.084837
#
#
# Mechanical properties :
#
#
# Convention : Reuss Voigt Hill
#
# Bulk Modulus (GPa) = 61.93980 73.59754 67.76867
# Shear Modulus (GPa) = -7.35204 18.60703 5.62750
#
# Velocity S-wave (km/s) = -1.92083 3.05579 1.68051
# Velocity P-wave (km/s) = 5.11514 7.02744 6.14612
#
# Compressibility (1/GPa) = 0.01614471
#
# Stress axis : x y z
#
# Youngs Moduli (GPa) = -4.37856 -4.37856 81.73380
#
# Poissons Ratio (x) = 1.01937 0.10088
# Poissons Ratio (y) = 1.01937 0.10088
# Poissons Ratio (z) = -0.00540 -0.00540
#
# Static dielectric constant tensor:
#      x y z
#    x 1.702980 0.000000 0.000000 
#    y 0.000000 1.702980 0.000000 
#    z 0.000000 0.000000 1.782970 
# 
# From -- ./inp_files/7861.got.cif
#   From: 2010.05.17/outbox.cif.g08.bks.cpg/sg132_4_cif.got.tgz:7861.got - 2010.05.20 12:30:18.
