data_PCOD9567208
_publ_section_title
;
Structure prediction by ZEFSAII (Michael W. Deem and Ramdas Pophale) SiO2 
 PCOD9567208
Probable space group: P 42/M C M
;
_chemical_formula_sum "Si O2"
_cell_formula_units_Z 112
_cell_length_a 27.190603
_cell_length_b 27.190603
_cell_length_c 7.375183
_cell_angle_alpha 90.000000
_cell_angle_beta 90.000000
_cell_angle_gamma 90.000000
_cell_volume 5452.685872
_symmetry_space_group_name_H-M "P 42/M C M"
_symmetry_group_IT_number 132
_symmetry_cell_setting 'tetragonal'
loop_
_space_group_symop_operation_xyz
x,y,z
-y,x,1/2+z
-x,-y,z
y,-x,1/2+z
x,-y,1/2-z
-x,y,1/2-z
y,x,-z
-y,-x,-z
-x,-y,-z
y,-x,1/2-z
x,y,-z
-y,x,1/2-z
-x,y,1/2+z
x,-y,1/2+z
-y,-x,z
y,x,z
loop_
_atom_site_type_symbol
_atom_site_label
_atom_site_fract_x
_atom_site_fract_y
_atom_site_fract_z
Si Si1 0.446352 0.234921 0.783983
Si Si2 0.811649 0.732057 0.219729
Si Si3 0.734696 0.655669 0.221140
Si Si4 0.922394 0.247865 0.278970
Si Si5 0.877236 0.555292 0.217215
Si Si6 0.056116 0.863252 0.283397
Si Si7 0.643401 0.054244 0.284375
O O1 0.500000 0.256011 0.750000
O O2 0.400062 0.265492 0.716496
O O3 0.444645 0.178884 0.712870
O O4 0.440801 0.231159 0.000000
O O5 0.774361 0.774361 0.276892
O O6 0.786511 0.680997 0.273747
O O7 0.865892 0.744915 0.276423
O O8 0.812842 0.731787 0.000000
O O9 0.690738 0.690738 0.283252
O O10 0.733080 0.656860 0.000000
O O11 0.926543 0.246751 0.500000
O O12 0.939614 0.193696 0.216022
O O13 0.944998 0.299978 0.215396
O O14 0.897628 0.500000 0.250000
O O15 0.907346 0.602669 0.285515
O O16 0.875499 0.560470 0.000000
O O17 0.062919 0.860731 0.500000
O O18 0.098287 0.901714 0.217030
O O19 0.000000 0.880270 0.250000
O O20 0.647554 0.063216 0.500000
O O21 0.623488 0.000000 0.250000
#
# Coordination Sequence:
#
# PCOD9567208 Si02
#       7
#    16  16  16  16  16  16  16
#     4   9  16  27  43  62  85 112 143 176 210 250
#     4   8  12  19  36  63  90 112 135 167 208 251
#     4   8  13  21  36  61  90 116 142 175 214 253
#     4   9  16  28  46  67  92 117 141 174 217 264
#     4   9  18  31  46  64  86 115 150 186 221 256
#     4  10  21  36  54  75  96 118 145 178 219 269
#     4  10  20  32  46  64  86 113 145 181 221 260
#
# _framework density 20.540336
#
# number of rings (size 3 to 8) (size 9 to 14) (size 15 to 20)
#    0.000    3.000    0.000    2.571    0.000    6.429 
#    0.000    2.143    0.000    0.429    0.000    1.000 
#    0.000    2.571    0.000    3.571    0.000    0.000 
#
# Total GULP energy -624368.895223 kJ/mol
# GULP energy per Si atom -5574.722279 kJ/mol
# Density = 2.049359 g / cm^3
# Si number density = 20.540336 Si / 1000 Ang^3
#
#
#
# Elastic Constant Matrix: (Units=GPa)
#
#
# Indices 1 2 3 4 5 6 
#
# 1 131.1200 54.5351 0.1338 0.0000 0.0000 0.0000
# 2 54.5351 131.1200 0.1338 0.0000 0.0000 0.0000
# 3 0.1338 0.1338 73.0739 0.0000 0.0000 0.0000
# 4 0.0000 0.0000 0.0000 8.8131 0.0000 0.0000
# 5 0.0000 0.0000 0.0000 0.0000 8.8131 0.0000
# 6 0.0000 0.0000 0.0000 0.0000 0.0000 20.7404
#
#
#
# Elastic Compliance Matrix: (Units=1/GPa)
#
#
# Indices 1 2 3 4 5 6 
#
# 1 0.009222 -0.003836 -0.000010 0.000000 0.000000 0.000000
# 2 -0.003836 0.009222 -0.000010 0.000000 0.000000 0.000000
# 3 -0.000010 -0.000010 0.013685 0.000000 0.000000 0.000000
# 4 0.000000 0.000000 0.000000 0.113467 0.000000 0.000000
# 5 0.000000 0.000000 0.000000 0.000000 0.113467 0.000000
# 6 0.000000 0.000000 0.000000 0.000000 0.000000 0.048215
#
#
# Mechanical properties :
#
#
# Convention : Reuss Voigt Hill
#
# Bulk Modulus (GPa) = 40.95331 49.43548 45.19440
# Shear Modulus (GPa) = 15.47375 26.37406 20.92391
#
# Velocity S-wave (km/s) = 2.74767 3.58720 3.19513
# Velocity P-wave (km/s) = 5.48156 6.42473 5.97179
#
# Compressibility (1/GPa) = 0.02441805
#
# Stress axis : x y z
#
# Youngs Moduli (GPa) = 108.43778 108.43778 73.07371
#
# Poissons Ratio (x) = 0.41592 0.00072
# Poissons Ratio (y) = 0.41592 0.00072
# Poissons Ratio (z) = 0.00107 0.00107
#
# Static dielectric constant tensor:
#      x y z
#    x 1.741820 0.000000 0.000000 
#    y 0.000000 1.741820 0.000000 
#    z 0.000000 0.000000 1.827720 
# 
# From -- ./inp_files/3534.got.cif
#   From: 2010.05.17/outbox.cif.g08.bks.cpg/sg132_2_cif.got.tgz:3534.got - 2010.05.20 12:30:18.
