data_PCOD9567157
_publ_section_title
;
Structure prediction by ZEFSAII (Michael W. Deem and Ramdas Pophale) SiO2 
 PCOD9567157
Probable space group: P 42/M C M
;
_chemical_formula_sum "Si O2"
_cell_formula_units_Z 72
_cell_length_a 12.725971
_cell_length_b 12.725971
_cell_length_c 25.840557
_cell_angle_alpha 90.000000
_cell_angle_beta 90.000000
_cell_angle_gamma 90.000000
_cell_volume 4184.886937
_symmetry_space_group_name_H-M "P 42/M C M"
_symmetry_group_IT_number 132
_symmetry_cell_setting 'tetragonal'
loop_
_space_group_symop_operation_xyz
x,y,z
-y,x,1/2+z
-x,-y,z
y,-x,1/2+z
x,-y,1/2-z
-x,y,1/2-z
y,x,-z
-y,-x,-z
-x,-y,-z
y,-x,1/2-z
x,y,-z
-y,x,1/2-z
-x,y,1/2+z
x,-y,1/2+z
-y,-x,z
y,x,z
loop_
_atom_site_type_symbol
_atom_site_label
_atom_site_fract_x
_atom_site_fract_y
_atom_site_fract_z
Si Si1 0.747659 0.926887 0.939701
Si Si2 0.280397 0.111486 0.763930
Si Si3 0.913166 0.086835 0.936888
Si Si4 0.426885 0.744106 0.199011
Si Si5 0.567141 0.104633 0.360147
O O1 0.839073 0.839073 0.937111
O O2 0.649894 0.888925 0.906407
O O3 0.801774 0.036698 0.920582
O O4 0.719484 0.940110 0.000000
O O5 0.194169 0.194169 0.782483
O O6 0.343759 0.166646 0.717267
O O7 0.365383 0.090678 0.808031
O O8 0.231638 0.000000 0.750000
O O9 0.911276 0.088725 0.000000
O O10 0.000000 0.000000 0.921860
O O11 0.500000 0.725009 0.250000
O O12 0.359929 0.640072 0.186881
O O13 0.495454 0.793988 0.152918
O O14 0.500000 0.000000 0.368246
#
# Coordination Sequence:
#
# PCOD9567157 Si02
#       5
#    16  16   8  16  16
#     4   9  18  34  55  79 106 136 171 213 261 312
#     4  10  19  34  53  75 104 139 173 205 255 314
#     4   7  12  28  52  74 102 134 163 203 251 303
#     4   9  19  34  54  75 103 142 183 223 260 303
#     4  11  20  33  54  76 105 140 175 214 260 316
#
# _framework density 17.204765999999999
#
# number of rings (size 3 to 8) (size 9 to 14) (size 15 to 20)
#    0.000    2.556    2.222    2.000    0.000    1.778 
#    4.000    0.000    0.000    0.667    0.000    1.556 
#    0.000    0.000    0.000    0.000    0.000    0.000 
#
# Total GULP energy -400981.764801 kJ/mol
# GULP energy per Si atom -5569.191178 kJ/mol
# Density = 1.716561 g / cm^3
# Si number density = 17.204766 Si / 1000 Ang^3
#
#
#
# Elastic Constant Matrix: (Units=GPa)
#
#
# Indices 1 2 3 4 5 6 
#
# 1 79.9060 34.9948 27.4595 0.0000 0.0000 0.0000
# 2 34.9948 79.9062 27.4595 0.0000 0.0000 0.0000
# 3 27.4595 27.4595 48.4003 0.0000 0.0000 0.0000
# 4 0.0000 0.0000 0.0000 45.4656 0.0000 0.0000
# 5 0.0000 0.0000 0.0000 0.0000 45.4655 0.0000
# 6 0.0000 0.0000 0.0000 0.0000 0.0000 13.6227
#
#
#
# Elastic Compliance Matrix: (Units=1/GPa)
#
#
# Indices 1 2 3 4 5 6 
#
# 1 0.017104 -0.005162 -0.006775 0.000000 0.000000 0.000000
# 2 -0.005162 0.017104 -0.006775 0.000000 0.000000 0.000000
# 3 -0.006775 -0.006775 0.028348 0.000000 0.000000 0.000000
# 4 0.000000 0.000000 0.000000 0.021995 0.000000 0.000000
# 5 0.000000 0.000000 0.000000 0.000000 0.021995 0.000000
# 6 0.000000 0.000000 0.000000 0.000000 0.000000 0.073407
#
#
# Mechanical properties :
#
#
# Convention : Reuss Voigt Hill
#
# Bulk Modulus (GPa) = 39.79041 43.11557 41.45299
# Shear Modulus (GPa) = 22.14810 28.79733 25.47272
#
# Velocity S-wave (km/s) = 3.59182 4.09565 3.85198
# Velocity P-wave (km/s) = 6.35447 6.89060 6.62796
#
# Compressibility (1/GPa) = 0.02513169
#
# Stress axis : x y z
#
# Youngs Moduli (GPa) = 58.46680 58.46704 35.27556
#
# Poissons Ratio (x) = 0.30183 0.23899
# Poissons Ratio (y) = 0.30183 0.23898
# Poissons Ratio (z) = 0.39610 0.39610
#
# Static dielectric constant tensor:
#      x y z
#    x 1.602560 0.000000 0.000000 
#    y 0.000000 1.602570 0.000000 
#    z 0.000000 0.000000 1.578530 
# 
# From -- ./inp_files/9734.got.cif
#   From: 2010.05.17/outbox.cif.g08.bks.cpg/sg132_5_cif.got.tgz:9734.got - 2010.05.20 12:30:18.
