data_PCOD9567761
_publ_section_title
;
Structure prediction by ZEFSAII (Michael W. Deem and Ramdas Pophale) SiO2 
 PCOD9567761
Probable space group: P 42/N B C
;
_chemical_formula_sum "Si O2"
_cell_formula_units_Z 64
_cell_length_a 13.823805
_cell_length_b 13.823805
_cell_length_c 17.227885
_cell_angle_alpha 90.000000
_cell_angle_beta 90.000000
_cell_angle_gamma 90.000000
_cell_volume 3292.207213
_symmetry_space_group_name_H-M "P 42/N B C"
_symmetry_group_IT_number 133
_space_group.IT_coordinate_system_code '2'
_symmetry_cell_setting 'tetragonal'
loop_
_space_group_symop_operation_xyz
x,y,z
1/2-y,x,1/2+z
1/2-x,1/2-y,z
y,1/2-x,1/2+z
x,1/2-y,-z
1/2-x,y,-z
y,x,1/2-z
1/2-y,1/2-x,1/2-z
-x,-y,-z
1/2+y,-x,1/2-z
1/2+x,1/2+y,-z
-y,1/2+x,1/2-z
-x,1/2+y,z
1/2+x,-y,z
-y,-x,1/2+z
1/2+y,1/2+x,1/2+z
loop_
_atom_site_type_symbol
_atom_site_label
_atom_site_fract_x
_atom_site_fract_y
_atom_site_fract_z
Si Si1 0.250000 0.250000 0.000000
Si Si2 0.250000 0.750000 0.000000
Si Si3 0.064751 0.064751 0.250000
Si Si4 0.605566 0.406568 0.960579
Si Si5 0.503684 0.570067 0.380424
Si Si6 0.215573 0.418214 0.886537
O O1 0.198843 0.322647 0.938876
O O2 0.324142 0.815894 0.951514
O O3 0.074606 0.155643 0.307263
O O4 0.052399 0.971423 0.305915
O O5 0.510058 0.417559 0.908340
O O6 0.670940 0.497182 0.937986
O O7 0.577071 0.425427 0.049876
O O8 0.557873 0.672014 0.371588
#
# Coordination Sequence:
#
# PCOD9567761 Si02
#       6
#     4   4   8  16  16  16
#     4  12  22  36  76  90 128 176 230 286 332 392
#     4  12  18  38  68 104 118 168 214 292 308 410
#     4  10  26  41  64  95 142 170 222 282 362 402
#     4  10  21  39  68  96 130 164 233 275 324 397
#     4  10  20  44  62  89 134 179 207 287 338 400
#     4  11  22  46  62  99 134 173 230 294 324 422
#
# _framework density 19.439847
#
# number of rings (size 3 to 8) (size 9 to 14) (size 15 to 20)
#    0.000    1.500    5.000    0.000    0.000    3.500 
#    9.000    0.000    0.000    1.500    0.000    0.000 
#    0.000    0.000    0.000    0.000    0.000    0.000 
#
# Total GULP energy -356620.231997 kJ/mol
# GULP energy per Si atom -5572.191125 kJ/mol
# Density = 1.939560 g / cm^3
# Si number density = 19.439847 Si / 1000 Ang^3
#
#
#
# Elastic Constant Matrix: (Units=GPa)
#
#
# Indices 1 2 3 4 5 6 
#
# 1 126.2393 39.3180 48.4682 0.0000 0.0000 0.0000
# 2 39.3180 126.2393 48.4682 0.0000 0.0000 0.0000
# 3 48.4682 48.4682 138.3869 0.0000 0.0000 0.0000
# 4 0.0000 0.0000 0.0000 11.5018 0.0000 0.0000
# 5 0.0000 0.0000 0.0000 0.0000 11.5018 0.0000
# 6 0.0000 0.0000 0.0000 0.0000 0.0000 5.8242
#
#
#
# Elastic Compliance Matrix: (Units=1/GPa)
#
#
# Indices 1 2 3 4 5 6 
#
# 1 0.009552 -0.001953 -0.002661 0.000000 0.000000 0.000000
# 2 -0.001953 0.009552 -0.002661 0.000000 0.000000 0.000000
# 3 -0.002661 -0.002661 0.009090 0.000000 0.000000 0.000000
# 4 0.000000 0.000000 0.000000 0.086943 0.000000 0.000000
# 5 0.000000 0.000000 0.000000 0.000000 0.086943 0.000000
# 6 0.000000 0.000000 0.000000 0.000000 0.000000 0.171697
#
#
# Mechanical properties :
#
#
# Convention : Reuss Voigt Hill
#
# Bulk Modulus (GPa) = 73.30257 73.70827 73.50542
# Shear Modulus (GPa) = 12.72670 22.73963 17.73316
#
# Velocity S-wave (km/s) = 2.56143 3.42386 3.02355
# Velocity P-wave (km/s) = 6.82181 7.32317 7.07693
#
# Compressibility (1/GPa) = 0.01364209
#
# Stress axis : x y z
#
# Youngs Moduli (GPa) = 104.69526 104.69526 110.00797
#
# Poissons Ratio (x) = 0.20448 0.29276
# Poissons Ratio (y) = 0.20448 0.29276
# Poissons Ratio (z) = 0.27862 0.27862
#
# Static dielectric constant tensor:
#      x y z
#    x 1.747090 0.000000 0.000000 
#    y 0.000000 1.747090 0.000000 
#    z 0.000000 0.000000 2.376230 
# 
# From -- ./inp_files/5285.got.cif
#   From: 2010.05.17/outbox.cif.g08.bks.cpg/sg133_3_cif.got.tgz:5285.got - 2010.05.20 12:37:36.
