data_PCOD9567340
_publ_section_title
;
Structure prediction by ZEFSAII (Michael W. Deem and Ramdas Pophale) SiO2 
 PCOD9567340
Probable space group: P 42/M C M
;
_chemical_formula_sum "Si O2"
_cell_formula_units_Z 72
_cell_length_a 14.350975
_cell_length_b 14.350975
_cell_length_c 18.701568
_cell_angle_alpha 90.000000
_cell_angle_beta 90.000000
_cell_angle_gamma 90.000000
_cell_volume 3851.596971
_symmetry_space_group_name_H-M "P 42/M C M"
_symmetry_group_IT_number 132
_symmetry_cell_setting 'tetragonal'
loop_
_space_group_symop_operation_xyz
x,y,z
-y,x,1/2+z
-x,-y,z
y,-x,1/2+z
x,-y,1/2-z
-x,y,1/2-z
y,x,-z
-y,-x,-z
-x,-y,-z
y,-x,1/2-z
x,y,-z
-y,x,1/2-z
-x,y,1/2+z
x,-y,1/2+z
-y,-x,z
y,x,z
loop_
_atom_site_type_symbol
_atom_site_label
_atom_site_fract_x
_atom_site_fract_y
_atom_site_fract_z
Si Si1 0.780311 0.072752 0.848368
Si Si2 0.579345 0.420656 0.586102
Si Si3 0.470513 0.230821 0.169434
Si Si4 0.794148 0.645975 0.582077
Si Si5 0.279156 0.871723 0.311625
O O1 0.885339 0.114662 0.849469
O O2 0.721939 0.125132 0.908853
O O3 0.736668 0.107746 0.772719
O O4 0.761663 0.963294 0.850011
O O5 0.500000 0.500000 0.598320
O O6 0.589372 0.410629 0.500000
O O7 0.676815 0.448557 0.623350
O O8 0.500000 0.257037 0.250000
O O9 0.558883 0.185147 0.131236
O O10 0.384364 0.159143 0.173076
O O11 0.782808 0.618276 0.500000
O O12 0.699330 0.699330 0.605386
O O13 0.216058 0.783943 0.330971
#
# Coordination Sequence:
#
# PCOD9567340 Si02
#       5
#    16   8  16  16  16
#     4   9  19  37  62  87 117 154 197 246 308 365
#     4  11  26  42  58  86 125 169 213 253 297 358
#     4  12  23  36  61  88 122 160 205 254 307 358
#     4  10  21  39  61  85 118 158 204 252 299 358
#     4  10  20  37  58  90 122 151 197 255 303 361
#
# _framework density 18.693545
#
# number of rings (size 3 to 8) (size 9 to 14) (size 15 to 20)
#    0.000    1.667    3.333    1.333    3.111    3.111 
#    0.000    5.556    0.000    0.000    0.000    3.111 
#    0.000    0.000    0.000    0.000    0.000    0.000 
#
# Total GULP energy -401609.649056 kJ/mol
# GULP energy per Si atom -5577.911792 kJ/mol
# Density = 1.865100 g / cm^3
# Si number density = 18.693545 Si / 1000 Ang^3
#
#
#
# Elastic Constant Matrix: (Units=GPa)
#
#
# Indices 1 2 3 4 5 6 
#
# 1 90.2468 17.4118 27.6077 0.0000 0.0000 0.0000
# 2 17.4118 90.2467 27.6076 0.0000 0.0000 0.0000
# 3 27.6077 27.6076 61.1738 0.0000 0.0000 0.0000
# 4 0.0000 0.0000 0.0000 15.1889 0.0000 0.0000
# 5 0.0000 0.0000 0.0000 0.0000 15.1890 0.0000
# 6 0.0000 0.0000 0.0000 0.0000 0.0000 19.8113
#
#
#
# Elastic Compliance Matrix: (Units=1/GPa)
#
#
# Indices 1 2 3 4 5 6 
#
# 1 0.012908 -0.000822 -0.005454 0.000000 0.000000 0.000000
# 2 -0.000822 0.012908 -0.005454 0.000000 0.000000 0.000000
# 3 -0.005454 -0.005454 0.021270 0.000000 0.000000 0.000000
# 4 0.000000 0.000000 0.000000 0.065837 0.000000 0.000000
# 5 0.000000 0.000000 0.000000 0.000000 0.065837 0.000000
# 6 0.000000 0.000000 0.000000 0.000000 0.000000 0.050476
#
#
# Mechanical properties :
#
#
# Convention : Reuss Voigt Hill
#
# Bulk Modulus (GPa) = 42.32905 42.99129 42.66017
# Shear Modulus (GPa) = 19.18850 21.30719 20.24784
#
# Velocity S-wave (km/s) = 3.20734 3.37978 3.29469
# Velocity P-wave (km/s) = 6.03398 6.18695 6.11094
#
# Compressibility (1/GPa) = 0.02362444
#
# Stress axis : x y z
#
# Youngs Moduli (GPa) = 77.47215 77.47214 47.01455
#
# Poissons Ratio (x) = 0.06367 0.25644
# Poissons Ratio (y) = 0.06367 0.25644
# Poissons Ratio (z) = 0.42257 0.42256
#
# Static dielectric constant tensor:
#      x y z
#    x 1.668450 0.000000 0.000000 
#    y 0.000000 1.668450 0.000000 
#    z 0.000000 0.000000 1.651300 
# 
# From -- ./inp_files/6109.got.cif
#   From: 2010.05.17/outbox.cif.g08.bks.cpg/sg132_4_cif.got.tgz:6109.got - 2010.05.20 12:30:18.
