data_PCOD9567093
_publ_section_title
;
Structure prediction by ZEFSAII (Michael W. Deem and Ramdas Pophale) SiO2 
 PCOD9567093
Probable space group: P 42/M C M
;
_chemical_formula_sum "Si O2"
_cell_formula_units_Z 96
_cell_length_a 24.298494
_cell_length_b 24.298494
_cell_length_c 8.508913
_cell_angle_alpha 90.000000
_cell_angle_beta 90.000000
_cell_angle_gamma 90.000000
_cell_volume 5023.805276
_symmetry_space_group_name_H-M "P 42/M C M"
_symmetry_group_IT_number 132
_symmetry_cell_setting 'tetragonal'
loop_
_space_group_symop_operation_xyz
x,y,z
-y,x,1/2+z
-x,-y,z
y,-x,1/2+z
x,-y,1/2-z
-x,y,1/2-z
y,x,-z
-y,-x,-z
-x,-y,-z
y,-x,1/2-z
x,y,-z
-y,x,1/2-z
-x,y,1/2+z
x,-y,1/2+z
-y,-x,z
y,x,z
loop_
_atom_site_type_symbol
_atom_site_label
_atom_site_fract_x
_atom_site_fract_y
_atom_site_fract_z
Si Si1 0.235592 0.150043 0.685935
Si Si2 0.322418 0.236311 0.812700
Si Si3 0.558059 0.767714 0.688190
Si Si4 0.558568 0.937039 0.188665
Si Si5 0.555754 0.640262 0.311662
Si Si6 0.681142 0.937688 0.188141
O O1 0.230290 0.141731 0.500000
O O2 0.177581 0.177581 0.743257
O O3 0.280537 0.196706 0.723680
O O4 0.265686 0.096791 0.757585
O O5 0.298293 0.298293 0.778537
O O6 0.383124 0.217812 0.760751
O O7 0.317875 0.228482 0.000000
O O8 0.500000 0.791096 0.750000
O O9 0.559675 0.773291 0.500000
O O10 0.556886 0.703303 0.736243
O O11 0.500000 0.913687 0.250000
O O12 0.619626 0.915363 0.238029
O O13 0.559283 0.000000 0.250000
O O14 0.556086 0.935933 0.000000
O O15 0.500000 0.614018 0.250000
O O16 0.555849 0.639441 0.500000
O O17 0.607346 0.607346 0.249866
O O18 0.684955 0.000000 0.250000
O O19 0.680349 0.937856 0.000000
#
# Coordination Sequence:
#
# PCOD9567093 Si02
#       6
#    16  16  16  16  16  16
#     4  10  21  37  57  81 109 142 181 225 272 320
#     4  10  20  34  53  75  98 127 165 208 256 312
#     4  10  19  32  49  68  91 118 152 197 249 305
#     4   9  16  26  43  68  99 137 180 225 271 320
#     4   9  18  30  42  57  77 102 133 172 222 282
#     4  10  20  34  54  81 113 149 189 232 279 332
#
# _framework density 19.109020999999998
#
# number of rings (size 3 to 8) (size 9 to 14) (size 15 to 20)
#    0.000    2.333    0.000    3.500    0.000    5.833 
#    0.000    1.667    0.000    2.000    0.000    0.000 
#    0.000    0.333    0.000    3.500    0.000    1.500 
#
# Total GULP energy -534567.504111 kJ/mol
# GULP energy per Si atom -5568.411501 kJ/mol
# Density = 1.906553 g / cm^3
# Si number density = 19.109021 Si / 1000 Ang^3
#
#
#
# Elastic Constant Matrix: (Units=GPa)
#
#
# Indices 1 2 3 4 5 6 
#
# 1 85.1266 44.6313 19.0307 0.0000 0.0000 0.0000
# 2 44.6313 85.1266 19.0307 0.0000 0.0000 0.0000
# 3 19.0307 19.0307 29.5887 0.0000 0.0000 0.0000
# 4 0.0000 0.0000 0.0000 16.1089 0.0000 0.0000
# 5 0.0000 0.0000 0.0000 0.0000 16.1089 0.0000
# 6 0.0000 0.0000 0.0000 0.0000 0.0000 11.4061
#
#
#
# Elastic Compliance Matrix: (Units=1/GPa)
#
#
# Indices 1 2 3 4 5 6 
#
# 1 0.017096 -0.007598 -0.006109 0.000000 0.000000 0.000000
# 2 -0.007598 0.017096 -0.006109 0.000000 0.000000 0.000000
# 3 -0.006109 -0.006109 0.041655 0.000000 0.000000 0.000000
# 4 0.000000 0.000000 0.000000 0.062077 0.000000 0.000000
# 5 0.000000 0.000000 0.000000 0.000000 0.062077 0.000000
# 6 0.000000 0.000000 0.000000 0.000000 0.000000 0.087673
#
#
# Mechanical properties :
#
#
# Convention : Reuss Voigt Hill
#
# Bulk Modulus (GPa) = 27.61245 40.58080 34.09662
# Shear Modulus (GPa) = 14.73272 16.53473 15.63372
#
# Velocity S-wave (km/s) = 2.77967 2.94476 2.86341
# Velocity P-wave (km/s) = 4.97829 5.73103 5.36787
#
# Compressibility (1/GPa) = 0.03621555
#
# Stress axis : x y z
#
# Youngs Moduli (GPa) = 58.49167 58.49167 24.00645
#
# Poissons Ratio (x) = 0.44441 0.14666
# Poissons Ratio (y) = 0.44441 0.14666
# Poissons Ratio (z) = 0.35734 0.35734
#
# Static dielectric constant tensor:
#      x y z
#    x 1.735020 0.000000 0.000000 
#    y 0.000000 1.735020 0.000000 
#    z 0.000000 0.000000 1.642070 
# 
# From -- ./inp_files/1742.got.cif
#   From: 2010.05.17/outbox.cif.g08.bks.cpg/sg132_1_cif.got.tgz:1742.got - 2010.05.20 12:30:18.
