data_PCOD9567595
_publ_section_title
;
Structure prediction by ZEFSAII (Michael W. Deem and Ramdas Pophale) SiO2 
 PCOD9567595
Probable space group: P 42/N B C
;
_chemical_formula_sum "Si O2"
_cell_formula_units_Z 112
_cell_length_a 22.058873
_cell_length_b 22.058873
_cell_length_c 12.958139
_cell_angle_alpha 90.000000
_cell_angle_beta 90.000000
_cell_angle_gamma 90.000000
_cell_volume 6305.351108
_symmetry_space_group_name_H-M "P 42/N B C"
_symmetry_group_IT_number 133
_space_group.IT_coordinate_system_code '2'
_symmetry_cell_setting 'tetragonal'
loop_
_space_group_symop_operation_xyz
x,y,z
1/2-y,x,1/2+z
1/2-x,1/2-y,z
y,1/2-x,1/2+z
x,1/2-y,-z
1/2-x,y,-z
y,x,1/2-z
1/2-y,1/2-x,1/2-z
-x,-y,-z
1/2+y,-x,1/2-z
1/2+x,1/2+y,-z
-y,1/2+x,1/2-z
-x,1/2+y,z
1/2+x,-y,z
-y,-x,1/2+z
1/2+y,1/2+x,1/2+z
loop_
_atom_site_type_symbol
_atom_site_label
_atom_site_fract_x
_atom_site_fract_y
_atom_site_fract_z
Si Si1 0.096258 0.485479 0.524108
Si Si2 0.780499 0.997730 0.608256
Si Si3 0.015930 0.656074 0.805169
Si Si4 0.413195 0.819412 0.508187
Si Si5 0.915076 0.000811 0.103025
Si Si6 0.291297 0.643097 0.379108
Si Si7 0.663663 0.153679 0.671342
O O1 0.151840 0.469535 0.601731
O O2 0.128105 0.514927 0.421598
O O3 0.049873 0.530333 0.584622
O O4 0.056437 0.433870 0.467309
O O5 0.750000 0.980433 0.500000
O O6 0.724482 0.987633 0.688440
O O7 0.793182 0.070392 0.606802
O O8 0.991139 0.607502 0.721613
O O9 0.086714 0.667058 0.781365
O O10 0.428360 0.750000 0.500000
O O11 0.466774 0.857190 0.555072
O O12 0.350950 0.828194 0.572082
O O13 0.396494 0.843820 0.395770
O O14 0.296579 0.658330 0.258180
O O15 0.222428 0.662675 0.400984
#
# Coordination Sequence:
#
# PCOD9567595 Si02
#       7
#    16  16  16  16  16  16  16
#     4  10  19  35  55  75 102 133 177 224 266 326
#     4   9  17  32  55  72  95 129 169 224 273 310
#     4  10  18  33  54  76 100 131 173 225 276 319
#     4  12  23  34  45  66 100 138 174 218 270 311
#     4  11  21  34  51  76 103 137 179 222 269 321
#     4  11  20  34  45  66  92 132 183 229 254 295
#     4  11  21  31  49  64  95 132 185 223 261 302
#
# _framework density 17.762689000000002
#
# number of rings (size 3 to 8) (size 9 to 14) (size 15 to 20)
#    0.000    1.429    4.286    3.429    2.000    2.571 
#    0.000    0.000    0.000    0.000    0.000    0.000 
#    0.000    5.143    0.000    8.143    0.000    0.000 
#
# Total GULP energy -623505.309316 kJ/mol
# GULP energy per Si atom -5567.011690 kJ/mol
# Density = 1.772226 g / cm^3
# Si number density = 17.762689 Si / 1000 Ang^3
#
#
#
# Elastic Constant Matrix: (Units=GPa)
#
#
# Indices 1 2 3 4 5 6 
#
# 1 63.5004 35.0614 20.9436 0.0000 0.0000 0.0000
# 2 35.0614 63.5004 20.9436 0.0000 0.0000 0.0000
# 3 20.9436 20.9436 54.7493 0.0000 0.0000 0.0000
# 4 0.0000 0.0000 0.0000 13.3980 0.0000 0.0000
# 5 0.0000 0.0000 0.0000 0.0000 13.3980 0.0000
# 6 0.0000 0.0000 0.0000 0.0000 0.0000 22.1383
#
#
#
# Elastic Compliance Matrix: (Units=1/GPa)
#
#
# Indices 1 2 3 4 5 6 
#
# 1 0.023639 -0.011524 -0.004635 0.000000 0.000000 0.000000
# 2 -0.011524 0.023639 -0.004635 0.000000 0.000000 0.000000
# 3 -0.004635 -0.004635 0.021811 0.000000 0.000000 0.000000
# 4 0.000000 0.000000 0.000000 0.074638 0.000000 0.000000
# 5 0.000000 0.000000 0.000000 0.000000 0.074638 0.000000
# 6 0.000000 0.000000 0.000000 0.000000 0.000000 0.045171
#
#
# Mechanical properties :
#
#
# Convention : Reuss Voigt Hill
#
# Bulk Modulus (GPa) = 36.35903 37.29412 36.82658
# Shear Modulus (GPa) = 15.90891 16.77365 16.34128
#
# Velocity S-wave (km/s) = 2.99597 3.07631 3.03640
# Velocity P-wave (km/s) = 5.69925 5.80169 5.75070
#
# Compressibility (1/GPa) = 0.02750348
#
# Stress axis : x y z
#
# Youngs Moduli (GPa) = 42.30250 42.30250 45.84860
#
# Poissons Ratio (x) = 0.48748 0.21249
# Poissons Ratio (y) = 0.48748 0.21249
# Poissons Ratio (z) = 0.19606 0.19606
#
# Static dielectric constant tensor:
#      x y z
#    x 1.696250 0.000000 0.000000 
#    y 0.000000 1.696250 0.000000 
#    z 0.000000 0.000000 1.665430 
# 
# From -- ./inp_files/3484.got.cif
#   From: 2010.05.17/outbox.cif.g08.bks.cpg/sg133_2_cif.got.tgz:3484.got - 2010.05.20 12:37:36.
