data_PCOD9567874
_publ_section_title
;
Structure prediction by ZEFSAII (Michael W. Deem and Ramdas Pophale) SiO2 
 PCOD9567874
Probable space group: P 42/N B C
;
_chemical_formula_sum "Si O2"
_cell_formula_units_Z 52
_cell_length_a 13.748484
_cell_length_b 13.748484
_cell_length_c 12.012501
_cell_angle_alpha 90.000000
_cell_angle_beta 90.000000
_cell_angle_gamma 90.000000
_cell_volume 2270.612697
_symmetry_space_group_name_H-M "P 42/N B C"
_symmetry_group_IT_number 133
_space_group.IT_coordinate_system_code '2'
_symmetry_cell_setting 'tetragonal'
loop_
_space_group_symop_operation_xyz
x,y,z
1/2-y,x,1/2+z
1/2-x,1/2-y,z
y,1/2-x,1/2+z
x,1/2-y,-z
1/2-x,y,-z
y,x,1/2-z
1/2-y,1/2-x,1/2-z
-x,-y,-z
1/2+y,-x,1/2-z
1/2+x,1/2+y,-z
-y,1/2+x,1/2-z
-x,1/2+y,z
1/2+x,-y,z
-y,-x,1/2+z
1/2+y,1/2+x,1/2+z
loop_
_atom_site_type_symbol
_atom_site_label
_atom_site_fract_x
_atom_site_fract_y
_atom_site_fract_z
Si Si1 0.250000 0.504472 0.000000
Si Si2 0.640119 0.912759 0.511438
Si Si3 0.046850 0.453151 0.250000
Si Si4 0.134337 0.893959 0.365633
Si Si5 0.750000 0.250000 0.250000
O O1 0.335811 0.433992 0.043585
O O2 0.302592 0.574633 0.913568
O O3 0.750000 0.877063 0.500000
O O4 0.604608 0.920987 0.639306
O O5 0.638289 0.018949 0.454304
O O6 0.064704 0.566932 0.231678
O O7 0.233662 0.846480 0.323548
#
# Coordination Sequence:
#
# PCOD9567874 Si02
#       5
#     8  16   8  16   4
#     4  10  23  43  70  94 134 190 226 293 371 426
#     4  11  24  46  70 101 143 180 240 306 364 443
#     4  10  22  46  67 102 133 190 232 290 376 432
#     4  11  26  42  72  99 145 183 242 302 361 450
#     4  12  28  42  68 112 142 196 252 298 392 440
#
# _framework density 22.901306999999999
#
# number of rings (size 3 to 8) (size 9 to 14) (size 15 to 20)
#    0.000    1.231    0.000    6.000   12.923    0.000 
#    0.000    6.154    0.000    0.000    0.000    0.000 
#    0.000    0.000    0.000    0.000    0.000    0.000 
#
# Total GULP energy -290706.683346 kJ/mol
# GULP energy per Si atom -5590.513141 kJ/mol
# Density = 2.284918 g / cm^3
# Si number density = 22.901307 Si / 1000 Ang^3
#
#
#
# Elastic Constant Matrix: (Units=GPa)
#
#
# Indices 1 2 3 4 5 6 
#
# 1 107.4078 36.0567 40.2051 0.0000 0.0000 0.0000
# 2 36.0567 107.4089 40.2050 0.0000 0.0000 0.0000
# 3 40.2051 40.2050 58.8661 0.0000 0.0000 0.0000
# 4 0.0000 0.0000 0.0000 27.9990 0.0000 0.0000
# 5 0.0000 0.0000 0.0000 0.0000 27.9982 0.0000
# 6 0.0000 0.0000 0.0000 0.0000 0.0000 46.6817
#
#
#
# Elastic Compliance Matrix: (Units=1/GPa)
#
#
# Indices 1 2 3 4 5 6 
#
# 1 0.012654 -0.001361 -0.007714 0.000000 0.000000 0.000000
# 2 -0.001361 0.012654 -0.007713 0.000000 0.000000 0.000000
# 3 -0.007714 -0.007713 0.027524 0.000000 0.000000 0.000000
# 4 0.000000 0.000000 0.000000 0.035716 0.000000 0.000000
# 5 0.000000 0.000000 0.000000 0.000000 0.035717 0.000000
# 6 0.000000 0.000000 0.000000 0.000000 0.000000 0.021422
#
#
# Mechanical properties :
#
#
# Convention : Reuss Voigt Hill
#
# Bulk Modulus (GPa) = 51.92754 56.29070 54.10912
# Shear Modulus (GPa) = 26.92790 31.01686 28.97238
#
# Velocity S-wave (km/s) = 3.43275 3.68417 3.56068
# Velocity P-wave (km/s) = 6.19963 6.53686 6.37048
#
# Compressibility (1/GPa) = 0.01925760
#
# Stress axis : x y z
#
# Youngs Moduli (GPa) = 79.02357 79.02490 36.33174
#
# Poissons Ratio (x) = 0.10753 0.28025
# Poissons Ratio (y) = 0.10753 0.28024
# Poissons Ratio (z) = 0.60955 0.60955
#
# Static dielectric constant tensor:
#      x y z
#    x 1.882830 0.000000 0.000000 
#    y 0.000000 1.882820 0.000000 
#    z 0.000000 0.000000 1.848350 
# 
# From -- ./inp_files/2798.got.cif
#   From: 2010.05.17/outbox.cif.g08.bks.cpg/sg133_2_cif.got.tgz:2798.got - 2010.05.20 12:37:36.
