data_PCOD9567609
_publ_section_title
;
Structure prediction by ZEFSAII (Michael W. Deem and Ramdas Pophale) SiO2 
 PCOD9567609
Probable space group: P 42/N B C
;
_chemical_formula_sum "Si O2"
_cell_formula_units_Z 88
_cell_length_a 14.230769
_cell_length_b 14.230769
_cell_length_c 24.007008
_cell_angle_alpha 90.000000
_cell_angle_beta 90.000000
_cell_angle_gamma 90.000000
_cell_volume 4861.774096
_symmetry_space_group_name_H-M "P 42/N B C"
_symmetry_group_IT_number 133
_space_group.IT_coordinate_system_code '2'
_symmetry_cell_setting 'tetragonal'
loop_
_space_group_symop_operation_xyz
x,y,z
1/2-y,x,1/2+z
1/2-x,1/2-y,z
y,1/2-x,1/2+z
x,1/2-y,-z
1/2-x,y,-z
y,x,1/2-z
1/2-y,1/2-x,1/2-z
-x,-y,-z
1/2+y,-x,1/2-z
1/2+x,1/2+y,-z
-y,1/2+x,1/2-z
-x,1/2+y,z
1/2+x,-y,z
-y,-x,1/2+z
1/2+y,1/2+x,1/2+z
loop_
_atom_site_type_symbol
_atom_site_label
_atom_site_fract_x
_atom_site_fract_y
_atom_site_fract_z
Si Si1 0.084389 0.210304 0.790764
Si Si2 0.983516 0.454413 0.151197
Si Si3 0.857719 0.967619 0.937690
Si Si4 0.447546 0.133235 0.437810
Si Si5 0.757499 0.857562 0.586892
Si Si6 0.083546 0.416455 0.750000
O O1 0.146658 0.146658 0.750000
O O2 0.138278 0.242616 0.846674
O O3 0.063126 0.305689 0.757721
O O4 0.003229 0.142968 0.816177
O O5 0.902276 0.458959 0.104857
O O6 0.956621 0.531039 0.196547
O O7 0.076292 0.482588 0.115700
O O8 0.745312 0.958035 0.929365
O O9 0.894665 0.861061 0.926231
O O10 0.882679 0.991027 0.001479
O O11 0.337324 0.101250 0.439928
O O12 0.750000 0.750000 0.567887
#
# Coordination Sequence:
#
# PCOD9567609 Si02
#       6
#    16  16  16  16  16   8
#     4  11  22  36  56  87 114 149 196 236 289 353
#     4  11  23  35  56  88 114 150 196 237 287 363
#     4  10  18  35  56  82 117 155 184 243 298 332
#     4   9  20  33  55  85 118 148 193 236 290 358
#     4   9  16  29  52  84 111 144 183 231 292 345
#     4  12  23  38  60  81 120 152 182 250 296 331
#
# _framework density 18.100390000000001
#
# number of rings (size 3 to 8) (size 9 to 14) (size 15 to 20)
#    0.000    1.818    2.727    2.455    5.091    2.182 
#    0.000    0.000    0.000    3.818    0.000    2.545 
#    0.000    0.000    0.000    0.000    0.000    0.000 
#
# Total GULP energy -490089.661461 kJ/mol
# GULP energy per Si atom -5569.200698 kJ/mol
# Density = 1.805919 g / cm^3
# Si number density = 18.100390 Si / 1000 Ang^3
#
#
#
# Elastic Constant Matrix: (Units=GPa)
#
#
# Indices 1 2 3 4 5 6 
#
# 1 71.2507 51.2565 43.8852 0.0000 0.0000 0.0000
# 2 51.2565 71.2502 43.8853 0.0000 0.0000 0.0000
# 3 43.8852 43.8853 130.4762 0.0000 0.0000 0.0000
# 4 0.0000 0.0000 0.0000 32.2915 0.0000 0.0000
# 5 0.0000 0.0000 0.0000 0.0000 32.2912 0.0000
# 6 0.0000 0.0000 0.0000 0.0000 0.0000 18.0293
#
#
#
# Elastic Compliance Matrix: (Units=1/GPa)
#
#
# Indices 1 2 3 4 5 6 
#
# 1 0.030385 -0.019630 -0.003617 0.000000 0.000000 0.000000
# 2 -0.019630 0.030385 -0.003617 0.000000 0.000000 0.000000
# 3 -0.003617 -0.003617 0.010097 0.000000 0.000000 0.000000
# 4 0.000000 0.000000 0.000000 0.030968 0.000000 0.000000
# 5 0.000000 0.000000 0.000000 0.000000 0.030968 0.000000
# 6 0.000000 0.000000 0.000000 0.000000 0.000000 0.055465
#
#
# Mechanical properties :
#
#
# Convention : Reuss Voigt Hill
#
# Bulk Modulus (GPa) = 58.35179 61.22566 59.78873
# Shear Modulus (GPa) = 20.18487 25.45240 22.81863
#
# Velocity S-wave (km/s) = 3.34303 3.75397 3.55444
# Velocity P-wave (km/s) = 6.87088 7.25871 7.06745
#
# Compressibility (1/GPa) = 0.01713744
#
# Stress axis : x y z
#
# Youngs Moduli (GPa) = 32.91147 32.91113 99.03453
#
# Poissons Ratio (x) = 0.64606 0.35822
# Poissons Ratio (y) = 0.64606 0.35823
# Poissons Ratio (z) = 0.11904 0.11905
#
# Static dielectric constant tensor:
#      x y z
#    x 1.646260 0.000000 0.000000 
#    y 0.000000 1.646260 0.000000 
#    z 0.000000 0.000000 1.662990 
# 
# From -- ./inp_files/6449.got.cif
#   From: 2010.05.17/outbox.cif.g08.bks.cpg/sg133_4_cif.got.tgz:6449.got - 2010.05.20 12:37:36.
