data_PCOD9567985
_publ_section_title
;
Structure prediction by ZEFSAII (Michael W. Deem and Ramdas Pophale) SiO2 
 PCOD9567985
Probable space group: P 42/N B C
;
_chemical_formula_sum "Si O2"
_cell_formula_units_Z 112
_cell_length_a 14.141769
_cell_length_b 14.141769
_cell_length_c 25.621143
_cell_angle_alpha 90.000000
_cell_angle_beta 90.000000
_cell_angle_gamma 90.000000
_cell_volume 5123.962920
_symmetry_space_group_name_H-M "P 42/N B C"
_symmetry_group_IT_number 133
_space_group.IT_coordinate_system_code '2'
_symmetry_cell_setting 'tetragonal'
loop_
_space_group_symop_operation_xyz
x,y,z
1/2-y,x,1/2+z
1/2-x,1/2-y,z
y,1/2-x,1/2+z
x,1/2-y,-z
1/2-x,y,-z
y,x,1/2-z
1/2-y,1/2-x,1/2-z
-x,-y,-z
1/2+y,-x,1/2-z
1/2+x,1/2+y,-z
-y,1/2+x,1/2-z
-x,1/2+y,z
1/2+x,-y,z
-y,-x,1/2+z
1/2+y,1/2+x,1/2+z
loop_
_atom_site_type_symbol
_atom_site_label
_atom_site_fract_x
_atom_site_fract_y
_atom_site_fract_z
Si Si1 0.509325 0.939492 0.386183
Si Si2 0.214514 0.965898 0.624815
Si Si3 0.122340 0.609304 0.090014
Si Si4 0.728464 0.407351 0.256666
Si Si5 0.467359 0.362358 0.501461
Si Si6 0.159445 0.313794 0.084996
Si Si7 0.519632 0.757190 0.655239
O O1 0.396946 0.955899 0.384888
O O2 0.535383 0.904108 0.444268
O O3 0.534335 0.854853 0.347443
O O4 0.563076 0.037089 0.376177
O O5 0.279441 0.891489 0.593623
O O6 0.230756 0.949430 0.685768
O O7 0.243642 0.071156 0.607146
O O8 0.109376 0.560758 0.033810
O O9 0.216609 0.568368 0.116621
O O10 0.826965 0.352565 0.245864
O O11 0.713096 0.486386 0.212423
O O12 0.471085 0.250000 0.500000
O O13 0.374342 0.379988 0.536214
O O14 0.250000 0.250000 0.071367
O O15 0.192536 0.390342 0.128657
#
# Coordination Sequence:
#
# PCOD9567985 Si02
#       7
#    16  16  16  16  16  16  16
#     4  12  23  45  68  97 142 182 230 287 340 414
#     4  12  25  42  72 105 131 185 234 280 357 415
#     4  11  24  43  64 100 141 174 225 288 342 406
#     4  11  23  41  70 102 134 179 227 281 356 423
#     4  11  23  45  68  94 136 186 225 279 347 401
#     4  11  25  48  69 100 143 183 230 285 346 429
#     4  11  22  45  69  97 140 176 225 295 336 408
#
# _framework density 21.858080999999999
#
# number of rings (size 3 to 8) (size 9 to 14) (size 15 to 20)
#    0.000    0.714    8.571    1.286    0.000    2.000 
#    0.000    5.714    0.000    0.000    0.000    0.000 
#    0.000    0.000    0.000    0.000    0.000    0.000 
#
# Total GULP energy -626546.707017 kJ/mol
# GULP energy per Si atom -5594.167027 kJ/mol
# Density = 2.180833 g / cm^3
# Si number density = 21.858081 Si / 1000 Ang^3
#
#
#
# Elastic Constant Matrix: (Units=GPa)
#
#
# Indices 1 2 3 4 5 6 
#
# 1 60.6422 -22.2192 13.9495 0.0000 0.0000 0.0000
# 2 -22.2192 60.6422 13.9495 0.0000 0.0000 0.0000
# 3 13.9495 13.9495 101.5224 0.0000 0.0000 0.0000
# 4 0.0000 0.0000 0.0000 10.4121 0.0000 0.0000
# 5 0.0000 0.0000 0.0000 0.0000 10.4121 0.0000
# 6 0.0000 0.0000 0.0000 0.0000 0.0000 29.1090
#
#
#
# Elastic Compliance Matrix: (Units=1/GPa)
#
#
# Indices 1 2 3 4 5 6 
#
# 1 0.020489 0.008421 -0.003972 0.000000 0.000000 0.000000
# 2 0.008421 0.020489 -0.003972 0.000000 0.000000 0.000000
# 3 -0.003972 -0.003972 0.010942 0.000000 0.000000 0.000000
# 4 0.000000 0.000000 0.000000 0.096042 0.000000 0.000000
# 5 0.000000 0.000000 0.000000 0.000000 0.096042 0.000000
# 6 0.000000 0.000000 0.000000 0.000000 0.000000 0.034354
#
#
# Mechanical properties :
#
#
# Convention : Reuss Voigt Hill
#
# Bulk Modulus (GPa) = 18.91326 26.01851 22.46589
# Shear Modulus (GPa) = 16.94740 24.46176 20.70458
#
# Velocity S-wave (km/s) = 2.78751 3.34895 3.08105
# Velocity P-wave (km/s) = 4.36255 5.18490 4.79140
#
# Compressibility (1/GPa) = 0.05287295
#
# Stress axis : x y z
#
# Youngs Moduli (GPa) = 48.80577 48.80577 91.39362
#
# Poissons Ratio (x) = -0.41100 0.36305
# Poissons Ratio (y) = -0.41100 0.36305
# Poissons Ratio (z) = 0.19388 0.19388
#
# Static dielectric constant tensor:
#      x y z
#    x 1.821650 0.000000 0.000000 
#    y 0.000000 1.821650 0.000000 
#    z 0.000000 0.000000 1.774040 
# 
# From -- ./inp_files/7675.got.cif
#   From: 2010.05.17/outbox.cif.g08.bks.cpg/sg133_4_cif.got.tgz:7675.got - 2010.05.20 12:37:36.
