data_PCOD9567521
_publ_section_title
;
Structure prediction by ZEFSAII (Michael W. Deem and Ramdas Pophale) SiO2 
 PCOD9567521
Probable space group: P 42/M C M
;
_chemical_formula_sum "Si O2"
_cell_formula_units_Z 80
_cell_length_a 17.187483
_cell_length_b 17.187483
_cell_length_c 15.556114
_cell_angle_alpha 90.000000
_cell_angle_beta 90.000000
_cell_angle_gamma 90.000000
_cell_volume 4595.424977
_symmetry_space_group_name_H-M "P 42/M C M"
_symmetry_group_IT_number 132
_symmetry_cell_setting 'tetragonal'
loop_
_space_group_symop_operation_xyz
x,y,z
-y,x,1/2+z
-x,-y,z
y,-x,1/2+z
x,-y,1/2-z
-x,y,1/2-z
y,x,-z
-y,-x,-z
-x,-y,-z
y,-x,1/2-z
x,y,-z
-y,x,1/2-z
-x,y,1/2+z
x,-y,1/2+z
-y,-x,z
y,x,z
loop_
_atom_site_type_symbol
_atom_site_label
_atom_site_fract_x
_atom_site_fract_y
_atom_site_fract_z
Si Si1 0.714668 0.586948 0.860597
Si Si2 0.158358 0.291287 0.403371
Si Si3 0.325666 0.807101 0.500000
Si Si4 0.199231 0.932475 0.500000
Si Si5 0.044701 0.823995 0.161464
Si Si6 0.720277 0.407892 0.154121
O O1 0.637812 0.637812 0.882110
O O2 0.706310 0.495337 0.877093
O O3 0.726364 0.594304 0.757989
O O4 0.784580 0.623486 0.916363
O O5 0.125632 0.292636 0.500000
O O6 0.228444 0.228444 0.402795
O O7 0.095385 0.255480 0.339201
O O8 0.199890 0.371603 0.381142
O O9 0.255281 0.744720 0.500000
O O10 0.283775 0.890548 0.500000
O O11 0.135512 0.864489 0.500000
O O12 0.184455 0.984630 0.583710
O O13 0.105071 0.894930 0.146240
O O14 0.000000 0.835942 0.250000
O O15 0.648842 0.351159 0.129660
#
# Coordination Sequence:
#
# PCOD9567521 Si02
#       6
#    16  16   8   8  16  16
#     4   9  18  33  51  78 112 142 178 227 272 316
#     4   9  18  34  54  77 107 141 181 221 258 313
#     4   9  20  35  52  75 106 145 185 217 260 322
#     4  11  23  38  58  81 109 146 180 217 268 328
#     4  11  23  38  58  85 113 141 172 216 272 325
#     4   9  18  31  54  81 106 143 184 223 269 317
#
# _framework density 17.408619000000002
#
# number of rings (size 3 to 8) (size 9 to 14) (size 15 to 20)
#    0.000    2.400    1.000    0.900    4.200    2.200 
#    0.000    2.000    0.000    4.200    0.000    0.000 
#    0.000    0.000    0.000    0.000    0.000    0.000 
#
# Total GULP energy -445846.012815 kJ/mol
# GULP energy per Si atom -5573.075160 kJ/mol
# Density = 1.736900 g / cm^3
# Si number density = 17.408619 Si / 1000 Ang^3
#
#
#
# Elastic Constant Matrix: (Units=GPa)
#
#
# Indices 1 2 3 4 5 6 
#
# 1 73.6890 86.3708 41.8905 0.0000 0.0000 0.0000
# 2 86.3708 73.6868 41.8904 0.0000 0.0000 0.0000
# 3 41.8905 41.8904 69.1523 0.0000 0.0000 0.0000
# 4 0.0000 0.0000 0.0000 20.4390 0.0000 0.0000
# 5 0.0000 0.0000 0.0000 0.0000 20.4385 0.0000
# 6 0.0000 0.0000 0.0000 0.0000 0.0000 24.8107
#
#
#
# Elastic Compliance Matrix: (Units=1/GPa)
#
#
# Indices 1 2 3 4 5 6 
#
# 1 -0.034848 0.043998 -0.005542 0.000000 0.000000 0.000000
# 2 0.043998 -0.034850 -0.005542 0.000000 0.000000 0.000000
# 3 -0.005542 -0.005542 0.021175 0.000000 0.000000 0.000000
# 4 0.000000 0.000000 0.000000 0.048926 0.000000 0.000000
# 5 0.000000 0.000000 0.000000 0.000000 0.048927 0.000000
# 6 0.000000 0.000000 0.000000 0.000000 0.000000 0.040305
#
#
# Mechanical properties :
#
#
# Convention : Reuss Voigt Hill
#
# Bulk Modulus (GPa) = 57.78835 61.87014 59.82924
# Shear Modulus (GPa) = 169.05295 16.22940 92.64117
#
# Velocity S-wave (km/s) = 9.86507 3.05661 7.30282
# Velocity P-wave (km/s) = 12.76819 6.93356 10.27378
#
# Compressibility (1/GPa) = 0.01730453
#
# Stress axis : x y z
#
# Youngs Moduli (GPa) = -28.69584 -28.69465 47.22521
#
# Poissons Ratio (x) = 1.26249 0.26174
# Poissons Ratio (y) = 1.26255 0.26170
# Poissons Ratio (z) = -0.15904 -0.15901
#
# Static dielectric constant tensor:
#      x y z
#    x 1.588200 0.000000 0.000000 
#    y 0.000000 1.588200 0.000000 
#    z 0.000000 0.000000 1.605530 
# 
# From -- ./inp_files/4678.got.cif
#   From: 2010.05.17/outbox.cif.g08.bks.cpg/sg132_3_cif.got.tgz:4678.got - 2010.05.20 12:30:18.
