data_PCOD9567756
_publ_section_title
;
Structure prediction by ZEFSAII (Michael W. Deem and Ramdas Pophale) SiO2 
 PCOD9567756
Probable space group: P 42/N B C
;
_chemical_formula_sum "Si O2"
_cell_formula_units_Z 84
_cell_length_a 13.833616
_cell_length_b 13.833616
_cell_length_c 20.280816
_cell_angle_alpha 90.000000
_cell_angle_beta 90.000000
_cell_angle_gamma 90.000000
_cell_volume 3881.118091
_symmetry_space_group_name_H-M "P 42/N B C"
_symmetry_group_IT_number 133
_space_group.IT_coordinate_system_code '2'
_symmetry_cell_setting 'tetragonal'
loop_
_space_group_symop_operation_xyz
x,y,z
1/2-y,x,1/2+z
1/2-x,1/2-y,z
y,1/2-x,1/2+z
x,1/2-y,-z
1/2-x,y,-z
y,x,1/2-z
1/2-y,1/2-x,1/2-z
-x,-y,-z
1/2+y,-x,1/2-z
1/2+x,1/2+y,-z
-y,1/2+x,1/2-z
-x,1/2+y,z
1/2+x,-y,z
-y,-x,1/2+z
1/2+y,1/2+x,1/2+z
loop_
_atom_site_type_symbol
_atom_site_label
_atom_site_fract_x
_atom_site_fract_y
_atom_site_fract_z
Si Si1 0.119330 0.965676 0.881353
Si Si2 0.366594 0.857411 0.989400
Si Si3 0.250000 0.750000 0.750000
Si Si4 0.071753 0.412516 0.680715
Si Si5 0.118287 0.828648 0.657168
Si Si6 0.865740 0.749894 0.421704
O O1 0.215901 0.908771 0.856231
O O2 0.024562 0.937634 0.840190
O O3 0.160034 0.075667 0.888730
O O4 0.096419 0.929727 0.955691
O O5 0.379892 0.879765 0.913259
O O6 0.405525 0.750000 0.000000
O O7 0.250000 0.854586 0.000000
O O8 0.213760 0.831833 0.700508
O O9 0.119847 0.380154 0.750000
O O10 0.102411 0.345851 0.618767
O O11 0.963331 0.380492 0.697141
O O12 0.750000 0.750000 0.417825
O O13 0.892790 0.750000 0.500000
#
# Coordination Sequence:
#
# PCOD9567756 Si02
#       6
#    16  16   4  16  16  16
#     4  10  20  41  64  92 130 171 214 281 330 394
#     4   9  17  33  58  90 123 161 210 262 330 387
#     4  12  20  36  58  88 132 164 200 270 336 392
#     4  11  24  43  64  95 133 176 226 273 345 417
#     4  10  21  36  60  88 127 169 206 266 331 398
#     4  10  23  46  69  97 135 181 234 286 343 411
#
# _framework density 21.643248
#
# number of rings (size 3 to 8) (size 9 to 14) (size 15 to 20)
#    0.000    1.905    0.000    6.286    0.000    3.429 
#   20.571    0.000    0.000    0.000    0.000    0.000 
#    0.000    0.000    0.000    0.000    0.000    0.000 
#
# Total GULP energy -467883.477552 kJ/mol
# GULP energy per Si atom -5570.041399 kJ/mol
# Density = 2.159399 g / cm^3
# Si number density = 21.643248 Si / 1000 Ang^3
#
#
#
# Elastic Constant Matrix: (Units=GPa)
#
#
# Indices 1 2 3 4 5 6 
#
# 1 77.4769 15.9394 36.4405 0.0000 0.0000 0.0000
# 2 15.9394 77.4778 36.4409 0.0000 0.0000 0.0000
# 3 36.4405 36.4409 148.9035 0.0000 0.0000 0.0000
# 4 0.0000 0.0000 0.0000 -194.8813 0.0000 0.0000
# 5 0.0000 0.0000 0.0000 0.0000 -195.0439 0.0000
# 6 0.0000 0.0000 0.0000 0.0000 0.0000 9.9707
#
#
#
# Elastic Compliance Matrix: (Units=1/GPa)
#
#
# Indices 1 2 3 4 5 6 
#
# 1 0.014741 -0.001510 -0.003238 0.000000 0.000000 0.000000
# 2 -0.001510 0.014740 -0.003238 0.000000 0.000000 0.000000
# 3 -0.003238 -0.003238 0.008301 0.000000 0.000000 0.000000
# 4 0.000000 0.000000 0.000000 -0.005131 0.000000 0.000000
# 5 0.000000 0.000000 0.000000 0.000000 -0.005127 0.000000
# 6 0.000000 0.000000 0.000000 0.000000 0.000000 0.100294
#
#
# Mechanical properties :
#
#
# Convention : Reuss Voigt Hill
#
# Bulk Modulus (GPa) = 45.84937 53.49999 49.67468
# Shear Modulus (GPa) = 33.09976 -61.65507 -14.27766
#
# Velocity S-wave (km/s) = 3.91491 -5.34311 -2.57121
# Velocity P-wave (km/s) = 6.45488 3.64588 3.76650
#
# Compressibility (1/GPa) = 0.02181055
#
# Stress axis : x y z
#
# Youngs Moduli (GPa) = 67.83992 67.84059 120.47338
#
# Poissons Ratio (x) = 0.10241 0.39009
# Poissons Ratio (y) = 0.10241 0.39009
# Poissons Ratio (z) = 0.21966 0.21967
#
# Static dielectric constant tensor:
#      x y z
#    x 5.165060 0.000000 0.000000 
#    y 0.000000 4.492540 0.000000 
#    z 0.000000 0.000000 2.091020 
# 
# From -- ./inp_files/6423.got.cif
#   From: 2010.05.17/outbox.cif.g08.bks.cpg/sg133_4_cif.got.tgz:6423.got - 2010.05.20 12:37:36.
