data_PCOD9567226
_publ_section_title
;
Structure prediction by ZEFSAII (Michael W. Deem and Ramdas Pophale) SiO2 
 PCOD9567226
Probable space group: P 42/M C M
;
_chemical_formula_sum "Si O2"
_cell_formula_units_Z 104
_cell_length_a 14.674974
_cell_length_b 14.674974
_cell_length_c 25.428702
_cell_angle_alpha 90.000000
_cell_angle_beta 90.000000
_cell_angle_gamma 90.000000
_cell_volume 5476.194608
_symmetry_space_group_name_H-M "P 42/M C M"
_symmetry_group_IT_number 132
_symmetry_cell_setting 'tetragonal'
loop_
_space_group_symop_operation_xyz
x,y,z
-y,x,1/2+z
-x,-y,z
y,-x,1/2+z
x,-y,1/2-z
-x,y,1/2-z
y,x,-z
-y,-x,-z
-x,-y,-z
y,-x,1/2-z
x,y,-z
-y,x,1/2-z
-x,y,1/2+z
x,-y,1/2+z
-y,-x,z
y,x,z
loop_
_atom_site_type_symbol
_atom_site_label
_atom_site_fract_x
_atom_site_fract_y
_atom_site_fract_z
Si Si1 0.253453 0.892657 0.400557
Si Si2 0.000000 0.500000 0.642632
Si Si3 0.449705 0.155093 0.939070
Si Si4 0.393821 0.754890 0.105585
Si Si5 0.400751 0.751770 0.769366
Si Si6 0.332103 0.069475 0.791150
Si Si7 0.101386 0.752767 0.937204
O O1 0.164124 0.835876 0.414796
O O2 0.342780 0.845001 0.425785
O O3 0.268627 0.895160 0.337834
O O4 0.251262 0.997636 0.418477
O O5 0.083654 0.507617 0.602383
O O6 0.012641 0.587085 0.680027
O O7 0.510436 0.242532 0.924906
O O8 0.462324 0.129762 0.000000
O O9 0.337207 0.662794 0.096479
O O10 0.405839 0.766811 0.168038
O O11 0.328267 0.836346 0.085332
O O12 0.500000 0.722169 0.750000
O O13 0.323955 0.676046 0.759031
O O14 0.374179 0.844570 0.739338
O O15 0.287383 0.000000 0.750000
O O16 0.153559 0.846442 0.922590
O O17 0.102045 0.744568 0.000000
#
# Coordination Sequence:
#
# PCOD9567226 Si02
#       7
#    16   8  16  16  16  16  16
#     4  11  24  39  55  80 115 153 192 230 269 323
#     4  10  20  32  52  82 114 140 174 224 284 338
#     4  11  21  34  56  83 113 148 186 230 280 335
#     4  10  21  37  58  85 114 141 178 234 292 339
#     4  11  22  37  57  81 111 148 188 228 275 331
#     4  11  20  34  57  83 109 141 180 228 282 334
#     4  10  21  38  61  86 111 142 182 229 282 338
#
# _framework density 18.991288999999998
#
# number of rings (size 3 to 8) (size 9 to 14) (size 15 to 20)
#    0.000    1.385    0.000    8.308    0.000    2.615 
#    0.000    1.538    0.000    1.385    0.000    1.077 
#    0.000    0.000    0.000    0.000    0.000    0.000 
#
# Total GULP energy -580816.756352 kJ/mol
# GULP energy per Si atom -5584.776503 kJ/mol
# Density = 1.894806 g / cm^3
# Si number density = 18.991289 Si / 1000 Ang^3
#
#
#
# Elastic Constant Matrix: (Units=GPa)
#
#
# Indices 1 2 3 4 5 6 
#
# 1 61.6841 41.5086 40.4835 0.0000 0.0000 0.0000
# 2 41.5086 61.6841 40.4835 0.0000 0.0000 0.0000
# 3 40.4835 40.4835 84.8795 0.0000 0.0000 0.0000
# 4 0.0000 0.0000 0.0000 7.8695 0.0000 0.0000
# 5 0.0000 0.0000 0.0000 0.0000 7.8695 0.0000
# 6 0.0000 0.0000 0.0000 0.0000 0.0000 14.6131
#
#
#
# Elastic Compliance Matrix: (Units=1/GPa)
#
#
# Indices 1 2 3 4 5 6 
#
# 1 0.032525 -0.017040 -0.007386 0.000000 0.000000 0.000000
# 2 -0.017040 0.032525 -0.007386 0.000000 0.000000 0.000000
# 3 -0.007386 -0.007386 0.018827 0.000000 0.000000 0.000000
# 4 0.000000 0.000000 0.000000 0.127072 0.000000 0.000000
# 5 0.000000 0.000000 0.000000 0.000000 0.127072 0.000000
# 6 0.000000 0.000000 0.000000 0.000000 0.000000 0.068432
#
#
# Mechanical properties :
#
#
# Convention : Reuss Voigt Hill
#
# Bulk Modulus (GPa) = 49.37154 50.35541 49.86347
# Shear Modulus (GPa) = 10.48595 11.78858 11.13727
#
# Velocity S-wave (km/s) = 2.35233 2.49416 2.42428
# Velocity P-wave (km/s) = 5.78198 5.90483 5.84373
#
# Compressibility (1/GPa) = 0.02025459
#
# Stress axis : x y z
#
# Youngs Moduli (GPa) = 30.74524 30.74524 53.11546
#
# Poissons Ratio (x) = 0.52389 0.39231
# Poissons Ratio (y) = 0.52389 0.39231
# Poissons Ratio (z) = 0.22708 0.22708
#
# Static dielectric constant tensor:
#      x y z
#    x 1.682620 0.000000 0.000000 
#    y 0.000000 1.682620 0.000000 
#    z 0.000000 0.000000 1.660270 
# 
# From -- ./inp_files/9141.got.cif
#   From: 2010.05.17/outbox.cif.g08.bks.cpg/sg132_5_cif.got.tgz:9141.got - 2010.05.20 12:30:18.
