data_PCOD9567237
_publ_section_title
;
Structure prediction by ZEFSAII (Michael W. Deem and Ramdas Pophale) SiO2 
 PCOD9567237
Probable space group: P 42/M C M
;
_chemical_formula_sum "Si O2"
_cell_formula_units_Z 112
_cell_length_a 15.557663
_cell_length_b 15.557663
_cell_length_c 25.801284
_cell_angle_alpha 90.000000
_cell_angle_beta 90.000000
_cell_angle_gamma 90.000000
_cell_volume 6244.965433
_symmetry_space_group_name_H-M "P 42/M C M"
_symmetry_group_IT_number 132
_symmetry_cell_setting 'tetragonal'
loop_
_space_group_symop_operation_xyz
x,y,z
-y,x,1/2+z
-x,-y,z
y,-x,1/2+z
x,-y,1/2-z
-x,y,1/2-z
y,x,-z
-y,-x,-z
-x,-y,-z
y,-x,1/2-z
x,y,-z
-y,x,1/2-z
-x,y,1/2+z
x,-y,1/2+z
-y,-x,z
y,x,z
loop_
_atom_site_type_symbol
_atom_site_label
_atom_site_fract_x
_atom_site_fract_y
_atom_site_fract_z
Si Si1 0.385883 0.248882 0.121123
Si Si2 0.138104 0.275167 0.797441
Si Si3 0.859835 0.004395 0.442351
Si Si4 0.814852 0.674897 0.681598
Si Si5 0.431448 0.922199 0.561990
Si Si6 0.707009 0.984798 0.370534
Si Si7 0.530313 0.670550 0.309769
O O1 0.311698 0.311698 0.096769
O O2 0.337285 0.195498 0.166319
O O3 0.433194 0.175259 0.086211
O O4 0.454046 0.309491 0.150528
O O5 0.181053 0.181053 0.802059
O O6 0.148818 0.305234 0.738709
O O7 0.042761 0.281325 0.819542
O O8 0.819455 0.007411 0.500000
O O9 0.902920 0.097081 0.431808
O O10 0.797902 0.973684 0.397671
O O11 0.936520 0.936520 0.445194
O O12 0.756094 0.756094 0.665780
O O13 0.751720 0.594432 0.685654
O O14 0.894806 0.663957 0.643605
O O15 0.428808 0.914552 0.500000
O O16 0.346284 0.960836 0.587871
O O17 0.500000 0.000000 0.574017
O O18 0.500000 0.664748 0.250000
O O19 0.585540 0.585540 0.321831
#
# Coordination Sequence:
#
# PCOD9567237 Si02
#       7
#    16  16  16  16  16  16  16
#     4  10  20  36  57  83 114 143 180 233 285 331
#     4   9  18  32  48  71 106 144 180 224 269 321
#     4   9  18  32  49  72 102 132 170 228 285 326
#     4  10  20  33  49  74 111 148 181 223 275 331
#     4  10  22  39  57  78 108 145 185 230 280 333
#     4  11  19  31  53  76 101 139 187 225 271 332
#     4  11  21  35  57  82 111 146 182 223 276 339
#
# _framework density 17.934448
#
# number of rings (size 3 to 8) (size 9 to 14) (size 15 to 20)
#    0.000    2.000    1.429    3.429    0.000    1.857 
#    0.000    0.000    0.000    0.429    0.000   11.000 
#    0.000    0.000    0.000    0.000    0.000    0.000 
#
# Total GULP energy -623930.248003 kJ/mol
# GULP energy per Si atom -5570.805786 kJ/mol
# Density = 1.789363 g / cm^3
# Si number density = 17.934448 Si / 1000 Ang^3
#
#
#
# Elastic Constant Matrix: (Units=GPa)
#
#
# Indices 1 2 3 4 5 6 
#
# 1 72.4188 41.0191 25.7365 0.0000 0.0000 0.0000
# 2 41.0191 72.4188 25.7365 0.0000 0.0000 0.0000
# 3 25.7365 25.7365 45.9000 0.0000 0.0000 0.0000
# 4 0.0000 0.0000 0.0000 21.4518 0.0000 0.0000
# 5 0.0000 0.0000 0.0000 0.0000 21.4518 0.0000
# 6 0.0000 0.0000 0.0000 0.0000 0.0000 21.8482
#
#
#
# Elastic Compliance Matrix: (Units=1/GPa)
#
#
# Indices 1 2 3 4 5 6 
#
# 1 0.021835 -0.010012 -0.006630 0.000000 0.000000 0.000000
# 2 -0.010012 0.021835 -0.006630 0.000000 0.000000 0.000000
# 3 -0.006630 -0.006630 0.029221 0.000000 0.000000 0.000000
# 4 0.000000 0.000000 0.000000 0.046616 0.000000 0.000000
# 5 0.000000 0.000000 0.000000 0.000000 0.046616 0.000000
# 6 0.000000 0.000000 0.000000 0.000000 0.000000 0.045770
#
#
# Mechanical properties :
#
#
# Convention : Reuss Voigt Hill
#
# Bulk Modulus (GPa) = 37.95088 41.74688 39.84888
# Shear Modulus (GPa) = 18.71118 19.50007 19.10562
#
# Velocity S-wave (km/s) = 3.23353 3.30100 3.26744
# Velocity P-wave (km/s) = 5.92856 6.15279 6.04171
#
# Compressibility (1/GPa) = 0.02634985
#
# Stress axis : x y z
#
# Youngs Moduli (GPa) = 45.79701 45.79701 34.22197
#
# Poissons Ratio (x) = 0.45851 0.22688
# Poissons Ratio (y) = 0.45851 0.22688
# Poissons Ratio (z) = 0.30362 0.30362
#
# Static dielectric constant tensor:
#      x y z
#    x 1.631090 0.000000 0.000000 
#    y 0.000000 1.631090 0.000000 
#    z 0.000000 0.000000 1.588100 
# 
# From -- ./inp_files/9099.got.cif
#   From: 2010.05.17/outbox.cif.g08.bks.cpg/sg132_5_cif.got.tgz:9099.got - 2010.05.20 12:30:18.
