data_PCOD9567091
_publ_section_title
;
Structure prediction by ZEFSAII (Michael W. Deem and Ramdas Pophale) SiO2 
 PCOD9567091
Probable space group: P 42/M C M
;
_chemical_formula_sum "Si O2"
_cell_formula_units_Z 120
_cell_length_a 29.328200
_cell_length_b 29.328200
_cell_length_c 8.337458
_cell_angle_alpha 90.000000
_cell_angle_beta 90.000000
_cell_angle_gamma 90.000000
_cell_volume 7171.408765
_symmetry_space_group_name_H-M "P 42/M C M"
_symmetry_group_IT_number 132
_symmetry_cell_setting 'tetragonal'
loop_
_space_group_symop_operation_xyz
x,y,z
-y,x,1/2+z
-x,-y,z
y,-x,1/2+z
x,-y,1/2-z
-x,y,1/2-z
y,x,-z
-y,-x,-z
-x,-y,-z
y,-x,1/2-z
x,y,-z
-y,x,1/2-z
-x,y,1/2+z
x,-y,1/2+z
-y,-x,z
y,x,z
loop_
_atom_site_type_symbol
_atom_site_label
_atom_site_fract_x
_atom_site_fract_y
_atom_site_fract_z
Si Si1 0.323698 0.950982 0.816140
Si Si2 0.855709 0.564463 0.812407
Si Si3 0.951379 0.565449 0.684730
Si Si4 0.580967 0.724223 0.696155
Si Si5 0.215702 0.500000 0.250000
Si Si6 0.755480 0.317886 0.808309
Si Si7 0.327650 0.852959 0.688719
Si Si8 0.551611 0.376906 0.192096
O O1 0.379085 0.952094 0.807675
O O2 0.310066 0.903273 0.734760
O O3 0.307940 0.000000 0.750000
O O4 0.310303 0.948102 0.000000
O O5 0.908167 0.551213 0.789069
O O6 0.823250 0.536307 0.693363
O O7 0.852154 0.618000 0.774139
O O8 0.841934 0.557023 0.000000
O O9 0.945131 0.552351 0.500000
O O10 0.000000 0.550196 0.750000
O O11 0.573658 0.731288 0.500000
O O12 0.539958 0.748467 0.793266
O O13 0.630472 0.743108 0.743975
O O14 0.576996 0.670591 0.727309
O O15 0.719455 0.280546 0.745338
O O16 0.807944 0.307127 0.768540
O O17 0.750771 0.318873 0.000000
O O18 0.323124 0.847699 0.500000
O O19 0.500000 0.375576 0.250000
O O20 0.580850 0.419151 0.257131
O O21 0.550387 0.380469 0.000000
#
# Coordination Sequence:
#
# PCOD9567091 Si02
#       8
#    16  16  16  16   8  16  16  16
#     4   9  16  27  45  70  96 125 160 196 236 280
#     4  10  21  33  47  70  95 118 149 188 228 275
#     4   9  17  30  49  68  90 121 153 188 228 271
#     4  10  20  35  55  74  95 122 152 185 226 277
#     4  12  20  34  53  72  91 120 148 188 230 278
#     4  10  20  35  54  74  96 124 158 194 234 284
#     4  10  19  32  48  69  98 127 156 193 237 284
#     4  10  21  38  59  81 103 125 148 175 211 260
#
# _framework density 16.733114
#
# number of rings (size 3 to 8) (size 9 to 14) (size 15 to 20)
#    0.000    2.133    2.000    2.000    0.000    7.067 
#    0.000    1.667    0.000    3.200    0.000    0.000 
#    0.000    0.000    0.000    0.000    0.000    0.000 
#
# Total GULP energy -668128.538513 kJ/mol
# GULP energy per Si atom -5567.737821 kJ/mol
# Density = 1.669503 g / cm^3
# Si number density = 16.733114 Si / 1000 Ang^3
#
#
#
# Elastic Constant Matrix: (Units=GPa)
#
#
# Indices 1 2 3 4 5 6 
#
# 1 74.2323 44.5013 13.5714 0.0000 0.0000 0.0000
# 2 44.5013 74.2323 13.5714 0.0000 0.0000 0.0000
# 3 13.5714 13.5714 17.0554 0.0000 0.0000 0.0000
# 4 0.0000 0.0000 0.0000 2.8086 0.0000 0.0000
# 5 0.0000 0.0000 0.0000 0.0000 2.8086 0.0000
# 6 0.0000 0.0000 0.0000 0.0000 0.0000 -1.1307
#
#
#
# Elastic Compliance Matrix: (Units=1/GPa)
#
#
# Indices 1 2 3 4 5 6 
#
# 1 0.021965 -0.011670 -0.008192 0.000000 0.000000 0.000000
# 2 -0.011670 0.021965 -0.008192 0.000000 0.000000 0.000000
# 3 -0.008192 -0.008192 0.071670 0.000000 0.000000 0.000000
# 4 0.000000 0.000000 0.000000 0.356050 0.000000 0.000000
# 5 0.000000 0.000000 0.000000 0.000000 0.356050 0.000000
# 6 0.000000 0.000000 0.000000 0.000000 0.000000 -0.884433
#
#
# Mechanical properties :
#
#
# Convention : Reuss Voigt Hill
#
# Bulk Modulus (GPa) = 16.80907 34.31205 25.56056
# Shear Modulus (GPa) = 260.34909 7.15569 133.75239
#
# Velocity S-wave (km/s) = 12.48707 2.07018 8.95021
# Velocity P-wave (km/s) = 14.76380 5.12486 11.05065
#
# Compressibility (1/GPa) = 0.05949168
#
# Stress axis : x y z
#
# Youngs Moduli (GPa) = 45.52712 45.52712 13.95292
#
# Poissons Ratio (x) = 0.53130 0.11430
# Poissons Ratio (y) = 0.53130 0.11430
# Poissons Ratio (z) = 0.37296 0.37296
#
# Static dielectric constant tensor:
#      x y z
#    x 1.599550 0.000000 0.000000 
#    y 0.000000 1.599550 0.000000 
#    z 0.000000 0.000000 1.640410 
# 
# From -- ./inp_files/2073.got.cif
#   From: 2010.05.17/outbox.cif.g08.bks.cpg/sg132_2_cif.got.tgz:2073.got - 2010.05.20 12:30:18.
