data_PCOD9567339
_publ_section_title
;
Structure prediction by ZEFSAII (Michael W. Deem and Ramdas Pophale) SiO2 
 PCOD9567339
Probable space group: P 42/M C M
;
_chemical_formula_sum "Si O2"
_cell_formula_units_Z 112
_cell_length_a 14.330160
_cell_length_b 14.330160
_cell_length_c 28.648572
_cell_angle_alpha 90.000000
_cell_angle_beta 90.000000
_cell_angle_gamma 90.000000
_cell_volume 5883.084118
_symmetry_space_group_name_H-M "P 42/M C M"
_symmetry_group_IT_number 132
_symmetry_cell_setting 'tetragonal'
loop_
_space_group_symop_operation_xyz
x,y,z
-y,x,1/2+z
-x,-y,z
y,-x,1/2+z
x,-y,1/2-z
-x,y,1/2-z
y,x,-z
-y,-x,-z
-x,-y,-z
y,-x,1/2-z
x,y,-z
-y,x,1/2-z
-x,y,1/2+z
x,-y,1/2+z
-y,-x,z
y,x,z
loop_
_atom_site_type_symbol
_atom_site_label
_atom_site_fract_x
_atom_site_fract_y
_atom_site_fract_z
Si Si1 0.334300 0.181811 0.197755
Si Si2 0.210655 0.359953 0.306526
Si Si3 0.675991 0.525811 0.150773
Si Si4 0.002167 0.152145 0.200334
Si Si5 0.324727 0.017261 0.351906
Si Si6 0.600001 0.949319 0.051848
Si Si7 0.426601 0.272479 0.052785
O O1 0.232780 0.232780 0.195964
O O2 0.366483 0.189710 0.251408
O O3 0.398350 0.246769 0.165711
O O4 0.343545 0.076894 0.178493
O O5 0.258891 0.258891 0.314623
O O6 0.288310 0.435284 0.321984
O O7 0.112883 0.372214 0.334021
O O8 0.576709 0.576709 0.160872
O O9 0.686689 0.512369 0.095095
O O10 0.097173 0.097173 0.191118
O O11 0.000000 0.206803 0.250000
O O12 0.971088 0.215813 0.158367
O O13 0.925908 0.074093 0.208948
O O14 0.345784 0.993203 0.404979
O O15 0.587216 0.838201 0.058697
O O16 0.500000 0.000000 0.052127
O O17 0.641448 0.963044 0.000000
O O18 0.328576 0.328576 0.056301
O O19 0.462624 0.288189 0.000000
#
# Coordination Sequence:
#
# PCOD9567339 Si02
#       7
#    16  16  16  16  16  16  16
#     4  10  21  36  55  84 116 144 180 228 283 342
#     4  11  24  38  53  79 114 153 196 232 265 323
#     4  10  20  37  58  79 109 146 183 228 281 336
#     4   9  18  33  53  78 110 152 196 226 258 317
#     4  12  21  32  58  82 112 146 179 231 289 327
#     4  10  21  36  53  77 109 142 178 219 276 348
#     4   9  17  32  56  83 108 135 176 232 288 339
#
# _framework density 19.037633
#
# number of rings (size 3 to 8) (size 9 to 14) (size 15 to 20)
#    0.000    1.857    1.429    3.857    0.000    3.143 
#    0.000    1.429    0.000    5.571    0.000    3.000 
#    0.000    0.000    0.000    0.000    0.000    0.000 
#
# Total GULP energy -624283.557216 kJ/mol
# GULP energy per Si atom -5573.960332 kJ/mol
# Density = 1.899430 g / cm^3
# Si number density = 19.037633 Si / 1000 Ang^3
#
#
#
# Elastic Constant Matrix: (Units=GPa)
#
#
# Indices 1 2 3 4 5 6 
#
# 1 60.4158 41.5512 37.6142 0.0000 0.0000 0.0000
# 2 41.5512 60.4158 37.6142 0.0000 0.0000 0.0000
# 3 37.6142 37.6142 139.8164 0.0000 0.0000 0.0000
# 4 0.0000 0.0000 0.0000 18.4391 0.0000 0.0000
# 5 0.0000 0.0000 0.0000 0.0000 18.4391 0.0000
# 6 0.0000 0.0000 0.0000 0.0000 0.0000 28.7874
#
#
#
# Elastic Compliance Matrix: (Units=1/GPa)
#
#
# Indices 1 2 3 4 5 6 
#
# 1 0.032622 -0.020387 -0.003292 0.000000 0.000000 0.000000
# 2 -0.020387 0.032622 -0.003292 0.000000 0.000000 0.000000
# 3 -0.003292 -0.003292 0.008923 0.000000 0.000000 0.000000
# 4 0.000000 0.000000 0.000000 0.054233 0.000000 0.000000
# 5 0.000000 0.000000 0.000000 0.000000 0.054233 0.000000
# 6 0.000000 0.000000 0.000000 0.000000 0.000000 0.034737
#
#
# Mechanical properties :
#
#
# Convention : Reuss Voigt Hill
#
# Bulk Modulus (GPa) = 49.43690 54.91187 52.17439
# Shear Modulus (GPa) = 17.98212 22.72434 20.35323
#
# Velocity S-wave (km/s) = 3.07670 3.45868 3.27326
# Velocity P-wave (km/s) = 6.21657 6.69749 6.46151
#
# Compressibility (1/GPa) = 0.02022781
#
# Stress axis : x y z
#
# Youngs Moduli (GPa) = 30.65373 30.65373 112.06571
#
# Poissons Ratio (x) = 0.62493 0.36889
# Poissons Ratio (y) = 0.62493 0.36889
# Poissons Ratio (z) = 0.10090 0.10090
#
# Static dielectric constant tensor:
#      x y z
#    x 1.699420 0.000000 0.000000 
#    y 0.000000 1.699420 0.000000 
#    z 0.000000 0.000000 1.684770 
# 
# From -- ./inp_files/10093.got.cif
#   From: 2010.05.17/outbox.cif.g08.bks.cpg/sg132_6_cif.got.tgz:10093.got - 2010.05.20 12:30:18.
