data_PCOD9567967
_publ_section_title
;
Structure prediction by ZEFSAII (Michael W. Deem and Ramdas Pophale) SiO2 
 PCOD9567967
Probable space group: P 42/N B C
;
_chemical_formula_sum "Si O2"
_cell_formula_units_Z 112
_cell_length_a 14.833196
_cell_length_b 14.833196
_cell_length_c 23.052816
_cell_angle_alpha 90.000000
_cell_angle_beta 90.000000
_cell_angle_gamma 90.000000
_cell_volume 5072.165954
_symmetry_space_group_name_H-M "P 42/N B C"
_symmetry_group_IT_number 133
_space_group.IT_coordinate_system_code '2'
_symmetry_cell_setting 'tetragonal'
loop_
_space_group_symop_operation_xyz
x,y,z
1/2-y,x,1/2+z
1/2-x,1/2-y,z
y,1/2-x,1/2+z
x,1/2-y,-z
1/2-x,y,-z
y,x,1/2-z
1/2-y,1/2-x,1/2-z
-x,-y,-z
1/2+y,-x,1/2-z
1/2+x,1/2+y,-z
-y,1/2+x,1/2-z
-x,1/2+y,z
1/2+x,-y,z
-y,-x,1/2+z
1/2+y,1/2+x,1/2+z
loop_
_atom_site_type_symbol
_atom_site_label
_atom_site_fract_x
_atom_site_fract_y
_atom_site_fract_z
Si Si1 0.081925 0.804029 0.945376
Si Si2 0.269507 0.344788 0.688105
Si Si3 0.203036 0.973538 0.944381
Si Si4 0.877144 0.986006 0.668106
Si Si5 0.870684 0.133300 0.390493
Si Si6 0.431267 0.048961 0.371577
Si Si7 0.866970 0.327607 0.739666
O O1 0.144439 0.886935 0.965180
O O2 0.014712 0.839930 0.895649
O O3 0.144545 0.729936 0.913707
O O4 0.041897 0.750000 0.000000
O O5 0.250000 0.250000 0.656116
O O6 0.313168 0.313168 0.750000
O O7 0.171610 0.393192 0.685627
O O8 0.343647 0.412979 0.661774
O O9 0.284780 0.935118 0.906021
O O10 0.134076 0.032270 0.907604
O O11 0.250000 0.018004 0.000000
O O12 0.842628 0.051063 0.718495
O O13 0.983994 0.007381 0.664582
O O14 0.867944 0.123079 0.321200
O O15 0.904113 0.035527 0.411676
O O16 0.857158 0.222156 0.726213
#
# Coordination Sequence:
#
# PCOD9567967 Si02
#       7
#    16  16  16  16  16  16  16
#     4  11  21  43  68  99 138 180 230 300 365 428
#     4  11  27  49  71 101 149 194 239 295 364 445
#     4  11  25  42  69 100 137 178 237 300 364 429
#     4  11  25  46  68 107 136 192 244 295 362 430
#     4  12  24  40  66  99 137 182 232 290 365 419
#     4  11  27  45  71 102 140 185 244 294 354 448
#     4  11  22  36  64 102 142 171 226 298 356 428
#
# _framework density 22.081295999999998
#
# number of rings (size 3 to 8) (size 9 to 14) (size 15 to 20)
#    0.000    0.857    4.286    2.143   10.000    1.714 
#    0.000    0.000    0.000    0.000    0.000    0.000 
#    0.000    0.000    0.000    0.000    0.000    0.000 
#
# Total GULP energy -625266.342050 kJ/mol
# GULP energy per Si atom -5582.735197 kJ/mol
# Density = 2.203104 g / cm^3
# Si number density = 22.081296 Si / 1000 Ang^3
#
#
#
# Elastic Constant Matrix: (Units=GPa)
#
#
# Indices 1 2 3 4 5 6 
#
# 1 89.0462 36.2937 3.8938 0.0000 0.0000 0.0000
# 2 36.2937 89.0462 3.8938 0.0000 0.0000 0.0000
# 3 3.8938 3.8938 61.4622 0.0000 0.0000 0.0000
# 4 0.0000 0.0000 0.0000 12.9845 0.0000 0.0000
# 5 0.0000 0.0000 0.0000 0.0000 12.9845 0.0000
# 6 0.0000 0.0000 0.0000 0.0000 0.0000 14.6178
#
#
#
# Elastic Compliance Matrix: (Units=1/GPa)
#
#
# Indices 1 2 3 4 5 6 
#
# 1 0.013483 -0.005473 -0.000507 0.000000 0.000000 0.000000
# 2 -0.005473 0.013483 -0.000507 0.000000 0.000000 0.000000
# 3 -0.000507 -0.000507 0.016334 0.000000 0.000000 0.000000
# 4 0.000000 0.000000 0.000000 0.077015 0.000000 0.000000
# 5 0.000000 0.000000 0.000000 0.000000 0.077015 0.000000
# 6 0.000000 0.000000 0.000000 0.000000 0.000000 0.068410
#
#
# Mechanical properties :
#
#
# Convention : Reuss Voigt Hill
#
# Bulk Modulus (GPa) = 32.97679 36.41302 34.69491
# Shear Modulus (GPa) = 17.31152 21.14891 19.23022
#
# Velocity S-wave (km/s) = 2.80302 3.09815 2.95427
# Velocity P-wave (km/s) = 5.04406 5.41519 5.23292
#
# Compressibility (1/GPa) = 0.03032436
#
# Stress axis : x y z
#
# Youngs Moduli (GPa) = 74.16674 74.16674 61.22025
#
# Poissons Ratio (x) = 0.40594 0.03107
# Poissons Ratio (y) = 0.40594 0.03107
# Poissons Ratio (z) = 0.03764 0.03764
#
# Static dielectric constant tensor:
#      x y z
#    x 1.875720 0.000000 0.000000 
#    y 0.000000 1.875720 0.000000 
#    z 0.000000 0.000000 1.837790 
# 
# From -- ./inp_files/7260.got.cif
#   From: 2010.05.17/outbox.cif.g08.bks.cpg/sg133_4_cif.got.tgz:7260.got - 2010.05.20 12:37:36.
