data_PCOD9567576
_publ_section_title
;
Structure prediction by ZEFSAII (Michael W. Deem and Ramdas Pophale) SiO2 
 PCOD9567576
Probable space group: P 42/N B C
;
_chemical_formula_sum "Si O2"
_cell_formula_units_Z 116
_cell_length_a 18.035606
_cell_length_b 18.035606
_cell_length_c 17.285979
_cell_angle_alpha 90.000000
_cell_angle_beta 90.000000
_cell_angle_gamma 90.000000
_cell_volume 5622.836555
_symmetry_space_group_name_H-M "P 42/N B C"
_symmetry_group_IT_number 133
_space_group.IT_coordinate_system_code '2'
_symmetry_cell_setting 'tetragonal'
loop_
_space_group_symop_operation_xyz
x,y,z
1/2-y,x,1/2+z
1/2-x,1/2-y,z
y,1/2-x,1/2+z
x,1/2-y,-z
1/2-x,y,-z
y,x,1/2-z
1/2-y,1/2-x,1/2-z
-x,-y,-z
1/2+y,-x,1/2-z
1/2+x,1/2+y,-z
-y,1/2+x,1/2-z
-x,1/2+y,z
1/2+x,-y,z
-y,-x,1/2+z
1/2+y,1/2+x,1/2+z
loop_
_atom_site_type_symbol
_atom_site_label
_atom_site_fract_x
_atom_site_fract_y
_atom_site_fract_z
Si Si1 0.408559 0.986023 0.640475
Si Si2 0.526542 0.870864 0.700577
Si Si3 0.250000 0.250000 0.500000
Si Si4 0.674084 0.062809 0.221079
Si Si5 0.529523 0.362375 0.973854
Si Si6 0.626710 0.503798 0.923164
Si Si7 0.070606 0.801368 0.179938
Si Si8 0.853410 0.881337 0.055384
O O1 0.461147 0.914231 0.654434
O O2 0.362157 0.993873 0.718439
O O3 0.356366 0.972493 0.566257
O O4 0.454678 0.059716 0.621910
O O5 0.565032 0.934969 0.750000
O O6 0.501404 0.811865 0.765053
O O7 0.581831 0.838214 0.637744
O O8 0.306713 0.194005 0.456101
O O9 0.732883 0.105650 0.274998
O O10 0.614207 0.123742 0.197052
O O11 0.687761 0.024321 0.138517
O O12 0.581224 0.435261 0.961149
O O13 0.559126 0.302590 0.911878
O O14 0.443298 0.371488 0.949068
O O15 0.659817 0.559688 0.986137
#
# Coordination Sequence:
#
# PCOD9567576 Si02
#       8
#    16  16   4  16  16  16  16  16
#     4  10  17  32  61  95 115 137 198 269 324 349
#     4  11  18  36  64  86 113 157 202 262 308 360
#     4  12  32  40  50  92 132 192 208 226 320 422
#     4  10  22  35  55  89 119 157 200 250 307 385
#     4  10  18  36  65  91 112 150 205 267 323 348
#     4  10  18  36  62  92 110 146 209 271 315 340
#     4  10  22  36  58  89 120 152 204 247 324 375
#     4  11  22  41  59  81 126 165 204 252 298 377
#
# _framework density 20.630158000000002
#
# number of rings (size 3 to 8) (size 9 to 14) (size 15 to 20)
#    0.000    1.655    4.138    2.897    1.931    3.034 
#    0.000    0.345    0.000    0.000    0.000    3.862 
#    0.000    0.000    0.000    0.000    0.000    0.000 
#
# Total GULP energy -645999.248305 kJ/mol
# GULP energy per Si atom -5568.959037 kJ/mol
# Density = 2.058320 g / cm^3
# Si number density = 20.630158 Si / 1000 Ang^3
#
#
#
# Elastic Constant Matrix: (Units=GPa)
#
#
# Indices 1 2 3 4 5 6 
#
# 1 57.4141 5.3670 22.5480 0.0000 0.0000 0.0000
# 2 5.3670 57.4141 22.5481 0.0000 0.0000 0.0000
# 3 22.5480 22.5481 122.9271 0.0000 0.0000 0.0000
# 4 0.0000 0.0000 0.0000 17.4552 0.0000 0.0000
# 5 0.0000 0.0000 0.0000 0.0000 17.4551 0.0000
# 6 0.0000 0.0000 0.0000 0.0000 0.0000 2.5740
#
#
#
# Elastic Compliance Matrix: (Units=1/GPa)
#
#
# Indices 1 2 3 4 5 6 
#
# 1 0.018779 -0.000434 -0.003365 0.000000 0.000000 0.000000
# 2 -0.000434 0.018779 -0.003365 0.000000 0.000000 0.000000
# 3 -0.003365 -0.003365 0.009369 0.000000 0.000000 0.000000
# 4 0.000000 0.000000 0.000000 0.057290 0.000000 0.000000
# 5 0.000000 0.000000 0.000000 0.000000 0.057290 0.000000
# 6 0.000000 0.000000 0.000000 0.000000 0.000000 0.388497
#
#
# Mechanical properties :
#
#
# Convention : Reuss Voigt Hill
#
# Bulk Modulus (GPa) = 30.67465 37.63129 34.15297
# Shear Modulus (GPa) = 8.69263 19.98301 14.33782
#
# Velocity S-wave (km/s) = 2.05492 3.11566 2.63913
# Velocity P-wave (km/s) = 4.53116 5.58781 5.08699
#
# Compressibility (1/GPa) = 0.03260020
#
# Stress axis : x y z
#
# Youngs Moduli (GPa) = 53.24976 53.24968 106.73068
#
# Poissons Ratio (x) = 0.02311 0.35915
# Poissons Ratio (y) = 0.02311 0.35916
# Poissons Ratio (z) = 0.17919 0.17919
#
# Static dielectric constant tensor:
#      x y z
#    x 1.872710 0.000000 0.000000 
#    y 0.000000 1.872710 0.000000 
#    z 0.000000 0.000000 1.766300 
# 
# From -- ./inp_files/5639.got.cif
#   From: 2010.05.17/outbox.cif.g08.bks.cpg/sg133_3_cif.got.tgz:5639.got - 2010.05.20 12:37:36.
