data_PCOD9567271
_publ_section_title
;
Structure prediction by ZEFSAII (Michael W. Deem and Ramdas Pophale) SiO2 
 PCOD9567271
Probable space group: P 42/M C M
;
_chemical_formula_sum "Si O2"
_cell_formula_units_Z 88
_cell_length_a 12.380067
_cell_length_b 12.380067
_cell_length_c 33.454654
_cell_angle_alpha 90.000000
_cell_angle_beta 90.000000
_cell_angle_gamma 90.000000
_cell_volume 5127.462971
_symmetry_space_group_name_H-M "P 42/M C M"
_symmetry_group_IT_number 132
_symmetry_cell_setting 'tetragonal'
loop_
_space_group_symop_operation_xyz
x,y,z
-y,x,1/2+z
-x,-y,z
y,-x,1/2+z
x,-y,1/2-z
-x,y,1/2-z
y,x,-z
-y,-x,-z
-x,-y,-z
y,-x,1/2-z
x,y,-z
-y,x,1/2-z
-x,y,1/2+z
x,-y,1/2+z
-y,-x,z
y,x,z
loop_
_atom_site_type_symbol
_atom_site_label
_atom_site_fract_x
_atom_site_fract_y
_atom_site_fract_z
Si Si1 0.485291 0.123763 0.315815
Si Si2 0.785478 0.387007 0.455606
Si Si3 0.821036 0.639140 0.544484
Si Si4 0.313639 0.500000 0.250000
Si Si5 0.100015 0.719661 0.872055
Si Si6 0.864313 0.691211 0.127314
O O1 0.492877 0.227366 0.286660
O O2 0.373054 0.127034 0.339959
O O3 0.581037 0.133391 0.348041
O O4 0.500000 0.000000 0.298683
O O5 0.828173 0.360887 0.500000
O O6 0.667196 0.332805 0.452966
O O7 0.785159 0.515333 0.451587
O O8 0.851795 0.336795 0.419388
O O9 0.871707 0.651521 0.500000
O O10 0.717753 0.717753 0.545473
O O11 0.890105 0.670318 0.583177
O O12 0.395106 0.604895 0.251688
O O13 0.182940 0.817061 0.868708
O O14 0.976425 0.751731 0.865675
O O15 0.763835 0.763835 0.139611
#
# Coordination Sequence:
#
# PCOD9567271 Si02
#       6
#    16  16  16   8  16  16
#     4  10  20  37  59  81 104 134 172 212 249 296
#     4   9  17  29  46  70 101 137 177 218 257 300
#     4   9  17  29  46  70 101 137 177 218 257 300
#     4  11  23  38  58  84 113 139 162 196 250 315
#     4  10  20  34  52  75 104 137 174 215 257 301
#     4  10  20  34  52  75 104 137 174 215 257 301
#
# _framework density 17.162483000000002
#
# number of rings (size 3 to 8) (size 9 to 14) (size 15 to 20)
#    0.000    2.273    1.818    1.364    0.000    1.455 
#    0.000    3.636    0.000    0.000    0.000    5.091 
#    0.000   13.091    0.000    0.000    0.000    0.000 
#
# Total GULP energy -490012.707736 kJ/mol
# GULP energy per Si atom -5568.326224 kJ/mol
# Density = 1.712342 g / cm^3
# Si number density = 17.162483 Si / 1000 Ang^3
#
#
#
# Elastic Constant Matrix: (Units=GPa)
#
#
# Indices 1 2 3 4 5 6 
#
# 1 40.8260 4.6578 5.6490 0.0000 0.0000 0.0000
# 2 4.6578 40.8260 5.6490 0.0000 0.0000 0.0000
# 3 5.6490 5.6490 59.1091 0.0000 0.0000 0.0000
# 4 0.0000 0.0000 0.0000 20.8571 0.0000 0.0000
# 5 0.0000 0.0000 0.0000 0.0000 20.8571 0.0000
# 6 0.0000 0.0000 0.0000 0.0000 0.0000 14.7793
#
#
#
# Elastic Compliance Matrix: (Units=1/GPa)
#
#
# Indices 1 2 3 4 5 6 
#
# 1 0.025085 -0.002564 -0.002152 0.000000 0.000000 0.000000
# 2 -0.002564 0.025085 -0.002152 0.000000 0.000000 0.000000
# 3 -0.002152 -0.002152 0.017329 0.000000 0.000000 0.000000
# 4 0.000000 0.000000 0.000000 0.047945 0.000000 0.000000
# 5 0.000000 0.000000 0.000000 0.000000 0.047945 0.000000
# 6 0.000000 0.000000 0.000000 0.000000 0.000000 0.067662
#
#
# Mechanical properties :
#
#
# Convention : Reuss Voigt Hill
#
# Bulk Modulus (GPa) = 18.60082 19.18587 18.89335
# Shear Modulus (GPa) = 19.03250 19.61907 19.32579
#
# Velocity S-wave (km/s) = 3.33372 3.38470 3.35930
# Velocity P-wave (km/s) = 5.06753 5.14569 5.10676
#
# Compressibility (1/GPa) = 0.05376107
#
# Stress axis : x y z
#
# Youngs Moduli (GPa) = 39.86524 39.86524 57.70585
#
# Poissons Ratio (x) = 0.10222 0.12420
# Poissons Ratio (y) = 0.10222 0.12420
# Poissons Ratio (z) = 0.08580 0.08580
#
# Static dielectric constant tensor:
#      x y z
#    x 1.559600 0.000000 0.000000 
#    y 0.000000 1.559600 0.000000 
#    z 0.000000 0.000000 1.602900 
# 
# From -- ./inp_files/10768.got.cif
#   From: 2010.05.17/outbox.cif.g08.bks.cpg/sg132_6_cif.got.tgz:10768.got - 2010.05.20 12:30:18.
