data_PCOD9567252
_publ_section_title
;
Structure prediction by ZEFSAII (Michael W. Deem and Ramdas Pophale) SiO2 
 PCOD9567252
Probable space group: P 42/M C M
;
_chemical_formula_sum "Si O2"
_cell_formula_units_Z 80
_cell_length_a 13.466546
_cell_length_b 13.466546
_cell_length_c 26.330428
_cell_angle_alpha 90.000000
_cell_angle_beta 90.000000
_cell_angle_gamma 90.000000
_cell_volume 4774.966801
_symmetry_space_group_name_H-M "P 42/M C M"
_symmetry_group_IT_number 132
_symmetry_cell_setting 'tetragonal'
loop_
_space_group_symop_operation_xyz
x,y,z
-y,x,1/2+z
-x,-y,z
y,-x,1/2+z
x,-y,1/2-z
-x,y,1/2-z
y,x,-z
-y,-x,-z
-x,-y,-z
y,-x,1/2-z
x,y,-z
-y,x,1/2-z
-x,y,1/2+z
x,-y,1/2+z
-y,-x,z
y,x,z
loop_
_atom_site_type_symbol
_atom_site_label
_atom_site_fract_x
_atom_site_fract_y
_atom_site_fract_z
Si Si1 0.065987 0.777722 0.939908
Si Si2 0.383536 0.979922 0.193329
Si Si3 0.367871 0.797500 0.880079
Si Si4 0.728883 0.436072 0.439442
Si Si5 0.283052 0.125959 0.886943
O O1 0.127618 0.872383 0.920439
O O2 0.128048 0.681873 0.921245
O O3 0.955459 0.774910 0.919531
O O4 0.065482 0.779101 0.000000
O O5 0.374741 0.869495 0.169152
O O6 0.500000 0.000000 0.194467
O O7 0.343659 0.000000 0.250000
O O8 0.336073 0.061106 0.155972
O O9 0.290867 0.709134 0.870238
O O10 0.467470 0.749940 0.904416
O O11 0.733352 0.458911 0.500000
O O12 0.625526 0.374475 0.430574
O O13 0.816233 0.360437 0.422934
O O14 0.208251 0.208251 0.865711
#
# Coordination Sequence:
#
# PCOD9567252 Si02
#       5
#    16  16  16  16  16
#     4   9  18  31  49  75 107 144 182 220 265 318
#     4  10  20  37  59  80 101 131 177 224 272 322
#     4  10  20  35  54  80 110 141 178 222 269 318
#     4  10  20  33  51  78 112 151 189 222 264 320
#     4  10  20  34  52  77 108 141 178 223 273 326
#
# _framework density 16.754041999999998
#
# number of rings (size 3 to 8) (size 9 to 14) (size 15 to 20)
#    0.000    2.200    2.000    1.200    0.000    4.000 
#    0.000    5.000    0.000    0.000    0.000    2.800 
#    0.000    0.000    0.000    0.000    0.000    0.000 
#
# Total GULP energy -445438.835010 kJ/mol
# GULP energy per Si atom -5567.985438 kJ/mol
# Density = 1.671591 g / cm^3
# Si number density = 16.754042 Si / 1000 Ang^3
#
#
#
# Elastic Constant Matrix: (Units=GPa)
#
#
# Indices 1 2 3 4 5 6 
#
# 1 83.2439 51.7774 38.4488 0.0000 0.0000 0.0000
# 2 51.7774 83.2439 38.4488 0.0000 0.0000 0.0000
# 3 38.4488 38.4488 96.5616 0.0000 0.0000 0.0000
# 4 0.0000 0.0000 0.0000 15.7071 0.0000 0.0000
# 5 0.0000 0.0000 0.0000 0.0000 15.7071 0.0000
# 6 0.0000 0.0000 0.0000 0.0000 0.0000 17.7542
#
#
#
# Elastic Compliance Matrix: (Units=1/GPa)
#
#
# Indices 1 2 3 4 5 6 
#
# 1 0.020679 -0.011101 -0.003814 0.000000 0.000000 0.000000
# 2 -0.011101 0.020679 -0.003814 0.000000 0.000000 0.000000
# 3 -0.003814 -0.003814 0.013393 0.000000 0.000000 0.000000
# 4 0.000000 0.000000 0.000000 0.063665 0.000000 0.000000
# 5 0.000000 0.000000 0.000000 0.000000 0.063665 0.000000
# 6 0.000000 0.000000 0.000000 0.000000 0.000000 0.056325
#
#
# Mechanical properties :
#
#
# Convention : Reuss Voigt Hill
#
# Bulk Modulus (GPa) = 57.82215 57.82215 57.82215
# Shear Modulus (GPa) = 17.75386 18.79198 18.27292
#
# Velocity S-wave (km/s) = 3.25880 3.35272 3.30609
# Velocity P-wave (km/s) = 6.98190 7.04095 7.01149
#
# Compressibility (1/GPa) = 0.01729441
#
# Stress axis : x y z
#
# Youngs Moduli (GPa) = 48.35797 48.35797 74.66421
#
# Poissons Ratio (x) = 0.53681 0.28476
# Poissons Ratio (y) = 0.53681 0.28476
# Poissons Ratio (z) = 0.18443 0.18443
#
# Static dielectric constant tensor:
#      x y z
#    x 1.580840 0.000000 0.000000 
#    y 0.000000 1.580840 0.000000 
#    z 0.000000 0.000000 1.563020 
# 
# From -- ./inp_files/10570.got.cif
#   From: 2010.05.17/outbox.cif.g08.bks.cpg/sg132_6_cif.got.tgz:10570.got - 2010.05.20 12:30:18.
