data_PCOD9567421
_publ_section_title
;
Structure prediction by ZEFSAII (Michael W. Deem and Ramdas Pophale) SiO2 
 PCOD9567421
Probable space group: P 42/M C M
;
_chemical_formula_sum "Si O2"
_cell_formula_units_Z 42
_cell_length_a 11.891853
_cell_length_b 11.891853
_cell_length_c 14.196622
_cell_angle_alpha 90.000000
_cell_angle_beta 90.000000
_cell_angle_gamma 90.000000
_cell_volume 2007.631879
_symmetry_space_group_name_H-M "P 42/M C M"
_symmetry_group_IT_number 132
_symmetry_cell_setting 'tetragonal'
loop_
_space_group_symop_operation_xyz
x,y,z
-y,x,1/2+z
-x,-y,z
y,-x,1/2+z
x,-y,1/2-z
-x,y,1/2-z
y,x,-z
-y,-x,-z
-x,-y,-z
y,-x,1/2-z
x,y,-z
-y,x,1/2-z
-x,y,1/2+z
x,-y,1/2+z
-y,-x,z
y,x,z
loop_
_atom_site_type_symbol
_atom_site_label
_atom_site_fract_x
_atom_site_fract_y
_atom_site_fract_z
Si Si1 0.084986 0.408787 0.605150
Si Si2 0.844789 0.844789 0.383622
Si Si3 0.000000 0.000000 0.750000
Si Si4 0.678507 0.494515 0.636694
O O1 0.039537 0.385485 0.500000
O O2 0.120665 0.284754 0.642287
O O3 0.200844 0.476359 0.599957
O O4 0.000000 0.500000 0.649492
O O5 0.854578 0.854578 0.500000
O O6 0.924317 0.924317 0.320868
O O7 0.683855 0.500000 0.750000
O O8 0.624155 0.375846 0.610489
O O9 0.590691 0.590691 0.607395
#
# Coordination Sequence:
#
# PCOD9567421 Si02
#       4
#    16   8   2  16
#     4  10  21  39  61  87 123 166 205 256 325 375
#     4  10  23  45  66  92 132 164 217 281 309 384
#     4  12  26  44  72  94 116 180 230 248 336 370
#     4   9  18  33  54  83 118 152 194 252 310 370
#
# _framework density 20.920169999999999
#
# number of rings (size 3 to 8) (size 9 to 14) (size 15 to 20)
#    0.000    2.286    1.905    1.429    0.000    4.571 
#    3.429    1.905    0.000    0.000    0.000    0.000 
#    0.000    0.000    0.000    0.000    0.000    0.000 
#
# Total GULP energy -233883.756238 kJ/mol
# GULP energy per Si atom -5568.660863 kJ/mol
# Density = 2.087255 g / cm^3
# Si number density = 20.920170 Si / 1000 Ang^3
#
#
#
# Elastic Constant Matrix: (Units=GPa)
#
#
# Indices 1 2 3 4 5 6 
#
# 1 160.7931 108.3899 30.9387 0.0000 0.0000 0.0000
# 2 108.3899 160.7931 30.9387 0.0000 0.0000 0.0000
# 3 30.9387 30.9387 95.2251 0.0000 0.0000 0.0000
# 4 0.0000 0.0000 0.0000 8.9394 0.0000 0.0000
# 5 0.0000 0.0000 0.0000 0.0000 8.9394 0.0000
# 6 0.0000 0.0000 0.0000 0.0000 0.0000 39.0333
#
#
#
# Elastic Compliance Matrix: (Units=1/GPa)
#
#
# Indices 1 2 3 4 5 6 
#
# 1 0.011549 -0.007534 -0.001304 0.000000 0.000000 0.000000
# 2 -0.007534 0.011549 -0.001304 0.000000 0.000000 0.000000
# 3 -0.001304 -0.001304 0.011349 0.000000 0.000000 0.000000
# 4 0.000000 0.000000 0.000000 0.111864 0.000000 0.000000
# 5 0.000000 0.000000 0.000000 0.000000 0.111864 0.000000
# 6 0.000000 0.000000 0.000000 0.000000 0.000000 0.025619
#
#
# Mechanical properties :
#
#
# Convention : Reuss Voigt Hill
#
# Bulk Modulus (GPa) = 70.61653 84.14955 77.38304
# Shear Modulus (GPa) = 16.19175 27.81870 22.00523
#
# Velocity S-wave (km/s) = 2.78506 3.65054 3.24677
# Velocity P-wave (km/s) = 6.64610 7.62102 7.15020
#
# Compressibility (1/GPa) = 0.01416099
#
# Stress axis : x y z
#
# Youngs Moduli (GPa) = 86.58914 86.58914 88.11314
#
# Poissons Ratio (x) = 0.65236 0.11494
# Poissons Ratio (y) = 0.65236 0.11494
# Poissons Ratio (z) = 0.11295 0.11295
#
# Static dielectric constant tensor:
#      x y z
#    x 1.762040 0.000000 0.000000 
#    y 0.000000 1.762040 0.000000 
#    z 0.000000 0.000000 1.814650 
# 
# From -- ./inp_files/5592.got.cif
#   From: 2010.05.17/outbox.cif.g08.bks.cpg/sg132_3_cif.got.tgz:5592.got - 2010.05.20 12:30:18.
