data_PCOD9567902
_publ_section_title
;
Structure prediction by ZEFSAII (Michael W. Deem and Ramdas Pophale) SiO2 
 PCOD9567902
Probable space group: P 42/N B C
;
_chemical_formula_sum "Si O2"
_cell_formula_units_Z 88
_cell_length_a 16.337847
_cell_length_b 16.337847
_cell_length_c 14.033540
_cell_angle_alpha 90.000000
_cell_angle_beta 90.000000
_cell_angle_gamma 90.000000
_cell_volume 3745.906097
_symmetry_space_group_name_H-M "P 42/N B C"
_symmetry_group_IT_number 133
_space_group.IT_coordinate_system_code '2'
_symmetry_cell_setting 'tetragonal'
loop_
_space_group_symop_operation_xyz
x,y,z
1/2-y,x,1/2+z
1/2-x,1/2-y,z
y,1/2-x,1/2+z
x,1/2-y,-z
1/2-x,y,-z
y,x,1/2-z
1/2-y,1/2-x,1/2-z
-x,-y,-z
1/2+y,-x,1/2-z
1/2+x,1/2+y,-z
-y,1/2+x,1/2-z
-x,1/2+y,z
1/2+x,-y,z
-y,-x,1/2+z
1/2+y,1/2+x,1/2+z
loop_
_atom_site_type_symbol
_atom_site_label
_atom_site_fract_x
_atom_site_fract_y
_atom_site_fract_z
Si Si1 0.337676 0.617157 0.971772
Si Si2 0.585590 0.914411 0.750000
Si Si3 0.250000 0.124924 0.000000
Si Si4 0.750000 0.613113 0.500000
Si Si5 0.663032 0.495310 0.643776
Si Si6 0.244663 0.014458 0.833459
Si Si7 0.481475 0.957485 0.399355
O O1 0.410561 0.663605 0.916821
O O2 0.307586 0.551275 0.893171
O O3 0.250000 0.656643 0.000000
O O4 0.379834 0.573118 0.064305
O O5 0.570547 0.823617 0.715082
O O6 0.570459 0.982576 0.668022
O O7 0.284495 0.070254 0.914859
O O8 0.174605 0.179337 0.966226
O O9 0.719461 0.557368 0.585511
O O10 0.695960 0.483015 0.750726
O O11 0.572744 0.536009 0.645562
O O12 0.500000 0.000000 0.500000
#
# Coordination Sequence:
#
# PCOD9567902 Si02
#       7
#    16   8   8   8  16  16  16
#     4  11  25  48  76 107 153 200 258 324 386 463
#     4  12  24  44  80 115 142 195 260 322 374 490
#     4  11  26  48  72 118 156 211 236 344 395 472
#     4  11  26  48  75 106 166 200 267 302 418 467
#     4  11  26  46  75 113 148 209 251 327 385 479
#     4  12  25  44  75 110 152 185 259 320 390 452
#     4  10  23  44  73 109 144 197 262 309 377 452
#
# _framework density 23.492312999999999
#
# number of rings (size 3 to 8) (size 9 to 14) (size 15 to 20)
#    0.000    0.909    4.545    2.182   10.182    0.727 
#    0.000    2.273    0.000    0.000    0.000    0.000 
#    0.000    0.000    0.000    0.000    0.000    0.000 
#
# Total GULP energy -491920.739941 kJ/mol
# GULP energy per Si atom -5590.008408 kJ/mol
# Density = 2.343884 g / cm^3
# Si number density = 23.492313 Si / 1000 Ang^3
#
#
#
# Elastic Constant Matrix: (Units=GPa)
#
#
# Indices 1 2 3 4 5 6 
#
# 1 114.6988 35.8879 46.3030 0.0000 0.0000 0.0000
# 2 35.8879 114.6985 46.3027 0.0000 0.0000 0.0000
# 3 46.3030 46.3027 151.3967 0.0000 0.0000 0.0000
# 4 0.0000 0.0000 0.0000 45.2985 0.0000 0.0000
# 5 0.0000 0.0000 0.0000 0.0000 45.2983 0.0000
# 6 0.0000 0.0000 0.0000 0.0000 0.0000 25.8189
#
#
#
# Elastic Compliance Matrix: (Units=1/GPa)
#
#
# Indices 1 2 3 4 5 6 
#
# 1 0.010434 -0.002255 -0.002501 0.000000 0.000000 0.000000
# 2 -0.002255 0.010434 -0.002501 0.000000 0.000000 0.000000
# 3 -0.002501 -0.002501 0.008135 0.000000 0.000000 0.000000
# 4 0.000000 0.000000 0.000000 0.022076 0.000000 0.000000
# 5 0.000000 0.000000 0.000000 0.000000 0.022076 0.000000
# 6 0.000000 0.000000 0.000000 0.000000 0.000000 0.038731
#
#
# Mechanical properties :
#
#
# Convention : Reuss Voigt Hill
#
# Bulk Modulus (GPa) = 69.02525 70.86459 69.94492
# Shear Modulus (GPa) = 38.10092 40.10316 39.10204
#
# Velocity S-wave (km/s) = 4.03158 4.13616 4.08421
# Velocity P-wave (km/s) = 7.14964 7.28292 7.21659
#
# Compressibility (1/GPa) = 0.01448745
#
# Stress axis : x y z
#
# Youngs Moduli (GPa) = 95.84229 95.84209 122.92198
#
# Poissons Ratio (x) = 0.21611 0.30748
# Poissons Ratio (y) = 0.21611 0.30748
# Poissons Ratio (z) = 0.23975 0.23974
#
# Static dielectric constant tensor:
#      x y z
#    x 1.941040 0.000000 0.000000 
#    y 0.000000 1.941040 0.000000 
#    z 0.000000 0.000000 1.901410 
# 
# From -- ./inp_files/4485.got.cif
#   From: 2010.05.17/outbox.cif.g08.bks.cpg/sg133_3_cif.got.tgz:4485.got - 2010.05.20 12:37:36.
