data_PCOD9567429
_publ_section_title
;
Structure prediction by ZEFSAII (Michael W. Deem and Ramdas Pophale) SiO2 
 PCOD9567429
Probable space group: P 42/M C M
;
_chemical_formula_sum "Si O2"
_cell_formula_units_Z 112
_cell_length_a 14.248338
_cell_length_b 14.248338
_cell_length_c 25.746097
_cell_angle_alpha 90.000000
_cell_angle_beta 90.000000
_cell_angle_gamma 90.000000
_cell_volume 5226.847378
_symmetry_space_group_name_H-M "P 42/M C M"
_symmetry_group_IT_number 132
_symmetry_cell_setting 'tetragonal'
loop_
_space_group_symop_operation_xyz
x,y,z
-y,x,1/2+z
-x,-y,z
y,-x,1/2+z
x,-y,1/2-z
-x,y,1/2-z
y,x,-z
-y,-x,-z
-x,-y,-z
y,-x,1/2-z
x,y,-z
-y,x,1/2-z
-x,y,1/2+z
x,-y,1/2+z
-y,-x,z
y,x,z
loop_
_atom_site_type_symbol
_atom_site_label
_atom_site_fract_x
_atom_site_fract_y
_atom_site_fract_z
Si Si1 0.602990 0.960737 0.080374
Si Si2 0.587205 0.255988 0.439581
Si Si3 0.105434 0.250155 0.579117
Si Si4 0.755964 0.399398 0.243418
Si Si5 0.353826 0.058945 0.799197
Si Si6 0.247675 0.399660 0.373203
Si Si7 0.150238 0.004551 0.676434
O O1 0.616644 0.852607 0.065582
O O2 0.610973 0.967881 0.143508
O O3 0.500000 0.000000 0.065640
O O4 0.687320 0.021849 0.056657
O O5 0.559858 0.272900 0.500000
O O6 0.670443 0.329558 0.426839
O O7 0.498135 0.262464 0.401350
O O8 0.168598 0.168598 0.553833
O O9 0.179051 0.331129 0.595417
O O10 0.057871 0.197842 0.628109
O O11 0.708641 0.500000 0.250000
O O12 0.684204 0.315797 0.247450
O O13 0.835930 0.383352 0.285566
O O14 0.795236 0.402256 0.184654
O O15 0.240660 0.045130 0.798507
O O16 0.390122 0.000000 0.750000
O O17 0.346801 0.346801 0.368481
O O18 0.075851 0.924150 0.661371
O O19 0.086055 0.086055 0.704257
#
# Coordination Sequence:
#
# PCOD9567429 Si02
#       7
#    16  16  16  16  16  16  16
#     4  11  22  39  65  95 129 171 216 261 318 382
#     4  11  26  47  71  99 127 158 209 278 344 402
#     4   9  18  35  60  90 125 166 212 257 308 376
#     4  11  24  38  57  86 126 173 219 261 312 373
#     4  11  24  35  59  87 130 171 219 264 309 368
#     4  10  21  41  65  90 128 172 212 266 329 392
#     4   9  18  33  53  82 123 171 221 269 314 359
#
# _framework density 21.42783
#
# number of rings (size 3 to 8) (size 9 to 14) (size 15 to 20)
#    0.000    1.714    1.429    3.000    2.000    7.857 
#    0.000    2.857    0.000    0.429    0.000    1.000 
#    0.000    0.000    0.000    0.000    0.000    0.000 
#
# Total GULP energy -624848.555194 kJ/mol
# GULP energy per Si atom -5579.004957 kJ/mol
# Density = 2.137906 g / cm^3
# Si number density = 21.427830 Si / 1000 Ang^3
#
#
#
# Elastic Constant Matrix: (Units=GPa)
#
#
# Indices 1 2 3 4 5 6 
#
# 1 115.6038 63.6930 22.4444 0.0000 0.0000 0.0000
# 2 63.6930 115.6038 22.4444 0.0000 0.0000 0.0000
# 3 22.4444 22.4444 78.5217 0.0000 0.0000 0.0000
# 4 0.0000 0.0000 0.0000 63.5243 0.0000 0.0000
# 5 0.0000 0.0000 0.0000 0.0000 63.5243 0.0000
# 6 0.0000 0.0000 0.0000 0.0000 0.0000 105.7374
#
#
#
# Elastic Compliance Matrix: (Units=1/GPa)
#
#
# Indices 1 2 3 4 5 6 
#
# 1 0.012636 -0.006628 -0.001717 0.000000 0.000000 0.000000
# 2 -0.006628 0.012636 -0.001717 0.000000 0.000000 0.000000
# 3 -0.001717 -0.001717 0.013717 0.000000 0.000000 0.000000
# 4 0.000000 0.000000 0.000000 0.015742 0.000000 0.000000
# 5 0.000000 0.000000 0.000000 0.000000 0.015742 0.000000
# 6 0.000000 0.000000 0.000000 0.000000 0.000000 0.009457
#
#
# Mechanical properties :
#
#
# Convention : Reuss Voigt Hill
#
# Bulk Modulus (GPa) = 53.01370 58.54368 55.77869
# Shear Modulus (GPa) = 47.01807 59.96700 53.49253
#
# Velocity S-wave (km/s) = 4.68937 5.29588 5.00182
# Velocity P-wave (km/s) = 7.35626 8.04834 7.71007
#
# Compressibility (1/GPa) = 0.01886305
#
# Stress axis : x y z
#
# Youngs Moduli (GPa) = 79.14188 79.14188 72.90252
#
# Poissons Ratio (x) = 0.52458 0.12518
# Poissons Ratio (y) = 0.52458 0.12518
# Poissons Ratio (z) = 0.13589 0.13589
#
# Static dielectric constant tensor:
#      x y z
#    x 1.769650 0.000000 0.000000 
#    y 0.000000 1.769650 0.000000 
#    z 0.000000 0.000000 1.816380 
# 
# From -- ./inp_files/9161.got.cif
#   From: 2010.05.17/outbox.cif.g08.bks.cpg/sg132_5_cif.got.tgz:9161.got - 2010.05.20 12:30:18.
