data_PCOD9567728
_publ_section_title
;
Structure prediction by ZEFSAII (Michael W. Deem and Ramdas Pophale) SiO2 
 PCOD9567728
Probable space group: P 42/N B C
;
_chemical_formula_sum "Si O2"
_cell_formula_units_Z 72
_cell_length_a 16.444597
_cell_length_b 16.444597
_cell_length_c 11.721159
_cell_angle_alpha 90.000000
_cell_angle_beta 90.000000
_cell_angle_gamma 90.000000
_cell_volume 3169.691732
_symmetry_space_group_name_H-M "P 42/N B C"
_symmetry_group_IT_number 133
_space_group.IT_coordinate_system_code '2'
_symmetry_cell_setting 'tetragonal'
loop_
_space_group_symop_operation_xyz
x,y,z
1/2-y,x,1/2+z
1/2-x,1/2-y,z
y,1/2-x,1/2+z
x,1/2-y,-z
1/2-x,y,-z
y,x,1/2-z
1/2-y,1/2-x,1/2-z
-x,-y,-z
1/2+y,-x,1/2-z
1/2+x,1/2+y,-z
-y,1/2+x,1/2-z
-x,1/2+y,z
1/2+x,-y,z
-y,-x,1/2+z
1/2+y,1/2+x,1/2+z
loop_
_atom_site_type_symbol
_atom_site_label
_atom_site_fract_x
_atom_site_fract_y
_atom_site_fract_z
Si Si1 0.104720 0.395281 0.250000
Si Si2 0.039806 0.242283 0.369626
Si Si3 0.884307 0.461483 0.563765
Si Si4 0.762084 0.122185 0.279043
Si Si5 0.437938 0.068480 0.622659
O O1 0.094114 0.316432 0.327414
O O2 0.108169 0.469769 0.338665
O O3 0.013398 0.250000 0.500000
O O4 0.091435 0.159899 0.364767
O O5 0.959670 0.240391 0.289753
O O6 0.813426 0.402638 0.608035
O O7 0.877729 0.508434 0.443527
O O8 0.975075 0.424043 0.558289
O O9 0.680423 0.175639 0.292284
O O10 0.458451 0.041550 0.750000
#
# Coordination Sequence:
#
# PCOD9567728 Si02
#       5
#     8  16  16  16  16
#     4  10  20  38  65  92 132 169 228 268 338 400
#     4  11  22  41  66  95 131 182 223 286 342 402
#     4  10  20  37  64  94 129 177 223 280 328 404
#     4  10  21  39  60  96 145 186 224 276 346 425
#     4  11  22  39  65  97 126 168 232 282 334 399
#
# _framework density 22.715142
#
# number of rings (size 3 to 8) (size 9 to 14) (size 15 to 20)
#    0.000    1.556    5.556    0.000    0.000    0.000 
#    0.000    9.444    0.000    1.333    0.000    0.000 
#    0.000    0.000    0.000    0.000    0.000    0.000 
#
# Total GULP energy -402060.791944 kJ/mol
# GULP energy per Si atom -5584.177666 kJ/mol
# Density = 2.266344 g / cm^3
# Si number density = 22.715142 Si / 1000 Ang^3
#
#
#
# Elastic Constant Matrix: (Units=GPa)
#
#
# Indices 1 2 3 4 5 6 
#
# 1 24.5149 74.0495 21.5979 0.0000 0.0000 0.0000
# 2 74.0495 24.5167 21.5945 0.0000 0.0000 0.0000
# 3 21.5979 21.5945 99.5420 0.0000 0.0000 0.0000
# 4 0.0000 0.0000 0.0000 24.4655 0.0000 0.0000
# 5 0.0000 0.0000 0.0000 0.0000 24.4663 0.0000
# 6 0.0000 0.0000 0.0000 0.0000 0.0000 12.9017
#
#
#
# Elastic Compliance Matrix: (Units=1/GPa)
#
#
# Indices 1 2 3 4 5 6 
#
# 1 -0.004489 0.015700 -0.002432 0.000000 0.000000 0.000000
# 2 0.015700 -0.004488 -0.002433 0.000000 0.000000 0.000000
# 3 -0.002432 -0.002433 0.011101 0.000000 0.000000 0.000000
# 4 0.000000 0.000000 0.000000 0.040874 0.000000 0.000000
# 5 0.000000 0.000000 0.000000 0.000000 0.040873 0.000000
# 6 0.000000 0.000000 0.000000 0.000000 0.000000 0.077509
#
#
# Mechanical properties :
#
#
# Convention : Reuss Voigt Hill
#
# Bulk Modulus (GPa) = 42.02598 42.56195 42.29396
# Shear Modulus (GPa) = 33.86575 14.45548 24.16061
#
# Velocity S-wave (km/s) = 3.86539 2.52540 3.26488
# Velocity P-wave (km/s) = 6.20187 5.22316 5.73344
#
# Compressibility (1/GPa) = 0.02379481
#
# Stress axis : x y z
#
# Youngs Moduli (GPa) = -222.77857 -222.81529 90.07833
#
# Poissons Ratio (x) = 3.49817 0.21907
# Poissons Ratio (y) = 3.49759 0.21914
# Poissons Ratio (z) = -0.54179 -0.54207
#
# Static dielectric constant tensor:
#      x y z
#    x 1.863360 0.000000 0.000000 
#    y 0.000000 1.863360 0.000000 
#    z 0.000000 0.000000 1.919600 
# 
# From -- ./inp_files/3092.got.cif
#   From: 2010.05.17/outbox.cif.g08.bks.cpg/sg133_2_cif.got.tgz:3092.got - 2010.05.20 12:37:36.
