data_PCOD9567847
_publ_section_title
;
Structure prediction by ZEFSAII (Michael W. Deem and Ramdas Pophale) SiO2 
 PCOD9567847
Probable space group: P 42/N B C
;
_chemical_formula_sum "Si O2"
_cell_formula_units_Z 64
_cell_length_a 9.896601
_cell_length_b 9.896601
_cell_length_c 23.121939
_cell_angle_alpha 90.000000
_cell_angle_beta 90.000000
_cell_angle_gamma 90.000000
_cell_volume 2264.625397
_symmetry_space_group_name_H-M "P 42/N B C"
_symmetry_group_IT_number 133
_space_group.IT_coordinate_system_code '2'
_symmetry_cell_setting 'tetragonal'
loop_
_space_group_symop_operation_xyz
x,y,z
1/2-y,x,1/2+z
1/2-x,1/2-y,z
y,1/2-x,1/2+z
x,1/2-y,-z
1/2-x,y,-z
y,x,1/2-z
1/2-y,1/2-x,1/2-z
-x,-y,-z
1/2+y,-x,1/2-z
1/2+x,1/2+y,-z
-y,1/2+x,1/2-z
-x,1/2+y,z
1/2+x,-y,z
-y,-x,1/2+z
1/2+y,1/2+x,1/2+z
loop_
_atom_site_type_symbol
_atom_site_label
_atom_site_fract_x
_atom_site_fract_y
_atom_site_fract_z
Si Si1 0.897345 0.418024 0.569914
Si Si2 0.413527 0.249900 0.388610
Si Si3 0.603591 0.419427 0.569108
Si Si4 0.050529 0.826506 0.732459
O O1 0.933318 0.585571 0.589062
O O2 0.749928 0.415578 0.598538
O O3 0.927105 0.249126 0.573085
O O4 0.883533 0.434936 0.500489
O O5 0.250000 0.250000 0.383830
O O6 0.430259 0.412221 0.414544
O O7 0.487655 0.263658 0.326063
O O8 0.192763 0.909854 0.730008
O O9 0.935044 0.935044 0.750000
#
# Coordination Sequence:
#
# PCOD9567847 Si02
#       4
#    16  16  16  16
#     4  10  22  40  69 103 156 207 255 326 390 482
#     4  12  27  43  74 107 147 204 260 330 405 496
#     4  10  22  41  66 108 154 203 262 319 395 481
#     4  11  31  55  84 116 153 205 265 347 416 495
#
# _framework density 28.260743999999999
#
# number of rings (size 3 to 8) (size 9 to 14) (size 15 to 20)
#    0.000    1.250    0.000    3.000   14.000    6.000 
#    0.000    0.000    0.000    0.000    0.000    0.000 
#    0.000    0.000    0.000    0.000    0.000    0.000 
#
# Total GULP energy -357013.627240 kJ/mol
# GULP energy per Si atom -5578.337926 kJ/mol
# Density = 2.819642 g / cm^3
# Si number density = 28.260744 Si / 1000 Ang^3
#
#
#
# Elastic Constant Matrix: (Units=GPa)
#
#
# Indices 1 2 3 4 5 6 
#
# 1 336.6457 169.5288 78.2657 0.0000 0.0000 0.0000
# 2 169.5288 336.6457 78.2657 0.0000 0.0000 0.0000
# 3 78.2657 78.2657 172.7005 0.0000 0.0000 0.0000
# 4 0.0000 0.0000 0.0000 366.4582 0.0000 0.0000
# 5 0.0000 0.0000 0.0000 0.0000 366.4582 0.0000
# 6 0.0000 0.0000 0.0000 0.0000 0.0000 131.7688
#
#
#
# Elastic Compliance Matrix: (Units=1/GPa)
#
#
# Indices 1 2 3 4 5 6 
#
# 1 0.004141 -0.001843 -0.001041 0.000000 0.000000 0.000000
# 2 -0.001843 0.004141 -0.001041 0.000000 0.000000 0.000000
# 3 -0.001041 -0.001041 0.006734 0.000000 0.000000 0.000000
# 4 0.000000 0.000000 0.000000 0.002729 0.000000 0.000000
# 5 0.000000 0.000000 0.000000 0.000000 0.002729 0.000000
# 6 0.000000 0.000000 0.000000 0.000000 0.000000 0.007589
#
#
# Mechanical properties :
#
#
# Convention : Reuss Voigt Hill
#
# Bulk Modulus (GPa) = 139.57990 166.45692 153.01841
# Shear Modulus (GPa) = 130.54290 207.59918 169.07104
#
# Velocity S-wave (km/s) = 6.80387 8.58009 7.74308
# Velocity P-wave (km/s) = 10.54612 12.53737 11.58461
#
# Compressibility (1/GPa) = 0.00716436
#
# Stress axis : x y z
#
# Youngs Moduli (GPa) = 241.50406 241.50406 148.49730
#
# Poissons Ratio (x) = 0.44512 0.15462
# Poissons Ratio (y) = 0.44512 0.15462
# Poissons Ratio (z) = 0.25146 0.25146
#
# Static dielectric constant tensor:
#      x y z
#    x 2.327010 0.000000 0.000000 
#    y 0.000000 2.327010 0.000000 
#    z 0.000000 0.000000 1.992060 
# 
# From -- ./inp_files/7472.got.cif
#   From: 2010.05.17/outbox.cif.g08.bks.cpg/sg133_4_cif.got.tgz:7472.got - 2010.05.20 12:37:36.
