data_PCOD9567703
_publ_section_title
;
Structure prediction by ZEFSAII (Michael W. Deem and Ramdas Pophale) SiO2 
 PCOD9567703
Probable space group: P 42/N B C
;
_chemical_formula_sum "Si O2"
_cell_formula_units_Z 68
_cell_length_a 15.694956
_cell_length_b 15.694956
_cell_length_c 12.773602
_cell_angle_alpha 90.000000
_cell_angle_beta 90.000000
_cell_angle_gamma 90.000000
_cell_volume 3146.542378
_symmetry_space_group_name_H-M "P 42/N B C"
_symmetry_group_IT_number 133
_space_group.IT_coordinate_system_code '2'
_symmetry_cell_setting 'tetragonal'
loop_
_space_group_symop_operation_xyz
x,y,z
1/2-y,x,1/2+z
1/2-x,1/2-y,z
y,1/2-x,1/2+z
x,1/2-y,-z
1/2-x,y,-z
y,x,1/2-z
1/2-y,1/2-x,1/2-z
-x,-y,-z
1/2+y,-x,1/2-z
1/2+x,1/2+y,-z
-y,1/2+x,1/2-z
-x,1/2+y,z
1/2+x,-y,z
-y,-x,1/2+z
1/2+y,1/2+x,1/2+z
loop_
_atom_site_type_symbol
_atom_site_label
_atom_site_fract_x
_atom_site_fract_y
_atom_site_fract_z
Si Si1 0.829992 0.104088 0.123430
Si Si2 0.521089 0.873972 0.171710
Si Si3 0.047806 0.187896 0.761890
Si Si4 0.750000 0.250000 0.250000
Si Si5 0.046348 0.649726 0.968060
O O1 0.764872 0.170805 0.172290
O O2 0.919100 0.131358 0.180521
O O3 0.809097 0.008891 0.157441
O O4 0.861977 0.112607 0.003325
O O5 0.557015 0.942986 0.250000
O O6 0.563246 0.783969 0.199812
O O7 0.524309 0.891280 0.046732
O O8 0.130848 0.130848 0.750000
O O9 0.986794 0.146370 0.851186
O O10 0.050784 0.750000 0.000000
#
# Coordination Sequence:
#
# PCOD9567703 Si02
#       5
#    16  16  16   4  16
#     4  10  20  35  61  84 117 149 191 242 293 354
#     4   9  19  38  60  80 115 158 192 237 294 342
#     4  11  21  37  60  85 115 157 198 233 290 350
#     4  12  16  36  66  88 112 150 196 240 294 348
#     4   8  18  38  57  78 114 158 182 235 302 341
#
# _framework density 21.611021999999998
#
# number of rings (size 3 to 8) (size 9 to 14) (size 15 to 20)
#    1.412    0.941    2.353    0.706    0.000    1.412 
#    0.000    6.471    0.000    4.235    0.000    0.000 
#    0.000    0.000    0.000    0.000    0.000    0.000 
#
# Total GULP energy -378738.653892 kJ/mol
# GULP energy per Si atom -5569.686087 kJ/mol
# Density = 2.156183 g / cm^3
# Si number density = 21.611022 Si / 1000 Ang^3
#
#
#
# Elastic Constant Matrix: (Units=GPa)
#
#
# Indices 1 2 3 4 5 6 
#
# 1 25.6505 6.2371 3.5603 0.0000 0.0000 0.0000
# 2 6.2371 25.6513 3.5592 0.0000 0.0000 0.0000
# 3 3.5603 3.5592 69.4460 0.0000 0.0000 0.0000
# 4 0.0000 0.0000 0.0000 25.2005 0.0000 0.0000
# 5 0.0000 0.0000 0.0000 0.0000 25.2006 0.0000
# 6 0.0000 0.0000 0.0000 0.0000 0.0000 22.6824
#
#
#
# Elastic Compliance Matrix: (Units=1/GPa)
#
#
# Indices 1 2 3 4 5 6 
#
# 1 0.041617 -0.009893 -0.001627 0.000000 0.000000 0.000000
# 2 -0.009893 0.041615 -0.001626 0.000000 0.000000 0.000000
# 3 -0.001627 -0.001626 0.014566 0.000000 0.000000 0.000000
# 4 0.000000 0.000000 0.000000 0.039682 0.000000 0.000000
# 5 0.000000 0.000000 0.000000 0.000000 0.039682 0.000000
# 6 0.000000 0.000000 0.000000 0.000000 0.000000 0.044087
#
#
# Mechanical properties :
#
#
# Convention : Reuss Voigt Hill
#
# Bulk Modulus (GPa) = 13.98451 16.38455 15.18453
# Shear Modulus (GPa) = 18.42461 21.77612 20.10036
#
# Velocity S-wave (km/s) = 2.92302 3.17778 3.05306
# Velocity P-wave (km/s) = 4.22814 4.58938 4.41246
#
# Compressibility (1/GPa) = 0.07150771
#
# Stress axis : x y z
#
# Youngs Moduli (GPa) = 24.02862 24.02955 68.65121
#
# Poissons Ratio (x) = 0.23773 0.11166
# Poissons Ratio (y) = 0.23772 0.11160
# Poissons Ratio (z) = 0.03908 0.03906
#
# Static dielectric constant tensor:
#      x y z
#    x 1.793860 0.000000 0.000000 
#    y 0.000000 1.793860 0.000000 
#    z 0.000000 0.000000 1.933170 
# 
# From -- ./inp_files/4252.got.cif
#   From: 2010.05.17/outbox.cif.g08.bks.cpg/sg133_3_cif.got.tgz:4252.got - 2010.05.20 12:37:36.
