data_PCOD9567598
_publ_section_title
;
Structure prediction by ZEFSAII (Michael W. Deem and Ramdas Pophale) SiO2 
 PCOD9567598
Probable space group: P 42/N B C
;
_chemical_formula_sum "Si O2"
_cell_formula_units_Z 76
_cell_length_a 14.825141
_cell_length_b 14.825141
_cell_length_c 14.570142
_cell_angle_alpha 90.000000
_cell_angle_beta 90.000000
_cell_angle_gamma 90.000000
_cell_volume 3202.295828
_symmetry_space_group_name_H-M "P 42/N B C"
_symmetry_group_IT_number 133
_space_group.IT_coordinate_system_code '2'
_symmetry_cell_setting 'tetragonal'
loop_
_space_group_symop_operation_xyz
x,y,z
1/2-y,x,1/2+z
1/2-x,1/2-y,z
y,1/2-x,1/2+z
x,1/2-y,-z
1/2-x,y,-z
y,x,1/2-z
1/2-y,1/2-x,1/2-z
-x,-y,-z
1/2+y,-x,1/2-z
1/2+x,1/2+y,-z
-y,1/2+x,1/2-z
-x,1/2+y,z
1/2+x,-y,z
-y,-x,1/2+z
1/2+y,1/2+x,1/2+z
loop_
_atom_site_type_symbol
_atom_site_label
_atom_site_fract_x
_atom_site_fract_y
_atom_site_fract_z
Si Si1 0.764416 0.546375 0.610679
Si Si2 0.368166 0.624918 0.139274
Si Si3 0.949892 0.617690 0.588587
Si Si4 0.940816 0.250000 0.500000
Si Si5 0.938770 0.948986 0.624658
Si Si6 0.750000 0.250000 0.750000
O O1 0.750000 0.542816 0.500000
O O2 0.807327 0.451764 0.642534
O O3 0.849096 0.613470 0.628446
O O4 0.665293 0.564179 0.651584
O O5 0.333562 0.617025 0.034207
O O6 0.396205 0.523981 0.167621
O O7 0.284673 0.666987 0.191107
O O8 0.940714 0.580555 0.483426
O O9 0.993437 0.715338 0.580026
O O10 0.023642 0.551144 0.632470
#
# Coordination Sequence:
#
# PCOD9567598 Si02
#       6
#    16  16  16   8  16   4
#     4   9  16  31  58  81 108 147 188 230 285 352
#     4  10  23  36  53  80 113 147 191 243 292 351
#     4   8  15  26  47  85 112 133 177 229 271 343
#     4  10  18  33  57  84 116 150 184 232 300 356
#     4   8  15  32  50  74 110 146 180 225 282 345
#     4  12  28  38  48  80 120 142 196 256 304 342
#
# _framework density 23.732975
#
# number of rings (size 3 to 8) (size 9 to 14) (size 15 to 20)
#    0.000    2.947    0.000    3.789    5.895    0.000 
#    0.000   14.211    0.000    0.000    0.000    0.000 
#    0.000   11.368    0.000    0.000    0.000    0.000 
#
# Total GULP energy -423804.618607 kJ/mol
# GULP energy per Si atom -5576.376561 kJ/mol
# Density = 2.367896 g / cm^3
# Si number density = 23.732975 Si / 1000 Ang^3
#
#
#
# Elastic Constant Matrix: (Units=GPa)
#
#
# Indices 1 2 3 4 5 6 
#
# 1 141.5282 45.8991 10.2948 0.0000 0.0000 0.0000
# 2 45.8991 141.5282 10.2948 0.0000 0.0000 0.0000
# 3 10.2948 10.2948 37.9997 0.0000 0.0000 0.0000
# 4 0.0000 0.0000 0.0000 -18.3574 0.0000 0.0000
# 5 0.0000 0.0000 0.0000 0.0000 -18.3574 0.0000
# 6 0.0000 0.0000 0.0000 0.0000 0.0000 8.8414
#
#
#
# Elastic Compliance Matrix: (Units=1/GPa)
#
#
# Indices 1 2 3 4 5 6 
#
# 1 0.007978 -0.002479 -0.001490 0.000000 0.000000 0.000000
# 2 -0.002479 0.007978 -0.001490 0.000000 0.000000 0.000000
# 3 -0.001490 -0.001490 0.027123 0.000000 0.000000 0.000000
# 4 0.000000 0.000000 0.000000 -0.054474 0.000000 0.000000
# 5 0.000000 0.000000 0.000000 0.000000 -0.054474 0.000000
# 6 0.000000 0.000000 0.000000 0.000000 0.000000 0.113105
#
#
# Mechanical properties :
#
#
# Convention : Reuss Voigt Hill
#
# Bulk Modulus (GPa) = 31.09242 50.44819 40.77030
# Shear Modulus (GPa) = 72.59614 11.39646 41.99630
#
# Velocity S-wave (km/s) = 5.53671 2.19371 4.21115
# Velocity P-wave (km/s) = 7.34867 5.26491 6.39227
#
# Compressibility (1/GPa) = 0.03216218
#
# Stress axis : x y z
#
# Youngs Moduli (GPa) = 125.34362 125.34362 36.86872
#
# Poissons Ratio (x) = 0.31073 0.05493
# Poissons Ratio (y) = 0.31073 0.05493
# Poissons Ratio (z) = 0.18674 0.18674
#
# Static dielectric constant tensor:
#      x y z
#    x 1.853950 0.000000 0.000000 
#    y 0.000000 1.853950 0.000000 
#    z 0.000000 0.000000 1.975710 
# 
# From -- ./inp_files/6361.got.cif
#   From: 2010.05.17/outbox.cif.g08.bks.cpg/sg133_4_cif.got.tgz:6361.got - 2010.05.20 12:37:36.
