data_PCOD9567556
_publ_section_title
;
Structure prediction by ZEFSAII (Michael W. Deem and Ramdas Pophale) SiO2 
 PCOD9567556
Probable space group: P 42/M C M
;
_chemical_formula_sum "Si O2"
_cell_formula_units_Z 128
_cell_length_a 21.000000
_cell_length_b 21.000000
_cell_length_c 18.000000
_cell_angle_alpha 90.000000
_cell_angle_beta 90.000000
_cell_angle_gamma 90.000000
_cell_volume 7938.000000
_symmetry_space_group_name_H-M "P 42/M C M"
_symmetry_group_IT_number 132
_symmetry_cell_setting 'tetragonal'
loop_
_space_group_symop_operation_xyz
x,y,z
-y,x,1/2+z
-x,-y,z
y,-x,1/2+z
x,-y,1/2-z
-x,y,1/2-z
y,x,-z
-y,-x,-z
-x,-y,-z
y,-x,1/2-z
x,y,-z
-y,x,1/2-z
-x,y,1/2+z
x,-y,1/2+z
-y,-x,z
y,x,z
loop_
_atom_site_type_symbol
_atom_site_label
_atom_site_fract_x
_atom_site_fract_y
_atom_site_fract_z
Si Si1 0.624335 0.904267 0.410644
Si Si2 0.822862 0.280888 0.411598
Si Si3 0.609062 0.228939 0.678044
Si Si4 0.638694 0.947132 0.089707
Si Si5 0.313589 0.420562 0.584404
Si Si6 0.886125 0.514496 0.164952
Si Si7 0.640759 0.539070 0.175172
Si Si8 0.673739 0.781834 0.333359
O O1 0.623089 0.897667 0.500000
O O2 0.552378 0.892299 0.378902
O O3 0.669866 0.849759 0.375177
O O4 0.646560 0.977262 0.393316
O O5 0.826997 0.273438 0.500000
O O6 0.782570 0.217431 0.384300
O O7 0.780631 0.342697 0.390196
O O8 0.895022 0.305791 0.388024
O O9 0.546424 0.184621 0.668970
O O10 0.587054 0.300896 0.690221
O O11 0.651279 0.207709 0.748788
O O12 0.571856 0.926199 0.127583
O O13 0.632185 0.941835 0.000000
O O14 0.290969 0.426218 0.500000
O O15 0.375888 0.375888 0.586257
O O16 0.333169 0.488177 0.616780
O O17 0.260883 0.382481 0.630623
O O18 0.905479 0.500000 0.250000
O O19 0.626098 0.500000 0.250000
O O20 0.579732 0.579732 0.151511
O O21 0.738473 0.738473 0.337751
#
# Coordination Sequence:
#
# PCOD9567556 Si02
#       8
#    16  16  16  16  16  16  16  16
#     4  11  22  35  51  76 107 138 170 209 256 306
#     4   9  18  34  55  77 102 135 170 202 242 293
#     4  11  21  36  53  75  99 125 164 213 252 294
#     4   9  20  35  51  75 109 140 168 208 253 298
#     4  10  22  38  53  68  87 115 155 204 253 305
#     4  11  20  34  53  75 101 137 174 204 249 309
#     4  12  23  35  52  69  89 117 152 198 257 314
#     4  11  21  37  56  74  96 129 170 211 253 298
#
# _framework density 16.124969
#
# number of rings (size 3 to 8) (size 9 to 14) (size 15 to 20)
#    0.000    1.500    2.500    3.750    0.000    4.875 
#    0.000    0.625    0.000    0.000    0.000    0.000 
#    0.000    0.500    0.000    4.875    0.000    6.000 
#
# Total GULP energy -713890.518000 kJ/mol
# GULP energy per Si atom -5577.269672 kJ/mol
# Density = 1.608827 g / cm^3
# Si number density = 16.124969 Si / 1000 Ang^3
#
#
#
# Elastic Constant Matrix: (Units=GPa)
#
#
# Indices 1 2 3 4 5 6 
#
# 1 92.3930 45.7865 12.4098 0.0000 0.0000 0.0000
# 2 45.7865 92.3930 12.4098 0.0000 0.0000 0.0000
# 3 12.4098 12.4098 31.2624 0.0000 0.0000 0.0000
# 4 0.0000 0.0000 0.0000 21.2245 0.0000 0.0000
# 5 0.0000 0.0000 0.0000 0.0000 21.2245 0.0000
# 6 0.0000 0.0000 0.0000 0.0000 0.0000 25.0137
#
#
#
# Elastic Compliance Matrix: (Units=1/GPa)
#
#
# Indices 1 2 3 4 5 6 
#
# 1 0.014624 -0.006832 -0.003093 0.000000 0.000000 0.000000
# 2 -0.006832 0.014624 -0.003093 0.000000 0.000000 0.000000
# 3 -0.003093 -0.003093 0.034443 0.000000 0.000000 0.000000
# 4 0.000000 0.000000 0.000000 0.047115 0.000000 0.000000
# 5 0.000000 0.000000 0.000000 0.000000 0.047115 0.000000
# 6 0.000000 0.000000 0.000000 0.000000 0.000000 0.039978
#
#
# Mechanical properties :
#
#
# Convention : Reuss Voigt Hill
#
# Bulk Modulus (GPa) = 26.55687 39.69559 33.12623
# Shear Modulus (GPa) = 21.14260 23.18869 22.16564
#
# Velocity S-wave (km/s) = 3.62494 3.79629 3.71160
# Velocity P-wave (km/s) = 5.83313 6.62470 6.24148
#
# Compressibility (1/GPa) = 0.03765504
#
# Stress axis : x y z
#
# Youngs Moduli (GPa) = 68.37883 68.37883 29.03340
#
# Poissons Ratio (x) = 0.46715 0.08981
# Poissons Ratio (y) = 0.46715 0.08981
# Poissons Ratio (z) = 0.21152 0.21152
#
# Static dielectric constant tensor:
#      x y z
#    x 1.553880 0.000000 0.000000 
#    y 0.000000 1.553880 0.000000 
#    z 0.000000 0.000000 1.579970 
# 
# From -- ./inp_files/6854.got.cif
#   From: 2010.05.17/outbox.ucp.g08.bks.cvg/sg132_4_cif.got.tgz:6854.got - 2010.06.11 11:39:14.
