data_PCOD9567541
_publ_section_title
;
Structure prediction by ZEFSAII (Michael W. Deem and Ramdas Pophale) SiO2 
 PCOD9567541
Probable space group: P 42/M C M
;
_chemical_formula_sum "Si O2"
_cell_formula_units_Z 48
_cell_length_a 10.001683
_cell_length_b 10.001683
_cell_length_c 21.947702
_cell_angle_alpha 90.000000
_cell_angle_beta 90.000000
_cell_angle_gamma 90.000000
_cell_volume 2195.509022
_symmetry_space_group_name_H-M "P 42/M C M"
_symmetry_group_IT_number 132
_symmetry_cell_setting 'tetragonal'
loop_
_space_group_symop_operation_xyz
x,y,z
-y,x,1/2+z
-x,-y,z
y,-x,1/2+z
x,-y,1/2-z
-x,y,1/2-z
y,x,-z
-y,-x,-z
-x,-y,-z
y,-x,1/2-z
x,y,-z
-y,x,1/2-z
-x,y,1/2+z
x,-y,1/2+z
-y,-x,z
y,x,z
loop_
_atom_site_type_symbol
_atom_site_label
_atom_site_fract_x
_atom_site_fract_y
_atom_site_fract_z
Si Si1 0.275155 0.500000 0.750000
Si Si2 0.506801 0.724466 0.000000
Si Si3 0.990582 0.778840 0.180953
Si Si4 0.177117 0.408612 0.375753
O O1 0.371225 0.628776 0.746836
O O2 0.197093 0.490977 0.686523
O O3 0.486909 0.806778 0.061782
O O4 0.645178 0.645178 0.000000
O O5 0.389997 0.610004 0.000000
O O6 0.101834 0.898167 0.180738
O O7 0.040180 0.672360 0.132420
O O8 0.000000 0.724211 0.250000
O O9 0.849142 0.849142 0.170501
O O10 0.297380 0.297380 0.375639
#
# Coordination Sequence:
#
# PCOD9567541 Si02
#       4
#     8   8  16  16
#     4   9  16  26  41  64  96 132 171 215 256 300
#     4   9  16  26  41  65 102 145 181 213 256 313
#     4   8  14  26  44  65  90 121 161 216 277 324
#     4   9  16  26  42  66  96 132 173 213 258 316
#
# _framework density 21.862812999999999
#
# number of rings (size 3 to 8) (size 9 to 14) (size 15 to 20)
#    0.000    3.333    0.000    2.000    0.000    4.000 
#    0.000    1.667    0.000    5.000    0.000    4.667 
#    0.000   10.667    0.000    4.333    0.000    5.333 
#
# Total GULP energy -268223.732830 kJ/mol
# GULP energy per Si atom -5587.994434 kJ/mol
# Density = 2.181305 g / cm^3
# Si number density = 21.862813 Si / 1000 Ang^3
#
#
#
# Elastic Constant Matrix: (Units=GPa)
#
#
# Indices 1 2 3 4 5 6 
#
# 1 64.7537 52.5782 79.6180 0.0000 0.0000 0.0000
# 2 52.5782 64.7537 79.6180 0.0000 0.0000 0.0000
# 3 79.6180 79.6180 212.2227 0.0000 0.0000 0.0000
# 4 0.0000 0.0000 0.0000 24.4135 0.0000 0.0000
# 5 0.0000 0.0000 0.0000 0.0000 24.4136 0.0000
# 6 0.0000 0.0000 0.0000 0.0000 0.0000 13.0152
#
#
#
# Elastic Compliance Matrix: (Units=1/GPa)
#
#
# Indices 1 2 3 4 5 6 
#
# 1 0.049748 -0.032385 -0.006514 0.000000 0.000000 0.000000
# 2 -0.032385 0.049748 -0.006514 0.000000 0.000000 0.000000
# 3 -0.006514 -0.006514 0.009600 0.000000 0.000000 0.000000
# 4 0.000000 0.000000 0.000000 0.040961 0.000000 0.000000
# 5 0.000000 0.000000 0.000000 0.000000 0.040961 0.000000
# 6 0.000000 0.000000 0.000000 0.000000 0.000000 0.076833
#
#
# Mechanical properties :
#
#
# Convention : Reuss Voigt Hill
#
# Bulk Modulus (GPa) = 54.73424 85.03983 69.88704
# Shear Modulus (GPa) = 13.70740 21.02952 17.36846
#
# Velocity S-wave (km/s) = 2.50666 3.10479 2.82162
# Velocity P-wave (km/s) = 5.78511 7.19961 6.53077
#
# Compressibility (1/GPa) = 0.01827010
#
# Stress axis : x y z
#
# Youngs Moduli (GPa) = 20.10132 20.10130 104.16995
#
# Poissons Ratio (x) = 0.65097 0.67857
# Poissons Ratio (y) = 0.65097 0.67857
# Poissons Ratio (z) = 0.13094 0.13094
#
# Static dielectric constant tensor:
#      x y z
#    x 1.825010 0.000000 0.000000 
#    y 0.000000 1.825010 0.000000 
#    z 0.000000 0.000000 1.728960 
# 
# From -- ./inp_files/5756.got.cif
#   From: 2010.05.17/outbox.cif.g08.bks.cpg/sg132_3_cif.got.tgz:5756.got - 2010.05.20 12:30:18.
