data_PCOD9567839
_publ_section_title
;
Structure prediction by ZEFSAII (Michael W. Deem and Ramdas Pophale) SiO2 
 PCOD9567839
Probable space group: P 42/N B C
;
_chemical_formula_sum "Si O2"
_cell_formula_units_Z 112
_cell_length_a 14.754219
_cell_length_b 14.754219
_cell_length_c 26.869734
_cell_angle_alpha 90.000000
_cell_angle_beta 90.000000
_cell_angle_gamma 90.000000
_cell_volume 5849.191202
_symmetry_space_group_name_H-M "P 42/N B C"
_symmetry_group_IT_number 133
_space_group.IT_coordinate_system_code '2'
_symmetry_cell_setting 'tetragonal'
loop_
_space_group_symop_operation_xyz
x,y,z
1/2-y,x,1/2+z
1/2-x,1/2-y,z
y,1/2-x,1/2+z
x,1/2-y,-z
1/2-x,y,-z
y,x,1/2-z
1/2-y,1/2-x,1/2-z
-x,-y,-z
1/2+y,-x,1/2-z
1/2+x,1/2+y,-z
-y,1/2+x,1/2-z
-x,1/2+y,z
1/2+x,-y,z
-y,-x,1/2+z
1/2+y,1/2+x,1/2+z
loop_
_atom_site_type_symbol
_atom_site_label
_atom_site_fract_x
_atom_site_fract_y
_atom_site_fract_z
Si Si1 0.303358 0.834592 0.846139
Si Si2 0.555320 0.879220 0.201263
Si Si3 0.888105 0.507663 0.107699
Si Si4 0.996702 0.811536 0.193008
Si Si5 0.048057 0.081590 0.614243
Si Si6 0.355781 0.245417 0.440419
Si Si7 0.563170 0.351069 0.702990
O O1 0.250000 0.750000 0.869739
O O2 0.397396 0.803780 0.821186
O O3 0.235105 0.872029 0.803855
O O4 0.333174 0.914440 0.883840
O O5 0.614879 0.885122 0.250000
O O6 0.590943 0.952265 0.162503
O O7 0.554538 0.779908 0.179081
O O8 0.450500 0.898235 0.216084
O O9 0.827738 0.582233 0.080064
O O10 0.990130 0.488430 0.087634
O O11 0.994206 0.828877 0.252222
O O12 0.955744 0.888861 0.158788
O O13 0.100225 0.152145 0.579714
O O14 0.973285 0.134530 0.646720
O O15 0.250000 0.250000 0.424612
O O16 0.358239 0.250000 0.500000
#
# Coordination Sequence:
#
# PCOD9567839 Si02
#       7
#    16  16  16  16  16  16  16
#     4  11  21  34  57  87 119 161 212 253 297 360
#     4  11  21  34  51  82 126 164 198 251 297 357
#     4  10  22  41  62  89 122 160 206 254 313 378
#     4  11  21  33  53  86 122 161 210 243 295 362
#     4  10  22  39  63  86 119 162 199 258 310 369
#     4  11  24  44  69  94 121 159 208 265 325 388
#     4  11  19  34  53  82 120 160 202 243 296 358
#
# _framework density 19.147946000000001
#
# number of rings (size 3 to 8) (size 9 to 14) (size 15 to 20)
#    0.000    1.286    2.857    5.571    0.000    0.571 
#    0.000    0.000    0.000    0.429    0.000    0.000 
#    0.000    0.000    0.000    0.000    0.000    0.000 
#
# Total GULP energy -624891.950291 kJ/mol
# GULP energy per Si atom -5579.392413 kJ/mol
# Density = 1.910436 g / cm^3
# Si number density = 19.147946 Si / 1000 Ang^3
#
#
#
# Elastic Constant Matrix: (Units=GPa)
#
#
# Indices 1 2 3 4 5 6 
#
# 1 108.9918 48.6274 29.5120 0.0000 0.0000 0.0000
# 2 48.6274 108.9920 29.5124 0.0000 0.0000 0.0000
# 3 29.5120 29.5124 45.5896 0.0000 0.0000 0.0000
# 4 0.0000 0.0000 0.0000 20.2714 0.0000 0.0000
# 5 0.0000 0.0000 0.0000 0.0000 20.2713 0.0000
# 6 0.0000 0.0000 0.0000 0.0000 0.0000 36.8920
#
#
#
# Elastic Compliance Matrix: (Units=1/GPa)
#
#
# Indices 1 2 3 4 5 6 
#
# 1 0.012470 -0.004096 -0.005421 0.000000 0.000000 0.000000
# 2 -0.004096 0.012470 -0.005421 0.000000 0.000000 0.000000
# 3 -0.005421 -0.005421 0.028954 0.000000 0.000000 0.000000
# 4 0.000000 0.000000 0.000000 0.049331 0.000000 0.000000
# 5 0.000000 0.000000 0.000000 0.000000 0.049331 0.000000
# 6 0.000000 0.000000 0.000000 0.000000 0.000000 0.027106
#
#
# Mechanical properties :
#
#
# Convention : Reuss Voigt Hill
#
# Bulk Modulus (GPa) = 41.63572 53.20855 47.42214
# Shear Modulus (GPa) = 22.98384 25.88170 24.43277
#
# Velocity S-wave (km/s) = 3.46834 3.68049 3.57599
# Velocity P-wave (km/s) = 6.15066 6.77568 6.47072
#
# Compressibility (1/GPa) = 0.02401784
#
# Stress axis : x y z
#
# Youngs Moduli (GPa) = 80.19093 80.19058 34.53799
#
# Poissons Ratio (x) = 0.32844 0.18723
# Poissons Ratio (y) = 0.32844 0.18724
# Poissons Ratio (z) = 0.43472 0.43474
#
# Static dielectric constant tensor:
#      x y z
#    x 1.718850 0.000000 0.000000 
#    y 0.000000 1.718850 0.000000 
#    z 0.000000 0.000000 1.627620 
# 
# From -- ./inp_files/8083.got.cif
#   From: 2010.05.17/outbox.cif.g08.bks.cpg/sg133_5_cif.got.tgz:8083.got - 2010.05.20 12:37:36.
