data_PCOD9567592
_publ_section_title
;
Structure prediction by ZEFSAII (Michael W. Deem and Ramdas Pophale) SiO2 
 PCOD9567592
Probable space group: P 42/N B C
;
_chemical_formula_sum "Si O2"
_cell_formula_units_Z 96
_cell_length_a 22.399044
_cell_length_b 22.399044
_cell_length_c 8.995838
_cell_angle_alpha 90.000000
_cell_angle_beta 90.000000
_cell_angle_gamma 90.000000
_cell_volume 4513.366402
_symmetry_space_group_name_H-M "P 42/N B C"
_symmetry_group_IT_number 133
_space_group.IT_coordinate_system_code '2'
_symmetry_cell_setting 'tetragonal'
loop_
_space_group_symop_operation_xyz
x,y,z
1/2-y,x,1/2+z
1/2-x,1/2-y,z
y,1/2-x,1/2+z
x,1/2-y,-z
1/2-x,y,-z
y,x,1/2-z
1/2-y,1/2-x,1/2-z
-x,-y,-z
1/2+y,-x,1/2-z
1/2+x,1/2+y,-z
-y,1/2+x,1/2-z
-x,1/2+y,z
1/2+x,-y,z
-y,-x,1/2+z
1/2+y,1/2+x,1/2+z
loop_
_atom_site_type_symbol
_atom_site_label
_atom_site_fract_x
_atom_site_fract_y
_atom_site_fract_z
Si Si1 0.445745 0.577511 0.004893
Si Si2 0.443012 0.081169 0.416821
Si Si3 0.437560 0.848590 0.254234
Si Si4 0.574775 0.833623 0.326054
Si Si5 0.158959 0.254297 0.183601
Si Si6 0.268553 0.833221 0.831332
O O1 0.517698 0.579355 0.014437
O O2 0.409592 0.575956 0.156906
O O3 0.427330 0.514673 0.928292
O O4 0.423994 0.634731 0.914484
O O5 0.420093 0.079908 0.250000
O O6 0.425193 0.141151 0.505140
O O7 0.507005 0.836849 0.275035
O O8 0.398711 0.794795 0.314225
O O9 0.615743 0.884258 0.250000
O O10 0.600501 0.770657 0.267631
O O11 0.207118 0.207118 0.250000
O O12 0.183413 0.316588 0.250000
O O13 0.156612 0.250000 0.000000
O O14 0.319097 0.787312 0.774858
O O15 0.250000 0.821844 0.000000
#
# Coordination Sequence:
#
# PCOD9567592 Si02
#       6
#    16  16  16  16  16  16
#     4  10  19  30  58  95 138 189 223 263 332 426
#     4  10  18  32  56  96 144 192 221 259 345 427
#     4  11  21  38  64  99 138 177 230 282 342 424
#     4  10  21  38  64 101 145 177 221 288 344 416
#     4  10  21  43  73  98 123 177 240 291 345 407
#     4  11  24  45  70  92 120 174 231 295 353 409
#
# _framework density 21.270153000000001
#
# number of rings (size 3 to 8) (size 9 to 14) (size 15 to 20)
#    0.000    1.667    3.333    3.000    0.000    0.000 
#    0.000   14.167    0.000    0.000    0.000    1.167 
#    0.000    0.000    0.000    0.000    0.000    0.000 
#
# Total GULP energy -535279.429034 kJ/mol
# GULP energy per Si atom -5575.827386 kJ/mol
# Density = 2.122174 g / cm^3
# Si number density = 21.270153 Si / 1000 Ang^3
#
#
#
# Elastic Constant Matrix: (Units=GPa)
#
#
# Indices 1 2 3 4 5 6 
#
# 1 62.9680 62.2815 52.1008 0.0000 0.0000 0.0000
# 2 62.2815 62.9666 52.0998 0.0000 0.0000 0.0000
# 3 52.1008 52.0998 147.5612 0.0000 0.0000 0.0000
# 4 0.0000 0.0000 0.0000 20.2049 0.0000 0.0000
# 5 0.0000 0.0000 0.0000 0.0000 20.2048 0.0000
# 6 0.0000 0.0000 0.0000 0.0000 0.0000 28.1293
#
#
#
# Elastic Compliance Matrix: (Units=1/GPa)
#
#
# Indices 1 2 3 4 5 6 
#
# 1 0.734717 -0.723418 -0.003994 0.000000 0.000000 0.000000
# 2 -0.723418 0.734728 -0.003989 0.000000 0.000000 0.000000
# 3 -0.003994 -0.003989 0.009595 0.000000 0.000000 0.000000
# 4 0.000000 0.000000 0.000000 0.049493 0.000000 0.000000
# 5 0.000000 0.000000 0.000000 0.000000 0.049493 0.000000
# 6 0.000000 0.000000 0.000000 0.000000 0.000000 0.035550
#
#
# Mechanical properties :
#
#
# Convention : Reuss Voigt Hill
#
# Bulk Modulus (GPa) = 61.57941 67.38446 64.48194
# Shear Modulus (GPa) = 1.62243 20.84205 11.23224
#
# Velocity S-wave (km/s) = 0.87432 3.13369 2.30048
# Velocity P-wave (km/s) = 5.48025 6.69645 6.11864
#
# Compressibility (1/GPa) = 0.01623919
#
# Stress axis : x y z
#
# Youngs Moduli (GPa) = 1.36107 1.36105 104.21635
#
# Poissons Ratio (x) = 0.98461 0.41627
# Poissons Ratio (y) = 0.98462 0.41568
# Poissons Ratio (z) = 0.00544 0.00543
#
# Static dielectric constant tensor:
#      x y z
#    x 1.802600 0.000000 0.000000 
#    y 0.000000 1.802600 0.000000 
#    z 0.000000 0.000000 1.789240 
# 
# From -- ./inp_files/1915.got.cif
#   From: 2010.05.17/outbox.cif.g08.bks.cpg/sg133_1_cif.got.tgz:1915.got - 2010.05.20 12:37:36.
