data_PCOD9567329
_publ_section_title
;
Structure prediction by ZEFSAII (Michael W. Deem and Ramdas Pophale) SiO2 
 PCOD9567329
Probable space group: P 42/M C M
;
_chemical_formula_sum "Si O2"
_cell_formula_units_Z 80
_cell_length_a 11.875705
_cell_length_b 11.875705
_cell_length_c 29.531044
_cell_angle_alpha 90.000000
_cell_angle_beta 90.000000
_cell_angle_gamma 90.000000
_cell_volume 4164.833102
_symmetry_space_group_name_H-M "P 42/M C M"
_symmetry_group_IT_number 132
_symmetry_cell_setting 'tetragonal'
loop_
_space_group_symop_operation_xyz
x,y,z
-y,x,1/2+z
-x,-y,z
y,-x,1/2+z
x,-y,1/2-z
-x,y,1/2-z
y,x,-z
-y,-x,-z
-x,-y,-z
y,-x,1/2-z
x,y,-z
-y,x,1/2-z
-x,y,1/2+z
x,-y,1/2+z
-y,-x,z
y,x,z
loop_
_atom_site_type_symbol
_atom_site_label
_atom_site_fract_x
_atom_site_fract_y
_atom_site_fract_z
Si Si1 0.184730 0.469014 0.109000
Si Si2 0.094852 0.905149 0.946475
Si Si3 0.413749 0.768305 0.710037
Si Si4 0.955309 0.778998 0.799603
Si Si5 0.405525 0.405525 0.053941
Si Si6 0.034510 0.312995 0.389542
O O1 0.230129 0.467759 0.160411
O O2 0.287279 0.442816 0.075856
O O3 0.124212 0.588368 0.101709
O O4 0.088192 0.372237 0.105598
O O5 0.209910 0.945745 0.923014
O O6 0.111453 0.888548 0.000000
O O7 0.000000 0.000000 0.939877
O O8 0.500000 0.789533 0.750000
O O9 0.347446 0.652555 0.717496
O O10 0.321628 0.867265 0.708999
O O11 0.885056 0.885056 0.818355
O O12 0.000000 0.808365 0.750000
O O13 0.039865 0.734686 0.837958
O O14 0.500000 0.500000 0.063653
O O15 0.394640 0.394640 0.000000
#
# Coordination Sequence:
#
# PCOD9567329 Si02
#       6
#    16   8  16  16   8  16
#     4  10  22  44  68  95 126 170 215 265 325 383
#     4  11  26  44  66  96 129 167 213 267 327 384
#     4  10  20  36  58  87 126 166 211 254 310 378
#     4  10  21  36  58  89 126 168 212 255 310 378
#     4  11  26  44  68  96 127 167 211 269 327 386
#     4  10  23  42  69  94 128 169 214 269 321 380
#
# _framework density 19.208452999999999
#
# number of rings (size 3 to 8) (size 9 to 14) (size 15 to 20)
#    0.000    1.800    1.000    1.800    5.600    4.800 
#    0.000    2.000    0.000    0.000    0.000    0.000 
#    0.000    0.000    0.000    0.000    0.000    0.000 
#
# Total GULP energy -446953.338390 kJ/mol
# GULP energy per Si atom -5586.916730 kJ/mol
# Density = 1.916473 g / cm^3
# Si number density = 19.208453 Si / 1000 Ang^3
#
#
#
# Elastic Constant Matrix: (Units=GPa)
#
#
# Indices 1 2 3 4 5 6 
#
# 1 93.3405 53.6585 63.6928 0.0000 0.0000 0.0000
# 2 53.6585 93.3405 63.6928 0.0000 0.0000 0.0000
# 3 63.6928 63.6928 124.7779 0.0000 0.0000 0.0000
# 4 0.0000 0.0000 0.0000 29.5502 0.0000 0.0000
# 5 0.0000 0.0000 0.0000 0.0000 29.5505 0.0000
# 6 0.0000 0.0000 0.0000 0.0000 0.0000 9.9459
#
#
#
# Elastic Compliance Matrix: (Units=1/GPa)
#
#
# Indices 1 2 3 4 5 6 
#
# 1 0.018700 -0.006501 -0.006227 0.000000 0.000000 0.000000
# 2 -0.006501 0.018700 -0.006227 0.000000 0.000000 0.000000
# 3 -0.006227 -0.006227 0.014371 0.000000 0.000000 0.000000
# 4 0.000000 0.000000 0.000000 0.033841 0.000000 0.000000
# 5 0.000000 0.000000 0.000000 0.000000 0.033840 0.000000
# 6 0.000000 0.000000 0.000000 0.000000 0.000000 0.100544
#
#
# Mechanical properties :
#
#
# Convention : Reuss Voigt Hill
#
# Bulk Modulus (GPa) = 72.14291 74.83856 73.49073
# Shear Modulus (GPa) = 19.04582 22.50363 20.77473
#
# Velocity S-wave (km/s) = 3.15228 3.42650 3.29225
# Velocity P-wave (km/s) = 7.13362 7.39597 7.26598
#
# Compressibility (1/GPa) = 0.01386138
#
# Stress axis : x y z
#
# Youngs Moduli (GPa) = 53.47714 53.47718 69.58336
#
# Poissons Ratio (x) = 0.34764 0.43329
# Poissons Ratio (y) = 0.34764 0.43329
# Poissons Ratio (z) = 0.33300 0.33300
#
# Static dielectric constant tensor:
#      x y z
#    x 1.663620 0.000000 0.000000 
#    y 0.000000 1.663620 0.000000 
#    z 0.000000 0.000000 1.639740 
# 
# From -- ./inp_files/10678.got.cif
#   From: 2010.05.17/outbox.cif.g08.bks.cpg/sg132_6_cif.got.tgz:10678.got - 2010.05.20 12:30:18.
