data_PCOD9567393
_publ_section_title
;
Structure prediction by ZEFSAII (Michael W. Deem and Ramdas Pophale) SiO2 
 PCOD9567393
Probable space group: P 42/M C M
;
_chemical_formula_sum "Si O2"
_cell_formula_units_Z 96
_cell_length_a 17.439288
_cell_length_b 17.439288
_cell_length_c 16.338228
_cell_angle_alpha 90.000000
_cell_angle_beta 90.000000
_cell_angle_gamma 90.000000
_cell_volume 4968.925119
_symmetry_space_group_name_H-M "P 42/M C M"
_symmetry_group_IT_number 132
_symmetry_cell_setting 'tetragonal'
loop_
_space_group_symop_operation_xyz
x,y,z
-y,x,1/2+z
-x,-y,z
y,-x,1/2+z
x,-y,1/2-z
-x,y,1/2-z
y,x,-z
-y,-x,-z
-x,-y,-z
y,-x,1/2-z
x,y,-z
-y,x,1/2-z
-x,y,1/2+z
x,-y,1/2+z
-y,-x,z
y,x,z
loop_
_atom_site_type_symbol
_atom_site_label
_atom_site_fract_x
_atom_site_fract_y
_atom_site_fract_z
Si Si1 0.313426 0.010224 0.592694
Si Si2 0.786003 0.553087 0.905938
Si Si3 0.838435 0.287636 0.344372
Si Si4 0.079862 0.202924 0.701428
Si Si5 0.537306 0.073944 0.159295
Si Si6 0.375704 0.503047 0.848421
O O1 0.339031 0.021356 0.500000
O O2 0.237072 0.056869 0.614205
O O3 0.374841 0.048314 0.654836
O O4 0.298972 0.919799 0.608681
O O5 0.798902 0.628989 0.850417
O O6 0.849840 0.489592 0.885164
O O7 0.703790 0.515956 0.890291
O O8 0.793621 0.577913 0.000000
O O9 0.778299 0.221702 0.374396
O O10 0.865398 0.259163 0.254894
O O11 0.123212 0.123212 0.696483
O O12 0.000000 0.197276 0.750000
O O13 0.500000 0.079225 0.250000
O O14 0.500000 0.000000 0.116707
O O15 0.365369 0.500000 0.750000
O O16 0.416463 0.583538 0.869093
O O17 0.436877 0.436877 0.869466
#
# Coordination Sequence:
#
# PCOD9567393 Si02
#       6
#    16  16  16  16  16  16
#     4  11  22  37  59  86 121 153 188 242 301 354
#     4  12  23  35  57  87 118 147 187 240 292 349
#     4  10  21  37  57  82 114 151 190 236 289 346
#     4   9  20  38  60  84 114 153 198 239 283 346
#     4  11  23  38  60  84 114 158 196 235 281 352
#     4   9  20  40  61  80 109 152 199 244 289 340
#
# _framework density 19.320074999999999
#
# number of rings (size 3 to 8) (size 9 to 14) (size 15 to 20)
#    0.000    1.667    1.667    3.500    4.667    3.833 
#    0.000    3.333    0.000    2.000    0.000    4.667 
#    0.000    0.000    0.000    0.000    0.000    0.000 
#
# Total GULP energy -535259.081765 kJ/mol
# GULP energy per Si atom -5575.615435 kJ/mol
# Density = 1.927610 g / cm^3
# Si number density = 19.320075 Si / 1000 Ang^3
#
#
#
# Elastic Constant Matrix: (Units=GPa)
#
#
# Indices 1 2 3 4 5 6 
#
# 1 111.9125 52.8744 25.0818 0.0000 0.0000 0.0000
# 2 52.8744 111.9125 25.0818 0.0000 0.0000 0.0000
# 3 25.0818 25.0818 45.3439 0.0000 0.0000 0.0000
# 4 0.0000 0.0000 0.0000 -3.0727 0.0000 0.0000
# 5 0.0000 0.0000 0.0000 0.0000 -3.0727 0.0000
# 6 0.0000 0.0000 0.0000 0.0000 0.0000 12.1991
#
#
#
# Elastic Compliance Matrix: (Units=1/GPa)
#
#
# Indices 1 2 3 4 5 6 
#
# 1 0.012118 -0.004821 -0.004036 0.000000 0.000000 0.000000
# 2 -0.004821 0.012118 -0.004036 0.000000 0.000000 0.000000
# 3 -0.004036 -0.004036 0.026519 0.000000 0.000000 0.000000
# 4 0.000000 0.000000 0.000000 -0.325444 0.000000 0.000000
# 5 0.000000 0.000000 0.000000 0.000000 -0.325444 0.000000
# 6 0.000000 0.000000 0.000000 0.000000 0.000000 0.081973
#
#
# Mechanical properties :
#
#
# Convention : Reuss Voigt Hill
#
# Bulk Modulus (GPa) = 40.05147 52.80496 46.42821
# Shear Modulus (GPa) = -10.32949 12.28612 0.97831
#
# Velocity S-wave (km/s) = -2.31476 2.52449 0.71237
# Velocity P-wave (km/s) = 3.69207 5.99069 4.97593
#
# Compressibility (1/GPa) = 0.02496787
#
# Stress axis : x y z
#
# Youngs Moduli (GPa) = 82.52391 82.52391 37.70862
#
# Poissons Ratio (x) = 0.39781 0.15221
# Poissons Ratio (y) = 0.39781 0.15221
# Poissons Ratio (z) = 0.33310 0.33310
#
# Static dielectric constant tensor:
#      x y z
#    x 1.671380 0.000000 0.000000 
#    y 0.000000 1.671380 0.000000 
#    z 0.000000 0.000000 1.713490 
# 
# From -- ./inp_files/6462.got.cif
#   From: 2010.05.17/outbox.cif.g08.bks.cpg/sg132_4_cif.got.tgz:6462.got - 2010.05.20 12:30:18.
