data_PCOD9567376
_publ_section_title
;
Structure prediction by ZEFSAII (Michael W. Deem and Ramdas Pophale) SiO2 
 PCOD9567376
Probable space group: P 42/M C M
;
_chemical_formula_sum "Si O2"
_cell_formula_units_Z 96
_cell_length_a 17.432729
_cell_length_b 17.432729
_cell_length_c 16.974952
_cell_angle_alpha 90.000000
_cell_angle_beta 90.000000
_cell_angle_gamma 90.000000
_cell_volume 5158.688598
_symmetry_space_group_name_H-M "P 42/M C M"
_symmetry_group_IT_number 132
_symmetry_cell_setting 'tetragonal'
loop_
_space_group_symop_operation_xyz
x,y,z
-y,x,1/2+z
-x,-y,z
y,-x,1/2+z
x,-y,1/2-z
-x,y,1/2-z
y,x,-z
-y,-x,-z
-x,-y,-z
y,-x,1/2-z
x,y,-z
-y,x,1/2-z
-x,y,1/2+z
x,-y,1/2+z
-y,-x,z
y,x,z
loop_
_atom_site_type_symbol
_atom_site_label
_atom_site_fract_x
_atom_site_fract_y
_atom_site_fract_z
Si Si1 0.128544 0.592523 0.590865
Si Si2 0.124349 0.000297 0.653937
Si Si3 0.404986 0.718462 0.166885
Si Si4 0.419337 0.115376 0.594548
Si Si5 0.700189 0.009810 0.343521
Si Si6 0.298474 0.423125 0.145160
O O1 0.105592 0.600183 0.500000
O O2 0.100325 0.508197 0.618949
O O3 0.220057 0.592808 0.599220
O O4 0.091320 0.662115 0.637481
O O5 0.073693 0.926308 0.629909
O O6 0.125496 0.000000 0.750000
O O7 0.212347 0.998392 0.626824
O O8 0.075573 0.075573 0.630137
O O9 0.335448 0.664553 0.142349
O O10 0.397784 0.803782 0.133738
O O11 0.408803 0.719217 0.262055
O O12 0.486524 0.685023 0.137926
O O13 0.420039 0.122527 0.500000
O O14 0.358712 0.051602 0.619991
O O15 0.701707 0.000000 0.250000
O O16 0.367766 0.367766 0.121992
#
# Coordination Sequence:
#
# PCOD9567376 Si02
#       6
#    16  16  16  16  16  16
#     4  10  21  36  52  72 103 141 176 211 255 307
#     4   8  16  33  54  75 101 130 159 196 244 297
#     4   9  18  33  53  77 105 137 174 217 263 309
#     4  10  21  36  52  72 103 141 176 211 255 307
#     4  11  21  32  54  84 105 128 168 213 257 307
#     4   9  18  33  53  77 105 137 174 217 263 309
#
# _framework density 18.609380999999999
#
# number of rings (size 3 to 8) (size 9 to 14) (size 15 to 20)
#    0.000    2.500    0.000    2.500    0.000    6.333 
#    0.000    5.000    0.000    3.000    0.000    9.333 
#    0.000    0.000    0.000    0.000    0.000    0.000 
#
# Total GULP energy -535560.094406 kJ/mol
# GULP energy per Si atom -5578.750983 kJ/mol
# Density = 1.856703 g / cm^3
# Si number density = 18.609381 Si / 1000 Ang^3
#
#
#
# Elastic Constant Matrix: (Units=GPa)
#
#
# Indices 1 2 3 4 5 6 
#
# 1 75.2224 32.0759 8.4875 0.0000 0.0000 0.0000
# 2 32.0759 75.2224 8.4875 0.0000 0.0000 0.0000
# 3 8.4875 8.4875 15.9944 0.0000 0.0000 0.0000
# 4 0.0000 0.0000 0.0000 8.5483 0.0000 0.0000
# 5 0.0000 0.0000 0.0000 0.0000 8.5483 0.0000
# 6 0.0000 0.0000 0.0000 0.0000 0.0000 21.4054
#
#
#
# Elastic Compliance Matrix: (Units=1/GPa)
#
#
# Indices 1 2 3 4 5 6 
#
# 1 0.016675 -0.006501 -0.005399 0.000000 0.000000 0.000000
# 2 -0.006501 0.016675 -0.005399 0.000000 0.000000 0.000000
# 3 -0.005399 -0.005399 0.068252 0.000000 0.000000 0.000000
# 4 0.000000 0.000000 0.000000 0.116982 0.000000 0.000000
# 5 0.000000 0.000000 0.000000 0.000000 0.116982 0.000000
# 6 0.000000 0.000000 0.000000 0.000000 0.000000 0.046717
#
#
# Mechanical properties :
#
#
# Convention : Reuss Voigt Hill
#
# Bulk Modulus (GPa) = 14.92439 29.39343 22.15891
# Shear Modulus (GPa) = 11.38387 15.52628 13.45507
#
# Velocity S-wave (km/s) = 2.47600 2.89160 2.69183
# Velocity P-wave (km/s) = 4.02633 5.19401 4.64699
#
# Compressibility (1/GPa) = 0.06700439
#
# Stress axis : x y z
#
# Youngs Moduli (GPa) = 59.96859 59.96859 14.65160
#
# Poissons Ratio (x) = 0.38988 0.07910
# Poissons Ratio (y) = 0.38988 0.07910
# Poissons Ratio (z) = 0.32376 0.32376
#
# Static dielectric constant tensor:
#      x y z
#    x 1.632310 0.000000 0.000000 
#    y 0.000000 1.632310 0.000000 
#    z 0.000000 0.000000 1.650280 
# 
# From -- ./inp_files/6441.got.cif
#   From: 2010.05.17/outbox.cif.g08.bks.cpg/sg132_4_cif.got.tgz:6441.got - 2010.05.20 12:30:18.
