data_PCOD9567657
_publ_section_title
;
Structure prediction by ZEFSAII (Michael W. Deem and Ramdas Pophale) SiO2 
 PCOD9567657
Probable space group: P 42/N B C
;
_chemical_formula_sum "Si O2"
_cell_formula_units_Z 72
_cell_length_a 14.072760
_cell_length_b 14.072760
_cell_length_c 16.563937
_cell_angle_alpha 90.000000
_cell_angle_beta 90.000000
_cell_angle_gamma 90.000000
_cell_volume 3280.364719
_symmetry_space_group_name_H-M "P 42/N B C"
_symmetry_group_IT_number 133
_space_group.IT_coordinate_system_code '2'
_symmetry_cell_setting 'tetragonal'
loop_
_space_group_symop_operation_xyz
x,y,z
1/2-y,x,1/2+z
1/2-x,1/2-y,z
y,1/2-x,1/2+z
x,1/2-y,-z
1/2-x,y,-z
y,x,1/2-z
1/2-y,1/2-x,1/2-z
-x,-y,-z
1/2+y,-x,1/2-z
1/2+x,1/2+y,-z
-y,1/2+x,1/2-z
-x,1/2+y,z
1/2+x,-y,z
-y,-x,1/2+z
1/2+y,1/2+x,1/2+z
loop_
_atom_site_type_symbol
_atom_site_label
_atom_site_fract_x
_atom_site_fract_y
_atom_site_fract_z
Si Si1 0.571281 0.973095 0.887259
Si Si2 0.250000 0.563832 0.500000
Si Si3 0.163413 0.466989 0.653277
Si Si4 0.266620 0.443456 0.171237
Si Si5 0.438258 0.627655 0.553527
O O1 0.541190 0.074216 0.847256
O O2 0.656998 0.917554 0.844624
O O3 0.467169 0.928065 0.891884
O O4 0.602897 0.988952 0.980936
O O5 0.221567 0.495718 0.574394
O O6 0.337233 0.633142 0.514434
O O7 0.126056 0.356628 0.651471
O O8 0.218635 0.474696 0.737076
O O9 0.286594 0.528117 0.108017
#
# Coordination Sequence:
#
# PCOD9567657 Si02
#       5
#    16   8  16  16  16
#     4   9  18  36  58  81 109 149 198 240 292 354
#     4  10  20  38  54  80 126 148 186 246 294 356
#     4   9  21  36  56  88 116 154 197 240 304 358
#     4  10  19  36  61  84 112 151 203 245 288 360
#     4   9  19  34  57  81 108 152 192 238 298 346
#
# _framework density 21.948779999999999
#
# number of rings (size 3 to 8) (size 9 to 14) (size 15 to 20)
#    0.000    2.667    0.000    2.000    3.111    0.000 
#    0.000   11.111    0.000    2.667    0.000    0.000 
#    0.000    0.000    0.000    0.000    0.000    0.000 
#
# Total GULP energy -401366.736283 kJ/mol
# GULP energy per Si atom -5574.538004 kJ/mol
# Density = 2.189882 g / cm^3
# Si number density = 21.948780 Si / 1000 Ang^3
#
#
#
# Elastic Constant Matrix: (Units=GPa)
#
#
# Indices 1 2 3 4 5 6 
#
# 1 65.0714 -16.3283 10.4806 0.0000 0.0000 0.0000
# 2 -16.3283 65.0714 10.4806 0.0000 0.0000 0.0000
# 3 10.4806 10.4806 91.7068 0.0000 0.0000 0.0000
# 4 0.0000 0.0000 0.0000 26.7212 0.0000 0.0000
# 5 0.0000 0.0000 0.0000 0.0000 26.7212 0.0000
# 6 0.0000 0.0000 0.0000 0.0000 0.0000 2.8603
#
#
#
# Elastic Compliance Matrix: (Units=1/GPa)
#
#
# Indices 1 2 3 4 5 6 
#
# 1 0.016931 0.004646 -0.002466 0.000000 0.000000 0.000000
# 2 0.004646 0.016931 -0.002466 0.000000 0.000000 0.000000
# 3 -0.002466 -0.002466 0.011468 0.000000 0.000000 0.000000
# 4 0.000000 0.000000 0.000000 0.037423 0.000000 0.000000
# 5 0.000000 0.000000 0.000000 0.000000 0.037423 0.000000
# 6 0.000000 0.000000 0.000000 0.000000 0.000000 0.349614
#
#
# Mechanical properties :
#
#
# Convention : Reuss Voigt Hill
#
# Bulk Modulus (GPa) = 22.34289 25.67947 24.01118
# Shear Modulus (GPa) = 10.30331 25.74167 18.02249
#
# Velocity S-wave (km/s) = 2.16897 3.42834 2.86862
# Velocity P-wave (km/s) = 4.05885 5.23417 4.68352
#
# Compressibility (1/GPa) = 0.04475696
#
# Stress axis : x y z
#
# Youngs Moduli (GPa) = 59.06474 59.06474 87.19986
#
# Poissons Ratio (x) = -0.27439 0.21502
# Poissons Ratio (y) = -0.27439 0.21502
# Poissons Ratio (z) = 0.14564 0.14564
#
# Static dielectric constant tensor:
#      x y z
#    x 1.851700 0.000000 0.000000 
#    y 0.000000 1.851700 0.000000 
#    z 0.000000 0.000000 1.818570 
# 
# From -- ./inp_files/5317.got.cif
#   From: 2010.05.17/outbox.cif.g08.bks.cpg/sg133_3_cif.got.tgz:5317.got - 2010.05.20 12:37:36.
