data_PCOD9567122
_publ_section_title
;
Structure prediction by ZEFSAII (Michael W. Deem and Ramdas Pophale) SiO2 
 PCOD9567122
Probable space group: P 42/M C M
;
_chemical_formula_sum "Si O2"
_cell_formula_units_Z 96
_cell_length_a 25.000599
_cell_length_b 25.000599
_cell_length_c 9.098113
_cell_angle_alpha 90.000000
_cell_angle_beta 90.000000
_cell_angle_gamma 90.000000
_cell_volume 5686.593117
_symmetry_space_group_name_H-M "P 42/M C M"
_symmetry_group_IT_number 132
_symmetry_cell_setting 'tetragonal'
loop_
_space_group_symop_operation_xyz
x,y,z
-y,x,1/2+z
-x,-y,z
y,-x,1/2+z
x,-y,1/2-z
-x,y,1/2-z
y,x,-z
-y,-x,-z
-x,-y,-z
y,-x,1/2-z
x,y,-z
-y,x,1/2-z
-x,y,1/2+z
x,-y,1/2+z
-y,-x,z
y,x,z
loop_
_atom_site_type_symbol
_atom_site_label
_atom_site_fract_x
_atom_site_fract_y
_atom_site_fract_z
Si Si1 0.054031 0.676905 0.167341
Si Si2 0.556398 0.642966 0.824433
Si Si3 0.805801 0.052101 0.833679
Si Si4 0.753993 0.246008 0.670213
Si Si5 0.768411 0.442552 0.323007
Si Si6 0.177588 0.659239 0.178655
Si Si7 0.155503 0.155503 0.833882
O O1 0.050263 0.741324 0.163940
O O2 0.114662 0.665893 0.222888
O O3 0.000000 0.657957 0.250000
O O4 0.051612 0.656753 0.000000
O O5 0.500000 0.629541 0.750000
O O6 0.603635 0.603635 0.775083
O O7 0.568585 0.705267 0.795190
O O8 0.550615 0.637593 0.000000
O O9 0.822347 0.104601 0.749217
O O10 0.825644 0.000000 0.750000
O O11 0.825180 0.053354 0.000000
O O12 0.739542 0.260459 0.500000
O O13 0.704473 0.217204 0.753083
O O14 0.799329 0.200672 0.664388
O O15 0.780078 0.500000 0.250000
O O16 0.776670 0.443366 0.500000
O O17 0.802093 0.396737 0.243522
O O18 0.180119 0.661827 0.000000
O O19 0.141462 0.141462 0.000000
#
# Coordination Sequence:
#
# PCOD9567122 Si02
#       7
#    16  16  16   8  16  16   8
#     4   9  19  33  52  77 109 143 178 218 266 324
#     4   9  19  35  53  75 105 138 177 224 268 317
#     4  10  19  33  51  73 103 141 181 223 270 323
#     4  11  23  35  51  81 116 150 184 222 271 329
#     4  10  21  38  59  81 108 146 187 228 273 327
#     4  11  22  37  56  83 115 147 182 227 278 329
#     4  11  21  33  51  76 108 143 181 224 270 327
#
# _framework density 16.881812
#
# number of rings (size 3 to 8) (size 9 to 14) (size 15 to 20)
#    0.000    2.000    1.667    2.000    1.167    3.833 
#    0.000    0.833    0.000    0.750    0.000    5.250 
#    0.000    0.000    0.000    0.000    0.000    0.000 
#
# Total GULP energy -535148.103566 kJ/mol
# GULP energy per Si atom -5574.459412 kJ/mol
# Density = 1.684339 g / cm^3
# Si number density = 16.881812 Si / 1000 Ang^3
#
#
#
# Elastic Constant Matrix: (Units=GPa)
#
#
# Indices 1 2 3 4 5 6 
#
# 1 93.7064 48.7662 49.6794 0.0000 0.0000 0.0000
# 2 48.7662 93.7063 49.6793 0.0000 0.0000 0.0000
# 3 49.6794 49.6793 99.7339 0.0000 0.0000 0.0000
# 4 0.0000 0.0000 0.0000 18.4783 0.0000 0.0000
# 5 0.0000 0.0000 0.0000 0.0000 18.4792 0.0000
# 6 0.0000 0.0000 0.0000 0.0000 0.0000 22.4944
#
#
#
# Elastic Compliance Matrix: (Units=1/GPa)
#
#
# Indices 1 2 3 4 5 6 
#
# 1 0.016503 -0.005748 -0.005357 0.000000 0.000000 0.000000
# 2 -0.005748 0.016503 -0.005357 0.000000 0.000000 0.000000
# 3 -0.005357 -0.005357 0.015364 0.000000 0.000000 0.000000
# 4 0.000000 0.000000 0.000000 0.054118 0.000000 0.000000
# 5 0.000000 0.000000 0.000000 0.000000 0.054115 0.000000
# 6 0.000000 0.000000 0.000000 0.000000 0.000000 0.044456
#
#
# Mechanical properties :
#
#
# Convention : Reuss Voigt Hill
#
# Bulk Modulus (GPa) = 64.74708 64.82182 64.78445
# Shear Modulus (GPa) = 20.90889 21.15849 21.03369
#
# Velocity S-wave (km/s) = 3.52312 3.54408 3.53361
# Velocity P-wave (km/s) = 7.41527 7.43156 7.42342
#
# Compressibility (1/GPa) = 0.01544471
#
# Stress axis : x y z
#
# Youngs Moduli (GPa) = 60.59354 60.59351 65.08818
#
# Poissons Ratio (x) = 0.34832 0.34869
# Poissons Ratio (y) = 0.34832 0.34869
# Poissons Ratio (z) = 0.32462 0.32461
#
# Static dielectric constant tensor:
#      x y z
#    x 1.552450 0.000000 0.000000 
#    y 0.000000 1.552440 0.000000 
#    z 0.000000 0.000000 1.583450 
# 
# From -- ./inp_files/1846.got.cif
#   From: 2010.05.17/outbox.cif.g08.bks.cpg/sg132_1_cif.got.tgz:1846.got - 2010.05.20 12:30:18.
