data_PCOD9567225
_publ_section_title
;
Structure prediction by ZEFSAII (Michael W. Deem and Ramdas Pophale) SiO2 
 PCOD9567225
Probable space group: P 42/M C M
;
_chemical_formula_sum "Si O2"
_cell_formula_units_Z 104
_cell_length_a 14.575314
_cell_length_b 14.575314
_cell_length_c 25.352432
_cell_angle_alpha 90.000000
_cell_angle_beta 90.000000
_cell_angle_gamma 90.000000
_cell_volume 5385.865031
_symmetry_space_group_name_H-M "P 42/M C M"
_symmetry_group_IT_number 132
_symmetry_cell_setting 'tetragonal'
loop_
_space_group_symop_operation_xyz
x,y,z
-y,x,1/2+z
-x,-y,z
y,-x,1/2+z
x,-y,1/2-z
-x,y,1/2-z
y,x,-z
-y,-x,-z
-x,-y,-z
y,-x,1/2-z
x,y,-z
-y,x,1/2-z
-x,y,1/2+z
x,-y,1/2+z
-y,-x,z
y,x,z
loop_
_atom_site_type_symbol
_atom_site_label
_atom_site_fract_x
_atom_site_fract_y
_atom_site_fract_z
Si Si1 0.247311 0.902955 0.399691
Si Si2 0.000000 0.500000 0.641834
Si Si3 0.395196 0.246922 0.936848
Si Si4 0.397455 0.747436 0.103789
Si Si5 0.397952 0.747314 0.771565
Si Si6 0.339663 0.081090 0.791643
Si Si7 0.070493 0.652584 0.939465
O O1 0.155231 0.844770 0.410741
O O2 0.332595 0.838351 0.418291
O O3 0.264170 0.917103 0.337513
O O4 0.263825 0.001086 0.427249
O O5 0.936319 0.438185 0.679593
O O6 0.954717 0.573142 0.602524
O O7 0.337789 0.337789 0.921449
O O8 0.497187 0.246959 0.914226
O O9 0.400656 0.242989 0.000000
O O10 0.351819 0.648182 0.095070
O O11 0.393831 0.767542 0.166207
O O12 0.337014 0.822257 0.072509
O O13 0.500000 0.746540 0.750000
O O14 0.349354 0.650647 0.762564
O O15 0.343904 0.824701 0.739654
O O16 0.326057 0.000000 0.750000
O O17 0.056981 0.623782 0.000000
#
# Coordination Sequence:
#
# PCOD9567225 Si02
#       7
#    16   8  16  16  16  16  16
#     4  10  21  37  58  85 113 139 174 226 285 340
#     4  10  20  32  52  82 114 138 170 220 278 334
#     4  10  21  37  57  81 111 147 186 228 276 332
#     4  11  24  38  53  78 112 149 192 236 272 318
#     4  11  22  36  53  74 104 143 184 224 266 313
#     4  11  20  33  54  79 108 141 175 216 269 332
#     4  11  21  34  55  80 109 144 182 228 282 336
#
# _framework density 19.309805000000001
#
# number of rings (size 3 to 8) (size 9 to 14) (size 15 to 20)
#    0.000    1.385    0.000    8.308    0.000    4.462 
#    0.000    2.308    0.000    0.462    0.000    1.077 
#    0.000    4.000    0.000    0.000    0.000    0.000 
#
# Total GULP energy -580963.103221 kJ/mol
# GULP energy per Si atom -5586.183685 kJ/mol
# Density = 1.926585 g / cm^3
# Si number density = 19.309805 Si / 1000 Ang^3
#
#
#
# Elastic Constant Matrix: (Units=GPa)
#
#
# Indices 1 2 3 4 5 6 
#
# 1 59.0286 25.5157 22.3983 0.0000 0.0000 0.0000
# 2 25.5157 59.0286 22.3983 0.0000 0.0000 0.0000
# 3 22.3983 22.3983 86.9724 0.0000 0.0000 0.0000
# 4 0.0000 0.0000 0.0000 17.2468 0.0000 0.0000
# 5 0.0000 0.0000 0.0000 0.0000 17.2468 0.0000
# 6 0.0000 0.0000 0.0000 0.0000 0.0000 19.5766
#
#
#
# Elastic Compliance Matrix: (Units=1/GPa)
#
#
# Indices 1 2 3 4 5 6 
#
# 1 0.021768 -0.008071 -0.003527 0.000000 0.000000 0.000000
# 2 -0.008071 0.021768 -0.003527 0.000000 0.000000 0.000000
# 3 -0.003527 -0.003527 0.013315 0.000000 0.000000 0.000000
# 4 0.000000 0.000000 0.000000 0.057982 0.000000 0.000000
# 5 0.000000 0.000000 0.000000 0.000000 0.057982 0.000000
# 6 0.000000 0.000000 0.000000 0.000000 0.000000 0.051081
#
#
# Mechanical properties :
#
#
# Convention : Reuss Voigt Hill
#
# Bulk Modulus (GPa) = 37.59510 38.40605 38.00057
# Shear Modulus (GPa) = 19.01033 19.79517 19.40275
#
# Velocity S-wave (km/s) = 3.14106 3.20525 3.17332
# Velocity P-wave (km/s) = 5.71548 5.79920 5.75749
#
# Compressibility (1/GPa) = 0.02659921
#
# Stress axis : x y z
#
# Youngs Moduli (GPa) = 45.93851 45.93851 75.10442
#
# Poissons Ratio (x) = 0.37077 0.26493
# Poissons Ratio (y) = 0.37077 0.26493
# Poissons Ratio (z) = 0.16205 0.16205
#
# Static dielectric constant tensor:
#      x y z
#    x 1.689870 0.000000 0.000000 
#    y 0.000000 1.689870 0.000000 
#    z 0.000000 0.000000 1.673620 
# 
# From -- ./inp_files/9140.got.cif
#   From: 2010.05.17/outbox.cif.g08.bks.cpg/sg132_5_cif.got.tgz:9140.got - 2010.05.20 12:30:18.
