data_PCOD9567196
_publ_section_title
;
Structure prediction by ZEFSAII (Michael W. Deem and Ramdas Pophale) SiO2 
 PCOD9567196
Probable space group: P 42/M C M
;
_chemical_formula_sum "Si O2"
_cell_formula_units_Z 48
_cell_length_a 14.681112
_cell_length_b 14.681112
_cell_length_c 10.126702
_cell_angle_alpha 90.000000
_cell_angle_beta 90.000000
_cell_angle_gamma 90.000000
_cell_volume 2182.659217
_symmetry_space_group_name_H-M "P 42/M C M"
_symmetry_group_IT_number 132
_symmetry_cell_setting 'tetragonal'
loop_
_space_group_symop_operation_xyz
x,y,z
-y,x,1/2+z
-x,-y,z
y,-x,1/2+z
x,-y,1/2-z
-x,y,1/2-z
y,x,-z
-y,-x,-z
-x,-y,-z
y,-x,1/2-z
x,y,-z
-y,x,1/2-z
-x,y,1/2+z
x,-y,1/2+z
-y,-x,z
y,x,z
loop_
_atom_site_type_symbol
_atom_site_label
_atom_site_fract_x
_atom_site_fract_y
_atom_site_fract_z
Si Si1 0.639797 0.360204 0.345522
Si Si2 0.040357 0.753519 0.500000
Si Si3 0.500000 0.500000 0.750000
Si Si4 0.097709 0.542472 0.500000
Si Si5 0.000000 0.000000 0.750000
Si Si6 0.216686 0.500000 0.750000
Si Si7 0.169692 0.830309 0.000000
Si Si8 0.142258 0.857743 0.267389
O O1 0.662525 0.337476 0.500000
O O2 0.562241 0.437760 0.342268
O O3 0.590239 0.278956 0.267633
O O4 0.075701 0.650086 0.500000
O O5 0.084043 0.796888 0.367492
O O6 0.933812 0.782783 0.500000
O O7 0.153472 0.506019 0.623840
O O8 0.000000 0.500000 0.500000
O O9 0.072134 0.927867 0.809743
O O10 0.194587 0.805414 0.151831
#
# Coordination Sequence:
#
# PCOD9567196 Si02
#       8
#     8   8   2   8   2   8   4   8
#     4  10  19  40  76 114 159 176 240 316 392 468
#     4  11  24  44  64 101 146 194 239 319 391 436
#     4   8  18  28  64 118 152 186 212 278 420 466
#     4  12  29  52  73  97 153 213 268 310 380 465
#     4  12  16  38  64 106 148 190 244 310 392 442
#     4  11  25  47  81 116 150 204 247 317 397 477
#     4  12  20  37  64 104 134 184 250 317 366 454
#     4  11  22  34  68 101 145 185 242 317 381 444
#
# _framework density 21.991523000000001
#
# number of rings (size 3 to 8) (size 9 to 14) (size 15 to 20)
#    0.000    1.000    5.000    0.750    0.000   10.333 
#    0.000    1.667    0.000    0.000    0.000    0.000 
#    0.000    0.000    0.000    0.000    0.000    0.000 
#
# Total GULP energy -267206.860699 kJ/mol
# GULP energy per Si atom -5566.809598 kJ/mol
# Density = 2.194147 g / cm^3
# Si number density = 21.991523 Si / 1000 Ang^3
#
#
#
# Elastic Constant Matrix: (Units=GPa)
#
#
# Indices 1 2 3 4 5 6 
#
# 1 111.8673 77.1917 73.9608 0.0000 0.0000 0.0000
# 2 77.1917 111.8683 73.9609 0.0000 0.0000 0.0000
# 3 73.9608 73.9609 178.9302 0.0000 0.0000 0.0000
# 4 0.0000 0.0000 0.0000 -49.3361 0.0000 0.0000
# 5 0.0000 0.0000 0.0000 0.0000 -49.3340 0.0000
# 6 0.0000 0.0000 0.0000 0.0000 0.0000 36.0061
#
#
#
# Elastic Compliance Matrix: (Units=1/GPa)
#
#
# Indices 1 2 3 4 5 6 
#
# 1 0.018328 -0.010510 -0.003231 0.000000 0.000000 0.000000
# 2 -0.010510 0.018328 -0.003231 0.000000 0.000000 0.000000
# 3 -0.003231 -0.003231 0.008260 0.000000 0.000000 0.000000
# 4 0.000000 0.000000 0.000000 -0.020269 0.000000 0.000000
# 5 0.000000 0.000000 0.000000 0.000000 -0.020270 0.000000
# 6 0.000000 0.000000 0.000000 0.000000 0.000000 0.027773
#
#
# Mechanical properties :
#
#
# Convention : Reuss Voigt Hill
#
# Bulk Modulus (GPa) = 91.15963 94.76585 92.96274
# Shear Modulus (GPa) = 71.68145 -0.69598 35.49274
#
# Velocity S-wave (km/s) = 5.71540 -0.56317 4.02173
# Velocity P-wave (km/s) = 9.22478 6.53932 7.99560
#
# Compressibility (1/GPa) = 0.01096977
#
# Stress axis : x y z
#
# Youngs Moduli (GPa) = 54.56105 54.56171 121.06268
#
# Poissons Ratio (x) = 0.57346 0.39121
# Poissons Ratio (y) = 0.57346 0.39120
# Poissons Ratio (z) = 0.17631 0.17631
#
# Static dielectric constant tensor:
#      x y z
#    x 1.852120 0.000000 0.000000 
#    y 0.000000 1.852120 0.000000 
#    z 0.000000 0.000000 1.777470 
# 
# From -- ./inp_files/2864.got.cif
#   From: 2010.05.17/outbox.cif.g08.bks.cpg/sg132_2_cif.got.tgz:2864.got - 2010.05.20 12:30:18.
