data_PCOD9567064
_publ_section_title
;
Structure prediction by ZEFSAII (Michael W. Deem and Ramdas Pophale) SiO2 
 PCOD9567064
Probable space group: P 42/M C M
;
_chemical_formula_sum "Si O2"
_cell_formula_units_Z 104
_cell_length_a 17.203685
_cell_length_b 17.203685
_cell_length_c 20.069884
_cell_angle_alpha 90.000000
_cell_angle_beta 90.000000
_cell_angle_gamma 90.000000
_cell_volume 5940.018894
_symmetry_space_group_name_H-M "P 42/M C M"
_symmetry_group_IT_number 132
_symmetry_cell_setting 'tetragonal'
loop_
_space_group_symop_operation_xyz
x,y,z
-y,x,1/2+z
-x,-y,z
y,-x,1/2+z
x,-y,1/2-z
-x,y,1/2-z
y,x,-z
-y,-x,-z
-x,-y,-z
y,-x,1/2-z
x,y,-z
-y,x,1/2-z
-x,y,1/2+z
x,-y,1/2+z
-y,-x,z
y,x,z
loop_
_atom_site_type_symbol
_atom_site_label
_atom_site_fract_x
_atom_site_fract_y
_atom_site_fract_z
Si Si1 0.372265 0.083596 0.575940
Si Si2 0.103369 0.233014 0.171754
Si Si3 0.126967 0.000000 0.250000
Si Si4 0.090486 0.372527 0.079265
Si Si5 0.171677 0.698239 0.803277
Si Si6 0.302549 0.433748 0.306159
Si Si7 0.493247 0.213391 0.923656
O O1 0.339661 0.079667 0.500000
O O2 0.316547 0.116476 0.633395
O O3 0.441434 0.145999 0.573588
O O4 0.401995 0.997035 0.593630
O O5 0.175771 0.175771 0.162057
O O6 0.091892 0.287154 0.109128
O O7 0.122659 0.284921 0.236883
O O8 0.029633 0.180681 0.190480
O O9 0.071616 0.071616 0.269200
O O10 0.165056 0.420151 0.105028
O O11 0.098745 0.374781 0.000000
O O12 0.227840 0.772160 0.814803
O O13 0.229362 0.624532 0.793361
O O14 0.309356 0.500000 0.250000
O O15 0.378503 0.378503 0.309703
O O16 0.280804 0.476467 0.375499
O O17 0.479583 0.239702 0.000000
#
# Coordination Sequence:
#
# PCOD9567064 Si02
#       7
#    16  16   8  16  16  16  16
#     4   9  17  29  47  72 100 130 163 199 244 297
#     4  10  19  31  48  68  93 125 163 206 245 287
#     4   9  18  32  50  70  91 122 164 206 247 288
#     4  10  19  31  48  70  98 131 164 200 245 293
#     4   9  18  31  48  72 100 131 167 207 251 297
#     4  10  20  34  53  76 102 131 163 202 249 298
#     4   9  18  33  52  74 101 131 163 199 239 291
#
# _framework density 17.508361000000001
#
# number of rings (size 3 to 8) (size 9 to 14) (size 15 to 20)
#    0.000    2.538    0.000    2.308    0.000    2.923 
#    0.000    3.077    0.000    5.538    0.000    3.231 
#    0.000    0.000    0.000    0.000    0.000    0.000 
#
# Total GULP energy -579347.482132 kJ/mol
# GULP energy per Si atom -5570.648867 kJ/mol
# Density = 1.746851 g / cm^3
# Si number density = 17.508361 Si / 1000 Ang^3
#
#
#
# Elastic Constant Matrix: (Units=GPa)
#
#
# Indices 1 2 3 4 5 6 
#
# 1 69.7518 32.9266 29.8367 0.0000 0.0000 0.0000
# 2 32.9266 69.7518 29.8367 0.0000 0.0000 0.0000
# 3 29.8367 29.8367 34.7519 0.0000 0.0000 0.0000
# 4 0.0000 0.0000 0.0000 23.8272 0.0000 0.0000
# 5 0.0000 0.0000 0.0000 0.0000 23.8272 0.0000
# 6 0.0000 0.0000 0.0000 0.0000 0.0000 9.7266
#
#
#
# Elastic Compliance Matrix: (Units=1/GPa)
#
#
# Indices 1 2 3 4 5 6 
#
# 1 0.023297 -0.003859 -0.016689 0.000000 0.000000 0.000000
# 2 -0.003859 0.023297 -0.016689 0.000000 0.000000 0.000000
# 3 -0.016689 -0.016689 0.057432 0.000000 0.000000 0.000000
# 4 0.000000 0.000000 0.000000 0.041969 0.000000 0.000000
# 5 0.000000 0.000000 0.000000 0.000000 0.041969 0.000000
# 6 0.000000 0.000000 0.000000 0.000000 0.000000 0.102810
#
#
# Mechanical properties :
#
#
# Convention : Reuss Voigt Hill
#
# Bulk Modulus (GPa) = 33.83743 39.93951 36.88847
# Shear Modulus (GPa) = 13.32985 16.91990 15.12488
#
# Velocity S-wave (km/s) = 2.76224 3.11205 2.94235
# Velocity P-wave (km/s) = 5.43522 5.98117 5.71472
#
# Compressibility (1/GPa) = 0.02955307
#
# Stress axis : x y z
#
# Youngs Moduli (GPa) = 42.92437 42.92437 17.41178
#
# Poissons Ratio (x) = 0.16563 0.29058
# Poissons Ratio (y) = 0.16563 0.29058
# Poissons Ratio (z) = 0.71636 0.71636
#
# Static dielectric constant tensor:
#      x y z
#    x 1.612330 0.000000 0.000000 
#    y 0.000000 1.612330 0.000000 
#    z 0.000000 0.000000 1.584070 
# 
# From -- ./inp_files/6553.got.cif
#   From: 2010.05.17/outbox.cif.g08.bks.cpg/sg132_4_cif.got.tgz:6553.got - 2010.05.20 12:30:18.
