data_PCOD9567012
_publ_section_title
;
Structure prediction by ZEFSAII (Michael W. Deem and Ramdas Pophale) SiO2 
 PCOD9567012
Probable space group: P 42/M C M
;
_chemical_formula_sum "Si O2"
_cell_formula_units_Z 128
_cell_length_a 20.989931
_cell_length_b 20.989931
_cell_length_c 17.618930
_cell_angle_alpha 90.000000
_cell_angle_beta 90.000000
_cell_angle_gamma 90.000000
_cell_volume 7762.498906
_symmetry_space_group_name_H-M "P 42/M C M"
_symmetry_group_IT_number 132
_symmetry_cell_setting 'tetragonal'
loop_
_space_group_symop_operation_xyz
x,y,z
-y,x,1/2+z
-x,-y,z
y,-x,1/2+z
x,-y,1/2-z
-x,y,1/2-z
y,x,-z
-y,-x,-z
-x,-y,-z
y,-x,1/2-z
x,y,-z
-y,x,1/2-z
-x,y,1/2+z
x,-y,1/2+z
-y,-x,z
y,x,z
loop_
_atom_site_type_symbol
_atom_site_label
_atom_site_fract_x
_atom_site_fract_y
_atom_site_fract_z
Si Si1 0.013529 0.610292 0.665818
Si Si2 0.449239 0.846648 0.681835
Si Si3 0.973528 0.263042 0.582846
Si Si4 0.894694 0.205914 0.883723
Si Si5 0.334599 0.767655 0.745202
Si Si6 0.227725 0.873708 0.289803
Si Si7 0.099110 0.450559 0.414896
Si Si8 0.670599 0.809727 0.415209
O O1 0.086072 0.587122 0.671936
O O2 0.006628 0.664929 0.603305
O O3 0.000000 0.636324 0.750000
O O4 0.960090 0.558281 0.642902
O O5 0.500000 0.849968 0.750000
O O6 0.399696 0.790201 0.703167
O O7 0.495079 0.850075 0.608552
O O8 0.943154 0.260919 0.500000
O O9 0.926079 0.243857 0.649086
O O10 0.036626 0.220337 0.583363
O O11 0.860283 0.139718 0.902640
O O12 0.901215 0.211741 0.792804
O O13 0.845827 0.261954 0.907694
O O14 0.298438 0.701562 0.724281
O O15 0.285557 0.824442 0.723906
O O16 0.339728 0.769816 0.837601
O O17 0.168075 0.831926 0.315861
O O18 0.075320 0.462494 0.500000
O O19 0.137119 0.384378 0.412514
O O20 0.667621 0.779686 0.500000
#
# Coordination Sequence:
#
# PCOD9567012 Si02
#       8
#    16  16  16  16  16  16  16  16
#     4  12  21  34  52  72 105 146 183 215 254 318
#     4  12  22  36  54  75 106 149 182 217 266 313
#     4  12  23  33  51  77 106 138 177 226 275 325
#     4  10  20  34  53  75 100 133 174 224 279 331
#     4  10  20  36  56  76 100 139 188 226 262 315
#     4   9  19  37  56  72  94 131 179 227 273 319
#     4  11  23  35  51  77 110 145 182 221 267 325
#     4  10  18  31  50  75 105 136 169 214 268 317
#
# _framework density 16.489535
#
# number of rings (size 3 to 8) (size 9 to 14) (size 15 to 20)
#    0.000    1.250    5.000    3.375    0.000    3.500 
#    0.000    0.000    0.000    0.750    0.000    2.625 
#    0.000    0.250    0.000    0.000    0.000    4.000 
#
# Total GULP energy -713588.424483 kJ/mol
# GULP energy per Si atom -5574.909566 kJ/mol
# Density = 1.645200 g / cm^3
# Si number density = 16.489535 Si / 1000 Ang^3
#
#
#
# Elastic Constant Matrix: (Units=GPa)
#
#
# Indices 1 2 3 4 5 6 
#
# 1 60.9847 39.0862 29.3364 0.0000 0.0000 0.0000
# 2 39.0862 60.9847 29.3364 0.0000 0.0000 0.0000
# 3 29.3364 29.3364 77.0614 0.0000 0.0000 0.0000
# 4 0.0000 0.0000 0.0000 109.2323 0.0000 0.0000
# 5 0.0000 0.0000 0.0000 0.0000 109.2323 0.0000
# 6 0.0000 0.0000 0.0000 0.0000 0.0000 25.9489
#
#
#
# Elastic Compliance Matrix: (Units=1/GPa)
#
#
# Indices 1 2 3 4 5 6 
#
# 1 0.029265 -0.016400 -0.004897 0.000000 0.000000 0.000000
# 2 -0.016400 0.029265 -0.004897 0.000000 0.000000 0.000000
# 3 -0.004897 -0.004897 0.016705 0.000000 0.000000 0.000000
# 4 0.000000 0.000000 0.000000 0.009155 0.000000 0.000000
# 5 0.000000 0.000000 0.000000 0.000000 0.009155 0.000000
# 6 0.000000 0.000000 0.000000 0.000000 0.000000 0.038537
#
#
# Mechanical properties :
#
#
# Convention : Reuss Voigt Hill
#
# Bulk Modulus (GPa) = 43.77378 43.83878 43.80628
# Shear Modulus (GPa) = 26.02996 55.63415 40.83205
#
# Velocity S-wave (km/s) = 3.97744 5.81484 4.98158
# Velocity P-wave (km/s) = 6.90633 8.46916 7.72735
#
# Compressibility (1/GPa) = 0.02284473
#
# Stress axis : x y z
#
# Youngs Moduli (GPa) = 34.17091 34.17091 59.86110
#
# Poissons Ratio (x) = 0.56042 0.29316
# Poissons Ratio (y) = 0.56042 0.29316
# Poissons Ratio (z) = 0.16734 0.16734
#
# Static dielectric constant tensor:
#      x y z
#    x 1.570400 0.000000 0.000000 
#    y 0.000000 1.570400 0.000000 
#    z 0.000000 0.000000 1.617250 
# 
# From -- ./inp_files/6892.got.cif
#   From: 2010.05.17/outbox.cif.g08.bks.cpg/sg132_4_cif.got.tgz:6892.got - 2010.05.20 12:30:18.
