data_PCOD9567772
_publ_section_title
;
Structure prediction by ZEFSAII (Michael W. Deem and Ramdas Pophale) SiO2 
 PCOD9567772
Probable space group: P 42/N B C
;
_chemical_formula_sum "Si O2"
_cell_formula_units_Z 88
_cell_length_a 14.057633
_cell_length_b 14.057633
_cell_length_c 24.091599
_cell_angle_alpha 90.000000
_cell_angle_beta 90.000000
_cell_angle_gamma 90.000000
_cell_volume 4760.910617
_symmetry_space_group_name_H-M "P 42/N B C"
_symmetry_group_IT_number 133
_space_group.IT_coordinate_system_code '2'
_symmetry_cell_setting 'tetragonal'
loop_
_space_group_symop_operation_xyz
x,y,z
1/2-y,x,1/2+z
1/2-x,1/2-y,z
y,1/2-x,1/2+z
x,1/2-y,-z
1/2-x,y,-z
y,x,1/2-z
1/2-y,1/2-x,1/2-z
-x,-y,-z
1/2+y,-x,1/2-z
1/2+x,1/2+y,-z
-y,1/2+x,1/2-z
-x,1/2+y,z
1/2+x,-y,z
-y,-x,1/2+z
1/2+y,1/2+x,1/2+z
loop_
_atom_site_type_symbol
_atom_site_label
_atom_site_fract_x
_atom_site_fract_y
_atom_site_fract_z
Si Si1 0.984029 0.984029 0.250000
Si Si2 0.916281 0.338413 0.570807
Si Si3 0.402062 0.481788 0.632427
Si Si4 0.274155 0.918216 0.603079
Si Si5 0.539120 0.121050 0.448075
Si Si6 0.331765 0.629345 0.274591
O O1 0.953802 0.093494 0.239276
O O2 0.929952 0.952835 0.306030
O O3 0.940435 0.409545 0.621297
O O4 0.801740 0.354149 0.569187
O O5 0.964742 0.375718 0.514385
O O6 0.940510 0.228238 0.573383
O O7 0.290087 0.492481 0.621602
O O8 0.450514 0.419170 0.585235
O O9 0.367451 0.938702 0.568353
O O10 0.307021 0.870029 0.660379
O O11 0.230737 0.623254 0.243062
#
# Coordination Sequence:
#
# PCOD9567772 Si02
#       6
#     8  16  16  16  16  16
#     4  12  22  36  54  88 114 156 196 240 298 356
#     4   9  22  35  57  90 111 148 193 232 296 338
#     4  10  23  34  54  86 116 151 189 237 292 340
#     4  10  21  34  55  90 112 144 196 237 291 337
#     4  11  19  38  60  81 123 148 182 246 286 343
#     4  11  23  36  60  85 117 155 197 245 294 347
#
# _framework density 18.483858999999999
#
# number of rings (size 3 to 8) (size 9 to 14) (size 15 to 20)
#    1.091    0.545    3.636    1.636    7.636    1.455 
#    0.000    0.000    0.000    1.636    0.000    2.545 
#    0.000    0.000    0.000    0.000    0.000    0.000 
#
# Total GULP energy -490132.411877 kJ/mol
# GULP energy per Si atom -5569.686499 kJ/mol
# Density = 1.844179 g / cm^3
# Si number density = 18.483859 Si / 1000 Ang^3
#
#
#
# Elastic Constant Matrix: (Units=GPa)
#
#
# Indices 1 2 3 4 5 6 
#
# 1 47.0744 35.9774 24.2067 0.0000 0.0000 0.0000
# 2 35.9774 47.0744 24.2067 0.0000 0.0000 0.0000
# 3 24.2067 24.2067 88.0324 0.0000 0.0000 0.0000
# 4 0.0000 0.0000 0.0000 20.6370 0.0000 0.0000
# 5 0.0000 0.0000 0.0000 0.0000 20.6370 0.0000
# 6 0.0000 0.0000 0.0000 0.0000 0.0000 35.4411
#
#
#
# Elastic Compliance Matrix: (Units=1/GPa)
#
#
# Indices 1 2 3 4 5 6 
#
# 1 0.052227 -0.037888 -0.003943 0.000000 0.000000 0.000000
# 2 -0.037888 0.052227 -0.003943 0.000000 0.000000 0.000000
# 3 -0.003943 -0.003943 0.013528 0.000000 0.000000 0.000000
# 4 0.000000 0.000000 0.000000 0.048457 0.000000 0.000000
# 5 0.000000 0.000000 0.000000 0.000000 0.048457 0.000000
# 6 0.000000 0.000000 0.000000 0.000000 0.000000 0.028216
#
#
# Mechanical properties :
#
#
# Convention : Reuss Voigt Hill
#
# Bulk Modulus (GPa) = 37.82934 38.99584 38.41259
# Shear Modulus (GPa) = 14.55735 21.86238 18.20987
#
# Velocity S-wave (km/s) = 2.80941 3.44289 3.14216
# Velocity P-wave (km/s) = 5.57085 6.07846 5.83018
#
# Compressibility (1/GPa) = 0.02643451
#
# Stress axis : x y z
#
# Youngs Moduli (GPa) = 19.14726 19.14726 73.92162
#
# Poissons Ratio (x) = 0.72545 0.29146
# Poissons Ratio (y) = 0.72545 0.29146
# Poissons Ratio (z) = 0.07550 0.07550
#
# Static dielectric constant tensor:
#      x y z
#    x 1.651780 0.000000 0.000000 
#    y 0.000000 1.651780 0.000000 
#    z 0.000000 0.000000 1.671530 
# 
# From -- ./inp_files/7138.got.cif
#   From: 2010.05.17/outbox.cif.g08.bks.cpg/sg133_4_cif.got.tgz:7138.got - 2010.05.20 12:37:36.
