data_PCOD9567986
_publ_section_title
;
Structure prediction by ZEFSAII (Michael W. Deem and Ramdas Pophale) SiO2 
 PCOD9567986
Probable space group: P 42/N B C
;
_chemical_formula_sum "Si O2"
_cell_formula_units_Z 72
_cell_length_a 14.540843
_cell_length_b 14.540843
_cell_length_c 14.592136
_cell_angle_alpha 90.000000
_cell_angle_beta 90.000000
_cell_angle_gamma 90.000000
_cell_volume 3085.304548
_symmetry_space_group_name_H-M "P 42/N B C"
_symmetry_group_IT_number 133
_space_group.IT_coordinate_system_code '2'
_symmetry_cell_setting 'tetragonal'
loop_
_space_group_symop_operation_xyz
x,y,z
1/2-y,x,1/2+z
1/2-x,1/2-y,z
y,1/2-x,1/2+z
x,1/2-y,-z
1/2-x,y,-z
y,x,1/2-z
1/2-y,1/2-x,1/2-z
-x,-y,-z
1/2+y,-x,1/2-z
1/2+x,1/2+y,-z
-y,1/2+x,1/2-z
-x,1/2+y,z
1/2+x,-y,z
-y,-x,1/2+z
1/2+y,1/2+x,1/2+z
loop_
_atom_site_type_symbol
_atom_site_label
_atom_site_fract_x
_atom_site_fract_y
_atom_site_fract_z
Si Si1 0.438040 0.916748 0.645057
Si Si2 0.278675 0.011838 0.904404
Si Si3 0.905678 0.445888 0.640187
Si Si4 0.951148 0.728702 0.100310
Si Si5 0.338482 0.338482 0.250000
O O1 0.450012 0.809156 0.623646
O O2 0.419421 0.920876 0.753991
O O3 0.536781 0.961631 0.624761
O O4 0.366702 0.991205 0.603522
O O5 0.315940 0.079682 0.824686
O O6 0.364614 0.944378 0.921644
O O7 0.250000 0.059222 0.000000
O O8 0.801549 0.470234 0.623762
O O9 0.869126 0.736452 0.174717
O O10 0.915361 0.750000 0.000000
#
# Coordination Sequence:
#
# PCOD9567986 Si02
#       5
#    16  16  16  16   8
#     4  11  22  45  73 104 150 199 249 318 382 444
#     4  12  25  43  78 109 149 202 254 311 383 456
#     4  11  22  45  73 104 150 199 249 318 382 444
#     4  12  25  43  78 109 149 202 254 311 383 456
#     4  12  24  52  71 110 156 193 254 316 370 450
#
# _framework density 23.33643
#
# number of rings (size 3 to 8) (size 9 to 14) (size 15 to 20)
#    0.000    0.444    6.667    1.333    3.111    2.667 
#    0.000    6.667    0.000    0.000    0.000    0.000 
#    0.000    0.000    0.000    0.000    0.000    0.000 
#
# Total GULP energy -401475.186949 kJ/mol
# GULP energy per Si atom -5576.044263 kJ/mol
# Density = 2.328332 g / cm^3
# Si number density = 23.336430 Si / 1000 Ang^3
#
#
#
# Elastic Constant Matrix: (Units=GPa)
#
#
# Indices 1 2 3 4 5 6 
#
# 1 6.4327 69.7204 27.2210 0.0000 0.0000 0.0000
# 2 69.7204 6.4327 27.2210 0.0000 0.0000 0.0000
# 3 27.2210 27.2210 149.3656 0.0000 0.0000 0.0000
# 4 0.0000 0.0000 0.0000 34.1718 0.0000 0.0000
# 5 0.0000 0.0000 0.0000 0.0000 34.1718 0.0000
# 6 0.0000 0.0000 0.0000 0.0000 0.0000 20.0547
#
#
#
# Elastic Compliance Matrix: (Units=1/GPa)
#
#
# Indices 1 2 3 4 5 6 
#
# 1 -0.000351 0.015450 -0.002752 0.000000 0.000000 0.000000
# 2 0.015450 -0.000351 -0.002752 0.000000 0.000000 0.000000
# 3 -0.002752 -0.002752 0.007698 0.000000 0.000000 0.000000
# 4 0.000000 0.000000 0.000000 0.029264 0.000000 0.000000
# 5 0.000000 0.000000 0.000000 0.000000 0.029264 0.000000
# 6 0.000000 0.000000 0.000000 0.000000 0.000000 0.049864
#
#
# Mechanical properties :
#
#
# Convention : Reuss Voigt Hill
#
# Bulk Modulus (GPa) = 37.19054 45.61731 41.40392
# Shear Modulus (GPa) = 47.86656 20.21755 34.04206
#
# Velocity S-wave (km/s) = 4.53388 2.94658 3.82350
# Velocity P-wave (km/s) = 6.58630 5.58270 6.10516
#
# Compressibility (1/GPa) = 0.02688856
#
# Stress axis : x y z
#
# Youngs Moduli (GPa) = -2847.83836 -2847.83836 129.90525
#
# Poissons Ratio (x) = 43.99829 0.35745
# Poissons Ratio (y) = 43.99829 0.35745
# Poissons Ratio (z) = -7.83618 -7.83618
#
# Static dielectric constant tensor:
#      x y z
#    x 1.864760 0.000000 0.000000 
#    y 0.000000 1.864760 0.000000 
#    z 0.000000 0.000000 1.982220 
# 
# From -- ./inp_files/5365.got.cif
#   From: 2010.05.17/outbox.cif.g08.bks.cpg/sg133_3_cif.got.tgz:5365.got - 2010.05.20 12:37:36.
