data_PCOD9567867
_publ_section_title
;
Structure prediction by ZEFSAII (Michael W. Deem and Ramdas Pophale) SiO2 
 PCOD9567867
Probable space group: P 42/N B C
;
_chemical_formula_sum "Si O2"
_cell_formula_units_Z 40
_cell_length_a 18.670261
_cell_length_b 18.670261
_cell_length_c 4.958680
_cell_angle_alpha 90.000000
_cell_angle_beta 90.000000
_cell_angle_gamma 90.000000
_cell_volume 1728.489959
_symmetry_space_group_name_H-M "P 42/N B C"
_symmetry_group_IT_number 133
_space_group.IT_coordinate_system_code '2'
_symmetry_cell_setting 'tetragonal'
loop_
_space_group_symop_operation_xyz
x,y,z
1/2-y,x,1/2+z
1/2-x,1/2-y,z
y,1/2-x,1/2+z
x,1/2-y,-z
1/2-x,y,-z
y,x,1/2-z
1/2-y,1/2-x,1/2-z
-x,-y,-z
1/2+y,-x,1/2-z
1/2+x,1/2+y,-z
-y,1/2+x,1/2-z
-x,1/2+y,z
1/2+x,-y,z
-y,-x,1/2+z
1/2+y,1/2+x,1/2+z
loop_
_atom_site_type_symbol
_atom_site_label
_atom_site_fract_x
_atom_site_fract_y
_atom_site_fract_z
Si Si1 0.457854 0.610698 0.222790
Si Si2 0.250000 0.542466 0.500000
Si Si3 0.071559 0.323348 0.596706
O O1 0.428595 0.555199 0.442470
O O2 0.532638 0.637473 0.347080
O O3 0.418556 0.687843 0.170324
O O4 0.294173 0.491539 0.294085
O O5 0.108688 0.250000 0.500000
O O6 0.123974 0.376027 0.750000
#
# Coordination Sequence:
#
# PCOD9567867 Si02
#       3
#    16   8  16
#     4  11  22  40  68 100 132 174 221 280 352 414
#     4  10  22  44  63  97 136 176 218 290 346 420
#     4  10  23  42  65  97 139 183 232 291 349 421
#
# _framework density 23.141584999999999
#
# number of rings (size 3 to 8) (size 9 to 14) (size 15 to 20)
#    0.000    1.600    4.000    0.000    0.000    8.000 
#    0.000    3.000    0.000    3.600    0.000    0.000 
#    0.000    0.000    0.000    0.000    0.000    0.000 
#
# Total GULP energy -223051.926270 kJ/mol
# GULP energy per Si atom -5576.298157 kJ/mol
# Density = 2.308891 g / cm^3
# Si number density = 23.141585 Si / 1000 Ang^3
#
#
#
# Elastic Constant Matrix: (Units=GPa)
#
#
# Indices 1 2 3 4 5 6 
#
# 1 58.8598 43.9797 16.6853 0.0000 0.0000 0.0000
# 2 43.9797 58.8550 16.6846 0.0000 0.0000 0.0000
# 3 16.6853 16.6846 123.1019 0.0000 0.0000 0.0000
# 4 0.0000 0.0000 0.0000 49.8468 0.0000 0.0000
# 5 0.0000 0.0000 0.0000 0.0000 49.8471 0.0000
# 6 0.0000 0.0000 0.0000 0.0000 0.0000 2.4246
#
#
#
# Elastic Compliance Matrix: (Units=1/GPa)
#
#
# Indices 1 2 3 4 5 6 
#
# 1 0.038692 -0.028522 -0.001379 0.000000 0.000000 0.000000
# 2 -0.028522 0.038695 -0.001379 0.000000 0.000000 0.000000
# 3 -0.001379 -0.001379 0.008497 0.000000 0.000000 0.000000
# 4 0.000000 0.000000 0.000000 0.020061 0.000000 0.000000
# 5 0.000000 0.000000 0.000000 0.000000 0.020061 0.000000
# 6 0.000000 0.000000 0.000000 0.000000 0.000000 0.412444
#
#
# Mechanical properties :
#
#
# Convention : Reuss Voigt Hill
#
# Bulk Modulus (GPa) = 42.87151 43.94623 43.40887
# Shear Modulus (GPa) = 8.21311 31.32151 19.76731
#
# Velocity S-wave (km/s) = 1.88594 3.68295 2.92582
# Velocity P-wave (km/s) = 4.82787 6.09236 5.49660
#
# Compressibility (1/GPa) = 0.02332552
#
# Stress axis : x y z
#
# Youngs Moduli (GPa) = 25.84545 25.84335 117.68771
#
# Poissons Ratio (x) = 0.73709 0.16225
# Poissons Ratio (y) = 0.73715 0.16225
# Poissons Ratio (z) = 0.03563 0.03563
#
# Static dielectric constant tensor:
#      x y z
#    x 1.920880 0.000000 0.000000 
#    y 0.000000 1.920880 0.000000 
#    z 0.000000 0.000000 1.963740 
# 
# From -- ./inp_files/129.got.cif
#   From: 2010.05.17/outbox.cif.g08.bks.cpg/sg133_1_cif.got.tgz:129.got - 2010.05.20 12:37:36.
