data_PCOD9567846
_publ_section_title
;
Structure prediction by ZEFSAII (Michael W. Deem and Ramdas Pophale) SiO2 
 PCOD9567846
Probable space group: P 42/N B C
;
_chemical_formula_sum "Si O2"
_cell_formula_units_Z 48
_cell_length_a 13.013811
_cell_length_b 13.013811
_cell_length_c 10.987614
_cell_angle_alpha 90.000000
_cell_angle_beta 90.000000
_cell_angle_gamma 90.000000
_cell_volume 1860.854360
_symmetry_space_group_name_H-M "P 42/N B C"
_symmetry_group_IT_number 133
_space_group.IT_coordinate_system_code '2'
_symmetry_cell_setting 'tetragonal'
loop_
_space_group_symop_operation_xyz
x,y,z
1/2-y,x,1/2+z
1/2-x,1/2-y,z
y,1/2-x,1/2+z
x,1/2-y,-z
1/2-x,y,-z
y,x,1/2-z
1/2-y,1/2-x,1/2-z
-x,-y,-z
1/2+y,-x,1/2-z
1/2+x,1/2+y,-z
-y,1/2+x,1/2-z
-x,1/2+y,z
1/2+x,-y,z
-y,-x,1/2+z
1/2+y,1/2+x,1/2+z
loop_
_atom_site_type_symbol
_atom_site_label
_atom_site_fract_x
_atom_site_fract_y
_atom_site_fract_z
Si Si1 0.107992 0.750000 0.000000
Si Si2 0.939507 0.250000 0.500000
Si Si3 0.875106 0.601514 0.877155
Si Si4 0.169196 0.069792 0.362624
O O1 0.041900 0.782465 0.882325
O O2 0.164836 0.855246 0.035520
O O3 0.018541 0.214989 0.605269
O O4 0.928178 0.571822 0.750000
O O5 0.861185 0.725735 0.862951
O O6 0.921383 0.602804 0.012922
O O7 0.101854 0.101854 0.250000
#
# Coordination Sequence:
#
# PCOD9567846 Si02
#       4
#     8   8  16  16
#     4   9  24  46  70 109 160 208 250 308 382 460
#     4  11  22  43  74 110 156 205 256 311 380 458
#     4  10  22  40  68 103 140 187 248 312 368 431
#     4  10  23  44  70 103 144 193 254 315 376 441
#
# _framework density 25.794602999999999
#
# number of rings (size 3 to 8) (size 9 to 14) (size 15 to 20)
#    0.000    2.333    0.000    2.000    0.000   15.333 
#    0.000   23.333    0.000   44.000    0.000    0.000 
#    0.000   16.000    0.000    0.000    0.000    0.000 
#
# Total GULP energy -267215.601196 kJ/mol
# GULP energy per Si atom -5566.991692 kJ/mol
# Density = 2.573589 g / cm^3
# Si number density = 25.794603 Si / 1000 Ang^3
#
#
#
# Elastic Constant Matrix: (Units=GPa)
#
#
# Indices 1 2 3 4 5 6 
#
# 1 139.7130 75.2652 59.6980 0.0000 0.0000 0.0000
# 2 75.2652 139.7140 59.6987 0.0000 0.0000 0.0000
# 3 59.6980 59.6987 223.3294 0.0000 0.0000 0.0000
# 4 0.0000 0.0000 0.0000 7.4179 0.0000 0.0000
# 5 0.0000 0.0000 0.0000 0.0000 7.4175 0.0000
# 6 0.0000 0.0000 0.0000 0.0000 0.0000 40.5919
#
#
#
# Elastic Compliance Matrix: (Units=1/GPa)
#
#
# Indices 1 2 3 4 5 6 
#
# 1 0.010489 -0.005027 -0.001460 0.000000 0.000000 0.000000
# 2 -0.005027 0.010489 -0.001460 0.000000 0.000000 0.000000
# 3 -0.001460 -0.001460 0.005258 0.000000 0.000000 0.000000
# 4 0.000000 0.000000 0.000000 0.134809 0.000000 0.000000
# 5 0.000000 0.000000 0.000000 0.000000 0.134816 0.000000
# 6 0.000000 0.000000 0.000000 0.000000 0.000000 0.024635
#
#
# Mechanical properties :
#
#
# Convention : Reuss Voigt Hill
#
# Bulk Modulus (GPa) = 96.68639 99.12001 97.90320
# Shear Modulus (GPa) = 14.71281 31.62509 23.16895
#
# Velocity S-wave (km/s) = 2.39086 3.50528 3.00027
# Velocity P-wave (km/s) = 6.72207 7.40896 7.07386
#
# Compressibility (1/GPa) = 0.01034272
#
# Stress axis : x y z
#
# Youngs Moduli (GPa) = 95.33355 95.33401 190.17362
#
# Poissons Ratio (x) = 0.47923 0.27769
# Poissons Ratio (y) = 0.47923 0.27770
# Poissons Ratio (z) = 0.13921 0.13921
#
# Static dielectric constant tensor:
#      x y z
#    x 2.129890 0.000000 0.000000 
#    y 0.000000 2.129890 0.000000 
#    z 0.000000 0.000000 2.071790 
# 
# From -- ./inp_files/2670.got.cif
#   From: 2010.05.17/outbox.cif.g08.bks.cpg/sg133_2_cif.got.tgz:2670.got - 2010.05.20 12:37:36.
