data_PCOD9567768
_publ_section_title
;
Structure prediction by ZEFSAII (Michael W. Deem and Ramdas Pophale) SiO2 
 PCOD9567768
Probable space group: P 42/N B C
;
_chemical_formula_sum "Si O2"
_cell_formula_units_Z 116
_cell_length_a 18.005880
_cell_length_b 18.005880
_cell_length_c 20.967409
_cell_angle_alpha 90.000000
_cell_angle_beta 90.000000
_cell_angle_gamma 90.000000
_cell_volume 6797.879622
_symmetry_space_group_name_H-M "P 42/N B C"
_symmetry_group_IT_number 133
_space_group.IT_coordinate_system_code '2'
_symmetry_cell_setting 'tetragonal'
loop_
_space_group_symop_operation_xyz
x,y,z
1/2-y,x,1/2+z
1/2-x,1/2-y,z
y,1/2-x,1/2+z
x,1/2-y,-z
1/2-x,y,-z
y,x,1/2-z
1/2-y,1/2-x,1/2-z
-x,-y,-z
1/2+y,-x,1/2-z
1/2+x,1/2+y,-z
-y,1/2+x,1/2-z
-x,1/2+y,z
1/2+x,-y,z
-y,-x,1/2+z
1/2+y,1/2+x,1/2+z
loop_
_atom_site_type_symbol
_atom_site_label
_atom_site_fract_x
_atom_site_fract_y
_atom_site_fract_z
Si Si1 0.250000 0.250000 0.000000
Si Si2 0.070538 0.352060 0.299969
Si Si3 0.707202 0.901377 0.286752
Si Si4 0.697235 0.090619 0.818555
Si Si5 0.295508 0.953205 0.434908
Si Si6 0.795908 0.435594 0.304918
Si Si7 0.783752 0.334535 0.068179
Si Si8 0.306066 0.375943 0.594711
O O1 0.308907 0.294977 0.955396
O O2 0.079875 0.420126 0.250000
O O3 0.090436 0.281752 0.255361
O O4 0.126957 0.358821 0.357723
O O5 0.989954 0.337978 0.327603
O O6 0.656229 0.843772 0.250000
O O7 0.733727 0.879222 0.358063
O O8 0.671611 0.983326 0.288872
O O9 0.740922 0.087187 0.751881
O O10 0.629640 0.146827 0.813783
O O11 0.751703 0.116490 0.874554
O O12 0.250000 0.947290 0.500000
O O13 0.248053 0.946507 0.370492
O O14 0.339296 0.873854 0.433695
O O15 0.321300 0.040350 0.432761
O O16 0.750000 0.250000 0.077775
O O17 0.750000 0.357924 0.000000
#
# Coordination Sequence:
#
# PCOD9567768 Si02
#       8
#     4  16  16  16  16  16  16  16
#     4  12  20  32  58  88 102 144 194 258 292 336
#     4   9  20  38  55  77 114 154 184 233 303 352
#     4   9  18  35  55  77 106 143 184 230 288 357
#     4  11  21  35  55  88 119 146 198 246 283 359
#     4  11  19  36  56  83 116 147 193 246 290 363
#     4  10  21  31  54  84 111 146 184 239 291 331
#     4  11  20  35  60  84 112 159 198 235 298 355
#     4  10  21  34  56  84 109 145 196 243 295 344
#
# _framework density 17.064143999999999
#
# number of rings (size 3 to 8) (size 9 to 14) (size 15 to 20)
#    0.000    1.793    3.448    2.483    0.000    2.483 
#    1.241    1.379    0.000    3.310    0.000    0.000 
#    0.000    0.000    0.000    0.000    0.000    0.000 
#
# Total GULP energy -645799.774630 kJ/mol
# GULP energy per Si atom -5567.239436 kJ/mol
# Density = 1.702531 g / cm^3
# Si number density = 17.064144 Si / 1000 Ang^3
#
#
#
# Elastic Constant Matrix: (Units=GPa)
#
#
# Indices 1 2 3 4 5 6 
#
# 1 66.2664 58.1462 42.1823 0.0000 0.0000 0.0000
# 2 58.1462 66.2698 42.1850 0.0000 0.0000 0.0000
# 3 42.1823 42.1850 116.4688 0.0000 0.0000 0.0000
# 4 0.0000 0.0000 0.0000 25.0192 0.0000 0.0000
# 5 0.0000 0.0000 0.0000 0.0000 25.0178 0.0000
# 6 0.0000 0.0000 0.0000 0.0000 0.0000 40.1040
#
#
#
# Elastic Compliance Matrix: (Units=1/GPa)
#
#
# Indices 1 2 3 4 5 6 
#
# 1 0.066890 -0.056235 -0.003858 0.000000 0.000000 0.000000
# 2 -0.056235 0.066888 -0.003860 0.000000 0.000000 0.000000
# 3 -0.003858 -0.003860 0.011381 0.000000 0.000000 0.000000
# 4 0.000000 0.000000 0.000000 0.039969 0.000000 0.000000
# 5 0.000000 0.000000 0.000000 0.000000 0.039972 0.000000
# 6 0.000000 0.000000 0.000000 0.000000 0.000000 0.024935
#
#
# Mechanical properties :
#
#
# Convention : Reuss Voigt Hill
#
# Bulk Modulus (GPa) = 57.95580 59.33690 58.64635
# Shear Modulus (GPa) = 13.03127 25.12763 19.07945
#
# Velocity S-wave (km/s) = 2.76644 3.84153 3.34743
# Velocity P-wave (km/s) = 6.65143 7.38409 7.02732
#
# Compressibility (1/GPa) = 0.01725453
#
# Stress axis : x y z
#
# Youngs Moduli (GPa) = 14.94988 14.95031 87.86333
#
# Poissons Ratio (x) = 0.84073 0.33896
# Poissons Ratio (y) = 0.84070 0.33915
# Poissons Ratio (z) = 0.05767 0.05771
#
# Static dielectric constant tensor:
#      x y z
#    x 1.603490 0.000000 0.000000 
#    y 0.000000 1.603490 0.000000 
#    z 0.000000 0.000000 1.565080 
# 
# From -- ./inp_files/5661.got.cif
#   From: 2010.05.17/outbox.cif.g08.bks.cpg/sg133_3_cif.got.tgz:5661.got - 2010.05.20 12:37:36.
