data_PCOD9567056
_publ_section_title
;
Structure prediction by ZEFSAII (Michael W. Deem and Ramdas Pophale) SiO2 
 PCOD9567056
Probable space group: P 42/M C M
;
_chemical_formula_sum "Si O2"
_cell_formula_units_Z 96
_cell_length_a 25.933589
_cell_length_b 25.933589
_cell_length_c 9.138806
_cell_angle_alpha 90.000000
_cell_angle_beta 90.000000
_cell_angle_gamma 90.000000
_cell_volume 6146.313465
_symmetry_space_group_name_H-M "P 42/M C M"
_symmetry_group_IT_number 132
_symmetry_cell_setting 'tetragonal'
loop_
_space_group_symop_operation_xyz
x,y,z
-y,x,1/2+z
-x,-y,z
y,-x,1/2+z
x,-y,1/2-z
-x,y,1/2-z
y,x,-z
-y,-x,-z
-x,-y,-z
y,-x,1/2-z
x,y,-z
-y,x,1/2-z
-x,y,1/2+z
x,-y,1/2+z
-y,-x,z
y,x,z
loop_
_atom_site_type_symbol
_atom_site_label
_atom_site_fract_x
_atom_site_fract_y
_atom_site_fract_z
Si Si1 0.860068 0.341656 0.324059
Si Si2 0.864850 0.448141 0.169034
Si Si3 0.945849 0.257516 0.324687
Si Si4 0.336086 0.250621 0.676906
Si Si5 0.739316 0.449205 0.166768
Si Si6 0.054442 0.861326 0.323828
O O1 0.856120 0.345842 0.500000
O O2 0.877990 0.396154 0.255967
O O3 0.900601 0.296950 0.285921
O O4 0.804136 0.329370 0.255722
O O5 0.882836 0.500000 0.250000
O O6 0.802081 0.450073 0.168084
O O7 0.881578 0.446240 0.000000
O O8 0.952278 0.259392 0.500000
O O9 0.933194 0.198140 0.284971
O O10 0.000000 0.270971 0.250000
O O11 0.338887 0.242441 0.500000
O O12 0.290203 0.290203 0.707335
O O13 0.391966 0.273229 0.723663
O O14 0.721316 0.500000 0.250000
O O15 0.721850 0.452740 0.000000
O O16 0.049122 0.863871 0.500000
O O17 0.099330 0.900671 0.279806
O O18 0.000000 0.874585 0.250000
#
# Coordination Sequence:
#
# PCOD9567056 Si02
#       6
#    16  16  16  16  16  16
#     4  10  19  30  46  69  93 119 152 188 231 279
#     4   9  16  27  44  66  91 119 151 188 228 270
#     4   9  19  34  51  69  90 119 154 189 223 265
#     4   9  18  31  44  62  92 126 156 187 227 275
#     4   8  14  24  39  58  81 112 148 183 218 260
#     4   9  18  33  51  70  93 119 147 182 224 269
#
# _framework density 15.619119
#
# number of rings (size 3 to 8) (size 9 to 14) (size 15 to 20)
#    0.000    3.000    0.000    2.000    0.000    6.833 
#    0.000    2.500    0.000    0.500    0.000    3.500 
#    0.000    0.333    0.000    4.167    0.000    0.167 
#
# Total GULP energy -534554.206908 kJ/mol
# GULP energy per Si atom -5568.272989 kJ/mol
# Density = 1.558357 g / cm^3
# Si number density = 15.619119 Si / 1000 Ang^3
#
#
#
# Elastic Constant Matrix: (Units=GPa)
#
#
# Indices 1 2 3 4 5 6 
#
# 1 107.0962 88.1801 49.3027 0.0000 0.0000 0.0000
# 2 88.1801 107.0962 49.3027 0.0000 0.0000 0.0000
# 3 49.3027 49.3027 49.0745 0.0000 0.0000 0.0000
# 4 0.0000 0.0000 0.0000 21.7956 0.0000 0.0000
# 5 0.0000 0.0000 0.0000 0.0000 21.7956 0.0000
# 6 0.0000 0.0000 0.0000 0.0000 0.0000 -1.5583
#
#
#
# Elastic Compliance Matrix: (Units=1/GPa)
#
#
# Indices 1 2 3 4 5 6 
#
# 1 0.031629 -0.021236 -0.010442 0.000000 0.000000 0.000000
# 2 -0.021236 0.031629 -0.010442 0.000000 0.000000 0.000000
# 3 -0.010442 -0.010442 0.041358 0.000000 0.000000 0.000000
# 4 0.000000 0.000000 0.000000 0.045881 0.000000 0.000000
# 5 0.000000 0.000000 0.000000 0.000000 0.045881 0.000000
# 6 0.000000 0.000000 0.000000 0.000000 0.000000 -0.641727
#
#
# Mechanical properties :
#
#
# Convention : Reuss Voigt Hill
#
# Bulk Modulus (GPa) = 49.07346 70.75980 59.91663
# Shear Modulus (GPa) = -14.11166 13.50536 -0.30315
#
# Velocity S-wave (km/s) = -3.00907 2.94371 -0.44103
# Velocity P-wave (km/s) = 4.40618 7.54689 6.17940
#
# Compressibility (1/GPa) = 0.02037761
#
# Stress axis : x y z
#
# Youngs Moduli (GPa) = 31.61620 31.61620 24.17895
#
# Poissons Ratio (x) = 0.67139 0.25248
# Poissons Ratio (y) = 0.67139 0.25248
# Poissons Ratio (z) = 0.33014 0.33014
#
# Static dielectric constant tensor:
#      x y z
#    x 1.512100 0.000000 0.000000 
#    y 0.000000 1.512100 0.000000 
#    z 0.000000 0.000000 1.529570 
# 
# From -- ./inp_files/1747.got.cif
#   From: 2010.05.17/outbox.cif.g08.bks.cpg/sg132_1_cif.got.tgz:1747.got - 2010.05.20 12:30:18.
