data_PCOD9567160
_publ_section_title
;
Structure prediction by ZEFSAII (Michael W. Deem and Ramdas Pophale) SiO2 
 PCOD9567160
Probable space group: P 42/M C M
;
_chemical_formula_sum "Si O2"
_cell_formula_units_Z 84
_cell_length_a 15.668932
_cell_length_b 15.668932
_cell_length_c 21.159968
_cell_angle_alpha 90.000000
_cell_angle_beta 90.000000
_cell_angle_gamma 90.000000
_cell_volume 5195.098643
_symmetry_space_group_name_H-M "P 42/M C M"
_symmetry_group_IT_number 132
_symmetry_cell_setting 'tetragonal'
loop_
_space_group_symop_operation_xyz
x,y,z
-y,x,1/2+z
-x,-y,z
y,-x,1/2+z
x,-y,1/2-z
-x,y,1/2-z
y,x,-z
-y,-x,-z
-x,-y,-z
y,-x,1/2-z
x,y,-z
-y,x,1/2-z
-x,y,1/2+z
x,-y,1/2+z
-y,-x,z
y,x,z
loop_
_atom_site_type_symbol
_atom_site_label
_atom_site_fract_x
_atom_site_fract_y
_atom_site_fract_z
Si Si1 0.000000 0.000000 0.636636
Si Si2 0.126423 0.873578 0.700022
Si Si3 0.896720 0.510470 0.323512
Si Si4 0.000000 0.255639 0.750000
Si Si5 0.865434 0.865434 0.423958
Si Si6 0.111893 0.621461 0.431102
Si Si7 0.195907 0.195907 0.931403
Si Si8 0.680836 0.936992 0.378804
O O1 0.063898 0.063898 0.598594
O O2 0.943027 0.056974 0.682039
O O3 0.199167 0.916796 0.740406
O O4 0.156272 0.843729 0.631201
O O5 0.869036 0.500000 0.250000
O O6 0.866513 0.437787 0.371813
O O7 0.877866 0.601177 0.358077
O O8 0.000000 0.500000 0.322987
O O9 0.011516 0.305493 0.686255
O O10 0.863915 0.863915 0.500000
O O11 0.770658 0.894172 0.399435
O O12 0.122235 0.579148 0.500000
O O13 0.170839 0.705269 0.429603
O O14 0.012654 0.651870 0.425736
O O15 0.162451 0.162451 0.000000
#
# Coordination Sequence:
#
# PCOD9567160 Si02
#       8
#     4   8  16   8   8  16   8  16
#     4  12  21  39  42  64  92 141 187 230 248 286
#     4  12  22  32  49  62  94 131 176 223 258 293
#     4   9  19  34  51  72  98 126 165 214 266 314
#     4  12  20  33  47  66  90 130 176 214 263 299
#     4  12  24  36  49  69 100 140 183 224 261 300
#     4  10  19  34  54  74  96 130 169 211 260 310
#     4  10  20  34  51  74  96 121 164 214 265 308
#     4  11  21  34  48  71  99 132 171 215 258 313
#
# _framework density 16.169087000000001
#
# number of rings (size 3 to 8) (size 9 to 14) (size 15 to 20)
#    0.000    1.333    3.810    4.143    0.000    6.476 
#    0.000    0.000    0.000    0.000    0.000    0.000 
#    0.000    0.762    0.000    6.000    0.000    1.429 
#
# Total GULP energy -468045.833669 kJ/mol
# GULP energy per Si atom -5571.974210 kJ/mol
# Density = 1.613229 g / cm^3
# Si number density = 16.169087 Si / 1000 Ang^3
#
#
#
# Elastic Constant Matrix: (Units=GPa)
#
#
# Indices 1 2 3 4 5 6 
#
# 1 203.3997 -115.3958 27.4717 0.0000 0.0000 0.0000
# 2 -115.3958 203.3997 27.4717 0.0000 0.0000 0.0000
# 3 27.4717 27.4717 121.4281 0.0000 0.0000 0.0000
# 4 0.0000 0.0000 0.0000 12.0868 0.0000 0.0000
# 5 0.0000 0.0000 0.0000 0.0000 12.0868 0.0000
# 6 0.0000 0.0000 0.0000 0.0000 0.0000 9.5726
#
#
#
# Elastic Compliance Matrix: (Units=1/GPa)
#
#
# Indices 1 2 3 4 5 6 
#
# 1 0.008184 0.005048 -0.002994 0.000000 0.000000 0.000000
# 2 0.005048 0.008184 -0.002994 0.000000 0.000000 0.000000
# 3 -0.002994 -0.002994 0.009590 0.000000 0.000000 0.000000
# 4 0.000000 0.000000 0.000000 0.082735 0.000000 0.000000
# 5 0.000000 0.000000 0.000000 0.000000 0.082735 0.000000
# 6 0.000000 0.000000 0.000000 0.000000 0.000000 0.104465
#
#
# Mechanical properties :
#
#
# Convention : Reuss Voigt Hill
#
# Bulk Modulus (GPa) = 41.52882 45.25808 43.39345
# Shear Modulus (GPa) = 16.35059 45.99457 31.17258
#
# Velocity S-wave (km/s) = 3.18343 5.33926 4.39556
# Velocity P-wave (km/s) = 6.26515 8.12783 7.25650
#
# Compressibility (1/GPa) = 0.02407966
#
# Stress axis : x y z
#
# Youngs Moduli (GPa) = 122.18270 122.18270 104.27676
#
# Poissons Ratio (x) = -0.61674 0.31216
# Poissons Ratio (y) = -0.61674 0.31216
# Poissons Ratio (z) = 0.36577 0.36577
#
# Static dielectric constant tensor:
#      x y z
#    x 1.553160 0.000000 0.000000 
#    y 0.000000 1.553160 0.000000 
#    z 0.000000 0.000000 1.568740 
# 
# From -- ./inp_files/7849.got.cif
#   From: 2010.05.17/outbox.cif.g08.bks.cpg/sg132_4_cif.got.tgz:7849.got - 2010.05.20 12:30:18.
