data_PCOD9567230
_publ_section_title
;
Structure prediction by ZEFSAII (Michael W. Deem and Ramdas Pophale) SiO2 
 PCOD9567230
Probable space group: P 42/M C M
;
_chemical_formula_sum "Si O2"
_cell_formula_units_Z 112
_cell_length_a 14.795671
_cell_length_b 14.795671
_cell_length_c 30.039603
_cell_angle_alpha 90.000000
_cell_angle_beta 90.000000
_cell_angle_gamma 90.000000
_cell_volume 6576.025977
_symmetry_space_group_name_H-M "P 42/M C M"
_symmetry_group_IT_number 132
_symmetry_cell_setting 'tetragonal'
loop_
_space_group_symop_operation_xyz
x,y,z
-y,x,1/2+z
-x,-y,z
y,-x,1/2+z
x,-y,1/2-z
-x,y,1/2-z
y,x,-z
-y,-x,-z
-x,-y,-z
y,-x,1/2-z
x,y,-z
-y,x,1/2-z
-x,y,1/2+z
x,-y,1/2+z
-y,-x,z
y,x,z
loop_
_atom_site_type_symbol
_atom_site_label
_atom_site_fract_x
_atom_site_fract_y
_atom_site_fract_z
Si Si1 0.077068 0.221256 0.187185
Si Si2 0.523799 0.667372 0.136818
Si Si3 0.579263 0.720882 0.551905
Si Si4 0.268469 0.122772 0.289177
Si Si5 0.477607 0.899167 0.552973
Si Si6 0.265989 0.412851 0.281984
Si Si7 0.669563 0.188292 0.385853
O O1 0.119530 0.119530 0.182400
O O2 0.106543 0.252287 0.236556
O O3 0.124968 0.281253 0.149692
O O4 0.970280 0.241474 0.186715
O O5 0.574679 0.574679 0.146717
O O6 0.484174 0.669199 0.086956
O O7 0.448170 0.692480 0.171992
O O8 0.598658 0.746387 0.138977
O O9 0.554696 0.705232 0.500000
O O10 0.679549 0.679549 0.557835
O O11 0.558150 0.826343 0.561049
O O12 0.198992 0.198992 0.305125
O O13 0.366815 0.168978 0.291864
O O14 0.462457 0.901442 0.500000
O O15 0.389010 0.863833 0.577905
O O16 0.500000 0.000000 0.568287
O O17 0.260473 0.500000 0.250000
O O18 0.334484 0.334484 0.263854
O O19 0.745356 0.254645 0.406129
#
# Coordination Sequence:
#
# PCOD9567230 Si02
#       7
#    16  16  16  16  16  16  16
#     4   9  17  32  53  74  96 122 156 196 243 301
#     4  10  20  33  48  67  93 127 168 206 239 281
#     4   9  18  32  49  70  96 123 154 200 253 294
#     4   9  19  34  50  71  99 127 156 198 249 295
#     4   9  18  32  50  73 100 130 165 202 240 289
#     4  11  22  34  47  65  95 133 170 205 239 279
#     4   9  18  32  50  71  96 127 160 200 247 289
#
# _framework density 17.031562000000001
#
# number of rings (size 3 to 8) (size 9 to 14) (size 15 to 20)
#    0.000    2.571    0.000    1.714    0.000    7.286 
#    0.000    9.286    0.000    0.000    0.000    0.000 
#    0.000    0.000    0.000    8.714    0.000    0.429 
#
# Total GULP energy -623612.234250 kJ/mol
# GULP energy per Si atom -5567.966377 kJ/mol
# Density = 1.699280 g / cm^3
# Si number density = 17.031562 Si / 1000 Ang^3
#
#
#
# Elastic Constant Matrix: (Units=GPa)
#
#
# Indices 1 2 3 4 5 6 
#
# 1 108.2055 75.5253 33.1705 0.0000 0.0000 0.0000
# 2 75.5253 108.2055 33.1705 0.0000 0.0000 0.0000
# 3 33.1705 33.1705 35.6736 0.0000 0.0000 0.0000
# 4 0.0000 0.0000 0.0000 19.5891 0.0000 0.0000
# 5 0.0000 0.0000 0.0000 0.0000 19.5891 0.0000
# 6 0.0000 0.0000 0.0000 0.0000 0.0000 19.8155
#
#
#
# Elastic Compliance Matrix: (Units=1/GPa)
#
#
# Indices 1 2 3 4 5 6 
#
# 1 0.019397 -0.011203 -0.007619 0.000000 0.000000 0.000000
# 2 -0.011203 0.019397 -0.007619 0.000000 0.000000 0.000000
# 3 -0.007619 -0.007619 0.042200 0.000000 0.000000 0.000000
# 4 0.000000 0.000000 0.000000 0.051049 0.000000 0.000000
# 5 0.000000 0.000000 0.000000 0.000000 0.051049 0.000000
# 6 0.000000 0.000000 0.000000 0.000000 0.000000 0.050465
#
#
# Mechanical properties :
#
#
# Convention : Reuss Voigt Hill
#
# Bulk Modulus (GPa) = 35.57126 59.53525 47.55326
# Shear Modulus (GPa) = 16.90282 19.14662 18.02472
#
# Velocity S-wave (km/s) = 3.15372 3.35652 3.25670
# Velocity P-wave (km/s) = 5.84740 7.07484 6.49020
#
# Compressibility (1/GPa) = 0.02811258
#
# Stress axis : x y z
#
# Youngs Moduli (GPa) = 51.55529 51.55529 23.69651
#
# Poissons Ratio (x) = 0.57757 0.18054
# Poissons Ratio (y) = 0.57757 0.18054
# Poissons Ratio (z) = 0.39279 0.39279
#
# Static dielectric constant tensor:
#      x y z
#    x 1.597180 0.000000 0.000000 
#    y 0.000000 1.597180 0.000000 
#    z 0.000000 0.000000 1.565800 
# 
# From -- ./inp_files/10054.got.cif
#   From: 2010.05.17/outbox.cif.g08.bks.cpg/sg132_6_cif.got.tgz:10054.got - 2010.05.20 12:30:18.
