data_PCOD9567290
_publ_section_title
;
Structure prediction by ZEFSAII (Michael W. Deem and Ramdas Pophale) SiO2 
 PCOD9567290
Probable space group: P 42/M C M
;
_chemical_formula_sum "Si O2"
_cell_formula_units_Z 80
_cell_length_a 11.125059
_cell_length_b 11.125059
_cell_length_c 28.570942
_cell_angle_alpha 90.000000
_cell_angle_beta 90.000000
_cell_angle_gamma 90.000000
_cell_volume 3536.138000
_symmetry_space_group_name_H-M "P 42/M C M"
_symmetry_group_IT_number 132
_symmetry_cell_setting 'tetragonal'
loop_
_space_group_symop_operation_xyz
x,y,z
-y,x,1/2+z
-x,-y,z
y,-x,1/2+z
x,-y,1/2-z
-x,y,1/2-z
y,x,-z
-y,-x,-z
-x,-y,-z
y,-x,1/2-z
x,y,-z
-y,x,1/2-z
-x,y,1/2+z
x,-y,1/2+z
-y,-x,z
y,x,z
loop_
_atom_site_type_symbol
_atom_site_label
_atom_site_fract_x
_atom_site_fract_y
_atom_site_fract_z
Si Si1 0.498051 0.296625 0.946389
Si Si2 0.798780 0.004756 0.049763
Si Si3 0.122255 0.313824 0.279519
Si Si4 0.509988 0.854604 0.148505
Si Si5 0.249527 0.060463 0.147071
O O1 0.606735 0.393266 0.945063
O O2 0.374507 0.374507 0.941328
O O3 0.512698 0.210820 0.901040
O O4 0.497243 0.245226 0.000000
O O5 0.901172 0.901172 0.047640
O O6 0.720690 0.974557 0.093892
O O7 0.734969 0.006576 0.000000
O O8 0.871236 0.128765 0.055887
O O9 0.221211 0.221211 0.259332
O O10 0.180020 0.427058 0.307027
O O11 0.000000 0.345312 0.250000
O O12 0.057217 0.246887 0.322478
O O13 0.649558 0.844514 0.161852
O O14 0.500000 0.000000 0.145097
O O15 0.121419 0.121419 0.148240
#
# Coordination Sequence:
#
# PCOD9567290 Si02
#       5
#    16  16  16  16  16
#     4   9  18  35  61  90 121 164 216 259 291 337
#     4   8  14  26  46  75 114 158 200 241 284 333
#     4  11  24  42  63  85 109 143 190 246 307 367
#     4  10  22  37  56  84 123 161 195 239 301 367
#     4  10  20  34  56  87 120 154 192 237 293 356
#
# _framework density 22.623550999999999
#
# number of rings (size 3 to 8) (size 9 to 14) (size 15 to 20)
#    0.000    2.400    0.000    3.600    0.000    7.000 
#    0.000    5.000    0.000   10.800    0.000    0.000 
#    0.000   28.800    0.000    0.000    0.000    0.000 
#
# Total GULP energy -445666.732546 kJ/mol
# GULP energy per Si atom -5570.834157 kJ/mol
# Density = 2.257206 g / cm^3
# Si number density = 22.623551 Si / 1000 Ang^3
#
#
#
# Elastic Constant Matrix: (Units=GPa)
#
#
# Indices 1 2 3 4 5 6 
#
# 1 47.9911 23.4497 38.6604 0.0000 0.0000 0.0000
# 2 23.4497 47.9911 38.6604 0.0000 0.0000 0.0000
# 3 38.6604 38.6604 128.0067 0.0000 0.0000 0.0000
# 4 0.0000 0.0000 0.0000 38.1853 0.0000 0.0000
# 5 0.0000 0.0000 0.0000 0.0000 38.1853 0.0000
# 6 0.0000 0.0000 0.0000 0.0000 0.0000 21.0274
#
#
#
# Elastic Compliance Matrix: (Units=1/GPa)
#
#
# Indices 1 2 3 4 5 6 
#
# 1 0.030771 -0.009976 -0.006280 0.000000 0.000000 0.000000
# 2 -0.009976 0.030771 -0.006280 0.000000 0.000000 0.000000
# 3 -0.006280 -0.006280 0.011606 0.000000 0.000000 0.000000
# 4 0.000000 0.000000 0.000000 0.026188 0.000000 0.000000
# 5 0.000000 0.000000 0.000000 0.000000 0.026188 0.000000
# 6 0.000000 0.000000 0.000000 0.000000 0.000000 0.047557
#
#
# Mechanical properties :
#
#
# Convention : Reuss Voigt Hill
#
# Bulk Modulus (GPa) = 35.62037 47.28110 41.45074
# Shear Modulus (GPa) = 21.97672 27.69416 24.83544
#
# Velocity S-wave (km/s) = 3.12012 3.50255 3.31685
# Velocity P-wave (km/s) = 5.36276 6.10750 5.74721
#
# Compressibility (1/GPa) = 0.02807382
#
# Stress axis : x y z
#
# Youngs Moduli (GPa) = 32.49795 32.49795 86.16426
#
# Poissons Ratio (x) = 0.32421 0.54115
# Poissons Ratio (y) = 0.32421 0.54115
# Poissons Ratio (z) = 0.20410 0.20410
#
# Static dielectric constant tensor:
#      x y z
#    x 1.905440 0.000000 0.000000 
#    y 0.000000 1.905440 0.000000 
#    z 0.000000 0.000000 1.927500 
# 
# From -- ./inp_files/10593.got.cif
#   From: 2010.05.17/outbox.cif.g08.bks.cpg/sg132_6_cif.got.tgz:10593.got - 2010.05.20 12:30:18.
