data_PCOD9567101
_publ_section_title
;
Structure prediction by ZEFSAII (Michael W. Deem and Ramdas Pophale) SiO2 
 PCOD9567101
Probable space group: P 42/M C M
;
_chemical_formula_sum "Si O2"
_cell_formula_units_Z 64
_cell_length_a 20.294129
_cell_length_b 20.294129
_cell_length_c 8.489283
_cell_angle_alpha 90.000000
_cell_angle_beta 90.000000
_cell_angle_gamma 90.000000
_cell_volume 3496.325397
_symmetry_space_group_name_H-M "P 42/M C M"
_symmetry_group_IT_number 132
_symmetry_cell_setting 'tetragonal'
loop_
_space_group_symop_operation_xyz
x,y,z
-y,x,1/2+z
-x,-y,z
y,-x,1/2+z
x,-y,1/2-z
-x,y,1/2-z
y,x,-z
-y,-x,-z
-x,-y,-z
y,-x,1/2-z
x,y,-z
-y,x,1/2-z
-x,y,1/2+z
x,-y,1/2+z
-y,-x,z
y,x,z
loop_
_atom_site_type_symbol
_atom_site_label
_atom_site_fract_x
_atom_site_fract_y
_atom_site_fract_z
Si Si1 0.179430 0.073884 0.812113
Si Si2 0.567275 0.330058 0.310500
Si Si3 0.284531 0.178344 0.312148
Si Si4 0.429996 0.179194 0.811191
O O1 0.109981 0.109981 0.778832
O O2 0.234771 0.119754 0.732995
O O3 0.181257 0.000000 0.750000
O O4 0.189814 0.074821 0.000000
O O5 0.500000 0.361373 0.250000
O O6 0.567181 0.329203 0.500000
O O7 0.629438 0.370563 0.253668
O O8 0.569233 0.255256 0.254274
O O9 0.290886 0.183656 0.500000
O O10 0.246197 0.246197 0.256097
O O11 0.356459 0.159800 0.243333
O O12 0.500000 0.149576 0.750000
O O13 0.432092 0.176195 0.000000
#
# Coordination Sequence:
#
# PCOD9567101 Si02
#       4
#    16  16  16  16
#     4  10  21  37  58  85 117 152 187 222 262 309
#     4   9  18  30  42  58  82 114 153 199 252 310
#     4  10  20  34  54  80 109 142 182 227 274 325
#     4  10  19  32  50  72  99 131 171 220 274 327
#
# _framework density 18.304931
#
# number of rings (size 3 to 8) (size 9 to 14) (size 15 to 20)
#    0.000    2.250    0.000    3.000    0.000    6.000 
#    0.000    2.500    0.000    0.750    0.000    5.250 
#    0.000    0.000    0.000    0.000    0.000    0.000 
#
# Total GULP energy -356460.103337 kJ/mol
# GULP energy per Si atom -5569.689115 kJ/mol
# Density = 1.826327 g / cm^3
# Si number density = 18.304931 Si / 1000 Ang^3
#
#
#
# Elastic Constant Matrix: (Units=GPa)
#
#
# Indices 1 2 3 4 5 6 
#
# 1 99.5966 24.7534 21.1384 0.0000 0.0000 0.0000
# 2 24.7534 99.5966 21.1384 0.0000 0.0000 0.0000
# 3 21.1384 21.1384 40.6315 0.0000 0.0000 0.0000
# 4 0.0000 0.0000 0.0000 24.5687 0.0000 0.0000
# 5 0.0000 0.0000 0.0000 0.0000 24.5687 0.0000
# 6 0.0000 0.0000 0.0000 0.0000 0.0000 13.6688
#
#
#
# Elastic Compliance Matrix: (Units=1/GPa)
#
#
# Indices 1 2 3 4 5 6 
#
# 1 0.011566 -0.001796 -0.005083 0.000000 0.000000 0.000000
# 2 -0.001796 0.011566 -0.005083 0.000000 0.000000 0.000000
# 3 -0.005083 -0.005083 0.029900 0.000000 0.000000 0.000000
# 4 0.000000 0.000000 0.000000 0.040702 0.000000 0.000000
# 5 0.000000 0.000000 0.000000 0.000000 0.040702 0.000000
# 6 0.000000 0.000000 0.000000 0.000000 0.000000 0.073160
#
#
# Mechanical properties :
#
#
# Convention : Reuss Voigt Hill
#
# Bulk Modulus (GPa) = 34.35392 41.54278 37.94835
# Shear Modulus (GPa) = 20.72793 24.08085 22.40439
#
# Velocity S-wave (km/s) = 3.36872 3.63097 3.50230
# Velocity P-wave (km/s) = 5.82575 6.35002 6.09352
#
# Compressibility (1/GPa) = 0.02910876
#
# Stress axis : x y z
#
# Youngs Moduli (GPa) = 86.46358 86.46358 33.44488
#
# Poissons Ratio (x) = 0.15526 0.16999
# Poissons Ratio (y) = 0.15526 0.16999
# Poissons Ratio (z) = 0.43947 0.43947
#
# Static dielectric constant tensor:
#      x y z
#    x 1.654020 0.000000 0.000000 
#    y 0.000000 1.654020 0.000000 
#    z 0.000000 0.000000 1.637190 
# 
# From -- ./inp_files/1249.got.cif
#   From: 2010.05.17/outbox.cif.g08.bks.cpg/sg132_1_cif.got.tgz:1249.got - 2010.05.20 12:30:18.
