data_PCOD9567647
_publ_section_title
;
Structure prediction by ZEFSAII (Michael W. Deem and Ramdas Pophale) SiO2 
 PCOD9567647
Probable space group: P 42/N B C
;
_chemical_formula_sum "Si O2"
_cell_formula_units_Z 64
_cell_length_a 24.076320
_cell_length_b 24.076320
_cell_length_c 5.365077
_cell_angle_alpha 90.000000
_cell_angle_beta 90.000000
_cell_angle_gamma 90.000000
_cell_volume 3109.969811
_symmetry_space_group_name_H-M "P 42/N B C"
_symmetry_group_IT_number 133
_space_group.IT_coordinate_system_code '2'
_symmetry_cell_setting 'tetragonal'
loop_
_space_group_symop_operation_xyz
x,y,z
1/2-y,x,1/2+z
1/2-x,1/2-y,z
y,1/2-x,1/2+z
x,1/2-y,-z
1/2-x,y,-z
y,x,1/2-z
1/2-y,1/2-x,1/2-z
-x,-y,-z
1/2+y,-x,1/2-z
1/2+x,1/2+y,-z
-y,1/2+x,1/2-z
-x,1/2+y,z
1/2+x,-y,z
-y,-x,1/2+z
1/2+y,1/2+x,1/2+z
loop_
_atom_site_type_symbol
_atom_site_label
_atom_site_fract_x
_atom_site_fract_y
_atom_site_fract_z
Si Si1 0.962347 0.074634 0.396122
Si Si2 0.341885 0.631437 0.578579
Si Si3 0.538182 0.250000 0.000000
Si Si4 0.420790 0.130039 0.500813
Si Si5 0.963756 0.750000 0.500000
O O1 0.949915 0.031854 0.619748
O O2 0.906740 0.112674 0.392148
O O3 0.016064 0.108588 0.470691
O O4 0.339585 0.670549 0.339590
O O5 0.303117 0.578148 0.537741
O O6 0.501398 0.244717 0.749891
O O7 0.388893 0.111108 0.750000
O O8 0.426081 0.195765 0.478973
O O9 0.395333 0.104668 0.250000
#
# Coordination Sequence:
#
# PCOD9567647 Si02
#       5
#    16  16   8  16   8
#     4  10  19  35  55  86 127 163 200 243 307 382
#     4  10  20  35  58  89 124 163 218 269 313 367
#     4  12  22  40  70  95 126 181 232 272 310 376
#     4  12  26  42  64  95 129 166 207 263 329 389
#     4  12  24  44  68  93 130 169 222 272 316 392
#
# _framework density 20.578979
#
# number of rings (size 3 to 8) (size 9 to 14) (size 15 to 20)
#    0.000    1.000    0.000   10.500    0.000    3.000 
#    0.000    0.000    0.000    4.500    0.000    0.000 
#    0.000    0.000    0.000    0.000    0.000    0.000 
#
# Total GULP energy -357968.537725 kJ/mol
# GULP energy per Si atom -5593.258402 kJ/mol
# Density = 2.053214 g / cm^3
# Si number density = 20.578979 Si / 1000 Ang^3
#
#
#
# Elastic Constant Matrix: (Units=GPa)
#
#
# Indices 1 2 3 4 5 6 
#
# 1 72.0954 59.3785 22.6304 0.0000 0.0000 0.0000
# 2 59.3785 72.0266 22.5549 0.0000 0.0000 0.0000
# 3 22.6304 22.5549 179.7688 0.0000 0.0000 0.0000
# 4 0.0000 0.0000 0.0000 21.7689 0.0000 0.0000
# 5 0.0000 0.0000 0.0000 0.0000 21.7662 0.0000
# 6 0.0000 0.0000 0.0000 0.0000 0.0000 18.0915
#
#
#
# Elastic Compliance Matrix: (Units=1/GPa)
#
#
# Indices 1 2 3 4 5 6 
#
# 1 0.043385 -0.035449 -0.001014 0.000000 0.000000 0.000000
# 2 -0.035449 0.043416 -0.000985 0.000000 0.000000 0.000000
# 3 -0.001014 -0.000985 0.005814 0.000000 0.000000 0.000000
# 4 0.000000 0.000000 0.000000 0.045937 0.000000 0.000000
# 5 0.000000 0.000000 0.000000 0.000000 0.045943 0.000000
# 6 0.000000 0.000000 0.000000 0.000000 0.000000 0.055275
#
#
# Mechanical properties :
#
#
# Convention : Reuss Voigt Hill
#
# Bulk Modulus (GPa) = 56.43400 59.22425 57.82913
# Shear Modulus (GPa) = 15.59718 26.94711 21.27214
#
# Velocity S-wave (km/s) = 2.75602 3.62256 3.21858
# Velocity P-wave (km/s) = 6.13271 6.80725 6.47877
#
# Compressibility (1/GPa) = 0.01771981
#
# Stress axis : x y z
#
# Youngs Moduli (GPa) = 23.04954 23.03296 172.00195
#
# Poissons Ratio (x) = 0.81649 0.17440
# Poissons Ratio (y) = 0.81708 0.16938
# Poissons Ratio (z) = 0.02337 0.02268
#
# Static dielectric constant tensor:
#      x y z
#    x 1.772780 0.000000 0.000000 
#    y 0.000000 1.772800 0.000000 
#    z 0.000000 0.000000 1.878740 
# 
# From -- ./inp_files/375.got.cif
#   From: 2010.05.17/outbox.cif.g08.bks.cpg/sg133_1_cif.got.tgz:375.got - 2010.05.20 12:37:36.
