data_PCOD9567483
_publ_section_title
;
Structure prediction by ZEFSAII (Michael W. Deem and Ramdas Pophale) SiO2 
 PCOD9567483
Probable space group: P 42/M C M
;
_chemical_formula_sum "Si O2"
_cell_formula_units_Z 112
_cell_length_a 15.984122
_cell_length_b 15.984122
_cell_length_c 27.333271
_cell_angle_alpha 90.000000
_cell_angle_beta 90.000000
_cell_angle_gamma 90.000000
_cell_volume 6983.436341
_symmetry_space_group_name_H-M "P 42/M C M"
_symmetry_group_IT_number 132
_symmetry_cell_setting 'tetragonal'
loop_
_space_group_symop_operation_xyz
x,y,z
-y,x,1/2+z
-x,-y,z
y,-x,1/2+z
x,-y,1/2-z
-x,y,1/2-z
y,x,-z
-y,-x,-z
-x,-y,-z
y,-x,1/2-z
x,y,-z
-y,x,1/2-z
-x,y,1/2+z
x,-y,1/2+z
-y,-x,z
y,x,z
loop_
_atom_site_type_symbol
_atom_site_label
_atom_site_fract_x
_atom_site_fract_y
_atom_site_fract_z
Si Si1 0.689215 0.828226 0.240134
Si Si2 0.300815 0.163380 0.057885
Si Si3 0.956800 0.829572 0.202546
Si Si4 0.885650 0.587708 0.151333
Si Si5 0.901846 0.228042 0.127996
Si Si6 0.395363 0.913919 0.164566
Si Si7 0.025306 0.845946 0.443121
O O1 0.742291 0.742291 0.248664
O O2 0.757938 0.896004 0.222731
O O3 0.626341 0.827454 0.193970
O O4 0.640417 0.868590 0.286458
O O5 0.251365 0.251365 0.066623
O O6 0.368872 0.140141 0.099676
O O7 0.228960 0.092628 0.063173
O O8 0.327644 0.162188 0.000000
O O9 0.898396 0.898396 0.177756
O O10 0.000000 0.867256 0.250000
O O11 0.027759 0.792164 0.168515
O O12 0.881859 0.487332 0.151707
O O13 0.983986 0.603872 0.166124
O O14 0.817007 0.182994 0.143019
O O15 0.892434 0.326445 0.123855
O O16 0.941728 0.184501 0.081586
O O17 0.011632 0.857409 0.500000
O O18 0.069755 0.930246 0.424805
#
# Coordination Sequence:
#
# PCOD9567483 Si02
#       7
#    16  16  16  16  16  16  16
#     4  11  20  34  53  71  99 134 172 214 255 302
#     4   9  17  33  57  82 106 130 166 218 265 304
#     4  11  20  30  44  64  92 126 168 208 242 283
#     4  11  20  34  55  74 102 137 174 211 256 316
#     4  12  22  34  47  64  98 135 173 216 255 295
#     4  11  22  34  47  73 102 137 176 212 248 298
#     4   9  18  33  51  70  95 130 176 222 255 291
#
# _framework density 16.037949000000001
#
# number of rings (size 3 to 8) (size 9 to 14) (size 15 to 20)
#    0.000    1.429    4.286    3.429    0.000    5.571 
#    0.000    2.857    0.000    0.000    0.000    0.000 
#    0.000   23.429    0.000    6.286    0.000    0.000 
#
# Total GULP energy -624128.275486 kJ/mol
# GULP energy per Si atom -5572.573888 kJ/mol
# Density = 1.600145 g / cm^3
# Si number density = 16.037949 Si / 1000 Ang^3
#
#
#
# Elastic Constant Matrix: (Units=GPa)
#
#
# Indices 1 2 3 4 5 6 
#
# 1 23.8025 126.3087 42.8104 0.0000 0.0000 0.0000
# 2 126.3087 23.8025 42.8104 0.0000 0.0000 0.0000
# 3 42.8104 42.8104 93.8204 0.0000 0.0000 0.0000
# 4 0.0000 0.0000 0.0000 21.5748 0.0000 0.0000
# 5 0.0000 0.0000 0.0000 0.0000 21.5748 0.0000
# 6 0.0000 0.0000 0.0000 0.0000 0.0000 17.1639
#
#
#
# Elastic Compliance Matrix: (Units=1/GPa)
#
#
# Indices 1 2 3 4 5 6 
#
# 1 -0.000375 0.009381 -0.004109 0.000000 0.000000 0.000000
# 2 0.009381 -0.000375 -0.004109 0.000000 0.000000 0.000000
# 3 -0.004109 -0.004109 0.014409 0.000000 0.000000 0.000000
# 4 0.000000 0.000000 0.000000 0.046350 0.000000 0.000000
# 5 0.000000 0.000000 0.000000 0.000000 0.046350 0.000000
# 6 0.000000 0.000000 0.000000 0.000000 0.000000 0.058262
#
#
# Mechanical properties :
#
#
# Convention : Reuss Voigt Hill
#
# Bulk Modulus (GPa) = 62.56688 62.80941 62.68815
# Shear Modulus (GPa) = 29.82851 7.36244 18.59547
#
# Velocity S-wave (km/s) = 4.31730 2.14490 3.40879
# Velocity P-wave (km/s) = 7.99679 6.73663 7.39360
#
# Compressibility (1/GPa) = 0.01598290
#
# Stress axis : x y z
#
# Youngs Moduli (GPa) = -2666.91382 -2666.91382 69.40211
#
# Poissons Ratio (x) = 25.01710 0.28519
# Poissons Ratio (y) = 25.01710 0.28519
# Poissons Ratio (z) = -10.95905 -10.95905
#
# Static dielectric constant tensor:
#      x y z
#    x 1.554070 0.000000 0.000000 
#    y 0.000000 1.554070 0.000000 
#    z 0.000000 0.000000 1.585540 
# 
# From -- ./inp_files/11047.got.cif
#   From: 2010.05.17/outbox.cif.g08.bks.cpg/sg132_6_cif.got.tgz:11047.got - 2010.05.20 12:30:18.
