data_PCOD9567183
_publ_section_title
;
Structure prediction by ZEFSAII (Michael W. Deem and Ramdas Pophale) SiO2 
 PCOD9567183
Probable space group: P 42/M C M
;
_chemical_formula_sum "Si O2"
_cell_formula_units_Z 112
_cell_length_a 13.819365
_cell_length_b 13.819365
_cell_length_c 28.059338
_cell_angle_alpha 90.000000
_cell_angle_beta 90.000000
_cell_angle_gamma 90.000000
_cell_volume 5358.627838
_symmetry_space_group_name_H-M "P 42/M C M"
_symmetry_group_IT_number 132
_symmetry_cell_setting 'tetragonal'
loop_
_space_group_symop_operation_xyz
x,y,z
-y,x,1/2+z
-x,-y,z
y,-x,1/2+z
x,-y,1/2-z
-x,y,1/2-z
y,x,-z
-y,-x,-z
-x,-y,-z
y,-x,1/2-z
x,y,-z
-y,x,1/2-z
-x,y,1/2+z
x,-y,1/2+z
-y,-x,z
y,x,z
loop_
_atom_site_type_symbol
_atom_site_label
_atom_site_fract_x
_atom_site_fract_y
_atom_site_fract_z
Si Si1 0.160173 0.003385 0.193702
Si Si2 0.292530 0.088705 0.372307
Si Si3 0.185068 0.659617 0.585007
Si Si4 0.768836 0.379771 0.796965
Si Si5 0.108243 0.539434 0.948387
Si Si6 0.817775 0.975452 0.056007
Si Si7 0.391004 0.766301 0.690117
O O1 0.088113 0.911887 0.182895
O O2 0.258466 0.994136 0.164696
O O3 0.176094 0.000000 0.250000
O O4 0.099732 0.099732 0.182115
O O5 0.315292 0.172535 0.334338
O O6 0.385745 0.099568 0.405569
O O7 0.209687 0.066788 0.411787
O O8 0.283879 0.716122 0.573134
O O9 0.174241 0.553341 0.562985
O O10 0.099512 0.728916 0.565859
O O11 0.182534 0.645938 0.642206
O O12 0.660017 0.339984 0.797170
O O13 0.768722 0.492631 0.809809
O O14 0.806819 0.364160 0.742688
O O15 0.000000 0.500000 0.952250
O O16 0.135372 0.582600 0.000000
O O17 0.915582 0.915582 0.068205
O O18 0.821337 0.997788 0.000000
O O19 0.339398 0.660603 0.688291
#
# Coordination Sequence:
#
# PCOD9567183 Si02
#       7
#    16  16  16  16  16  16  16
#     4   9  20  40  63  86 114 154 208 259 301 360
#     4  12  21  34  56  86 120 157 189 238 308 368
#     4  10  19  35  59  85 114 152 199 248 300 361
#     4  10  21  36  56  83 117 155 197 243 301 369
#     4  11  22  37  56  83 119 157 198 246 305 375
#     4  10  21  36  57  85 114 150 202 255 297 354
#     4   9  19  37  58  84 116 151 197 249 296 363
#
# _framework density 20.900874000000002
#
# number of rings (size 3 to 8) (size 9 to 14) (size 15 to 20)
#    0.000    1.857    2.857    2.143    0.000    2.286 
#    0.000    4.286    0.000    6.857    0.000    8.000 
#    0.000    2.286    0.000    0.000    0.000    0.000 
#
# Total GULP energy -623879.926472 kJ/mol
# GULP energy per Si atom -5570.356486 kJ/mol
# Density = 2.085330 g / cm^3
# Si number density = 20.900874 Si / 1000 Ang^3
#
#
#
# Elastic Constant Matrix: (Units=GPa)
#
#
# Indices 1 2 3 4 5 6 
#
# 1 46.7275 83.2739 46.2181 0.0000 0.0000 0.0000
# 2 83.2739 46.7275 46.2181 0.0000 0.0000 0.0000
# 3 46.2181 46.2181 148.8317 0.0000 0.0000 0.0000
# 4 0.0000 0.0000 0.0000 21.9281 0.0000 0.0000
# 5 0.0000 0.0000 0.0000 0.0000 21.9281 0.0000
# 6 0.0000 0.0000 0.0000 0.0000 0.0000 24.0966
#
#
#
# Elastic Compliance Matrix: (Units=1/GPa)
#
#
# Indices 1 2 3 4 5 6 
#
# 1 -0.008745 0.018617 -0.003066 0.000000 0.000000 0.000000
# 2 0.018617 -0.008745 -0.003066 0.000000 0.000000 0.000000
# 3 -0.003066 -0.003066 0.008623 0.000000 0.000000 0.000000
# 4 0.000000 0.000000 0.000000 0.045604 0.000000 0.000000
# 5 0.000000 0.000000 0.000000 0.000000 0.045604 0.000000
# 6 0.000000 0.000000 0.000000 0.000000 0.000000 0.041500
#
#
# Mechanical properties :
#
#
# Convention : Reuss Voigt Hill
#
# Bulk Modulus (GPa) = 62.09462 65.96742 64.03102
# Shear Modulus (GPa) = 47.96825 18.02901 32.99863
#
# Velocity S-wave (km/s) = 4.79585 2.94018 3.97774
# Velocity P-wave (km/s) = 7.77435 6.56938 7.19713
#
# Compressibility (1/GPa) = 0.01610445
#
# Stress axis : x y z
#
# Youngs Moduli (GPa) = -114.34804 -114.34804 115.96881
#
# Poissons Ratio (x) = 2.12885 0.35552
# Poissons Ratio (y) = 2.12885 0.35552
# Poissons Ratio (z) = -0.35055 -0.35055
#
# Static dielectric constant tensor:
#      x y z
#    x 1.752550 0.000000 0.000000 
#    y 0.000000 1.752550 0.000000 
#    z 0.000000 0.000000 1.804190 
# 
# From -- ./inp_files/11017.got.cif
#   From: 2010.05.17/outbox.cif.g08.bks.cpg/sg132_6_cif.got.tgz:11017.got - 2010.05.20 12:30:18.
