data_PCOD9567545
_publ_section_title
;
Structure prediction by ZEFSAII (Michael W. Deem and Ramdas Pophale) SiO2 
 PCOD9567545
Probable space group: P 42/M C M
;
_chemical_formula_sum "Si O2"
_cell_formula_units_Z 88
_cell_length_a 14.673824
_cell_length_b 14.673824
_cell_length_c 23.162509
_cell_angle_alpha 90.000000
_cell_angle_beta 90.000000
_cell_angle_gamma 90.000000
_cell_volume 4987.377166
_symmetry_space_group_name_H-M "P 42/M C M"
_symmetry_group_IT_number 132
_symmetry_cell_setting 'tetragonal'
loop_
_space_group_symop_operation_xyz
x,y,z
-y,x,1/2+z
-x,-y,z
y,-x,1/2+z
x,-y,1/2-z
-x,y,1/2-z
y,x,-z
-y,-x,-z
-x,-y,-z
y,-x,1/2-z
x,y,-z
-y,x,1/2-z
-x,y,1/2+z
x,-y,1/2+z
-y,-x,z
y,x,z
loop_
_atom_site_type_symbol
_atom_site_label
_atom_site_fract_x
_atom_site_fract_y
_atom_site_fract_z
Si Si1 0.195460 0.437081 0.067316
Si Si2 0.770885 0.629691 0.722375
Si Si3 0.047058 0.714541 0.431591
Si Si4 0.924999 0.924999 0.929927
Si Si5 0.687535 0.454740 0.328382
Si Si6 0.425395 0.928315 0.140762
O O1 0.142186 0.341025 0.073524
O O2 0.285344 0.439971 0.105788
O O3 0.132306 0.516222 0.095284
O O4 0.210091 0.453479 0.000000
O O5 0.729577 0.729577 0.715318
O O6 0.702876 0.557718 0.690896
O O7 0.761874 0.600158 0.789073
O O8 0.866251 0.612845 0.692017
O O9 0.022491 0.710798 0.500000
O O10 0.053136 0.820187 0.413663
O O11 0.977292 0.655927 0.393444
O O12 0.926292 0.926292 0.000000
O O13 0.000000 0.000000 0.910511
O O14 0.591131 0.408870 0.315422
O O15 0.500000 0.000000 0.163192
#
# Coordination Sequence:
#
# PCOD9567545 Si02
#       6
#    16  16  16   8  16  16
#     4   9  17  29  48  74 100 125 158 202 252 306
#     4   9  18  33  50  71  99 130 168 208 244 296
#     4   9  17  29  46  68  95 128 163 203 253 302
#     4   9  18  30  42  62  94 128 167 211 246 290
#     4   9  18  31  48  72 101 130 161 203 243 290
#     4   9  17  31  50  73 100 128 162 209 256 303
#
# _framework density 17.644544
#
# number of rings (size 3 to 8) (size 9 to 14) (size 15 to 20)
#    0.000    3.000    0.000    0.545    1.273    3.636 
#    0.000   17.273    0.000   13.091    0.000    5.091 
#    0.000    0.000    0.000    0.000    0.000    0.000 
#
# Total GULP energy -490130.665302 kJ/mol
# GULP energy per Si atom -5569.666651 kJ/mol
# Density = 1.760438 g / cm^3
# Si number density = 17.644544 Si / 1000 Ang^3
#
#
#
# Elastic Constant Matrix: (Units=GPa)
#
#
# Indices 1 2 3 4 5 6 
#
# 1 62.0897 34.4648 9.2367 0.0000 0.0000 0.0000
# 2 34.4648 62.0897 9.2367 0.0000 0.0000 0.0000
# 3 9.2367 9.2367 56.0342 0.0000 0.0000 0.0000
# 4 0.0000 0.0000 0.0000 13.9385 0.0000 0.0000
# 5 0.0000 0.0000 0.0000 0.0000 13.9385 0.0000
# 6 0.0000 0.0000 0.0000 0.0000 0.0000 14.3821
#
#
#
# Elastic Compliance Matrix: (Units=1/GPa)
#
#
# Indices 1 2 3 4 5 6 
#
# 1 0.023447 -0.012753 -0.001763 0.000000 0.000000 0.000000
# 2 -0.012753 0.023447 -0.001763 0.000000 0.000000 0.000000
# 3 -0.001763 -0.001763 0.018427 0.000000 0.000000 0.000000
# 4 0.000000 0.000000 0.000000 0.071744 0.000000 0.000000
# 5 0.000000 0.000000 0.000000 0.000000 0.071744 0.000000
# 6 0.000000 0.000000 0.000000 0.000000 0.000000 0.069531
#
#
# Mechanical properties :
#
#
# Convention : Reuss Voigt Hill
#
# Bulk Modulus (GPa) = 30.52097 31.78777 31.15437
# Shear Modulus (GPa) = 15.53678 16.93685 16.23682
#
# Velocity S-wave (km/s) = 2.97061 3.10157 3.03680
# Velocity P-wave (km/s) = 5.39456 5.55708 5.47642
#
# Compressibility (1/GPa) = 0.03276436
#
# Stress axis : x y z
#
# Youngs Moduli (GPa) = 42.64992 42.64992 54.26701
#
# Poissons Ratio (x) = 0.54390 0.09566
# Poissons Ratio (y) = 0.54390 0.09566
# Poissons Ratio (z) = 0.07518 0.07518
#
# Static dielectric constant tensor:
#      x y z
#    x 1.610230 0.000000 0.000000 
#    y 0.000000 1.610230 0.000000 
#    z 0.000000 0.000000 1.590530 
# 
# From -- ./inp_files/8950.got.cif
#   From: 2010.05.17/outbox.cif.g08.bks.cpg/sg132_5_cif.got.tgz:8950.got - 2010.05.20 12:30:18.
