data_PCOD9567679
_publ_section_title
;
Structure prediction by ZEFSAII (Michael W. Deem and Ramdas Pophale) SiO2 
 PCOD9567679
Probable space group: P 42/N B C
;
_chemical_formula_sum "Si O2"
_cell_formula_units_Z 96
_cell_length_a 15.003335
_cell_length_b 15.003335
_cell_length_c 18.413157
_cell_angle_alpha 90.000000
_cell_angle_beta 90.000000
_cell_angle_gamma 90.000000
_cell_volume 4144.802766
_symmetry_space_group_name_H-M "P 42/N B C"
_symmetry_group_IT_number 133
_space_group.IT_coordinate_system_code '2'
_symmetry_cell_setting 'tetragonal'
loop_
_space_group_symop_operation_xyz
x,y,z
1/2-y,x,1/2+z
1/2-x,1/2-y,z
y,1/2-x,1/2+z
x,1/2-y,-z
1/2-x,y,-z
y,x,1/2-z
1/2-y,1/2-x,1/2-z
-x,-y,-z
1/2+y,-x,1/2-z
1/2+x,1/2+y,-z
-y,1/2+x,1/2-z
-x,1/2+y,z
1/2+x,-y,z
-y,-x,1/2+z
1/2+y,1/2+x,1/2+z
loop_
_atom_site_type_symbol
_atom_site_label
_atom_site_fract_x
_atom_site_fract_y
_atom_site_fract_z
Si Si1 0.634143 0.419554 0.556813
Si Si2 0.707662 0.503361 0.251993
Si Si3 0.144771 0.753493 0.356831
Si Si4 0.777741 0.656834 0.170740
Si Si5 0.466105 0.096890 0.820354
Si Si6 0.343945 0.555842 0.602116
O O1 0.627968 0.314300 0.572110
O O2 0.573697 0.467336 0.616420
O O3 0.615022 0.457130 0.477318
O O4 0.737919 0.438375 0.580127
O O5 0.703409 0.410623 0.208840
O O6 0.704807 0.583003 0.192598
O O7 0.808280 0.508336 0.284137
O O8 0.650931 0.505015 0.326136
O O9 0.250000 0.750000 0.341354
O O10 0.120347 0.651742 0.371604
O O11 0.750000 0.750000 0.133020
O O12 0.810637 0.689364 0.250000
O O13 0.868044 0.610386 0.143287
O O14 0.464895 0.035106 0.750000
#
# Coordination Sequence:
#
# PCOD9567679 Si02
#       6
#    16  16  16  16  16  16
#     4   9  17  31  47  72 114 152 190 216 274 336
#     4   9  18  28  48  82 104 141 189 233 275 329
#     4  10  20  28  47  77 117 155 189 220 261 331
#     4   8  15  32  57  76  99 125 177 248 302 326
#     4   8  16  30  51  73  98 134 181 232 291 331
#     4   9  18  28  46  76 113 152 181 220 269 331
#
# _framework density 23.161536000000002
#
# number of rings (size 3 to 8) (size 9 to 14) (size 15 to 20)
#    0.000    3.500    0.000    0.500    7.000    2.000 
#    0.000    0.000    7.333    5.000    0.000   64.167 
#    0.000    4.000    0.000    0.000    0.000    0.000 
#
# Total GULP energy -534481.546130 kJ/mol
# GULP energy per Si atom -5567.516106 kJ/mol
# Density = 2.310882 g / cm^3
# Si number density = 23.161536 Si / 1000 Ang^3
#
#
#
# Elastic Constant Matrix: (Units=GPa)
#
#
# Indices 1 2 3 4 5 6 
#
# 1 70.8239 25.9211 40.8816 0.0000 0.0000 0.0000
# 2 25.9211 70.8240 40.8815 0.0000 0.0000 0.0000
# 3 40.8816 40.8815 123.4403 0.0000 0.0000 0.0000
# 4 0.0000 0.0000 0.0000 14.7047 0.0000 0.0000
# 5 0.0000 0.0000 0.0000 0.0000 14.7047 0.0000
# 6 0.0000 0.0000 0.0000 0.0000 0.0000 7.4479
#
#
#
# Elastic Compliance Matrix: (Units=1/GPa)
#
#
# Indices 1 2 3 4 5 6 
#
# 1 0.018312 -0.003958 -0.004754 0.000000 0.000000 0.000000
# 2 -0.003958 0.018312 -0.004754 0.000000 0.000000 0.000000
# 3 -0.004754 -0.004754 0.011250 0.000000 0.000000 0.000000
# 4 0.000000 0.000000 0.000000 0.068006 0.000000 0.000000
# 5 0.000000 0.000000 0.000000 0.000000 0.068005 0.000000
# 6 0.000000 0.000000 0.000000 0.000000 0.000000 0.134266
#
#
# Mechanical properties :
#
#
# Convention : Reuss Voigt Hill
#
# Bulk Modulus (GPa) = 47.74935 53.38405 50.56670
# Shear Modulus (GPa) = 14.20198 17.86506 16.03352
#
# Velocity S-wave (km/s) = 2.47892 2.78029 2.63391
# Velocity P-wave (km/s) = 5.37158 5.77973 5.57939
#
# Compressibility (1/GPa) = 0.02094270
#
# Stress axis : x y z
#
# Youngs Moduli (GPa) = 54.60826 54.60841 88.88960
#
# Poissons Ratio (x) = 0.21614 0.42257
# Poissons Ratio (y) = 0.21614 0.42257
# Poissons Ratio (z) = 0.25960 0.25960
#
# Static dielectric constant tensor:
#      x y z
#    x 1.998950 0.000000 0.000000 
#    y 0.000000 1.998950 0.000000 
#    z 0.000000 0.000000 1.878950 
# 
# From -- ./inp_files/5538.got.cif
#   From: 2010.05.17/outbox.cif.g08.bks.cpg/sg133_3_cif.got.tgz:5538.got - 2010.05.20 12:37:36.
