data_PCOD9567666
_publ_section_title
;
Structure prediction by ZEFSAII (Michael W. Deem and Ramdas Pophale) SiO2 
 PCOD9567666
Probable space group: P 42/N B C
;
_chemical_formula_sum "Si O2"
_cell_formula_units_Z 88
_cell_length_a 14.844213
_cell_length_b 14.844213
_cell_length_c 19.505869
_cell_angle_alpha 90.000000
_cell_angle_beta 90.000000
_cell_angle_gamma 90.000000
_cell_volume 4298.131100
_symmetry_space_group_name_H-M "P 42/N B C"
_symmetry_group_IT_number 133
_space_group.IT_coordinate_system_code '2'
_symmetry_cell_setting 'tetragonal'
loop_
_space_group_symop_operation_xyz
x,y,z
1/2-y,x,1/2+z
1/2-x,1/2-y,z
y,1/2-x,1/2+z
x,1/2-y,-z
1/2-x,y,-z
y,x,1/2-z
1/2-y,1/2-x,1/2-z
-x,-y,-z
1/2+y,-x,1/2-z
1/2+x,1/2+y,-z
-y,1/2+x,1/2-z
-x,1/2+y,z
1/2+x,-y,z
-y,-x,1/2+z
1/2+y,1/2+x,1/2+z
loop_
_atom_site_type_symbol
_atom_site_label
_atom_site_fract_x
_atom_site_fract_y
_atom_site_fract_z
Si Si1 0.661504 0.695787 0.617220
Si Si2 0.441173 0.949203 0.337505
Si Si3 0.109701 0.390300 0.750000
Si Si4 0.897285 0.511460 0.027132
Si Si5 0.387138 0.697678 0.259536
Si Si6 0.986898 0.655732 0.623140
O O1 0.750000 0.750000 0.593110
O O2 0.674693 0.635037 0.686059
O O3 0.607138 0.634561 0.561235
O O4 0.595264 0.777542 0.638110
O O5 0.514261 0.897896 0.289865
O O6 0.442693 0.895565 0.409187
O O7 0.348418 0.950041 0.297044
O O8 0.470231 0.052229 0.353086
O O9 0.841645 0.497107 0.958196
O O10 0.000000 0.500000 0.000000
O O11 0.296633 0.640040 0.260892
O O12 0.431145 0.692004 0.333165
#
# Coordination Sequence:
#
# PCOD9567666 Si02
#       6
#    16  16   8  16  16  16
#     4  11  24  38  64  99 135 166 220 285 339 404
#     4  10  20  40  62  87 124 167 218 262 334 415
#     4  10  19  38  58  88 129 172 206 264 351 408
#     4   9  21  41  63  86 127 180 216 253 340 423
#     4  11  23  38  61  91 121 162 221 280 320 380
#     4  11  22  39  63  91 124 171 213 270 339 402
#
# _framework density 20.474014
#
# number of rings (size 3 to 8) (size 9 to 14) (size 15 to 20)
#    0.000    1.636    1.818    3.000    0.000    5.818 
#    0.000    0.909    0.000    2.182    0.000    0.000 
#    0.000    0.000    0.000    0.000    0.000    0.000 
#
# Total GULP energy -490395.887603 kJ/mol
# GULP energy per Si atom -5572.680541 kJ/mol
# Density = 2.042741 g / cm^3
# Si number density = 20.474014 Si / 1000 Ang^3
#
#
#
# Elastic Constant Matrix: (Units=GPa)
#
#
# Indices 1 2 3 4 5 6 
#
# 1 48.3259 73.6449 40.8720 0.0000 0.0000 0.0000
# 2 73.6449 48.3258 40.8721 0.0000 0.0000 0.0000
# 3 40.8720 40.8721 160.4549 0.0000 0.0000 0.0000
# 4 0.0000 0.0000 0.0000 19.0127 0.0000 0.0000
# 5 0.0000 0.0000 0.0000 0.0000 19.0128 0.0000
# 6 0.0000 0.0000 0.0000 0.0000 0.0000 35.0757
#
#
#
# Elastic Compliance Matrix: (Units=1/GPa)
#
#
# Indices 1 2 3 4 5 6 
#
# 1 -0.014805 0.024691 -0.002518 0.000000 0.000000 0.000000
# 2 0.024691 -0.014805 -0.002518 0.000000 0.000000 0.000000
# 3 -0.002518 -0.002518 0.007515 0.000000 0.000000 0.000000
# 4 0.000000 0.000000 0.000000 0.052596 0.000000 0.000000
# 5 0.000000 0.000000 0.000000 0.000000 0.052596 0.000000
# 6 0.000000 0.000000 0.000000 0.000000 0.000000 0.028510
#
#
# Mechanical properties :
#
#
# Convention : Reuss Voigt Hill
#
# Bulk Modulus (GPa) = 58.08948 63.09829 60.59388
# Shear Modulus (GPa) = 64.07187 21.40140 42.73664
#
# Velocity S-wave (km/s) = 5.60019 3.23661 4.57372
# Velocity P-wave (km/s) = 8.38153 6.69725 7.58628
#
# Compressibility (1/GPa) = 0.01721482
#
# Stress axis : x y z
#
# Youngs Moduli (GPa) = -67.54609 -67.54580 133.06259
#
# Poissons Ratio (x) = 1.66779 0.33510
# Poissons Ratio (y) = 1.66779 0.33509
# Poissons Ratio (z) = -0.17011 -0.17010
#
# Static dielectric constant tensor:
#      x y z
#    x 1.784350 0.000000 0.000000 
#    y 0.000000 1.784350 0.000000 
#    z 0.000000 0.000000 1.764170 
# 
# From -- ./inp_files/6446.got.cif
#   From: 2010.05.17/outbox.cif.g08.bks.cpg/sg133_4_cif.got.tgz:6446.got - 2010.05.20 12:37:36.
