data_PCOD9567024
_publ_section_title
;
Structure prediction by ZEFSAII (Michael W. Deem and Ramdas Pophale) SiO2 
 PCOD9567024
Probable space group: P 42/M C M
;
_chemical_formula_sum "Si O2"
_cell_formula_units_Z 112
_cell_length_a 15.337468
_cell_length_b 15.337468
_cell_length_c 26.608711
_cell_angle_alpha 90.000000
_cell_angle_beta 90.000000
_cell_angle_gamma 90.000000
_cell_volume 6259.377953
_symmetry_space_group_name_H-M "P 42/M C M"
_symmetry_group_IT_number 132
_symmetry_cell_setting 'tetragonal'
loop_
_space_group_symop_operation_xyz
x,y,z
-y,x,1/2+z
-x,-y,z
y,-x,1/2+z
x,-y,1/2-z
-x,y,1/2-z
y,x,-z
-y,-x,-z
-x,-y,-z
y,-x,1/2-z
x,y,-z
-y,x,1/2-z
-x,y,1/2+z
x,-y,1/2+z
-y,-x,z
y,x,z
loop_
_atom_site_type_symbol
_atom_site_label
_atom_site_fract_x
_atom_site_fract_y
_atom_site_fract_z
Si Si1 0.536688 0.670945 0.695643
Si Si2 0.077757 0.299467 0.106123
Si Si3 0.269462 0.126615 0.000000
Si Si4 0.779436 0.548196 0.108856
Si Si5 0.589059 0.262980 0.500000
Si Si6 0.231695 0.914628 0.285494
Si Si7 0.601363 0.847965 0.266449
Si Si8 0.424189 0.935207 0.864178
O O1 0.500000 0.643118 0.750000
O O2 0.592083 0.592083 0.673010
O O3 0.468891 0.714126 0.655999
O O4 0.599900 0.750070 0.712740
O O5 0.165146 0.361032 0.112021
O O6 0.067808 0.238844 0.154759
O O7 0.994291 0.362687 0.102581
O O8 0.081566 0.252790 0.052728
O O9 0.211125 0.211125 0.000000
O O10 0.367664 0.165637 0.000000
O O11 0.733470 0.543503 0.054507
O O12 0.851602 0.471427 0.112546
O O13 0.661195 0.338806 0.500000
O O14 0.154885 0.845116 0.275505
O O15 0.326043 0.870244 0.273767
O O16 0.221899 0.000000 0.250000
O O17 0.500000 0.863581 0.250000
O O18 0.623888 0.907294 0.313881
O O19 0.500000 0.000000 0.847002
#
# Coordination Sequence:
#
# PCOD9567024 Si02
#       8
#    16  16   8  16   8  16  16  16
#     4  10  20  34  50  72 102 136 180 231 278 324
#     4  10  18  33  53  79 107 140 175 223 277 329
#     4   9  18  31  49  74 105 137 174 217 267 321
#     4   9  19  32  52  78 104 138 177 222 280 335
#     4   9  18  33  50  71 105 145 179 220 273 337
#     4  12  24  36  54  81 116 155 189 222 272 338
#     4  10  19  32  54  81 108 140 175 226 282 340
#     4   9  16  27  48  78 106 128 165 215 275 330
#
# _framework density 17.893151
#
# number of rings (size 3 to 8) (size 9 to 14) (size 15 to 20)
#    0.000    2.143    1.429    4.286    0.000    2.000 
#    0.000    3.214    0.000    0.429    0.000    0.500 
#    0.000    1.714    0.000    0.000    0.000    0.000 
#
# Total GULP energy -623491.866919 kJ/mol
# GULP energy per Si atom -5566.891669 kJ/mol
# Density = 1.785243 g / cm^3
# Si number density = 17.893151 Si / 1000 Ang^3
#
#
#
# Elastic Constant Matrix: (Units=GPa)
#
#
# Indices 1 2 3 4 5 6 
#
# 1 44.9750 32.8646 32.1400 0.0000 0.0000 0.0000
# 2 32.8646 44.9752 32.1401 0.0000 0.0000 0.0000
# 3 32.1400 32.1401 145.0242 0.0000 0.0000 0.0000
# 4 0.0000 0.0000 0.0000 14.5046 0.0000 0.0000
# 5 0.0000 0.0000 0.0000 0.0000 14.5031 0.0000
# 6 0.0000 0.0000 0.0000 0.0000 0.0000 3.9665
#
#
#
# Elastic Compliance Matrix: (Units=1/GPa)
#
#
# Indices 1 2 3 4 5 6 
#
# 1 0.049149 -0.033424 -0.003485 0.000000 0.000000 0.000000
# 2 -0.033424 0.049149 -0.003485 0.000000 0.000000 0.000000
# 3 -0.003485 -0.003485 0.008440 0.000000 0.000000 0.000000
# 4 0.000000 0.000000 0.000000 0.068944 0.000000 0.000000
# 5 0.000000 0.000000 0.000000 0.000000 0.068951 0.000000
# 6 0.000000 0.000000 0.000000 0.000000 0.000000 0.252112
#
#
# Mechanical properties :
#
#
# Convention : Reuss Voigt Hill
#
# Bulk Modulus (GPa) = 38.53573 47.69599 43.11586
# Shear Modulus (GPa) = 8.52978 15.78349 12.15663
#
# Velocity S-wave (km/s) = 2.18573 2.97323 2.60936
# Velocity P-wave (km/s) = 5.28708 6.20489 5.76428
#
# Compressibility (1/GPa) = 0.02594994
#
# Stress axis : x y z
#
# Youngs Moduli (GPa) = 20.34629 20.34637 118.48297
#
# Poissons Ratio (x) = 0.68006 0.41290
# Poissons Ratio (y) = 0.68006 0.41290
# Poissons Ratio (z) = 0.07090 0.07091
#
# Static dielectric constant tensor:
#      x y z
#    x 1.643010 0.000000 0.000000 
#    y 0.000000 1.643010 0.000000 
#    z 0.000000 0.000000 1.656540 
# 
# From -- ./inp_files/10103.got.cif
#   From: 2010.05.17/outbox.cif.g08.bks.cpg/sg132_6_cif.got.tgz:10103.got - 2010.05.20 12:30:18.
