data_PCOD9567974
_publ_section_title
;
Structure prediction by ZEFSAII (Michael W. Deem and Ramdas Pophale) SiO2 
 PCOD9567974
Probable space group: P 42/N B C
;
_chemical_formula_sum "Si O2"
_cell_formula_units_Z 96
_cell_length_a 15.856227
_cell_length_b 15.856227
_cell_length_c 20.075091
_cell_angle_alpha 90.000000
_cell_angle_beta 90.000000
_cell_angle_gamma 90.000000
_cell_volume 5047.278068
_symmetry_space_group_name_H-M "P 42/N B C"
_symmetry_group_IT_number 133
_space_group.IT_coordinate_system_code '2'
_symmetry_cell_setting 'tetragonal'
loop_
_space_group_symop_operation_xyz
x,y,z
1/2-y,x,1/2+z
1/2-x,1/2-y,z
y,1/2-x,1/2+z
x,1/2-y,-z
1/2-x,y,-z
y,x,1/2-z
1/2-y,1/2-x,1/2-z
-x,-y,-z
1/2+y,-x,1/2-z
1/2+x,1/2+y,-z
-y,1/2+x,1/2-z
-x,1/2+y,z
1/2+x,-y,z
-y,-x,1/2+z
1/2+y,1/2+x,1/2+z
loop_
_atom_site_type_symbol
_atom_site_label
_atom_site_fract_x
_atom_site_fract_y
_atom_site_fract_z
Si Si1 0.705638 0.938545 0.238426
Si Si2 0.442615 0.515588 0.180717
Si Si3 0.250000 0.012392 0.500000
Si Si4 0.934139 0.939703 0.962040
Si Si5 0.664122 0.798104 0.634967
Si Si6 0.250000 0.074447 0.000000
Si Si7 0.196626 0.005847 0.637343
O O1 0.638114 0.861886 0.250000
O O2 0.781548 0.899029 0.196094
O O3 0.735451 0.984850 0.304503
O O4 0.656124 0.006031 0.194975
O O5 0.488213 0.488213 0.250000
O O6 0.453974 0.455218 0.116220
O O7 0.467639 0.609482 0.161925
O O8 0.339397 0.058380 0.520042
O O9 0.227072 0.965282 0.568462
O O10 0.840283 0.969004 0.985253
O O11 0.000000 0.000000 0.000000
O O12 0.750000 0.750000 0.651848
O O13 0.628885 0.760651 0.566829
O O14 0.679396 0.895590 0.622545
#
# Coordination Sequence:
#
# PCOD9567974 Si02
#       7
#    16  16   8  16  16   8  16
#     4  11  22  37  58  89 125 166 209 266 320 387
#     4  11  23  42  61  88 135 172 217 267 317 397
#     4  12  22  39  64  95 136 172 210 271 330 405
#     4  12  24  43  65 100 136 177 221 269 336 400
#     4  12  21  33  56  90 130 161 202 254 324 403
#     4  12  23  36  62  93 134 170 210 265 330 397
#     4  12  24  38  62  95 123 172 214 261 338 395
#
# _framework density 19.020154000000002
#
# number of rings (size 3 to 8) (size 9 to 14) (size 15 to 20)
#    0.000    0.333    6.667    4.750    0.000    0.000 
#    0.000    0.000    0.000    1.000    0.000    0.000 
#    0.000    0.000    0.000    0.000    0.000    0.000 
#
# Total GULP energy -535294.764419 kJ/mol
# GULP energy per Si atom -5575.987129 kJ/mol
# Density = 1.897686 g / cm^3
# Si number density = 19.020154 Si / 1000 Ang^3
#
#
#
# Elastic Constant Matrix: (Units=GPa)
#
#
# Indices 1 2 3 4 5 6 
#
# 1 67.2871 44.3352 33.8884 0.0000 0.0000 0.0000
# 2 44.3352 67.2872 33.8886 0.0000 0.0000 0.0000
# 3 33.8884 33.8886 156.5321 0.0000 0.0000 0.0000
# 4 0.0000 0.0000 0.0000 50.0046 0.0000 0.0000
# 5 0.0000 0.0000 0.0000 0.0000 50.0018 0.0000
# 6 0.0000 0.0000 0.0000 0.0000 0.0000 26.5566
#
#
#
# Elastic Compliance Matrix: (Units=1/GPa)
#
#
# Indices 1 2 3 4 5 6 
#
# 1 0.026942 -0.016627 -0.002233 0.000000 0.000000 0.000000
# 2 -0.016627 0.026942 -0.002233 0.000000 0.000000 0.000000
# 3 -0.002233 -0.002233 0.007355 0.000000 0.000000 0.000000
# 4 0.000000 0.000000 0.000000 0.019998 0.000000 0.000000
# 5 0.000000 0.000000 0.000000 0.000000 0.019999 0.000000
# 6 0.000000 0.000000 0.000000 0.000000 0.000000 0.037655
#
#
# Mechanical properties :
#
#
# Convention : Reuss Voigt Hill
#
# Bulk Modulus (GPa) = 52.48673 57.25899 54.87286
# Shear Modulus (GPa) = 26.67666 37.24556 31.96111
#
# Velocity S-wave (km/s) = 3.74912 4.42997 4.10369
# Velocity P-wave (km/s) = 6.81149 7.50573 7.16702
#
# Compressibility (1/GPa) = 0.01905243
#
# Stress axis : x y z
#
# Youngs Moduli (GPa) = 37.11683 37.11685 135.95500
#
# Poissons Ratio (x) = 0.61715 0.30360
# Poissons Ratio (y) = 0.61715 0.30360
# Poissons Ratio (z) = 0.08288 0.08289
#
# Static dielectric constant tensor:
#      x y z
#    x 1.684430 0.000000 0.000000 
#    y 0.000000 1.684430 0.000000 
#    z 0.000000 0.000000 1.833040 
# 
# From -- ./inp_files/6576.got.cif
#   From: 2010.05.17/outbox.cif.g08.bks.cpg/sg133_4_cif.got.tgz:6576.got - 2010.05.20 12:37:36.
