data_PCOD9567916
_publ_section_title
;
Structure prediction by ZEFSAII (Michael W. Deem and Ramdas Pophale) SiO2 
 PCOD9567916
Probable space group: P 42/N B C
;
_chemical_formula_sum "Si O2"
_cell_formula_units_Z 56
_cell_length_a 12.361459
_cell_length_b 12.361459
_cell_length_c 17.768449
_cell_angle_alpha 90.000000
_cell_angle_beta 90.000000
_cell_angle_gamma 90.000000
_cell_volume 2715.119730
_symmetry_space_group_name_H-M "P 42/N B C"
_symmetry_group_IT_number 133
_space_group.IT_coordinate_system_code '2'
_symmetry_cell_setting 'tetragonal'
loop_
_space_group_symop_operation_xyz
x,y,z
1/2-y,x,1/2+z
1/2-x,1/2-y,z
y,1/2-x,1/2+z
x,1/2-y,-z
1/2-x,y,-z
y,x,1/2-z
1/2-y,1/2-x,1/2-z
-x,-y,-z
1/2+y,-x,1/2-z
1/2+x,1/2+y,-z
-y,1/2+x,1/2-z
-x,1/2+y,z
1/2+x,-y,z
-y,-x,1/2+z
1/2+y,1/2+x,1/2+z
loop_
_atom_site_type_symbol
_atom_site_label
_atom_site_fract_x
_atom_site_fract_y
_atom_site_fract_z
Si Si1 0.880633 0.129122 0.627988
Si Si2 0.614363 0.823478 0.166409
Si Si3 0.795708 0.892876 0.084153
Si Si4 0.250000 0.750000 0.750000
Si Si5 0.750000 0.250000 0.500000
O O1 0.005196 0.129983 0.602563
O O2 0.846644 0.209119 0.696017
O O3 0.842532 0.011644 0.655509
O O4 0.648015 0.788475 0.876248
O O5 0.661786 0.838215 0.250000
O O6 0.681925 0.916226 0.124738
O O7 0.750000 0.875249 0.000000
O O8 0.673339 0.318839 0.054662
#
# Coordination Sequence:
#
# PCOD9567916 Si02
#       5
#    16  16  16   4   4
#     4  11  24  44  69  97 141 185 229 290 366 410
#     4  11  25  42  69 101 140 183 232 292 346 434
#     4  11  24  44  68 104 138 180 237 290 348 426
#     4  10  24  42  64 102 140 170 240 294 332 442
#     4  10  24  42  64 106 136 182 240 298 340 450
#
# _framework density 20.625240000000002
#
# number of rings (size 3 to 8) (size 9 to 14) (size 15 to 20)
#    0.000    1.143    1.429    5.143    4.000   10.286 
#    0.000    0.000    0.000    0.000    0.000    0.000 
#    0.000    0.000    0.000    0.000    0.000    0.000 
#
# Total GULP energy -311897.214968 kJ/mol
# GULP energy per Si atom -5569.593124 kJ/mol
# Density = 2.057830 g / cm^3
# Si number density = 20.625240 Si / 1000 Ang^3
#
#
#
# Elastic Constant Matrix: (Units=GPa)
#
#
# Indices 1 2 3 4 5 6 
#
# 1 133.2447 40.5114 55.9523 0.0000 0.0000 0.0000
# 2 40.5114 133.2453 55.9525 0.0000 0.0000 0.0000
# 3 55.9523 55.9525 189.7321 0.0000 0.0000 0.0000
# 4 0.0000 0.0000 0.0000 3.7940 0.0000 0.0000
# 5 0.0000 0.0000 0.0000 0.0000 3.7948 0.0000
# 6 0.0000 0.0000 0.0000 0.0000 0.0000 20.1541
#
#
#
# Elastic Compliance Matrix: (Units=1/GPa)
#
#
# Indices 1 2 3 4 5 6 
#
# 1 0.008944 -0.001840 -0.002095 0.000000 0.000000 0.000000
# 2 -0.001840 0.008944 -0.002095 0.000000 0.000000 0.000000
# 3 -0.002095 -0.002095 0.006506 0.000000 0.000000 0.000000
# 4 0.000000 0.000000 0.000000 0.263574 0.000000 0.000000
# 5 0.000000 0.000000 0.000000 0.000000 0.263517 0.000000
# 6 0.000000 0.000000 0.000000 0.000000 0.000000 0.049618
#
#
# Mechanical properties :
#
#
# Convention : Reuss Voigt Hill
#
# Bulk Modulus (GPa) = 81.07142 84.56160 82.81651
# Shear Modulus (GPa) = 8.10013 25.80231 16.95122
#
# Velocity S-wave (km/s) = 1.98389 3.54079 2.86993
# Velocity P-wave (km/s) = 6.68132 7.60292 7.15697
#
# Compressibility (1/GPa) = 0.01233480
#
# Stress axis : x y z
#
# Youngs Moduli (GPa) = 111.80596 111.80638 153.69698
#
# Poissons Ratio (x) = 0.20567 0.32202
# Poissons Ratio (y) = 0.20567 0.32202
# Poissons Ratio (z) = 0.23425 0.23425
#
# Static dielectric constant tensor:
#      x y z
#    x 1.771560 0.000000 0.000000 
#    y 0.000000 1.771560 0.000000 
#    z 0.000000 0.000000 -0.209600 
# 
# From -- ./inp_files/5139.got.cif
#   From: 2010.05.17/outbox.cif.g08.bks.cpg/sg133_3_cif.got.tgz:5139.got - 2010.05.20 12:37:36.
