data_PCOD9567952
_publ_section_title
;
Structure prediction by ZEFSAII (Michael W. Deem and Ramdas Pophale) SiO2 
 PCOD9567952
Probable space group: P 42/N B C
;
_chemical_formula_sum "Si O2"
_cell_formula_units_Z 80
_cell_length_a 16.704074
_cell_length_b 16.704074
_cell_length_c 15.041324
_cell_angle_alpha 90.000000
_cell_angle_beta 90.000000
_cell_angle_gamma 90.000000
_cell_volume 4196.921797
_symmetry_space_group_name_H-M "P 42/N B C"
_symmetry_group_IT_number 133
_space_group.IT_coordinate_system_code '2'
_symmetry_cell_setting 'tetragonal'
loop_
_space_group_symop_operation_xyz
x,y,z
1/2-y,x,1/2+z
1/2-x,1/2-y,z
y,1/2-x,1/2+z
x,1/2-y,-z
1/2-x,y,-z
y,x,1/2-z
1/2-y,1/2-x,1/2-z
-x,-y,-z
1/2+y,-x,1/2-z
1/2+x,1/2+y,-z
-y,1/2+x,1/2-z
-x,1/2+y,z
1/2+x,-y,z
-y,-x,1/2+z
1/2+y,1/2+x,1/2+z
loop_
_atom_site_type_symbol
_atom_site_label
_atom_site_fract_x
_atom_site_fract_y
_atom_site_fract_z
Si Si1 0.534541 0.340511 0.170835
Si Si2 0.942823 0.146715 0.368905
Si Si3 0.188045 0.986254 0.582115
Si Si4 0.435064 0.066507 0.973825
Si Si5 0.834471 0.216948 0.602325
O O1 0.534965 0.376837 0.268872
O O2 0.507237 0.247561 0.164911
O O3 0.472943 0.388570 0.110176
O O4 0.623723 0.342674 0.126220
O O5 0.871128 0.088689 0.402866
O O6 0.907740 0.234859 0.357237
O O7 0.015445 0.139751 0.438814
O O8 0.250000 0.971527 0.500000
O O9 0.132244 0.060885 0.552496
O O10 0.500000 0.000000 0.000000
O O11 0.750000 0.250000 0.638590
O O12 0.835809 0.250000 0.500000
#
# Coordination Sequence:
#
# PCOD9567952 Si02
#       5
#    16  16  16  16  16
#     4  11  20  31  49  74 103 138 183 229 279 320
#     4  11  20  31  47  75 105 138 182 233 266 319
#     4   9  17  32  49  66  96 144 185 215 264 342
#     4   9  19  33  50  65  99 145 185 212 261 330
#     4  11  21  30  48  71 107 143 180 216 269 336
#
# _framework density 19.061589999999999
#
# number of rings (size 3 to 8) (size 9 to 14) (size 15 to 20)
#    0.000    1.800    2.000    5.400    2.800    0.000 
#    0.000    0.000    0.000    0.000    0.000    0.000 
#    0.000  133.600    0.000  170.400    0.000    0.000 
#
# Total GULP energy -445364.218303 kJ/mol
# GULP energy per Si atom -5567.052729 kJ/mol
# Density = 1.901820 g / cm^3
# Si number density = 19.061590 Si / 1000 Ang^3
#
#
#
# Elastic Constant Matrix: (Units=GPa)
#
#
# Indices 1 2 3 4 5 6 
#
# 1 57.9949 30.2721 3.4984 0.0000 0.0000 0.0000
# 2 30.2721 57.9949 3.4984 0.0000 0.0000 0.0000
# 3 3.4984 3.4984 53.1886 0.0000 0.0000 0.0000
# 4 0.0000 0.0000 0.0000 15.7853 0.0000 0.0000
# 5 0.0000 0.0000 0.0000 0.0000 15.7853 0.0000
# 6 0.0000 0.0000 0.0000 0.0000 0.0000 20.2945
#
#
#
# Elastic Compliance Matrix: (Units=1/GPa)
#
#
# Indices 1 2 3 4 5 6 
#
# 1 0.023730 -0.012341 -0.000749 0.000000 0.000000 0.000000
# 2 -0.012341 0.023730 -0.000749 0.000000 0.000000 0.000000
# 3 -0.000749 -0.000749 0.018900 0.000000 0.000000 0.000000
# 4 0.000000 0.000000 0.000000 0.063350 0.000000 0.000000
# 5 0.000000 0.000000 0.000000 0.000000 0.063350 0.000000
# 6 0.000000 0.000000 0.000000 0.000000 0.000000 0.049275
#
#
# Mechanical properties :
#
#
# Convention : Reuss Voigt Hill
#
# Bulk Modulus (GPa) = 25.85278 27.07957 26.46617
# Shear Modulus (GPa) = 17.67368 19.16699 18.42034
#
# Velocity S-wave (km/s) = 3.04828 3.17445 3.11200
# Velocity P-wave (km/s) = 5.09721 5.26055 5.17952
#
# Compressibility (1/GPa) = 0.03868056
#
# Stress axis : x y z
#
# Youngs Moduli (GPa) = 42.14071 42.14071 52.91126
#
# Poissons Ratio (x) = 0.52007 0.03963
# Poissons Ratio (y) = 0.52007 0.03963
# Poissons Ratio (z) = 0.03157 0.03157
#
# Static dielectric constant tensor:
#      x y z
#    x 1.808190 0.000000 0.000000 
#    y 0.000000 1.808190 0.000000 
#    z 0.000000 0.000000 1.792960 
# 
# From -- ./inp_files/4325.got.cif
#   From: 2010.05.17/outbox.cif.g08.bks.cpg/sg133_3_cif.got.tgz:4325.got - 2010.05.20 12:37:36.
