data_PCOD9567668
_publ_section_title
;
Structure prediction by ZEFSAII (Michael W. Deem and Ramdas Pophale) SiO2 
 PCOD9567668
Probable space group: P 42/N B C
;
_chemical_formula_sum "Si O2"
_cell_formula_units_Z 112
_cell_length_a 15.226118
_cell_length_b 15.226118
_cell_length_c 28.339250
_cell_angle_alpha 90.000000
_cell_angle_beta 90.000000
_cell_angle_gamma 90.000000
_cell_volume 6570.020653
_symmetry_space_group_name_H-M "P 42/N B C"
_symmetry_group_IT_number 133
_space_group.IT_coordinate_system_code '2'
_symmetry_cell_setting 'tetragonal'
loop_
_space_group_symop_operation_xyz
x,y,z
1/2-y,x,1/2+z
1/2-x,1/2-y,z
y,1/2-x,1/2+z
x,1/2-y,-z
1/2-x,y,-z
y,x,1/2-z
1/2-y,1/2-x,1/2-z
-x,-y,-z
1/2+y,-x,1/2-z
1/2+x,1/2+y,-z
-y,1/2+x,1/2-z
-x,1/2+y,z
1/2+x,-y,z
-y,-x,1/2+z
1/2+y,1/2+x,1/2+z
loop_
_atom_site_type_symbol
_atom_site_label
_atom_site_fract_x
_atom_site_fract_y
_atom_site_fract_z
Si Si1 0.974120 0.230996 0.943894
Si Si2 0.232640 0.000801 0.947843
Si Si3 0.638653 0.151714 0.802930
Si Si4 0.848979 0.359298 0.194393
Si Si5 0.583259 0.431890 0.603760
Si Si6 0.200468 0.329189 0.449403
Si Si7 0.909140 0.053003 0.899770
O O1 0.950317 0.321041 0.917983
O O2 0.920759 0.144195 0.928848
O O3 0.074223 0.208857 0.929144
O O4 0.967704 0.250000 0.000000
O O5 0.198045 0.099954 0.954406
O O6 0.157262 0.949848 0.920336
O O7 0.322996 0.995725 0.919269
O O8 0.250000 0.963566 0.000000
O O9 0.742986 0.135617 0.810346
O O10 0.626290 0.256336 0.811143
O O11 0.616705 0.130980 0.748617
O O12 0.584639 0.096981 0.840781
O O13 0.893996 0.417222 0.154256
O O14 0.512625 0.508681 0.594536
O O15 0.250000 0.250000 0.423110
O O16 0.250000 0.336182 0.500000
#
# Coordination Sequence:
#
# PCOD9567668 Si02
#       7
#    16  16  16  16  16  16  16
#     4  11  24  39  56  83 122 161 196 244 289 340
#     4  12  24  38  58  87 120 160 204 247 286 350
#     4   9  18  37  63  85 110 148 192 243 303 369
#     4   9  18  37  63  85 110 148 192 243 305 363
#     4  12  24  38  60  90 118 153 203 247 300 354
#     4  10  19  38  60  76 109 163 211 234 277 339
#     4  12  24  38  60  90 119 153 202 249 299 352
#
# _framework density 17.047131
#
# number of rings (size 3 to 8) (size 9 to 14) (size 15 to 20)
#    0.000    1.286    5.714    2.571    2.000    2.286 
#    0.000    1.429    0.000    0.000    0.000    0.000 
#    0.000    9.143    0.000    0.000    0.000    0.000 
#
# Total GULP energy -624773.223069 kJ/mol
# GULP energy per Si atom -5578.332349 kJ/mol
# Density = 1.700833 g / cm^3
# Si number density = 17.047131 Si / 1000 Ang^3
#
#
#
# Elastic Constant Matrix: (Units=GPa)
#
#
# Indices 1 2 3 4 5 6 
#
# 1 84.7507 28.7609 36.1940 0.0000 0.0000 0.0000
# 2 28.7609 84.7507 36.1940 0.0000 0.0000 0.0000
# 3 36.1940 36.1940 98.3097 0.0000 0.0000 0.0000
# 4 0.0000 0.0000 0.0000 16.4809 0.0000 0.0000
# 5 0.0000 0.0000 0.0000 0.0000 16.4809 0.0000
# 6 0.0000 0.0000 0.0000 0.0000 0.0000 27.4860
#
#
#
# Elastic Compliance Matrix: (Units=1/GPa)
#
#
# Indices 1 2 3 4 5 6 
#
# 1 0.014687 -0.003174 -0.004239 0.000000 0.000000 0.000000
# 2 -0.003174 0.014687 -0.004239 0.000000 0.000000 0.000000
# 3 -0.004239 -0.004239 0.013293 0.000000 0.000000 0.000000
# 4 0.000000 0.000000 0.000000 0.060676 0.000000 0.000000
# 5 0.000000 0.000000 0.000000 0.000000 0.060676 0.000000
# 6 0.000000 0.000000 0.000000 0.000000 0.000000 0.036382
#
#
# Mechanical properties :
#
#
# Convention : Reuss Voigt Hill
#
# Bulk Modulus (GPa) = 51.64213 52.23435 51.93824
# Shear Modulus (GPa) = 21.72427 23.20036 22.46232
#
# Velocity S-wave (km/s) = 3.57370 3.69311 3.63390
# Velocity P-wave (km/s) = 6.88389 6.99236 6.93834
#
# Compressibility (1/GPa) = 0.01936403
#
# Stress axis : x y z
#
# Youngs Moduli (GPa) = 68.08963 68.08963 75.22820
#
# Poissons Ratio (x) = 0.21611 0.31886
# Poissons Ratio (y) = 0.21611 0.31886
# Poissons Ratio (z) = 0.28860 0.28860
#
# Static dielectric constant tensor:
#      x y z
#    x 1.590620 0.000000 0.000000 
#    y 0.000000 1.590620 0.000000 
#    z 0.000000 0.000000 1.577310 
# 
# From -- ./inp_files/7646.got.cif
#   From: 2010.05.17/outbox.cif.g08.bks.cpg/sg133_4_cif.got.tgz:7646.got - 2010.05.20 12:37:36.
