data_PCOD9567802
_publ_section_title
;
Structure prediction by ZEFSAII (Michael W. Deem and Ramdas Pophale) SiO2 
 PCOD9567802
Probable space group: P 42/N B C
;
_chemical_formula_sum "Si O2"
_cell_formula_units_Z 100
_cell_length_a 14.682458
_cell_length_b 14.682458
_cell_length_c 22.697107
_cell_angle_alpha 90.000000
_cell_angle_beta 90.000000
_cell_angle_gamma 90.000000
_cell_volume 4892.919148
_symmetry_space_group_name_H-M "P 42/N B C"
_symmetry_group_IT_number 133
_space_group.IT_coordinate_system_code '2'
_symmetry_cell_setting 'tetragonal'
loop_
_space_group_symop_operation_xyz
x,y,z
1/2-y,x,1/2+z
1/2-x,1/2-y,z
y,1/2-x,1/2+z
x,1/2-y,-z
1/2-x,y,-z
y,x,1/2-z
1/2-y,1/2-x,1/2-z
-x,-y,-z
1/2+y,-x,1/2-z
1/2+x,1/2+y,-z
-y,1/2+x,1/2-z
-x,1/2+y,z
1/2+x,-y,z
-y,-x,1/2+z
1/2+y,1/2+x,1/2+z
loop_
_atom_site_type_symbol
_atom_site_label
_atom_site_fract_x
_atom_site_fract_y
_atom_site_fract_z
Si Si1 0.742948 0.007116 0.070650
Si Si2 0.328158 0.121705 0.163619
Si Si3 0.089501 0.546798 0.239453
Si Si4 0.986480 0.317696 0.138871
Si Si5 0.028370 0.995766 0.067949
Si Si6 0.750000 0.750000 0.750000
Si Si7 0.362365 0.889692 0.624816
O O1 0.635435 0.998960 0.081405
O O2 0.796500 0.095987 0.097284
O O3 0.790118 0.922075 0.103946
O O4 0.750000 0.007008 0.000000
O O5 0.406837 0.198182 0.154787
O O6 0.253834 0.164367 0.206482
O O7 0.371382 0.038218 0.200896
O O8 0.140357 0.555699 0.301262
O O9 0.106560 0.629648 0.195771
O O10 0.985163 0.514838 0.250000
O O11 0.997726 0.397641 0.092160
O O12 0.923510 0.239240 0.112550
O O13 0.969166 0.071379 0.100995
O O14 0.000000 0.000000 0.000000
#
# Coordination Sequence:
#
# PCOD9567802 Si02
#       7
#    16  16  16  16  16   4  16
#     4  11  23  46  69  94 140 183 233 284 347 409
#     4  10  21  39  64  98 141 174 222 297 344 415
#     4   9  17  41  61  91 138 176 212 279 338 403
#     4  11  22  43  66  99 141 175 229 283 344 422
#     4  12  24  44  71  97 132 188 231 282 345 415
#     4  12  20  36  62 104 136 172 236 284 362 412
#     4  11  24  42  69 103 133 182 230 285 349 410
#
# _framework density 20.437698000000001
#
# number of rings (size 3 to 8) (size 9 to 14) (size 15 to 20)
#    0.000    1.280    8.800    0.000    2.240    3.840 
#    1.440    1.200    0.000    0.000    0.000    0.000 
#    0.000    0.000    0.000    0.000    0.000    0.000 
#
# Total GULP energy -557439.963079 kJ/mol
# GULP energy per Si atom -5574.399631 kJ/mol
# Density = 2.039118 g / cm^3
# Si number density = 20.437698 Si / 1000 Ang^3
#
#
#
# Elastic Constant Matrix: (Units=GPa)
#
#
# Indices 1 2 3 4 5 6 
#
# 1 68.2884 0.8800 28.3846 0.0000 0.0000 0.0000
# 2 0.8800 68.2877 28.3847 0.0000 0.0000 0.0000
# 3 28.3846 28.3847 134.2443 0.0000 0.0000 0.0000
# 4 0.0000 0.0000 0.0000 14.7155 0.0000 0.0000
# 5 0.0000 0.0000 0.0000 0.0000 14.7155 0.0000
# 6 0.0000 0.0000 0.0000 0.0000 0.0000 25.4465
#
#
#
# Elastic Compliance Matrix: (Units=1/GPa)
#
#
# Indices 1 2 3 4 5 6 
#
# 1 0.016164 0.001329 -0.003699 0.000000 0.000000 0.000000
# 2 0.001329 0.016164 -0.003699 0.000000 0.000000 0.000000
# 3 -0.003699 -0.003699 0.009013 0.000000 0.000000 0.000000
# 4 0.000000 0.000000 0.000000 0.067956 0.000000 0.000000
# 5 0.000000 0.000000 0.000000 0.000000 0.067955 0.000000
# 6 0.000000 0.000000 0.000000 0.000000 0.000000 0.039298
#
#
# Mechanical properties :
#
#
# Convention : Reuss Voigt Hill
#
# Bulk Modulus (GPa) = 34.24107 42.90211 38.57159
# Shear Modulus (GPa) = 20.97117 25.18691 23.07904
#
# Velocity S-wave (km/s) = 3.20676 3.51433 3.36406
# Velocity P-wave (km/s) = 5.52280 6.12410 5.83120
#
# Compressibility (1/GPa) = 0.02920469
#
# Stress axis : x y z
#
# Youngs Moduli (GPa) = 61.86565 61.86485 110.94779
#
# Poissons Ratio (x) = -0.08223 0.41037
# Poissons Ratio (y) = -0.08223 0.41038
# Poissons Ratio (z) = 0.22883 0.22883
#
# Static dielectric constant tensor:
#      x y z
#    x 1.812770 0.000000 0.000000 
#    y 0.000000 1.812760 0.000000 
#    z 0.000000 0.000000 1.785110 
# 
# From -- ./inp_files/7176.got.cif
#   From: 2010.05.17/outbox.cif.g08.bks.cpg/sg133_4_cif.got.tgz:7176.got - 2010.05.20 12:37:36.
