data_PCOD9567219
_publ_section_title
;
Structure prediction by ZEFSAII (Michael W. Deem and Ramdas Pophale) SiO2 
 PCOD9567219
Probable space group: P 42/M C M
;
_chemical_formula_sum "Si O2"
_cell_formula_units_Z 96
_cell_length_a 25.517193
_cell_length_b 25.517193
_cell_length_c 8.881210
_cell_angle_alpha 90.000000
_cell_angle_beta 90.000000
_cell_angle_gamma 90.000000
_cell_volume 5782.796855
_symmetry_space_group_name_H-M "P 42/M C M"
_symmetry_group_IT_number 132
_symmetry_cell_setting 'tetragonal'
loop_
_space_group_symop_operation_xyz
x,y,z
-y,x,1/2+z
-x,-y,z
y,-x,1/2+z
x,-y,1/2-z
-x,y,1/2-z
y,x,-z
-y,-x,-z
-x,-y,-z
y,-x,1/2-z
x,y,-z
-y,x,1/2-z
-x,y,1/2+z
x,-y,1/2+z
-y,-x,z
y,x,z
loop_
_atom_site_type_symbol
_atom_site_label
_atom_site_fract_x
_atom_site_fract_y
_atom_site_fract_z
Si Si1 0.254186 0.832808 0.818385
Si Si2 0.380891 0.947076 0.671873
Si Si3 0.054060 0.254914 0.828488
Si Si4 0.551432 0.134016 0.177975
Si Si5 0.249295 0.553544 0.679163
Si Si6 0.661254 0.249711 0.825244
O O1 0.206350 0.793651 0.779390
O O2 0.244980 0.890599 0.753570
O O3 0.307933 0.802626 0.769019
O O4 0.257095 0.835586 0.000000
O O5 0.399880 0.941092 0.500000
O O6 0.318179 0.949493 0.667012
O O7 0.399072 0.899893 0.776209
O O8 0.400494 0.000000 0.750000
O O9 0.000000 0.236430 0.750000
O O10 0.056108 0.235567 0.000000
O O11 0.500000 0.107419 0.250000
O O12 0.555165 0.189746 0.259534
O O13 0.546116 0.140390 0.000000
O O14 0.272793 0.500000 0.750000
O O15 0.250702 0.549665 0.500000
O O16 0.268468 0.610238 0.735244
O O17 0.705274 0.294727 0.823709
O O18 0.645726 0.240330 0.000000
#
# Coordination Sequence:
#
# PCOD9567219 Si02
#       6
#    16  16  16  16  16  16
#     4   9  18  32  50  72  99 130 161 195 238 288
#     4  10  20  33  46  63  84 110 147 189 234 279
#     4  10  20  32  48  68  92 122 155 193 233 278
#     4  11  21  33  47  62  82 111 148 191 237 281
#     4  11  21  33  49  69  94 124 159 197 237 283
#     4   9  18  33  52  74 101 132 163 197 242 293
#
# _framework density 16.600963
#
# number of rings (size 3 to 8) (size 9 to 14) (size 15 to 20)
#    0.000    2.000    0.000    7.000    0.000    6.333 
#    0.000    3.333    0.000    0.000    0.000    0.000 
#    0.000    0.667    0.000    7.000    0.000    3.000 
#
# Total GULP energy -535171.086834 kJ/mol
# GULP energy per Si atom -5574.698821 kJ/mol
# Density = 1.656318 g / cm^3
# Si number density = 16.600963 Si / 1000 Ang^3
#
#
#
# Elastic Constant Matrix: (Units=GPa)
#
#
# Indices 1 2 3 4 5 6 
#
# 1 68.8095 9.0580 28.1412 0.0000 0.0000 0.0000
# 2 9.0580 68.8095 28.1412 0.0000 0.0000 0.0000
# 3 28.1412 28.1412 103.4830 0.0000 0.0000 0.0000
# 4 0.0000 0.0000 0.0000 50.6428 0.0000 0.0000
# 5 0.0000 0.0000 0.0000 0.0000 50.6428 0.0000
# 6 0.0000 0.0000 0.0000 0.0000 0.0000 8.8491
#
#
#
# Elastic Compliance Matrix: (Units=1/GPa)
#
#
# Indices 1 2 3 4 5 6 
#
# 1 0.016360 -0.000376 -0.004347 0.000000 0.000000 0.000000
# 2 -0.000376 0.016360 -0.004347 0.000000 0.000000 0.000000
# 3 -0.004347 -0.004347 0.012028 0.000000 0.000000 0.000000
# 4 0.000000 0.000000 0.000000 0.019746 0.000000 0.000000
# 5 0.000000 0.000000 0.000000 0.000000 0.019746 0.000000
# 6 0.000000 0.000000 0.000000 0.000000 0.000000 0.113006
#
#
# Mechanical properties :
#
#
# Convention : Reuss Voigt Hill
#
# Bulk Modulus (GPa) = 37.58146 41.30920 39.44533
# Shear Modulus (GPa) = 22.29615 33.74441 28.02028
#
# Velocity S-wave (km/s) = 3.66876 4.51341 4.11283
# Velocity P-wave (km/s) = 6.37445 7.21795 6.80928
#
# Compressibility (1/GPa) = 0.02660887
#
# Stress axis : x y z
#
# Youngs Moduli (GPa) = 61.12452 61.12452 83.14273
#
# Poissons Ratio (x) = 0.02298 0.36140
# Poissons Ratio (y) = 0.02298 0.36140
# Poissons Ratio (z) = 0.26569 0.26569
#
# Static dielectric constant tensor:
#      x y z
#    x 1.603310 0.000000 0.000000 
#    y 0.000000 1.603310 0.000000 
#    z 0.000000 0.000000 1.570990 
# 
# From -- ./inp_files/1786.got.cif
#   From: 2010.05.17/outbox.cif.g08.bks.cpg/sg132_1_cif.got.tgz:1786.got - 2010.05.20 12:30:18.
