data_PCOD9567459
_publ_section_title
;
Structure prediction by ZEFSAII (Michael W. Deem and Ramdas Pophale) SiO2 
 PCOD9567459
Probable space group: P 42/M C M
;
_chemical_formula_sum "Si O2"
_cell_formula_units_Z 44
_cell_length_a 9.812723
_cell_length_b 9.812723
_cell_length_c 26.374825
_cell_angle_alpha 90.000000
_cell_angle_beta 90.000000
_cell_angle_gamma 90.000000
_cell_volume 2539.619574
_symmetry_space_group_name_H-M "P 42/M C M"
_symmetry_group_IT_number 132
_symmetry_cell_setting 'tetragonal'
loop_
_space_group_symop_operation_xyz
x,y,z
-y,x,1/2+z
-x,-y,z
y,-x,1/2+z
x,-y,1/2-z
-x,y,1/2-z
y,x,-z
-y,-x,-z
-x,-y,-z
y,-x,1/2-z
x,y,-z
-y,x,1/2-z
-x,y,1/2+z
x,-y,1/2+z
-y,-x,z
y,x,z
loop_
_atom_site_type_symbol
_atom_site_label
_atom_site_fract_x
_atom_site_fract_y
_atom_site_fract_z
Si Si1 0.884109 0.115892 0.440811
Si Si2 0.976426 0.654287 0.135233
Si Si3 0.283212 0.716789 0.705385
Si Si4 0.500000 0.500000 0.330621
Si Si5 0.723695 0.723695 0.326755
O O1 0.858932 0.141069 0.500000
O O2 0.934785 0.248975 0.411046
O O3 0.000000 0.000000 0.436223
O O4 0.857768 0.671240 0.177916
O O5 0.000000 0.500000 0.118710
O O6 0.122564 0.694779 0.156875
O O7 0.397069 0.602932 0.695949
O O8 0.276342 0.723658 0.765705
O O9 0.614005 0.614005 0.350209
#
# Coordination Sequence:
#
# PCOD9567459 Si02
#       5
#     8  16   8   4   8
#     4  10  22  43  65  85 108 142 195 250 301 352
#     4  11  23  38  59  87 115 154 194 237 292 342
#     4  11  23  35  55  85 121 160 198 231 271 338
#     4  12  23  34  54  84 121 164 197 226 270 334
#     4  12  22  37  54  84 124 158 194 234 275 330
#
# _framework density 17.325429
#
# number of rings (size 3 to 8) (size 9 to 14) (size 15 to 20)
#    0.000    0.909    5.455    2.727    0.000    2.182 
#    0.000    1.818    0.000    0.000    0.000    5.091 
#    0.000    0.000    0.000    0.000    0.000    0.000 
#
# Total GULP energy -245231.412889 kJ/mol
# GULP energy per Si atom -5573.441202 kJ/mol
# Density = 1.728600 g / cm^3
# Si number density = 17.325429 Si / 1000 Ang^3
#
#
#
# Elastic Constant Matrix: (Units=GPa)
#
#
# Indices 1 2 3 4 5 6 
#
# 1 159.4197 67.3999 50.5082 0.0000 0.0000 0.0000
# 2 67.3999 159.4196 50.5081 0.0000 0.0000 0.0000
# 3 50.5082 50.5081 70.9741 0.0000 0.0000 0.0000
# 4 0.0000 0.0000 0.0000 -18.3483 0.0000 0.0000
# 5 0.0000 0.0000 0.0000 0.0000 -18.3441 0.0000
# 6 0.0000 0.0000 0.0000 0.0000 0.0000 40.3079
#
#
#
# Elastic Compliance Matrix: (Units=1/GPa)
#
#
# Indices 1 2 3 4 5 6 
#
# 1 0.008661 -0.002206 -0.004593 0.000000 0.000000 0.000000
# 2 -0.002206 0.008661 -0.004593 0.000000 0.000000 0.000000
# 3 -0.004593 -0.004593 0.020627 0.000000 0.000000 0.000000
# 4 0.000000 0.000000 0.000000 -0.054501 0.000000 0.000000
# 5 0.000000 0.000000 0.000000 0.000000 -0.054513 0.000000
# 6 0.000000 0.000000 0.000000 0.000000 0.000000 0.024809
#
#
# Mechanical properties :
#
#
# Convention : Reuss Voigt Hill
#
# Bulk Modulus (GPa) = 65.94989 80.73841 73.34415
# Shear Modulus (GPa) = -271.49807 15.48290 -128.00759
#
# Velocity S-wave (km/s) = -12.53177 2.99264 -8.60492
# Velocity P-wave (km/s) = 13.08608 7.65790 7.50340
#
# Compressibility (1/GPa) = 0.01516303
#
# Stress axis : x y z
#
# Youngs Moduli (GPa) = 115.46227 115.46222 48.47975
#
# Poissons Ratio (x) = 0.25476 0.22268
# Poissons Ratio (y) = 0.25476 0.22268
# Poissons Ratio (z) = 0.53035 0.53035
#
# Static dielectric constant tensor:
#      x y z
#    x 1.627570 0.000000 0.000000 
#    y 0.000000 1.627570 0.000000 
#    z 0.000000 0.000000 1.549910 
# 
# From -- ./inp_files/10269.got.cif
#   From: 2010.05.17/outbox.cif.g08.bks.cpg/sg132_6_cif.got.tgz:10269.got - 2010.05.20 12:30:18.
