data_PCOD9567025
_publ_section_title
;
Structure prediction by ZEFSAII (Michael W. Deem and Ramdas Pophale) SiO2 
 PCOD9567025
Probable space group: P 42/M C M
;
_chemical_formula_sum "Si O2"
_cell_formula_units_Z 48
_cell_length_a 15.047484
_cell_length_b 15.047484
_cell_length_c 10.353408
_cell_angle_alpha 90.000000
_cell_angle_beta 90.000000
_cell_angle_gamma 90.000000
_cell_volume 2344.288781
_symmetry_space_group_name_H-M "P 42/M C M"
_symmetry_group_IT_number 132
_symmetry_cell_setting 'tetragonal'
loop_
_space_group_symop_operation_xyz
x,y,z
-y,x,1/2+z
-x,-y,z
y,-x,1/2+z
x,-y,1/2-z
-x,y,1/2-z
y,x,-z
-y,-x,-z
-x,-y,-z
y,-x,1/2-z
x,y,-z
-y,x,1/2-z
-x,y,1/2+z
x,-y,1/2+z
-y,-x,z
y,x,z
loop_
_atom_site_type_symbol
_atom_site_label
_atom_site_fract_x
_atom_site_fract_y
_atom_site_fract_z
Si Si1 0.929656 0.781695 0.500000
Si Si2 0.873964 0.728588 0.000000
Si Si3 0.716075 0.429297 0.146775
Si Si4 0.900611 0.640506 0.728120
O O1 0.870235 0.870235 0.500000
O O2 0.908610 0.723074 0.627751
O O3 0.036259 0.788357 0.500000
O O4 0.873254 0.671304 0.870441
O O5 0.789967 0.789967 0.000000
O O6 0.682260 0.500000 0.250000
O O7 0.664306 0.335695 0.163461
O O8 0.821419 0.417093 0.169260
O O9 0.700675 0.458787 0.000000
O O10 0.000000 0.603021 0.750000
#
# Coordination Sequence:
#
# PCOD9567025 Si02
#       4
#     8   8  16  16
#     4  10  18  33  55  77 116 166 210 256 311 374
#     4  10  20  31  51  85 120 158 208 262 309 362
#     4  11  25  45  69  95 127 168 210 258 317 379
#     4  10  21  38  61  91 122 161 208 256 311 370
#
# _framework density 20.475293000000001
#
# number of rings (size 3 to 8) (size 9 to 14) (size 15 to 20)
#    0.000    1.667    1.667    3.000    2.333    2.000 
#    0.000    3.333    0.000    6.000    0.000    0.000 
#    0.000    0.000    0.000    0.000    0.000    0.000 
#
# Total GULP energy -267985.649077 kJ/mol
# GULP energy per Si atom -5583.034356 kJ/mol
# Density = 2.042869 g / cm^3
# Si number density = 20.475293 Si / 1000 Ang^3
#
#
#
# Elastic Constant Matrix: (Units=GPa)
#
#
# Indices 1 2 3 4 5 6 
#
# 1 44.0810 13.7813 28.5368 0.0000 0.0000 0.0000
# 2 13.7813 44.0810 28.5368 0.0000 0.0000 0.0000
# 3 28.5368 28.5368 166.1475 0.0000 0.0000 0.0000
# 4 0.0000 0.0000 0.0000 -13.3892 0.0000 0.0000
# 5 0.0000 0.0000 0.0000 0.0000 -13.3892 0.0000
# 6 0.0000 0.0000 0.0000 0.0000 0.0000 -5.6564
#
#
#
# Elastic Compliance Matrix: (Units=1/GPa)
#
#
# Indices 1 2 3 4 5 6 
#
# 1 0.026906 -0.006098 -0.003574 0.000000 0.000000 0.000000
# 2 -0.006098 0.026906 -0.003574 0.000000 0.000000 0.000000
# 3 -0.003574 -0.003574 0.007246 0.000000 0.000000 0.000000
# 4 0.000000 0.000000 0.000000 -0.074687 0.000000 0.000000
# 5 0.000000 0.000000 0.000000 0.000000 -0.074687 0.000000
# 6 0.000000 0.000000 0.000000 0.000000 0.000000 -0.176790
#
#
# Mechanical properties :
#
#
# Convention : Reuss Voigt Hill
#
# Bulk Modulus (GPa) = 28.93000 44.00215 36.46607
# Shear Modulus (GPa) = -22.01739 5.74332 -8.13704
#
# Velocity S-wave (km/s) = -3.28276 1.67663 -1.99567
# Velocity P-wave (km/s) = 0.45691 5.02843 3.54093
#
# Compressibility (1/GPa) = 0.03456620
#
# Stress axis : x y z
#
# Youngs Moduli (GPa) = 37.16699 37.16699 137.99955
#
# Poissons Ratio (x) = 0.22665 0.49319
# Poissons Ratio (y) = 0.22665 0.49319
# Poissons Ratio (z) = 0.13283 0.13283
#
# Static dielectric constant tensor:
#      x y z
#    x 1.721120 0.000000 0.000000 
#    y 0.000000 1.721120 0.000000 
#    z 0.000000 0.000000 1.687510 
# 
# From -- ./inp_files/2795.got.cif
#   From: 2010.05.17/outbox.cif.g08.bks.cpg/sg132_2_cif.got.tgz:2795.got - 2010.05.20 12:30:18.
