data_PCOD9567232
_publ_section_title
;
Structure prediction by ZEFSAII (Michael W. Deem and Ramdas Pophale) SiO2 
 PCOD9567232
Probable space group: P 42/M C M
;
_chemical_formula_sum "Si O2"
_cell_formula_units_Z 88
_cell_length_a 19.639988
_cell_length_b 19.639988
_cell_length_c 14.355799
_cell_angle_alpha 90.000000
_cell_angle_beta 90.000000
_cell_angle_gamma 90.000000
_cell_volume 5537.449839
_symmetry_space_group_name_H-M "P 42/M C M"
_symmetry_group_IT_number 132
_symmetry_cell_setting 'tetragonal'
loop_
_space_group_symop_operation_xyz
x,y,z
-y,x,1/2+z
-x,-y,z
y,-x,1/2+z
x,-y,1/2-z
-x,y,1/2-z
y,x,-z
-y,-x,-z
-x,-y,-z
y,-x,1/2-z
x,y,-z
-y,x,1/2-z
-x,y,1/2+z
x,-y,1/2+z
-y,-x,z
y,x,z
loop_
_atom_site_type_symbol
_atom_site_label
_atom_site_fract_x
_atom_site_fract_y
_atom_site_fract_z
Si Si1 0.086907 0.797882 0.608463
Si Si2 0.155666 0.271531 0.729899
Si Si3 0.382890 0.264785 0.733156
Si Si4 0.707349 0.515085 0.888029
Si Si5 0.446397 0.553604 0.387763
Si Si6 0.822792 0.932519 0.388356
O O1 0.085022 0.778060 0.500000
O O2 0.139000 0.861000 0.617184
O O3 0.114860 0.737966 0.673800
O O4 0.011627 0.821428 0.637930
O O5 0.216054 0.216054 0.733283
O O6 0.195431 0.341310 0.715172
O O7 0.104808 0.244045 0.651093
O O8 0.328412 0.328412 0.736013
O O9 0.441202 0.276244 0.655277
O O10 0.424293 0.256664 0.830388
O O11 0.628931 0.531294 0.862941
O O12 0.716523 0.517301 0.000000
O O13 0.500000 0.500000 0.351881
O O14 0.447946 0.552055 0.500000
O O15 0.822853 0.929708 0.500000
O O16 0.888263 0.888263 0.355531
#
# Coordination Sequence:
#
# PCOD9567232 Si02
#       6
#    16  16  16  16   8  16
#     4   9  17  29  46  71 100 130 163 196 233 279
#     4   9  18  31  46  65  95 129 163 199 234 275
#     4  10  20  33  48  70  95 126 163 195 234 284
#     4  10  20  33  48  70  96 123 157 195 236 283
#     4   9  16  28  46  66  91 121 147 175 219 274
#     4   9  17  29  46  70 100 132 163 194 233 280
#
# _framework density 15.891792000000001
#
# number of rings (size 3 to 8) (size 9 to 14) (size 15 to 20)
#    0.000    2.636    0.909    1.091    0.000    2.909 
#    0.000    5.455    0.000    3.273    0.000   10.182 
#    0.000   17.455    0.000    0.000    0.000    0.000 
#
# Total GULP energy -489880.554604 kJ/mol
# GULP energy per Si atom -5566.824484 kJ/mol
# Density = 1.585562 g / cm^3
# Si number density = 15.891792 Si / 1000 Ang^3
#
#
#
# Elastic Constant Matrix: (Units=GPa)
#
#
# Indices 1 2 3 4 5 6 
#
# 1 49.8804 32.6554 4.3538 0.0000 0.0000 0.0000
# 2 32.6554 49.8805 4.3538 0.0000 0.0000 0.0000
# 3 4.3538 4.3538 54.7503 0.0000 0.0000 0.0000
# 4 0.0000 0.0000 0.0000 15.3692 0.0000 0.0000
# 5 0.0000 0.0000 0.0000 0.0000 15.3691 0.0000
# 6 0.0000 0.0000 0.0000 0.0000 0.0000 22.8226
#
#
#
# Elastic Compliance Matrix: (Units=1/GPa)
#
#
# Indices 1 2 3 4 5 6 
#
# 1 0.035137 -0.022918 -0.000972 0.000000 0.000000 0.000000
# 2 -0.022918 0.035137 -0.000972 0.000000 0.000000 0.000000
# 3 -0.000972 -0.000972 0.018419 0.000000 0.000000 0.000000
# 4 0.000000 0.000000 0.000000 0.065065 0.000000 0.000000
# 5 0.000000 0.000000 0.000000 0.000000 0.065066 0.000000
# 6 0.000000 0.000000 0.000000 0.000000 0.000000 0.043816
#
#
# Mechanical properties :
#
#
# Convention : Reuss Voigt Hill
#
# Bulk Modulus (GPa) = 25.66097 26.35968 26.01033
# Shear Modulus (GPa) = 15.36794 18.25538 16.81166
#
# Velocity S-wave (km/s) = 3.11309 3.39297 3.25604
# Velocity P-wave (km/s) = 5.39483 5.65444 5.52616
#
# Compressibility (1/GPa) = 0.03896969
#
# Stress axis : x y z
#
# Youngs Moduli (GPa) = 28.46031 28.46035 54.29093
#
# Poissons Ratio (x) = 0.65226 0.05275
# Poissons Ratio (y) = 0.65226 0.05275
# Poissons Ratio (z) = 0.02765 0.02765
#
# Static dielectric constant tensor:
#      x y z
#    x 1.528410 0.000000 0.000000 
#    y 0.000000 1.528410 0.000000 
#    z 0.000000 0.000000 1.565450 
# 
# From -- ./inp_files/4778.got.cif
#   From: 2010.05.17/outbox.cif.g08.bks.cpg/sg132_3_cif.got.tgz:4778.got - 2010.05.20 12:30:18.
