data_PCOD9567856
_publ_section_title
;
Structure prediction by ZEFSAII (Michael W. Deem and Ramdas Pophale) SiO2 
 PCOD9567856
Probable space group: P 42/N B C
;
_chemical_formula_sum "Si O2"
_cell_formula_units_Z 88
_cell_length_a 12.083736
_cell_length_b 12.083736
_cell_length_c 28.622719
_cell_angle_alpha 90.000000
_cell_angle_beta 90.000000
_cell_angle_gamma 90.000000
_cell_volume 4179.394278
_symmetry_space_group_name_H-M "P 42/N B C"
_symmetry_group_IT_number 133
_space_group.IT_coordinate_system_code '2'
_symmetry_cell_setting 'tetragonal'
loop_
_space_group_symop_operation_xyz
x,y,z
1/2-y,x,1/2+z
1/2-x,1/2-y,z
y,1/2-x,1/2+z
x,1/2-y,-z
1/2-x,y,-z
y,x,1/2-z
1/2-y,1/2-x,1/2-z
-x,-y,-z
1/2+y,-x,1/2-z
1/2+x,1/2+y,-z
-y,1/2+x,1/2-z
-x,1/2+y,z
1/2+x,-y,z
-y,-x,1/2+z
1/2+y,1/2+x,1/2+z
loop_
_atom_site_type_symbol
_atom_site_label
_atom_site_fract_x
_atom_site_fract_y
_atom_site_fract_z
Si Si1 0.639499 0.541351 0.457565
Si Si2 0.250000 0.250000 0.250000
Si Si3 0.225316 0.062831 0.368821
Si Si4 0.750000 0.750000 0.500000
Si Si5 0.850924 0.173725 0.637575
Si Si6 0.768143 0.903699 0.164841
Si Si7 0.641855 0.086134 0.966890
O O1 0.727558 0.518129 0.417753
O O2 0.674548 0.664703 0.472742
O O3 0.513062 0.565976 0.444994
O O4 0.637199 0.447247 0.496871
O O5 0.356797 0.255821 0.283531
O O6 0.334594 0.121044 0.347781
O O7 0.139412 0.165663 0.367649
O O8 0.172233 0.953312 0.347358
O O9 0.750000 0.250000 0.653416
O O10 0.858155 0.183187 0.580761
O O11 0.967707 0.214269 0.657852
O O12 0.750000 0.062936 0.000000
#
# Coordination Sequence:
#
# PCOD9567856 Si02
#       7
#    16   4  16   4  16  16  16
#     4  11  22  36  60  86 126 188 242 292 345 389
#     4   8  20  50  84 108 126 174 214 268 362 452
#     4  10  22  42  66  93 134 185 230 284 347 420
#     4  12  20  34  54  80 106 162 240 290 330 406
#     4  12  26  40  68 104 142 184 236 291 344 403
#     4  10  23  46  78 103 135 180 224 282 367 439
#     4  11  24  40  56  91 139 191 246 298 333 385
#
# _framework density 21.055682999999998
#
# number of rings (size 3 to 8) (size 9 to 14) (size 15 to 20)
#    0.000    1.455    2.727    3.273    2.545    4.727 
#    0.000    3.636    0.000    1.091    0.000    0.000 
#    0.000    0.000    0.000    0.000    0.000    0.000 
#
# Total GULP energy -490270.254031 kJ/mol
# GULP energy per Si atom -5571.252887 kJ/mol
# Density = 2.100776 g / cm^3
# Si number density = 21.055683 Si / 1000 Ang^3
#
#
#
# Elastic Constant Matrix: (Units=GPa)
#
#
# Indices 1 2 3 4 5 6 
#
# 1 144.6644 76.1661 37.8000 0.0000 0.0000 0.0000
# 2 76.1661 144.6644 37.8000 0.0000 0.0000 0.0000
# 3 37.8000 37.8000 80.6841 0.0000 0.0000 0.0000
# 4 0.0000 0.0000 0.0000 15.8547 0.0000 0.0000
# 5 0.0000 0.0000 0.0000 0.0000 15.8547 0.0000
# 6 0.0000 0.0000 0.0000 0.0000 0.0000 24.9135
#
#
#
# Elastic Compliance Matrix: (Units=1/GPa)
#
#
# Indices 1 2 3 4 5 6 
#
# 1 0.009996 -0.004603 -0.002527 0.000000 0.000000 0.000000
# 2 -0.004603 0.009996 -0.002527 0.000000 0.000000 0.000000
# 3 -0.002527 -0.002527 0.014762 0.000000 0.000000 0.000000
# 4 0.000000 0.000000 0.000000 0.063073 0.000000 0.000000
# 5 0.000000 0.000000 0.000000 0.000000 0.063073 0.000000
# 6 0.000000 0.000000 0.000000 0.000000 0.000000 0.040139
#
#
# Mechanical properties :
#
#
# Convention : Reuss Voigt Hill
#
# Bulk Modulus (GPa) = 64.76149 74.83832 69.79991
# Shear Modulus (GPa) = 22.17312 25.87435 24.02374
#
# Velocity S-wave (km/s) = 3.24863 3.50930 3.38148
# Velocity P-wave (km/s) = 6.70041 7.21391 6.96189
#
# Compressibility (1/GPa) = 0.01544127
#
# Stress axis : x y z
#
# Youngs Moduli (GPa) = 100.03860 100.03860 67.74348
#
# Poissons Ratio (x) = 0.46045 0.17117
# Poissons Ratio (y) = 0.46045 0.17117
# Poissons Ratio (z) = 0.25277 0.25277
#
# Static dielectric constant tensor:
#      x y z
#    x 1.401900 0.000000 0.000000 
#    y 0.000000 1.401900 0.000000 
#    z 0.000000 0.000000 1.891560 
# 
# From -- ./inp_files/8007.got.cif
#   From: 2010.05.17/outbox.cif.g08.bks.cpg/sg133_5_cif.got.tgz:8007.got - 2010.05.20 12:37:36.
