data_PCOD9567806
_publ_section_title
;
Structure prediction by ZEFSAII (Michael W. Deem and Ramdas Pophale) SiO2 
 PCOD9567806
Probable space group: P 42/N B C
;
_chemical_formula_sum "Si O2"
_cell_formula_units_Z 72
_cell_length_a 18.284629
_cell_length_b 18.284629
_cell_length_c 10.595561
_cell_angle_alpha 90.000000
_cell_angle_beta 90.000000
_cell_angle_gamma 90.000000
_cell_volume 3542.389091
_symmetry_space_group_name_H-M "P 42/N B C"
_symmetry_group_IT_number 133
_space_group.IT_coordinate_system_code '2'
_symmetry_cell_setting 'tetragonal'
loop_
_space_group_symop_operation_xyz
x,y,z
1/2-y,x,1/2+z
1/2-x,1/2-y,z
y,1/2-x,1/2+z
x,1/2-y,-z
1/2-x,y,-z
y,x,1/2-z
1/2-y,1/2-x,1/2-z
-x,-y,-z
1/2+y,-x,1/2-z
1/2+x,1/2+y,-z
-y,1/2+x,1/2-z
-x,1/2+y,z
1/2+x,-y,z
-y,-x,1/2+z
1/2+y,1/2+x,1/2+z
loop_
_atom_site_type_symbol
_atom_site_label
_atom_site_fract_x
_atom_site_fract_y
_atom_site_fract_z
Si Si1 0.407024 0.071833 0.103967
Si Si2 0.184519 0.645267 0.411003
Si Si3 0.594017 0.457820 0.576867
Si Si4 0.280958 0.564630 0.230395
Si Si5 0.541635 0.750000 0.500000
O O1 0.402011 0.097990 0.250000
O O2 0.327694 0.079700 0.035731
O O3 0.436557 0.988017 0.113642
O O4 0.470289 0.102989 0.010553
O O5 0.250000 0.670129 0.500000
O O6 0.353462 0.538263 0.302495
O O7 0.216399 0.578292 0.328937
O O8 0.145316 0.704283 0.325355
O O9 0.622101 0.388283 0.498409
O O10 0.262933 0.509368 0.120911
#
# Coordination Sequence:
#
# PCOD9567806 Si02
#       5
#    16  16  16  16   8
#     4  11  23  39  65  93 125 160 212 274 319 378
#     4  10  22  39  56  87 127 174 217 257 307 378
#     4  10  21  40  63  88 120 169 222 262 312 368
#     4  11  22  38  57  86 129 170 214 259 304 385
#     4  12  24  38  61  94 131 158 210 274 328 374
#
# _framework density 20.325265999999999
#
# number of rings (size 3 to 8) (size 9 to 14) (size 15 to 20)
#    0.000    1.333    2.222    4.000    6.222    0.444 
#    0.000    0.000    0.000    0.000    0.000   35.000 
#    0.000    0.000    0.000    0.000    0.000    0.000 
#
# Total GULP energy -402157.717756 kJ/mol
# GULP energy per Si atom -5585.523858 kJ/mol
# Density = 2.027900 g / cm^3
# Si number density = 20.325266 Si / 1000 Ang^3
#
#
#
# Elastic Constant Matrix: (Units=GPa)
#
#
# Indices 1 2 3 4 5 6 
#
# 1 63.4766 4.7933 18.1469 0.0000 0.0000 0.0000
# 2 4.7933 63.4762 18.1466 0.0000 0.0000 0.0000
# 3 18.1469 18.1466 93.6523 0.0000 0.0000 0.0000
# 4 0.0000 0.0000 0.0000 18.3496 0.0000 0.0000
# 5 0.0000 0.0000 0.0000 0.0000 18.3496 0.0000
# 6 0.0000 0.0000 0.0000 0.0000 0.0000 -21.8698
#
#
#
# Elastic Compliance Matrix: (Units=1/GPa)
#
#
# Indices 1 2 3 4 5 6 
#
# 1 0.016685 -0.000355 -0.003164 0.000000 0.000000 0.000000
# 2 -0.000355 0.016685 -0.003164 0.000000 0.000000 0.000000
# 3 -0.003164 -0.003164 0.011904 0.000000 0.000000 0.000000
# 4 0.000000 0.000000 0.000000 0.054497 0.000000 0.000000
# 5 0.000000 0.000000 0.000000 0.000000 0.054497 0.000000
# 6 0.000000 0.000000 0.000000 0.000000 0.000000 -0.045725
#
#
# Mechanical properties :
#
#
# Convention : Reuss Voigt Hill
#
# Bulk Modulus (GPa) = 31.34103 33.64210 32.49156
# Shear Modulus (GPa) = 37.72246 14.93376 26.32811
#
# Velocity S-wave (km/s) = 4.31274 2.71355 3.60299
# Velocity P-wave (km/s) = 6.34451 5.13864 5.77314
#
# Compressibility (1/GPa) = 0.03190706
#
# Stress axis : x y z
#
# Youngs Moduli (GPa) = 59.93312 59.93282 84.00516
#
# Poissons Ratio (x) = 0.02130 0.26581
# Poissons Ratio (y) = 0.02130 0.26581
# Poissons Ratio (z) = 0.18964 0.18964
#
# Static dielectric constant tensor:
#      x y z
#    x 1.735040 0.000000 0.000000 
#    y 0.000000 1.735040 0.000000 
#    z 0.000000 0.000000 1.718280 
# 
# From -- ./inp_files/3094.got.cif
#   From: 2010.05.17/outbox.cif.g08.bks.cpg/sg133_2_cif.got.tgz:3094.got - 2010.05.20 12:37:36.
