data_PCOD9567040
_publ_section_title
;
Structure prediction by ZEFSAII (Michael W. Deem and Ramdas Pophale) SiO2 
 PCOD9567040
Probable space group: P 42/M C M
;
_chemical_formula_sum "Si O2"
_cell_formula_units_Z 64
_cell_length_a 21.643468
_cell_length_b 21.643468
_cell_length_c 9.025169
_cell_angle_alpha 90.000000
_cell_angle_beta 90.000000
_cell_angle_gamma 90.000000
_cell_volume 4227.747523
_symmetry_space_group_name_H-M "P 42/M C M"
_symmetry_group_IT_number 132
_symmetry_cell_setting 'tetragonal'
loop_
_space_group_symop_operation_xyz
x,y,z
-y,x,1/2+z
-x,-y,z
y,-x,1/2+z
x,-y,1/2-z
-x,y,1/2-z
y,x,-z
-y,-x,-z
-x,-y,-z
y,-x,1/2-z
x,y,-z
-y,x,1/2-z
-x,y,1/2+z
x,-y,1/2+z
-y,-x,z
y,x,z
loop_
_atom_site_type_symbol
_atom_site_label
_atom_site_fract_x
_atom_site_fract_y
_atom_site_fract_z
Si Si1 0.934684 0.431778 0.320419
Si Si2 0.340933 0.160753 0.329572
Si Si3 0.854103 0.854103 0.830684
Si Si4 0.252555 0.252555 0.827697
Si Si5 0.940742 0.232929 0.166191
O O1 0.927551 0.500000 0.250000
O O2 0.939084 0.433250 0.500000
O O3 0.876155 0.391617 0.266274
O O4 0.000000 0.408393 0.250000
O O5 0.361224 0.171951 0.500000
O O6 0.311333 0.221751 0.254455
O O7 0.284404 0.112200 0.336710
O O8 0.800739 0.800739 0.826683
O O9 0.825562 0.912544 0.749251
O O10 0.867591 0.867591 0.000000
O O11 0.265963 0.265963 0.000000
O O12 0.000000 0.257556 0.250000
O O13 0.958025 0.216856 0.000000
#
# Coordination Sequence:
#
# PCOD9567040 Si02
#       5
#    16  16   8   8  16
#     4  11  21  33  47  64  88 119 154 190 226 267
#     4  10  19  31  46  65  88 113 142 178 217 257
#     4   9  17  29  43  58  78  99 123 157 198 242
#     4   9  17  29  45  65  86 110 139 174 216 259
#     4  10  19  29  43  61  80 101 127 159 199 244
#
# _framework density 15.138085
#
# number of rings (size 3 to 8) (size 9 to 14) (size 15 to 20)
#    0.000    2.000    0.000    6.000    0.000    8.000 
#    0.000    0.000    0.000    0.375    0.000    2.625 
#    0.000    0.000    0.000    0.000    0.000    0.625 
#
# Total GULP energy -356708.122284 kJ/mol
# GULP energy per Si atom -5573.564411 kJ/mol
# Density = 1.510363 g / cm^3
# Si number density = 15.138085 Si / 1000 Ang^3
#
#
#
# Elastic Constant Matrix: (Units=GPa)
#
#
# Indices 1 2 3 4 5 6 
#
# 1 47.9252 32.0941 39.3887 0.0000 0.0000 0.0000
# 2 32.0941 47.9252 39.3887 0.0000 0.0000 0.0000
# 3 39.3887 39.3887 159.6702 0.0000 0.0000 0.0000
# 4 0.0000 0.0000 0.0000 21.0401 0.0000 0.0000
# 5 0.0000 0.0000 0.0000 0.0000 21.0401 0.0000
# 6 0.0000 0.0000 0.0000 0.0000 0.0000 26.7991
#
#
#
# Elastic Compliance Matrix: (Units=1/GPa)
#
#
# Indices 1 2 3 4 5 6 
#
# 1 0.039836 -0.023331 -0.004072 0.000000 0.000000 0.000000
# 2 -0.023331 0.039836 -0.004072 0.000000 0.000000 0.000000
# 3 -0.004072 -0.004072 0.008272 0.000000 0.000000 0.000000
# 4 0.000000 0.000000 0.000000 0.047528 0.000000 0.000000
# 5 0.000000 0.000000 0.000000 0.000000 0.047528 0.000000
# 6 0.000000 0.000000 0.000000 0.000000 0.000000 0.037315
#
#
# Mechanical properties :
#
#
# Convention : Reuss Voigt Hill
#
# Bulk Modulus (GPa) = 40.00642 53.02925 46.51784
# Shear Modulus (GPa) = 17.14705 23.41915 20.28310
#
# Velocity S-wave (km/s) = 3.36923 3.93750 3.66440
# Velocity P-wave (km/s) = 6.45140 7.46849 6.97850
#
# Compressibility (1/GPa) = 0.02499599
#
# Stress axis : x y z
#
# Youngs Moduli (GPa) = 25.10284 25.10284 120.89290
#
# Poissons Ratio (x) = 0.58566 0.49224
# Poissons Ratio (y) = 0.58566 0.49224
# Poissons Ratio (z) = 0.10221 0.10221
#
# Static dielectric constant tensor:
#      x y z
#    x 1.499730 0.000000 0.000000 
#    y 0.000000 1.499730 0.000000 
#    z 0.000000 0.000000 1.524670 
# 
# From -- ./inp_files/1269.got.cif
#   From: 2010.05.17/outbox.cif.g08.bks.cpg/sg132_1_cif.got.tgz:1269.got - 2010.05.20 12:30:18.
