data_PCOD9567662
_publ_section_title
;
Structure prediction by ZEFSAII (Michael W. Deem and Ramdas Pophale) SiO2 
 PCOD9567662
Probable space group: P 42/N B C
;
_chemical_formula_sum "Si O2"
_cell_formula_units_Z 112
_cell_length_a 15.833809
_cell_length_b 15.833809
_cell_length_c 23.808582
_cell_angle_alpha 90.000000
_cell_angle_beta 90.000000
_cell_angle_gamma 90.000000
_cell_volume 5969.037866
_symmetry_space_group_name_H-M "P 42/N B C"
_symmetry_group_IT_number 133
_space_group.IT_coordinate_system_code '2'
_symmetry_cell_setting 'tetragonal'
loop_
_space_group_symop_operation_xyz
x,y,z
1/2-y,x,1/2+z
1/2-x,1/2-y,z
y,1/2-x,1/2+z
x,1/2-y,-z
1/2-x,y,-z
y,x,1/2-z
1/2-y,1/2-x,1/2-z
-x,-y,-z
1/2+y,-x,1/2-z
1/2+x,1/2+y,-z
-y,1/2+x,1/2-z
-x,1/2+y,z
1/2+x,-y,z
-y,-x,1/2+z
1/2+y,1/2+x,1/2+z
loop_
_atom_site_type_symbol
_atom_site_label
_atom_site_fract_x
_atom_site_fract_y
_atom_site_fract_z
Si Si1 0.294953 0.617202 0.320294
Si Si2 0.887441 0.541894 0.905431
Si Si3 0.347786 0.492158 0.512857
Si Si4 0.570178 0.163096 0.510518
Si Si5 0.516370 0.904676 0.114689
Si Si6 0.297969 0.623236 0.185797
Si Si7 0.543017 0.697521 0.616483
O O1 0.333339 0.540358 0.355286
O O2 0.301364 0.609067 0.252754
O O3 0.197176 0.637812 0.331196
O O4 0.345565 0.704234 0.331749
O O5 0.796912 0.568344 0.878448
O O6 0.963413 0.492092 0.872898
O O7 0.928513 0.618025 0.940367
O O8 0.861431 0.471906 0.951664
O O9 0.250000 0.483178 0.500000
O O10 0.372946 0.586660 0.531199
O O11 0.393887 0.480346 0.452860
O O12 0.619195 0.250000 0.500000
O O13 0.494525 0.182246 0.553891
O O14 0.615553 0.900446 0.130736
O O15 0.314759 0.537130 0.155726
#
# Coordination Sequence:
#
# PCOD9567662 Si02
#       7
#    16  16  16  16  16  16  16
#     4   9  19  36  54  84 117 138 179 237 298 343
#     4  10  19  37  51  76 112 150 189 222 278 337
#     4  11  22  35  51  77 115 149 187 237 282 333
#     4   9  18  32  51  76 107 140 180 226 280 346
#     4  11  20  34  56  79 111 149 185 234 279 338
#     4   9  19  35  57  81 113 148 176 232 297 349
#     4  11  19  32  60  78 103 154 193 219 283 340
#
# _framework density 18.763491999999999
#
# number of rings (size 3 to 8) (size 9 to 14) (size 15 to 20)
#    0.000    2.000    4.286    1.714    2.000    0.857 
#    0.000    1.429    0.000    0.000    0.000    0.000 
#    0.000    2.286    0.000    0.000    0.000    0.000 
#
# Total GULP energy -623609.347434 kJ/mol
# GULP energy per Si atom -5567.940602 kJ/mol
# Density = 1.872079 g / cm^3
# Si number density = 18.763492 Si / 1000 Ang^3
#
#
#
# Elastic Constant Matrix: (Units=GPa)
#
#
# Indices 1 2 3 4 5 6 
#
# 1 89.9351 46.5842 5.2997 0.0000 0.0000 0.0000
# 2 46.5842 89.9351 5.2997 0.0000 0.0000 0.0000
# 3 5.2997 5.2997 16.3069 0.0000 0.0000 0.0000
# 4 0.0000 0.0000 0.0000 38.4348 0.0000 0.0000
# 5 0.0000 0.0000 0.0000 0.0000 38.4348 0.0000
# 6 0.0000 0.0000 0.0000 0.0000 0.0000 18.9053
#
#
#
# Elastic Compliance Matrix: (Units=1/GPa)
#
#
# Indices 1 2 3 4 5 6 
#
# 1 0.015291 -0.007776 -0.002442 0.000000 0.000000 0.000000
# 2 -0.007776 0.015291 -0.002442 0.000000 0.000000 0.000000
# 3 -0.002442 -0.002442 0.062911 0.000000 0.000000 0.000000
# 4 0.000000 0.000000 0.000000 0.026018 0.000000 0.000000
# 5 0.000000 0.000000 0.000000 0.000000 0.026018 0.000000
# 6 0.000000 0.000000 0.000000 0.000000 0.000000 0.052895
#
#
# Mechanical properties :
#
#
# Convention : Reuss Voigt Hill
#
# Bulk Modulus (GPa) = 14.66890 34.50493 24.58692
# Shear Modulus (GPa) = 20.28642 28.42123 24.35382
#
# Velocity S-wave (km/s) = 3.29167 3.89615 3.60660
# Velocity P-wave (km/s) = 4.72034 6.21846 5.52046
#
# Compressibility (1/GPa) = 0.06817143
#
# Stress axis : x y z
#
# Youngs Moduli (GPa) = 65.39767 65.39767 15.89543
#
# Poissons Ratio (x) = 0.50856 0.03882
# Poissons Ratio (y) = 0.50856 0.03882
# Poissons Ratio (z) = 0.15972 0.15972
#
# Static dielectric constant tensor:
#      x y z
#    x 1.691380 0.000000 0.000000 
#    y 0.000000 1.691380 0.000000 
#    z 0.000000 0.000000 1.666430 
# 
# From -- ./inp_files/7668.got.cif
#   From: 2010.05.17/outbox.cif.g08.bks.cpg/sg133_4_cif.got.tgz:7668.got - 2010.05.20 12:37:36.
