data_PCOD9567264
_publ_section_title
;
Structure prediction by ZEFSAII (Michael W. Deem and Ramdas Pophale) SiO2 
 PCOD9567264
Probable space group: P 42/M C M
;
_chemical_formula_sum "Si O2"
_cell_formula_units_Z 128
_cell_length_a 17.267459
_cell_length_b 17.267459
_cell_length_c 25.851230
_cell_angle_alpha 90.000000
_cell_angle_beta 90.000000
_cell_angle_gamma 90.000000
_cell_volume 7707.935620
_symmetry_space_group_name_H-M "P 42/M C M"
_symmetry_group_IT_number 132
_symmetry_cell_setting 'tetragonal'
loop_
_space_group_symop_operation_xyz
x,y,z
-y,x,1/2+z
-x,-y,z
y,-x,1/2+z
x,-y,1/2-z
-x,y,1/2-z
y,x,-z
-y,-x,-z
-x,-y,-z
y,-x,1/2-z
x,y,-z
-y,x,1/2-z
-x,y,1/2+z
x,-y,1/2+z
-y,-x,z
y,x,z
loop_
_atom_site_type_symbol
_atom_site_label
_atom_site_fract_x
_atom_site_fract_y
_atom_site_fract_z
Si Si1 0.492391 0.155141 0.810752
Si Si2 0.296352 0.417312 0.135826
Si Si3 0.205013 0.663835 0.942858
Si Si4 0.075569 0.337878 0.850047
Si Si5 0.810933 0.316768 0.439805
Si Si6 0.224308 0.093643 0.245569
Si Si7 0.892291 0.664609 0.343006
Si Si8 0.537527 0.668241 0.442596
O O1 0.500000 0.143362 0.750000
O O2 0.461874 0.240973 0.824731
O O3 0.424490 0.101466 0.833991
O O4 0.577608 0.136817 0.831619
O O5 0.350637 0.350637 0.159039
O O6 0.242907 0.377130 0.091686
O O7 0.345107 0.478655 0.103303
O O8 0.272782 0.727219 0.944478
O O9 0.149956 0.685970 0.896083
O O10 0.249903 0.582160 0.934965
O O11 0.167943 0.661435 0.000000
O O12 0.112585 0.315087 0.904903
O O13 0.103824 0.278043 0.805494
O O14 0.983799 0.336118 0.851214
O O15 0.822175 0.337783 0.500000
O O16 0.764013 0.235988 0.438357
O O17 0.147768 0.147768 0.242974
O O18 0.276809 0.119851 0.294837
O O19 0.208649 0.000000 0.250000
O O20 0.501166 0.668839 0.500000
O O21 0.602517 0.602517 0.442576
#
# Coordination Sequence:
#
# PCOD9567264 Si02
#       8
#    16  16  16  16  16  16  16  16
#     4  11  21  37  53  74 103 138 174 219 268 315
#     4  10  20  34  51  72  97 129 173 216 257 305
#     4   9  18  33  52  75 104 137 174 215 258 307
#     4  10  21  33  53  80 108 134 174 218 258 314
#     4   9  18  33  52  73 103 140 172 207 254 308
#     4  10  21  36  56  82 109 137 174 220 265 317
#     4  11  20  34  55  79 104 139 175 214 263 318
#     4   9  17  30  49  71  94 125 166 210 254 299
#
# _framework density 16.606262000000001
#
# number of rings (size 3 to 8) (size 9 to 14) (size 15 to 20)
#    0.000    2.125    2.500    2.250    0.000    2.625 
#    0.000    1.250    0.000    2.250    0.000    0.000 
#    0.000    0.000    0.000   23.250    0.000    0.000 
#
# Total GULP energy -713198.600839 kJ/mol
# GULP energy per Si atom -5571.864069 kJ/mol
# Density = 1.656847 g / cm^3
# Si number density = 16.606262 Si / 1000 Ang^3
#
#
#
# Elastic Constant Matrix: (Units=GPa)
#
#
# Indices 1 2 3 4 5 6 
#
# 1 57.3627 27.8419 17.9106 0.0000 0.0000 0.0000
# 2 27.8419 57.3627 17.9106 0.0000 0.0000 0.0000
# 3 17.9106 17.9106 69.7866 0.0000 0.0000 0.0000
# 4 0.0000 0.0000 0.0000 19.3955 0.0000 0.0000
# 5 0.0000 0.0000 0.0000 0.0000 19.3955 0.0000
# 6 0.0000 0.0000 0.0000 0.0000 0.0000 18.4416
#
#
#
# Elastic Compliance Matrix: (Units=1/GPa)
#
#
# Indices 1 2 3 4 5 6 
#
# 1 0.023515 -0.010359 -0.003376 0.000000 0.000000 0.000000
# 2 -0.010359 0.023515 -0.003376 0.000000 0.000000 0.000000
# 3 -0.003376 -0.003376 0.016063 0.000000 0.000000 0.000000
# 4 0.000000 0.000000 0.000000 0.051558 0.000000 0.000000
# 5 0.000000 0.000000 0.000000 0.000000 0.051558 0.000000
# 6 0.000000 0.000000 0.000000 0.000000 0.000000 0.054225
#
#
# Mechanical properties :
#
#
# Convention : Reuss Voigt Hill
#
# Bulk Modulus (GPa) = 34.63967 34.64868 34.64418
# Shear Modulus (GPa) = 18.91917 19.50310 19.21113
#
# Velocity S-wave (km/s) = 3.37898 3.43073 3.40496
# Velocity P-wave (km/s) = 6.01066 6.05007 6.03040
#
# Compressibility (1/GPa) = 0.02886864
#
# Stress axis : x y z
#
# Youngs Moduli (GPa) = 42.52567 42.52567 62.25671
#
# Poissons Ratio (x) = 0.44053 0.21021
# Poissons Ratio (y) = 0.44053 0.21021
# Poissons Ratio (z) = 0.14359 0.14359
#
# Static dielectric constant tensor:
#      x y z
#    x 1.573370 0.000000 0.000000 
#    y 0.000000 1.573370 0.000000 
#    z 0.000000 0.000000 1.566820 
# 
# From -- ./inp_files/9343.got.cif
#   From: 2010.05.17/outbox.cif.g08.bks.cpg/sg132_5_cif.got.tgz:9343.got - 2010.05.20 12:30:18.
