data_PCOD9567568
_publ_section_title
;
Structure prediction by ZEFSAII (Michael W. Deem and Ramdas Pophale) SiO2 
 PCOD9567568
Probable space group: P 42/N B C
;
_chemical_formula_sum "Si O2"
_cell_formula_units_Z 96
_cell_length_a 18.943208
_cell_length_b 18.943208
_cell_length_c 17.385419
_cell_angle_alpha 90.000000
_cell_angle_beta 90.000000
_cell_angle_gamma 90.000000
_cell_volume 6238.672930
_symmetry_space_group_name_H-M "P 42/N B C"
_symmetry_group_IT_number 133
_space_group.IT_coordinate_system_code '2'
_symmetry_cell_setting 'tetragonal'
loop_
_space_group_symop_operation_xyz
x,y,z
1/2-y,x,1/2+z
1/2-x,1/2-y,z
y,1/2-x,1/2+z
x,1/2-y,-z
1/2-x,y,-z
y,x,1/2-z
1/2-y,1/2-x,1/2-z
-x,-y,-z
1/2+y,-x,1/2-z
1/2+x,1/2+y,-z
-y,1/2+x,1/2-z
-x,1/2+y,z
1/2+x,-y,z
-y,-x,1/2+z
1/2+y,1/2+x,1/2+z
loop_
_atom_site_type_symbol
_atom_site_label
_atom_site_fract_x
_atom_site_fract_y
_atom_site_fract_z
Si Si1 0.250000 0.026685 0.000000
Si Si2 0.376015 0.382213 0.334973
Si Si3 0.021852 0.410263 0.089964
Si Si4 0.998855 0.898595 0.539710
Si Si5 0.622255 0.782783 0.647671
Si Si6 0.769110 0.893129 0.413334
Si Si7 0.909816 0.590185 0.750000
O O1 0.182702 0.983136 0.026453
O O2 0.275915 0.076245 0.070016
O O3 0.401735 0.401735 0.250000
O O4 0.436869 0.399570 0.396307
O O5 0.364669 0.297419 0.329372
O O6 0.301683 0.412234 0.366710
O O7 0.046545 0.329303 0.078627
O O8 0.038186 0.422750 0.179440
O O9 0.944401 0.434580 0.065702
O O10 0.069687 0.461826 0.036735
O O11 0.691733 0.827594 0.627311
O O12 0.585221 0.831056 0.712785
O O13 0.750000 0.871446 0.500000
#
# Coordination Sequence:
#
# PCOD9567568 Si02
#       7
#     8  16  16  16  16  16   8
#     4  10  16  34  49  72  93 138 166 206 246 306
#     4  11  21  30  46  73 104 133 169 206 242 291
#     4  10  20  34  49  70  97 135 170 208 254 296
#     4  10  20  34  51  69 100 129 171 210 251 302
#     4  10  19  29  45  72 104 138 170 199 243 306
#     4  11  18  32  47  71  99 140 166 200 246 301
#     4  10  18  32  51  70 100 144 171 204 246 306
#
# _framework density 15.387886999999999
#
# number of rings (size 3 to 8) (size 9 to 14) (size 15 to 20)
#    0.000    1.667    5.000    3.500    1.167    1.333 
#    0.000    0.000    0.000    0.000    0.000    0.583 
#    0.000    0.000    0.000    0.000    0.000    0.000 
#
# Total GULP energy -534870.343409 kJ/mol
# GULP energy per Si atom -5571.566077 kJ/mol
# Density = 1.535286 g / cm^3
# Si number density = 15.387887 Si / 1000 Ang^3
#
#
#
# Elastic Constant Matrix: (Units=GPa)
#
#
# Indices 1 2 3 4 5 6 
#
# 1 44.2601 21.3764 6.0115 0.0000 0.0000 0.0000
# 2 21.3764 44.2601 6.0113 0.0000 0.0000 0.0000
# 3 6.0115 6.0113 101.1627 0.0000 0.0000 0.0000
# 4 0.0000 0.0000 0.0000 16.3634 0.0000 0.0000
# 5 0.0000 0.0000 0.0000 0.0000 16.3632 0.0000
# 6 0.0000 0.0000 0.0000 0.0000 0.0000 25.5459
#
#
#
# Elastic Compliance Matrix: (Units=1/GPa)
#
#
# Indices 1 2 3 4 5 6 
#
# 1 0.029551 -0.014148 -0.000915 0.000000 0.000000 0.000000
# 2 -0.014148 0.029551 -0.000915 0.000000 0.000000 0.000000
# 3 -0.000915 -0.000915 0.009994 0.000000 0.000000 0.000000
# 4 0.000000 0.000000 0.000000 0.061112 0.000000 0.000000
# 5 0.000000 0.000000 0.000000 0.000000 0.061113 0.000000
# 6 0.000000 0.000000 0.000000 0.000000 0.000000 0.039145
#
#
# Mechanical properties :
#
#
# Convention : Reuss Voigt Hill
#
# Bulk Modulus (GPa) = 26.92600 28.49791 27.71195
# Shear Modulus (GPa) = 18.19485 22.07341 20.13413
#
# Velocity S-wave (km/s) = 3.44235 3.79154 3.62116
# Velocity P-wave (km/s) = 5.77373 6.14228 5.96085
#
# Compressibility (1/GPa) = 0.03713883
#
# Stress axis : x y z
#
# Youngs Moduli (GPa) = 33.83967 33.83963 100.06156
#
# Poissons Ratio (x) = 0.47876 0.09159
# Poissons Ratio (y) = 0.47877 0.09158
# Poissons Ratio (z) = 0.03097 0.03097
#
# Static dielectric constant tensor:
#      x y z
#    x 1.510340 0.000000 0.000000 
#    y 0.000000 1.510330 0.000000 
#    z 0.000000 0.000000 1.554640 
# 
# From -- ./inp_files/5691.got.cif
#   From: 2010.05.17/outbox.cif.g08.bks.cpg/sg133_3_cif.got.tgz:5691.got - 2010.05.20 12:37:36.
