data_PCOD9567415
_publ_section_title
;
Structure prediction by ZEFSAII (Michael W. Deem and Ramdas Pophale) SiO2 
 PCOD9567415
Probable space group: P 42/M C M
;
_chemical_formula_sum "Si O2"
_cell_formula_units_Z 64
_cell_length_a 10.591440
_cell_length_b 10.591440
_cell_length_c 25.701996
_cell_angle_alpha 90.000000
_cell_angle_beta 90.000000
_cell_angle_gamma 90.000000
_cell_volume 2883.213961
_symmetry_space_group_name_H-M "P 42/M C M"
_symmetry_group_IT_number 132
_symmetry_cell_setting 'tetragonal'
loop_
_space_group_symop_operation_xyz
x,y,z
-y,x,1/2+z
-x,-y,z
y,-x,1/2+z
x,-y,1/2-z
-x,y,1/2-z
y,x,-z
-y,-x,-z
-x,-y,-z
y,-x,1/2-z
x,y,-z
-y,x,1/2-z
-x,y,1/2+z
x,-y,1/2+z
-y,-x,z
y,x,z
loop_
_atom_site_type_symbol
_atom_site_label
_atom_site_fract_x
_atom_site_fract_y
_atom_site_fract_z
Si Si1 0.294892 0.509121 0.900992
Si Si2 0.104828 0.678560 0.443727
Si Si3 0.570057 0.128960 0.802919
Si Si4 0.203297 0.999047 0.341756
O O1 0.374674 0.625327 0.923711
O O2 0.395606 0.395606 0.892191
O O3 0.183052 0.449832 0.934924
O O4 0.233540 0.552193 0.846685
O O5 0.039877 0.677370 0.500000
O O6 0.209452 0.790549 0.445080
O O7 0.025705 0.711156 0.392579
O O8 0.500000 0.169796 0.750000
O O9 0.712562 0.076497 0.800501
O O10 0.500000 0.000000 0.818263
O O11 0.093520 0.093520 0.358033
O O12 0.131792 0.868209 0.325684
#
# Coordination Sequence:
#
# PCOD9567415 Si02
#       4
#    16  16  16  16
#     4  10  21  38  61  90 125 162 205 258 311 367
#     4   9  18  35  61  92 128 168 209 254 307 369
#     4  11  23  40  64  87 118 162 202 253 312 373
#     4  10  21  40  66  95 128 164 207 258 310 369
#
# _framework density 22.197451999999998
#
# number of rings (size 3 to 8) (size 9 to 14) (size 15 to 20)
#    0.000    2.000    2.500    0.750    0.000    3.000 
#    0.000   16.250    0.000    9.000    0.000    0.000 
#    0.000    0.000    0.000    0.000    0.000    0.000 
#
# Total GULP energy -356901.691306 kJ/mol
# GULP energy per Si atom -5576.588927 kJ/mol
# Density = 2.214693 g / cm^3
# Si number density = 22.197452 Si / 1000 Ang^3
#
#
#
# Elastic Constant Matrix: (Units=GPa)
#
#
# Indices 1 2 3 4 5 6 
#
# 1 57.9359 3.1613 12.1620 0.0000 0.0000 0.0000
# 2 3.1613 57.9359 12.1620 0.0000 0.0000 0.0000
# 3 12.1620 12.1620 83.2663 0.0000 0.0000 0.0000
# 4 0.0000 0.0000 0.0000 21.0184 0.0000 0.0000
# 5 0.0000 0.0000 0.0000 0.0000 21.0184 0.0000
# 6 0.0000 0.0000 0.0000 0.0000 0.0000 31.3253
#
#
#
# Elastic Compliance Matrix: (Units=1/GPa)
#
#
# Indices 1 2 3 4 5 6 
#
# 1 0.017817 -0.000439 -0.002538 0.000000 0.000000 0.000000
# 2 -0.000439 0.017817 -0.002538 0.000000 0.000000 0.000000
# 3 -0.002538 -0.002538 0.012751 0.000000 0.000000 0.000000
# 4 0.000000 0.000000 0.000000 0.047577 0.000000 0.000000
# 5 0.000000 0.000000 0.000000 0.000000 0.047577 0.000000
# 6 0.000000 0.000000 0.000000 0.000000 0.000000 0.031923
#
#
# Mechanical properties :
#
#
# Convention : Reuss Voigt Hill
#
# Bulk Modulus (GPa) = 26.77095 28.23432 27.50263
# Shear Modulus (GPa) = 25.13240 26.11595 25.62417
#
# Velocity S-wave (km/s) = 3.36850 3.43378 3.40129
# Velocity P-wave (km/s) = 5.21686 5.33557 5.27655
#
# Compressibility (1/GPa) = 0.03735392
#
# Stress axis : x y z
#
# Youngs Moduli (GPa) = 56.12535 56.12535 78.42439
#
# Poissons Ratio (x) = 0.02466 0.19906
# Poissons Ratio (y) = 0.02466 0.19906
# Poissons Ratio (z) = 0.14246 0.14246
#
# Static dielectric constant tensor:
#      x y z
#    x 1.861660 0.000000 0.000000 
#    y 0.000000 1.861660 0.000000 
#    z 0.000000 0.000000 1.839890 
# 
# From -- ./inp_files/9645.got.cif
#   From: 2010.05.17/outbox.cif.g08.bks.cpg/sg132_5_cif.got.tgz:9645.got - 2010.05.20 12:30:18.
