data_PCOD9567594
_publ_section_title
;
Structure prediction by ZEFSAII (Michael W. Deem and Ramdas Pophale) SiO2 
 PCOD9567594
Probable space group: P 42/N B C
;
_chemical_formula_sum "Si O2"
_cell_formula_units_Z 80
_cell_length_a 13.483546
_cell_length_b 13.483546
_cell_length_c 26.595221
_cell_angle_alpha 90.000000
_cell_angle_beta 90.000000
_cell_angle_gamma 90.000000
_cell_volume 4835.171088
_symmetry_space_group_name_H-M "P 42/N B C"
_symmetry_group_IT_number 133
_space_group.IT_coordinate_system_code '2'
_symmetry_cell_setting 'tetragonal'
loop_
_space_group_symop_operation_xyz
x,y,z
1/2-y,x,1/2+z
1/2-x,1/2-y,z
y,1/2-x,1/2+z
x,1/2-y,-z
1/2-x,y,-z
y,x,1/2-z
1/2-y,1/2-x,1/2-z
-x,-y,-z
1/2+y,-x,1/2-z
1/2+x,1/2+y,-z
-y,1/2+x,1/2-z
-x,1/2+y,z
1/2+x,-y,z
-y,-x,1/2+z
1/2+y,1/2+x,1/2+z
loop_
_atom_site_type_symbol
_atom_site_label
_atom_site_fract_x
_atom_site_fract_y
_atom_site_fract_z
Si Si1 0.117849 0.948804 0.870025
Si Si2 0.632843 0.232503 0.942975
Si Si3 0.317623 0.489817 0.187405
Si Si4 0.317710 0.470659 0.306151
Si Si5 0.371292 0.976015 0.363509
O O1 0.121503 0.876414 0.918278
O O2 0.220959 0.988290 0.846379
O O3 0.063189 0.880818 0.827992
O O4 0.049053 0.042756 0.881491
O O5 0.750000 0.250000 0.941888
O O6 0.579406 0.312543 0.907574
O O7 0.597944 0.250000 0.000000
O O8 0.299925 0.488345 0.247165
O O9 0.375034 0.384988 0.180376
O O10 0.395564 0.575346 0.172178
O O11 0.212132 0.465675 0.332719
#
# Coordination Sequence:
#
# PCOD9567594 Si02
#       5
#    16  16  16  16  16
#     4  10  20  34  54  78 106 142 173 218 268 309
#     4  10  20  37  59  80 101 132 178 225 271 318
#     4  10  18  33  50  76 111 143 179 217 257 306
#     4   9  20  31  50  78 108 146 181 212 255 316
#     4  10  20  35  52  78 108 138 178 218 264 320
#
# _framework density 16.545434
#
# number of rings (size 3 to 8) (size 9 to 14) (size 15 to 20)
#    0.000    2.200    2.000    1.200    0.000    4.000 
#    0.000    4.000    0.000    0.000    0.000    1.400 
#    0.000    0.000    0.000    0.000    0.000    0.000 
#
# Total GULP energy -445665.688401 kJ/mol
# GULP energy per Si atom -5570.821105 kJ/mol
# Density = 1.650778 g / cm^3
# Si number density = 16.545434 Si / 1000 Ang^3
#
#
#
# Elastic Constant Matrix: (Units=GPa)
#
#
# Indices 1 2 3 4 5 6 
#
# 1 94.5982 42.3219 48.3770 0.0000 0.0000 0.0000
# 2 42.3219 94.5982 48.3770 0.0000 0.0000 0.0000
# 3 48.3770 48.3770 110.9018 0.0000 0.0000 0.0000
# 4 0.0000 0.0000 0.0000 16.7628 0.0000 0.0000
# 5 0.0000 0.0000 0.0000 0.0000 16.7628 0.0000
# 6 0.0000 0.0000 0.0000 0.0000 0.0000 16.2959
#
#
#
# Elastic Compliance Matrix: (Units=1/GPa)
#
#
# Indices 1 2 3 4 5 6 
#
# 1 0.014844 -0.004286 -0.004606 0.000000 0.000000 0.000000
# 2 -0.004286 0.014844 -0.004606 0.000000 0.000000 0.000000
# 3 -0.004606 -0.004606 0.013035 0.000000 0.000000 0.000000
# 4 0.000000 0.000000 0.000000 0.059656 0.000000 0.000000
# 5 0.000000 0.000000 0.000000 0.000000 0.059656 0.000000
# 6 0.000000 0.000000 0.000000 0.000000 0.000000 0.061365
#
#
# Mechanical properties :
#
#
# Convention : Reuss Voigt Hill
#
# Bulk Modulus (GPa) = 63.57761 64.25001 63.91381
# Shear Modulus (GPa) = 19.55913 20.69914 20.12913
#
# Velocity S-wave (km/s) = 3.44197 3.54085 3.49176
# Velocity P-wave (km/s) = 7.36924 7.45880 7.41415
#
# Compressibility (1/GPa) = 0.01572881
#
# Stress axis : x y z
#
# Youngs Moduli (GPa) = 67.36915 67.36915 76.71645
#
# Poissons Ratio (x) = 0.28871 0.35332
# Poissons Ratio (y) = 0.28871 0.35332
# Poissons Ratio (z) = 0.31027 0.31027
#
# Static dielectric constant tensor:
#      x y z
#    x 1.552880 0.000000 0.000000 
#    y 0.000000 1.552880 0.000000 
#    z 0.000000 0.000000 1.550690 
# 
# From -- ./inp_files/7088.got.cif
#   From: 2010.05.17/outbox.cif.g08.bks.cpg/sg133_4_cif.got.tgz:7088.got - 2010.05.20 12:37:36.
