data_PCOD9567257
_publ_section_title
;
Structure prediction by ZEFSAII (Michael W. Deem and Ramdas Pophale) SiO2 
 PCOD9567257
Probable space group: P 42/M C M
;
_chemical_formula_sum "Si O2"
_cell_formula_units_Z 96
_cell_length_a 15.261169
_cell_length_b 15.261169
_cell_length_c 21.411447
_cell_angle_alpha 90.000000
_cell_angle_beta 90.000000
_cell_angle_gamma 90.000000
_cell_volume 4986.796220
_symmetry_space_group_name_H-M "P 42/M C M"
_symmetry_group_IT_number 132
_symmetry_cell_setting 'tetragonal'
loop_
_space_group_symop_operation_xyz
x,y,z
-y,x,1/2+z
-x,-y,z
y,-x,1/2+z
x,-y,1/2-z
-x,y,1/2-z
y,x,-z
-y,-x,-z
-x,-y,-z
y,-x,1/2-z
x,y,-z
-y,x,1/2-z
-x,y,1/2+z
x,-y,1/2+z
-y,-x,z
y,x,z
loop_
_atom_site_type_symbol
_atom_site_label
_atom_site_fract_x
_atom_site_fract_y
_atom_site_fract_z
Si Si1 0.318472 0.453138 0.834631
Si Si2 0.761704 0.625628 0.713984
Si Si3 0.147036 0.997256 0.180063
Si Si4 0.437711 0.074301 0.645161
Si Si5 0.710148 0.967106 0.074540
Si Si6 0.184974 0.416008 0.927140
O O1 0.414902 0.414902 0.823146
O O2 0.254694 0.403333 0.785132
O O3 0.299621 0.554723 0.822505
O O4 0.282001 0.422618 0.900644
O O5 0.721314 0.721314 0.703949
O O6 0.860669 0.611424 0.692425
O O7 0.074051 0.074051 0.180340
O O8 0.188811 0.000000 0.250000
O O9 0.211345 0.012741 0.122105
O O10 0.093450 0.906551 0.173232
O O11 0.369317 0.029336 0.597910
O O12 0.505390 0.133679 0.606636
O O13 0.500000 0.000000 0.674682
O O14 0.673438 0.868492 0.084782
O O15 0.727841 0.978526 0.000000
O O16 0.181932 0.430814 0.000000
#
# Coordination Sequence:
#
# PCOD9567257 Si02
#       6
#    16  16  16  16  16  16
#     4   9  18  32  50  74 103 135 173 215 259 309
#     4   9  18  33  52  76 105 136 173 219 267 313
#     4   9  20  39  57  72  97 135 174 212 262 325
#     4   9  18  34  54  75 105 141 175 212 261 322
#     4  10  20  33  53  80 103 129 171 217 262 315
#     4   9  18  33  51  72 102 138 172 210 256 307
#
# _framework density 19.250837000000001
#
# number of rings (size 3 to 8) (size 9 to 14) (size 15 to 20)
#    0.000    2.833    0.000    1.000    0.000    6.000 
#    0.000   22.500    0.000   12.000    0.000    4.667 
#    0.000    0.000    0.000    0.000    0.000    0.000 
#
# Total GULP energy -534896.257581 kJ/mol
# GULP energy per Si atom -5571.836016 kJ/mol
# Density = 1.920702 g / cm^3
# Si number density = 19.250837 Si / 1000 Ang^3
#
#
#
# Elastic Constant Matrix: (Units=GPa)
#
#
# Indices 1 2 3 4 5 6 
#
# 1 52.3466 9.4499 24.5135 0.0000 0.0000 0.0000
# 2 9.4499 52.3466 24.5135 0.0000 0.0000 0.0000
# 3 24.5135 24.5135 61.7614 0.0000 0.0000 0.0000
# 4 0.0000 0.0000 0.0000 11.3661 0.0000 0.0000
# 5 0.0000 0.0000 0.0000 0.0000 11.3661 0.0000
# 6 0.0000 0.0000 0.0000 0.0000 0.0000 13.5109
#
#
#
# Elastic Compliance Matrix: (Units=1/GPa)
#
#
# Indices 1 2 3 4 5 6 
#
# 1 0.023466 0.000154 -0.009375 0.000000 0.000000 0.000000
# 2 0.000154 0.023466 -0.009375 0.000000 0.000000 0.000000
# 3 -0.009375 -0.009375 0.023633 0.000000 0.000000 0.000000
# 4 0.000000 0.000000 0.000000 0.087981 0.000000 0.000000
# 5 0.000000 0.000000 0.000000 0.000000 0.087981 0.000000
# 6 0.000000 0.000000 0.000000 0.000000 0.000000 0.074014
#
#
# Mechanical properties :
#
#
# Convention : Reuss Voigt Hill
#
# Bulk Modulus (GPa) = 29.96398 31.48981 30.72690
# Shear Modulus (GPa) = 13.55541 14.44715 14.00128
#
# Velocity S-wave (km/s) = 2.65645 2.74244 2.69979
# Velocity P-wave (km/s) = 5.00078 5.14015 5.07094
#
# Compressibility (1/GPa) = 0.03337341
#
# Stress axis : x y z
#
# Youngs Moduli (GPa) = 42.61523 42.61523 42.31342
#
# Poissons Ratio (x) = -0.00656 0.39668
# Poissons Ratio (y) = -0.00656 0.39668
# Poissons Ratio (z) = 0.39951 0.39951
#
# Static dielectric constant tensor:
#      x y z
#    x 1.691090 0.000000 0.000000 
#    y 0.000000 1.691090 0.000000 
#    z 0.000000 0.000000 1.654580 
# 
# From -- ./inp_files/7857.got.cif
#   From: 2010.05.17/outbox.cif.g08.bks.cpg/sg132_4_cif.got.tgz:7857.got - 2010.05.20 12:30:18.
