data_PCOD9567061
_publ_section_title
;
Structure prediction by ZEFSAII (Michael W. Deem and Ramdas Pophale) SiO2 
 PCOD9567061
Probable space group: P 42/M C M
;
_chemical_formula_sum "Si O2"
_cell_formula_units_Z 96
_cell_length_a 26.944231
_cell_length_b 26.944231
_cell_length_c 9.101228
_cell_angle_alpha 90.000000
_cell_angle_beta 90.000000
_cell_angle_gamma 90.000000
_cell_volume 6607.414934
_symmetry_space_group_name_H-M "P 42/M C M"
_symmetry_group_IT_number 132
_symmetry_cell_setting 'tetragonal'
loop_
_space_group_symop_operation_xyz
x,y,z
-y,x,1/2+z
-x,-y,z
y,-x,1/2+z
x,-y,1/2-z
-x,y,1/2-z
y,x,-z
-y,-x,-z
-x,-y,-z
y,-x,1/2-z
x,y,-z
-y,x,1/2-z
-x,y,1/2+z
x,-y,1/2+z
-y,-x,z
y,x,z
loop_
_atom_site_type_symbol
_atom_site_label
_atom_site_fract_x
_atom_site_fract_y
_atom_site_fract_z
Si Si1 0.450277 0.750800 0.674605
Si Si2 0.254991 0.336640 0.176259
Si Si3 0.950104 0.432944 0.332293
Si Si4 0.847298 0.316833 0.166391
Si Si5 0.563960 0.147871 0.164869
Si Si6 0.312160 0.051445 0.831193
O O1 0.500000 0.728818 0.750000
O O2 0.454585 0.745523 0.500000
O O3 0.394229 0.734499 0.720600
O O4 0.449103 0.808153 0.724776
O O5 0.301416 0.301416 0.209407
O O6 0.205284 0.313774 0.249167
O O7 0.247013 0.337642 0.000000
O O8 0.947747 0.450527 0.500000
O O9 0.904131 0.449219 0.234840
O O10 0.948906 0.372487 0.336324
O O11 0.000000 0.446584 0.250000
O O12 0.853308 0.376359 0.154897
O O13 0.897008 0.298186 0.249282
O O14 0.844406 0.296913 0.000000
O O15 0.544387 0.156267 0.000000
O O16 0.297515 0.000000 0.750000
O O17 0.294728 0.051598 0.000000
#
# Coordination Sequence:
#
# PCOD9567061 Si02
#       6
#    16  16  16  16  16  16
#     4  10  19  31  47  65  84 105 129 157 190 231
#     4   9  18  32  48  65  86 112 139 166 200 244
#     4   9  15  22  33  50  71  96 127 163 202 240
#     4   9  16  25  38  57  80 105 134 168 206 246
#     4   9  16  26  39  55  75  99 128 161 196 234
#     4   9  15  22  33  50  74 103 135 171 209 247
#
# _framework density 14.529132000000001
#
# number of rings (size 3 to 8) (size 9 to 14) (size 15 to 20)
#    0.000    2.833    0.000    2.500    0.000    9.000 
#    0.000    0.000    0.000    0.500    0.000    3.500 
#    0.000    0.333    0.000    4.167    0.000    0.000 
#
# Total GULP energy -534628.797218 kJ/mol
# GULP energy per Si atom -5569.049971 kJ/mol
# Density = 1.449606 g / cm^3
# Si number density = 14.529132 Si / 1000 Ang^3
#
#
#
# Elastic Constant Matrix: (Units=GPa)
#
#
# Indices 1 2 3 4 5 6 
#
# 1 65.4252 34.6815 27.6105 0.0000 0.0000 0.0000
# 2 34.6815 65.4252 27.6105 0.0000 0.0000 0.0000
# 3 27.6105 27.6105 66.1352 0.0000 0.0000 0.0000
# 4 0.0000 0.0000 0.0000 12.4191 0.0000 0.0000
# 5 0.0000 0.0000 0.0000 0.0000 12.4191 0.0000
# 6 0.0000 0.0000 0.0000 0.0000 0.0000 -0.8764
#
#
#
# Elastic Compliance Matrix: (Units=1/GPa)
#
#
# Indices 1 2 3 4 5 6 
#
# 1 0.022753 -0.009774 -0.005418 0.000000 0.000000 0.000000
# 2 -0.009774 0.022753 -0.005418 0.000000 0.000000 0.000000
# 3 -0.005418 -0.005418 0.019645 0.000000 0.000000 0.000000
# 4 0.000000 0.000000 0.000000 0.080521 0.000000 0.000000
# 5 0.000000 0.000000 0.000000 0.000000 0.080521 0.000000
# 6 0.000000 0.000000 0.000000 0.000000 0.000000 -1.140996
#
#
# Mechanical properties :
#
#
# Convention : Reuss Voigt Hill
#
# Bulk Modulus (GPa) = 41.79188 41.86562 41.82875
# Shear Modulus (GPa) = -5.77629 11.93123 3.07747
#
# Velocity S-wave (km/s) = -1.99607 2.86876 1.45696
# Velocity P-wave (km/s) = 4.84915 6.31273 5.62871
#
# Compressibility (1/GPa) = 0.02392809
#
# Stress axis : x y z
#
# Youngs Moduli (GPa) = 43.95109 43.95109 50.90458
#
# Poissons Ratio (x) = 0.42960 0.27581
# Poissons Ratio (y) = 0.42960 0.27581
# Poissons Ratio (z) = 0.23814 0.23814
#
# Static dielectric constant tensor:
#      x y z
#    x 1.479700 0.000000 0.000000 
#    y 0.000000 1.479700 0.000000 
#    z 0.000000 0.000000 1.511360 
# 
# From -- ./inp_files/1906.got.cif
#   From: 2010.05.17/outbox.cif.g08.bks.cpg/sg132_1_cif.got.tgz:1906.got - 2010.05.20 12:30:18.
