data_PCOD9567989
_publ_section_title
;
Structure prediction by ZEFSAII (Michael W. Deem and Ramdas Pophale) SiO2 
 PCOD9567989
Probable space group: P 42/N B C
;
_chemical_formula_sum "Si O2"
_cell_formula_units_Z 96
_cell_length_a 14.894035
_cell_length_b 14.894035
_cell_length_c 21.983090
_cell_angle_alpha 90.000000
_cell_angle_beta 90.000000
_cell_angle_gamma 90.000000
_cell_volume 4876.558945
_symmetry_space_group_name_H-M "P 42/N B C"
_symmetry_group_IT_number 133
_space_group.IT_coordinate_system_code '2'
_symmetry_cell_setting 'tetragonal'
loop_
_space_group_symop_operation_xyz
x,y,z
1/2-y,x,1/2+z
1/2-x,1/2-y,z
y,1/2-x,1/2+z
x,1/2-y,-z
1/2-x,y,-z
y,x,1/2-z
1/2-y,1/2-x,1/2-z
-x,-y,-z
1/2+y,-x,1/2-z
1/2+x,1/2+y,-z
-y,1/2+x,1/2-z
-x,1/2+y,z
1/2+x,-y,z
-y,-x,1/2+z
1/2+y,1/2+x,1/2+z
loop_
_atom_site_type_symbol
_atom_site_label
_atom_site_fract_x
_atom_site_fract_y
_atom_site_fract_z
Si Si1 0.762431 0.996208 0.626327
Si Si2 0.250000 0.598558 0.500000
Si Si3 0.767019 0.478835 0.128489
Si Si4 0.096756 0.588877 0.193052
Si Si5 0.598581 0.250000 0.500000
Si Si6 0.931479 0.036408 0.333246
Si Si7 0.316832 0.166450 0.820097
O O1 0.767231 0.037736 0.559183
O O2 0.813809 0.063269 0.672363
O O3 0.658644 0.989290 0.644322
O O4 0.809660 0.901198 0.637757
O O5 0.335158 0.664768 0.508603
O O6 0.698224 0.424730 0.171043
O O7 0.736869 0.461659 0.059630
O O8 0.870196 0.447859 0.132651
O O9 0.767541 0.579740 0.153669
O O10 0.083601 0.566823 0.263578
O O11 0.031168 0.515170 0.161352
O O12 0.250000 0.250000 0.818714
O O13 0.349102 0.150899 0.750000
#
# Coordination Sequence:
#
# PCOD9567989 Si02
#       7
#    16   8  16  16   8  16  16
#     4  12  23  43  67  98 131 180 229 272 345 408
#     4  11  24  46  65  90 136 180 221 276 338 411
#     4  12  23  43  67  98 131 180 229 272 345 408
#     4  11  23  40  65  99 135 168 220 285 345 409
#     4  11  24  46  65  90 136 180 221 276 338 411
#     4  11  23  40  65  99 135 168 220 285 345 409
#     4  11  24  46  71 100 140 179 222 281 349 413
#
# _framework density 19.686012000000002
#
# number of rings (size 3 to 8) (size 9 to 14) (size 15 to 20)
#    0.000    0.667    5.000    4.000    0.000    3.333 
#    6.000    4.167    0.000    0.000    0.000    0.000 
#    0.000    0.000    0.000    0.000    0.000    0.000 
#
# Total GULP energy -536680.913700 kJ/mol
# GULP energy per Si atom -5590.426184 kJ/mol
# Density = 1.964121 g / cm^3
# Si number density = 19.686012 Si / 1000 Ang^3
#
#
#
# Elastic Constant Matrix: (Units=GPa)
#
#
# Indices 1 2 3 4 5 6 
#
# 1 63.2829 -3.3671 7.4072 0.0000 0.0000 0.0000
# 2 -3.3671 63.2830 7.4072 0.0000 0.0000 0.0000
# 3 7.4072 7.4072 94.4478 0.0000 0.0000 0.0000
# 4 0.0000 0.0000 0.0000 13.9748 0.0000 0.0000
# 5 0.0000 0.0000 0.0000 0.0000 13.9709 0.0000
# 6 0.0000 0.0000 0.0000 0.0000 0.0000 34.6594
#
#
#
# Elastic Compliance Matrix: (Units=1/GPa)
#
#
# Indices 1 2 3 4 5 6 
#
# 1 0.016012 0.001008 -0.001335 0.000000 0.000000 0.000000
# 2 0.001008 0.016012 -0.001335 0.000000 0.000000 0.000000
# 3 -0.001335 -0.001335 0.010797 0.000000 0.000000 0.000000
# 4 0.000000 0.000000 0.000000 0.071558 0.000000 0.000000
# 5 0.000000 0.000000 0.000000 0.000000 0.071577 0.000000
# 6 0.000000 0.000000 0.000000 0.000000 0.000000 0.028852
#
#
# Mechanical properties :
#
#
# Convention : Reuss Voigt Hill
#
# Bulk Modulus (GPa) = 25.31764 27.10093 26.20928
# Shear Modulus (GPa) = 21.61722 26.49211 24.05466
#
# Velocity S-wave (km/s) = 3.31735 3.67240 3.49938
# Velocity P-wave (km/s) = 5.24993 5.63725 5.44703
#
# Compressibility (1/GPa) = 0.03949816
#
# Stress axis : x y z
#
# Youngs Moduli (GPa) = 62.45337 62.45348 92.61632
#
# Poissons Ratio (x) = -0.06297 0.12363
# Poissons Ratio (y) = -0.06297 0.12363
# Poissons Ratio (z) = 0.08336 0.08337
#
# Static dielectric constant tensor:
#      x y z
#    x 1.679150 0.000000 0.000000 
#    y 0.000000 1.679150 0.000000 
#    z 0.000000 0.000000 1.659560 
# 
# From -- ./inp_files/6575.got.cif
#   From: 2010.05.17/outbox.cif.g08.bks.cpg/sg133_4_cif.got.tgz:6575.got - 2010.05.20 12:37:36.
