data_PCOD9567600
_publ_section_title
;
Structure prediction by ZEFSAII (Michael W. Deem and Ramdas Pophale) SiO2 
 PCOD9567600
Probable space group: P 42/N B C
;
_chemical_formula_sum "Si O2"
_cell_formula_units_Z 84
_cell_length_a 13.839723
_cell_length_b 13.839723
_cell_length_c 21.834879
_cell_angle_alpha 90.000000
_cell_angle_beta 90.000000
_cell_angle_gamma 90.000000
_cell_volume 4182.207585
_symmetry_space_group_name_H-M "P 42/N B C"
_symmetry_group_IT_number 133
_space_group.IT_coordinate_system_code '2'
_symmetry_cell_setting 'tetragonal'
loop_
_space_group_symop_operation_xyz
x,y,z
1/2-y,x,1/2+z
1/2-x,1/2-y,z
y,1/2-x,1/2+z
x,1/2-y,-z
1/2-x,y,-z
y,x,1/2-z
1/2-y,1/2-x,1/2-z
-x,-y,-z
1/2+y,-x,1/2-z
1/2+x,1/2+y,-z
-y,1/2+x,1/2-z
-x,1/2+y,z
1/2+x,-y,z
-y,-x,1/2+z
1/2+y,1/2+x,1/2+z
loop_
_atom_site_type_symbol
_atom_site_label
_atom_site_fract_x
_atom_site_fract_y
_atom_site_fract_z
Si Si1 0.429829 0.021497 0.908481
Si Si2 0.410817 0.736792 0.255347
Si Si3 0.226572 0.050310 0.871777
Si Si4 0.750000 0.250000 0.000000
Si Si5 0.384359 0.456747 0.684964
Si Si6 0.119116 0.582400 0.033887
O O1 0.335655 0.078767 0.886601
O O2 0.477586 0.954476 0.856380
O O3 0.514667 0.088059 0.934972
O O4 0.396914 0.950606 0.963909
O O5 0.334012 0.649051 0.254671
O O6 0.468003 0.736415 0.319222
O O7 0.487057 0.712999 0.201820
O O8 0.177785 0.000699 0.930714
O O9 0.147846 0.125627 0.846670
O O10 0.819257 0.179455 0.037913
O O11 0.436235 0.436235 0.750000
#
# Coordination Sequence:
#
# PCOD9567600 Si02
#       6
#    16  16  16   4  16  16
#     4  10  18  37  54  81 117 166 195 248 310 395
#     4  10  19  30  49  83 120 156 201 264 327 366
#     4  10  18  34  55  79 117 158 205 248 302 388
#     4  12  20  36  52  96 132 146 204 280 312 384
#     4   9  19  32  50  80 114 157 206 248 308 374
#     4  10  22  32  56  86 123 152 198 250 325 368
#
# _framework density 20.085087000000001
#
# number of rings (size 3 to 8) (size 9 to 14) (size 15 to 20)
#    0.000    2.095    3.810    0.000    0.000    3.048 
#    0.000    0.000    0.000    0.000    0.000   77.333 
#    0.000    0.000    0.000    0.000    0.000    0.000 
#
# Total GULP energy -468754.538034 kJ/mol
# GULP energy per Si atom -5580.411167 kJ/mol
# Density = 2.003937 g / cm^3
# Si number density = 20.085087 Si / 1000 Ang^3
#
#
#
# Elastic Constant Matrix: (Units=GPa)
#
#
# Indices 1 2 3 4 5 6 
#
# 1 104.1870 26.9636 18.0032 0.0000 0.0000 0.0000
# 2 26.9636 104.1870 18.0032 0.0000 0.0000 0.0000
# 3 18.0032 18.0032 81.5194 0.0000 0.0000 0.0000
# 4 0.0000 0.0000 0.0000 15.3431 0.0000 0.0000
# 5 0.0000 0.0000 0.0000 0.0000 15.3431 0.0000
# 6 0.0000 0.0000 0.0000 0.0000 0.0000 -38.3396
#
#
#
# Elastic Compliance Matrix: (Units=1/GPa)
#
#
# Indices 1 2 3 4 5 6 
#
# 1 0.010533 -0.002416 -0.001793 0.000000 0.000000 0.000000
# 2 -0.002416 0.010533 -0.001793 0.000000 0.000000 0.000000
# 3 -0.001793 -0.001793 0.013059 0.000000 0.000000 0.000000
# 4 0.000000 0.000000 0.000000 0.065176 0.000000 0.000000
# 5 0.000000 0.000000 0.000000 0.000000 0.065176 0.000000
# 6 0.000000 0.000000 0.000000 0.000000 0.000000 -0.026083
#
#
# Mechanical properties :
#
#
# Convention : Reuss Voigt Hill
#
# Bulk Modulus (GPa) = 45.20316 46.20370 45.70343
# Shear Modulus (GPa) = 31.69144 13.59755 22.64450
#
# Velocity S-wave (km/s) = 3.97654 2.60474 3.36136
# Velocity P-wave (km/s) = 6.60594 5.66570 6.15381
#
# Compressibility (1/GPa) = 0.02212235
#
# Stress axis : x y z
#
# Youngs Moduli (GPa) = 94.93792 94.93792 76.57682
#
# Poissons Ratio (x) = 0.22939 0.13727
# Poissons Ratio (y) = 0.22939 0.13727
# Poissons Ratio (z) = 0.17018 0.17018
#
# Static dielectric constant tensor:
#      x y z
#    x 1.717620 0.000000 0.000000 
#    y 0.000000 1.717620 0.000000 
#    z 0.000000 0.000000 1.720820 
# 
# From -- ./inp_files/6395.got.cif
#   From: 2010.05.17/outbox.cif.g08.bks.cpg/sg133_4_cif.got.tgz:6395.got - 2010.05.20 12:37:36.
