data_PCOD9567965
_publ_section_title
;
Structure prediction by ZEFSAII (Michael W. Deem and Ramdas Pophale) SiO2 
 PCOD9567965
Probable space group: P 42/N B C
;
_chemical_formula_sum "Si O2"
_cell_formula_units_Z 56
_cell_length_a 13.779354
_cell_length_b 13.779354
_cell_length_c 12.533646
_cell_angle_alpha 90.000000
_cell_angle_beta 90.000000
_cell_angle_gamma 90.000000
_cell_volume 2379.770844
_symmetry_space_group_name_H-M "P 42/N B C"
_symmetry_group_IT_number 133
_space_group.IT_coordinate_system_code '2'
_symmetry_cell_setting 'tetragonal'
loop_
_space_group_symop_operation_xyz
x,y,z
1/2-y,x,1/2+z
1/2-x,1/2-y,z
y,1/2-x,1/2+z
x,1/2-y,-z
1/2-x,y,-z
y,x,1/2-z
1/2-y,1/2-x,1/2-z
-x,-y,-z
1/2+y,-x,1/2-z
1/2+x,1/2+y,-z
-y,1/2+x,1/2-z
-x,1/2+y,z
1/2+x,-y,z
-y,-x,1/2+z
1/2+y,1/2+x,1/2+z
loop_
_atom_site_type_symbol
_atom_site_label
_atom_site_fract_x
_atom_site_fract_y
_atom_site_fract_z
Si Si1 0.313092 0.346722 0.629916
Si Si2 0.967864 0.750000 0.500000
Si Si3 0.447821 0.761257 0.883174
Si Si4 0.118573 0.962077 0.201043
O O1 0.250000 0.250000 0.620500
O O2 0.350437 0.350437 0.750000
O O3 0.402860 0.334536 0.552168
O O4 0.244384 0.436953 0.610323
O O5 0.012127 0.694493 0.395593
O O6 0.441354 0.872060 0.845449
O O7 0.416457 0.682893 0.796880
O O8 0.402509 0.750000 0.000000
O O9 0.048524 0.048524 0.250000
#
# Coordination Sequence:
#
# PCOD9567965 Si02
#       4
#    16   8  16  16
#     4  11  21  40  72 111 145 186 247 319 397 449
#     4  12  25  44  77 110 156 200 254 334 394 482
#     4  12  28  49  77 110 155 207 257 326 396 483
#     4  12  29  51  78 116 156 205 271 327 403 485
#
# _framework density 23.531676000000001
#
# number of rings (size 3 to 8) (size 9 to 14) (size 15 to 20)
#    0.000    0.286    2.857    6.429    4.000    2.857 
#    0.000    0.000    0.000    0.000    0.000    0.000 
#    0.000    0.000    0.000    0.000    0.000    0.000 
#
# Total GULP energy -312652.001321 kJ/mol
# GULP energy per Si atom -5583.071452 kJ/mol
# Density = 2.347812 g / cm^3
# Si number density = 23.531676 Si / 1000 Ang^3
#
#
#
# Elastic Constant Matrix: (Units=GPa)
#
#
# Indices 1 2 3 4 5 6 
#
# 1 68.9409 22.6529 27.5106 0.0000 0.0000 0.0000
# 2 22.6529 68.9409 27.5106 0.0000 0.0000 0.0000
# 3 27.5106 27.5106 199.9069 0.0000 0.0000 0.0000
# 4 0.0000 0.0000 0.0000 6.0656 0.0000 0.0000
# 5 0.0000 0.0000 0.0000 0.0000 6.0656 0.0000
# 6 0.0000 0.0000 0.0000 0.0000 0.0000 30.7233
#
#
#
# Elastic Compliance Matrix: (Units=1/GPa)
#
#
# Indices 1 2 3 4 5 6 
#
# 1 0.016753 -0.004851 -0.001638 0.000000 0.000000 0.000000
# 2 -0.004851 0.016753 -0.001638 0.000000 0.000000 0.000000
# 3 -0.001638 -0.001638 0.005453 0.000000 0.000000 0.000000
# 4 0.000000 0.000000 0.000000 0.164863 0.000000 0.000000
# 5 0.000000 0.000000 0.000000 0.000000 0.164863 0.000000
# 6 0.000000 0.000000 0.000000 0.000000 0.000000 0.032549
#
#
# Mechanical properties :
#
#
# Convention : Reuss Voigt Hill
#
# Bulk Modulus (GPa) = 44.04325 54.79300 49.41813
# Shear Modulus (GPa) = 11.76318 25.91188 18.83753
#
# Velocity S-wave (km/s) = 2.23824 3.32196 2.83241
# Velocity P-wave (km/s) = 5.04350 6.16840 5.63409
#
# Compressibility (1/GPa) = 0.02270495
#
# Stress axis : x y z
#
# Youngs Moduli (GPa) = 59.69159 59.69159 183.38101
#
# Poissons Ratio (x) = 0.28957 0.30035
# Poissons Ratio (y) = 0.28957 0.30035
# Poissons Ratio (z) = 0.09777 0.09777
#
# Static dielectric constant tensor:
#      x y z
#    x 1.929120 0.000000 0.000000 
#    y 0.000000 1.929120 0.000000 
#    z 0.000000 0.000000 2.267980 
# 
# From -- ./inp_files/2788.got.cif
#   From: 2010.05.17/outbox.cif.g08.bks.cpg/sg133_2_cif.got.tgz:2788.got - 2010.05.20 12:37:36.
