data_PCOD9567258
_publ_section_title
;
Structure prediction by ZEFSAII (Michael W. Deem and Ramdas Pophale) SiO2 
 PCOD9567258
Probable space group: P 42/M C M
;
_chemical_formula_sum "Si O2"
_cell_formula_units_Z 64
_cell_length_a 14.299210
_cell_length_b 14.299210
_cell_length_c 16.553336
_cell_angle_alpha 90.000000
_cell_angle_beta 90.000000
_cell_angle_gamma 90.000000
_cell_volume 3384.617683
_symmetry_space_group_name_H-M "P 42/M C M"
_symmetry_group_IT_number 132
_symmetry_cell_setting 'tetragonal'
loop_
_space_group_symop_operation_xyz
x,y,z
-y,x,1/2+z
-x,-y,z
y,-x,1/2+z
x,-y,1/2-z
-x,y,1/2-z
y,x,-z
-y,-x,-z
-x,-y,-z
y,-x,1/2-z
x,y,-z
-y,x,1/2-z
-x,y,1/2+z
x,-y,1/2+z
-y,-x,z
y,x,z
loop_
_atom_site_type_symbol
_atom_site_label
_atom_site_fract_x
_atom_site_fract_y
_atom_site_fract_z
Si Si1 0.823968 0.972970 0.345247
Si Si2 0.327835 0.819058 0.815444
Si Si3 0.894125 0.496656 0.908658
Si Si4 0.295463 0.149864 0.875230
O O1 0.919564 0.919564 0.371065
O O2 0.742036 0.896118 0.353226
O O3 0.836362 0.000000 0.250000
O O4 0.779008 0.065051 0.385310
O O5 0.281820 0.718181 0.830396
O O6 0.429865 0.833702 0.851719
O O7 0.318644 0.840739 0.720408
O O8 0.863994 0.603873 0.912823
O O9 0.000000 0.500000 0.876205
O O10 0.895960 0.457348 0.000000
O O11 0.242993 0.242993 0.901466
#
# Coordination Sequence:
#
# PCOD9567258 Si02
#       4
#    16  16  16  16
#     4   9  16  27  46  75 108 140 174 213 258 308
#     4   9  18  33  55  81 104 133 177 225 268 307
#     4  11  22  35  53  76 105 146 183 216 262 312
#     4  10  20  33  53  80 109 140 175 221 271 314
#
# _framework density 18.909078999999998
#
# number of rings (size 3 to 8) (size 9 to 14) (size 15 to 20)
#    0.000    2.250    2.500    3.000    0.000    3.750 
#    0.000    0.000    0.000    1.500    0.000    7.000 
#    0.000    0.000    0.000    0.000    0.000    0.000 
#
# Total GULP energy -356784.266288 kJ/mol
# GULP energy per Si atom -5574.754161 kJ/mol
# Density = 1.886604 g / cm^3
# Si number density = 18.909079 Si / 1000 Ang^3
#
#
#
# Elastic Constant Matrix: (Units=GPa)
#
#
# Indices 1 2 3 4 5 6 
#
# 1 107.4296 67.6281 26.9179 0.0000 0.0000 0.0000
# 2 67.6281 107.4296 26.9179 0.0000 0.0000 0.0000
# 3 26.9179 26.9179 35.1682 0.0000 0.0000 0.0000
# 4 0.0000 0.0000 0.0000 -89.7005 0.0000 0.0000
# 5 0.0000 0.0000 0.0000 0.0000 -89.7005 0.0000
# 6 0.0000 0.0000 0.0000 0.0000 0.0000 23.9423
#
#
#
# Elastic Compliance Matrix: (Units=1/GPa)
#
#
# Indices 1 2 3 4 5 6 
#
# 1 0.016298 -0.008827 -0.005718 0.000000 0.000000 0.000000
# 2 -0.008827 0.016298 -0.005718 0.000000 0.000000 0.000000
# 3 -0.005718 -0.005718 0.037189 0.000000 0.000000 0.000000
# 4 0.000000 0.000000 0.000000 -0.011148 0.000000 0.000000
# 5 0.000000 0.000000 0.000000 0.000000 -0.011148 0.000000
# 6 0.000000 0.000000 0.000000 0.000000 0.000000 0.041767
#
#
# Mechanical properties :
#
#
# Convention : Reuss Voigt Hill
#
# Bulk Modulus (GPa) = 34.17970 54.77280 44.47625
# Shear Modulus (GPa) = 35.83349 -22.52087 6.65631
#
# Velocity S-wave (km/s) = 4.35793 -3.45484 1.87825
# Velocity P-wave (km/s) = 6.59069 3.62142 5.31751
#
# Compressibility (1/GPa) = 0.02925713
#
# Stress axis : x y z
#
# Youngs Moduli (GPa) = 61.35794 61.35794 26.89002
#
# Poissons Ratio (x) = 0.54160 0.15377
# Poissons Ratio (y) = 0.54160 0.15377
# Poissons Ratio (z) = 0.35087 0.35087
#
# Static dielectric constant tensor:
#      x y z
#    x 1.652910 0.000000 0.000000 
#    y 0.000000 1.652910 0.000000 
#    z 0.000000 0.000000 1.683240 
# 
# From -- ./inp_files/4419.got.cif
#   From: 2010.05.17/outbox.cif.g08.bks.cpg/sg132_3_cif.got.tgz:4419.got - 2010.05.20 12:30:18.
