data_PCOD9567363
_publ_section_title
;
Structure prediction by ZEFSAII (Michael W. Deem and Ramdas Pophale) SiO2 
 PCOD9567363
Probable space group: P 42/M C M
;
_chemical_formula_sum "Si O2"
_cell_formula_units_Z 42
_cell_length_a 10.920890
_cell_length_b 10.920890
_cell_length_c 20.577989
_cell_angle_alpha 90.000000
_cell_angle_beta 90.000000
_cell_angle_gamma 90.000000
_cell_volume 2454.251111
_symmetry_space_group_name_H-M "P 42/M C M"
_symmetry_group_IT_number 132
_symmetry_cell_setting 'tetragonal'
loop_
_space_group_symop_operation_xyz
x,y,z
-y,x,1/2+z
-x,-y,z
y,-x,1/2+z
x,-y,1/2-z
-x,y,1/2-z
y,x,-z
-y,-x,-z
-x,-y,-z
y,-x,1/2-z
x,y,-z
-y,x,1/2-z
-x,y,1/2+z
x,-y,1/2+z
-y,-x,z
y,x,z
loop_
_atom_site_type_symbol
_atom_site_label
_atom_site_fract_x
_atom_site_fract_y
_atom_site_fract_z
Si Si1 0.795376 0.005450 0.500000
Si Si2 0.500000 0.500000 0.000000
Si Si3 0.677175 0.677175 0.426780
Si Si4 0.000000 0.795537 0.250000
Si Si5 0.633942 0.059175 0.875938
O O1 0.866231 0.133770 0.500000
O O2 0.711374 0.992703 0.563388
O O3 0.901512 0.901512 0.500000
O O4 0.423390 0.576611 0.943875
O O5 0.718050 0.718050 0.500000
O O6 0.795452 0.626657 0.389667
O O7 0.968195 0.711058 0.311331
O O8 0.114699 0.885302 0.264051
O O9 0.500000 0.000000 0.873108
#
# Coordination Sequence:
#
# PCOD9567363 Si02
#       5
#     8   2   8   8  16
#     4  11  20  36  61  93 124 152 198 261 323 371
#     4   8  20  40  64  88 124 186 188 270 320 364
#     4  10  20  42  62  88 132 155 214 254 315 384
#     4  11  23  42  64  88 121 159 206 262 328 381
#     4  12  22  39  62  90 122 164 202 261 312 383
#
# _framework density 17.113163
#
# number of rings (size 3 to 8) (size 9 to 14) (size 15 to 20)
#    0.571    0.381    5.714    2.286    0.000    3.048 
#   10.286    0.000    0.000    0.000    0.000    0.000 
#    0.000    0.000    0.000    0.000    0.000    0.000 
#
# Total GULP energy -233833.117333 kJ/mol
# GULP energy per Si atom -5567.455175 kJ/mol
# Density = 1.707421 g / cm^3
# Si number density = 17.113163 Si / 1000 Ang^3
#
#
#
# Elastic Constant Matrix: (Units=GPa)
#
#
# Indices 1 2 3 4 5 6 
#
# 1 152.9713 99.7418 68.0069 0.0000 0.0000 0.0000
# 2 99.7418 152.9697 68.0068 0.0000 0.0000 0.0000
# 3 68.0069 68.0068 143.7332 0.0000 0.0000 0.0000
# 4 0.0000 0.0000 0.0000 -11.9990 0.0000 0.0000
# 5 0.0000 0.0000 0.0000 0.0000 -12.0093 0.0000
# 6 0.0000 0.0000 0.0000 0.0000 0.0000 45.0764
#
#
#
# Elastic Compliance Matrix: (Units=1/GPa)
#
#
# Indices 1 2 3 4 5 6 
#
# 1 0.012048 -0.006739 -0.002512 0.000000 0.000000 0.000000
# 2 -0.006739 0.012048 -0.002512 0.000000 0.000000 0.000000
# 3 -0.002512 -0.002512 0.009334 0.000000 0.000000 0.000000
# 4 0.000000 0.000000 0.000000 -0.083340 0.000000 0.000000
# 5 0.000000 0.000000 0.000000 0.000000 -0.083269 0.000000
# 6 0.000000 0.000000 0.000000 0.000000 0.000000 0.022185
#
#
# Mechanical properties :
#
#
# Convention : Reuss Voigt Hill
#
# Bulk Modulus (GPa) = 100.96274 102.35393 101.65833
# Shear Modulus (GPa) = -59.40587 18.47486 -20.46550
#
# Velocity S-wave (km/s) = -5.89821 3.28925 -3.46192
# Velocity P-wave (km/s) = 3.56931 8.62354 6.59945
#
# Compressibility (1/GPa) = 0.00990464
#
# Stress axis : x y z
#
# Youngs Moduli (GPa) = 83.00217 83.00118 107.13089
#
# Poissons Ratio (x) = 0.55934 0.26911
# Poissons Ratio (y) = 0.55934 0.26911
# Poissons Ratio (z) = 0.20850 0.20850
#
# Static dielectric constant tensor:
#      x y z
#    x 1.566960 0.000000 0.000000 
#    y 0.000000 1.566960 0.000000 
#    z 0.000000 0.000000 1.568950 
# 
# From -- ./inp_files/5619.got.cif
#   From: 2010.05.17/outbox.cif.g08.bks.cpg/sg132_3_cif.got.tgz:5619.got - 2010.05.20 12:30:18.
