data_PCOD9567714
_publ_section_title
;
Structure prediction by ZEFSAII (Michael W. Deem and Ramdas Pophale) SiO2 
 PCOD9567714
Probable space group: P 42/N B C
;
_chemical_formula_sum "Si O2"
_cell_formula_units_Z 96
_cell_length_a 13.872091
_cell_length_b 13.872091
_cell_length_c 21.602475
_cell_angle_alpha 90.000000
_cell_angle_beta 90.000000
_cell_angle_gamma 90.000000
_cell_volume 4157.070305
_symmetry_space_group_name_H-M "P 42/N B C"
_symmetry_group_IT_number 133
_space_group.IT_coordinate_system_code '2'
_symmetry_cell_setting 'tetragonal'
loop_
_space_group_symop_operation_xyz
x,y,z
1/2-y,x,1/2+z
1/2-x,1/2-y,z
y,1/2-x,1/2+z
x,1/2-y,-z
1/2-x,y,-z
y,x,1/2-z
1/2-y,1/2-x,1/2-z
-x,-y,-z
1/2+y,-x,1/2-z
1/2+x,1/2+y,-z
-y,1/2+x,1/2-z
-x,1/2+y,z
1/2+x,-y,z
-y,-x,1/2+z
1/2+y,1/2+x,1/2+z
loop_
_atom_site_type_symbol
_atom_site_label
_atom_site_fract_x
_atom_site_fract_y
_atom_site_fract_z
Si Si1 0.588359 0.807029 0.660358
Si Si2 0.701117 0.427005 0.063447
Si Si3 0.616842 0.899804 0.378271
Si Si4 0.773977 0.519883 0.704441
Si Si5 0.115826 0.511014 0.505449
Si Si6 0.897232 0.384601 0.119726
O O1 0.512782 0.834832 0.607215
O O2 0.639754 0.710657 0.636674
O O3 0.659301 0.892292 0.678892
O O4 0.531313 0.774667 0.722184
O O5 0.610356 0.365656 0.042392
O O6 0.787535 0.372890 0.097698
O O7 0.750000 0.466198 0.000000
O O8 0.671147 0.965382 0.328114
O O9 0.500534 0.910036 0.373017
O O10 0.646973 0.927282 0.448225
O O11 0.826335 0.424694 0.680253
O O12 0.149051 0.531209 0.435847
O O13 0.000000 0.500000 0.500000
#
# Coordination Sequence:
#
# PCOD9567714 Si02
#       6
#    16  16  16  16  16  16
#     4  10  21  37  56  89 120 162 195 260 318 378
#     4   9  18  38  63  88 123 162 208 258 315 366
#     4  10  20  36  59  88 119 159 201 256 315 368
#     4  11  22  38  56  88 126 159 207 249 309 389
#     4   9  17  34  61  91 119 158 204 255 307 372
#     4   9  20  38  60  89 122 162 206 253 308 374
#
# _framework density 23.093187
#
# number of rings (size 3 to 8) (size 9 to 14) (size 15 to 20)
#    0.000    2.333    0.000    4.000    0.000    2.000 
#   21.000    0.833    0.000   13.000    0.000    0.000 
#    0.000    0.000    0.000    0.000    0.000    0.000 
#
# Total GULP energy -536670.392865 kJ/mol
# GULP energy per Si atom -5590.316592 kJ/mol
# Density = 2.304063 g / cm^3
# Si number density = 23.093187 Si / 1000 Ang^3
#
#
#
# Elastic Constant Matrix: (Units=GPa)
#
#
# Indices 1 2 3 4 5 6 
#
# 1 71.3938 12.9369 27.3995 0.0000 0.0000 0.0000
# 2 12.9369 71.3938 27.3995 0.0000 0.0000 0.0000
# 3 27.3995 27.3995 112.4026 0.0000 0.0000 0.0000
# 4 0.0000 0.0000 0.0000 7.9005 0.0000 0.0000
# 5 0.0000 0.0000 0.0000 0.0000 7.9005 0.0000
# 6 0.0000 0.0000 0.0000 0.0000 0.0000 16.6640
#
#
#
# Elastic Compliance Matrix: (Units=1/GPa)
#
#
# Indices 1 2 3 4 5 6 
#
# 1 0.015598 -0.001508 -0.003435 0.000000 0.000000 0.000000
# 2 -0.001508 0.015598 -0.003435 0.000000 0.000000 0.000000
# 3 -0.003435 -0.003435 0.010571 0.000000 0.000000 0.000000
# 4 0.000000 0.000000 0.000000 0.126574 0.000000 0.000000
# 5 0.000000 0.000000 0.000000 0.000000 0.126574 0.000000
# 6 0.000000 0.000000 0.000000 0.000000 0.000000 0.060009
#
#
# Mechanical properties :
#
#
# Convention : Reuss Voigt Hill
#
# Bulk Modulus (GPa) = 39.98002 43.40692 41.69347
# Shear Modulus (GPa) = 13.15726 18.98996 16.07361
#
# Velocity S-wave (km/s) = 2.38953 2.87072 2.64111
# Velocity P-wave (km/s) = 4.99632 5.46125 5.23395
#
# Compressibility (1/GPa) = 0.02501249
#
# Stress axis : x y z
#
# Youngs Moduli (GPa) = 64.10972 64.10972 94.59810
#
# Poissons Ratio (x) = 0.09670 0.32491
# Poissons Ratio (y) = 0.09670 0.32491
# Poissons Ratio (z) = 0.22019 0.22019
#
# Static dielectric constant tensor:
#      x y z
#    x 1.898560 0.000000 0.000000 
#    y 0.000000 1.898560 0.000000 
#    z 0.000000 0.000000 1.844820 
# 
# From -- ./inp_files/6532.got.cif
#   From: 2010.05.17/outbox.cif.g08.bks.cpg/sg133_4_cif.got.tgz:6532.got - 2010.05.20 12:37:36.
