data_PCOD9567255
_publ_section_title
;
Structure prediction by ZEFSAII (Michael W. Deem and Ramdas Pophale) SiO2 
 PCOD9567255
Probable space group: P 42/M C M
;
_chemical_formula_sum "Si O2"
_cell_formula_units_Z 64
_cell_length_a 14.742924
_cell_length_b 14.742924
_cell_length_c 15.981112
_cell_angle_alpha 90.000000
_cell_angle_beta 90.000000
_cell_angle_gamma 90.000000
_cell_volume 3473.555550
_symmetry_space_group_name_H-M "P 42/M C M"
_symmetry_group_IT_number 132
_symmetry_cell_setting 'tetragonal'
loop_
_space_group_symop_operation_xyz
x,y,z
-y,x,1/2+z
-x,-y,z
y,-x,1/2+z
x,-y,1/2-z
-x,y,1/2-z
y,x,-z
-y,-x,-z
-x,-y,-z
y,-x,1/2-z
x,y,-z
-y,x,1/2-z
-x,y,1/2+z
x,-y,1/2+z
-y,-x,z
y,x,z
loop_
_atom_site_type_symbol
_atom_site_label
_atom_site_fract_x
_atom_site_fract_y
_atom_site_fract_z
Si Si1 0.898821 0.483071 0.348261
Si Si2 0.721517 0.136083 0.398478
Si Si3 0.192912 0.948794 0.102161
Si Si4 0.799510 0.659020 0.399772
O O1 0.905289 0.500000 0.250000
O O2 0.871942 0.380304 0.366586
O O3 0.826265 0.556982 0.378703
O O4 0.000000 0.500000 0.385370
O O5 0.718645 0.133831 0.500000
O O6 0.773246 0.226755 0.372096
O O7 0.781106 0.049315 0.370255
O O8 0.099082 0.900919 0.128611
O O9 0.274434 0.881340 0.128207
O O10 0.191371 0.950435 0.000000
O O11 0.798436 0.664322 0.500000
O O12 0.706087 0.706087 0.369413
#
# Coordination Sequence:
#
# PCOD9567255 Si02
#       4
#    16  16  16  16
#     4  11  22  34  51  76 106 141 179 215 261 311
#     4  10  20  33  52  79 109 140 174 219 270 311
#     4   8  14  26  46  74 106 138 171 206 249 302
#     4   9  17  31  54  79 100 131 176 220 259 301
#
# _framework density 18.424924000000001
#
# number of rings (size 3 to 8) (size 9 to 14) (size 15 to 20)
#    0.000    2.500    2.500    2.250    0.000    2.500 
#    0.000    2.500    0.000    0.750    0.000    5.250 
#    0.000    0.000    0.000    0.000    0.000    0.000 
#
# Total GULP energy -356799.908545 kJ/mol
# GULP energy per Si atom -5574.998571 kJ/mol
# Density = 1.838299 g / cm^3
# Si number density = 18.424924 Si / 1000 Ang^3
#
#
#
# Elastic Constant Matrix: (Units=GPa)
#
#
# Indices 1 2 3 4 5 6 
#
# 1 145.2649 101.7055 19.2509 0.0000 0.0000 0.0000
# 2 101.7055 145.2649 19.2509 0.0000 0.0000 0.0000
# 3 19.2509 19.2509 11.7750 0.0000 0.0000 0.0000
# 4 0.0000 0.0000 0.0000 13.9480 0.0000 0.0000
# 5 0.0000 0.0000 0.0000 0.0000 13.9480 0.0000
# 6 0.0000 0.0000 0.0000 0.0000 0.0000 22.6962
#
#
#
# Elastic Compliance Matrix: (Units=1/GPa)
#
#
# Indices 1 2 3 4 5 6 
#
# 1 0.014196 -0.008762 -0.008884 0.000000 0.000000 0.000000
# 2 -0.008762 0.014196 -0.008884 0.000000 0.000000 0.000000
# 3 -0.008884 -0.008884 0.113975 0.000000 0.000000 0.000000
# 4 0.000000 0.000000 0.000000 0.071695 0.000000 0.000000
# 5 0.000000 0.000000 0.000000 0.000000 0.071695 0.000000
# 6 0.000000 0.000000 0.000000 0.000000 0.000000 0.044060
#
#
# Mechanical properties :
#
#
# Convention : Reuss Voigt Hill
#
# Bulk Modulus (GPa) = 11.19740 64.74659 37.97200
# Shear Modulus (GPa) = 12.11697 20.92494 16.52096
#
# Velocity S-wave (km/s) = 2.56723 3.37365 2.99768
# Velocity P-wave (km/s) = 3.85721 7.09876 5.71273
#
# Compressibility (1/GPa) = 0.08930646
#
# Stress axis : x y z
#
# Youngs Moduli (GPa) = 70.44430 70.44430 8.77386
#
# Poissons Ratio (x) = 0.61720 0.07795
# Poissons Ratio (y) = 0.61720 0.07795
# Poissons Ratio (z) = 0.62584 0.62584
#
# Static dielectric constant tensor:
#      x y z
#    x 1.648070 0.000000 0.000000 
#    y 0.000000 1.648070 0.000000 
#    z 0.000000 0.000000 1.663520 
# 
# From -- ./inp_files/4397.got.cif
#   From: 2010.05.17/outbox.cif.g08.bks.cpg/sg132_3_cif.got.tgz:4397.got - 2010.05.20 12:30:18.
