data_PCOD9567948
_publ_section_title
;
Structure prediction by ZEFSAII (Michael W. Deem and Ramdas Pophale) SiO2 
 PCOD9567948
Probable space group: P 42/N B C
;
_chemical_formula_sum "Si O2"
_cell_formula_units_Z 88
_cell_length_a 18.299617
_cell_length_b 18.299617
_cell_length_c 13.329216
_cell_angle_alpha 90.000000
_cell_angle_beta 90.000000
_cell_angle_gamma 90.000000
_cell_volume 4463.634302
_symmetry_space_group_name_H-M "P 42/N B C"
_symmetry_group_IT_number 133
_space_group.IT_coordinate_system_code '2'
_symmetry_cell_setting 'tetragonal'
loop_
_space_group_symop_operation_xyz
x,y,z
1/2-y,x,1/2+z
1/2-x,1/2-y,z
y,1/2-x,1/2+z
x,1/2-y,-z
1/2-x,y,-z
y,x,1/2-z
1/2-y,1/2-x,1/2-z
-x,-y,-z
1/2+y,-x,1/2-z
1/2+x,1/2+y,-z
-y,1/2+x,1/2-z
-x,1/2+y,z
1/2+x,-y,z
-y,-x,1/2+z
1/2+y,1/2+x,1/2+z
loop_
_atom_site_type_symbol
_atom_site_label
_atom_site_fract_x
_atom_site_fract_y
_atom_site_fract_z
Si Si1 0.590111 0.104880 0.937528
Si Si2 0.831559 0.944525 0.046796
Si Si3 0.046363 0.595898 0.841523
Si Si4 0.421693 0.430643 0.358659
Si Si5 0.823593 0.334650 0.784588
Si Si6 0.111133 0.388868 0.250000
O O1 0.512704 0.106264 0.878977
O O2 0.646516 0.164258 0.896338
O O3 0.628797 0.024012 0.934839
O O4 0.567905 0.122850 0.049759
O O5 0.833496 0.899698 0.153543
O O6 0.750000 0.953839 0.000000
O O7 0.880424 0.909171 0.956629
O O8 0.058727 0.509119 0.846727
O O9 0.098341 0.634361 0.763253
O O10 0.964730 0.613396 0.810242
O O11 0.398627 0.398627 0.250000
O O12 0.844024 0.262122 0.725130
#
# Coordination Sequence:
#
# PCOD9567948 Si02
#       6
#    16  16  16  16  16   8
#     4  11  21  35  58  86 122 172 219 267 318 373
#     4  11  23  34  62 102 126 158 207 269 339 394
#     4  11  19  33  60  81 116 166 213 267 322 364
#     4  11  18  35  60  92 123 160 213 272 319 367
#     4  11  25  39  53  80 128 182 223 264 310 370
#     4  12  18  40  62  92 131 160 208 279 334 380
#
# _framework density 19.714877000000001
#
# number of rings (size 3 to 8) (size 9 to 14) (size 15 to 20)
#    0.000    0.909    8.182    1.091    5.091    0.727 
#    0.000    1.818    0.000    1.091    0.000    1.909 
#    0.000    0.000    0.000    0.000    0.000    0.000 
#
# Total GULP energy -490382.994080 kJ/mol
# GULP energy per Si atom -5572.534024 kJ/mol
# Density = 1.967001 g / cm^3
# Si number density = 19.714877 Si / 1000 Ang^3
#
#
#
# Elastic Constant Matrix: (Units=GPa)
#
#
# Indices 1 2 3 4 5 6 
#
# 1 8.7475 59.1077 19.1545 0.0000 0.0000 0.0000
# 2 59.1077 8.7459 19.1506 0.0000 0.0000 0.0000
# 3 19.1545 19.1506 150.8608 0.0000 0.0000 0.0000
# 4 0.0000 0.0000 0.0000 21.9126 0.0000 0.0000
# 5 0.0000 0.0000 0.0000 0.0000 21.9130 0.0000
# 6 0.0000 0.0000 0.0000 0.0000 0.0000 18.1460
#
#
#
# Elastic Compliance Matrix: (Units=1/GPa)
#
#
# Indices 1 2 3 4 5 6 
#
# 1 -0.001991 0.017866 -0.002015 0.000000 0.000000 0.000000
# 2 0.017866 -0.001991 -0.002016 0.000000 0.000000 0.000000
# 3 -0.002015 -0.002016 0.007140 0.000000 0.000000 0.000000
# 4 0.000000 0.000000 0.000000 0.045636 0.000000 0.000000
# 5 0.000000 0.000000 0.000000 0.000000 0.045635 0.000000
# 6 0.000000 0.000000 0.000000 0.000000 0.000000 0.055109
#
#
# Mechanical properties :
#
#
# Convention : Reuss Voigt Hill
#
# Bulk Modulus (GPa) = 32.43697 40.35330 36.39513
# Shear Modulus (GPa) = 37.83737 17.12376 27.48057
#
# Velocity S-wave (km/s) = 4.38565 2.95035 3.73755
# Velocity P-wave (km/s) = 6.49107 5.66736 6.09315
#
# Compressibility (1/GPa) = 0.03082902
#
# Stress axis : x y z
#
# Youngs Moduli (GPa) = -502.35423 -502.30909 140.04882
#
# Poissons Ratio (x) = 8.97421 0.28222
# Poissons Ratio (y) = 8.97502 0.28229
# Poissons Ratio (z) = -1.01234 -1.01250
#
# Static dielectric constant tensor:
#      x y z
#    x 1.683530 0.000000 0.000000 
#    y 0.000000 1.683530 0.000000 
#    z 0.000000 0.000000 1.969580 
# 
# From -- ./inp_files/4458.got.cif
#   From: 2010.05.17/outbox.cif.g08.bks.cpg/sg133_3_cif.got.tgz:4458.got - 2010.05.20 12:37:36.
