data_PCOD9567448
_publ_section_title
;
Structure prediction by ZEFSAII (Michael W. Deem and Ramdas Pophale) SiO2 
 PCOD9567448
Probable space group: P 42/M C M
;
_chemical_formula_sum "Si O2"
_cell_formula_units_Z 96
_cell_length_a 14.772429
_cell_length_b 14.772429
_cell_length_c 19.168674
_cell_angle_alpha 90.000000
_cell_angle_beta 90.000000
_cell_angle_gamma 90.000000
_cell_volume 4183.077339
_symmetry_space_group_name_H-M "P 42/M C M"
_symmetry_group_IT_number 132
_symmetry_cell_setting 'tetragonal'
loop_
_space_group_symop_operation_xyz
x,y,z
-y,x,1/2+z
-x,-y,z
y,-x,1/2+z
x,-y,1/2-z
-x,y,1/2-z
y,x,-z
-y,-x,-z
-x,-y,-z
y,-x,1/2-z
x,y,-z
-y,x,1/2-z
-x,y,1/2+z
x,-y,1/2+z
-y,-x,z
y,x,z
loop_
_atom_site_type_symbol
_atom_site_label
_atom_site_fract_x
_atom_site_fract_y
_atom_site_fract_z
Si Si1 0.253061 0.108204 0.817895
Si Si2 0.576010 0.920989 0.081468
Si Si3 0.022512 0.175606 0.577927
Si Si4 0.717502 0.571477 0.308688
Si Si5 0.703377 0.558548 0.922230
Si Si6 0.139713 0.291503 0.340130
O O1 0.209398 0.209398 0.824696
O O2 0.343883 0.083794 0.860788
O O3 0.271254 0.095972 0.735521
O O4 0.180103 0.045066 0.857315
O O5 0.553733 0.812816 0.081547
O O6 0.500000 0.000000 0.097052
O O7 0.603710 0.938378 0.000000
O O8 0.982641 0.175969 0.500000
O O9 0.090151 0.090151 0.582303
O O10 0.080576 0.266706 0.592880
O O11 0.740374 0.500000 0.250000
O O12 0.651787 0.651787 0.283424
O O13 0.668510 0.514057 0.367759
O O14 0.810666 0.613852 0.336455
O O15 0.656522 0.656522 0.909420
O O16 0.678041 0.532074 0.000000
O O17 0.219801 0.219801 0.345592
#
# Coordination Sequence:
#
# PCOD9567448 Si02
#       6
#    16  16  16  16  16  16
#     4  11  22  39  66  96 130 172 219 274 340 409
#     4  10  22  39  61  92 129 168 218 276 329 392
#     4  10  22  40  63  93 131 173 218 270 330 402
#     4  11  23  39  63  93 125 164 213 270 328 389
#     4  10  22  40  62  90 129 174 216 265 330 402
#     4   9  21  41  62  88 126 171 218 270 331 403
#
# _framework density 22.949612999999999
#
# number of rings (size 3 to 8) (size 9 to 14) (size 15 to 20)
#    0.000    1.833    0.000    3.000    2.333    5.833 
#    0.000    3.333    0.000    3.000    0.000    0.000 
#    0.000    0.000    0.000    0.000    0.000    0.000 
#
# Total GULP energy -534801.383184 kJ/mol
# GULP energy per Si atom -5570.847742 kJ/mol
# Density = 2.289738 g / cm^3
# Si number density = 22.949613 Si / 1000 Ang^3
#
#
#
# Elastic Constant Matrix: (Units=GPa)
#
#
# Indices 1 2 3 4 5 6 
#
# 1 62.6527 46.8341 26.9037 0.0000 0.0000 0.0000
# 2 46.8341 62.6527 26.9037 0.0000 0.0000 0.0000
# 3 26.9037 26.9037 99.3680 0.0000 0.0000 0.0000
# 4 0.0000 0.0000 0.0000 31.8015 0.0000 0.0000
# 5 0.0000 0.0000 0.0000 0.0000 31.8015 0.0000
# 6 0.0000 0.0000 0.0000 0.0000 0.0000 44.9101
#
#
#
# Elastic Compliance Matrix: (Units=1/GPa)
#
#
# Indices 1 2 3 4 5 6 
#
# 1 0.036876 -0.026341 -0.002852 0.000000 0.000000 0.000000
# 2 -0.026341 0.036876 -0.002852 0.000000 0.000000 0.000000
# 3 -0.002852 -0.002852 0.011608 0.000000 0.000000 0.000000
# 4 0.000000 0.000000 0.000000 0.031445 0.000000 0.000000
# 5 0.000000 0.000000 0.000000 0.000000 0.031445 0.000000
# 6 0.000000 0.000000 0.000000 0.000000 0.000000 0.022267
#
#
# Mechanical properties :
#
#
# Convention : Reuss Voigt Hill
#
# Bulk Modulus (GPa) = 47.01641 47.32850 47.17245
# Shear Modulus (GPa) = 20.68692 29.97141 25.32916
#
# Velocity S-wave (km/s) = 3.00560 3.61774 3.32578
# Velocity P-wave (km/s) = 5.70755 6.17400 5.94535
#
# Compressibility (1/GPa) = 0.02126917
#
# Stress axis : x y z
#
# Youngs Moduli (GPa) = 27.11775 27.11775 86.14613
#
# Poissons Ratio (x) = 0.71430 0.24573
# Poissons Ratio (y) = 0.71430 0.24573
# Poissons Ratio (z) = 0.07735 0.07735
#
# Static dielectric constant tensor:
#      x y z
#    x 1.925380 0.000000 0.000000 
#    y 0.000000 1.925380 0.000000 
#    z 0.000000 0.000000 1.829570 
# 
# From -- ./inp_files/7906.got.cif
#   From: 2010.05.17/outbox.cif.g08.bks.cpg/sg132_4_cif.got.tgz:7906.got - 2010.05.20 12:30:18.
