data_PCOD9567048
_publ_section_title
;
Structure prediction by ZEFSAII (Michael W. Deem and Ramdas Pophale) SiO2 
 PCOD9567048
Probable space group: P 42/M C M
;
_chemical_formula_sum "Si O2"
_cell_formula_units_Z 96
_cell_length_a 25.403297
_cell_length_b 25.403297
_cell_length_c 9.381981
_cell_angle_alpha 90.000000
_cell_angle_beta 90.000000
_cell_angle_gamma 90.000000
_cell_volume 6054.450329
_symmetry_space_group_name_H-M "P 42/M C M"
_symmetry_group_IT_number 132
_symmetry_cell_setting 'tetragonal'
loop_
_space_group_symop_operation_xyz
x,y,z
-y,x,1/2+z
-x,-y,z
y,-x,1/2+z
x,-y,1/2-z
-x,y,1/2-z
y,x,-z
-y,-x,-z
-x,-y,-z
y,-x,1/2-z
x,y,-z
-y,x,1/2-z
-x,y,1/2+z
x,-y,1/2+z
-y,-x,z
y,x,z
loop_
_atom_site_type_symbol
_atom_site_label
_atom_site_fract_x
_atom_site_fract_y
_atom_site_fract_z
Si Si1 0.448787 0.123725 0.836733
Si Si2 0.658670 0.748295 0.332708
Si Si3 0.743572 0.050670 0.162598
Si Si4 0.255408 0.830995 0.173675
Si Si5 0.250624 0.447905 0.164205
Si Si6 0.949661 0.382987 0.162030
O O1 0.500000 0.105396 0.750000
O O2 0.449277 0.186833 0.837538
O O3 0.400022 0.101349 0.749140
O O4 0.448647 0.105356 0.000000
O O5 0.644781 0.755729 0.500000
O O6 0.700748 0.700748 0.324478
O O7 0.691146 0.800303 0.282993
O O8 0.606566 0.736395 0.243483
O O9 0.752978 0.109297 0.223568
O O10 0.680046 0.047066 0.156354
O O11 0.762592 0.000000 0.250000
O O12 0.763481 0.048361 0.000000
O O13 0.206976 0.793025 0.211849
O O14 0.258101 0.833154 0.000000
O O15 0.268260 0.500000 0.250000
O O16 0.268659 0.448779 0.000000
O O17 0.000000 0.402865 0.250000
O O18 0.948328 0.402719 0.000000
#
# Coordination Sequence:
#
# PCOD9567048 Si02
#       6
#    16  16  16  16  16  16
#     4  10  20  32  44  59  78 104 140 180 221 260
#     4   9  17  30  49  71  94 120 151 188 228 271
#     4   9  17  28  43  62  84 111 141 174 212 256
#     4   8  14  26  45  67  89 116 150 183 217 264
#     4  10  20  32  47  66  90 119 150 185 222 265
#     4  10  19  30  43  58  77 103 136 175 217 260
#
# _framework density 15.856104
#
# number of rings (size 3 to 8) (size 9 to 14) (size 15 to 20)
#    0.000    2.667    0.000    3.500    0.000    4.667 
#    0.000    2.500    0.000    1.500    0.000    0.000 
#    0.000    0.667    0.000    7.667    0.000    1.500 
#
# Total GULP energy -534759.979209 kJ/mol
# GULP energy per Si atom -5570.416450 kJ/mol
# Density = 1.582001 g / cm^3
# Si number density = 15.856104 Si / 1000 Ang^3
#
#
#
# Elastic Constant Matrix: (Units=GPa)
#
#
# Indices 1 2 3 4 5 6 
#
# 1 71.3615 10.1545 30.0803 0.0000 0.0000 0.0000
# 2 10.1545 71.3615 30.0803 0.0000 0.0000 0.0000
# 3 30.0803 30.0803 88.9910 0.0000 0.0000 0.0000
# 4 0.0000 0.0000 0.0000 18.6206 0.0000 0.0000
# 5 0.0000 0.0000 0.0000 0.0000 18.6206 0.0000
# 6 0.0000 0.0000 0.0000 0.0000 0.0000 15.5453
#
#
#
# Elastic Compliance Matrix: (Units=1/GPa)
#
#
# Indices 1 2 3 4 5 6 
#
# 1 0.016342 0.000004 -0.005525 0.000000 0.000000 0.000000
# 2 0.000004 0.016342 -0.005525 0.000000 0.000000 0.000000
# 3 -0.005525 -0.005525 0.014972 0.000000 0.000000 0.000000
# 4 0.000000 0.000000 0.000000 0.053704 0.000000 0.000000
# 5 0.000000 0.000000 0.000000 0.000000 0.053704 0.000000
# 6 0.000000 0.000000 0.000000 0.000000 0.000000 0.064328
#
#
# Mechanical properties :
#
#
# Convention : Reuss Voigt Hill
#
# Bulk Modulus (GPa) = 39.11960 41.37159 40.24559
# Shear Modulus (GPa) = 19.99966 21.31723 20.65844
#
# Velocity S-wave (km/s) = 3.55536 3.67061 3.61344
# Velocity P-wave (km/s) = 6.44820 6.64176 6.54570
#
# Compressibility (1/GPa) = 0.02556263
#
# Stress axis : x y z
#
# Youngs Moduli (GPa) = 61.19385 61.19385 66.79096
#
# Poissons Ratio (x) = -0.00021 0.36901
# Poissons Ratio (y) = -0.00021 0.36901
# Poissons Ratio (z) = 0.33809 0.33809
#
# Static dielectric constant tensor:
#      x y z
#    x 1.539460 0.000000 0.000000 
#    y 0.000000 1.539460 0.000000 
#    z 0.000000 0.000000 1.549230 
# 
# From -- ./inp_files/1704.got.cif
#   From: 2010.05.17/outbox.cif.g08.bks.cpg/sg132_1_cif.got.tgz:1704.got - 2010.05.20 12:30:18.
