data_PCOD9567126
_publ_section_title
;
Structure prediction by ZEFSAII (Michael W. Deem and Ramdas Pophale) SiO2 
 PCOD9567126
Probable space group: P 42/M C M
;
_chemical_formula_sum "Si O2"
_cell_formula_units_Z 64
_cell_length_a 14.410567
_cell_length_b 14.410567
_cell_length_c 17.033494
_cell_angle_alpha 90.000000
_cell_angle_beta 90.000000
_cell_angle_gamma 90.000000
_cell_volume 3537.251014
_symmetry_space_group_name_H-M "P 42/M C M"
_symmetry_group_IT_number 132
_symmetry_cell_setting 'tetragonal'
loop_
_space_group_symop_operation_xyz
x,y,z
-y,x,1/2+z
-x,-y,z
y,-x,1/2+z
x,-y,1/2-z
-x,y,1/2-z
y,x,-z
-y,-x,-z
-x,-y,-z
y,-x,1/2-z
x,y,-z
-y,x,1/2-z
-x,y,1/2+z
x,-y,1/2+z
-y,-x,z
y,x,z
loop_
_atom_site_type_symbol
_atom_site_label
_atom_site_fract_x
_atom_site_fract_y
_atom_site_fract_z
Si Si1 0.304632 0.455192 0.593492
Si Si2 0.351541 0.788917 0.372937
Si Si3 0.996498 0.611302 0.084579
Si Si4 0.856314 0.601781 0.290993
O O1 0.291330 0.446760 0.500000
O O2 0.402798 0.402798 0.611671
O O3 0.282958 0.562615 0.614927
O O4 0.223344 0.407289 0.643370
O O5 0.261189 0.738812 0.403261
O O6 0.367428 0.888064 0.411324
O O7 0.342457 0.814166 0.281152
O O8 0.000000 0.500000 0.085219
O O9 0.054531 0.638651 0.161794
O O10 0.034824 0.643723 0.000000
O O11 0.875420 0.500000 0.250000
#
# Coordination Sequence:
#
# PCOD9567126 Si02
#       4
#    16  16  16  16
#     4  10  20  33  50  72 104 148 193 228 262 312
#     4  11  23  35  51  78 112 147 183 226 276 328
#     4  11  20  33  56  80 101 139 183 227 281 327
#     4  10  19  33  53  75  99 136 180 234 275 319
#
# _framework density 18.093147999999999
#
# number of rings (size 3 to 8) (size 9 to 14) (size 15 to 20)
#    0.000    1.500    5.000    3.000    0.000    2.500 
#    0.000    1.250    0.000    4.500    0.000    0.000 
#    0.000   17.000    0.000   23.750    0.000    0.000 
#
# Total GULP energy -356473.567119 kJ/mol
# GULP energy per Si atom -5569.899486 kJ/mol
# Density = 1.805197 g / cm^3
# Si number density = 18.093148 Si / 1000 Ang^3
#
#
#
# Elastic Constant Matrix: (Units=GPa)
#
#
# Indices 1 2 3 4 5 6 
#
# 1 63.0518 50.5194 39.3952 0.0000 0.0000 0.0000
# 2 50.5194 63.0518 39.3952 0.0000 0.0000 0.0000
# 3 39.3952 39.3952 123.5227 0.0000 0.0000 0.0000
# 4 0.0000 0.0000 0.0000 121.2344 0.0000 0.0000
# 5 0.0000 0.0000 0.0000 0.0000 121.2344 0.0000
# 6 0.0000 0.0000 0.0000 0.0000 0.0000 22.2568
#
#
#
# Elastic Compliance Matrix: (Units=1/GPa)
#
#
# Indices 1 2 3 4 5 6 
#
# 1 0.045550 -0.034243 -0.003606 0.000000 0.000000 0.000000
# 2 -0.034243 0.045550 -0.003606 0.000000 0.000000 0.000000
# 3 -0.003606 -0.003606 0.010396 0.000000 0.000000 0.000000
# 4 0.000000 0.000000 0.000000 0.008248 0.000000 0.000000
# 5 0.000000 0.000000 0.000000 0.000000 0.008248 0.000000
# 6 0.000000 0.000000 0.000000 0.000000 0.000000 0.044930
#
#
# Mechanical properties :
#
#
# Convention : Reuss Voigt Hill
#
# Bulk Modulus (GPa) = 53.80657 56.47178 55.13917
# Shear Modulus (GPa) = 19.83906 60.96623 40.40264
#
# Velocity S-wave (km/s) = 3.31493 5.81110 4.73063
# Velocity P-wave (km/s) = 6.66745 8.73525 7.77044
#
# Compressibility (1/GPa) = 0.01858509
#
# Stress axis : x y z
#
# Youngs Moduli (GPa) = 21.95396 21.95396 96.19220
#
# Poissons Ratio (x) = 0.75177 0.34688
# Poissons Ratio (y) = 0.75177 0.34688
# Poissons Ratio (z) = 0.07917 0.07917
#
# Static dielectric constant tensor:
#      x y z
#    x 1.635000 0.000000 0.000000 
#    y 0.000000 1.635000 0.000000 
#    z 0.000000 0.000000 1.685050 
# 
# From -- ./inp_files/5974.got.cif
#   From: 2010.05.17/outbox.cif.g08.bks.cpg/sg132_3_cif.got.tgz:5974.got - 2010.05.20 12:30:18.
