data_PCOD9567324
_publ_section_title
;
Structure prediction by ZEFSAII (Michael W. Deem and Ramdas Pophale) SiO2 
 PCOD9567324
Probable space group: P 42/M C M
;
_chemical_formula_sum "Si O2"
_cell_formula_units_Z 96
_cell_length_a 16.032463
_cell_length_b 16.032463
_cell_length_c 19.573719
_cell_angle_alpha 90.000000
_cell_angle_beta 90.000000
_cell_angle_gamma 90.000000
_cell_volume 5031.226184
_symmetry_space_group_name_H-M "P 42/M C M"
_symmetry_group_IT_number 132
_symmetry_cell_setting 'tetragonal'
loop_
_space_group_symop_operation_xyz
x,y,z
-y,x,1/2+z
-x,-y,z
y,-x,1/2+z
x,-y,1/2-z
-x,y,1/2-z
y,x,-z
-y,-x,-z
-x,-y,-z
y,-x,1/2-z
x,y,-z
-y,x,1/2-z
-x,y,1/2+z
x,-y,1/2+z
-y,-x,z
y,x,z
loop_
_atom_site_type_symbol
_atom_site_label
_atom_site_fract_x
_atom_site_fract_y
_atom_site_fract_z
Si Si1 0.995175 0.863336 0.578218
Si Si2 0.417665 0.940650 0.922213
Si Si3 0.791488 0.657306 0.215032
Si Si4 0.241166 0.624365 0.874850
Si Si5 0.029530 0.710031 0.674000
Si Si6 0.656462 0.474432 0.328589
O O1 0.985592 0.833052 0.500000
O O2 0.908335 0.908335 0.598800
O O3 0.026093 0.792371 0.628393
O O4 0.064435 0.935566 0.577297
O O5 0.413628 0.839355 0.913813
O O6 0.500000 0.000000 0.912946
O O7 0.354084 0.970519 0.864831
O O8 0.390061 0.958230 0.000000
O O9 0.744857 0.744857 0.206366
O O10 0.788661 0.637665 0.295951
O O11 0.881603 0.665893 0.183036
O O12 0.735063 0.587921 0.178652
O O13 0.289327 0.710674 0.896655
O O14 0.312340 0.553592 0.870064
O O15 0.000000 0.730377 0.750000
O O16 0.637801 0.500000 0.250000
O O17 0.578028 0.421973 0.355117
#
# Coordination Sequence:
#
# PCOD9567324 Si02
#       6
#    16  16  16  16  16  16
#     4   9  20  39  59  81 115 158 199 240 293 358
#     4  11  25  43  60  82 116 160 208 251 299 363
#     4   9  18  33  52  83 120 150 186 239 300 360
#     4  10  20  36  57  84 119 156 196 243 298 357
#     4  12  22  35  59  87 114 149 195 253 303 356
#     4   9  17  30  53  83 118 153 185 230 293 362
#
# _framework density 19.080836999999999
#
# number of rings (size 3 to 8) (size 9 to 14) (size 15 to 20)
#    0.000    2.000    1.667    4.000    0.000    3.833 
#    0.000    0.833    0.000    0.500    0.000    5.833 
#    0.000    0.000    0.000    0.000    0.000    0.000 
#
# Total GULP energy -534945.263468 kJ/mol
# GULP energy per Si atom -5572.346494 kJ/mol
# Density = 1.903741 g / cm^3
# Si number density = 19.080837 Si / 1000 Ang^3
#
#
#
# Elastic Constant Matrix: (Units=GPa)
#
#
# Indices 1 2 3 4 5 6 
#
# 1 100.3179 43.1915 26.7720 0.0000 0.0000 0.0000
# 2 43.1915 100.3179 26.7720 0.0000 0.0000 0.0000
# 3 26.7720 26.7720 63.9195 0.0000 0.0000 0.0000
# 4 0.0000 0.0000 0.0000 13.6721 0.0000 0.0000
# 5 0.0000 0.0000 0.0000 0.0000 13.6721 0.0000
# 6 0.0000 0.0000 0.0000 0.0000 0.0000 10.8638
#
#
#
# Elastic Compliance Matrix: (Units=1/GPa)
#
#
# Indices 1 2 3 4 5 6 
#
# 1 0.012882 -0.004623 -0.003459 0.000000 0.000000 0.000000
# 2 -0.004623 0.012882 -0.003459 0.000000 0.000000 0.000000
# 3 -0.003459 -0.003459 0.018542 0.000000 0.000000 0.000000
# 4 0.000000 0.000000 0.000000 0.073142 0.000000 0.000000
# 5 0.000000 0.000000 0.000000 0.000000 0.073142 0.000000
# 6 0.000000 0.000000 0.000000 0.000000 0.000000 0.092049
#
#
# Mechanical properties :
#
#
# Convention : Reuss Voigt Hill
#
# Bulk Modulus (GPa) = 47.11767 50.89179 49.00473
# Shear Modulus (GPa) = 15.98486 18.82958 17.40722
#
# Velocity S-wave (km/s) = 2.89752 3.14480 3.02369
# Velocity P-wave (km/s) = 5.99512 6.31790 6.15863
#
# Compressibility (1/GPa) = 0.02122346
#
# Stress axis : x y z
#
# Youngs Moduli (GPa) = 77.62823 77.62823 53.93081
#
# Poissons Ratio (x) = 0.35888 0.18655
# Poissons Ratio (y) = 0.35888 0.18655
# Poissons Ratio (z) = 0.26852 0.26852
#
# Static dielectric constant tensor:
#      x y z
#    x 1.683110 0.000000 0.000000 
#    y 0.000000 1.683110 0.000000 
#    z 0.000000 0.000000 1.626030 
# 
# From -- ./inp_files/7897.got.cif
#   From: 2010.05.17/outbox.cif.g08.bks.cpg/sg132_4_cif.got.tgz:7897.got - 2010.05.20 12:30:18.
