data_PCOD9567347
_publ_section_title
;
Structure prediction by ZEFSAII (Michael W. Deem and Ramdas Pophale) SiO2 
 PCOD9567347
Probable space group: P 42/M C M
;
_chemical_formula_sum "Si O2"
_cell_formula_units_Z 88
_cell_length_a 16.300240
_cell_length_b 16.300240
_cell_length_c 18.759717
_cell_angle_alpha 90.000000
_cell_angle_beta 90.000000
_cell_angle_gamma 90.000000
_cell_volume 4984.415987
_symmetry_space_group_name_H-M "P 42/M C M"
_symmetry_group_IT_number 132
_symmetry_cell_setting 'tetragonal'
loop_
_space_group_symop_operation_xyz
x,y,z
-y,x,1/2+z
-x,-y,z
y,-x,1/2+z
x,-y,1/2-z
-x,y,1/2-z
y,x,-z
-y,-x,-z
-x,-y,-z
y,-x,1/2-z
x,y,-z
-y,x,1/2-z
-x,y,1/2+z
x,-y,1/2+z
-y,-x,z
y,x,z
loop_
_atom_site_type_symbol
_atom_site_label
_atom_site_fract_x
_atom_site_fract_y
_atom_site_fract_z
Si Si1 0.802713 0.940462 0.682028
Si Si2 0.214584 0.647596 0.353589
Si Si3 0.802352 0.665543 0.310964
Si Si4 0.753845 0.470814 0.915330
Si Si5 0.565888 0.565888 0.413687
Si Si6 0.089262 0.225378 0.915645
O O1 0.881499 0.881499 0.676758
O O2 0.724043 0.881554 0.689724
O O3 0.810184 0.000000 0.750000
O O4 0.790682 0.999687 0.614940
O O5 0.292193 0.707808 0.367682
O O6 0.210398 0.632109 0.268968
O O7 0.222780 0.563503 0.396026
O O8 0.134832 0.699016 0.377388
O O9 0.725538 0.725538 0.327507
O O10 0.804972 0.594054 0.368979
O O11 0.658513 0.457040 0.893849
O O12 0.761713 0.456429 0.000000
O O13 0.500000 0.500000 0.386328
O O14 0.563067 0.563067 0.500000
O O15 0.146260 0.146260 0.900244
O O16 0.089148 0.239164 0.000000
#
# Coordination Sequence:
#
# PCOD9567347 Si02
#       6
#    16  16  16  16   8  16
#     4  11  22  39  64  91 116 153 197 240 296 364
#     4  10  20  37  61  85 115 159 205 247 294 354
#     4  10  21  38  60  84 118 158 199 244 299 360
#     4  11  21  35  57  86 121 160 203 250 297 351
#     4   9  18  32  52  82 120 156 196 250 301 340
#     4  10  21  38  60  90 124 154 191 242 297 356
#
# _framework density 17.655028000000001
#
# number of rings (size 3 to 8) (size 9 to 14) (size 15 to 20)
#    0.000    1.727    2.727    2.182    0.000    4.182 
#    0.000    3.636    0.000    2.182    0.000    0.000 
#    0.000    0.000    0.000    0.000    0.000    0.000 
#
# Total GULP energy -491357.374558 kJ/mol
# GULP energy per Si atom -5583.606529 kJ/mol
# Density = 1.761484 g / cm^3
# Si number density = 17.655028 Si / 1000 Ang^3
#
#
#
# Elastic Constant Matrix: (Units=GPa)
#
#
# Indices 1 2 3 4 5 6 
#
# 1 94.7298 43.1009 39.2032 0.0000 0.0000 0.0000
# 2 43.1009 94.7298 39.2032 0.0000 0.0000 0.0000
# 3 39.2032 39.2032 69.8680 0.0000 0.0000 0.0000
# 4 0.0000 0.0000 0.0000 31.1188 0.0000 0.0000
# 5 0.0000 0.0000 0.0000 0.0000 31.1188 0.0000
# 6 0.0000 0.0000 0.0000 0.0000 0.0000 17.7422
#
#
#
# Elastic Compliance Matrix: (Units=1/GPa)
#
#
# Indices 1 2 3 4 5 6 
#
# 1 0.015013 -0.004356 -0.005980 0.000000 0.000000 0.000000
# 2 -0.004356 0.015013 -0.005980 0.000000 0.000000 0.000000
# 3 -0.005980 -0.005980 0.021023 0.000000 0.000000 0.000000
# 4 0.000000 0.000000 0.000000 0.032135 0.000000 0.000000
# 5 0.000000 0.000000 0.000000 0.000000 0.032135 0.000000
# 6 0.000000 0.000000 0.000000 0.000000 0.000000 0.056363
#
#
# Mechanical properties :
#
#
# Convention : Reuss Voigt Hill
#
# Bulk Modulus (GPa) = 54.29369 55.81581 55.05475
# Shear Modulus (GPa) = 23.75847 25.18400 24.47123
#
# Velocity S-wave (km/s) = 3.67237 3.78093 3.72704
# Velocity P-wave (km/s) = 6.98577 7.12348 7.05496
#
# Compressibility (1/GPa) = 0.01841835
#
# Stress axis : x y z
#
# Youngs Moduli (GPa) = 66.60937 66.60937 47.56687
#
# Poissons Ratio (x) = 0.29016 0.28443
# Poissons Ratio (y) = 0.29016 0.28443
# Poissons Ratio (z) = 0.39830 0.39830
#
# Static dielectric constant tensor:
#      x y z
#    x 1.585220 0.000000 0.000000 
#    y 0.000000 1.585220 0.000000 
#    z 0.000000 0.000000 1.600140 
# 
# From -- ./inp_files/7748.got.cif
#   From: 2010.05.17/outbox.cif.g08.bks.cpg/sg132_4_cif.got.tgz:7748.got - 2010.05.20 12:30:18.
