data_PCOD9567111
_publ_section_title
;
Structure prediction by ZEFSAII (Michael W. Deem and Ramdas Pophale) SiO2 
 PCOD9567111
Probable space group: P 42/M C M
;
_chemical_formula_sum "Si O2"
_cell_formula_units_Z 96
_cell_length_a 25.305057
_cell_length_b 25.305057
_cell_length_c 9.031762
_cell_angle_alpha 90.000000
_cell_angle_beta 90.000000
_cell_angle_gamma 90.000000
_cell_volume 5783.451855
_symmetry_space_group_name_H-M "P 42/M C M"
_symmetry_group_IT_number 132
_symmetry_cell_setting 'tetragonal'
loop_
_space_group_symop_operation_xyz
x,y,z
-y,x,1/2+z
-x,-y,z
y,-x,1/2+z
x,-y,1/2-z
-x,y,1/2-z
y,x,-z
-y,-x,-z
-x,-y,-z
y,-x,1/2-z
x,y,-z
-y,x,1/2-z
-x,y,1/2+z
x,-y,1/2+z
-y,-x,z
y,x,z
loop_
_atom_site_type_symbol
_atom_site_label
_atom_site_fract_x
_atom_site_fract_y
_atom_site_fract_z
Si Si1 0.265485 0.848350 0.324302
Si Si2 0.554828 0.786507 0.675330
Si Si3 0.057685 0.942316 0.681114
Si Si4 0.554512 0.913413 0.674600
Si Si5 0.050749 0.339055 0.174008
Si Si6 0.145108 0.854893 0.320756
Si Si7 0.329808 0.246690 0.678430
O O1 0.263084 0.835985 0.500000
O O2 0.303582 0.897918 0.303106
O O3 0.206219 0.863690 0.275665
O O4 0.291880 0.798895 0.242562
O O5 0.500000 0.769293 0.750000
O O6 0.550593 0.776872 0.500000
O O7 0.559579 0.849910 0.696482
O O8 0.609804 0.761190 0.730441
O O9 0.054576 0.945425 0.500000
O O10 0.101674 0.898326 0.724796
O O11 0.000000 0.928785 0.750000
O O12 0.500000 0.930283 0.750000
O O13 0.553548 0.924044 0.500000
O O14 0.604657 0.939510 0.750390
O O15 0.000000 0.313624 0.250000
O O16 0.042004 0.345799 0.000000
O O17 0.143482 0.856519 0.500000
O O18 0.330395 0.241163 0.500000
O O19 0.302423 0.302423 0.715426
#
# Coordination Sequence:
#
# PCOD9567111 Si02
#       7
#    16  16   8  16  16   8  16
#     4  10  20  35  54  75 101 133 170 206 250 306
#     4   9  18  31  49  74 104 138 172 210 254 299
#     4  10  20  37  60  82 106 130 162 206 256 313
#     4  10  19  33  52  72  96 127 169 217 261 306
#     4  11  23  36  51  71  96 131 170 212 259 307
#     4   9  19  36  57  80 106 134 162 202 251 303
#     4  10  19  32  52  79 108 137 170 210 257 303
#
# _framework density 16.599081999999999
#
# number of rings (size 3 to 8) (size 9 to 14) (size 15 to 20)
#    0.000    2.083    2.500    1.500    0.000    3.000 
#    0.000    3.333    0.000    0.000    0.000    0.000 
#    0.000    0.333    0.000    4.167    0.000    0.000 
#
# Total GULP energy -535486.263244 kJ/mol
# GULP energy per Si atom -5577.981909 kJ/mol
# Density = 1.656130 g / cm^3
# Si number density = 16.599082 Si / 1000 Ang^3
#
#
#
# Elastic Constant Matrix: (Units=GPa)
#
#
# Indices 1 2 3 4 5 6 
#
# 1 103.9244 61.9711 39.2741 0.0000 0.0000 0.0000
# 2 61.9711 103.9241 39.2742 0.0000 0.0000 0.0000
# 3 39.2741 39.2742 35.7593 0.0000 0.0000 0.0000
# 4 0.0000 0.0000 0.0000 19.1046 0.0000 0.0000
# 5 0.0000 0.0000 0.0000 0.0000 19.1046 0.0000
# 6 0.0000 0.0000 0.0000 0.0000 0.0000 22.2997
#
#
#
# Elastic Compliance Matrix: (Units=1/GPa)
#
#
# Indices 1 2 3 4 5 6 
#
# 1 0.018197 -0.005639 -0.013793 0.000000 0.000000 0.000000
# 2 -0.005639 0.018197 -0.013793 0.000000 0.000000 0.000000
# 3 -0.013793 -0.013793 0.058262 0.000000 0.000000 0.000000
# 4 0.000000 0.000000 0.000000 0.052343 0.000000 0.000000
# 5 0.000000 0.000000 0.000000 0.000000 0.052343 0.000000
# 6 0.000000 0.000000 0.000000 0.000000 0.000000 0.044844
#
#
# Mechanical properties :
#
#
# Convention : Reuss Voigt Hill
#
# Bulk Modulus (GPa) = 35.45168 58.29407 46.87288
# Shear Modulus (GPa) = 15.62307 18.97435 17.29871
#
# Velocity S-wave (km/s) = 3.07123 3.38464 3.23173
# Velocity P-wave (km/s) = 5.82929 7.10419 6.49808
#
# Compressibility (1/GPa) = 0.02820741
#
# Stress axis : x y z
#
# Youngs Moduli (GPa) = 54.95323 54.95274 17.16377
#
# Poissons Ratio (x) = 0.30986 0.23674
# Poissons Ratio (y) = 0.30987 0.23674
# Poissons Ratio (z) = 0.75796 0.75797
#
# Static dielectric constant tensor:
#      x y z
#    x 1.576390 0.000000 0.000000 
#    y 0.000000 1.576390 0.000000 
#    z 0.000000 0.000000 1.556380 
# 
# From -- ./inp_files/1856.got.cif
#   From: 2010.05.17/outbox.cif.g08.bks.cpg/sg132_1_cif.got.tgz:1856.got - 2010.05.20 12:30:18.
