data_PCOD9567362
_publ_section_title
;
Structure prediction by ZEFSAII (Michael W. Deem and Ramdas Pophale) SiO2 
 PCOD9567362
Probable space group: P 42/M C M
;
_chemical_formula_sum "Si O2"
_cell_formula_units_Z 36
_cell_length_a 13.498549
_cell_length_b 13.498549
_cell_length_c 9.451287
_cell_angle_alpha 90.000000
_cell_angle_beta 90.000000
_cell_angle_gamma 90.000000
_cell_volume 1722.126803
_symmetry_space_group_name_H-M "P 42/M C M"
_symmetry_group_IT_number 132
_symmetry_cell_setting 'tetragonal'
loop_
_space_group_symop_operation_xyz
x,y,z
-y,x,1/2+z
-x,-y,z
y,-x,1/2+z
x,-y,1/2-z
-x,y,1/2-z
y,x,-z
-y,-x,-z
-x,-y,-z
y,-x,1/2-z
x,y,-z
-y,x,1/2-z
-x,y,1/2+z
x,-y,1/2+z
-y,-x,z
y,x,z
loop_
_atom_site_type_symbol
_atom_site_label
_atom_site_fract_x
_atom_site_fract_y
_atom_site_fract_z
Si Si1 0.264771 0.566603 0.000000
Si Si2 0.347519 0.347519 0.000000
Si Si3 0.645113 0.911025 0.659912
Si Si4 0.791803 0.791803 0.159871
O O1 0.321522 0.463095 0.000000
O O2 0.187022 0.579640 0.129487
O O3 0.342222 0.657779 0.000000
O O4 0.292397 0.292397 0.129612
O O5 0.668974 0.945758 0.500000
O O6 0.740026 0.875647 0.748086
O O7 0.601437 0.000000 0.750000
O O8 0.821786 0.821786 0.000000
#
# Coordination Sequence:
#
# PCOD9567362 Si02
#       4
#     8   4  16   8
#     4  10  21  43  66  98 143 188 244 291 356 427
#     4  10  25  38  68  90 138 183 248 282 364 421
#     4  10  20  40  68  96 141 184 236 300 362 414
#     4  10  21  40  62  96 137 184 237 292 352 432
#
# _framework density 20.904385000000001
#
# number of rings (size 3 to 8) (size 9 to 14) (size 15 to 20)
#    2.000    0.000    2.222    2.333    0.000    1.778 
#    0.000    6.667    4.889    0.667    0.000    6.222 
#    0.000    0.000    0.000    0.000    0.000    0.444 
#
# Total GULP energy -200454.731283 kJ/mol
# GULP energy per Si atom -5568.186980 kJ/mol
# Density = 2.085681 g / cm^3
# Si number density = 20.904385 Si / 1000 Ang^3
#
#
#
# Elastic Constant Matrix: (Units=GPa)
#
#
# Indices 1 2 3 4 5 6 
#
# 1 123.7226 60.4684 55.8389 0.0000 0.0000 0.0000
# 2 60.4684 123.7237 55.8393 0.0000 0.0000 0.0000
# 3 55.8389 55.8393 182.6068 0.0000 0.0000 0.0000
# 4 0.0000 0.0000 0.0000 95.9192 0.0000 0.0000
# 5 0.0000 0.0000 0.0000 0.0000 95.8758 0.0000
# 6 0.0000 0.0000 0.0000 0.0000 0.0000 18.3501
#
#
#
# Elastic Compliance Matrix: (Units=1/GPa)
#
#
# Indices 1 2 3 4 5 6 
#
# 1 0.011237 -0.004572 -0.002038 0.000000 0.000000 0.000000
# 2 -0.004572 0.011237 -0.002038 0.000000 0.000000 0.000000
# 3 -0.002038 -0.002038 0.006723 0.000000 0.000000 0.000000
# 4 0.000000 0.000000 0.000000 0.010425 0.000000 0.000000
# 5 0.000000 0.000000 0.000000 0.000000 0.010430 0.000000
# 6 0.000000 0.000000 0.000000 0.000000 0.000000 0.054496
#
#
# Mechanical properties :
#
#
# Convention : Reuss Voigt Hill
#
# Bulk Modulus (GPa) = 84.03227 86.03847 85.03537
# Shear Modulus (GPa) = 39.74221 59.22280 49.48251
#
# Velocity S-wave (km/s) = 4.36494 5.32840 4.87055
# Velocity P-wave (km/s) = 8.10489 8.89400 8.50860
#
# Compressibility (1/GPa) = 0.01190019
#
# Stress axis : x y z
#
# Youngs Moduli (GPa) = 88.99180 88.99250 148.75074
#
# Poissons Ratio (x) = 0.40689 0.30316
# Poissons Ratio (y) = 0.40688 0.30316
# Poissons Ratio (z) = 0.18137 0.18137
#
# Static dielectric constant tensor:
#      x y z
#    x 1.799370 0.000000 0.000000 
#    y 0.000000 1.799370 0.000000 
#    z 0.000000 0.000000 1.787270 
# 
# From -- ./inp_files/462.got.cif
#   From: 2010.05.17/outbox.cif.g08.bks.cpg/sg132_1_cif.got.tgz:462.got - 2010.05.20 12:30:18.
