data_PCOD9567760
_publ_section_title
;
Structure prediction by ZEFSAII (Michael W. Deem and Ramdas Pophale) SiO2 
 PCOD9567760
Probable space group: P 42/N B C
;
_chemical_formula_sum "Si O2"
_cell_formula_units_Z 72
_cell_length_a 18.169079
_cell_length_b 18.169079
_cell_length_c 8.745464
_cell_angle_alpha 90.000000
_cell_angle_beta 90.000000
_cell_angle_gamma 90.000000
_cell_volume 2887.012624
_symmetry_space_group_name_H-M "P 42/N B C"
_symmetry_group_IT_number 133
_space_group.IT_coordinate_system_code '2'
_symmetry_cell_setting 'tetragonal'
loop_
_space_group_symop_operation_xyz
x,y,z
1/2-y,x,1/2+z
1/2-x,1/2-y,z
y,1/2-x,1/2+z
x,1/2-y,-z
1/2-x,y,-z
y,x,1/2-z
1/2-y,1/2-x,1/2-z
-x,-y,-z
1/2+y,-x,1/2-z
1/2+x,1/2+y,-z
-y,1/2+x,1/2-z
-x,1/2+y,z
1/2+x,-y,z
-y,-x,1/2+z
1/2+y,1/2+x,1/2+z
loop_
_atom_site_type_symbol
_atom_site_label
_atom_site_fract_x
_atom_site_fract_y
_atom_site_fract_z
Si Si1 0.132732 0.678325 0.423749
Si Si2 0.946304 0.946304 0.750000
Si Si3 0.140646 0.140646 0.750000
Si Si4 0.050035 0.842188 0.885875
Si Si5 0.750000 0.913243 0.500000
Si Si6 0.030243 0.167844 0.517728
O O1 0.169796 0.750000 0.500000
O O2 0.104204 0.685038 0.250380
O O3 0.166497 0.598859 0.461735
O O4 0.056638 0.672433 0.517320
O O5 0.944333 0.884493 0.618589
O O6 0.021968 0.924568 0.837634
O O7 0.202220 0.137140 0.616440
O O8 0.061190 0.143045 0.675898
O O9 0.972269 0.800041 0.905834
O O10 0.060865 0.250000 0.500000
#
# Coordination Sequence:
#
# PCOD9567760 Si02
#       6
#    16   8   8  16   8  16
#     4  10  24  44  71 107 144 193 239 310 385 464
#     4  10  20  43  62 107 135 187 248 311 381 434
#     4  12  24  43  79  98 149 193 264 301 393 446
#     4  11  25  43  76 102 154 191 264 312 390 456
#     4  12  26  48  72 112 146 216 248 344 378 472
#     4  10  22  40  65  94 144 182 238 308 371 447
#
# _framework density 24.939274000000001
#
# number of rings (size 3 to 8) (size 9 to 14) (size 15 to 20)
#    0.000    1.333    2.222    4.000    6.222    4.444 
#    0.000    2.222    0.000    0.000    0.000    0.000 
#    0.000    0.000    0.000    0.000    0.000    0.000 
#
# Total GULP energy -401941.255923 kJ/mol
# GULP energy per Si atom -5582.517443 kJ/mol
# Density = 2.488251 g / cm^3
# Si number density = 24.939274 Si / 1000 Ang^3
#
#
#
# Elastic Constant Matrix: (Units=GPa)
#
#
# Indices 1 2 3 4 5 6 
#
# 1 77.0754 49.2432 29.5428 0.0000 0.0000 0.0000
# 2 49.2432 77.0754 29.5428 0.0000 0.0000 0.0000
# 3 29.5428 29.5428 92.3087 0.0000 0.0000 0.0000
# 4 0.0000 0.0000 0.0000 21.1420 0.0000 0.0000
# 5 0.0000 0.0000 0.0000 0.0000 21.1420 0.0000
# 6 0.0000 0.0000 0.0000 0.0000 0.0000 14.3146
#
#
#
# Elastic Compliance Matrix: (Units=1/GPa)
#
#
# Indices 1 2 3 4 5 6 
#
# 1 0.022620 -0.013310 -0.002980 0.000000 0.000000 0.000000
# 2 -0.013310 0.022620 -0.002980 0.000000 0.000000 0.000000
# 3 -0.002980 -0.002980 0.012740 0.000000 0.000000 0.000000
# 4 0.000000 0.000000 0.000000 0.047299 0.000000 0.000000
# 5 0.000000 0.000000 0.000000 0.000000 0.047299 0.000000
# 6 0.000000 0.000000 0.000000 0.000000 0.000000 0.069859
#
#
# Mechanical properties :
#
#
# Convention : Reuss Voigt Hill
#
# Bulk Modulus (GPa) = 51.43448 51.45748 51.44598
# Shear Modulus (GPa) = 18.69463 20.52842 19.61153
#
# Velocity S-wave (km/s) = 2.74086 2.87215 2.80727
# Velocity P-wave (km/s) = 5.53941 5.62822 5.58399
#
# Compressibility (1/GPa) = 0.01944221
#
# Stress axis : x y z
#
# Youngs Moduli (GPa) = 44.20883 44.20883 78.49008
#
# Poissons Ratio (x) = 0.58841 0.23388
# Poissons Ratio (y) = 0.58841 0.23388
# Poissons Ratio (z) = 0.13173 0.13173
#
# Static dielectric constant tensor:
#      x y z
#    x 2.069410 0.000000 0.000000 
#    y 0.000000 2.069410 0.000000 
#    z 0.000000 0.000000 1.972370 
# 
# From -- ./inp_files/1731.got.cif
#   From: 2010.05.17/outbox.cif.g08.bks.cpg/sg133_1_cif.got.tgz:1731.got - 2010.05.20 12:37:36.
