data_PCOD9567102
_publ_section_title
;
Structure prediction by ZEFSAII (Michael W. Deem and Ramdas Pophale) SiO2 
 PCOD9567102
Probable space group: P 42/M C M
;
_chemical_formula_sum "Si O2"
_cell_formula_units_Z 96
_cell_length_a 25.038626
_cell_length_b 25.038626
_cell_length_c 9.304393
_cell_angle_alpha 90.000000
_cell_angle_beta 90.000000
_cell_angle_gamma 90.000000
_cell_volume 5833.229081
_symmetry_space_group_name_H-M "P 42/M C M"
_symmetry_group_IT_number 132
_symmetry_cell_setting 'tetragonal'
loop_
_space_group_symop_operation_xyz
x,y,z
-y,x,1/2+z
-x,-y,z
y,-x,1/2+z
x,-y,1/2-z
-x,y,1/2-z
y,x,-z
-y,-x,-z
-x,-y,-z
y,-x,1/2-z
x,y,-z
-y,x,1/2-z
-x,y,1/2+z
x,-y,1/2+z
-y,-x,z
y,x,z
loop_
_atom_site_type_symbol
_atom_site_label
_atom_site_fract_x
_atom_site_fract_y
_atom_site_fract_z
Si Si1 0.052832 0.679725 0.335836
Si Si2 0.554971 0.642240 0.827403
Si Si3 0.808473 0.948701 0.836193
Si Si4 0.756400 0.243601 0.166177
Si Si5 0.766329 0.445624 0.328836
Si Si6 0.175773 0.664843 0.326139
Si Si7 0.153179 0.153179 0.336190
O O1 0.049944 0.659678 0.500000
O O2 0.049251 0.744084 0.339957
O O3 0.113233 0.668449 0.280762
O O4 0.000000 0.660953 0.250000
O O5 0.500000 0.626695 0.750000
O O6 0.603267 0.603267 0.786451
O O7 0.566009 0.704238 0.790946
O O8 0.548296 0.639028 0.000000
O O9 0.824714 0.896938 0.749265
O O10 0.828170 0.000000 0.750000
O O11 0.827667 0.947419 0.000000
O O12 0.784800 0.292840 0.249070
O O13 0.801732 0.198269 0.161323
O O14 0.742509 0.257492 0.000000
O O15 0.782399 0.500000 0.250000
O O16 0.768410 0.454363 0.500000
O O17 0.801975 0.394224 0.295948
O O18 0.177389 0.674363 0.500000
O O19 0.139353 0.139353 0.500000
#
# Coordination Sequence:
#
# PCOD9567102 Si02
#       7
#    16  16  16   8  16  16   8
#     4   9  18  31  49  74 102 133 170 208 252 307
#     4   9  18  32  49  71  96 127 166 206 252 300
#     4  10  19  32  50  72  99 135 174 213 258 307
#     4  11  23  33  47  79 114 140 168 212 263 307
#     4   9  19  35  56  76 100 134 173 215 256 307
#     4  10  20  35  55  77 104 141 177 211 257 316
#     4  11  21  33  49  72 106 139 171 212 258 311
#
# _framework density 16.457438
#
# number of rings (size 3 to 8) (size 9 to 14) (size 15 to 20)
#    0.000    2.333    1.667    1.000    1.167    3.167 
#    0.000    0.833    0.000    0.750    0.000    5.250 
#    0.000    0.000    0.000    0.000    0.000    0.000 
#
# Total GULP energy -534904.139164 kJ/mol
# GULP energy per Si atom -5571.918116 kJ/mol
# Density = 1.641998 g / cm^3
# Si number density = 16.457438 Si / 1000 Ang^3
#
#
#
# Elastic Constant Matrix: (Units=GPa)
#
#
# Indices 1 2 3 4 5 6 
#
# 1 98.2601 43.5166 46.4540 0.0000 0.0000 0.0000
# 2 43.5166 98.2601 46.4540 0.0000 0.0000 0.0000
# 3 46.4540 46.4540 77.2251 0.0000 0.0000 0.0000
# 4 0.0000 0.0000 0.0000 20.0549 0.0000 0.0000
# 5 0.0000 0.0000 0.0000 0.0000 20.0552 0.0000
# 6 0.0000 0.0000 0.0000 0.0000 0.0000 21.5553
#
#
#
# Elastic Compliance Matrix: (Units=1/GPa)
#
#
# Indices 1 2 3 4 5 6 
#
# 1 0.014955 -0.003312 -0.007004 0.000000 0.000000 0.000000
# 2 -0.003312 0.014955 -0.007004 0.000000 0.000000 0.000000
# 3 -0.007004 -0.007004 0.021375 0.000000 0.000000 0.000000
# 4 0.000000 0.000000 0.000000 0.049863 0.000000 0.000000
# 5 0.000000 0.000000 0.000000 0.000000 0.049862 0.000000
# 6 0.000000 0.000000 0.000000 0.000000 0.000000 0.046392
#
#
# Mechanical properties :
#
#
# Convention : Reuss Voigt Hill
#
# Bulk Modulus (GPa) = 60.07351 60.73271 60.40311
# Shear Modulus (GPa) = 21.04460 21.48779 21.26620
#
# Velocity S-wave (km/s) = 3.57981 3.61731 3.59861
# Velocity P-wave (km/s) = 7.32587 7.37764 7.35180
#
# Compressibility (1/GPa) = 0.01664627
#
# Stress axis : x y z
#
# Youngs Moduli (GPa) = 66.86730 66.86734 46.78324
#
# Poissons Ratio (x) = 0.22147 0.32766
# Poissons Ratio (y) = 0.22147 0.32766
# Poissons Ratio (z) = 0.46832 0.46832
#
# Static dielectric constant tensor:
#      x y z
#    x 1.557960 0.000000 0.000000 
#    y 0.000000 1.557960 0.000000 
#    z 0.000000 0.000000 1.568600 
# 
# From -- ./inp_files/1847.got.cif
#   From: 2010.05.17/outbox.cif.g08.bks.cpg/sg132_1_cif.got.tgz:1847.got - 2010.05.20 12:30:18.
