data_PCOD9567487
_publ_section_title
;
Structure prediction by ZEFSAII (Michael W. Deem and Ramdas Pophale) SiO2 
 PCOD9567487
Probable space group: P 42/M C M
;
_chemical_formula_sum "Si O2"
_cell_formula_units_Z 96
_cell_length_a 17.067013
_cell_length_b 17.067013
_cell_length_c 16.884791
_cell_angle_alpha 90.000000
_cell_angle_beta 90.000000
_cell_angle_gamma 90.000000
_cell_volume 4918.251441
_symmetry_space_group_name_H-M "P 42/M C M"
_symmetry_group_IT_number 132
_symmetry_cell_setting 'tetragonal'
loop_
_space_group_symop_operation_xyz
x,y,z
-y,x,1/2+z
-x,-y,z
y,-x,1/2+z
x,-y,1/2-z
-x,y,1/2-z
y,x,-z
-y,-x,-z
-x,-y,-z
y,-x,1/2-z
x,y,-z
-y,x,1/2-z
-x,y,1/2+z
x,-y,1/2+z
-y,-x,z
y,x,z
loop_
_atom_site_type_symbol
_atom_site_label
_atom_site_fract_x
_atom_site_fract_y
_atom_site_fract_z
Si Si1 0.179416 0.644253 0.826536
Si Si2 0.987367 0.409367 0.156080
Si Si3 0.561139 0.683928 0.593977
Si Si4 0.213163 0.906177 0.743928
Si Si5 0.693372 0.124685 0.588273
Si Si6 0.263148 0.395556 0.835493
O O1 0.102789 0.604678 0.861927
O O2 0.250354 0.626352 0.885153
O O3 0.143930 0.728669 0.801371
O O4 0.211037 0.605542 0.744646
O O5 0.000000 0.500000 0.145391
O O6 0.000000 0.390886 0.250000
O O7 0.049181 0.360886 0.105602
O O8 0.546243 0.682728 0.500000
O O9 0.601070 0.601070 0.617214
O O10 0.480681 0.706176 0.638677
O O11 0.126669 0.873332 0.757797
O O12 0.242506 0.881261 0.656879
O O13 0.218759 0.000000 0.750000
O O14 0.725058 0.122910 0.500000
O O15 0.642158 0.203136 0.601336
O O16 0.335405 0.335405 0.823830
#
# Coordination Sequence:
#
# PCOD9567487 Si02
#       6
#    16  16  16  16  16  16
#     4  11  20  40  63  87 120 154 202 253 299 361
#     4  11  20  33  58  87 121 161 194 235 297 368
#     4  11  25  41  58  86 123 164 209 256 307 360
#     4  11  22  41  64  90 119 155 202 244 293 359
#     4  11  21  37  59  93 129 155 194 250 306 363
#     4  11  23  39  62  89 118 163 213 257 304 355
#
# _framework density 19.519131000000002
#
# number of rings (size 3 to 8) (size 9 to 14) (size 15 to 20)
#    0.000    1.000    5.000    5.000    2.333    3.833 
#    0.000    0.833    0.000    2.500    0.000    1.167 
#    0.000    0.000    0.000    0.000    0.000    0.000 
#
# Total GULP energy -535761.901281 kJ/mol
# GULP energy per Si atom -5580.853138 kJ/mol
# Density = 1.947471 g / cm^3
# Si number density = 19.519131 Si / 1000 Ang^3
#
#
#
# Elastic Constant Matrix: (Units=GPa)
#
#
# Indices 1 2 3 4 5 6 
#
# 1 95.2319 83.3057 9.6775 0.0000 0.0000 0.0000
# 2 83.3057 95.2319 9.6775 0.0000 0.0000 0.0000
# 3 9.6775 9.6775 33.1147 0.0000 0.0000 0.0000
# 4 0.0000 0.0000 0.0000 -8.8255 0.0000 0.0000
# 5 0.0000 0.0000 0.0000 0.0000 -8.8255 0.0000
# 6 0.0000 0.0000 0.0000 0.0000 0.0000 35.2425
#
#
#
# Elastic Compliance Matrix: (Units=1/GPa)
#
#
# Indices 1 2 3 4 5 6 
#
# 1 0.044817 -0.039032 -0.001690 0.000000 0.000000 0.000000
# 2 -0.039032 0.044817 -0.001690 0.000000 0.000000 0.000000
# 3 -0.001690 -0.001690 0.031186 0.000000 0.000000 0.000000
# 4 0.000000 0.000000 0.000000 -0.113309 0.000000 0.000000
# 5 0.000000 0.000000 0.000000 0.000000 -0.113309 0.000000
# 6 0.000000 0.000000 0.000000 0.000000 0.000000 0.028375
#
#
# Mechanical properties :
#
#
# Convention : Reuss Voigt Hill
#
# Bulk Modulus (GPa) = 27.78315 47.65553 37.71934
# Shear Modulus (GPa) = 257.72408 11.57951 134.65179
#
# Velocity S-wave (km/s) = 11.50319 2.43829 8.31470
# Velocity P-wave (km/s) = 13.80926 5.69164 10.56150
#
# Compressibility (1/GPa) = 0.03599304
#
# Stress axis : x y z
#
# Youngs Moduli (GPa) = 22.31319 22.31319 32.06562
#
# Poissons Ratio (x) = 0.87093 0.05420
# Poissons Ratio (y) = 0.87093 0.05420
# Poissons Ratio (z) = 0.03772 0.03772
#
# Static dielectric constant tensor:
#      x y z
#    x 0.375900 0.000000 0.000000 
#    y 0.000000 0.375900 0.000000 
#    z 0.000000 0.000000 1.694370 
# 
# From -- ./inp_files/6500.got.cif
#   From: 2010.05.17/outbox.cif.g08.bks.cpg/sg132_4_cif.got.tgz:6500.got - 2010.05.20 12:30:18.
