data_PCOD9567567
_publ_section_title
;
Structure prediction by ZEFSAII (Michael W. Deem and Ramdas Pophale) SiO2 
 PCOD9567567
Probable space group: P 42/N B C
;
_chemical_formula_sum "Si O2"
_cell_formula_units_Z 88
_cell_length_a 15.092790
_cell_length_b 15.092790
_cell_length_c 20.346521
_cell_angle_alpha 90.000000
_cell_angle_beta 90.000000
_cell_angle_gamma 90.000000
_cell_volume 4634.781019
_symmetry_space_group_name_H-M "P 42/N B C"
_symmetry_group_IT_number 133
_space_group.IT_coordinate_system_code '2'
_symmetry_cell_setting 'tetragonal'
loop_
_space_group_symop_operation_xyz
x,y,z
1/2-y,x,1/2+z
1/2-x,1/2-y,z
y,1/2-x,1/2+z
x,1/2-y,-z
1/2-x,y,-z
y,x,1/2-z
1/2-y,1/2-x,1/2-z
-x,-y,-z
1/2+y,-x,1/2-z
1/2+x,1/2+y,-z
-y,1/2+x,1/2-z
-x,1/2+y,z
1/2+x,-y,z
-y,-x,1/2+z
1/2+y,1/2+x,1/2+z
loop_
_atom_site_type_symbol
_atom_site_label
_atom_site_fract_x
_atom_site_fract_y
_atom_site_fract_z
Si Si1 0.687331 0.971560 0.887567
Si Si2 0.001360 0.541471 0.106554
Si Si3 0.631779 0.443586 0.469845
Si Si4 0.105023 0.750000 0.500000
Si Si5 0.383892 0.285472 0.930315
Si Si6 0.343668 0.364087 0.174630
O O1 0.652407 0.884258 0.924346
O O2 0.763651 0.931762 0.841651
O O3 0.595902 0.015059 0.861737
O O4 0.725917 0.041175 0.939158
O O5 0.953438 0.455191 0.075909
O O6 0.935559 0.587085 0.157094
O O7 0.019497 0.601897 0.041677
O O8 0.654139 0.340489 0.479507
O O9 0.702504 0.509154 0.436142
O O10 0.349127 0.221696 0.873104
O O11 0.353624 0.250000 0.000000
O O12 0.337390 0.337390 0.250000
#
# Coordination Sequence:
#
# PCOD9567567 Si02
#       6
#    16  16  16   8  16  16
#     4  10  21  35  59  87 115 157 200 249 304 376
#     4   9  18  37  57  84 116 155 204 245 304 381
#     4   9  17  33  60  88 115 153 200 257 306 367
#     4  10  16  32  64  88 118 152 212 256 308 364
#     4  11  21  36  58  86 125 152 194 253 320 366
#     4  12  24  40  57  87 126 163 203 254 323 393
#
# _framework density 18.986872999999999
#
# number of rings (size 3 to 8) (size 9 to 14) (size 15 to 20)
#    0.000    1.818    3.636    2.727    0.000    2.182 
#    6.545    0.455    0.000    0.000    0.000    0.000 
#    0.000    0.000    0.000    0.000    0.000    0.000 
#
# Total GULP energy -490890.421544 kJ/mol
# GULP energy per Si atom -5578.300245 kJ/mol
# Density = 1.894366 g / cm^3
# Si number density = 18.986873 Si / 1000 Ang^3
#
#
#
# Elastic Constant Matrix: (Units=GPa)
#
#
# Indices 1 2 3 4 5 6 
#
# 1 118.1393 31.8025 27.1350 0.0000 0.0000 0.0000
# 2 31.8025 118.1393 27.1350 0.0000 0.0000 0.0000
# 3 27.1350 27.1350 89.4747 0.0000 0.0000 0.0000
# 4 0.0000 0.0000 0.0000 16.6351 0.0000 0.0000
# 5 0.0000 0.0000 0.0000 0.0000 16.6351 0.0000
# 6 0.0000 0.0000 0.0000 0.0000 0.0000 44.2708
#
#
#
# Elastic Compliance Matrix: (Units=1/GPa)
#
#
# Indices 1 2 3 4 5 6 
#
# 1 0.009537 -0.002045 -0.002272 0.000000 0.000000 0.000000
# 2 -0.002045 0.009537 -0.002272 0.000000 0.000000 0.000000
# 3 -0.002272 -0.002272 0.012554 0.000000 0.000000 0.000000
# 4 0.000000 0.000000 0.000000 0.060114 0.000000 0.000000
# 5 0.000000 0.000000 0.000000 0.000000 0.060114 0.000000
# 6 0.000000 0.000000 0.000000 0.000000 0.000000 0.022588
#
#
# Mechanical properties :
#
#
# Convention : Reuss Voigt Hill
#
# Bulk Modulus (GPa) = 54.20155 55.32202 54.76178
# Shear Modulus (GPa) = 25.80337 31.48694 28.64516
#
# Velocity S-wave (km/s) = 3.69048 4.07671 3.88839
# Velocity P-wave (km/s) = 6.83874 7.16656 7.00457
#
# Compressibility (1/GPa) = 0.01844966
#
# Stress axis : x y z
#
# Youngs Moduli (GPa) = 104.85416 104.85416 79.65351
#
# Poissons Ratio (x) = 0.21448 0.18097
# Poissons Ratio (y) = 0.21448 0.18097
# Poissons Ratio (z) = 0.23822 0.23822
#
# Static dielectric constant tensor:
#      x y z
#    x 1.712050 0.000000 0.000000 
#    y 0.000000 1.712050 0.000000 
#    z 0.000000 0.000000 1.585460 
# 
# From -- ./inp_files/6397.got.cif
#   From: 2010.05.17/outbox.cif.g08.bks.cpg/sg133_4_cif.got.tgz:6397.got - 2010.05.20 12:37:36.
