data_PCOD9567587
_publ_section_title
;
Structure prediction by ZEFSAII (Michael W. Deem and Ramdas Pophale) SiO2 
 PCOD9567587
Probable space group: P 42/N B C
;
_chemical_formula_sum "Si O2"
_cell_formula_units_Z 96
_cell_length_a 21.821876
_cell_length_b 21.821876
_cell_length_c 11.007796
_cell_angle_alpha 90.000000
_cell_angle_beta 90.000000
_cell_angle_gamma 90.000000
_cell_volume 5241.849404
_symmetry_space_group_name_H-M "P 42/N B C"
_symmetry_group_IT_number 133
_space_group.IT_coordinate_system_code '2'
_symmetry_cell_setting 'tetragonal'
loop_
_space_group_symop_operation_xyz
x,y,z
1/2-y,x,1/2+z
1/2-x,1/2-y,z
y,1/2-x,1/2+z
x,1/2-y,-z
1/2-x,y,-z
y,x,1/2-z
1/2-y,1/2-x,1/2-z
-x,-y,-z
1/2+y,-x,1/2-z
1/2+x,1/2+y,-z
-y,1/2+x,1/2-z
-x,1/2+y,z
1/2+x,-y,z
-y,-x,1/2+z
1/2+y,1/2+x,1/2+z
loop_
_atom_site_type_symbol
_atom_site_label
_atom_site_fract_x
_atom_site_fract_y
_atom_site_fract_z
Si Si1 0.640380 0.344255 0.226493
Si Si2 0.986308 0.403049 0.474305
Si Si3 0.848657 0.009536 0.274988
Si Si4 0.878027 0.314537 0.525820
Si Si5 0.718427 0.480981 0.629643
Si Si6 0.406014 0.477906 0.466890
O O1 0.643416 0.416652 0.259328
O O2 0.661949 0.314536 0.352348
O O3 0.575593 0.311804 0.200167
O O4 0.671276 0.340083 0.095236
O O5 0.013261 0.371486 0.354425
O O6 0.934224 0.361972 0.536721
O O7 0.946096 0.462094 0.433300
O O8 0.044818 0.424170 0.551291
O O9 0.777252 0.994963 0.297864
O O10 0.888014 0.987118 0.390432
O O11 0.908297 0.250000 0.500000
O O12 0.750000 0.462110 0.500000
O O13 0.659582 0.523263 0.599457
#
# Coordination Sequence:
#
# PCOD9567587 Si02
#       6
#    16  16  16  16  16  16
#     4  11  19  36  52  77  99 139 186 219 266 311
#     4  10  19  32  51  79 104 134 177 224 270 328
#     4  10  18  31  51  73 106 141 176 218 270 324
#     4  11  22  36  56  77 106 144 181 222 276 324
#     4  10  19  33  53  74 103 144 181 221 271 326
#     4  10  18  32  51  78 106 134 179 222 272 324
#
# _framework density 18.314146000000001
#
# number of rings (size 3 to 8) (size 9 to 14) (size 15 to 20)
#    0.000    1.667    5.000    3.500    0.000    0.000 
#    0.000    0.833    0.000   20.500    0.000    0.000 
#    0.000    6.000    0.000   23.000    0.000    5.333 
#
# Total GULP energy -534468.555455 kJ/mol
# GULP energy per Si atom -5567.380786 kJ/mol
# Density = 1.827246 g / cm^3
# Si number density = 18.314146 Si / 1000 Ang^3
#
#
#
# Elastic Constant Matrix: (Units=GPa)
#
#
# Indices 1 2 3 4 5 6 
#
# 1 62.5249 30.8300 21.6728 0.0000 0.0000 0.0000
# 2 30.8300 62.5249 21.6728 0.0000 0.0000 0.0000
# 3 21.6728 21.6728 101.6627 0.0000 0.0000 0.0000
# 4 0.0000 0.0000 0.0000 9.5676 0.0000 0.0000
# 5 0.0000 0.0000 0.0000 0.0000 9.5676 0.0000
# 6 0.0000 0.0000 0.0000 0.0000 0.0000 8.1034
#
#
#
# Elastic Compliance Matrix: (Units=1/GPa)
#
#
# Indices 1 2 3 4 5 6 
#
# 1 0.021720 -0.009831 -0.002534 0.000000 0.000000 0.000000
# 2 -0.009831 0.021720 -0.002534 0.000000 0.000000 0.000000
# 3 -0.002534 -0.002534 0.010917 0.000000 0.000000 0.000000
# 4 0.000000 0.000000 0.000000 0.104520 0.000000 0.000000
# 5 0.000000 0.000000 0.000000 0.000000 0.104520 0.000000
# 6 0.000000 0.000000 0.000000 0.000000 0.000000 0.123405
#
#
# Mechanical properties :
#
#
# Convention : Reuss Voigt Hill
#
# Bulk Modulus (GPa) = 40.72256 41.67376 41.19816
# Shear Modulus (GPa) = 11.77060 15.61682 13.69371
#
# Velocity S-wave (km/s) = 2.53791 2.92330 2.73740
# Velocity P-wave (km/s) = 5.55624 5.84796 5.70397
#
# Compressibility (1/GPa) = 0.02455641
#
# Stress axis : x y z
#
# Youngs Moduli (GPa) = 46.04113 46.04113 91.59981
#
# Poissons Ratio (x) = 0.45264 0.23216
# Poissons Ratio (y) = 0.45264 0.23216
# Poissons Ratio (z) = 0.11669 0.11669
#
# Static dielectric constant tensor:
#      x y z
#    x 1.649720 0.000000 0.000000 
#    y 0.000000 1.649720 0.000000 
#    z 0.000000 0.000000 1.719970 
# 
# From -- ./inp_files/3365.got.cif
#   From: 2010.05.17/outbox.cif.g08.bks.cpg/sg133_2_cif.got.tgz:3365.got - 2010.05.20 12:37:36.
