data_PCOD9567512
_publ_section_title
;
Structure prediction by ZEFSAII (Michael W. Deem and Ramdas Pophale) SiO2 
 PCOD9567512
Probable space group: P 42/M C M
;
_chemical_formula_sum "Si O2"
_cell_formula_units_Z 88
_cell_length_a 18.032706
_cell_length_b 18.032706
_cell_length_c 17.371685
_cell_angle_alpha 90.000000
_cell_angle_beta 90.000000
_cell_angle_gamma 90.000000
_cell_volume 5648.898222
_symmetry_space_group_name_H-M "P 42/M C M"
_symmetry_group_IT_number 132
_symmetry_cell_setting 'tetragonal'
loop_
_space_group_symop_operation_xyz
x,y,z
-y,x,1/2+z
-x,-y,z
y,-x,1/2+z
x,-y,1/2-z
-x,y,1/2-z
y,x,-z
-y,-x,-z
-x,-y,-z
y,-x,1/2-z
x,y,-z
-y,x,1/2-z
-x,y,1/2+z
x,-y,1/2+z
-y,-x,z
y,x,z
loop_
_atom_site_type_symbol
_atom_site_label
_atom_site_fract_x
_atom_site_fract_y
_atom_site_fract_z
Si Si1 0.560832 0.439169 0.086108
Si Si2 0.342839 0.779175 0.092194
Si Si3 0.291783 0.507221 0.840880
Si Si4 0.415897 0.911930 0.657880
Si Si5 0.412135 0.083838 0.656765
Si Si6 0.232329 0.353114 0.092160
O O1 0.500000 0.500000 0.073905
O O2 0.523686 0.375164 0.135157
O O3 0.586940 0.413060 0.000000
O O4 0.273233 0.726768 0.115860
O O5 0.418914 0.747565 0.127712
O O6 0.349522 0.863886 0.120441
O O7 0.346331 0.776989 0.000000
O O8 0.279876 0.500000 0.750000
O O9 0.268114 0.430396 0.879757
O O10 0.502119 0.896823 0.633957
O O11 0.411884 0.907558 0.750655
O O12 0.360360 0.851499 0.623221
O O13 0.400619 0.997409 0.637246
O O14 0.283915 0.283915 0.118427
O O15 0.231110 0.351806 0.000000
#
# Coordination Sequence:
#
# PCOD9567512 Si02
#       6
#     8  16  16  16  16  16
#     4  11  24  38  50  62  86 120 162 218 261 293
#     4  11  22  35  51  72 101 132 166 208 253 297
#     4  12  24  34  50  67  91 126 171 212 249 297
#     4   9  18  33  53  76 100 126 163 210 254 300
#     4   9  18  33  53  76 100 126 163 210 254 300
#     4  11  23  36  50  71 101 132 166 208 253 297
#
# _framework density 15.578258999999999
#
# number of rings (size 3 to 8) (size 9 to 14) (size 15 to 20)
#    0.000    1.545    2.727    4.364    2.545    4.364 
#    0.000    1.818    0.000    0.000    0.000    0.000 
#    0.000    0.727    0.000    8.000    0.000    5.818 
#
# Total GULP energy -490649.166696 kJ/mol
# GULP energy per Si atom -5575.558712 kJ/mol
# Density = 1.554280 g / cm^3
# Si number density = 15.578259 Si / 1000 Ang^3
#
#
#
# Elastic Constant Matrix: (Units=GPa)
#
#
# Indices 1 2 3 4 5 6 
#
# 1 101.9031 64.0250 31.6452 0.0000 0.0000 0.0000
# 2 64.0250 101.9030 31.6453 0.0000 0.0000 0.0000
# 3 31.6452 31.6453 41.2868 0.0000 0.0000 0.0000
# 4 0.0000 0.0000 0.0000 25.3455 0.0000 0.0000
# 5 0.0000 0.0000 0.0000 0.0000 25.3455 0.0000
# 6 0.0000 0.0000 0.0000 0.0000 0.0000 22.0771
#
#
#
# Elastic Compliance Matrix: (Units=1/GPa)
#
#
# Indices 1 2 3 4 5 6 
#
# 1 0.017459 -0.008942 -0.006528 0.000000 0.000000 0.000000
# 2 -0.008942 0.017459 -0.006528 0.000000 0.000000 0.000000
# 3 -0.006528 -0.006528 0.034228 0.000000 0.000000 0.000000
# 4 0.000000 0.000000 0.000000 0.039455 0.000000 0.000000
# 5 0.000000 0.000000 0.000000 0.000000 0.039455 0.000000
# 6 0.000000 0.000000 0.000000 0.000000 0.000000 0.045296
#
#
# Mechanical properties :
#
#
# Convention : Reuss Voigt Hill
#
# Bulk Modulus (GPa) = 39.76191 55.52490 47.64340
# Shear Modulus (GPa) = 20.34769 22.40544 21.37657
#
# Velocity S-wave (km/s) = 3.61800 3.79654 3.70835
# Velocity P-wave (km/s) = 6.55993 7.41203 6.99896
#
# Compressibility (1/GPa) = 0.02514970
#
# Stress axis : x y z
#
# Youngs Moduli (GPa) = 57.27858 57.27846 29.21625
#
# Poissons Ratio (x) = 0.51218 0.19072
# Poissons Ratio (y) = 0.51218 0.19072
# Poissons Ratio (z) = 0.37390 0.37390
#
# Static dielectric constant tensor:
#      x y z
#    x 1.560990 0.000000 0.000000 
#    y 0.000000 1.560990 0.000000 
#    z 0.000000 0.000000 1.541910 
# 
# From -- ./inp_files/4798.got.cif
#   From: 2010.05.17/outbox.cif.g08.bks.cpg/sg132_3_cif.got.tgz:4798.got - 2010.05.20 12:30:18.
