data_PCOD9567280
_publ_section_title
;
Structure prediction by ZEFSAII (Michael W. Deem and Ramdas Pophale) SiO2 
 PCOD9567280
Probable space group: P 42/M C M
;
_chemical_formula_sum "Si O2"
_cell_formula_units_Z 72
_cell_length_a 11.221881
_cell_length_b 11.221881
_cell_length_c 29.869270
_cell_angle_alpha 90.000000
_cell_angle_beta 90.000000
_cell_angle_gamma 90.000000
_cell_volume 3761.455486
_symmetry_space_group_name_H-M "P 42/M C M"
_symmetry_group_IT_number 132
_symmetry_cell_setting 'tetragonal'
loop_
_space_group_symop_operation_xyz
x,y,z
-y,x,1/2+z
-x,-y,z
y,-x,1/2+z
x,-y,1/2-z
-x,y,1/2-z
y,x,-z
-y,-x,-z
-x,-y,-z
y,-x,1/2-z
x,y,-z
-y,x,1/2-z
-x,y,1/2+z
x,-y,1/2+z
-y,-x,z
y,x,z
loop_
_atom_site_type_symbol
_atom_site_label
_atom_site_fract_x
_atom_site_fract_y
_atom_site_fract_z
Si Si1 0.254540 0.556392 0.798873
Si Si2 0.904062 0.904062 0.445511
Si Si3 0.715784 0.081220 0.449378
Si Si4 0.599562 0.103062 0.640799
Si Si5 0.761164 0.949502 0.700234
O O1 0.267817 0.500000 0.750000
O O2 0.372603 0.627398 0.811881
O O3 0.214520 0.455321 0.833336
O O4 0.148033 0.654509 0.796437
O O5 0.909005 0.909005 0.500000
O O6 0.954384 0.774117 0.434482
O O7 0.000000 0.000000 0.428016
O O8 0.667952 0.071372 0.500000
O O9 0.825036 0.174964 0.451297
O O10 0.628681 0.123498 0.410859
O O11 0.500000 0.000000 0.643100
O O12 0.714412 0.052250 0.667292
O O13 0.878221 0.878221 0.684654
O O14 0.780751 0.000000 0.750000
#
# Coordination Sequence:
#
# PCOD9567280 Si02
#       5
#    16   8  16  16  16
#     4  10  20  36  57  77 103 143 188 233 279 322
#     4   7  12  26  48  74 104 136 171 215 263 321
#     4   9  18  33  53  77 107 142 180 223 273 328
#     4  10  21  34  54  80 112 146 176 226 275 323
#     4  10  20  34  54  79 111 147 179 214 271 341
#
# _framework density 19.141525999999999
#
# number of rings (size 3 to 8) (size 9 to 14) (size 15 to 20)
#    0.000    2.556    2.222    1.333    1.556    2.667 
#    0.000    0.000    0.000    0.667    0.000    1.556 
#    0.000    0.000    0.000    0.000    0.000    0.000 
#
# Total GULP energy -401601.175996 kJ/mol
# GULP energy per Si atom -5577.794111 kJ/mol
# Density = 1.909796 g / cm^3
# Si number density = 19.141526 Si / 1000 Ang^3
#
#
#
# Elastic Constant Matrix: (Units=GPa)
#
#
# Indices 1 2 3 4 5 6 
#
# 1 60.5083 41.4086 46.2769 0.0000 0.0000 0.0000
# 2 41.4086 60.5083 46.2769 0.0000 0.0000 0.0000
# 3 46.2769 46.2769 132.3386 0.0000 0.0000 0.0000
# 4 0.0000 0.0000 0.0000 7.8851 0.0000 0.0000
# 5 0.0000 0.0000 0.0000 0.0000 7.8851 0.0000
# 6 0.0000 0.0000 0.0000 0.0000 0.0000 10.5770
#
#
#
# Elastic Compliance Matrix: (Units=1/GPa)
#
#
# Indices 1 2 3 4 5 6 
#
# 1 0.033367 -0.018990 -0.005028 0.000000 0.000000 0.000000
# 2 -0.018990 0.033367 -0.005028 0.000000 0.000000 0.000000
# 3 -0.005028 -0.005028 0.011073 0.000000 0.000000 0.000000
# 4 0.000000 0.000000 0.000000 0.126822 0.000000 0.000000
# 5 0.000000 0.000000 0.000000 0.000000 0.126822 0.000000
# 6 0.000000 0.000000 0.000000 0.000000 0.000000 0.094544
#
#
# Mechanical properties :
#
#
# Convention : Reuss Voigt Hill
#
# Bulk Modulus (GPa) = 50.71692 57.92000 54.31846
# Shear Modulus (GPa) = 10.19040 13.22895 11.70967
#
# Velocity S-wave (km/s) = 2.30982 2.63175 2.47603
# Velocity P-wave (km/s) = 5.80232 6.28962 6.05088
#
# Compressibility (1/GPa) = 0.01971729
#
# Stress axis : x y z
#
# Youngs Moduli (GPa) = 29.96945 29.96945 90.31307
#
# Poissons Ratio (x) = 0.56911 0.45407
# Poissons Ratio (y) = 0.56911 0.45407
# Poissons Ratio (z) = 0.15068 0.15068
#
# Static dielectric constant tensor:
#      x y z
#    x 1.695020 0.000000 0.000000 
#    y 0.000000 1.695020 0.000000 
#    z 0.000000 0.000000 1.649790 
# 
# From -- ./inp_files/9735.got.cif
#   From: 2010.05.17/outbox.cif.g08.bks.cpg/sg132_5_cif.got.tgz:9735.got - 2010.05.20 12:30:18.
