data_PCOD9567872
_publ_section_title
;
Structure prediction by ZEFSAII (Michael W. Deem and Ramdas Pophale) SiO2 
 PCOD9567872
Probable space group: P 42/N B C
;
_chemical_formula_sum "Si O2"
_cell_formula_units_Z 72
_cell_length_a 13.260021
_cell_length_b 13.260021
_cell_length_c 19.050372
_cell_angle_alpha 90.000000
_cell_angle_beta 90.000000
_cell_angle_gamma 90.000000
_cell_volume 3349.591797
_symmetry_space_group_name_H-M "P 42/N B C"
_symmetry_group_IT_number 133
_space_group.IT_coordinate_system_code '2'
_symmetry_cell_setting 'tetragonal'
loop_
_space_group_symop_operation_xyz
x,y,z
1/2-y,x,1/2+z
1/2-x,1/2-y,z
y,1/2-x,1/2+z
x,1/2-y,-z
1/2-x,y,-z
y,x,1/2-z
1/2-y,1/2-x,1/2-z
-x,-y,-z
1/2+y,-x,1/2-z
1/2+x,1/2+y,-z
-y,1/2+x,1/2-z
-x,1/2+y,z
1/2+x,-y,z
-y,-x,1/2+z
1/2+y,1/2+x,1/2+z
loop_
_atom_site_type_symbol
_atom_site_label
_atom_site_fract_x
_atom_site_fract_y
_atom_site_fract_z
Si Si1 0.367147 0.087406 0.500594
Si Si2 0.459312 0.841873 0.138496
Si Si3 0.480824 0.019177 0.750000
Si Si4 0.107990 0.930174 0.621372
Si Si5 0.457352 0.779306 0.570223
O O1 0.250000 0.121166 0.500000
O O2 0.442250 0.168252 0.463911
O O3 0.371667 0.043306 0.579804
O O4 0.390675 0.990441 0.451956
O O5 0.501931 0.873537 0.213597
O O6 0.423600 0.726793 0.136538
O O7 0.362242 0.906772 0.118177
O O8 0.558575 0.009450 0.685802
O O9 0.046985 0.825891 0.611970
O O10 0.394716 0.750000 0.500000
#
# Coordination Sequence:
#
# PCOD9567872 Si02
#       5
#    16  16   8  16  16
#     4  10  22  45  71 102 138 183 239 294 359 429
#     4  11  24  43  68 104 139 187 239 297 361 434
#     4  12  26  44  64  98 148 194 226 294 356 442
#     4  11  25  43  71 101 142 187 239 297 362 431
#     4  12  22  40  74 105 138 175 235 307 362 426
#
# _framework density 21.495158
#
# number of rings (size 3 to 8) (size 9 to 14) (size 15 to 20)
#    0.000    0.889    4.444    2.667    3.111    1.333 
#    0.000    0.000    0.000    6.000    0.000    0.000 
#    0.000    0.000    0.000    0.000    0.000    0.000 
#
# Total GULP energy -401262.938724 kJ/mol
# GULP energy per Si atom -5573.096371 kJ/mol
# Density = 2.144623 g / cm^3
# Si number density = 21.495158 Si / 1000 Ang^3
#
#
#
# Elastic Constant Matrix: (Units=GPa)
#
#
# Indices 1 2 3 4 5 6 
#
# 1 104.2797 88.1551 22.5921 0.0000 0.0000 0.0000
# 2 88.1551 104.2795 22.5912 0.0000 0.0000 0.0000
# 3 22.5921 22.5912 108.2080 0.0000 0.0000 0.0000
# 4 0.0000 0.0000 0.0000 33.0862 0.0000 0.0000
# 5 0.0000 0.0000 0.0000 0.0000 33.0855 0.0000
# 6 0.0000 0.0000 0.0000 0.0000 0.0000 15.0551
#
#
#
# Elastic Compliance Matrix: (Units=1/GPa)
#
#
# Indices 1 2 3 4 5 6 
#
# 1 0.033741 -0.028276 -0.001141 0.000000 0.000000 0.000000
# 2 -0.028276 0.033741 -0.001141 0.000000 0.000000 0.000000
# 3 -0.001141 -0.001141 0.009718 0.000000 0.000000 0.000000
# 4 0.000000 0.000000 0.000000 0.030224 0.000000 0.000000
# 5 0.000000 0.000000 0.000000 0.000000 0.030225 0.000000
# 6 0.000000 0.000000 0.000000 0.000000 0.000000 0.066423
#
#
# Mechanical properties :
#
#
# Convention : Reuss Voigt Hill
#
# Bulk Modulus (GPa) = 62.17645 64.82712 63.50179
# Shear Modulus (GPa) = 18.48099 28.47394 23.47746
#
# Velocity S-wave (km/s) = 2.93537 3.64355 3.30846
# Velocity P-wave (km/s) = 6.36216 6.92279 6.64839
#
# Compressibility (1/GPa) = 0.01608326
#
# Stress axis : x y z
#
# Youngs Moduli (GPa) = 29.63768 29.63773 102.90349
#
# Poissons Ratio (x) = 0.83805 0.11743
# Poissons Ratio (y) = 0.83805 0.11737
# Poissons Ratio (z) = 0.03382 0.03380
#
# Static dielectric constant tensor:
#      x y z
#    x 1.851950 0.000000 0.000000 
#    y 0.000000 1.851950 0.000000 
#    z 0.000000 0.000000 1.814320 
# 
# From -- ./inp_files/5326.got.cif
#   From: 2010.05.17/outbox.cif.g08.bks.cpg/sg133_3_cif.got.tgz:5326.got - 2010.05.20 12:37:36.
