data_PCOD9567597
_publ_section_title
;
Structure prediction by ZEFSAII (Michael W. Deem and Ramdas Pophale) SiO2 
 PCOD9567597
Probable space group: P 42/N B C
;
_chemical_formula_sum "Si O2"
_cell_formula_units_Z 72
_cell_length_a 17.366941
_cell_length_b 17.366941
_cell_length_c 9.049260
_cell_angle_alpha 90.000000
_cell_angle_beta 90.000000
_cell_angle_gamma 90.000000
_cell_volume 2729.353097
_symmetry_space_group_name_H-M "P 42/N B C"
_symmetry_group_IT_number 133
_space_group.IT_coordinate_system_code '2'
_symmetry_cell_setting 'tetragonal'
loop_
_space_group_symop_operation_xyz
x,y,z
1/2-y,x,1/2+z
1/2-x,1/2-y,z
y,1/2-x,1/2+z
x,1/2-y,-z
1/2-x,y,-z
y,x,1/2-z
1/2-y,1/2-x,1/2-z
-x,-y,-z
1/2+y,-x,1/2-z
1/2+x,1/2+y,-z
-y,1/2+x,1/2-z
-x,1/2+y,z
1/2+x,-y,z
-y,-x,1/2+z
1/2+y,1/2+x,1/2+z
loop_
_atom_site_type_symbol
_atom_site_label
_atom_site_fract_x
_atom_site_fract_y
_atom_site_fract_z
Si Si1 0.718371 0.604362 0.732652
Si Si2 0.543845 0.160969 0.639484
Si Si3 0.860913 0.951369 0.445281
Si Si4 0.011806 0.011806 0.750000
Si Si5 0.877867 0.327322 0.941205
O O1 0.692138 0.692138 0.750000
O O2 0.704743 0.537524 0.853321
O O3 0.657409 0.583227 0.602926
O O4 0.802140 0.589059 0.666336
O O5 0.592261 0.161387 0.487748
O O6 0.526309 0.075235 0.705201
O O7 0.601356 0.187611 0.770986
O O8 0.948129 0.944869 0.388793
O O9 0.836525 0.040557 0.468433
O O10 0.839342 0.250000 0.000000
#
# Coordination Sequence:
#
# PCOD9567597 Si02
#       5
#    16  16  16   8  16
#     4  10  18  33  56  84 113 153 194 229 293 346
#     4  10  20  31  60  88 111 146 191 243 278 346
#     4   9  19  35  53  80 123 152 174 247 298 330
#     4  10  20  32  55  88 112 139 200 232 282 342
#     4  10  19  37  56  84 119 151 182 238 303 333
#
# _framework density 26.379877
#
# number of rings (size 3 to 8) (size 9 to 14) (size 15 to 20)
#    0.000    2.222    5.556    0.000    3.111    2.667 
#    0.000    2.778    0.000    4.667    0.000    0.000 
#    0.000    0.000    0.000    0.000    0.000    0.000 
#
# Total GULP energy -402154.665265 kJ/mol
# GULP energy per Si atom -5585.481462 kJ/mol
# Density = 2.631984 g / cm^3
# Si number density = 26.379877 Si / 1000 Ang^3
#
#
#
# Elastic Constant Matrix: (Units=GPa)
#
#
# Indices 1 2 3 4 5 6 
#
# 1 74.3728 37.8331 28.8105 0.0000 0.0000 0.0000
# 2 37.8331 74.3728 28.8105 0.0000 0.0000 0.0000
# 3 28.8105 28.8105 62.7341 0.0000 0.0000 0.0000
# 4 0.0000 0.0000 0.0000 13.1610 0.0000 0.0000
# 5 0.0000 0.0000 0.0000 0.0000 13.1610 0.0000
# 6 0.0000 0.0000 0.0000 0.0000 0.0000 10.4768
#
#
#
# Elastic Compliance Matrix: (Units=1/GPa)
#
#
# Indices 1 2 3 4 5 6 
#
# 1 0.019515 -0.007852 -0.005356 0.000000 0.000000 0.000000
# 2 -0.007852 0.019515 -0.005356 0.000000 0.000000 0.000000
# 3 -0.005356 -0.005356 0.020860 0.000000 0.000000 0.000000
# 4 0.000000 0.000000 0.000000 0.075982 0.000000 0.000000
# 5 0.000000 0.000000 0.000000 0.000000 0.075982 0.000000
# 6 0.000000 0.000000 0.000000 0.000000 0.000000 0.095449
#
#
# Mechanical properties :
#
#
# Convention : Reuss Voigt Hill
#
# Bulk Modulus (GPa) = 43.93491 44.70975 44.32233
# Shear Modulus (GPa) = 14.20375 15.09478 14.64926
#
# Velocity S-wave (km/s) = 2.32293 2.39468 2.35908
# Velocity P-wave (km/s) = 4.88728 4.96299 4.92528
#
# Compressibility (1/GPa) = 0.02276094
#
# Stress axis : x y z
#
# Youngs Moduli (GPa) = 51.24247 51.24247 47.93905
#
# Poissons Ratio (x) = 0.40238 0.25676
# Poissons Ratio (y) = 0.40238 0.25676
# Poissons Ratio (z) = 0.27446 0.27446
#
# Static dielectric constant tensor:
#      x y z
#    x 2.117300 0.000000 0.000000 
#    y 0.000000 2.117300 0.000000 
#    z 0.000000 0.000000 2.115610 
# 
# From -- ./inp_files/1710.got.cif
#   From: 2010.05.17/outbox.cif.g08.bks.cpg/sg133_1_cif.got.tgz:1710.got - 2010.05.20 12:37:36.
