data_PCOD9567062
_publ_section_title
;
Structure prediction by ZEFSAII (Michael W. Deem and Ramdas Pophale) SiO2 
 PCOD9567062
Probable space group: P 42/M C M
;
_chemical_formula_sum "Si O2"
_cell_formula_units_Z 96
_cell_length_a 25.769260
_cell_length_b 25.769260
_cell_length_c 8.862663
_cell_angle_alpha 90.000000
_cell_angle_beta 90.000000
_cell_angle_gamma 90.000000
_cell_volume 5885.293560
_symmetry_space_group_name_H-M "P 42/M C M"
_symmetry_group_IT_number 132
_symmetry_cell_setting 'tetragonal'
loop_
_space_group_symop_operation_xyz
x,y,z
-y,x,1/2+z
-x,-y,z
y,-x,1/2+z
x,-y,1/2-z
-x,y,1/2-z
y,x,-z
-y,-x,-z
-x,-y,-z
y,-x,1/2-z
x,y,-z
-y,x,1/2-z
-x,y,1/2+z
x,-y,1/2+z
-y,-x,z
y,x,z
loop_
_atom_site_type_symbol
_atom_site_label
_atom_site_fract_x
_atom_site_fract_y
_atom_site_fract_z
Si Si1 0.446996 0.122190 0.673139
Si Si2 0.665718 0.752583 0.180009
Si Si3 0.744445 0.052823 0.180332
Si Si4 0.255682 0.830524 0.180565
Si Si5 0.247163 0.445838 0.327023
Si Si6 0.949387 0.369622 0.321456
O O1 0.500000 0.103931 0.750000
O O2 0.441565 0.104280 0.500000
O O3 0.447658 0.184367 0.671532
O O4 0.401374 0.100921 0.776185
O O5 0.705518 0.705518 0.216776
O O6 0.693192 0.804734 0.245351
O O7 0.608618 0.741122 0.245050
O O8 0.662543 0.757651 0.000000
O O9 0.761038 0.111163 0.225698
O O10 0.685154 0.053302 0.236975
O O11 0.768350 0.000000 0.250000
O O12 0.747128 0.048450 0.000000
O O13 0.209027 0.790974 0.213448
O O14 0.264760 0.831527 0.000000
O O15 0.264597 0.500000 0.250000
O O16 0.265277 0.444191 0.500000
O O17 0.954673 0.362921 0.500000
O O18 0.000000 0.397023 0.250000
#
# Coordination Sequence:
#
# PCOD9567062 Si02
#       6
#    16  16  16  16  16  16
#     4  10  20  33  46  62  82 107 143 184 227 270
#     4  10  20  32  48  72 100 128 159 196 236 279
#     4  10  19  31  47  66  89 117 149 185 225 271
#     4   9  18  32  49  69  94 125 159 193 232 280
#     4  10  20  33  50  69  92 122 154 190 230 276
#     4  11  21  32  45  60  80 108 143 183 225 267
#
# _framework density 16.311845000000002
#
# number of rings (size 3 to 8) (size 9 to 14) (size 15 to 20)
#    0.000    2.000    0.000    5.500    0.000    8.667 
#    0.000    1.667    0.000    0.000    0.000    0.000 
#    0.000    0.667    0.000    7.667    0.000    1.500 
#
# Total GULP energy -535051.206679 kJ/mol
# GULP energy per Si atom -5573.450070 kJ/mol
# Density = 1.627472 g / cm^3
# Si number density = 16.311845 Si / 1000 Ang^3
#
#
#
# Elastic Constant Matrix: (Units=GPa)
#
#
# Indices 1 2 3 4 5 6 
#
# 1 81.9295 19.7916 30.2278 0.0000 0.0000 0.0000
# 2 19.7916 81.9295 30.2278 0.0000 0.0000 0.0000
# 3 30.2278 30.2278 54.6509 0.0000 0.0000 0.0000
# 4 0.0000 0.0000 0.0000 20.8721 0.0000 0.0000
# 5 0.0000 0.0000 0.0000 0.0000 20.8721 0.0000
# 6 0.0000 0.0000 0.0000 0.0000 0.0000 -5.6991
#
#
#
# Elastic Compliance Matrix: (Units=1/GPa)
#
#
# Indices 1 2 3 4 5 6 
#
# 1 0.015369 -0.000724 -0.008100 0.000000 0.000000 0.000000
# 2 -0.000724 0.015369 -0.008100 0.000000 0.000000 0.000000
# 3 -0.008100 -0.008100 0.027259 0.000000 0.000000 0.000000
# 4 0.000000 0.000000 0.000000 0.047911 0.000000 0.000000
# 5 0.000000 0.000000 0.000000 0.000000 0.047911 0.000000
# 6 0.000000 0.000000 0.000000 0.000000 0.000000 -0.175466
#
#
# Mechanical properties :
#
#
# Convention : Reuss Voigt Hill
#
# Bulk Modulus (GPa) = 41.41205 42.11159 41.76182
# Shear Modulus (GPa) = 246.90214 16.42653 131.66433
#
# Velocity S-wave (km/s) = 12.31634 3.17682 8.99401
# Velocity P-wave (km/s) = 15.08971 6.27127 11.55483
#
# Compressibility (1/GPa) = 0.02414756
#
# Stress axis : x y z
#
# Youngs Moduli (GPa) = 65.06550 65.06550 36.68564
#
# Poissons Ratio (x) = 0.04711 0.29716
# Poissons Ratio (y) = 0.04711 0.29716
# Poissons Ratio (z) = 0.52705 0.52705
#
# Static dielectric constant tensor:
#      x y z
#    x 1.594800 0.000000 0.000000 
#    y 0.000000 1.594800 0.000000 
#    z 0.000000 0.000000 1.554300 
# 
# From -- ./inp_files/1801.got.cif
#   From: 2010.05.17/outbox.cif.g08.bks.cpg/sg132_1_cif.got.tgz:1801.got - 2010.05.20 12:30:18.
