data_PCOD9567776
_publ_section_title
;
Structure prediction by ZEFSAII (Michael W. Deem and Ramdas Pophale) SiO2 
 PCOD9567776
Probable space group: P 42/N B C
;
_chemical_formula_sum "Si O2"
_cell_formula_units_Z 52
_cell_length_a 14.732387
_cell_length_b 14.732387
_cell_length_c 9.299819
_cell_angle_alpha 90.000000
_cell_angle_beta 90.000000
_cell_angle_gamma 90.000000
_cell_volume 2018.462724
_symmetry_space_group_name_H-M "P 42/N B C"
_symmetry_group_IT_number 133
_space_group.IT_coordinate_system_code '2'
_symmetry_cell_setting 'tetragonal'
loop_
_space_group_symop_operation_xyz
x,y,z
1/2-y,x,1/2+z
1/2-x,1/2-y,z
y,1/2-x,1/2+z
x,1/2-y,-z
1/2-x,y,-z
y,x,1/2-z
1/2-y,1/2-x,1/2-z
-x,-y,-z
1/2+y,-x,1/2-z
1/2+x,1/2+y,-z
-y,1/2+x,1/2-z
-x,1/2+y,z
1/2+x,-y,z
-y,-x,1/2+z
1/2+y,1/2+x,1/2+z
loop_
_atom_site_type_symbol
_atom_site_label
_atom_site_fract_x
_atom_site_fract_y
_atom_site_fract_z
Si Si1 0.250000 0.750000 0.000000
Si Si2 0.157374 0.900451 0.286434
Si Si3 0.671452 0.611840 0.607477
Si Si4 0.891280 0.483115 0.991236
O O1 0.326007 0.786916 0.120425
O O2 0.055737 0.871445 0.335065
O O3 0.150329 0.916010 0.114409
O O4 0.170139 0.003378 0.348192
O O5 0.750000 0.626264 0.500000
O O6 0.669921 0.669921 0.750000
O O7 0.581043 0.642618 0.526345
O O8 0.000000 0.500000 0.000000
#
# Coordination Sequence:
#
# PCOD9567776 Si02
#       4
#     4  16  16  16
#     4  12  24  38  60 102 174 190 250 314 380 474
#     4  10  21  36  57  95 143 202 234 304 375 443
#     4   9  17  35  61  92 134 186 250 311 374 448
#     4   9  19  37  61  85 133 190 255 292 358 448
#
# _framework density 25.762180000000001
#
# number of rings (size 3 to 8) (size 9 to 14) (size 15 to 20)
#    0.000    2.462    1.538    2.769    0.000    3.692 
#    5.538    0.000    0.000    0.000    0.000    1.077 
#   13.846    0.000    0.000    8.000    0.000    4.923 
#
# Total GULP energy -289838.657238 kJ/mol
# GULP energy per Si atom -5573.820332 kJ/mol
# Density = 2.570354 g / cm^3
# Si number density = 25.762180 Si / 1000 Ang^3
#
#
#
# Elastic Constant Matrix: (Units=GPa)
#
#
# Indices 1 2 3 4 5 6 
#
# 1 111.5249 35.2232 55.9654 0.0000 0.0000 0.0000
# 2 35.2232 111.5249 55.9654 0.0000 0.0000 0.0000
# 3 55.9654 55.9654 147.6903 0.0000 0.0000 0.0000
# 4 0.0000 0.0000 0.0000 37.0880 0.0000 0.0000
# 5 0.0000 0.0000 0.0000 0.0000 37.0880 0.0000
# 6 0.0000 0.0000 0.0000 0.0000 0.0000 17.4311
#
#
#
# Elastic Compliance Matrix: (Units=1/GPa)
#
#
# Indices 1 2 3 4 5 6 
#
# 1 0.011345 -0.001761 -0.003632 0.000000 0.000000 0.000000
# 2 -0.001761 0.011345 -0.003632 0.000000 0.000000 0.000000
# 3 -0.003632 -0.003632 0.009524 0.000000 0.000000 0.000000
# 4 0.000000 0.000000 0.000000 0.026963 0.000000 0.000000
# 5 0.000000 0.000000 0.000000 0.000000 0.026963 0.000000
# 6 0.000000 0.000000 0.000000 0.000000 0.000000 0.057369
#
#
# Mechanical properties :
#
#
# Convention : Reuss Voigt Hill
#
# Bulk Modulus (GPa) = 70.59706 73.89421 72.24564
# Shear Modulus (GPa) = 30.06986 33.22716 31.64851
#
# Velocity S-wave (km/s) = 3.42015 3.59523 3.50878
# Velocity P-wave (km/s) = 6.56197 6.78083 6.67230
#
# Compressibility (1/GPa) = 0.01416490
#
# Stress axis : x y z
#
# Youngs Moduli (GPa) = 88.14252 88.14252 105.00324
#
# Poissons Ratio (x) = 0.15518 0.38137
# Poissons Ratio (y) = 0.15518 0.38137
# Poissons Ratio (z) = 0.32013 0.32013
#
# Static dielectric constant tensor:
#      x y z
#    x 2.234200 0.000000 0.000000 
#    y 0.000000 2.234200 0.000000 
#    z 0.000000 0.000000 -18.863180 
# 
# From -- ./inp_files/1211.got.cif
#   From: 2010.05.17/outbox.cif.g08.bks.cpg/sg133_1_cif.got.tgz:1211.got - 2010.05.20 12:37:36.
