data_PCOD9567154
_publ_section_title
;
Structure prediction by ZEFSAII (Michael W. Deem and Ramdas Pophale) SiO2 
 PCOD9567154
Probable space group: P 42/M C M
;
_chemical_formula_sum "Si O2"
_cell_formula_units_Z 96
_cell_length_a 24.222050
_cell_length_b 24.222050
_cell_length_c 9.197189
_cell_angle_alpha 90.000000
_cell_angle_beta 90.000000
_cell_angle_gamma 90.000000
_cell_volume 5396.061662
_symmetry_space_group_name_H-M "P 42/M C M"
_symmetry_group_IT_number 132
_symmetry_cell_setting 'tetragonal'
loop_
_space_group_symop_operation_xyz
x,y,z
-y,x,1/2+z
-x,-y,z
y,-x,1/2+z
x,-y,1/2-z
-x,y,1/2-z
y,x,-z
-y,-x,-z
-x,-y,-z
y,-x,1/2-z
x,y,-z
-y,x,1/2-z
-x,y,1/2+z
x,-y,1/2+z
-y,-x,z
y,x,z
loop_
_atom_site_type_symbol
_atom_site_label
_atom_site_fract_x
_atom_site_fract_y
_atom_site_fract_z
Si Si1 0.739317 0.053301 0.336536
Si Si2 0.615356 0.238145 0.326001
Si Si3 0.444636 0.145289 0.327857
Si Si4 0.178799 0.731186 0.323482
Si Si5 0.353289 0.440883 0.826048
Si Si6 0.051636 0.608419 0.663536
O O1 0.763079 0.054573 0.500000
O O2 0.740877 0.115709 0.271897
O O3 0.673662 0.042916 0.351200
O O4 0.761540 0.000000 0.250000
O O5 0.608822 0.227918 0.500000
O O6 0.570317 0.204827 0.234518
O O7 0.675025 0.212325 0.283501
O O8 0.601480 0.302165 0.300679
O O9 0.500000 0.125625 0.250000
O O10 0.448454 0.144212 0.500000
O O11 0.398922 0.104614 0.263754
O O12 0.174553 0.728020 0.500000
O O13 0.217549 0.782452 0.284448
O O14 0.345730 0.500000 0.750000
O O15 0.409053 0.409053 0.780522
O O16 0.355183 0.449625 0.000000
O O17 0.058988 0.585943 0.500000
O O18 0.000000 0.583579 0.750000
#
# Coordination Sequence:
#
# PCOD9567154 Si02
#       6
#    16  16  16  16  16  16
#     4   9  17  30  50  75 104 140 177 214 257 306
#     4  10  19  36  57  79 106 135 169 212 262 316
#     4  12  24  36  51  72  99 135 176 220 264 313
#     4   9  16  29  53  82 108 138 178 218 254 304
#     4  10  22  39  60  84 107 135 170 211 264 325
#     4  10  19  34  52  73  99 132 174 219 265 311
#
# _framework density 17.790754
#
# number of rings (size 3 to 8) (size 9 to 14) (size 15 to 20)
#    0.000    2.000    1.667    3.000    0.000    5.500 
#    0.000    2.500    0.000    3.000    0.000    0.000 
#    0.000    0.333    0.000    4.167    0.000    0.000 
#
# Total GULP energy -534633.592730 kJ/mol
# GULP energy per Si atom -5569.099924 kJ/mol
# Density = 1.775026 g / cm^3
# Si number density = 17.790754 Si / 1000 Ang^3
#
#
#
# Elastic Constant Matrix: (Units=GPa)
#
#
# Indices 1 2 3 4 5 6 
#
# 1 81.7572 34.9401 30.2764 0.0000 0.0000 0.0000
# 2 34.9401 81.7572 30.2764 0.0000 0.0000 0.0000
# 3 30.2764 30.2764 62.5273 0.0000 0.0000 0.0000
# 4 0.0000 0.0000 0.0000 18.1049 0.0000 0.0000
# 5 0.0000 0.0000 0.0000 0.0000 18.1049 0.0000
# 6 0.0000 0.0000 0.0000 0.0000 0.0000 -0.6493
#
#
#
# Elastic Compliance Matrix: (Units=1/GPa)
#
#
# Indices 1 2 3 4 5 6 
#
# 1 0.016402 -0.004958 -0.005542 0.000000 0.000000 0.000000
# 2 -0.004958 0.016402 -0.005542 0.000000 0.000000 0.000000
# 3 -0.005542 -0.005542 0.021360 0.000000 0.000000 0.000000
# 4 0.000000 0.000000 0.000000 0.055234 0.000000 0.000000
# 5 0.000000 0.000000 0.000000 0.000000 0.055234 0.000000
# 6 0.000000 0.000000 0.000000 0.000000 0.000000 -1.540068
#
#
# Mechanical properties :
#
#
# Convention : Reuss Voigt Hill
#
# Bulk Modulus (GPa) = 45.28481 46.33638 45.81059
# Shear Modulus (GPa) = -3.74253 15.81535 6.03641
#
# Velocity S-wave (km/s) = -1.45197 2.98479 1.84401
# Velocity P-wave (km/s) = 4.76429 6.16282 5.50812
#
# Compressibility (1/GPa) = 0.02208246
#
# Stress axis : x y z
#
# Youngs Moduli (GPa) = 60.96754 60.96754 46.81729
#
# Poissons Ratio (x) = 0.30225 0.25944
# Poissons Ratio (y) = 0.30225 0.25944
# Poissons Ratio (z) = 0.33786 0.33786
#
# Static dielectric constant tensor:
#      x y z
#    x 1.663840 0.000000 0.000000 
#    y 0.000000 1.663840 0.000000 
#    z 0.000000 0.000000 1.633610 
# 
# From -- ./inp_files/1733.got.cif
#   From: 2010.05.17/outbox.cif.g08.bks.cpg/sg132_1_cif.got.tgz:1733.got - 2010.05.20 12:30:18.
