data_PCOD9567654
_publ_section_title
;
Structure prediction by ZEFSAII (Michael W. Deem and Ramdas Pophale) SiO2 
 PCOD9567654
Probable space group: P 42/N B C
;
_chemical_formula_sum "Si O2"
_cell_formula_units_Z 96
_cell_length_a 16.829720
_cell_length_b 16.829720
_cell_length_c 17.576152
_cell_angle_alpha 90.000000
_cell_angle_beta 90.000000
_cell_angle_gamma 90.000000
_cell_volume 4978.260070
_symmetry_space_group_name_H-M "P 42/N B C"
_symmetry_group_IT_number 133
_space_group.IT_coordinate_system_code '2'
_symmetry_cell_setting 'tetragonal'
loop_
_space_group_symop_operation_xyz
x,y,z
1/2-y,x,1/2+z
1/2-x,1/2-y,z
y,1/2-x,1/2+z
x,1/2-y,-z
1/2-x,y,-z
y,x,1/2-z
1/2-y,1/2-x,1/2-z
-x,-y,-z
1/2+y,-x,1/2-z
1/2+x,1/2+y,-z
-y,1/2+x,1/2-z
-x,1/2+y,z
1/2+x,-y,z
-y,-x,1/2+z
1/2+y,1/2+x,1/2+z
loop_
_atom_site_type_symbol
_atom_site_label
_atom_site_fract_x
_atom_site_fract_y
_atom_site_fract_z
Si Si1 0.951239 0.437097 0.051218
Si Si2 0.932868 0.927465 0.658632
Si Si3 0.856262 0.413365 0.405030
Si Si4 0.796855 0.368195 0.771311
Si Si5 0.201561 0.002426 0.648863
Si Si6 0.213901 0.169567 0.336492
O O1 0.906659 0.485476 0.117151
O O2 0.005985 0.376255 0.097371
O O3 0.902133 0.385736 0.990672
O O4 0.000000 0.500000 0.000000
O O5 0.930696 0.930696 0.750000
O O6 0.867443 0.864908 0.629416
O O7 0.908291 0.015929 0.633018
O O8 0.867542 0.335627 0.354273
O O9 0.768402 0.451009 0.396397
O O10 0.843367 0.295633 0.729310
O O11 0.808992 0.450356 0.725685
O O12 0.230424 0.091823 0.664301
O O13 0.250000 0.250000 0.371577
O O14 0.192381 0.192381 0.250000
#
# Coordination Sequence:
#
# PCOD9567654 Si02
#       6
#    16  16  16  16  16  16
#     4  10  20  34  54  84 118 155 206 243 303 376
#     4   9  17  32  57  80 113 148 197 256 299 357
#     4   9  18  33  54  84 115 155 194 245 305 371
#     4   9  18  34  58  89 118 151 202 251 306 378
#     4  10  19  35  62  81 116 166 195 250 316 372
#     4   9  19  38  58  88 114 150 205 259 310 365
#
# _framework density 19.283844999999999
#
# number of rings (size 3 to 8) (size 9 to 14) (size 15 to 20)
#    0.000    2.667    0.000    1.500    0.000    1.333 
#   15.000    0.833    3.667   21.000    0.000    0.000 
#    0.000    0.000    0.000    0.000    0.000    0.000 
#
# Total GULP energy -534614.642562 kJ/mol
# GULP energy per Si atom -5568.902527 kJ/mol
# Density = 1.923995 g / cm^3
# Si number density = 19.283845 Si / 1000 Ang^3
#
#
#
# Elastic Constant Matrix: (Units=GPa)
#
#
# Indices 1 2 3 4 5 6 
#
# 1 96.9675 48.7460 48.4898 0.0000 0.0000 0.0000
# 2 48.7460 96.9675 48.4898 0.0000 0.0000 0.0000
# 3 48.4898 48.4898 75.6675 0.0000 0.0000 0.0000
# 4 0.0000 0.0000 0.0000 16.3911 0.0000 0.0000
# 5 0.0000 0.0000 0.0000 0.0000 16.3911 0.0000
# 6 0.0000 0.0000 0.0000 0.0000 0.0000 13.4653
#
#
#
# Elastic Compliance Matrix: (Units=1/GPa)
#
#
# Indices 1 2 3 4 5 6 
#
# 1 0.016352 -0.004386 -0.007668 0.000000 0.000000 0.000000
# 2 -0.004386 0.016352 -0.007668 0.000000 0.000000 0.000000
# 3 -0.007668 -0.007668 0.023044 0.000000 0.000000 0.000000
# 4 0.000000 0.000000 0.000000 0.061009 0.000000 0.000000
# 5 0.000000 0.000000 0.000000 0.000000 0.061009 0.000000
# 6 0.000000 0.000000 0.000000 0.000000 0.000000 0.074265
#
#
# Mechanical properties :
#
#
# Convention : Reuss Voigt Hill
#
# Bulk Modulus (GPa) = 61.33762 62.33928 61.83845
# Shear Modulus (GPa) = 16.84012 17.50796 17.17404
#
# Velocity S-wave (km/s) = 2.95833 3.01642 2.98752
# Velocity P-wave (km/s) = 6.59892 6.67301 6.63607
#
# Compressibility (1/GPa) = 0.01630321
#
# Stress axis : x y z
#
# Youngs Moduli (GPa) = 61.15427 61.15427 43.39513
#
# Poissons Ratio (x) = 0.26820 0.33277
# Poissons Ratio (y) = 0.26820 0.33277
# Poissons Ratio (z) = 0.46896 0.46896
#
# Static dielectric constant tensor:
#      x y z
#    x 1.711020 0.000000 0.000000 
#    y 0.000000 1.711020 0.000000 
#    z 0.000000 0.000000 1.690960 
# 
# From -- ./inp_files/5529.got.cif
#   From: 2010.05.17/outbox.cif.g08.bks.cpg/sg133_3_cif.got.tgz:5529.got - 2010.05.20 12:37:36.
