data_PCOD9567009
_publ_section_title
;
Structure prediction by ZEFSAII (Michael W. Deem and Ramdas Pophale) SiO2 
 PCOD9567009
Probable space group: P 42/M C M
;
_chemical_formula_sum "Si O2"
_cell_formula_units_Z 64
_cell_length_a 12.699181
_cell_length_b 12.699181
_cell_length_c 24.275783
_cell_angle_alpha 90.000000
_cell_angle_beta 90.000000
_cell_angle_gamma 90.000000
_cell_volume 3914.936057
_symmetry_space_group_name_H-M "P 42/M C M"
_symmetry_group_IT_number 132
_symmetry_cell_setting 'tetragonal'
loop_
_space_group_symop_operation_xyz
x,y,z
-y,x,1/2+z
-x,-y,z
y,-x,1/2+z
x,-y,1/2-z
-x,y,1/2-z
y,x,-z
-y,-x,-z
-x,-y,-z
y,-x,1/2-z
x,y,-z
-y,x,1/2-z
-x,y,1/2+z
x,-y,1/2+z
-y,-x,z
y,x,z
loop_
_atom_site_type_symbol
_atom_site_label
_atom_site_fract_x
_atom_site_fract_y
_atom_site_fract_z
Si Si1 0.499232 0.872081 0.313194
Si Si2 0.875481 0.301821 0.885901
Si Si3 0.425755 0.105287 0.500000
Si Si4 0.193381 0.360678 0.000000
Si Si5 0.881543 0.709065 0.880546
O O1 0.500000 0.836701 0.250000
O O2 0.604335 0.838956 0.345357
O O3 0.392672 0.844594 0.345743
O O4 0.500000 0.000000 0.313701
O O5 0.794920 0.205081 0.885896
O O6 0.886354 0.355216 0.945955
O O7 0.995136 0.270644 0.869878
O O8 0.514062 0.195558 0.500000
O O9 0.500000 0.000000 0.500000
O O10 0.134991 0.320665 0.055106
O O11 0.306701 0.306701 0.000000
O O12 0.808818 0.808818 0.868154
#
# Coordination Sequence:
#
# PCOD9567009 Si02
#       5
#    16  16   8   8  16
#     4   9  18  34  54  74  97 134 185 226 253 298
#     4  11  21  32  51  82 112 138 171 217 270 316
#     4  12  17  34  55  74 107 143 184 221 255 306
#     4  10  18  30  54  78  99 131 176 218 255 304
#     4  10  19  33  54  78 106 142 177 212 257 316
#
# _framework density 16.347649000000001
#
# number of rings (size 3 to 8) (size 9 to 14) (size 15 to 20)
#    0.000    1.750    5.000    1.125    0.000    1.500 
#    0.000    0.000    0.000    7.500    0.000    8.750 
#    0.000    0.000    0.000    0.000    0.000    0.000 
#
# Total GULP energy -356771.754988 kJ/mol
# GULP energy per Si atom -5574.558672 kJ/mol
# Density = 1.631044 g / cm^3
# Si number density = 16.347649 Si / 1000 Ang^3
#
#
#
# Elastic Constant Matrix: (Units=GPa)
#
#
# Indices 1 2 3 4 5 6 
#
# 1 108.3846 76.8678 42.5839 0.0000 0.0000 0.0000
# 2 76.8678 108.3846 42.5839 0.0000 0.0000 0.0000
# 3 42.5839 42.5839 115.7219 0.0000 0.0000 0.0000
# 4 0.0000 0.0000 0.0000 -0.8190 0.0000 0.0000
# 5 0.0000 0.0000 0.0000 0.0000 -0.8190 0.0000
# 6 0.0000 0.0000 0.0000 0.0000 0.0000 21.2780
#
#
#
# Elastic Compliance Matrix: (Units=1/GPa)
#
#
# Indices 1 2 3 4 5 6 
#
# 1 0.019113 -0.012616 -0.002391 0.000000 0.000000 0.000000
# 2 -0.012616 0.019113 -0.002391 0.000000 0.000000 0.000000
# 3 -0.002391 -0.002391 0.010401 0.000000 0.000000 0.000000
# 4 0.000000 0.000000 0.000000 -1.221025 0.000000 0.000000
# 5 0.000000 0.000000 0.000000 0.000000 -1.221025 0.000000
# 6 0.000000 0.000000 0.000000 0.000000 0.000000 0.046997
#
#
# Mechanical properties :
#
#
# Convention : Reuss Voigt Hill
#
# Bulk Modulus (GPa) = 72.29638 72.95135 72.62387
# Shear Modulus (GPa) = -2.16730 15.29171 6.56220
#
# Velocity S-wave (km/s) = -1.15266 3.06176 2.00571
# Velocity P-wave (km/s) = 6.52295 7.56446 7.06293
#
# Compressibility (1/GPa) = 0.01383195
#
# Stress axis : x y z
#
# Youngs Moduli (GPa) = 52.32002 52.32002 96.14442
#
# Poissons Ratio (x) = 0.66007 0.22987
# Poissons Ratio (y) = 0.66007 0.22987
# Poissons Ratio (z) = 0.12509 0.12509
#
# Static dielectric constant tensor:
#      x y z
#    x 1.547560 0.000000 0.000000 
#    y 0.000000 1.547560 0.000000 
#    z 0.000000 0.000000 1.565850 
# 
# From -- ./inp_files/8744.got.cif
#   From: 2010.05.17/outbox.cif.g08.bks.cpg/sg132_5_cif.got.tgz:8744.got - 2010.05.20 12:30:18.
