data_PCOD9567710
_publ_section_title
;
Structure prediction by ZEFSAII (Michael W. Deem and Ramdas Pophale) SiO2 
 PCOD9567710
Probable space group: P 42/N B C
;
_chemical_formula_sum "Si O2"
_cell_formula_units_Z 64
_cell_length_a 10.137282
_cell_length_b 10.137282
_cell_length_c 25.510034
_cell_angle_alpha 90.000000
_cell_angle_beta 90.000000
_cell_angle_gamma 90.000000
_cell_volume 2621.525541
_symmetry_space_group_name_H-M "P 42/N B C"
_symmetry_group_IT_number 133
_space_group.IT_coordinate_system_code '2'
_symmetry_cell_setting 'tetragonal'
loop_
_space_group_symop_operation_xyz
x,y,z
1/2-y,x,1/2+z
1/2-x,1/2-y,z
y,1/2-x,1/2+z
x,1/2-y,-z
1/2-x,y,-z
y,x,1/2-z
1/2-y,1/2-x,1/2-z
-x,-y,-z
1/2+y,-x,1/2-z
1/2+x,1/2+y,-z
-y,1/2+x,1/2-z
-x,1/2+y,z
1/2+x,-y,z
-y,-x,1/2+z
1/2+y,1/2+x,1/2+z
loop_
_atom_site_type_symbol
_atom_site_label
_atom_site_fract_x
_atom_site_fract_y
_atom_site_fract_z
Si Si1 0.750000 0.250000 0.250000
Si Si2 0.650720 0.483449 0.819386
Si Si3 0.101639 0.539385 0.111588
Si Si4 0.235139 0.059421 0.583857
Si Si5 0.750000 0.750000 0.318137
Si Si6 0.750000 0.750000 0.000000
O O1 0.666452 0.146788 0.215247
O O2 0.504081 0.515653 0.840234
O O3 0.720966 0.609809 0.791912
O O4 0.749158 0.466744 0.868753
O O5 0.072510 0.683432 0.089109
O O6 0.064744 0.420078 0.072292
O O7 0.237125 0.128653 0.640947
O O8 0.312128 0.149579 0.541988
#
# Coordination Sequence:
#
# PCOD9567710 Si02
#       6
#     4  16  16  16   8   4
#     4  12  24  36  56  92 120 134 184 272 292 296
#     4  10  21  38  60  84 112 148 193 235 287 339
#     4  10  20  40  62  82 112 158 194 224 282 358
#     4   9  18  33  59  84 113 149 188 230 274 333
#     4   7  16  37  58  72 104 160 188 201 270 372
#     4  10  20  36  56  90 124 154 188 226 284 344
#
# _framework density 24.413267000000001
#
# number of rings (size 3 to 8) (size 9 to 14) (size 15 to 20)
#    0.000    2.500    0.000    3.000    0.000    2.000 
#    0.000    2.500    0.000    3.000    0.000    0.000 
#    0.000    0.000    0.000    0.000    0.000    0.000 
#
# Total GULP energy -356555.407918 kJ/mol
# GULP energy per Si atom -5571.178249 kJ/mol
# Density = 2.435770 g / cm^3
# Si number density = 24.413267 Si / 1000 Ang^3
#
#
#
# Elastic Constant Matrix: (Units=GPa)
#
#
# Indices 1 2 3 4 5 6 
#
# 1 75.7509 -12.3626 14.6437 0.0000 0.0000 0.0000
# 2 -12.3626 75.7509 14.6437 0.0000 0.0000 0.0000
# 3 14.6437 14.6437 56.8193 0.0000 0.0000 0.0000
# 4 0.0000 0.0000 0.0000 10.3499 0.0000 0.0000
# 5 0.0000 0.0000 0.0000 0.0000 10.3499 0.0000
# 6 0.0000 0.0000 0.0000 0.0000 0.0000 37.8015
#
#
#
# Elastic Compliance Matrix: (Units=1/GPa)
#
#
# Indices 1 2 3 4 5 6 
#
# 1 0.014629 0.003280 -0.004615 0.000000 0.000000 0.000000
# 2 0.003280 0.014629 -0.004615 0.000000 0.000000 0.000000
# 3 -0.004615 -0.004615 0.019979 0.000000 0.000000 0.000000
# 4 0.000000 0.000000 0.000000 0.096619 0.000000 0.000000
# 5 0.000000 0.000000 0.000000 0.000000 0.096619 0.000000
# 6 0.000000 0.000000 0.000000 0.000000 0.000000 0.026454
#
#
# Mechanical properties :
#
#
# Convention : Reuss Voigt Hill
#
# Bulk Modulus (GPa) = 26.78554 26.90786 26.84670
# Shear Modulus (GPa) = 17.04884 24.46002 20.75443
#
# Velocity S-wave (km/s) = 2.64549 3.16874 2.91886
# Velocity P-wave (km/s) = 4.50855 4.94304 4.73078
#
# Compressibility (1/GPa) = 0.03733358
#
# Stress axis : x y z
#
# Youngs Moduli (GPa) = 68.35919 68.35919 50.05341
#
# Poissons Ratio (x) = -0.22419 0.23102
# Poissons Ratio (y) = -0.22419 0.23102
# Poissons Ratio (z) = 0.31550 0.31550
#
# Static dielectric constant tensor:
#      x y z
#    x 2.015890 0.000000 0.000000 
#    y 0.000000 2.015890 0.000000 
#    z 0.000000 0.000000 1.984730 
# 
# From -- ./inp_files/7485.got.cif
#   From: 2010.05.17/outbox.cif.g08.bks.cpg/sg133_4_cif.got.tgz:7485.got - 2010.05.20 12:37:36.
