data_PCOD9567983
_publ_section_title
;
Structure prediction by ZEFSAII (Michael W. Deem and Ramdas Pophale) SiO2 
 PCOD9567983
Probable space group: P 42/N B C
;
_chemical_formula_sum "Si O2"
_cell_formula_units_Z 112
_cell_length_a 14.198459
_cell_length_b 14.198459
_cell_length_c 24.542988
_cell_angle_alpha 90.000000
_cell_angle_beta 90.000000
_cell_angle_gamma 90.000000
_cell_volume 4947.774049
_symmetry_space_group_name_H-M "P 42/N B C"
_symmetry_group_IT_number 133
_space_group.IT_coordinate_system_code '2'
_symmetry_cell_setting 'tetragonal'
loop_
_space_group_symop_operation_xyz
x,y,z
1/2-y,x,1/2+z
1/2-x,1/2-y,z
y,1/2-x,1/2+z
x,1/2-y,-z
1/2-x,y,-z
y,x,1/2-z
1/2-y,1/2-x,1/2-z
-x,-y,-z
1/2+y,-x,1/2-z
1/2+x,1/2+y,-z
-y,1/2+x,1/2-z
-x,1/2+y,z
1/2+x,-y,z
-y,-x,1/2+z
1/2+y,1/2+x,1/2+z
loop_
_atom_site_type_symbol
_atom_site_label
_atom_site_fract_x
_atom_site_fract_y
_atom_site_fract_z
Si Si1 0.100195 0.244988 0.272309
Si Si2 0.696602 0.448127 0.621434
Si Si3 0.608068 0.241998 0.229619
Si Si4 0.901331 0.493147 0.578042
Si Si5 0.861292 0.147306 0.514808
Si Si6 0.887208 0.568249 0.127669
Si Si7 0.138952 0.140849 0.003711
O O1 0.152105 0.152105 0.250000
O O2 0.171535 0.328466 0.250000
O O3 0.079574 0.208029 0.335730
O O4 0.999417 0.270660 0.247054
O O5 0.725196 0.377615 0.668092
O O6 0.794789 0.488829 0.599466
O O7 0.638000 0.393850 0.575307
O O8 0.638968 0.532326 0.648528
O O9 0.650749 0.328548 0.263178
O O10 0.906653 0.426232 0.525537
O O11 0.913393 0.594243 0.548412
O O12 0.968689 0.443150 0.622246
O O13 0.900092 0.250000 0.500000
O O14 0.750000 0.150523 0.500000
O O15 0.879382 0.601846 0.064346
O O16 0.103789 0.250000 0.000000
O O17 0.250000 0.142625 0.000000
#
# Coordination Sequence:
#
# PCOD9567983 Si02
#       7
#    16  16  16  16  16  16  16
#     4  11  26  49  74 107 145 194 255 321 381 462
#     4  11  22  43  70  96 143 192 234 310 381 444
#     4  11  26  49  75 105 143 187 255 319 377 447
#     4  11  22  42  67 101 145 186 240 307 370 464
#     4   9  19  35  63  97 137 184 233 282 362 452
#     4  12  24  44  70 100 143 193 247 303 388 447
#     4  11  23  41  67 102 150 194 242 300 380 465
#
# _framework density 22.636443
#
# number of rings (size 3 to 8) (size 9 to 14) (size 15 to 20)
#    0.000    1.143    4.286    1.714    0.000   10.286 
#    5.143    0.000    0.000    0.000    0.000    0.000 
#    0.000    0.000    0.000    0.000    0.000    0.000 
#
# Total GULP energy -624358.886761 kJ/mol
# GULP energy per Si atom -5574.632918 kJ/mol
# Density = 2.258492 g / cm^3
# Si number density = 22.636443 Si / 1000 Ang^3
#
#
#
# Elastic Constant Matrix: (Units=GPa)
#
#
# Indices 1 2 3 4 5 6 
#
# 1 118.8367 29.3879 28.1398 0.0000 0.0000 0.0000
# 2 29.3879 118.8377 28.1397 0.0000 0.0000 0.0000
# 3 28.1398 28.1397 89.5420 0.0000 0.0000 0.0000
# 4 0.0000 0.0000 0.0000 -12.4089 0.0000 0.0000
# 5 0.0000 0.0000 0.0000 0.0000 -12.4111 0.0000
# 6 0.0000 0.0000 0.0000 0.0000 0.0000 12.6853
#
#
#
# Elastic Compliance Matrix: (Units=1/GPa)
#
#
# Indices 1 2 3 4 5 6 
#
# 1 0.009420 -0.001759 -0.002407 0.000000 0.000000 0.000000
# 2 -0.001759 0.009420 -0.002407 0.000000 0.000000 0.000000
# 3 -0.002407 -0.002407 0.012681 0.000000 0.000000 0.000000
# 4 0.000000 0.000000 0.000000 -0.080587 0.000000 0.000000
# 5 0.000000 0.000000 0.000000 0.000000 -0.080573 0.000000
# 6 0.000000 0.000000 0.000000 0.000000 0.000000 0.078832
#
#
# Mechanical properties :
#
#
# Convention : Reuss Voigt Hill
#
# Bulk Modulus (GPa) = 54.42923 55.39459 54.91191
# Shear Modulus (GPa) = -158.55628 13.67631 -72.43999
#
# Velocity S-wave (km/s) = -8.37835 2.46066 -5.66312
# Velocity P-wave (km/s) = 8.33658 5.70944 4.29540
#
# Compressibility (1/GPa) = 0.01837248
#
# Stress axis : x y z
#
# Youngs Moduli (GPa) = 106.15610 106.15710 78.85758
#
# Poissons Ratio (x) = 0.18678 0.18985
# Poissons Ratio (y) = 0.18678 0.18984
# Poissons Ratio (z) = 0.25557 0.25556
#
# Static dielectric constant tensor:
#      x y z
#    x 1.895320 0.000000 0.000000 
#    y 0.000000 1.895320 0.000000 
#    z 0.000000 0.000000 1.930260 
# 
# From -- ./inp_files/7231.got.cif
#   From: 2010.05.17/outbox.cif.g08.bks.cpg/sg133_4_cif.got.tgz:7231.got - 2010.05.20 12:37:36.
