data_PCOD9567189
_publ_section_title
;
Structure prediction by ZEFSAII (Michael W. Deem and Ramdas Pophale) SiO2 
 PCOD9567189
Probable space group: P 42/M C M
;
_chemical_formula_sum "Si O2"
_cell_formula_units_Z 104
_cell_length_a 18.249411
_cell_length_b 18.249411
_cell_length_c 18.640518
_cell_angle_alpha 90.000000
_cell_angle_beta 90.000000
_cell_angle_gamma 90.000000
_cell_volume 6208.056790
_symmetry_space_group_name_H-M "P 42/M C M"
_symmetry_group_IT_number 132
_symmetry_cell_setting 'tetragonal'
loop_
_space_group_symop_operation_xyz
x,y,z
-y,x,1/2+z
-x,-y,z
y,-x,1/2+z
x,-y,1/2-z
-x,y,1/2-z
y,x,-z
-y,-x,-z
-x,-y,-z
y,-x,1/2-z
x,y,-z
-y,x,1/2-z
-x,y,1/2+z
x,-y,1/2+z
-y,-x,z
y,x,z
loop_
_atom_site_type_symbol
_atom_site_label
_atom_site_fract_x
_atom_site_fract_y
_atom_site_fract_z
Si Si1 0.162178 0.037498 0.173285
Si Si2 0.324710 0.085718 0.856282
Si Si3 0.366183 0.242662 0.919204
Si Si4 0.958641 0.422065 0.917332
Si Si5 0.937060 0.937060 0.418928
Si Si6 0.419611 0.296876 0.772780
Si Si7 0.134455 0.583077 0.777519
O O1 0.100295 0.100295 0.177949
O O2 0.238504 0.072275 0.149247
O O3 0.172086 0.000000 0.250000
O O4 0.130769 0.974391 0.121321
O O5 0.343884 0.160966 0.896889
O O6 0.361989 0.093479 0.777351
O O7 0.361409 0.019111 0.898541
O O8 0.294513 0.294513 0.917519
O O9 0.418311 0.273577 0.856775
O O10 0.396272 0.244174 0.000000
O O11 0.895652 0.413731 0.857915
O O12 0.000000 0.500000 0.907783
O O13 0.934237 0.417333 0.000000
O O14 0.918129 0.918129 0.500000
O O15 0.000000 0.000000 0.419711
O O16 0.500000 0.322244 0.750000
O O17 0.357790 0.357790 0.761447
O O18 0.402661 0.221238 0.730682
O O19 0.121774 0.500000 0.750000
#
# Coordination Sequence:
#
# PCOD9567189 Si02
#       7
#    16  16  16  16   8  16  16
#     4  11  21  36  57  78 102 137 181 226 271 322
#     4  11  21  33  54  83 107 136 179 225 272 321
#     4   9  18  34  55  81 113 142 172 222 282 330
#     4  11  22  34  52  79 109 143 179 220 268 319
#     4   9  20  36  54  74 100 136 174 216 270 322
#     4   9  19  35  57  85 111 145 184 220 268 324
#     4  10  19  36  55  76 110 145 177 217 269 325
#
# _framework density 16.752423
#
# number of rings (size 3 to 8) (size 9 to 14) (size 15 to 20)
#    0.000    1.923    2.308    2.308    0.000    2.000 
#    0.000    1.538    0.000    1.846    0.000    2.154 
#    0.000    0.000    0.000    0.000    0.000    0.000 
#
# Total GULP energy -580321.036384 kJ/mol
# GULP energy per Si atom -5580.009965 kJ/mol
# Density = 1.671429 g / cm^3
# Si number density = 16.752423 Si / 1000 Ang^3
#
#
#
# Elastic Constant Matrix: (Units=GPa)
#
#
# Indices 1 2 3 4 5 6 
#
# 1 77.1891 18.5237 40.1280 0.0000 0.0000 0.0000
# 2 18.5237 77.1891 40.1280 0.0000 0.0000 0.0000
# 3 40.1280 40.1280 136.4825 0.0000 0.0000 0.0000
# 4 0.0000 0.0000 0.0000 15.2361 0.0000 0.0000
# 5 0.0000 0.0000 0.0000 0.0000 15.2361 0.0000
# 6 0.0000 0.0000 0.0000 0.0000 0.0000 16.4767
#
#
#
# Elastic Compliance Matrix: (Units=1/GPa)
#
#
# Indices 1 2 3 4 5 6 
#
# 1 0.015456 -0.001590 -0.004077 0.000000 0.000000 0.000000
# 2 -0.001590 0.015456 -0.004077 0.000000 0.000000 0.000000
# 3 -0.004077 -0.004077 0.009724 0.000000 0.000000 0.000000
# 4 0.000000 0.000000 0.000000 0.065634 0.000000 0.000000
# 5 0.000000 0.000000 0.000000 0.000000 0.065634 0.000000
# 6 0.000000 0.000000 0.000000 0.000000 0.000000 0.060692
#
#
# Mechanical properties :
#
#
# Convention : Reuss Voigt Hill
#
# Bulk Modulus (GPa) = 47.28253 54.26888 50.77570
# Shear Modulus (GPa) = 19.29513 22.19518 20.74516
#
# Velocity S-wave (km/s) = 3.39747 3.64386 3.52282
# Velocity P-wave (km/s) = 6.60878 7.08298 6.84998
#
# Compressibility (1/GPa) = 0.02114946
#
# Stress axis : x y z
#
# Youngs Moduli (GPa) = 64.69918 64.69918 102.83488
#
# Poissons Ratio (x) = 0.10285 0.41925
# Poissons Ratio (y) = 0.10285 0.41925
# Poissons Ratio (z) = 0.26378 0.26378
#
# Static dielectric constant tensor:
#      x y z
#    x 1.549910 0.000000 0.000000 
#    y 0.000000 1.549910 0.000000 
#    z 0.000000 0.000000 1.574010 
# 
# From -- ./inp_files/6542.got.cif
#   From: 2010.05.17/outbox.cif.g08.bks.cpg/sg132_4_cif.got.tgz:6542.got - 2010.05.20 12:30:18.
