data_PCOD9567477
_publ_section_title
;
Structure prediction by ZEFSAII (Michael W. Deem and Ramdas Pophale) SiO2 
 PCOD9567477
Probable space group: P 42/M C M
;
_chemical_formula_sum "Si O2"
_cell_formula_units_Z 96
_cell_length_a 15.414138
_cell_length_b 15.414138
_cell_length_c 20.540240
_cell_angle_alpha 90.000000
_cell_angle_beta 90.000000
_cell_angle_gamma 90.000000
_cell_volume 4880.271680
_symmetry_space_group_name_H-M "P 42/M C M"
_symmetry_group_IT_number 132
_symmetry_cell_setting 'tetragonal'
loop_
_space_group_symop_operation_xyz
x,y,z
-y,x,1/2+z
-x,-y,z
y,-x,1/2+z
x,-y,1/2-z
-x,y,1/2-z
y,x,-z
-y,-x,-z
-x,-y,-z
y,-x,1/2-z
x,y,-z
-y,x,1/2-z
-x,y,1/2+z
x,-y,1/2+z
-y,-x,z
y,x,z
loop_
_atom_site_type_symbol
_atom_site_label
_atom_site_fract_x
_atom_site_fract_y
_atom_site_fract_z
Si Si1 0.597501 0.597501 0.077286
Si Si2 0.132751 0.634247 0.340681
Si Si3 0.019539 0.601160 0.068627
Si Si4 0.254586 0.254586 0.072820
Si Si5 0.239500 0.099210 0.730828
Si Si6 0.280655 0.489992 0.327050
Si Si7 0.808939 0.675183 0.614229
O O1 0.671284 0.671284 0.071491
O O2 0.644243 0.523381 0.122422
O O3 0.575538 0.575538 0.000000
O O4 0.176727 0.703620 0.388037
O O5 0.128420 0.675636 0.270283
O O6 0.195556 0.551090 0.338700
O O7 0.036359 0.624490 0.368308
O O8 0.121253 0.620374 0.074156
O O9 0.000000 0.500000 0.064171
O O10 0.987800 0.641464 0.000000
O O11 0.230900 0.230900 0.000000
O O12 0.158102 0.158102 0.750744
O O13 0.264554 0.127691 0.658161
O O14 0.223473 0.000000 0.750000
O O15 0.305065 0.500000 0.250000
O O16 0.248856 0.393481 0.344840
O O17 0.740548 0.740548 0.581311
#
# Coordination Sequence:
#
# PCOD9567477 Si02
#       7
#     8  16  16   8  16  16  16
#     4   9  22  40  61  90 129 171 216 262 316 383
#     4  11  19  34  58  88 119 152 196 258 309 369
#     4  11  23  38  58  87 119 160 208 254 314 394
#     4   9  18  32  54  85 119 153 189 243 305 360
#     4  11  22  37  60  87 121 158 205 256 320 382
#     4  11  22  36  63  96 126 164 214 268 324 382
#     4  11  24  39  60  89 124 163 206 261 327 384
#
# _framework density 19.671036000000001
#
# number of rings (size 3 to 8) (size 9 to 14) (size 15 to 20)
#    0.000    1.333    5.833    0.500    1.167    1.833 
#    0.000    2.917    0.000    0.500    0.000    0.000 
#    0.000    5.333    0.000    0.000    0.000    0.000 
#
# Total GULP energy -534655.511057 kJ/mol
# GULP energy per Si atom -5569.328240 kJ/mol
# Density = 1.962626 g / cm^3
# Si number density = 19.671036 Si / 1000 Ang^3
#
#
#
# Elastic Constant Matrix: (Units=GPa)
#
#
# Indices 1 2 3 4 5 6 
#
# 1 7.7320 126.0647 16.9641 0.0000 0.0000 0.0000
# 2 126.0647 7.7320 16.9641 0.0000 0.0000 0.0000
# 3 16.9641 16.9641 88.3716 0.0000 0.0000 0.0000
# 4 0.0000 0.0000 0.0000 71.6186 0.0000 0.0000
# 5 0.0000 0.0000 0.0000 0.0000 71.6186 0.0000
# 6 0.0000 0.0000 0.0000 0.0000 0.0000 34.7351
#
#
#
# Elastic Compliance Matrix: (Units=1/GPa)
#
#
# Indices 1 2 3 4 5 6 
#
# 1 -0.000297 0.008154 -0.001508 0.000000 0.000000 0.000000
# 2 0.008154 -0.000297 -0.001508 0.000000 0.000000 0.000000
# 3 -0.001508 -0.001508 0.011895 0.000000 0.000000 0.000000
# 4 0.000000 0.000000 0.000000 0.013963 0.000000 0.000000
# 5 0.000000 0.000000 0.000000 0.000000 0.013963 0.000000
# 6 0.000000 0.000000 0.000000 0.000000 0.000000 0.028789
#
#
# Mechanical properties :
#
#
# Convention : Reuss Voigt Hill
#
# Bulk Modulus (GPa) = 46.34950 47.09123 46.72037
# Shear Modulus (GPa) = 77.00277 31.85063 54.42670
#
# Velocity S-wave (km/s) = 6.26340 4.02825 5.26579
# Velocity P-wave (km/s) = 8.71323 6.75478 7.79575
#
# Compressibility (1/GPa) = 0.02157521
#
# Stress axis : x y z
#
# Youngs Moduli (GPa) = -3365.40142 -3365.40142 84.06984
#
# Poissons Ratio (x) = 27.44016 0.12679
# Poissons Ratio (y) = 27.44016 0.12679
# Poissons Ratio (z) = -5.07553 -5.07553
#
# Static dielectric constant tensor:
#      x y z
#    x 1.687170 0.000000 0.000000 
#    y 0.000000 1.687170 0.000000 
#    z 0.000000 0.000000 1.748630 
# 
# From -- ./inp_files/7959.got.cif
#   From: 2010.05.17/outbox.cif.g08.bks.cpg/sg132_4_cif.got.tgz:7959.got - 2010.05.20 12:30:18.
