data_PCOD9567484
_publ_section_title
;
Structure prediction by ZEFSAII (Michael W. Deem and Ramdas Pophale) SiO2 
 PCOD9567484
Probable space group: P 42/M C M
;
_chemical_formula_sum "Si O2"
_cell_formula_units_Z 88
_cell_length_a 18.133936
_cell_length_b 18.133936
_cell_length_c 16.587931
_cell_angle_alpha 90.000000
_cell_angle_beta 90.000000
_cell_angle_gamma 90.000000
_cell_volume 5454.769173
_symmetry_space_group_name_H-M "P 42/M C M"
_symmetry_group_IT_number 132
_symmetry_cell_setting 'tetragonal'
loop_
_space_group_symop_operation_xyz
x,y,z
-y,x,1/2+z
-x,-y,z
y,-x,1/2+z
x,-y,1/2-z
-x,y,1/2-z
y,x,-z
-y,-x,-z
-x,-y,-z
y,-x,1/2-z
x,y,-z
-y,x,1/2-z
-x,y,1/2+z
x,-y,1/2+z
-y,-x,z
y,x,z
loop_
_atom_site_type_symbol
_atom_site_label
_atom_site_fract_x
_atom_site_fract_y
_atom_site_fract_z
Si Si1 0.420086 0.087608 0.096943
Si Si2 0.939110 0.060891 0.591894
Si Si3 0.278953 0.841636 0.642040
Si Si4 0.731925 0.852494 0.665995
Si Si5 0.082164 0.410014 0.402439
Si Si6 0.210253 0.004328 0.905164
O O1 0.366114 0.152777 0.124804
O O2 0.505394 0.098455 0.120256
O O3 0.397002 0.003898 0.123673
O O4 0.418145 0.085235 0.000000
O O5 0.916424 0.083577 0.500000
O O6 0.973884 0.131547 0.631137
O O7 0.000000 0.000000 0.584844
O O8 0.227217 0.772784 0.614786
O O9 0.269354 0.847843 0.737754
O O10 0.252849 0.918500 0.602163
O O11 0.785704 0.785704 0.636941
O O12 0.648416 0.860021 0.632986
O O13 0.762777 0.931907 0.639256
O O14 0.082990 0.403399 0.500000
O O15 0.205762 0.984523 0.000000
#
# Coordination Sequence:
#
# PCOD9567484 Si02
#       6
#    16   8  16  16  16  16
#     4   9  18  33  53  75  96 121 160 206 246 289
#     4   9  18  30  44  60  76 106 159 211 246 278
#     4  11  22  34  48  69 101 129 160 199 243 291
#     4  11  23  34  47  69 100 130 160 199 243 291
#     4   9  18  33  53  75  96 121 160 206 246 289
#     4  11  20  32  48  64  87 122 166 209 243 280
#
# _framework density 16.132670999999998
#
# number of rings (size 3 to 8) (size 9 to 14) (size 15 to 20)
#    0.000    1.909    2.727    3.273    0.000    4.000 
#    0.000    1.818    0.000    0.000    0.000    0.000 
#    0.000    0.727    0.000    8.000    0.000    5.818 
#
# Total GULP energy -490041.065753 kJ/mol
# GULP energy per Si atom -5568.648474 kJ/mol
# Density = 1.609595 g / cm^3
# Si number density = 16.132671 Si / 1000 Ang^3
#
#
#
# Elastic Constant Matrix: (Units=GPa)
#
#
# Indices 1 2 3 4 5 6 
#
# 1 90.5278 68.8681 14.2982 0.0000 0.0000 0.0000
# 2 68.8681 90.5273 14.2979 0.0000 0.0000 0.0000
# 3 14.2982 14.2979 24.6968 0.0000 0.0000 0.0000
# 4 0.0000 0.0000 0.0000 19.2311 0.0000 0.0000
# 5 0.0000 0.0000 0.0000 0.0000 19.2311 0.0000
# 6 0.0000 0.0000 0.0000 0.0000 0.0000 19.3665
#
#
#
# Elastic Compliance Matrix: (Units=1/GPa)
#
#
# Indices 1 2 3 4 5 6 
#
# 1 0.026585 -0.019584 -0.004053 0.000000 0.000000 0.000000
# 2 -0.019584 0.026585 -0.004053 0.000000 0.000000 0.000000
# 3 -0.004053 -0.004053 0.045184 0.000000 0.000000 0.000000
# 4 0.000000 0.000000 0.000000 0.051999 0.000000 0.000000
# 5 0.000000 0.000000 0.000000 0.000000 0.051999 0.000000
# 6 0.000000 0.000000 0.000000 0.000000 0.000000 0.051636
#
#
# Mechanical properties :
#
#
# Convention : Reuss Voigt Hill
#
# Bulk Modulus (GPa) = 23.27022 44.52003 33.89513
# Shear Modulus (GPa) = 15.44675 18.78493 17.11584
#
# Velocity S-wave (km/s) = 3.09768 3.41604 3.26075
# Velocity P-wave (km/s) = 5.22013 6.57383 5.93569
#
# Compressibility (1/GPa) = 0.04297337
#
# Stress axis : x y z
#
# Youngs Moduli (GPa) = 37.61520 37.61520 22.13172
#
# Poissons Ratio (x) = 0.73666 0.08971
# Poissons Ratio (y) = 0.73666 0.08969
# Poissons Ratio (z) = 0.15247 0.15244
#
# Static dielectric constant tensor:
#      x y z
#    x 1.583180 0.000000 0.000000 
#    y 0.000000 1.583180 0.000000 
#    z 0.000000 0.000000 1.573260 
# 
# From -- ./inp_files/4762.got.cif
#   From: 2010.05.17/outbox.cif.g08.bks.cpg/sg132_3_cif.got.tgz:4762.got - 2010.05.20 12:30:18.
