data_PCOD9567021
_publ_section_title
;
Structure prediction by ZEFSAII (Michael W. Deem and Ramdas Pophale) SiO2 
 PCOD9567021
Probable space group: P 42/M C M
;
_chemical_formula_sum "Si O2"
_cell_formula_units_Z 112
_cell_length_a 15.458808
_cell_length_b 15.458808
_cell_length_c 26.367994
_cell_angle_alpha 90.000000
_cell_angle_beta 90.000000
_cell_angle_gamma 90.000000
_cell_volume 6301.284637
_symmetry_space_group_name_H-M "P 42/M C M"
_symmetry_group_IT_number 132
_symmetry_cell_setting 'tetragonal'
loop_
_space_group_symop_operation_xyz
x,y,z
-y,x,1/2+z
-x,-y,z
y,-x,1/2+z
x,-y,1/2-z
-x,y,1/2-z
y,x,-z
-y,-x,-z
-x,-y,-z
y,-x,1/2-z
x,y,-z
-y,x,1/2-z
-x,y,1/2+z
x,-y,1/2+z
-y,-x,z
y,x,z
loop_
_atom_site_type_symbol
_atom_site_label
_atom_site_fract_x
_atom_site_fract_y
_atom_site_fract_z
Si Si1 0.670218 0.464832 0.695293
Si Si2 0.265008 0.120296 0.500000
Si Si3 0.550769 0.220341 0.110191
Si Si4 0.924677 0.309846 0.894027
Si Si5 0.222298 0.919535 0.211564
Si Si6 0.183697 0.679025 0.711205
Si Si7 0.063629 0.430539 0.143198
Si Si8 0.738013 0.409022 0.000000
O O1 0.642954 0.500000 0.750000
O O2 0.591567 0.408434 0.672841
O O3 0.710738 0.532284 0.655075
O O4 0.746818 0.397554 0.709853
O O5 0.192509 0.192509 0.500000
O O6 0.260927 0.071516 0.447063
O O7 0.356696 0.171067 0.500000
O O8 0.642489 0.169040 0.112577
O O9 0.480583 0.143913 0.118444
O O10 0.542756 0.261699 0.054159
O O11 0.940024 0.250057 0.845450
O O12 0.998176 0.383479 0.894669
O O13 0.133227 0.866774 0.212137
O O14 0.295295 0.855013 0.234623
O O15 0.217913 0.000000 0.250000
O O16 0.235357 0.764644 0.692320
O O17 0.104785 0.642422 0.678605
O O18 0.000000 0.500000 0.170734
O O19 0.660692 0.339309 0.000000
#
# Coordination Sequence:
#
# PCOD9567021 Si02
#       8
#    16   8  16  16  16  16  16   8
#     4  10  20  34  51  72 100 135 176 219 265 315
#     4   9  18  31  49  74 103 137 174 213 258 314
#     4   9  19  33  52  76 103 134 173 214 268 319
#     4  10  18  32  51  77 107 135 171 213 268 316
#     4  11  21  33  51  75 105 138 174 211 254 310
#     4   9  18  33  50  72 104 141 173 208 260 326
#     4   9  17  30  50  79 106 132 167 218 271 312
#     4   9  18  33  52  73 101 137 173 216 261 319
#
# _framework density 17.774153999999999
#
# number of rings (size 3 to 8) (size 9 to 14) (size 15 to 20)
#    0.000    2.429    1.429    1.286    0.000    2.000 
#    0.000    5.357    0.000    0.429    0.000    3.000 
#    0.000    3.429    0.000    0.000    0.000    0.000 
#
# Total GULP energy -623567.811054 kJ/mol
# GULP energy per Si atom -5567.569742 kJ/mol
# Density = 1.773370 g / cm^3
# Si number density = 17.774154 Si / 1000 Ang^3
#
#
#
# Elastic Constant Matrix: (Units=GPa)
#
#
# Indices 1 2 3 4 5 6 
#
# 1 44.2115 21.3485 37.6371 0.0000 0.0000 0.0000
# 2 21.3485 44.2126 37.6374 0.0000 0.0000 0.0000
# 3 37.6371 37.6374 139.8203 0.0000 0.0000 0.0000
# 4 0.0000 0.0000 0.0000 15.2561 0.0000 0.0000
# 5 0.0000 0.0000 0.0000 0.0000 15.2560 0.0000
# 6 0.0000 0.0000 0.0000 0.0000 0.0000 14.2850
#
#
#
# Elastic Compliance Matrix: (Units=1/GPa)
#
#
# Indices 1 2 3 4 5 6 
#
# 1 0.032907 -0.010831 -0.005943 0.000000 0.000000 0.000000
# 2 -0.010831 0.032907 -0.005942 0.000000 0.000000 0.000000
# 3 -0.005943 -0.005942 0.010351 0.000000 0.000000 0.000000
# 4 0.000000 0.000000 0.000000 0.065548 0.000000 0.000000
# 5 0.000000 0.000000 0.000000 0.000000 0.065548 0.000000
# 6 0.000000 0.000000 0.000000 0.000000 0.000000 0.070003
#
#
# Mechanical properties :
#
#
# Convention : Reuss Voigt Hill
#
# Bulk Modulus (GPa) = 32.53786 46.83227 39.68506
# Shear Modulus (GPa) = 15.01771 17.73418 16.37594
#
# Velocity S-wave (km/s) = 2.90990 3.16215 3.03864
# Velocity P-wave (km/s) = 5.44390 6.30380 5.88957
#
# Compressibility (1/GPa) = 0.03073343
#
# Stress axis : x y z
#
# Youngs Moduli (GPa) = 30.38831 30.38912 96.60636
#
# Poissons Ratio (x) = 0.32914 0.57409
# Poissons Ratio (y) = 0.32913 0.57408
# Poissons Ratio (z) = 0.18058 0.18059
#
# Static dielectric constant tensor:
#      x y z
#    x 1.625850 0.000000 0.000000 
#    y 0.000000 1.625850 0.000000 
#    z 0.000000 0.000000 1.605910 
# 
# From -- ./inp_files/10105.got.cif
#   From: 2010.05.17/outbox.cif.g08.bks.cpg/sg132_6_cif.got.tgz:10105.got - 2010.05.20 12:30:18.
