data_PCOD9567792
_publ_section_title
;
Structure prediction by ZEFSAII (Michael W. Deem and Ramdas Pophale) SiO2 
 PCOD9567792
Probable space group: P 42/N B C
;
_chemical_formula_sum "Si O2"
_cell_formula_units_Z 48
_cell_length_a 14.618103
_cell_length_b 14.618103
_cell_length_c 10.347391
_cell_angle_alpha 90.000000
_cell_angle_beta 90.000000
_cell_angle_gamma 90.000000
_cell_volume 2211.122966
_symmetry_space_group_name_H-M "P 42/N B C"
_symmetry_group_IT_number 133
_space_group.IT_coordinate_system_code '2'
_symmetry_cell_setting 'tetragonal'
loop_
_space_group_symop_operation_xyz
x,y,z
1/2-y,x,1/2+z
1/2-x,1/2-y,z
y,1/2-x,1/2+z
x,1/2-y,-z
1/2-x,y,-z
y,x,1/2-z
1/2-y,1/2-x,1/2-z
-x,-y,-z
1/2+y,-x,1/2-z
1/2+x,1/2+y,-z
-y,1/2+x,1/2-z
-x,1/2+y,z
1/2+x,-y,z
-y,-x,1/2+z
1/2+y,1/2+x,1/2+z
loop_
_atom_site_type_symbol
_atom_site_label
_atom_site_fract_x
_atom_site_fract_y
_atom_site_fract_z
Si Si1 0.203273 0.000323 0.686662
Si Si2 0.468616 0.606838 0.694003
Si Si3 0.845466 0.599616 0.954613
O O1 0.136915 0.914047 0.664681
O O2 0.310200 0.979177 0.704084
O O3 0.170734 0.076382 0.584510
O O4 0.177060 0.042328 0.826223
O O5 0.515648 0.515648 0.750000
O O6 0.528193 0.627035 0.566264
O O7 0.750000 0.643586 0.000000
#
# Coordination Sequence:
#
# PCOD9567792 Si02
#       3
#    16  16  16
#     4  10  21  38  62  89 122 163 208 257 318 381
#     4  11  22  38  62  87 123 167 205 258 321 376
#     4   9  19  39  61  86 124 160 201 264 313 374
#
# _framework density 21.708425999999999
#
# number of rings (size 3 to 8) (size 9 to 14) (size 15 to 20)
#    0.000    2.000    3.333    1.000    0.000    2.000 
#    0.000   18.333    0.000    6.000    0.000    0.000 
#    0.000    0.000    0.000    0.000    0.000    0.000 
#
# Total GULP energy -268106.991389 kJ/mol
# GULP energy per Si atom -5585.562321 kJ/mol
# Density = 2.165902 g / cm^3
# Si number density = 21.708426 Si / 1000 Ang^3
#
#
#
# Elastic Constant Matrix: (Units=GPa)
#
#
# Indices 1 2 3 4 5 6 
#
# 1 108.4029 61.1009 26.5972 0.0000 0.0000 0.0000
# 2 61.1009 108.4029 26.5972 0.0000 0.0000 0.0000
# 3 26.5972 26.5972 87.9589 0.0000 0.0000 0.0000
# 4 0.0000 0.0000 0.0000 21.4643 0.0000 0.0000
# 5 0.0000 0.0000 0.0000 0.0000 21.4643 0.0000
# 6 0.0000 0.0000 0.0000 0.0000 0.0000 -7.7375
#
#
#
# Elastic Compliance Matrix: (Units=1/GPa)
#
#
# Indices 1 2 3 4 5 6 
#
# 1 0.013829 -0.007311 -0.001971 0.000000 0.000000 0.000000
# 2 -0.007311 0.013829 -0.001971 0.000000 0.000000 0.000000
# 3 -0.001971 -0.001971 0.012561 0.000000 0.000000 0.000000
# 4 0.000000 0.000000 0.000000 0.046589 0.000000 0.000000
# 5 0.000000 0.000000 0.000000 0.000000 0.046589 0.000000
# 6 0.000000 0.000000 0.000000 0.000000 0.000000 -0.129240
#
#
# Mechanical properties :
#
#
# Convention : Reuss Voigt Hill
#
# Bulk Modulus (GPa) = 56.45482 59.26172 57.85827
# Shear Modulus (GPa) = 153.52404 19.73618 86.63011
#
# Velocity S-wave (km/s) = 8.41870 3.01848 6.32399
# Velocity P-wave (km/s) = 10.98006 6.28542 8.94618
#
# Compressibility (1/GPa) = 0.01771328
#
# Stress axis : x y z
#
# Youngs Moduli (GPa) = 72.30952 72.30952 79.61207
#
# Poissons Ratio (x) = 0.52868 0.15691
# Poissons Ratio (y) = 0.52868 0.15691
# Poissons Ratio (z) = 0.14252 0.14252
#
# Static dielectric constant tensor:
#      x y z
#    x 1.796520 0.000000 0.000000 
#    y 0.000000 1.796520 0.000000 
#    z 0.000000 0.000000 1.795630 
# 
# From -- ./inp_files/2658.got.cif
#   From: 2010.05.17/outbox.cif.g08.bks.cpg/sg133_2_cif.got.tgz:2658.got - 2010.05.20 12:37:36.
