data_PCOD9567573
_publ_section_title
;
Structure prediction by ZEFSAII (Michael W. Deem and Ramdas Pophale) SiO2 
 PCOD9567573
Probable space group: P 42/N B C
;
_chemical_formula_sum "Si O2"
_cell_formula_units_Z 120
_cell_length_a 25.638151
_cell_length_b 25.638151
_cell_length_c 6.938802
_cell_angle_alpha 90.000000
_cell_angle_beta 90.000000
_cell_angle_gamma 90.000000
_cell_volume 4560.977157
_symmetry_space_group_name_H-M "P 42/N B C"
_symmetry_group_IT_number 133
_space_group.IT_coordinate_system_code '2'
_symmetry_cell_setting 'tetragonal'
loop_
_space_group_symop_operation_xyz
x,y,z
1/2-y,x,1/2+z
1/2-x,1/2-y,z
y,1/2-x,1/2+z
x,1/2-y,-z
1/2-x,y,-z
y,x,1/2-z
1/2-y,1/2-x,1/2-z
-x,-y,-z
1/2+y,-x,1/2-z
1/2+x,1/2+y,-z
-y,1/2+x,1/2-z
-x,1/2+y,z
1/2+x,-y,z
-y,-x,1/2+z
1/2+y,1/2+x,1/2+z
loop_
_atom_site_type_symbol
_atom_site_label
_atom_site_fract_x
_atom_site_fract_y
_atom_site_fract_z
Si Si1 0.570179 0.575193 0.962842
Si Si2 0.230692 0.042660 0.779029
Si Si3 0.884244 0.178348 0.651140
Si Si4 0.290764 0.609788 0.292024
Si Si5 0.003947 0.662889 0.148984
Si Si6 0.131038 0.515015 0.099687
Si Si7 0.646141 0.646141 0.750000
Si Si8 0.152432 0.263009 0.275060
O O1 0.553941 0.553941 0.750000
O O2 0.525639 0.619791 0.979559
O O3 0.624903 0.607299 0.917393
O O4 0.584815 0.528249 0.107160
O O5 0.184202 0.002115 0.792220
O O6 0.208132 0.099024 0.726796
O O7 0.283093 0.028428 0.664341
O O8 0.250000 0.045546 0.000000
O O9 0.887968 0.228271 0.792271
O O10 0.897466 0.197464 0.436306
O O11 0.824819 0.159532 0.653196
O O12 0.924766 0.129135 0.670142
O O13 0.317350 0.561158 0.398422
O O14 0.009348 0.641950 0.369017
O O15 0.645126 0.705999 0.818359
O O16 0.152549 0.250000 0.500000
O O17 0.204073 0.295928 0.250000
#
# Coordination Sequence:
#
# PCOD9567573 Si02
#       8
#    16  16  16  16  16  16   8  16
#     4   8  14  25  47  81 107 138 194 256 296 340
#     4   9  14  28  52  76  98 140 196 250 294 347
#     4  10  21  37  60  91 123 158 197 241 299 371
#     4  10  21  37  60  91 123 157 196 240 297 372
#     4   9  14  28  53  83 110 140 200 252 293 355
#     4   9  15  28  54  83 109 143 196 256 296 343
#     4  10  17  30  46  72 106 140 194 246 314 354
#     4  11  22  33  47  71 109 153 197 251 312 369
#
# _framework density 26.310153
#
# number of rings (size 3 to 8) (size 9 to 14) (size 15 to 20)
#    0.400    2.133    2.667    1.800    0.000    1.867 
#    0.000    2.000    0.000    3.200    0.000    0.000 
#    0.000    0.000    0.000    0.000    0.000    0.000 
#
# Total GULP energy -669573.156433 kJ/mol
# GULP energy per Si atom -5579.776304 kJ/mol
# Density = 2.625027 g / cm^3
# Si number density = 26.310153 Si / 1000 Ang^3
#
#
#
# Elastic Constant Matrix: (Units=GPa)
#
#
# Indices 1 2 3 4 5 6 
#
# 1 106.3852 75.9775 31.4840 0.0000 0.0000 0.0000
# 2 75.9775 106.3872 31.4837 0.0000 0.0000 0.0000
# 3 31.4840 31.4837 71.5246 0.0000 0.0000 0.0000
# 4 0.0000 0.0000 0.0000 26.4592 0.0000 0.0000
# 5 0.0000 0.0000 0.0000 0.0000 26.4590 0.0000
# 6 0.0000 0.0000 0.0000 0.0000 0.0000 23.6234
#
#
#
# Elastic Compliance Matrix: (Units=1/GPa)
#
#
# Indices 1 2 3 4 5 6 
#
# 1 0.019676 -0.013209 -0.002847 0.000000 0.000000 0.000000
# 2 -0.013209 0.019676 -0.002846 0.000000 0.000000 0.000000
# 3 -0.002847 -0.002846 0.016487 0.000000 0.000000 0.000000
# 4 0.000000 0.000000 0.000000 0.037794 0.000000 0.000000
# 5 0.000000 0.000000 0.000000 0.000000 0.037794 0.000000
# 6 0.000000 0.000000 0.000000 0.000000 0.000000 0.042331
#
#
# Mechanical properties :
#
#
# Convention : Reuss Voigt Hill
#
# Bulk Modulus (GPa) = 55.44996 62.46525 58.95760
# Shear Modulus (GPa) = 22.98070 24.99844 23.98957
#
# Velocity S-wave (km/s) = 2.95863 3.08578 3.02288
# Velocity P-wave (km/s) = 5.72648 6.04065 5.88566
#
# Compressibility (1/GPa) = 0.01803428
#
# Stress axis : x y z
#
# Youngs Moduli (GPa) = 50.82316 50.82442 60.65363
#
# Poissons Ratio (x) = 0.67136 0.17265
# Poissons Ratio (y) = 0.67135 0.17263
# Poissons Ratio (z) = 0.14467 0.14466
#
# Static dielectric constant tensor:
#      x y z
#    x 2.124470 0.000000 0.000000 
#    y 0.000000 2.124450 0.000000 
#    z 0.000000 0.000000 2.075930 
# 
# From -- ./inp_files/2097.got.cif
#   From: 2010.05.17/outbox.cif.g08.bks.cpg/sg133_2_cif.got.tgz:2097.got - 2010.05.20 12:37:36.
