data_PCOD9567395
_publ_section_title
;
Structure prediction by ZEFSAII (Michael W. Deem and Ramdas Pophale) SiO2 
 PCOD9567395
Probable space group: P 42/M C M
;
_chemical_formula_sum "Si O2"
_cell_formula_units_Z 88
_cell_length_a 17.555658
_cell_length_b 17.555658
_cell_length_c 14.493582
_cell_angle_alpha 90.000000
_cell_angle_beta 90.000000
_cell_angle_gamma 90.000000
_cell_volume 4466.938318
_symmetry_space_group_name_H-M "P 42/M C M"
_symmetry_group_IT_number 132
_symmetry_cell_setting 'tetragonal'
loop_
_space_group_symop_operation_xyz
x,y,z
-y,x,1/2+z
-x,-y,z
y,-x,1/2+z
x,-y,1/2-z
-x,y,1/2-z
y,x,-z
-y,-x,-z
-x,-y,-z
y,-x,1/2-z
x,y,-z
-y,x,1/2-z
-x,y,1/2+z
x,-y,1/2+z
-y,-x,z
y,x,z
loop_
_atom_site_type_symbol
_atom_site_label
_atom_site_fract_x
_atom_site_fract_y
_atom_site_fract_z
Si Si1 0.500000 0.628613 0.750000
Si Si2 0.084443 0.792532 0.891368
Si Si3 0.485506 0.762114 0.606087
Si Si4 0.325574 0.793054 0.690475
Si Si5 0.086789 0.786972 0.390441
Si Si6 0.181119 0.647192 0.104235
O O1 0.573571 0.573571 0.756377
O O2 0.505305 0.685946 0.663367
O O3 0.150807 0.849194 0.853087
O O4 0.109783 0.704207 0.888161
O O5 0.998861 0.800540 0.856690
O O6 0.079643 0.810736 0.000000
O O7 0.472793 0.742066 0.500000
O O8 0.409133 0.795901 0.648837
O O9 0.555847 0.821395 0.609440
O O10 0.276735 0.723266 0.649354
O O11 0.277693 0.868500 0.666363
O O12 0.332972 0.778672 0.799678
O O13 0.085831 0.765718 0.500000
O O14 0.136905 0.863096 0.382748
O O15 0.212803 0.662949 0.000000
#
# Coordination Sequence:
#
# PCOD9567395 Si02
#       6
#     8  16  16  16  16  16
#     4  11  24  40  58  86 121 154 194 242 295 360
#     4   9  18  34  57  86 121 160 202 248 298 355
#     4  11  23  40  62  87 118 156 198 246 300 354
#     4  11  21  36  60  87 117 155 201 249 297 358
#     4   9  19  35  56  87 125 162 200 244 297 358
#     4  10  21  37  58  85 114 149 199 252 301 353
#
# _framework density 19.700294
#
# number of rings (size 3 to 8) (size 9 to 14) (size 15 to 20)
#    0.000    1.909    1.818    1.636    0.000    5.455 
#    0.000    7.273    0.000    6.545    0.000    2.545 
#    0.000    0.000    0.000    0.000    0.000    0.000 
#
# Total GULP energy -490164.070991 kJ/mol
# GULP energy per Si atom -5570.046261 kJ/mol
# Density = 1.965546 g / cm^3
# Si number density = 19.700294 Si / 1000 Ang^3
#
#
#
# Elastic Constant Matrix: (Units=GPa)
#
#
# Indices 1 2 3 4 5 6 
#
# 1 114.1081 98.5845 35.1427 0.0000 0.0000 0.0000
# 2 98.5845 114.1081 35.1427 0.0000 0.0000 0.0000
# 3 35.1427 35.1427 129.9480 0.0000 0.0000 0.0000
# 4 0.0000 0.0000 0.0000 16.6940 0.0000 0.0000
# 5 0.0000 0.0000 0.0000 0.0000 16.6940 0.0000
# 6 0.0000 0.0000 0.0000 0.0000 0.0000 10.2973
#
#
#
# Elastic Compliance Matrix: (Units=1/GPa)
#
#
# Indices 1 2 3 4 5 6 
#
# 1 0.034791 -0.029628 -0.001396 0.000000 0.000000 0.000000
# 2 -0.029628 0.034791 -0.001396 0.000000 0.000000 0.000000
# 3 -0.001396 -0.001396 0.008451 0.000000 0.000000 0.000000
# 4 0.000000 0.000000 0.000000 0.059902 0.000000 0.000000
# 5 0.000000 0.000000 0.000000 0.000000 0.059902 0.000000
# 6 0.000000 0.000000 0.000000 0.000000 0.000000 0.097113
#
#
# Mechanical properties :
#
#
# Convention : Reuss Voigt Hill
#
# Bulk Modulus (GPa) = 75.80606 77.32267 76.56437
# Shear Modulus (GPa) = 13.72927 21.35669 17.54298
#
# Velocity S-wave (km/s) = 2.64276 3.29611 2.98735
# Velocity P-wave (km/s) = 6.91921 7.33624 7.13078
#
# Compressibility (1/GPa) = 0.01319156
#
# Stress axis : x y z
#
# Youngs Moduli (GPa) = 28.74344 28.74344 118.33496
#
# Poissons Ratio (x) = 0.85160 0.16523
# Poissons Ratio (y) = 0.85160 0.16523
# Poissons Ratio (z) = 0.04013 0.04013
#
# Static dielectric constant tensor:
#      x y z
#    x 1.692930 0.000000 0.000000 
#    y 0.000000 1.692930 0.000000 
#    z 0.000000 0.000000 1.749800 
# 
# From -- ./inp_files/4796.got.cif
#   From: 2010.05.17/outbox.cif.g08.bks.cpg/sg132_3_cif.got.tgz:4796.got - 2010.05.20 12:30:18.
