data_PCOD9567519
_publ_section_title
;
Structure prediction by ZEFSAII (Michael W. Deem and Ramdas Pophale) SiO2 
 PCOD9567519
Probable space group: P 42/M C M
;
_chemical_formula_sum "Si O2"
_cell_formula_units_Z 64
_cell_length_a 13.394718
_cell_length_b 13.394718
_cell_length_c 18.007321
_cell_angle_alpha 90.000000
_cell_angle_beta 90.000000
_cell_angle_gamma 90.000000
_cell_volume 3230.845988
_symmetry_space_group_name_H-M "P 42/M C M"
_symmetry_group_IT_number 132
_symmetry_cell_setting 'tetragonal'
loop_
_space_group_symop_operation_xyz
x,y,z
-y,x,1/2+z
-x,-y,z
y,-x,1/2+z
x,-y,1/2-z
-x,y,1/2-z
y,x,-z
-y,-x,-z
-x,-y,-z
y,-x,1/2-z
x,y,-z
-y,x,1/2-z
-x,y,1/2+z
x,-y,1/2+z
-y,-x,z
y,x,z
loop_
_atom_site_type_symbol
_atom_site_label
_atom_site_fract_x
_atom_site_fract_y
_atom_site_fract_z
Si Si1 0.935988 0.768010 0.583181
Si Si2 0.089490 0.248793 0.195213
Si Si3 0.384009 0.776189 0.909948
Si Si4 0.384583 0.218179 0.087674
O O1 0.971513 0.747525 0.500000
O O2 0.849003 0.849003 0.580172
O O3 0.855917 0.665352 0.852457
O O4 0.879969 0.668448 0.612921
O O5 0.173711 0.173711 0.227492
O O6 0.025337 0.193110 0.132280
O O7 0.000000 0.280076 0.250000
O O8 0.315658 0.684343 0.882597
O O9 0.499806 0.767542 0.891901
O O10 0.377225 0.775623 0.000000
O O11 0.319605 0.319605 0.091288
O O12 0.380003 0.185340 0.000000
#
# Coordination Sequence:
#
# PCOD9567519 Si02
#       4
#    16  16  16  16
#     4   9  18  33  53  76 102 134 172 215 263 314
#     4  11  23  37  52  72 101 137 177 222 271 319
#     4   8  15  30  53  81 111 141 173 209 252 306
#     4   9  18  33  54  81 112 143 175 215 262 313
#
# _framework density 19.809054
#
# number of rings (size 3 to 8) (size 9 to 14) (size 15 to 20)
#    0.000    2.750    0.000    3.000    0.000    4.750 
#    0.000   10.000    0.000    0.000    0.000    0.000 
#    0.000    8.000    0.000    0.500    0.000    0.250 
#
# Total GULP energy -356319.453202 kJ/mol
# GULP energy per Si atom -5567.491456 kJ/mol
# Density = 1.976397 g / cm^3
# Si number density = 19.809054 Si / 1000 Ang^3
#
#
#
# Elastic Constant Matrix: (Units=GPa)
#
#
# Indices 1 2 3 4 5 6 
#
# 1 92.7612 20.1068 32.6998 0.0000 0.0000 0.0000
# 2 20.1068 92.7612 32.6998 0.0000 0.0000 0.0000
# 3 32.6998 32.6998 54.7645 0.0000 0.0000 0.0000
# 4 0.0000 0.0000 0.0000 42.5900 0.0000 0.0000
# 5 0.0000 0.0000 0.0000 0.0000 42.5900 0.0000
# 6 0.0000 0.0000 0.0000 0.0000 0.0000 8.4594
#
#
#
# Elastic Compliance Matrix: (Units=1/GPa)
#
#
# Indices 1 2 3 4 5 6 
#
# 1 0.013655 -0.000108 -0.008089 0.000000 0.000000 0.000000
# 2 -0.000108 0.013655 -0.008089 0.000000 0.000000 0.000000
# 3 -0.008089 -0.008089 0.027920 0.000000 0.000000 0.000000
# 4 0.000000 0.000000 0.000000 0.023480 0.000000 0.000000
# 5 0.000000 0.000000 0.000000 0.000000 0.023480 0.000000
# 6 0.000000 0.000000 0.000000 0.000000 0.000000 0.118212
#
#
# Mechanical properties :
#
#
# Convention : Reuss Voigt Hill
#
# Bulk Modulus (GPa) = 44.13429 45.69996 44.91713
# Shear Modulus (GPa) = 19.19195 29.04660 24.11927
#
# Velocity S-wave (km/s) = 3.11601 3.83342 3.49318
# Velocity P-wave (km/s) = 5.93921 6.53558 6.24452
#
# Compressibility (1/GPa) = 0.02265812
#
# Stress axis : x y z
#
# Youngs Moduli (GPa) = 73.23160 73.23160 35.81712
#
# Poissons Ratio (x) = 0.00794 0.28972
# Poissons Ratio (y) = 0.00794 0.28972
# Poissons Ratio (z) = 0.59235 0.59235
#
# Static dielectric constant tensor:
#      x y z
#    x 1.694600 0.000000 0.000000 
#    y 0.000000 1.694600 0.000000 
#    z 0.000000 0.000000 1.756130 
# 
# From -- ./inp_files/4386.got.cif
#   From: 2010.05.17/outbox.cif.g08.bks.cpg/sg132_3_cif.got.tgz:4386.got - 2010.05.20 12:30:18.
