data_PCOD9567272
_publ_section_title
;
Structure prediction by ZEFSAII (Michael W. Deem and Ramdas Pophale) SiO2 
 PCOD9567272
Probable space group: P 42/M C M
;
_chemical_formula_sum "Si O2"
_cell_formula_units_Z 48
_cell_length_a 9.071334
_cell_length_b 9.071334
_cell_length_c 32.132471
_cell_angle_alpha 90.000000
_cell_angle_beta 90.000000
_cell_angle_gamma 90.000000
_cell_volume 2644.152137
_symmetry_space_group_name_H-M "P 42/M C M"
_symmetry_group_IT_number 132
_symmetry_cell_setting 'tetragonal'
loop_
_space_group_symop_operation_xyz
x,y,z
-y,x,1/2+z
-x,-y,z
y,-x,1/2+z
x,-y,1/2-z
-x,y,1/2-z
y,x,-z
-y,-x,-z
-x,-y,-z
y,-x,1/2-z
x,y,-z
-y,x,1/2-z
-x,y,1/2+z
x,-y,1/2+z
-y,-x,z
y,x,z
loop_
_atom_site_type_symbol
_atom_site_label
_atom_site_fract_x
_atom_site_fract_y
_atom_site_fract_z
Si Si1 0.000000 0.500000 0.430884
Si Si2 0.247297 0.996665 0.637243
Si Si3 0.748521 0.500994 0.000000
Si Si4 0.648365 0.118152 0.777398
O O1 0.988908 0.355887 0.401850
O O2 0.856182 0.505835 0.460220
O O3 0.154871 0.845129 0.643765
O O4 0.344626 0.045805 0.677086
O O5 0.124576 0.124576 0.631662
O O6 0.648656 0.648656 0.000000
O O7 0.635718 0.364283 0.000000
O O8 0.500000 0.138538 0.750000
O O9 0.727650 0.272351 0.780436
O O10 0.738546 0.000000 0.750000
#
# Coordination Sequence:
#
# PCOD9567272 Si02
#       4
#     8  16   8  16
#     4  11  20  36  61  82 106 144 183 220 268 327
#     4  10  21  36  55  81 110 140 180 229 275 319
#     4  10  22  38  56  82 114 144 176 218 270 328
#     4  10  20  34  52  75 105 140 178 219 263 312
#
# _framework density 18.153267
#
# number of rings (size 3 to 8) (size 9 to 14) (size 15 to 20)
#    0.000    1.833    0.000    5.000    0.000    2.000 
#    0.000    1.667    0.000   12.000    0.000    0.000 
#    0.000    0.000    0.000    0.000    0.000    0.000 
#
# Total GULP energy -267261.500685 kJ/mol
# GULP energy per Si atom -5567.947931 kJ/mol
# Density = 1.811195 g / cm^3
# Si number density = 18.153267 Si / 1000 Ang^3
#
#
#
# Elastic Constant Matrix: (Units=GPa)
#
#
# Indices 1 2 3 4 5 6 
#
# 1 137.1369 70.6946 77.3685 0.0000 0.0000 0.0000
# 2 70.6946 137.1365 77.3681 0.0000 0.0000 0.0000
# 3 77.3685 77.3681 161.5899 0.0000 0.0000 0.0000
# 4 0.0000 0.0000 0.0000 18.0040 0.0000 0.0000
# 5 0.0000 0.0000 0.0000 0.0000 18.0047 0.0000
# 6 0.0000 0.0000 0.0000 0.0000 0.0000 13.8722
#
#
#
# Elastic Compliance Matrix: (Units=1/GPa)
#
#
# Indices 1 2 3 4 5 6 
#
# 1 0.011264 -0.003787 -0.003580 0.000000 0.000000 0.000000
# 2 -0.003787 0.011264 -0.003580 0.000000 0.000000 0.000000
# 3 -0.003580 -0.003580 0.009617 0.000000 0.000000 0.000000
# 4 0.000000 0.000000 0.000000 0.055543 0.000000 0.000000
# 5 0.000000 0.000000 0.000000 0.000000 0.055541 0.000000
# 6 0.000000 0.000000 0.000000 0.000000 0.000000 0.072087
#
#
# Mechanical properties :
#
#
# Convention : Reuss Voigt Hill
#
# Bulk Modulus (GPa) = 97.55319 98.52506 98.03913
# Shear Modulus (GPa) = 20.77918 24.00499 22.39209
#
# Velocity S-wave (km/s) = 3.38694 3.64036 3.51593
# Velocity P-wave (km/s) = 8.31568 8.48890 8.40274
#
# Compressibility (1/GPa) = 0.01025082
#
# Stress axis : x y z
#
# Youngs Moduli (GPa) = 88.77982 88.77979 103.98693
#
# Poissons Ratio (x) = 0.33620 0.37227
# Poissons Ratio (y) = 0.33620 0.37226
# Poissons Ratio (z) = 0.31783 0.31782
#
# Static dielectric constant tensor:
#      x y z
#    x 1.662250 0.000000 0.000000 
#    y 0.000000 1.662250 0.000000 
#    z 0.000000 0.000000 1.623770 
# 
# From -- ./inp_files/10357.got.cif
#   From: 2010.05.17/outbox.cif.g08.bks.cpg/sg132_6_cif.got.tgz:10357.got - 2010.05.20 12:30:18.
