data_PCOD9567509
_publ_section_title
;
Structure prediction by ZEFSAII (Michael W. Deem and Ramdas Pophale) SiO2 
 PCOD9567509
Probable space group: P 42/M C M
;
_chemical_formula_sum "Si O2"
_cell_formula_units_Z 88
_cell_length_a 12.552236
_cell_length_b 12.552236
_cell_length_c 28.325180
_cell_angle_alpha 90.000000
_cell_angle_beta 90.000000
_cell_angle_gamma 90.000000
_cell_volume 4462.876516
_symmetry_space_group_name_H-M "P 42/M C M"
_symmetry_group_IT_number 132
_symmetry_cell_setting 'tetragonal'
loop_
_space_group_symop_operation_xyz
x,y,z
-y,x,1/2+z
-x,-y,z
y,-x,1/2+z
x,-y,1/2-z
-x,y,1/2-z
y,x,-z
-y,-x,-z
-x,-y,-z
y,-x,1/2-z
x,y,-z
-y,x,1/2-z
-x,y,1/2+z
x,-y,1/2+z
-y,-x,z
y,x,z
loop_
_atom_site_type_symbol
_atom_site_label
_atom_site_fract_x
_atom_site_fract_y
_atom_site_fract_z
Si Si1 0.106592 0.725488 0.220946
Si Si2 0.719676 0.548397 0.700501
Si Si3 0.544971 0.121132 0.947044
Si Si4 0.796117 0.382258 0.379083
Si Si5 0.031238 0.281331 0.617604
Si Si6 0.911460 0.088541 0.947495
O O1 0.180635 0.819366 0.241747
O O2 0.179965 0.621861 0.215121
O O3 0.000000 0.706167 0.250000
O O4 0.072742 0.755016 0.168046
O O5 0.680830 0.500000 0.750000
O O6 0.627677 0.627677 0.681139
O O7 0.758692 0.458435 0.663958
O O8 0.453726 0.196669 0.926308
O O9 0.500000 0.000000 0.949749
O O10 0.634423 0.111332 0.906852
O O11 0.580149 0.150015 0.000000
O O12 0.713929 0.286072 0.382835
O O13 0.915946 0.335317 0.374058
O O14 0.035008 0.184541 0.581232
O O15 0.876672 0.123329 0.000000
O O16 0.000000 0.000000 0.952191
#
# Coordination Sequence:
#
# PCOD9567509 Si02
#       6
#    16  16  16  16  16   8
#     4  11  24  41  63  92 127 167 215 260 320 390
#     4  11  24  42  64  91 124 167 218 271 328 389
#     4   9  19  37  63  91 122 165 213 260 313 372
#     4  11  23  38  63  95 127 168 215 271 328 382
#     4  11  21  41  64  91 130 171 216 261 312 391
#     4  11  24  40  64  98 135 175 215 263 322 382
#
# _framework density 19.718222999999998
#
# number of rings (size 3 to 8) (size 9 to 14) (size 15 to 20)
#    0.000    1.364    2.727    2.727    0.000    7.273 
#    0.000    0.000    0.000    0.000    0.000    1.273 
#    0.000    0.000    0.000    0.000    0.000    0.000 
#
# Total GULP energy -491245.432033 kJ/mol
# GULP energy per Si atom -5582.334455 kJ/mol
# Density = 1.967334 g / cm^3
# Si number density = 19.718223 Si / 1000 Ang^3
#
#
#
# Elastic Constant Matrix: (Units=GPa)
#
#
# Indices 1 2 3 4 5 6 
#
# 1 86.0326 49.9149 25.4712 0.0000 0.0000 0.0000
# 2 49.9149 86.0328 25.4713 0.0000 0.0000 0.0000
# 3 25.4712 25.4713 95.5761 0.0000 0.0000 0.0000
# 4 0.0000 0.0000 0.0000 35.3805 0.0000 0.0000
# 5 0.0000 0.0000 0.0000 0.0000 35.3801 0.0000
# 6 0.0000 0.0000 0.0000 0.0000 0.0000 31.5014
#
#
#
# Elastic Compliance Matrix: (Units=1/GPa)
#
#
# Indices 1 2 3 4 5 6 
#
# 1 0.017930 -0.009758 -0.002178 0.000000 0.000000 0.000000
# 2 -0.009758 0.017929 -0.002178 0.000000 0.000000 0.000000
# 3 -0.002178 -0.002178 0.011624 0.000000 0.000000 0.000000
# 4 0.000000 0.000000 0.000000 0.028264 0.000000 0.000000
# 5 0.000000 0.000000 0.000000 0.000000 0.028264 0.000000
# 6 0.000000 0.000000 0.000000 0.000000 0.000000 0.031745
#
#
# Mechanical properties :
#
#
# Convention : Reuss Voigt Hill
#
# Bulk Modulus (GPa) = 51.93163 52.15070 52.04116
# Shear Modulus (GPa) = 29.34254 31.57137 30.45695
#
# Velocity S-wave (km/s) = 3.86177 4.00575 3.93442
# Velocity P-wave (km/s) = 6.80282 6.92099 6.86216
#
# Compressibility (1/GPa) = 0.01925609
#
# Stress axis : x y z
#
# Youngs Moduli (GPa) = 55.77397 55.77407 86.03143
#
# Poissons Ratio (x) = 0.54422 0.18736
# Poissons Ratio (y) = 0.54422 0.18736
# Poissons Ratio (z) = 0.12147 0.12147
#
# Static dielectric constant tensor:
#      x y z
#    x 1.729130 0.000000 0.000000 
#    y 0.000000 1.729130 0.000000 
#    z 0.000000 0.000000 1.698220 
# 
# From -- ./inp_files/10756.got.cif
#   From: 2010.05.17/outbox.cif.g08.bks.cpg/sg132_6_cif.got.tgz:10756.got - 2010.05.20 12:30:18.
