data_PCOD9567049
_publ_section_title
;
Structure prediction by ZEFSAII (Michael W. Deem and Ramdas Pophale) SiO2 
 PCOD9567049
Probable space group: P 42/M C M
;
_chemical_formula_sum "Si O2"
_cell_formula_units_Z 120
_cell_length_a 19.706250
_cell_length_b 19.706250
_cell_length_c 22.993438
_cell_angle_alpha 90.000000
_cell_angle_beta 90.000000
_cell_angle_gamma 90.000000
_cell_volume 8929.186386
_symmetry_space_group_name_H-M "P 42/M C M"
_symmetry_group_IT_number 132
_symmetry_cell_setting 'tetragonal'
loop_
_space_group_symop_operation_xyz
x,y,z
-y,x,1/2+z
-x,-y,z
y,-x,1/2+z
x,-y,1/2-z
-x,y,1/2-z
y,x,-z
-y,-x,-z
-x,-y,-z
y,-x,1/2-z
x,y,-z
-y,x,1/2-z
-x,y,1/2+z
x,-y,1/2+z
-y,-x,z
y,x,z
loop_
_atom_site_type_symbol
_atom_site_label
_atom_site_fract_x
_atom_site_fract_y
_atom_site_fract_z
Si Si1 0.579461 0.864486 0.067736
Si Si2 0.770087 0.340745 0.152087
Si Si3 0.420584 0.307292 0.249999
Si Si4 0.259031 0.148758 0.750002
Si Si5 0.420537 0.135514 0.567736
Si Si6 1.000000 0.421429 0.644138
Si Si7 0.000000 0.685498 0.750000
Si Si8 0.659255 0.770085 0.152083
O O1 0.499999 0.844976 0.071243
O O2 0.625336 0.808904 0.099178
O O3 0.586764 0.933963 0.103856
O O4 0.596364 0.874153 0.000000
O O5 0.711219 0.288782 0.133888
O O6 0.735960 0.396984 0.193926
O O7 0.820984 0.298695 0.193995
O O8 0.808906 0.374663 0.099181
O O9 0.500000 0.319934 0.250000
O O10 0.375157 0.375157 0.250000
O O11 0.396983 0.264042 0.193923
O O12 0.184763 0.184763 0.750002
O O13 0.298695 0.179017 0.806009
O O14 0.268796 0.068034 0.750002
O O15 0.403633 0.125850 0.500000
O O16 0.413236 0.066035 0.603854
O O17 0.000001 0.365640 0.694793
O O18 0.000000 0.500000 0.666451
O O19 0.711218 0.711218 0.133883
#
# Coordination Sequence:
#
# PCOD9567049 Si02
#       8
#    16  16  16  16  16  16   8  16
#     4  10  19  30  43  60  88 122 149 177 214 255
#     4   9  17  30  44  62  86 110 145 184 218 260
#     4   9  17  28  43  61  83 110 140 185 233 270
#     4   9  18  30  46  68  89 110 138 176 220 257
#     4  10  19  30  43  60  88 122 149 177 214 255
#     4  10  20  30  41  67  93 115 149 178 207 254
#     4  12  17  30  52  67  88 118 140 182 216 253
#     4   9  17  30  44  62  86 110 145 184 218 260
#
# _framework density 13.439075000000001
#
# number of rings (size 3 to 8) (size 9 to 14) (size 15 to 20)
#    0.000    2.400    2.667    3.000    0.000    2.267 
#    0.000    0.000    0.000    0.200    0.000    0.000 
#    0.000    0.000    0.000   24.800    0.000    8.133 
#
# Total GULP energy -668597.630508 kJ/mol
# GULP energy per Si atom -5571.646921 kJ/mol
# Density = 1.340849 g / cm^3
# Si number density = 13.439075 Si / 1000 Ang^3
#
#
#
# Elastic Constant Matrix: (Units=GPa)
#
#
# Indices 1 2 3 4 5 6 
#
# 1 86.8343 42.3584 41.7044 0.0000 0.0000 0.0000
# 2 42.3584 86.8343 41.7044 0.0000 0.0000 0.0000
# 3 41.7044 41.7044 83.7918 0.0000 0.0000 0.0000
# 4 0.0000 0.0000 0.0000 16.4967 0.0000 0.0000
# 5 0.0000 0.0000 0.0000 0.0000 16.4967 0.0000
# 6 0.0000 0.0000 0.0000 0.0000 0.0000 19.5927
#
#
#
# Elastic Compliance Matrix: (Units=1/GPa)
#
#
# Indices 1 2 3 4 5 6 
#
# 1 0.016945 -0.005539 -0.005677 0.000000 0.000000 0.000000
# 2 -0.005539 0.016945 -0.005677 0.000000 0.000000 0.000000
# 3 -0.005677 -0.005677 0.017585 0.000000 0.000000 0.000000
# 4 0.000000 0.000000 0.000000 0.060618 0.000000 0.000000
# 5 0.000000 0.000000 0.000000 0.000000 0.060618 0.000000
# 6 0.000000 0.000000 0.000000 0.000000 0.000000 0.051039
#
#
# Mechanical properties :
#
#
# Convention : Reuss Voigt Hill
#
# Bulk Modulus (GPa) = 56.53160 56.55497 56.54328
# Shear Modulus (GPa) = 18.98028 19.29678 19.13853
#
# Velocity S-wave (km/s) = 3.76216 3.79340 3.77781
# Velocity P-wave (km/s) = 7.81206 7.83328 7.82268
#
# Compressibility (1/GPa) = 0.01768922
#
# Stress axis : x y z
#
# Youngs Moduli (GPa) = 59.01568 59.01568 56.86681
#
# Poissons Ratio (x) = 0.32691 0.32281
# Poissons Ratio (y) = 0.32691 0.32281
# Poissons Ratio (z) = 0.33501 0.33501
#
# Static dielectric constant tensor:
#      x y z
#    x 1.429250 0.000000 0.000000 
#    y 0.000000 1.429250 0.000000 
#    z 0.000000 0.000000 1.424040 
# 
# From -- ./inp_files/9361.got.cif
#   From: 2010.05.17/outbox.cif.g08.bks.cpg/sg132_5_cif.got.tgz:9361.got - 2010.05.20 12:30:18.
