data_PCOD9567663
_publ_section_title
;
Structure prediction by ZEFSAII (Michael W. Deem and Ramdas Pophale) SiO2 
 PCOD9567663
Probable space group: P 42/N B C
;
_chemical_formula_sum "Si O2"
_cell_formula_units_Z 48
_cell_length_a 13.485572
_cell_length_b 13.485572
_cell_length_c 13.254960
_cell_angle_alpha 90.000000
_cell_angle_beta 90.000000
_cell_angle_gamma 90.000000
_cell_volume 2410.555670
_symmetry_space_group_name_H-M "P 42/N B C"
_symmetry_group_IT_number 133
_space_group.IT_coordinate_system_code '2'
_symmetry_cell_setting 'tetragonal'
loop_
_space_group_symop_operation_xyz
x,y,z
1/2-y,x,1/2+z
1/2-x,1/2-y,z
y,1/2-x,1/2+z
x,1/2-y,-z
1/2-x,y,-z
y,x,1/2-z
1/2-y,1/2-x,1/2-z
-x,-y,-z
1/2+y,-x,1/2-z
1/2+x,1/2+y,-z
-y,1/2+x,1/2-z
-x,1/2+y,z
1/2+x,-y,z
-y,-x,1/2+z
1/2+y,1/2+x,1/2+z
loop_
_atom_site_type_symbol
_atom_site_label
_atom_site_fract_x
_atom_site_fract_y
_atom_site_fract_z
Si Si1 0.483363 0.405342 0.148238
Si Si2 0.991390 0.639926 0.540785
Si Si3 0.278712 0.138356 0.382145
O O1 0.465821 0.465821 0.250000
O O2 0.592054 0.416439 0.099841
O O3 0.442133 0.294069 0.167301
O O4 0.418824 0.458099 0.060083
O O5 0.005774 0.750000 0.500000
O O6 0.897106 0.630574 0.617019
O O7 0.250000 0.250000 0.352987
O O8 0.250000 0.130107 0.500000
#
# Coordination Sequence:
#
# PCOD9567663 Si02
#       3
#    16  16  16
#     4  10  21  32  53  89 118 152 196 246 298 352
#     4  10  19  37  57  80 117 158 191 245 299 354
#     4   9  15  33  56  81 111 147 191 238 294 348
#
# _framework density 19.912423
#
# number of rings (size 3 to 8) (size 9 to 14) (size 15 to 20)
#    0.000    2.333    6.667    0.000    0.000    3.333 
#    0.000    0.000    0.000   25.000    0.000   18.667 
#    0.000    0.000    0.000    0.000    0.000    0.000 
#
# Total GULP energy -267354.572385 kJ/mol
# GULP energy per Si atom -5569.886925 kJ/mol
# Density = 1.986710 g / cm^3
# Si number density = 19.912423 Si / 1000 Ang^3
#
#
#
# Elastic Constant Matrix: (Units=GPa)
#
#
# Indices 1 2 3 4 5 6 
#
# 1 85.5725 57.4030 22.2773 0.0000 0.0000 0.0000
# 2 57.4030 85.5725 22.2773 0.0000 0.0000 0.0000
# 3 22.2773 22.2773 74.4743 0.0000 0.0000 0.0000
# 4 0.0000 0.0000 0.0000 -77.9472 0.0000 0.0000
# 5 0.0000 0.0000 0.0000 0.0000 -77.9472 0.0000
# 6 0.0000 0.0000 0.0000 0.0000 0.0000 29.7179
#
#
#
# Elastic Compliance Matrix: (Units=1/GPa)
#
#
# Indices 1 2 3 4 5 6 
#
# 1 0.021606 -0.013893 -0.002307 0.000000 0.000000 0.000000
# 2 -0.013893 0.021606 -0.002307 0.000000 0.000000 0.000000
# 3 -0.002307 -0.002307 0.014808 0.000000 0.000000 0.000000
# 4 0.000000 0.000000 0.000000 -0.012829 0.000000 0.000000
# 5 0.000000 0.000000 0.000000 0.000000 -0.012829 0.000000
# 6 0.000000 0.000000 0.000000 0.000000 0.000000 0.033650
#
#
# Mechanical properties :
#
#
# Convention : Reuss Voigt Hill
#
# Bulk Modulus (GPa) = 47.60718 49.94829 48.77773
# Shear Modulus (GPa) = 45.44279 -15.65786 14.89246
#
# Velocity S-wave (km/s) = 4.78235 -2.80721 2.73774
# Velocity P-wave (km/s) = 7.37934 3.82507 5.87732
#
# Compressibility (1/GPa) = 0.02100523
#
# Stress axis : x y z
#
# Youngs Moduli (GPa) = 46.28286 46.28286 67.53215
#
# Poissons Ratio (x) = 0.64301 0.15581
# Poissons Ratio (y) = 0.64301 0.15581
# Poissons Ratio (z) = 0.10679 0.10679
#
# Static dielectric constant tensor:
#      x y z
#    x 1.664830 0.000000 0.000000 
#    y 0.000000 1.664830 0.000000 
#    z 0.000000 0.000000 1.724060 
# 
# From -- ./inp_files/3868.got.cif
#   From: 2010.05.17/outbox.cif.g08.bks.cpg/sg133_2_cif.got.tgz:3868.got - 2010.05.20 12:37:36.
