data_PCOD9567369
_publ_section_title
;
Structure prediction by ZEFSAII (Michael W. Deem and Ramdas Pophale) SiO2 
 PCOD9567369
Probable space group: P 42/M C M
;
_chemical_formula_sum "Si O2"
_cell_formula_units_Z 80
_cell_length_a 17.315455
_cell_length_b 17.315455
_cell_length_c 14.972280
_cell_angle_alpha 90.000000
_cell_angle_beta 90.000000
_cell_angle_gamma 90.000000
_cell_volume 4489.063579
_symmetry_space_group_name_H-M "P 42/M C M"
_symmetry_group_IT_number 132
_symmetry_cell_setting 'tetragonal'
loop_
_space_group_symop_operation_xyz
x,y,z
-y,x,1/2+z
-x,-y,z
y,-x,1/2+z
x,-y,1/2-z
-x,y,1/2-z
y,x,-z
-y,-x,-z
-x,-y,-z
y,-x,1/2-z
x,y,-z
-y,x,1/2-z
-x,y,1/2+z
x,-y,1/2+z
-y,-x,z
y,x,z
loop_
_atom_site_type_symbol
_atom_site_label
_atom_site_fract_x
_atom_site_fract_y
_atom_site_fract_z
Si Si1 0.088387 0.788932 0.101603
Si Si2 0.500000 0.626151 0.750000
Si Si3 0.591599 0.719875 0.895027
Si Si4 0.586514 0.141168 0.267366
Si Si5 0.000000 0.703896 0.250000
Si Si6 0.344915 0.780109 0.900746
O O1 0.133765 0.866236 0.130677
O O2 0.154275 0.722109 0.098793
O O3 0.023640 0.758045 0.167545
O O4 0.061143 0.799491 0.000000
O O5 0.570482 0.570482 0.722926
O O6 0.529201 0.675555 0.833861
O O7 0.671762 0.671762 0.883218
O O8 0.595178 0.805518 0.854437
O O9 0.573355 0.718965 0.000000
O O10 0.500000 0.111395 0.250000
O O11 0.648175 0.072469 0.269534
O O12 0.603372 0.197007 0.182558
O O13 0.300732 0.699269 0.888091
O O14 0.381087 0.781222 0.000000
#
# Coordination Sequence:
#
# PCOD9567369 Si02
#       6
#    16   8  16  16   8  16
#     4   8  15  31  55  80 103 129 168 218 264 309
#     4   9  18  36  60  83 108 144 192 243 290 334
#     4  10  21  37  56  80 112 149 189 238 290 336
#     4  11  21  34  49  74 112 149 181 220 270 334
#     4  10  21  34  56  81 106 144 184 222 272 335
#     4   8  15  30  52  73  92 123 174 226 262 296
#
# _framework density 17.821089000000001
#
# number of rings (size 3 to 8) (size 9 to 14) (size 15 to 20)
#    0.000    2.700    1.000    2.100    0.000    2.800 
#    0.000    2.000    0.000    6.900    0.000    1.400 
#    0.000    0.000    0.000    0.000    0.000    0.000 
#
# Total GULP energy -446060.810806 kJ/mol
# GULP energy per Si atom -5575.760135 kJ/mol
# Density = 1.778053 g / cm^3
# Si number density = 17.821089 Si / 1000 Ang^3
#
#
#
# Elastic Constant Matrix: (Units=GPa)
#
#
# Indices 1 2 3 4 5 6 
#
# 1 80.9799 37.8559 51.9048 0.0000 0.0000 0.0000
# 2 37.8559 80.9799 51.9048 0.0000 0.0000 0.0000
# 3 51.9048 51.9048 117.4001 0.0000 0.0000 0.0000
# 4 0.0000 0.0000 0.0000 25.9600 0.0000 0.0000
# 5 0.0000 0.0000 0.0000 0.0000 25.9600 0.0000
# 6 0.0000 0.0000 0.0000 0.0000 0.0000 26.3028
#
#
#
# Elastic Compliance Matrix: (Units=1/GPa)
#
#
# Indices 1 2 3 4 5 6 
#
# 1 0.018449 -0.004739 -0.006061 0.000000 0.000000 0.000000
# 2 -0.004739 0.018449 -0.006061 0.000000 0.000000 0.000000
# 3 -0.006061 -0.006061 0.013878 0.000000 0.000000 0.000000
# 4 0.000000 0.000000 0.000000 0.038521 0.000000 0.000000
# 5 0.000000 0.000000 0.000000 0.000000 0.038521 0.000000
# 6 0.000000 0.000000 0.000000 0.000000 0.000000 0.038019
#
#
# Mechanical properties :
#
#
# Convention : Reuss Voigt Hill
#
# Bulk Modulus (GPa) = 58.64475 62.52120 60.58297
# Shear Modulus (GPa) = 24.36106 24.82418 24.59262
#
# Velocity S-wave (km/s) = 3.70128 3.73630 3.71883
# Velocity P-wave (km/s) = 7.15855 7.33294 7.24627
#
# Compressibility (1/GPa) = 0.01705182
#
# Stress axis : x y z
#
# Youngs Moduli (GPa) = 54.20221 54.20221 72.05848
#
# Poissons Ratio (x) = 0.25689 0.43678
# Poissons Ratio (y) = 0.25689 0.43678
# Poissons Ratio (z) = 0.32854 0.32854
#
# Static dielectric constant tensor:
#      x y z
#    x 1.616080 0.000000 0.000000 
#    y 0.000000 1.616080 0.000000 
#    z 0.000000 0.000000 1.605900 
# 
# From -- ./inp_files/4693.got.cif
#   From: 2010.05.17/outbox.cif.g08.bks.cpg/sg132_3_cif.got.tgz:4693.got - 2010.05.20 12:30:18.
