data_PCOD9567569
_publ_section_title
;
Structure prediction by ZEFSAII (Michael W. Deem and Ramdas Pophale) SiO2 
 PCOD9567569
Probable space group: P 42/N B C
;
_chemical_formula_sum "Si O2"
_cell_formula_units_Z 80
_cell_length_a 18.050367
_cell_length_b 18.050367
_cell_length_c 13.184925
_cell_angle_alpha 90.000000
_cell_angle_beta 90.000000
_cell_angle_gamma 90.000000
_cell_volume 4295.856212
_symmetry_space_group_name_H-M "P 42/N B C"
_symmetry_group_IT_number 133
_space_group.IT_coordinate_system_code '2'
_symmetry_cell_setting 'tetragonal'
loop_
_space_group_symop_operation_xyz
x,y,z
1/2-y,x,1/2+z
1/2-x,1/2-y,z
y,1/2-x,1/2+z
x,1/2-y,-z
1/2-x,y,-z
y,x,1/2-z
1/2-y,1/2-x,1/2-z
-x,-y,-z
1/2+y,-x,1/2-z
1/2+x,1/2+y,-z
-y,1/2+x,1/2-z
-x,1/2+y,z
1/2+x,-y,z
-y,-x,1/2+z
1/2+y,1/2+x,1/2+z
loop_
_atom_site_type_symbol
_atom_site_label
_atom_site_fract_x
_atom_site_fract_y
_atom_site_fract_z
Si Si1 0.852190 0.977918 0.267579
Si Si2 0.414264 0.977211 0.476938
Si Si3 0.650241 0.735055 0.162863
Si Si4 0.172051 0.531945 0.041664
Si Si5 0.633175 0.634599 0.531302
O O1 0.913620 0.913620 0.250000
O O2 0.779363 0.934574 0.304663
O O3 0.888881 0.023067 0.359623
O O4 0.834410 0.016171 0.161566
O O5 0.412116 0.894375 0.517031
O O6 0.500000 0.000000 0.500000
O O7 0.368892 0.044779 0.527016
O O8 0.699979 0.699979 0.250000
O O9 0.660791 0.819568 0.127709
O O10 0.660756 0.681587 0.065060
O O11 0.250000 0.559444 0.000000
O O12 0.160066 0.451305 0.985697
#
# Coordination Sequence:
#
# PCOD9567569 Si02
#       5
#    16  16  16  16  16
#     4  10  16  34  57  75 115 150 180 249 303 332
#     4   9  17  33  58  82 103 148 198 253 296 348
#     4   9  15  30  55  77 111 153 189 230 278 347
#     4  11  21  36  52  82 121 148 190 256 305 350
#     4   9  17  31  55  78 110 153 198 230 288 357
#
# _framework density 18.622598
#
# number of rings (size 3 to 8) (size 9 to 14) (size 15 to 20)
#    0.000    2.400    8.000    0.000    0.000    0.000 
#    3.600    4.000    0.000    0.000    0.000   11.200 
#    0.000    0.000    0.000    0.000    0.000    0.000 
#
# Total GULP energy -445653.335036 kJ/mol
# GULP energy per Si atom -5570.666688 kJ/mol
# Density = 1.858021 g / cm^3
# Si number density = 18.622598 Si / 1000 Ang^3
#
#
#
# Elastic Constant Matrix: (Units=GPa)
#
#
# Indices 1 2 3 4 5 6 
#
# 1 72.5184 16.8808 39.4111 0.0000 0.0000 0.0000
# 2 16.8808 72.5184 39.4111 0.0000 0.0000 0.0000
# 3 39.4111 39.4111 131.4135 0.0000 0.0000 0.0000
# 4 0.0000 0.0000 0.0000 22.4327 0.0000 0.0000
# 5 0.0000 0.0000 0.0000 0.0000 22.4327 0.0000
# 6 0.0000 0.0000 0.0000 0.0000 0.0000 19.6808
#
#
#
# Elastic Compliance Matrix: (Units=1/GPa)
#
#
# Indices 1 2 3 4 5 6 
#
# 1 0.016590 -0.001383 -0.004561 0.000000 0.000000 0.000000
# 2 -0.001383 0.016590 -0.004561 0.000000 0.000000 0.000000
# 3 -0.004561 -0.004561 0.010345 0.000000 0.000000 0.000000
# 4 0.000000 0.000000 0.000000 0.044578 0.000000 0.000000
# 5 0.000000 0.000000 0.000000 0.000000 0.044578 0.000000
# 6 0.000000 0.000000 0.000000 0.000000 0.000000 0.050811
#
#
# Mechanical properties :
#
#
# Convention : Reuss Voigt Hill
#
# Bulk Modulus (GPa) = 44.41216 51.98403 48.19809
# Shear Modulus (GPa) = 23.58427 24.95908 24.27168
#
# Velocity S-wave (km/s) = 3.56256 3.66492 3.61410
# Velocity P-wave (km/s) = 6.38927 6.77377 6.58433
#
# Compressibility (1/GPa) = 0.02251636
#
# Stress axis : x y z
#
# Youngs Moduli (GPa) = 60.27696 60.27696 96.66530
#
# Poissons Ratio (x) = 0.08339 0.44084
# Poissons Ratio (y) = 0.08339 0.44084
# Poissons Ratio (z) = 0.27489 0.27489
#
# Static dielectric constant tensor:
#      x y z
#    x 1.697210 0.000000 0.000000 
#    y 0.000000 1.697210 0.000000 
#    z 0.000000 0.000000 1.704100 
# 
# From -- ./inp_files/4338.got.cif
#   From: 2010.05.17/outbox.cif.g08.bks.cpg/sg133_3_cif.got.tgz:4338.got - 2010.05.20 12:37:36.
