data_PCOD9567514
_publ_section_title
;
Structure prediction by ZEFSAII (Michael W. Deem and Ramdas Pophale) SiO2 
 PCOD9567514
Probable space group: P 42/M C M
;
_chemical_formula_sum "Si O2"
_cell_formula_units_Z 116
_cell_length_a 17.832417
_cell_length_b 17.832417
_cell_length_c 19.319486
_cell_angle_alpha 90.000000
_cell_angle_beta 90.000000
_cell_angle_gamma 90.000000
_cell_volume 6143.501806
_symmetry_space_group_name_H-M "P 42/M C M"
_symmetry_group_IT_number 132
_symmetry_cell_setting 'tetragonal'
loop_
_space_group_symop_operation_xyz
x,y,z
-y,x,1/2+z
-x,-y,z
y,-x,1/2+z
x,-y,1/2-z
-x,y,1/2-z
y,x,-z
-y,-x,-z
-x,-y,-z
y,-x,1/2-z
x,y,-z
-y,x,1/2-z
-x,y,1/2+z
x,-y,1/2+z
-y,-x,z
y,x,z
loop_
_atom_site_type_symbol
_atom_site_label
_atom_site_fract_x
_atom_site_fract_y
_atom_site_fract_z
Si Si1 0.299512 0.029349 0.580144
Si Si2 0.595893 0.910271 0.862347
Si Si3 0.450581 0.872204 0.925449
Si Si4 0.920096 0.207114 0.210085
Si Si5 0.317834 0.798867 0.721254
Si Si6 0.000000 0.500000 0.250000
Si Si7 0.444929 0.745076 0.814421
Si Si8 0.377233 0.495874 0.078532
O O1 0.275124 0.025441 0.500000
O O2 0.376862 0.077390 0.581832
O O3 0.238232 0.062383 0.632854
O O4 0.329940 0.951116 0.610156
O O5 0.531260 0.911794 0.920194
O O6 0.623291 0.830452 0.834052
O O7 0.555369 0.951813 0.798117
O O8 0.452742 0.818813 0.860250
O O9 0.444649 0.833522 0.000000
O O10 0.867718 0.132283 0.209847
O O11 0.869270 0.272192 0.246215
O O12 0.000000 0.197944 0.250000
O O13 0.257172 0.742829 0.689794
O O14 0.362989 0.754451 0.780799
O O15 0.500000 0.742268 0.750000
O O16 0.469433 0.679190 0.866066
O O17 0.443885 0.556116 0.074171
O O18 0.417119 0.417119 0.098837
O O19 0.346405 0.487568 0.000000
#
# Coordination Sequence:
#
# PCOD9567514 Si02
#       8
#    16  16  16  16  16   4  16  16
#     4  11  22  38  63  94 130 162 198 255 316 377
#     4  12  20  36  58  86 126 164 204 251 306 375
#     4  11  22  36  55  89 127 161 203 245 299 373
#     4  11  23  42  68  94 125 164 209 259 316 391
#     4  11  23  37  58  89 122 160 203 253 316 379
#     4  12  20  28  62  92 116 156 206 264 316 368
#     4  12  22  36  58  85 117 158 203 259 308 361
#     4   9  20  40  61  79 106 151 206 260 312 362
#
# _framework density 18.881739
#
# number of rings (size 3 to 8) (size 9 to 14) (size 15 to 20)
#    0.000    0.966    5.517    3.310    0.000    2.621 
#    0.000    0.690    0.000    2.897    0.000    0.966 
#    0.000    0.000    0.000    0.000    0.000    0.000 
#
# Total GULP energy -646912.297246 kJ/mol
# GULP energy per Si atom -5576.830149 kJ/mol
# Density = 1.883876 g / cm^3
# Si number density = 18.881739 Si / 1000 Ang^3
#
#
#
# Elastic Constant Matrix: (Units=GPa)
#
#
# Indices 1 2 3 4 5 6 
#
# 1 77.6698 47.7125 42.1455 0.0000 0.0000 0.0000
# 2 47.7125 77.6698 42.1455 0.0000 0.0000 0.0000
# 3 42.1455 42.1455 117.2910 0.0000 0.0000 0.0000
# 4 0.0000 0.0000 0.0000 22.2109 0.0000 0.0000
# 5 0.0000 0.0000 0.0000 0.0000 22.2109 0.0000
# 6 0.0000 0.0000 0.0000 0.0000 0.0000 37.4221
#
#
#
# Elastic Compliance Matrix: (Units=1/GPa)
#
#
# Indices 1 2 3 4 5 6 
#
# 1 0.021948 -0.011432 -0.003779 0.000000 0.000000 0.000000
# 2 -0.011432 0.021948 -0.003779 0.000000 0.000000 0.000000
# 3 -0.003779 -0.003779 0.011241 0.000000 0.000000 0.000000
# 4 0.000000 0.000000 0.000000 0.045023 0.000000 0.000000
# 5 0.000000 0.000000 0.000000 0.000000 0.045023 0.000000
# 6 0.000000 0.000000 0.000000 0.000000 0.000000 0.026722
#
#
# Mechanical properties :
#
#
# Convention : Reuss Voigt Hill
#
# Bulk Modulus (GPa) = 58.27982 59.62638 58.95310
# Shear Modulus (GPa) = 23.19056 25.74392 24.46724
#
# Velocity S-wave (km/s) = 3.50837 3.69647 3.60365
# Velocity P-wave (km/s) = 6.88072 7.06158 6.97174
#
# Compressibility (1/GPa) = 0.01715860
#
# Stress axis : x y z
#
# Youngs Moduli (GPa) = 45.56157 45.56157 88.95773
#
# Poissons Ratio (x) = 0.52088 0.33614
# Poissons Ratio (y) = 0.52088 0.33614
# Poissons Ratio (z) = 0.17216 0.17216
#
# Static dielectric constant tensor:
#      x y z
#    x 1.691680 0.000000 0.000000 
#    y 0.000000 1.691680 0.000000 
#    z 0.000000 0.000000 1.667620 
# 
# From -- ./inp_files/6644.got.cif
#   From: 2010.05.17/outbox.cif.g08.bks.cpg/sg132_4_cif.got.tgz:6644.got - 2010.05.20 12:30:18.
