data_PCOD9567222
_publ_section_title
;
Structure prediction by ZEFSAII (Michael W. Deem and Ramdas Pophale) SiO2 
 PCOD9567222
Probable space group: P 42/M C M
;
_chemical_formula_sum "Si O2"
_cell_formula_units_Z 80
_cell_length_a 17.299438
_cell_length_b 17.299438
_cell_length_c 17.254453
_cell_angle_alpha 90.000000
_cell_angle_beta 90.000000
_cell_angle_gamma 90.000000
_cell_volume 5163.749728
_symmetry_space_group_name_H-M "P 42/M C M"
_symmetry_group_IT_number 132
_symmetry_cell_setting 'tetragonal'
loop_
_space_group_symop_operation_xyz
x,y,z
-y,x,1/2+z
-x,-y,z
y,-x,1/2+z
x,-y,1/2-z
-x,y,1/2-z
y,x,-z
-y,-x,-z
-x,-y,-z
y,-x,1/2-z
x,y,-z
-y,x,1/2-z
-x,y,1/2+z
x,-y,1/2+z
-y,-x,z
y,x,z
loop_
_atom_site_type_symbol
_atom_site_label
_atom_site_fract_x
_atom_site_fract_y
_atom_site_fract_z
Si Si1 0.354849 0.768066 0.910939
Si Si2 0.093547 0.413238 0.160671
Si Si3 0.652116 0.527063 0.338790
Si Si4 0.596473 0.923467 0.345456
Si Si5 0.381904 0.260600 0.907792
O O1 0.271466 0.728535 0.904550
O O2 0.411072 0.720606 0.853608
O O3 0.358393 0.857254 0.890029
O O4 0.381835 0.755733 0.000000
O O5 0.088597 0.504699 0.141880
O O6 0.089456 0.397872 0.252861
O O7 0.175907 0.387256 0.129023
O O8 0.010830 0.381190 0.131633
O O9 0.645318 0.500000 0.250000
O O10 0.573326 0.573326 0.361177
O O11 0.682312 0.452423 0.384747
O O12 0.304290 0.304290 0.882816
O O13 0.382818 0.252245 0.000000
#
# Coordination Sequence:
#
# PCOD9567222 Si02
#       5
#    16  16  16  16  16
#     4  10  20  32  48  72  98 122 152 194 242 286
#     4   9  18  32  49  72  94 118 157 196 233 280
#     4  11  22  35  49  64  85 119 166 209 242 277
#     4   9  17  31  52  72  93 119 153 197 236 279
#     4  11  23  35  47  67  96 126 158 197 237 280
#
# _framework density 15.492618
#
# number of rings (size 3 to 8) (size 9 to 14) (size 15 to 20)
#    0.000    2.000    2.000    3.600    0.000    5.800 
#    0.000    3.000    0.000    0.000    0.000    0.000 
#    0.000    0.800    0.000    8.800    0.000    6.400 
#
# Total GULP energy -445772.462239 kJ/mol
# GULP energy per Si atom -5572.155778 kJ/mol
# Density = 1.545736 g / cm^3
# Si number density = 15.492618 Si / 1000 Ang^3
#
#
#
# Elastic Constant Matrix: (Units=GPa)
#
#
# Indices 1 2 3 4 5 6 
#
# 1 105.8353 64.2640 35.4009 0.0000 0.0000 0.0000
# 2 64.2640 105.8353 35.4009 0.0000 0.0000 0.0000
# 3 35.4009 35.4009 20.1008 0.0000 0.0000 0.0000
# 4 0.0000 0.0000 0.0000 21.4423 0.0000 0.0000
# 5 0.0000 0.0000 0.0000 0.0000 21.4423 0.0000
# 6 0.0000 0.0000 0.0000 0.0000 0.0000 16.6287
#
#
#
# Elastic Compliance Matrix: (Units=1/GPa)
#
#
# Indices 1 2 3 4 5 6 
#
# 1 0.023039 -0.001016 -0.038787 0.000000 0.000000 0.000000
# 2 -0.001016 0.023039 -0.038787 0.000000 0.000000 0.000000
# 3 -0.038787 -0.038787 0.186371 0.000000 0.000000 0.000000
# 4 0.000000 0.000000 0.000000 0.046637 0.000000 0.000000
# 5 0.000000 0.000000 0.000000 0.000000 0.046637 0.000000
# 6 0.000000 0.000000 0.000000 0.000000 0.000000 0.060137
#
#
# Mechanical properties :
#
#
# Convention : Reuss Voigt Hill
#
# Bulk Modulus (GPa) = 13.28564 55.76699 34.52632
# Shear Modulus (GPa) = 8.80078 18.34972 13.57525
#
# Velocity S-wave (km/s) = 2.38599 3.44527 2.96335
# Velocity P-wave (km/s) = 4.02302 7.20420 5.83460
#
# Compressibility (1/GPa) = 0.07526923
#
# Stress axis : x y z
#
# Youngs Moduli (GPa) = 43.40400 43.40400 5.36563
#
# Poissons Ratio (x) = 0.04408 0.20812
# Poissons Ratio (y) = 0.04408 0.20812
# Poissons Ratio (z) = 1.68353 1.68353
#
# Static dielectric constant tensor:
#      x y z
#    x 1.516750 0.000000 0.000000 
#    y 0.000000 1.516750 0.000000 
#    z 0.000000 0.000000 1.535770 
# 
# From -- ./inp_files/4624.got.cif
#   From: 2010.05.17/outbox.cif.g08.bks.cpg/sg132_3_cif.got.tgz:4624.got - 2010.05.20 12:30:18.
