data_PCOD9567552
_publ_section_title
;
Structure prediction by ZEFSAII (Michael W. Deem and Ramdas Pophale) SiO2 
 PCOD9567552
Probable space group: P 42/M C M
;
_chemical_formula_sum "Si O2"
_cell_formula_units_Z 112
_cell_length_a 15.000000
_cell_length_b 15.000000
_cell_length_c 24.000000
_cell_angle_alpha 90.000000
_cell_angle_beta 90.000000
_cell_angle_gamma 90.000000
_cell_volume 5400.000000
_symmetry_space_group_name_H-M "P 42/M C M"
_symmetry_group_IT_number 132
_symmetry_cell_setting 'tetragonal'
loop_
_space_group_symop_operation_xyz
x,y,z
-y,x,1/2+z
-x,-y,z
y,-x,1/2+z
x,-y,1/2-z
-x,y,1/2-z
y,x,-z
-y,-x,-z
-x,-y,-z
y,-x,1/2-z
x,y,-z
-y,x,1/2-z
-x,y,1/2+z
x,-y,1/2+z
-y,-x,z
y,x,z
loop_
_atom_site_type_symbol
_atom_site_label
_atom_site_fract_x
_atom_site_fract_y
_atom_site_fract_z
Si Si1 0.002072 0.148906 0.686027
Si Si2 0.680467 0.051134 0.370163
Si Si3 0.805126 0.608427 0.062496
Si Si4 0.330465 0.817757 0.730764
Si Si5 0.096339 0.419179 0.563838
Si Si6 0.685467 0.450382 0.336902
Si Si7 0.778571 0.635722 0.346530
O O1 0.918420 0.081581 0.680296
O O2 0.997150 0.227166 0.641870
O O3 0.000000 0.183069 0.750000
O O4 0.089876 0.089876 0.679944
O O5 0.686381 0.132587 0.413948
O O6 0.659392 0.101970 0.312477
O O7 0.608591 0.982994 0.394981
O O8 0.869251 0.520839 0.063481
O O9 0.727233 0.587914 0.105667
O O10 0.774849 0.622485 0.000000
O O11 0.233811 0.766190 0.726832
O O12 0.400838 0.742992 0.710513
O O13 0.357810 0.844017 0.793359
O O14 0.075316 0.395102 0.500000
O O15 0.178626 0.370544 0.593144
O O16 0.584790 0.415211 0.331874
O O17 0.711384 0.553174 0.337555
O O18 0.724722 0.724722 0.341900
#
# Coordination Sequence:
#
# PCOD9567552 Si02
#       7
#    16  16  16  16  16  16  16
#     4   9  20  38  57  79 110 144 177 220 272 325
#     4  11  20  32  60  87 107 142 188 232 275 345
#     4   9  19  37  57  80 113 148 184 235 292 337
#     4   9  19  34  53  83 118 145 179 233 289 336
#     4  10  22  38  56  80 113 151 191 238 289 339
#     4   9  18  34  55  81 114 150 191 237 281 333
#     4  10  21  36  55  79 114 157 193 235 287 336
#
# _framework density 20.740741
#
# number of rings (size 3 to 8) (size 9 to 14) (size 15 to 20)
#    0.000    2.429    0.000    2.143    2.000    3.143 
#    0.000    0.000    3.143    9.000    0.000    8.000 
#    0.000    0.000    0.000    0.000    0.000    0.000 
#
# Total GULP energy -624308.924543 kJ/mol
# GULP energy per Si atom -5574.186826 kJ/mol
# Density = 2.069353 g / cm^3
# Si number density = 20.740741 Si / 1000 Ang^3
#
#
#
# Elastic Constant Matrix: (Units=GPa)
#
#
# Indices 1 2 3 4 5 6 
#
# 1 10.3015 49.0396 35.3377 0.0000 0.0000 0.0000
# 2 49.0396 10.3015 35.3377 0.0000 0.0000 0.0000
# 3 35.3377 35.3377 117.4125 0.0000 0.0000 0.0000
# 4 0.0000 0.0000 0.0000 12.2204 0.0000 0.0000
# 5 0.0000 0.0000 0.0000 0.0000 12.2204 0.0000
# 6 0.0000 0.0000 0.0000 0.0000 0.0000 18.7506
#
#
#
# Elastic Compliance Matrix: (Units=1/GPa)
#
#
# Indices 1 2 3 4 5 6 
#
# 1 0.000227 0.026041 -0.007906 0.000000 0.000000 0.000000
# 2 0.026041 0.000227 -0.007906 0.000000 0.000000 0.000000
# 3 -0.007906 -0.007906 0.013276 0.000000 0.000000 0.000000
# 4 0.000000 0.000000 0.000000 0.081831 0.000000 0.000000
# 5 0.000000 0.000000 0.000000 0.000000 0.081831 0.000000
# 6 0.000000 0.000000 0.000000 0.000000 0.000000 0.053332
#
#
# Mechanical properties :
#
#
# Convention : Reuss Voigt Hill
#
# Bulk Modulus (GPa) = 29.25024 41.93842 35.59433
# Shear Modulus (GPa) = 22.55716 9.85828 16.20772
#
# Velocity S-wave (km/s) = 3.30142 2.18253 2.79846
# Velocity P-wave (km/s) = 5.35406 5.15901 5.25744
#
# Compressibility (1/GPa) = 0.03418776
#
# Stress axis : x y z
#
# Youngs Moduli (GPa) = 4413.81340 4413.81340 75.32517
#
# Poissons Ratio (x) = -114.93973 0.59550
# Poissons Ratio (y) = -114.93973 0.59550
# Poissons Ratio (z) = 34.89447 34.89447
#
# Static dielectric constant tensor:
#      x y z
#    x 1.792410 0.000000 0.000000 
#    y 0.000000 1.792410 0.000000 
#    z 0.000000 0.000000 1.738630 
# 
# From -- ./inp_files/9112.got.cif
#   From: 2010.05.17/outbox.ucp.g08.bks.cvg/sg132_5_cif.got.tgz:9112.got - 2010.06.11 11:39:14.
