data_PCOD9567864
_publ_section_title
;
Structure prediction by ZEFSAII (Michael W. Deem and Ramdas Pophale) SiO2 
 PCOD9567864
Probable space group: P 42/N B C
;
_chemical_formula_sum "Si O2"
_cell_formula_units_Z 96
_cell_length_a 22.891920
_cell_length_b 22.891920
_cell_length_c 9.192475
_cell_angle_alpha 90.000000
_cell_angle_beta 90.000000
_cell_angle_gamma 90.000000
_cell_volume 4817.224611
_symmetry_space_group_name_H-M "P 42/N B C"
_symmetry_group_IT_number 133
_space_group.IT_coordinate_system_code '2'
_symmetry_cell_setting 'tetragonal'
loop_
_space_group_symop_operation_xyz
x,y,z
1/2-y,x,1/2+z
1/2-x,1/2-y,z
y,1/2-x,1/2+z
x,1/2-y,-z
1/2-x,y,-z
y,x,1/2-z
1/2-y,1/2-x,1/2-z
-x,-y,-z
1/2+y,-x,1/2-z
1/2+x,1/2+y,-z
-y,1/2+x,1/2-z
-x,1/2+y,z
1/2+x,-y,z
-y,-x,1/2+z
1/2+y,1/2+x,1/2+z
loop_
_atom_site_type_symbol
_atom_site_label
_atom_site_fract_x
_atom_site_fract_y
_atom_site_fract_z
Si Si1 0.139601 0.625418 0.573601
Si Si2 0.599078 0.688558 0.685184
Si Si3 0.295389 0.533113 0.871559
Si Si4 0.174816 0.092533 0.844003
Si Si5 0.313953 0.688690 0.185114
Si Si6 0.514692 0.207717 0.871203
O O1 0.077748 0.658271 0.557881
O O2 0.148840 0.637495 0.744211
O O3 0.185727 0.664249 0.479460
O O4 0.159236 0.558366 0.560320
O O5 0.651353 0.651353 0.750000
O O6 0.610605 0.758119 0.687855
O O7 0.595056 0.667965 0.518069
O O8 0.538868 0.681770 0.777544
O O9 0.328380 0.476407 0.811785
O O10 0.252060 0.549835 0.738021
O O11 0.250000 0.516286 0.000000
O O12 0.130809 0.130809 0.750000
O O13 0.246687 0.675853 0.219498
O O14 0.492595 0.250000 0.000000
#
# Coordination Sequence:
#
# PCOD9567864 Si02
#       6
#    16  16  16  16  16  16
#     4  12  22  35  59  84 120 172 226 266 318 389
#     4  10  23  42  68  98 131 165 202 261 322 399
#     4  11  21  41  63  86 130 177 219 277 329 389
#     4  10  22  43  69  98 127 166 207 254 329 400
#     4  11  22  34  50  80 119 159 212 285 345 378
#     4  11  23  39  59  94 131 173 226 271 333 392
#
# _framework density 19.928487000000001
#
# number of rings (size 3 to 8) (size 9 to 14) (size 15 to 20)
#    0.000    1.167    3.333    6.000    4.667    1.667 
#    0.000    4.167    0.000    2.000    0.000    0.000 
#    0.000    0.000    0.000    0.000    0.000    0.000 
#
# Total GULP energy -534603.781502 kJ/mol
# GULP energy per Si atom -5568.789391 kJ/mol
# Density = 1.988313 g / cm^3
# Si number density = 19.928487 Si / 1000 Ang^3
#
#
#
# Elastic Constant Matrix: (Units=GPa)
#
#
# Indices 1 2 3 4 5 6 
#
# 1 98.6708 66.9317 38.8243 0.0000 0.0000 0.0000
# 2 66.9317 98.6708 38.8243 0.0000 0.0000 0.0000
# 3 38.8243 38.8243 92.4123 0.0000 0.0000 0.0000
# 4 0.0000 0.0000 0.0000 34.8180 0.0000 0.0000
# 5 0.0000 0.0000 0.0000 0.0000 34.8180 0.0000
# 6 0.0000 0.0000 0.0000 0.0000 0.0000 31.4454
#
#
#
# Elastic Compliance Matrix: (Units=1/GPa)
#
#
# Indices 1 2 3 4 5 6 
#
# 1 0.019513 -0.011993 -0.003159 0.000000 0.000000 0.000000
# 2 -0.011993 0.019513 -0.003159 0.000000 0.000000 0.000000
# 3 -0.003159 -0.003159 0.013476 0.000000 0.000000 0.000000
# 4 0.000000 0.000000 0.000000 0.028721 0.000000 0.000000
# 5 0.000000 0.000000 0.000000 0.000000 0.028721 0.000000
# 6 0.000000 0.000000 0.000000 0.000000 0.000000 0.031801
#
#
# Mechanical properties :
#
#
# Convention : Reuss Voigt Hill
#
# Bulk Modulus (GPa) = 62.97882 64.32382 63.65132
# Shear Modulus (GPa) = 27.22394 29.89452 28.55923
#
# Velocity S-wave (km/s) = 3.70006 3.87730 3.78972
# Velocity P-wave (km/s) = 7.06576 7.23823 7.15252
#
# Compressibility (1/GPa) = 0.01587835
#
# Stress axis : x y z
#
# Youngs Moduli (GPa) = 51.24690 51.24690 74.20814
#
# Poissons Ratio (x) = 0.61463 0.23444
# Poissons Ratio (y) = 0.61463 0.23444
# Poissons Ratio (z) = 0.16190 0.16190
#
# Static dielectric constant tensor:
#      x y z
#    x 1.734960 0.000000 0.000000 
#    y 0.000000 1.734960 0.000000 
#    z 0.000000 0.000000 1.753100 
# 
# From -- ./inp_files/1912.got.cif
#   From: 2010.05.17/outbox.cif.g08.bks.cpg/sg133_1_cif.got.tgz:1912.got - 2010.05.20 12:37:36.
