data_PCOD9567779
_publ_section_title
;
Structure prediction by ZEFSAII (Michael W. Deem and Ramdas Pophale) SiO2 
 PCOD9567779
Probable space group: P 42/N B C
;
_chemical_formula_sum "Si O2"
_cell_formula_units_Z 96
_cell_length_a 15.315418
_cell_length_b 15.315418
_cell_length_c 19.856452
_cell_angle_alpha 90.000000
_cell_angle_beta 90.000000
_cell_angle_gamma 90.000000
_cell_volume 4657.569660
_symmetry_space_group_name_H-M "P 42/N B C"
_symmetry_group_IT_number 133
_space_group.IT_coordinate_system_code '2'
_symmetry_cell_setting 'tetragonal'
loop_
_space_group_symop_operation_xyz
x,y,z
1/2-y,x,1/2+z
1/2-x,1/2-y,z
y,1/2-x,1/2+z
x,1/2-y,-z
1/2-x,y,-z
y,x,1/2-z
1/2-y,1/2-x,1/2-z
-x,-y,-z
1/2+y,-x,1/2-z
1/2+x,1/2+y,-z
-y,1/2+x,1/2-z
-x,1/2+y,z
1/2+x,-y,z
-y,-x,1/2+z
1/2+y,1/2+x,1/2+z
loop_
_atom_site_type_symbol
_atom_site_label
_atom_site_fract_x
_atom_site_fract_y
_atom_site_fract_z
Si Si1 0.731630 0.486981 0.429339
Si Si2 0.004299 0.229320 0.643108
Si Si3 0.577548 0.436838 0.583078
Si Si4 0.754353 0.891046 0.730722
Si Si5 0.090596 0.558185 0.922070
Si Si6 0.808289 0.834723 0.409644
O O1 0.750000 0.437972 0.500000
O O2 0.827926 0.475997 0.399625
O O3 0.652970 0.436845 0.393662
O O4 0.686189 0.579548 0.455475
O O5 0.025593 0.241998 0.722349
O O6 0.098150 0.201791 0.610578
O O7 0.942150 0.148592 0.626938
O O8 0.972997 0.317643 0.607617
O O9 0.564009 0.410052 0.504037
O O10 0.508402 0.513587 0.596838
O O11 0.845085 0.845085 0.750000
O O12 0.678872 0.821129 0.750000
O O13 0.739289 0.888170 0.651142
O O14 0.750000 0.750000 0.426556
#
# Coordination Sequence:
#
# PCOD9567779 Si02
#       6
#    16  16  16  16  16  16
#     4  10  22  39  58  84 126 163 190 248 309 357
#     4  11  20  35  60  82 113 160 200 239 303 354
#     4  10  21  37  57  87 123 157 196 249 298 363
#     4   9  17  33  54  83 115 144 190 254 300 340
#     4  10  21  38  56  87 125 153 200 246 300 365
#     4  11  19  36  59  87 117 149 201 256 304 347
#
# _framework density 20.611608
#
# number of rings (size 3 to 8) (size 9 to 14) (size 15 to 20)
#    0.000    1.833    5.000    1.500    0.000    1.000 
#    3.000    4.167    0.000    0.000    0.000    2.333 
#    0.000    0.000    0.000    0.000    0.000    0.000 
#
# Total GULP energy -534455.695709 kJ/mol
# GULP energy per Si atom -5567.246830 kJ/mol
# Density = 2.056470 g / cm^3
# Si number density = 20.611608 Si / 1000 Ang^3
#
#
#
# Elastic Constant Matrix: (Units=GPa)
#
#
# Indices 1 2 3 4 5 6 
#
# 1 140.2382 67.3368 18.2737 0.0000 0.0000 0.0000
# 2 67.3368 140.2379 18.2737 0.0000 0.0000 0.0000
# 3 18.2737 18.2737 17.0183 0.0000 0.0000 0.0000
# 4 0.0000 0.0000 0.0000 25.9872 0.0000 0.0000
# 5 0.0000 0.0000 0.0000 0.0000 25.9858 0.0000
# 6 0.0000 0.0000 0.0000 0.0000 0.0000 28.2780
#
#
#
# Elastic Compliance Matrix: (Units=1/GPa)
#
#
# Indices 1 2 3 4 5 6 
#
# 1 0.009829 -0.003888 -0.006379 0.000000 0.000000 0.000000
# 2 -0.003888 0.009829 -0.006379 0.000000 0.000000 0.000000
# 3 -0.006379 -0.006379 0.072459 0.000000 0.000000 0.000000
# 4 0.000000 0.000000 0.000000 0.038480 0.000000 0.000000
# 5 0.000000 0.000000 0.000000 0.000000 0.038482 0.000000
# 6 0.000000 0.000000 0.000000 0.000000 0.000000 0.035363
#
#
# Mechanical properties :
#
#
# Convention : Reuss Voigt Hill
#
# Bulk Modulus (GPa) = 16.99957 56.14030 36.56993
# Shear Modulus (GPa) = 19.42926 28.95755 24.19341
#
# Velocity S-wave (km/s) = 3.07357 3.75229 3.42976
# Velocity P-wave (km/s) = 4.56741 6.78743 5.78491
#
# Compressibility (1/GPa) = 0.05882502
#
# Stress axis : x y z
#
# Youngs Moduli (GPa) = 101.74065 101.74045 13.80085
#
# Poissons Ratio (x) = 0.39559 0.08803
# Poissons Ratio (y) = 0.39559 0.08803
# Poissons Ratio (z) = 0.64899 0.64899
#
# Static dielectric constant tensor:
#      x y z
#    x 1.669520 0.000000 0.000000 
#    y 0.000000 1.669530 0.000000 
#    z 0.000000 0.000000 1.767810 
# 
# From -- ./inp_files/6505.got.cif
#   From: 2010.05.17/outbox.cif.g08.bks.cpg/sg133_4_cif.got.tgz:6505.got - 2010.05.20 12:37:36.
