data_PCOD9567036
_publ_section_title
;
Structure prediction by ZEFSAII (Michael W. Deem and Ramdas Pophale) SiO2 
 PCOD9567036
Probable space group: P 42/M C M
;
_chemical_formula_sum "Si O2"
_cell_formula_units_Z 64
_cell_length_a 20.653464
_cell_length_b 20.653464
_cell_length_c 8.063221
_cell_angle_alpha 90.000000
_cell_angle_beta 90.000000
_cell_angle_gamma 90.000000
_cell_volume 3439.492504
_symmetry_space_group_name_H-M "P 42/M C M"
_symmetry_group_IT_number 132
_symmetry_cell_setting 'tetragonal'
loop_
_space_group_symop_operation_xyz
x,y,z
-y,x,1/2+z
-x,-y,z
y,-x,1/2+z
x,-y,1/2-z
-x,y,1/2-z
y,x,-z
-y,-x,-z
-x,-y,-z
y,-x,1/2-z
x,y,-z
-y,x,1/2-z
-x,y,1/2+z
x,-y,1/2+z
-y,-x,z
y,x,z
loop_
_atom_site_type_symbol
_atom_site_label
_atom_site_fract_x
_atom_site_fract_y
_atom_site_fract_z
Si Si1 0.685245 0.583101 0.500000
Si Si2 0.412184 0.838928 0.000000
Si Si3 0.602401 0.500000 0.750000
Si Si4 0.156955 0.256901 0.500000
Si Si5 0.744677 0.071862 0.311213
Si Si6 0.587348 0.927364 0.809851
O O1 0.656345 0.656345 0.500000
O O2 0.762240 0.574530 0.500000
O O3 0.650610 0.545141 0.648489
O O4 0.334124 0.844039 0.000000
O O5 0.433293 0.876617 0.167520
O O6 0.552180 0.447821 0.672244
O O7 0.228086 0.228086 0.500000
O O8 0.120649 0.234451 0.667001
O O9 0.766910 0.084217 0.500000
O O10 0.665993 0.074558 0.314940
O O11 0.762204 0.000000 0.250000
O O12 0.570820 0.000000 0.750000
O O13 0.565647 0.915915 0.000000
#
# Coordination Sequence:
#
# PCOD9567036 Si02
#       6
#     8   8   8   8  16  16
#     4  10  20  36  58  86 118 146 177 228 303 365
#     4  10  19  31  48  77 116 149 178 220 272 331
#     4   9  18  36  64  90 109 138 186 238 281 340
#     4  10  19  28  41  64 100 135 158 191 254 324
#     4   9  15  25  42  61  83 120 166 213 251 288
#     4   9  15  26  46  72 103 143 194 233 256 299
#
# _framework density 18.607396000000001
#
# number of rings (size 3 to 8) (size 9 to 14) (size 15 to 20)
#    0.000    2.625    2.500    0.750    0.000    2.000 
#    2.250    0.000    0.000    1.500    0.000    2.625 
#    0.000    1.500    0.000    0.000    0.000    0.000 
#
# Total GULP energy -356274.166117 kJ/mol
# GULP energy per Si atom -5566.783846 kJ/mol
# Density = 1.856504 g / cm^3
# Si number density = 18.607396 Si / 1000 Ang^3
#
#
#
# Elastic Constant Matrix: (Units=GPa)
#
#
# Indices 1 2 3 4 5 6 
#
# 1 106.7254 23.8673 60.7447 0.0000 0.0000 0.0000
# 2 23.8673 106.7254 60.7447 0.0000 0.0000 0.0000
# 3 60.7447 60.7447 183.5674 0.0000 0.0000 0.0000
# 4 0.0000 0.0000 0.0000 2.3748 0.0000 0.0000
# 5 0.0000 0.0000 0.0000 0.0000 2.3748 0.0000
# 6 0.0000 0.0000 0.0000 0.0000 0.0000 5.3601
#
#
#
# Elastic Compliance Matrix: (Units=1/GPa)
#
#
# Indices 1 2 3 4 5 6 
#
# 1 0.011566 -0.000503 -0.003661 0.000000 0.000000 0.000000
# 2 -0.000503 0.011566 -0.003661 0.000000 0.000000 0.000000
# 3 -0.003661 -0.003661 0.007870 0.000000 0.000000 0.000000
# 4 0.000000 0.000000 0.000000 0.421080 0.000000 0.000000
# 5 0.000000 0.000000 0.000000 0.000000 0.421080 0.000000
# 6 0.000000 0.000000 0.000000 0.000000 0.000000 0.186564
#
#
# Mechanical properties :
#
#
# Convention : Reuss Voigt Hill
#
# Bulk Modulus (GPa) = 65.13371 76.41463 70.77417
# Shear Modulus (GPa) = 4.62751 18.79938 11.71345
#
# Velocity S-wave (km/s) = 1.57871 3.18200 2.51172
# Velocity P-wave (km/s) = 6.19704 7.39298 6.82127
#
# Compressibility (1/GPa) = 0.01535303
#
# Stress axis : x y z
#
# Youngs Moduli (GPa) = 86.46045 86.46045 127.05706
#
# Poissons Ratio (x) = 0.04348 0.46515
# Poissons Ratio (y) = 0.04348 0.46515
# Poissons Ratio (z) = 0.31653 0.31653
#
# Static dielectric constant tensor:
#      x y z
#    x 1.629220 0.000000 0.000000 
#    y 0.000000 1.629220 0.000000 
#    z 0.000000 0.000000 1.763650 
# 
# From -- ./inp_files/1315.got.cif
#   From: 2010.05.17/outbox.cif.g08.bks.cpg/sg132_1_cif.got.tgz:1315.got - 2010.05.20 12:30:18.
