data_PCOD9567370
_publ_section_title
;
Structure prediction by ZEFSAII (Michael W. Deem and Ramdas Pophale) SiO2 
 PCOD9567370
Probable space group: P 42/M C M
;
_chemical_formula_sum "Si O2"
_cell_formula_units_Z 88
_cell_length_a 17.498037
_cell_length_b 17.498037
_cell_length_c 14.686984
_cell_angle_alpha 90.000000
_cell_angle_beta 90.000000
_cell_angle_gamma 90.000000
_cell_volume 4496.879837
_symmetry_space_group_name_H-M "P 42/M C M"
_symmetry_group_IT_number 132
_symmetry_cell_setting 'tetragonal'
loop_
_space_group_symop_operation_xyz
x,y,z
-y,x,1/2+z
-x,-y,z
y,-x,1/2+z
x,-y,1/2-z
-x,y,1/2-z
y,x,-z
-y,-x,-z
-x,-y,-z
y,-x,1/2-z
x,y,-z
-y,x,1/2-z
-x,y,1/2+z
x,-y,1/2+z
-y,-x,z
y,x,z
loop_
_atom_site_type_symbol
_atom_site_label
_atom_site_fract_x
_atom_site_fract_y
_atom_site_fract_z
Si Si1 0.881454 0.548647 0.110422
Si Si2 0.997489 0.126435 0.000000
Si Si3 0.679185 0.799072 0.198690
Si Si4 0.932701 0.805250 0.821180
Si Si5 0.605817 0.955939 0.608140
Si Si6 0.284838 0.167696 0.395161
O O1 0.814696 0.597495 0.154874
O O2 0.896564 0.460544 0.136672
O O3 0.960282 0.589288 0.144247
O O4 0.874881 0.553051 0.000000
O O5 0.022949 0.176279 0.914159
O O6 0.055751 0.055751 0.000000
O O7 0.913431 0.086570 0.000000
O O8 0.725214 0.725214 0.164190
O O9 0.735183 0.872023 0.177032
O O10 0.675502 0.792990 0.308573
O O11 0.879374 0.879374 0.799954
O O12 0.000000 0.795167 0.750000
O O13 0.594056 0.964724 0.500000
O O14 0.688223 0.918847 0.619685
O O15 0.308759 0.185748 0.500000
O O16 0.197700 0.197700 0.388440
#
# Coordination Sequence:
#
# PCOD9567370 Si02
#       6
#    16   8  16  16  16  16
#     4   9  18  32  52  76 103 132 160 206 252 298
#     4   9  18  34  54  68  80 109 154 206 261 300
#     4  10  22  34  46  71 100 132 170 200 246 306
#     4  10  21  35  49  67  89 116 157 208 251 294
#     4   8  16  32  53  78 100 125 167 204 249 305
#     4   9  18  34  52  69  97 131 162 206 250 292
#
# _framework density 19.569123000000001
#
# number of rings (size 3 to 8) (size 9 to 14) (size 15 to 20)
#    0.000    2.818    0.000    1.636    3.818    2.000 
#    1.636    1.818    0.000    0.000    0.000    0.000 
#    0.000    0.727    0.000   11.091    0.000   18.364 
#
# Total GULP energy -490180.553071 kJ/mol
# GULP energy per Si atom -5570.233558 kJ/mol
# Density = 1.952458 g / cm^3
# Si number density = 19.569123 Si / 1000 Ang^3
#
#
#
# Elastic Constant Matrix: (Units=GPa)
#
#
# Indices 1 2 3 4 5 6 
#
# 1 64.5519 59.3455 20.9786 0.0000 0.0000 0.0000
# 2 59.3455 64.5512 20.9782 0.0000 0.0000 0.0000
# 3 20.9786 20.9782 91.6083 0.0000 0.0000 0.0000
# 4 0.0000 0.0000 0.0000 20.8362 0.0000 0.0000
# 5 0.0000 0.0000 0.0000 0.0000 20.8362 0.0000
# 6 0.0000 0.0000 0.0000 0.0000 0.0000 38.9243
#
#
#
# Elastic Compliance Matrix: (Units=1/GPa)
#
#
# Indices 1 2 3 4 5 6 
#
# 1 0.100415 -0.091666 -0.002004 0.000000 0.000000 0.000000
# 2 -0.091666 0.100416 -0.002003 0.000000 0.000000 0.000000
# 3 -0.002004 -0.002003 0.011834 0.000000 0.000000 0.000000
# 4 0.000000 0.000000 0.000000 0.047993 0.000000 0.000000
# 5 0.000000 0.000000 0.000000 0.000000 0.047993 0.000000
# 6 0.000000 0.000000 0.000000 0.000000 0.000000 0.025691
#
#
# Mechanical properties :
#
#
# Convention : Reuss Voigt Hill
#
# Bulk Modulus (GPa) = 46.90776 47.03513 46.97145
# Shear Modulus (GPa) = 9.38445 24.07994 16.73220
#
# Velocity S-wave (km/s) = 2.19225 3.51166 2.92726
# Velocity P-wave (km/s) = 5.51636 6.36631 5.95652
#
# Compressibility (1/GPa) = 0.02131843
#
# Stress axis : x y z
#
# Youngs Moduli (GPa) = 9.95863 9.95855 84.50406
#
# Poissons Ratio (x) = 0.91286 0.16935
# Poissons Ratio (y) = 0.91287 0.16929
# Poissons Ratio (z) = 0.01996 0.01995
#
# Static dielectric constant tensor:
#      x y z
#    x 1.709530 0.000000 0.000000 
#    y 0.000000 1.709530 0.000000 
#    z 0.000000 0.000000 1.774590 
# 
# From -- ./inp_files/4755.got.cif
#   From: 2010.05.17/outbox.cif.g08.bks.cpg/sg132_3_cif.got.tgz:4755.got - 2010.05.20 12:30:18.
