data_PCOD9567913
_publ_section_title
;
Structure prediction by ZEFSAII (Michael W. Deem and Ramdas Pophale) SiO2 
 PCOD9567913
Probable space group: P 42/N B C
;
_chemical_formula_sum "Si O2"
_cell_formula_units_Z 60
_cell_length_a 13.455715
_cell_length_b 13.455715
_cell_length_c 14.804350
_cell_angle_alpha 90.000000
_cell_angle_beta 90.000000
_cell_angle_gamma 90.000000
_cell_volume 2680.420334
_symmetry_space_group_name_H-M "P 42/N B C"
_symmetry_group_IT_number 133
_space_group.IT_coordinate_system_code '2'
_symmetry_cell_setting 'tetragonal'
loop_
_space_group_symop_operation_xyz
x,y,z
1/2-y,x,1/2+z
1/2-x,1/2-y,z
y,1/2-x,1/2+z
x,1/2-y,-z
1/2-x,y,-z
y,x,1/2-z
1/2-y,1/2-x,1/2-z
-x,-y,-z
1/2+y,-x,1/2-z
1/2+x,1/2+y,-z
-y,1/2+x,1/2-z
-x,1/2+y,z
1/2+x,-y,z
-y,-x,1/2+z
1/2+y,1/2+x,1/2+z
loop_
_atom_site_type_symbol
_atom_site_label
_atom_site_fract_x
_atom_site_fract_y
_atom_site_fract_z
Si Si1 0.750000 0.250000 0.000000
Si Si2 0.105670 0.690227 0.864860
Si Si3 0.756229 0.028468 0.173074
Si Si4 0.078723 0.421278 0.750000
Si Si5 0.041127 0.466986 0.095242
O O1 0.838511 0.274051 0.923525
O O2 0.095159 0.707526 0.758143
O O3 0.179882 0.597010 0.882544
O O4 0.998681 0.645773 0.891335
O O5 0.689729 0.944278 0.220689
O O6 0.843025 0.982013 0.114038
O O7 0.009514 0.459563 0.831496
O O8 0.000000 0.500000 0.000000
#
# Coordination Sequence:
#
# PCOD9567913 Si02
#       5
#     4  16  16   8  16
#     4  12  24  34  60 112 126 182 234 296 358 436
#     4  11  23  37  64  95 134 169 225 288 347 413
#     4  11  20  43  63  94 134 181 227 287 361 421
#     4  10  24  40  63  97 132 182 228 286 350 424
#     4  11  22  41  64  93 136 175 223 287 356 415
#
# _framework density 22.384547999999999
#
# number of rings (size 3 to 8) (size 9 to 14) (size 15 to 20)
#    0.000    1.067    5.333    3.200    3.733    3.200 
#    0.000    2.667    0.000    0.000    0.000    0.000 
#    0.000    0.000    0.000    0.000    0.000    0.000 
#
# Total GULP energy -334154.838896 kJ/mol
# GULP energy per Si atom -5569.247315 kJ/mol
# Density = 2.233360 g / cm^3
# Si number density = 22.384548 Si / 1000 Ang^3
#
#
#
# Elastic Constant Matrix: (Units=GPa)
#
#
# Indices 1 2 3 4 5 6 
#
# 1 95.0414 40.5019 11.6690 0.0000 0.0000 0.0000
# 2 40.5019 95.0397 11.6689 0.0000 0.0000 0.0000
# 3 11.6690 11.6689 114.9481 0.0000 0.0000 0.0000
# 4 0.0000 0.0000 0.0000 13.0565 0.0000 0.0000
# 5 0.0000 0.0000 0.0000 0.0000 13.0557 0.0000
# 6 0.0000 0.0000 0.0000 0.0000 0.0000 51.8109
#
#
#
# Elastic Compliance Matrix: (Units=1/GPa)
#
#
# Indices 1 2 3 4 5 6 
#
# 1 0.012922 -0.005413 -0.000762 0.000000 0.000000 0.000000
# 2 -0.005413 0.012922 -0.000762 0.000000 0.000000 0.000000
# 3 -0.000762 -0.000762 0.008854 0.000000 0.000000 0.000000
# 4 0.000000 0.000000 0.000000 0.076590 0.000000 0.000000
# 5 0.000000 0.000000 0.000000 0.000000 0.076595 0.000000
# 6 0.000000 0.000000 0.000000 0.000000 0.000000 0.019301
#
#
# Mechanical properties :
#
#
# Convention : Reuss Voigt Hill
#
# Bulk Modulus (GPa) = 48.02322 48.07876 48.05099
# Shear Modulus (GPa) = 21.92964 31.66390 26.79677
#
# Velocity S-wave (km/s) = 3.13338 3.76512 3.46368
# Velocity P-wave (km/s) = 5.88141 6.35820 6.12445
#
# Compressibility (1/GPa) = 0.02082326
#
# Stress axis : x y z
#
# Youngs Moduli (GPa) = 77.38616 77.38476 112.93889
#
# Poissons Ratio (x) = 0.41891 0.08609
# Poissons Ratio (y) = 0.41892 0.08609
# Poissons Ratio (z) = 0.05899 0.05899
#
# Static dielectric constant tensor:
#      x y z
#    x 1.917470 0.000000 0.000000 
#    y 0.000000 1.917470 0.000000 
#    z 0.000000 0.000000 1.870930 
# 
# From -- ./inp_files/4180.got.cif
#   From: 2010.05.17/outbox.cif.g08.bks.cpg/sg133_3_cif.got.tgz:4180.got - 2010.05.20 12:37:36.
