data_PCOD9567397
_publ_section_title
;
Structure prediction by ZEFSAII (Michael W. Deem and Ramdas Pophale) SiO2 
 PCOD9567397
Probable space group: P 42/M C M
;
_chemical_formula_sum "Si O2"
_cell_formula_units_Z 104
_cell_length_a 16.074196
_cell_length_b 16.074196
_cell_length_c 21.307152
_cell_angle_alpha 90.000000
_cell_angle_beta 90.000000
_cell_angle_gamma 90.000000
_cell_volume 5505.337183
_symmetry_space_group_name_H-M "P 42/M C M"
_symmetry_group_IT_number 132
_symmetry_cell_setting 'tetragonal'
loop_
_space_group_symop_operation_xyz
x,y,z
-y,x,1/2+z
-x,-y,z
y,-x,1/2+z
x,-y,1/2-z
-x,y,1/2-z
y,x,-z
-y,-x,-z
-x,-y,-z
y,-x,1/2-z
x,y,-z
-y,x,1/2-z
-x,y,1/2+z
x,-y,1/2+z
-y,-x,z
y,x,z
loop_
_atom_site_type_symbol
_atom_site_label
_atom_site_fract_x
_atom_site_fract_y
_atom_site_fract_z
Si Si1 0.078193 0.562407 0.429287
Si Si2 0.140597 0.722097 0.224706
Si Si3 0.480327 0.739573 0.074074
Si Si4 0.971473 0.287383 0.655284
Si Si5 0.866363 0.992800 0.428274
Si Si6 0.413698 0.278651 0.711246
Si Si7 0.567470 0.567470 0.925227
O O1 0.075166 0.598490 0.500000
O O2 0.168111 0.519004 0.422951
O O3 0.000000 0.500000 0.424324
O O4 0.065316 0.631768 0.377388
O O5 0.198811 0.801190 0.208655
O O6 0.067294 0.699761 0.176164
O O7 0.202795 0.644825 0.233038
O O8 0.087988 0.737523 0.287561
O O9 0.421594 0.731865 0.135239
O O10 0.543390 0.662768 0.087792
O O11 0.451236 0.728669 0.000000
O O12 0.975292 0.212033 0.607731
O O13 0.844312 0.974258 0.500000
O O14 0.910940 0.910940 0.400488
O O15 0.936088 0.063913 0.428456
O O16 0.500000 0.277038 0.750000
O O17 0.364071 0.364071 0.723553
O O18 0.500000 0.500000 0.898636
O O19 0.560361 0.560361 0.000000
#
# Coordination Sequence:
#
# PCOD9567397 Si02
#       7
#    16  16  16  16  16  16   8
#     4  10  21  37  58  86 118 152 194 242 294 355
#     4  10  23  39  56  82 113 149 195 248 292 345
#     4  10  21  39  62  88 119 157 201 250 298 357
#     4  11  20  36  60  80 110 153 198 237 290 355
#     4   9  18  33  54  83 117 149 185 236 295 353
#     4  11  24  41  60  85 119 153 192 241 300 362
#     4   9  18  34  58  86 116 152 196 248 302 358
#
# _framework density 18.890758000000002
#
# number of rings (size 3 to 8) (size 9 to 14) (size 15 to 20)
#    0.000    1.923    0.000    4.154    1.077    1.077 
#    2.769    2.308    0.000    5.538    0.000    0.000 
#    0.000    0.000    0.000    0.000    0.000    0.000 
#
# Total GULP energy -579569.626935 kJ/mol
# GULP energy per Si atom -5572.784874 kJ/mol
# Density = 1.884776 g / cm^3
# Si number density = 18.890758 Si / 1000 Ang^3
#
#
#
# Elastic Constant Matrix: (Units=GPa)
#
#
# Indices 1 2 3 4 5 6 
#
# 1 105.5368 29.4692 23.0866 0.0000 0.0000 0.0000
# 2 29.4692 105.5368 23.0866 0.0000 0.0000 0.0000
# 3 23.0866 23.0866 57.2223 0.0000 0.0000 0.0000
# 4 0.0000 0.0000 0.0000 31.3742 0.0000 0.0000
# 5 0.0000 0.0000 0.0000 0.0000 31.3742 0.0000
# 6 0.0000 0.0000 0.0000 0.0000 0.0000 18.6271
#
#
#
# Elastic Compliance Matrix: (Units=1/GPa)
#
#
# Indices 1 2 3 4 5 6 
#
# 1 0.010869 -0.002277 -0.003467 0.000000 0.000000 0.000000
# 2 -0.002277 0.010869 -0.003467 0.000000 0.000000 0.000000
# 3 -0.003467 -0.003467 0.020273 0.000000 0.000000 0.000000
# 4 0.000000 0.000000 0.000000 0.031873 0.000000 0.000000
# 5 0.000000 0.000000 0.000000 0.000000 0.031873 0.000000
# 6 0.000000 0.000000 0.000000 0.000000 0.000000 0.053685
#
#
# Mechanical properties :
#
#
# Convention : Reuss Voigt Hill
#
# Bulk Modulus (GPa) = 42.38826 46.62007 44.50417
# Shear Modulus (GPa) = 26.92106 29.11866 28.01986
#
# Velocity S-wave (km/s) = 3.77913 3.93036 3.85549
# Velocity P-wave (km/s) = 6.44436 6.73270 6.59011
#
# Compressibility (1/GPa) = 0.02359144
#
# Stress axis : x y z
#
# Youngs Moduli (GPa) = 92.00072 92.00072 49.32653
#
# Poissons Ratio (x) = 0.20946 0.17100
# Poissons Ratio (y) = 0.20946 0.17100
# Poissons Ratio (z) = 0.31895 0.31895
#
# Static dielectric constant tensor:
#      x y z
#    x 1.643410 0.000000 0.000000 
#    y 0.000000 1.643410 0.000000 
#    z 0.000000 0.000000 1.680760 
# 
# From -- ./inp_files/9123.got.cif
#   From: 2010.05.17/outbox.cif.g08.bks.cpg/sg132_5_cif.got.tgz:9123.got - 2010.05.20 12:30:18.
