data_PCOD9567765
_publ_section_title
;
Structure prediction by ZEFSAII (Michael W. Deem and Ramdas Pophale) SiO2 
 PCOD9567765
Probable space group: P 42/N B C
;
_chemical_formula_sum "Si O2"
_cell_formula_units_Z 88
_cell_length_a 14.342924
_cell_length_b 14.342924
_cell_length_c 19.905757
_cell_angle_alpha 90.000000
_cell_angle_beta 90.000000
_cell_angle_gamma 90.000000
_cell_volume 4095.001757
_symmetry_space_group_name_H-M "P 42/N B C"
_symmetry_group_IT_number 133
_space_group.IT_coordinate_system_code '2'
_symmetry_cell_setting 'tetragonal'
loop_
_space_group_symop_operation_xyz
x,y,z
1/2-y,x,1/2+z
1/2-x,1/2-y,z
y,1/2-x,1/2+z
x,1/2-y,-z
1/2-x,y,-z
y,x,1/2-z
1/2-y,1/2-x,1/2-z
-x,-y,-z
1/2+y,-x,1/2-z
1/2+x,1/2+y,-z
-y,1/2+x,1/2-z
-x,1/2+y,z
1/2+x,-y,z
-y,-x,1/2+z
1/2+y,1/2+x,1/2+z
loop_
_atom_site_type_symbol
_atom_site_label
_atom_site_fract_x
_atom_site_fract_y
_atom_site_fract_z
Si Si1 0.250000 0.750000 0.250000
Si Si2 0.433426 0.849111 0.271612
Si Si3 0.750000 0.750000 0.250000
Si Si4 0.209107 0.071561 0.347487
Si Si5 0.567405 0.567405 0.250000
Si Si6 0.040794 0.250000 0.500000
Si Si7 0.907464 0.984817 0.907522
Si Si8 0.096735 0.099537 0.897245
O O1 0.341716 0.789177 0.286255
O O2 0.490071 0.814948 0.206298
O O3 0.494348 0.855245 0.337665
O O4 0.412836 0.958699 0.262126
O O5 0.662473 0.768112 0.198684
O O6 0.125689 0.081861 0.400371
O O7 0.298894 0.052106 0.392478
O O8 0.622340 0.582775 0.181170
O O9 0.985994 0.333157 0.536649
O O10 0.094833 0.312250 0.444047
O O11 0.010129 0.030242 0.913660
#
# Coordination Sequence:
#
# PCOD9567765 Si02
#       8
#     4  16   4  16   8   8  16  16
#     4  12  28  32  72 114 152 168 244 296 390 424
#     4  11  21  44  66 108 141 182 227 313 361 431
#     4  12  20  36  64 110 136 176 220 306 364 426
#     4  12  22  40  73 102 142 176 239 299 371 422
#     4  10  20  44  72  96 138 182 238 298 362 419
#     4  12  28  45  68  99 144 194 240 289 366 449
#     4  11  24  46  67  96 142 191 235 291 363 438
#     4  11  25  42  68  99 137 181 237 297 358 429
#
# _framework density 21.489612999999999
#
# number of rings (size 3 to 8) (size 9 to 14) (size 15 to 20)
#    0.000    0.727    5.455    4.364    5.091    1.455 
#    0.000    0.000    0.000    3.818    0.000    0.000 
#    0.000    0.000    0.000    0.000    0.000    0.000 
#
# Total GULP energy -490451.408176 kJ/mol
# GULP energy per Si atom -5573.311457 kJ/mol
# Density = 2.144070 g / cm^3
# Si number density = 21.489613 Si / 1000 Ang^3
#
#
#
# Elastic Constant Matrix: (Units=GPa)
#
#
# Indices 1 2 3 4 5 6 
#
# 1 333.1738 -220.1626 19.8644 0.0000 0.0000 0.0000
# 2 -220.1626 333.1738 19.8644 0.0000 0.0000 0.0000
# 3 19.8644 19.8644 72.9722 0.0000 0.0000 0.0000
# 4 0.0000 0.0000 0.0000 -6.8652 0.0000 0.0000
# 5 0.0000 0.0000 0.0000 0.0000 -6.8652 0.0000
# 6 0.0000 0.0000 0.0000 0.0000 0.0000 27.0155
#
#
#
# Elastic Compliance Matrix: (Units=1/GPa)
#
#
# Indices 1 2 3 4 5 6 
#
# 1 0.005796 0.003989 -0.002664 0.000000 0.000000 0.000000
# 2 0.003989 0.005796 -0.002664 0.000000 0.000000 0.000000
# 3 -0.002664 -0.002664 0.015154 0.000000 0.000000 0.000000
# 4 0.000000 0.000000 0.000000 -0.145663 0.000000 0.000000
# 5 0.000000 0.000000 0.000000 0.000000 -0.145663 0.000000
# 6 0.000000 0.000000 0.000000 0.000000 0.000000 0.037016
#
#
# Mechanical properties :
#
#
# Convention : Reuss Voigt Hill
#
# Bulk Modulus (GPa) = 41.54638 42.05028 41.79833
# Shear Modulus (GPa) = -23.05593 63.97395 20.45901
#
# Velocity S-wave (km/s) = -3.27905 5.46208 3.08886
# Velocity P-wave (km/s) = 2.24477 7.70645 5.67575
#
# Compressibility (1/GPa) = 0.02406948
#
# Stress axis : x y z
#
# Youngs Moduli (GPa) = 172.52822 172.52822 65.98890
#
# Poissons Ratio (x) = -0.68820 0.17577
# Poissons Ratio (y) = -0.68820 0.17577
# Poissons Ratio (z) = 0.45956 0.45956
#
# Static dielectric constant tensor:
#      x y z
#    x 1.895250 0.000000 0.000000 
#    y 0.000000 1.895250 0.000000 
#    z 0.000000 0.000000 1.932060 
# 
# From -- ./inp_files/6492.got.cif
#   From: 2010.05.17/outbox.cif.g08.bks.cpg/sg133_4_cif.got.tgz:6492.got - 2010.05.20 12:37:36.
