data_PCOD9567414
_publ_section_title
;
Structure prediction by ZEFSAII (Michael W. Deem and Ramdas Pophale) SiO2 
 PCOD9567414
Probable space group: P 42/M C M
;
_chemical_formula_sum "Si O2"
_cell_formula_units_Z 96
_cell_length_a 24.718194
_cell_length_b 24.718194
_cell_length_c 8.613629
_cell_angle_alpha 90.000000
_cell_angle_beta 90.000000
_cell_angle_gamma 90.000000
_cell_volume 5262.833556
_symmetry_space_group_name_H-M "P 42/M C M"
_symmetry_group_IT_number 132
_symmetry_cell_setting 'tetragonal'
loop_
_space_group_symop_operation_xyz
x,y,z
-y,x,1/2+z
-x,-y,z
y,-x,1/2+z
x,-y,1/2-z
-x,y,1/2-z
y,x,-z
-y,-x,-z
-x,-y,-z
y,-x,1/2-z
x,y,-z
-y,x,1/2-z
-x,y,1/2+z
x,-y,1/2+z
-y,-x,z
y,x,z
loop_
_atom_site_type_symbol
_atom_site_label
_atom_site_fract_x
_atom_site_fract_y
_atom_site_fract_z
Si Si1 0.234126 0.145611 0.313691
Si Si2 0.557598 0.355848 0.687387
Si Si3 0.856695 0.644281 0.813236
Si Si4 0.442064 0.768133 0.313242
Si Si5 0.149172 0.060668 0.813796
Si Si6 0.557607 0.939218 0.685759
O O1 0.235887 0.143395 0.500000
O O2 0.198684 0.198684 0.268342
O O3 0.294749 0.145900 0.248518
O O4 0.200144 0.094285 0.251738
O O5 0.500000 0.375102 0.750000
O O6 0.556405 0.356105 0.500000
O O7 0.605644 0.394356 0.740235
O O8 0.565104 0.293856 0.738686
O O9 0.804465 0.608624 0.766399
O O10 0.905846 0.608816 0.746302
O O11 0.860126 0.645501 0.000000
O O12 0.500000 0.787366 0.250000
O O13 0.444950 0.769199 0.500000
O O14 0.096057 0.096057 0.770629
O O15 0.147015 0.000000 0.750000
O O16 0.152720 0.059357 0.000000
O O17 0.500000 0.917473 0.750000
O O18 0.555784 0.939194 0.500000
O O19 0.561913 0.000000 0.750000
#
# Coordination Sequence:
#
# PCOD9567414 Si02
#       6
#    16  16  16  16  16  16
#     4  10  22  40  59  81 112 148 186 230 279 328
#     4   9  18  33  51  72 100 133 170 212 260 314
#     4  11  22  36  57  84 110 142 185 227 273 331
#     4   9  19  34  53  76 103 136 174 219 269 321
#     4  10  21  38  61  88 118 152 188 227 272 321
#     4  11  22  38  58  82 114 148 184 227 276 327
#
# _framework density 18.241123999999999
#
# number of rings (size 3 to 8) (size 9 to 14) (size 15 to 20)
#    0.000    2.000    0.000    4.000    0.000    6.667 
#    0.000    6.667    0.000    0.000    0.000    0.000 
#    0.000    0.000    0.000    0.000    0.000    0.000 
#
# Total GULP energy -536011.712565 kJ/mol
# GULP energy per Si atom -5583.455339 kJ/mol
# Density = 1.819961 g / cm^3
# Si number density = 18.241124 Si / 1000 Ang^3
#
#
#
# Elastic Constant Matrix: (Units=GPa)
#
#
# Indices 1 2 3 4 5 6 
#
# 1 170.3515 100.6035 51.3849 0.0000 0.0000 0.0000
# 2 100.6035 170.3515 51.3849 0.0000 0.0000 0.0000
# 3 51.3849 51.3849 68.5323 0.0000 0.0000 0.0000
# 4 0.0000 0.0000 0.0000 30.1513 0.0000 0.0000
# 5 0.0000 0.0000 0.0000 0.0000 30.1513 0.0000
# 6 0.0000 0.0000 0.0000 0.0000 0.0000 23.8105
#
#
#
# Elastic Compliance Matrix: (Units=1/GPa)
#
#
# Indices 1 2 3 4 5 6 
#
# 1 0.009747 -0.004590 -0.003867 0.000000 0.000000 0.000000
# 2 -0.004590 0.009747 -0.003867 0.000000 0.000000 0.000000
# 3 -0.003867 -0.003867 0.020390 0.000000 0.000000 0.000000
# 4 0.000000 0.000000 0.000000 0.033166 0.000000 0.000000
# 5 0.000000 0.000000 0.000000 0.000000 0.033166 0.000000
# 6 0.000000 0.000000 0.000000 0.000000 0.000000 0.041998
#
#
# Mechanical properties :
#
#
# Convention : Reuss Voigt Hill
#
# Bulk Modulus (GPa) = 65.62795 90.66465 78.14630
# Shear Modulus (GPa) = 28.09899 30.54674 29.32286
#
# Velocity S-wave (km/s) = 3.92908 4.09664 4.01373
# Velocity P-wave (km/s) = 7.52593 8.49635 8.02582
#
# Compressibility (1/GPa) = 0.01523741
#
# Stress axis : x y z
#
# Youngs Moduli (GPa) = 102.59226 102.59226 49.04262
#
# Poissons Ratio (x) = 0.47090 0.18964
# Poissons Ratio (y) = 0.47090 0.18964
# Poissons Ratio (z) = 0.39672 0.39672
#
# Static dielectric constant tensor:
#      x y z
#    x 1.614720 0.000000 0.000000 
#    y 0.000000 1.614720 0.000000 
#    z 0.000000 0.000000 1.616300 
# 
# From -- ./inp_files/1718.got.cif
#   From: 2010.05.17/outbox.cif.g08.bks.cpg/sg132_1_cif.got.tgz:1718.got - 2010.05.20 12:30:18.
