data_PCOD9567171
_publ_section_title
;
Structure prediction by ZEFSAII (Michael W. Deem and Ramdas Pophale) SiO2 
 PCOD9567171
Probable space group: P 42/M C M
;
_chemical_formula_sum "Si O2"
_cell_formula_units_Z 104
_cell_length_a 17.898886
_cell_length_b 17.898886
_cell_length_c 18.600543
_cell_angle_alpha 90.000000
_cell_angle_beta 90.000000
_cell_angle_gamma 90.000000
_cell_volume 5959.058194
_symmetry_space_group_name_H-M "P 42/M C M"
_symmetry_group_IT_number 132
_symmetry_cell_setting 'tetragonal'
loop_
_space_group_symop_operation_xyz
x,y,z
-y,x,1/2+z
-x,-y,z
y,-x,1/2+z
x,-y,1/2-z
-x,y,1/2-z
y,x,-z
-y,-x,-z
-x,-y,-z
y,-x,1/2-z
x,y,-z
-y,x,1/2-z
-x,y,1/2+z
x,-y,1/2+z
-y,-x,z
y,x,z
loop_
_atom_site_type_symbol
_atom_site_label
_atom_site_fract_x
_atom_site_fract_y
_atom_site_fract_z
Si Si1 0.193780 0.685116 0.000000
Si Si2 0.316621 0.114564 0.343914
Si Si3 0.248266 0.626515 0.244844
Si Si4 0.445431 0.319490 0.500000
Si Si5 0.543481 0.077364 0.916868
Si Si6 0.036008 0.161010 0.326877
Si Si7 0.064183 0.064183 0.082019
Si Si8 0.761150 0.490569 0.368360
O O1 0.153577 0.687271 0.922579
O O2 0.238936 0.761065 0.000000
O O3 0.253777 0.617559 0.000000
O O4 0.326464 0.175823 0.281249
O O5 0.393612 0.070824 0.355534
O O6 0.245423 0.063270 0.332558
O O7 0.319536 0.680465 0.241090
O O8 0.243249 0.585011 0.321664
O O9 0.251344 0.559915 0.186253
O O10 0.397244 0.397244 0.500000
O O11 0.496075 0.300457 0.569588
O O12 0.499815 0.154689 0.900060
O O13 0.500000 0.000000 0.915170
O O14 0.571284 0.084906 0.000000
O O15 0.107660 0.107660 0.337935
O O16 0.000000 0.145097 0.250000
O O17 0.971916 0.136447 0.381966
O O18 0.078941 0.078941 0.000000
O O19 0.000000 0.000000 0.088769
#
# Coordination Sequence:
#
# PCOD9567171 Si02
#       8
#     8  16  16   8  16  16   8  16
#     4  11  18  30  54  86 116 133 169 243 296 323
#     4  11  21  35  55  87 111 142 191 240 291 338
#     4  10  20  35  54  80 114 148 182 235 287 339
#     4  11  18  32  61  88 114 149 194 238 281 336
#     4  10  19  35  56  82 116 145 174 223 288 349
#     4  11  22  37  57  78 112 154 193 239 297 351
#     4   9  20  36  56  80 104 144 196 238 288 354
#     4  10  19  34  56  83 113 148 190 222 284 353
#
# _framework density 17.452421999999999
#
# number of rings (size 3 to 8) (size 9 to 14) (size 15 to 20)
#    0.000    1.615    5.385    1.846    1.077    1.231 
#    0.000    5.769    0.000    8.308    0.000    0.000 
#    0.000    0.000    0.000    0.000    0.000    0.000 
#
# Total GULP energy -579317.768269 kJ/mol
# GULP energy per Si atom -5570.363156 kJ/mol
# Density = 1.741270 g / cm^3
# Si number density = 17.452422 Si / 1000 Ang^3
#
#
#
# Elastic Constant Matrix: (Units=GPa)
#
#
# Indices 1 2 3 4 5 6 
#
# 1 70.4045 44.8173 30.5303 0.0000 0.0000 0.0000
# 2 44.8173 70.4050 30.5308 0.0000 0.0000 0.0000
# 3 30.5303 30.5308 84.8431 0.0000 0.0000 0.0000
# 4 0.0000 0.0000 0.0000 -36.9282 0.0000 0.0000
# 5 0.0000 0.0000 0.0000 0.0000 -36.9272 0.0000
# 6 0.0000 0.0000 0.0000 0.0000 0.0000 21.7392
#
#
#
# Elastic Compliance Matrix: (Units=1/GPa)
#
#
# Indices 1 2 3 4 5 6 
#
# 1 0.024903 -0.014179 -0.003859 0.000000 0.000000 0.000000
# 2 -0.014179 0.024903 -0.003859 0.000000 0.000000 0.000000
# 3 -0.003859 -0.003859 0.014564 0.000000 0.000000 0.000000
# 4 0.000000 0.000000 0.000000 -0.027080 0.000000 0.000000
# 5 0.000000 0.000000 0.000000 0.000000 -0.027080 0.000000
# 6 0.000000 0.000000 0.000000 0.000000 0.000000 0.046000
#
#
# Mechanical properties :
#
#
# Convention : Reuss Voigt Hill
#
# Bulk Modulus (GPa) = 48.60100 48.60103 48.60102
# Shear Modulus (GPa) = 46.78953 -2.43828 22.17563
#
# Velocity S-wave (km/s) = 5.18343 -1.18327 3.56846
# Velocity P-wave (km/s) = 7.98324 5.10307 6.69976
#
# Compressibility (1/GPa) = 0.02057571
#
# Stress axis : x y z
#
# Youngs Moduli (GPa) = 40.15608 40.15617 68.66367
#
# Poissons Ratio (x) = 0.56937 0.26496
# Poissons Ratio (y) = 0.56937 0.26498
# Poissons Ratio (z) = 0.15496 0.15497
#
# Static dielectric constant tensor:
#      x y z
#    x 1.605280 0.000000 0.000000 
#    y 0.000000 1.605280 0.000000 
#    z 0.000000 0.000000 1.662150 
# 
# From -- ./inp_files/6626.got.cif
#   From: 2010.05.17/outbox.cif.g08.bks.cpg/sg132_4_cif.got.tgz:6626.got - 2010.05.20 12:30:18.
