data_PCOD9567875
_publ_section_title
;
Structure prediction by ZEFSAII (Michael W. Deem and Ramdas Pophale) SiO2 
 PCOD9567875
Probable space group: P 42/N B C
;
_chemical_formula_sum "Si O2"
_cell_formula_units_Z 92
_cell_length_a 22.752780
_cell_length_b 22.752780
_cell_length_c 8.469879
_cell_angle_alpha 90.000000
_cell_angle_beta 90.000000
_cell_angle_gamma 90.000000
_cell_volume 4384.763170
_symmetry_space_group_name_H-M "P 42/N B C"
_symmetry_group_IT_number 133
_space_group.IT_coordinate_system_code '2'
_symmetry_cell_setting 'tetragonal'
loop_
_space_group_symop_operation_xyz
x,y,z
1/2-y,x,1/2+z
1/2-x,1/2-y,z
y,1/2-x,1/2+z
x,1/2-y,-z
1/2-x,y,-z
y,x,1/2-z
1/2-y,1/2-x,1/2-z
-x,-y,-z
1/2+y,-x,1/2-z
1/2+x,1/2+y,-z
-y,1/2+x,1/2-z
-x,1/2+y,z
1/2+x,-y,z
-y,-x,1/2+z
1/2+y,1/2+x,1/2+z
loop_
_atom_site_type_symbol
_atom_site_label
_atom_site_fract_x
_atom_site_fract_y
_atom_site_fract_z
Si Si1 0.502115 0.750000 0.000000
Si Si2 0.479994 0.479994 0.750000
Si Si3 0.323680 0.176321 0.750000
Si Si4 0.193087 0.821020 0.257287
Si Si5 0.750000 0.750000 0.500000
Si Si6 0.544658 0.707889 0.655829
Si Si7 0.405530 0.842822 0.990343
Si Si8 0.406337 0.520789 0.025801
O O1 0.529079 0.738358 0.824645
O O2 0.466929 0.811049 0.970526
O O3 0.481634 0.426841 0.624080
O O4 0.540326 0.480051 0.849320
O O5 0.287811 0.205212 0.605521
O O6 0.315858 0.109415 0.804657
O O7 0.256068 0.817401 0.173829
O O8 0.136813 0.837088 0.157769
O O9 0.196842 0.872148 0.382189
O O10 0.544763 0.750000 0.500000
O O11 0.501547 0.653515 0.607788
O O12 0.404763 0.911481 0.031935
#
# Coordination Sequence:
#
# PCOD9567875 Si02
#       8
#     8   8   8  16   4  16  16  16
#     4  12  27  48  67 109 156 197 260 320 376 434
#     4  10  23  48  69 100 134 200 248 309 364 453
#     4  11  23  52  75 118 150 188 240 295 376 468
#     4  11  22  38  60  92 132 187 247 306 376 437
#     4  10  22  46  88 110 148 196 232 292 388 464
#     4  12  28  48  76 117 152 198 245 311 381 456
#     4  12  24  41  65  98 139 196 247 322 373 438
#     4  11  25  44  72 102 144 193 255 305 382 446
#
# _framework density 20.981748
#
# number of rings (size 3 to 8) (size 9 to 14) (size 15 to 20)
#    0.000    0.696    2.609    4.696    4.870    2.783 
#    3.130    0.000    0.000    0.000    0.000    0.000 
#    0.000    0.000    0.000    0.000    0.000    0.000 
#
# Total GULP energy -512969.295304 kJ/mol
# GULP energy per Si atom -5575.753210 kJ/mol
# Density = 2.093399 g / cm^3
# Si number density = 20.981748 Si / 1000 Ang^3
#
#
#
# Elastic Constant Matrix: (Units=GPa)
#
#
# Indices 1 2 3 4 5 6 
#
# 1 102.3979 49.9578 48.0678 0.0000 0.0000 0.0000
# 2 49.9578 102.3978 48.0678 0.0000 0.0000 0.0000
# 3 48.0678 48.0678 150.4028 0.0000 0.0000 0.0000
# 4 0.0000 0.0000 0.0000 33.5126 0.0000 0.0000
# 5 0.0000 0.0000 0.0000 0.0000 33.5110 0.0000
# 6 0.0000 0.0000 0.0000 0.0000 0.0000 27.0347
#
#
#
# Elastic Compliance Matrix: (Units=1/GPa)
#
#
# Indices 1 2 3 4 5 6 
#
# 1 0.013645 -0.005424 -0.002628 0.000000 0.000000 0.000000
# 2 -0.005424 0.013646 -0.002628 0.000000 0.000000 0.000000
# 3 -0.002628 -0.002628 0.008328 0.000000 0.000000 0.000000
# 4 0.000000 0.000000 0.000000 0.029840 0.000000 0.000000
# 5 0.000000 0.000000 0.000000 0.000000 0.029841 0.000000
# 6 0.000000 0.000000 0.000000 0.000000 0.000000 0.036989
#
#
# Mechanical properties :
#
#
# Convention : Reuss Voigt Hill
#
# Bulk Modulus (GPa) = 70.12030 71.93170 71.02600
# Shear Modulus (GPa) = 31.56545 32.75200 32.15872
#
# Velocity S-wave (km/s) = 3.88290 3.95520 3.91922
# Velocity P-wave (km/s) = 7.32084 7.43072 7.37599
#
# Compressibility (1/GPa) = 0.01426121
#
# Stress axis : x y z
#
# Youngs Moduli (GPa) = 73.28432 73.28421 120.07223
#
# Poissons Ratio (x) = 0.39749 0.31550
# Poissons Ratio (y) = 0.39749 0.31550
# Poissons Ratio (z) = 0.19256 0.19256
#
# Static dielectric constant tensor:
#      x y z
#    x 1.734110 0.000000 0.000000 
#    y 0.000000 1.734120 0.000000 
#    z 0.000000 0.000000 1.865250 
# 
# From -- ./inp_files/1983.got.cif
#   From: 2010.05.17/outbox.cif.g08.bks.cpg/sg133_1_cif.got.tgz:1983.got - 2010.05.20 12:37:36.
