data_PCOD9567582
_publ_section_title
;
Structure prediction by ZEFSAII (Michael W. Deem and Ramdas Pophale) SiO2 
 PCOD9567582
Probable space group: P 42/N B C
;
_chemical_formula_sum "Si O2"
_cell_formula_units_Z 60
_cell_length_a 12.758212
_cell_length_b 12.758212
_cell_length_c 16.768838
_cell_angle_alpha 90.000000
_cell_angle_beta 90.000000
_cell_angle_gamma 90.000000
_cell_volume 2729.496854
_symmetry_space_group_name_H-M "P 42/N B C"
_symmetry_group_IT_number 133
_space_group.IT_coordinate_system_code '2'
_symmetry_cell_setting 'tetragonal'
loop_
_space_group_symop_operation_xyz
x,y,z
1/2-y,x,1/2+z
1/2-x,1/2-y,z
y,1/2-x,1/2+z
x,1/2-y,-z
1/2-x,y,-z
y,x,1/2-z
1/2-y,1/2-x,1/2-z
-x,-y,-z
1/2+y,-x,1/2-z
1/2+x,1/2+y,-z
-y,1/2+x,1/2-z
-x,1/2+y,z
1/2+x,-y,z
-y,-x,1/2+z
1/2+y,1/2+x,1/2+z
loop_
_atom_site_type_symbol
_atom_site_label
_atom_site_fract_x
_atom_site_fract_y
_atom_site_fract_z
Si Si1 0.250000 0.250000 0.250000
Si Si2 0.355428 0.120980 0.134106
Si Si3 0.535911 0.137626 0.002990
Si Si4 0.039394 0.374546 0.604424
Si Si5 0.495313 0.495313 0.750000
O O1 0.344063 0.225465 0.189089
O O2 0.439120 0.140784 0.065814
O O3 0.399839 0.026393 0.188438
O O4 0.239228 0.091951 0.104359
O O5 0.614485 0.051534 0.037786
O O6 0.587284 0.250000 0.000000
O O7 0.474312 0.110096 0.922098
O O8 0.997260 0.403443 0.692747
#
# Coordination Sequence:
#
# PCOD9567582 Si02
#       5
#     4  16  16  16   8
#     4  10  18  28  54  88 114 140 180 236 282 322
#     4  10  19  33  54  83 112 144 186 232 282 339
#     4  10  21  36  57  86 114 147 192 236 287 350
#     4  10  20  35  57  80 114 150 184 239 292 339
#     4   9  21  35  52  79 109 143 188 230 283 343
#
# _framework density 21.982074000000001
#
# number of rings (size 3 to 8) (size 9 to 14) (size 15 to 20)
#    0.000    2.133    0.000    3.200    0.000    5.333 
#    0.000    0.000    0.000   42.400    0.000    0.000 
#    0.000    0.000    0.000    0.000    0.000    0.000 
#
# Total GULP energy -334175.172304 kJ/mol
# GULP energy per Si atom -5569.586205 kJ/mol
# Density = 2.193204 g / cm^3
# Si number density = 21.982074 Si / 1000 Ang^3
#
#
#
# Elastic Constant Matrix: (Units=GPa)
#
#
# Indices 1 2 3 4 5 6 
#
# 1 68.2590 7.9537 13.6202 0.0000 0.0000 0.0000
# 2 7.9537 68.2590 13.6202 0.0000 0.0000 0.0000
# 3 13.6202 13.6202 83.2822 0.0000 0.0000 0.0000
# 4 0.0000 0.0000 0.0000 27.1434 0.0000 0.0000
# 5 0.0000 0.0000 0.0000 0.0000 27.1434 0.0000
# 6 0.0000 0.0000 0.0000 0.0000 0.0000 32.2610
#
#
#
# Elastic Compliance Matrix: (Units=1/GPa)
#
#
# Indices 1 2 3 4 5 6 
#
# 1 0.015259 -0.001323 -0.002279 0.000000 0.000000 0.000000
# 2 -0.001323 0.015259 -0.002279 0.000000 0.000000 0.000000
# 3 -0.002279 -0.002279 0.012753 0.000000 0.000000 0.000000
# 4 0.000000 0.000000 0.000000 0.036841 0.000000 0.000000
# 5 0.000000 0.000000 0.000000 0.000000 0.036841 0.000000
# 6 0.000000 0.000000 0.000000 0.000000 0.000000 0.030997
#
#
# Mechanical properties :
#
#
# Convention : Reuss Voigt Hill
#
# Bulk Modulus (GPa) = 31.73795 32.24315 31.99055
# Shear Modulus (GPa) = 29.37436 29.61662 29.49549
#
# Velocity S-wave (km/s) = 3.65949 3.67455 3.66703
# Velocity P-wave (km/s) = 5.68553 5.71864 5.70211
#
# Compressibility (1/GPa) = 0.03150802
#
# Stress axis : x y z
#
# Youngs Moduli (GPa) = 65.53491 65.53491 78.41398
#
# Poissons Ratio (x) = 0.08672 0.17871
# Poissons Ratio (y) = 0.08672 0.17871
# Poissons Ratio (z) = 0.14936 0.14936
#
# Static dielectric constant tensor:
#      x y z
#    x 1.842620 0.000000 0.000000 
#    y 0.000000 1.842620 0.000000 
#    z 0.000000 0.000000 1.900080 
# 
# From -- ./inp_files/4173.got.cif
#   From: 2010.05.17/outbox.cif.g08.bks.cpg/sg133_3_cif.got.tgz:4173.got - 2010.05.20 12:37:36.
