data_PCOD9567173
_publ_section_title
;
Structure prediction by ZEFSAII (Michael W. Deem and Ramdas Pophale) SiO2 
 PCOD9567173
Probable space group: P 42/M C M
;
_chemical_formula_sum "Si O2"
_cell_formula_units_Z 88
_cell_length_a 12.943533
_cell_length_b 12.943533
_cell_length_c 27.184516
_cell_angle_alpha 90.000000
_cell_angle_beta 90.000000
_cell_angle_gamma 90.000000
_cell_volume 4554.359153
_symmetry_space_group_name_H-M "P 42/M C M"
_symmetry_group_IT_number 132
_symmetry_cell_setting 'tetragonal'
loop_
_space_group_symop_operation_xyz
x,y,z
-y,x,1/2+z
-x,-y,z
y,-x,1/2+z
x,-y,1/2-z
-x,y,1/2-z
y,x,-z
-y,-x,-z
-x,-y,-z
y,-x,1/2-z
x,y,-z
-y,x,1/2-z
-x,y,1/2+z
x,-y,1/2+z
-y,-x,z
y,x,z
loop_
_atom_site_type_symbol
_atom_site_label
_atom_site_fract_x
_atom_site_fract_y
_atom_site_fract_z
Si Si1 0.717623 0.880978 0.596853
Si Si2 0.249981 0.581091 0.355407
Si Si3 0.375124 0.205910 0.300106
Si Si4 0.000000 0.312318 0.750000
Si Si5 0.080343 0.243274 0.150972
Si Si6 0.879673 0.508649 0.555475
O O1 0.823499 0.823499 0.586438
O O2 0.671201 0.834586 0.647831
O O3 0.631033 0.860349 0.556758
O O4 0.731421 0.001090 0.607958
O O5 0.359165 0.640836 0.359107
O O6 0.247873 0.488103 0.315657
O O7 0.164802 0.667085 0.342464
O O8 0.203750 0.539472 0.407295
O O9 0.296202 0.296202 0.281991
O O10 0.375086 0.103602 0.265694
O O11 0.977261 0.242104 0.702908
O O12 0.138314 0.138314 0.140775
O O13 0.873999 0.467122 0.500000
O O14 0.000000 0.500000 0.573268
#
# Coordination Sequence:
#
# PCOD9567173 Si02
#       6
#    16  16  16   8  16  16
#     4   9  18  33  53  78 111 145 180 231 291 347
#     4  10  21  36  55  81 115 153 191 237 294 356
#     4   9  19  34  54  82 112 147 192 239 289 344
#     4  10  20  33  56  79 108 146 194 247 281 330
#     4  10  20  34  52  78 109 145 191 234 283 346
#     4  10  19  34  58  83 107 144 195 246 291 348
#
# _framework density 19.322147999999999
#
# number of rings (size 3 to 8) (size 9 to 14) (size 15 to 20)
#    0.000    2.364    1.818    0.545    0.000    3.636 
#    0.000    0.000    0.000    4.091    0.000    8.909 
#    0.000    0.000    0.000    0.000    0.000    0.000 
#
# Total GULP energy -490336.441634 kJ/mol
# GULP energy per Si atom -5572.005019 kJ/mol
# Density = 1.927817 g / cm^3
# Si number density = 19.322148 Si / 1000 Ang^3
#
#
#
# Elastic Constant Matrix: (Units=GPa)
#
#
# Indices 1 2 3 4 5 6 
#
# 1 99.1493 67.5497 21.0538 0.0000 0.0000 0.0000
# 2 67.5497 99.1493 21.0538 0.0000 0.0000 0.0000
# 3 21.0538 21.0538 54.6036 0.0000 0.0000 0.0000
# 4 0.0000 0.0000 0.0000 16.6193 0.0000 0.0000
# 5 0.0000 0.0000 0.0000 0.0000 16.6193 0.0000
# 6 0.0000 0.0000 0.0000 0.0000 0.0000 29.5540
#
#
#
# Elastic Compliance Matrix: (Units=1/GPa)
#
#
# Indices 1 2 3 4 5 6 
#
# 1 0.019146 -0.012500 -0.002563 0.000000 0.000000 0.000000
# 2 -0.012500 0.019146 -0.002563 0.000000 0.000000 0.000000
# 3 -0.002563 -0.002563 0.020290 0.000000 0.000000 0.000000
# 4 0.000000 0.000000 0.000000 0.060171 0.000000 0.000000
# 5 0.000000 0.000000 0.000000 0.000000 0.060171 0.000000
# 6 0.000000 0.000000 0.000000 0.000000 0.000000 0.033836
#
#
# Mechanical properties :
#
#
# Convention : Reuss Voigt Hill
#
# Bulk Modulus (GPa) = 42.85979 52.46853 47.66416
# Shear Modulus (GPa) = 19.54747 22.10820 20.82784
#
# Velocity S-wave (km/s) = 3.18411 3.38626 3.28674
# Velocity P-wave (km/s) = 5.97896 6.51940 6.25502
#
# Compressibility (1/GPa) = 0.02333189
#
# Stress axis : x y z
#
# Youngs Moduli (GPa) = 52.23007 52.23007 49.28548
#
# Poissons Ratio (x) = 0.65287 0.12630
# Poissons Ratio (y) = 0.65287 0.12630
# Poissons Ratio (z) = 0.13384 0.13384
#
# Static dielectric constant tensor:
#      x y z
#    x 1.689120 0.000000 0.000000 
#    y 0.000000 1.689120 0.000000 
#    z 0.000000 0.000000 1.690860 
# 
# From -- ./inp_files/10757.got.cif
#   From: 2010.05.17/outbox.cif.g08.bks.cpg/sg132_6_cif.got.tgz:10757.got - 2010.05.20 12:30:18.
