data_PCOD9567835
_publ_section_title
;
Structure prediction by ZEFSAII (Michael W. Deem and Ramdas Pophale) SiO2 
 PCOD9567835
Probable space group: P 42/N B C
;
_chemical_formula_sum "Si O2"
_cell_formula_units_Z 64
_cell_length_a 21.733197
_cell_length_b 21.733197
_cell_length_c 7.620293
_cell_angle_alpha 90.000000
_cell_angle_beta 90.000000
_cell_angle_gamma 90.000000
_cell_volume 3599.307104
_symmetry_space_group_name_H-M "P 42/N B C"
_symmetry_group_IT_number 133
_space_group.IT_coordinate_system_code '2'
_symmetry_cell_setting 'tetragonal'
loop_
_space_group_symop_operation_xyz
x,y,z
1/2-y,x,1/2+z
1/2-x,1/2-y,z
y,1/2-x,1/2+z
x,1/2-y,-z
1/2-x,y,-z
y,x,1/2-z
1/2-y,1/2-x,1/2-z
-x,-y,-z
1/2+y,-x,1/2-z
1/2+x,1/2+y,-z
-y,1/2+x,1/2-z
-x,1/2+y,z
1/2+x,-y,z
-y,-x,1/2+z
1/2+y,1/2+x,1/2+z
loop_
_atom_site_type_symbol
_atom_site_label
_atom_site_fract_x
_atom_site_fract_y
_atom_site_fract_z
Si Si1 0.506516 0.092715 0.712262
Si Si2 0.106083 0.488732 0.195810
Si Si3 0.050447 0.822024 0.033782
Si Si4 0.797228 0.321090 0.656657
O O1 0.500961 0.113881 0.510500
O O2 0.441531 0.058470 0.750000
O O3 0.556989 0.038470 0.727995
O O4 0.527695 0.141118 0.861459
O O5 0.076177 0.423824 0.250000
O O6 0.165536 0.503517 0.308795
O O7 0.119897 0.837767 0.105626
O O8 0.053368 0.750000 0.000000
O O9 0.750000 0.312877 0.500000
O O10 0.832223 0.257279 0.697801
#
# Coordination Sequence:
#
# PCOD9567835 Si02
#       4
#    16  16  16  16
#     4  11  20  37  60  85 111 151 193 239 310 367
#     4  11  20  37  62  82 111 154 189 241 313 359
#     4  11  25  37  55  88 115 147 207 248 283 344
#     4  10  22  39  51  69 108 161 207 244 283 320
#
# _framework density 17.781199000000001
#
# number of rings (size 3 to 8) (size 9 to 14) (size 15 to 20)
#    0.000    1.250    5.000    3.000    7.000    1.000 
#    9.000    0.000    0.000    0.000    0.000    0.000 
#    0.000    3.000    0.000    0.000    0.000    0.000 
#
# Total GULP energy -356319.654678 kJ/mol
# GULP energy per Si atom -5567.494604 kJ/mol
# Density = 1.774073 g / cm^3
# Si number density = 17.781199 Si / 1000 Ang^3
#
#
#
# Elastic Constant Matrix: (Units=GPa)
#
#
# Indices 1 2 3 4 5 6 
#
# 1 54.6388 33.9113 25.3645 0.0000 0.0000 0.0000
# 2 33.9113 54.6393 25.3647 0.0000 0.0000 0.0000
# 3 25.3645 25.3647 142.1899 0.0000 0.0000 0.0000
# 4 0.0000 0.0000 0.0000 23.8886 0.0000 0.0000
# 5 0.0000 0.0000 0.0000 0.0000 23.8885 0.0000
# 6 0.0000 0.0000 0.0000 0.0000 0.0000 25.8377
#
#
#
# Elastic Compliance Matrix: (Units=1/GPa)
#
#
# Indices 1 2 3 4 5 6 
#
# 1 0.030412 -0.017833 -0.002244 0.000000 0.000000 0.000000
# 2 -0.017833 0.030411 -0.002244 0.000000 0.000000 0.000000
# 3 -0.002244 -0.002244 0.007833 0.000000 0.000000 0.000000
# 4 0.000000 0.000000 0.000000 0.041861 0.000000 0.000000
# 5 0.000000 0.000000 0.000000 0.000000 0.041861 0.000000
# 6 0.000000 0.000000 0.000000 0.000000 0.000000 0.038703
#
#
# Mechanical properties :
#
#
# Convention : Reuss Voigt Hill
#
# Bulk Modulus (GPa) = 41.64057 46.74989 44.19523
# Shear Modulus (GPa) = 20.51470 25.84481 23.17975
#
# Velocity S-wave (km/s) = 3.40034 3.81660 3.61447
# Velocity P-wave (km/s) = 6.23583 6.76541 6.50601
#
# Compressibility (1/GPa) = 0.02401504
#
# Stress axis : x y z
#
# Youngs Moduli (GPa) = 32.88222 32.88248 127.65886
#
# Poissons Ratio (x) = 0.58639 0.28644
# Poissons Ratio (y) = 0.58639 0.28644
# Poissons Ratio (z) = 0.07378 0.07378
#
# Static dielectric constant tensor:
#      x y z
#    x 1.665410 0.000000 0.000000 
#    y 0.000000 1.665400 0.000000 
#    z 0.000000 0.000000 2.447920 
# 
# From -- ./inp_files/1601.got.cif
#   From: 2010.05.17/outbox.cif.g08.bks.cpg/sg133_1_cif.got.tgz:1601.got - 2010.05.20 12:37:36.
