data_PCOD9567684
_publ_section_title
;
Structure prediction by ZEFSAII (Michael W. Deem and Ramdas Pophale) SiO2 
 PCOD9567684
Probable space group: P 42/N B C
;
_chemical_formula_sum "Si O2"
_cell_formula_units_Z 80
_cell_length_a 10.263475
_cell_length_b 10.263475
_cell_length_c 31.324283
_cell_angle_alpha 90.000000
_cell_angle_beta 90.000000
_cell_angle_gamma 90.000000
_cell_volume 3299.666112
_symmetry_space_group_name_H-M "P 42/N B C"
_symmetry_group_IT_number 133
_space_group.IT_coordinate_system_code '2'
_symmetry_cell_setting 'tetragonal'
loop_
_space_group_symop_operation_xyz
x,y,z
1/2-y,x,1/2+z
1/2-x,1/2-y,z
y,1/2-x,1/2+z
x,1/2-y,-z
1/2-x,y,-z
y,x,1/2-z
1/2-y,1/2-x,1/2-z
-x,-y,-z
1/2+y,-x,1/2-z
1/2+x,1/2+y,-z
-y,1/2+x,1/2-z
-x,1/2+y,z
1/2+x,-y,z
-y,-x,1/2+z
1/2+y,1/2+x,1/2+z
loop_
_atom_site_type_symbol
_atom_site_label
_atom_site_fract_x
_atom_site_fract_y
_atom_site_fract_z
Si Si1 0.835036 0.361651 0.607425
Si Si2 0.035610 0.747136 0.754728
Si Si3 0.952033 0.646158 0.154194
Si Si4 0.895289 0.398903 0.016621
Si Si5 0.696859 0.979654 0.837269
O O1 0.750000 0.250000 0.584407
O O2 0.748841 0.480095 0.623613
O O3 0.920962 0.403957 0.567939
O O4 0.892733 0.277107 0.646683
O O5 0.126375 0.866825 0.738543
O O6 0.968899 0.797040 0.797701
O O7 0.954941 0.705254 0.713361
O O8 0.047215 0.517445 0.152558
O O9 0.801700 0.620923 0.143961
O O10 0.924081 0.250000 0.000000
O O11 0.750000 0.429702 0.000000
O O12 0.000000 0.500000 0.000000
#
# Coordination Sequence:
#
# PCOD9567684 Si02
#       5
#    16  16  16  16  16
#     4  10  20  39  63  88 122 167 214 260 323 394
#     4   9  15  30  52  81 110 157 212 255 299 371
#     4  10  20  34  57  85 121 160 211 259 318 378
#     4  11  25  46  74 101 136 174 219 278 346 411
#     4  10  20  32  57  85 117 159 209 262 306 374
#
# _framework density 24.244879000000001
#
# number of rings (size 3 to 8) (size 9 to 14) (size 15 to 20)
#    0.000    2.000    4.000    0.600    2.800    0.400 
#    0.000    1.000    4.400    0.000    0.000    0.000 
#    0.000    0.000    0.000    0.000    0.000    0.000 
#
# Total GULP energy -446373.366608 kJ/mol
# GULP energy per Si atom -5579.667083 kJ/mol
# Density = 2.418970 g / cm^3
# Si number density = 24.244879 Si / 1000 Ang^3
#
#
#
# Elastic Constant Matrix: (Units=GPa)
#
#
# Indices 1 2 3 4 5 6 
#
# 1 93.1291 83.5966 17.2055 0.0000 0.0000 0.0000
# 2 83.5966 93.1291 17.2055 0.0000 0.0000 0.0000
# 3 17.2055 17.2055 124.3073 0.0000 0.0000 0.0000
# 4 0.0000 0.0000 0.0000 12.5246 0.0000 0.0000
# 5 0.0000 0.0000 0.0000 0.0000 12.5246 0.0000
# 6 0.0000 0.0000 0.0000 0.0000 0.0000 44.1523
#
#
#
# Elastic Compliance Matrix: (Units=1/GPa)
#
#
# Indices 1 2 3 4 5 6 
#
# 1 0.055360 -0.049545 -0.000805 0.000000 0.000000 0.000000
# 2 -0.049545 0.055360 -0.000805 0.000000 0.000000 0.000000
# 3 -0.000805 -0.000805 0.008267 0.000000 0.000000 0.000000
# 4 0.000000 0.000000 0.000000 0.079843 0.000000 0.000000
# 5 0.000000 0.000000 0.000000 0.000000 0.079843 0.000000
# 6 0.000000 0.000000 0.000000 0.000000 0.000000 0.022649
#
#
# Mechanical properties :
#
#
# Convention : Reuss Voigt Hill
#
# Bulk Modulus (GPa) = 59.95833 60.73120 60.34476
# Shear Modulus (GPa) = 12.21928 26.67749 19.44839
#
# Velocity S-wave (km/s) = 2.24742 3.32073 2.83532
# Velocity P-wave (km/s) = 5.61413 6.30924 5.97181
#
# Compressibility (1/GPa) = 0.01667825
#
# Stress axis : x y z
#
# Youngs Moduli (GPa) = 18.06367 18.06367 120.95714
#
# Poissons Ratio (x) = 0.89496 0.09736
# Poissons Ratio (y) = 0.89496 0.09736
# Poissons Ratio (z) = 0.01454 0.01454
#
# Static dielectric constant tensor:
#      x y z
#    x 2.032430 0.000000 0.000000 
#    y 0.000000 2.032430 0.000000 
#    z 0.000000 0.000000 1.881130 
# 
# From -- ./inp_files/7856.got.cif
#   From: 2010.05.17/outbox.cif.g08.bks.cpg/sg133_4_cif.got.tgz:7856.got - 2010.05.20 12:37:36.
