data_PCOD9567418
_publ_section_title
;
Structure prediction by ZEFSAII (Michael W. Deem and Ramdas Pophale) SiO2 
 PCOD9567418
Probable space group: P 42/M C M
;
_chemical_formula_sum "Si O2"
_cell_formula_units_Z 116
_cell_length_a 18.742627
_cell_length_b 18.742627
_cell_length_c 15.759652
_cell_angle_alpha 90.000000
_cell_angle_beta 90.000000
_cell_angle_gamma 90.000000
_cell_volume 5536.146166
_symmetry_space_group_name_H-M "P 42/M C M"
_symmetry_group_IT_number 132
_symmetry_cell_setting 'tetragonal'
loop_
_space_group_symop_operation_xyz
x,y,z
-y,x,1/2+z
-x,-y,z
y,-x,1/2+z
x,-y,1/2-z
-x,y,1/2-z
y,x,-z
-y,-x,-z
-x,-y,-z
y,-x,1/2-z
x,y,-z
-y,x,1/2-z
-x,y,1/2+z
x,-y,1/2+z
-y,-x,z
y,x,z
loop_
_atom_site_type_symbol
_atom_site_label
_atom_site_fract_x
_atom_site_fract_y
_atom_site_fract_z
Si Si1 0.648339 0.123328 0.601813
Si Si2 0.706226 0.595058 0.665480
Si Si3 0.801324 0.914393 0.848797
Si Si4 0.261486 0.435194 0.857873
Si Si5 0.421406 0.978045 0.103490
Si Si6 0.808351 0.921944 0.643897
Si Si7 0.157250 0.664058 0.099470
Si Si8 0.654168 0.345833 0.500000
O O1 0.640506 0.128511 0.500000
O O2 0.731159 0.130192 0.625285
O O3 0.593824 0.180219 0.641018
O O4 0.629013 0.043087 0.629087
O O5 0.632055 0.632055 0.638525
O O6 0.706089 0.580273 0.765616
O O7 0.728083 0.519397 0.624290
O O8 0.769459 0.650486 0.646757
O O9 0.870683 0.870683 0.876564
O O10 0.802821 0.919542 0.746437
O O11 0.801829 0.995474 0.882828
O O12 0.301914 0.389450 0.926948
O O13 0.391299 0.902641 0.132812
O O14 0.500000 0.000000 0.131219
O O15 0.421501 0.974924 0.000000
O O16 0.881538 0.881538 0.619979
O O17 0.742013 0.876398 0.609733
O O18 0.169630 0.650734 0.000000
#
# Coordination Sequence:
#
# PCOD9567418 Si02
#       8
#    16  16  16  16  16  16  16   4
#     4  11  21  36  62  93 128 165 211 270 325 394
#     4  11  25  46  68  98 139 175 218 277 332 397
#     4  10  22  37  59  87 118 164 215 273 339 394
#     4  11  25  44  71 102 134 173 220 276 342 393
#     4   9  18  33  54  84 124 165 209 262 316 377
#     4  10  21  39  58  83 122 165 216 273 326 394
#     4  11  22  38  62  92 129 177 222 262 324 400
#     4  12  24  48  77 104 132 174 229 276 336 406
#
# _framework density 20.953202000000001
#
# number of rings (size 3 to 8) (size 9 to 14) (size 15 to 20)
#    0.000    1.517    2.759    2.069    1.931    3.862 
#    0.000    2.069    0.000    3.310    0.000    1.931 
#    0.000    0.000    0.000    0.000    0.000    0.000 
#
# Total GULP energy -647131.094182 kJ/mol
# GULP energy per Si atom -5578.716329 kJ/mol
# Density = 2.090551 g / cm^3
# Si number density = 20.953202 Si / 1000 Ang^3
#
#
#
# Elastic Constant Matrix: (Units=GPa)
#
#
# Indices 1 2 3 4 5 6 
#
# 1 75.3371 75.6362 1.5555 0.0000 0.0000 0.0000
# 2 75.6362 75.3384 1.5561 0.0000 0.0000 0.0000
# 3 1.5555 1.5561 28.4207 0.0000 0.0000 0.0000
# 4 0.0000 0.0000 0.0000 51.1263 0.0000 0.0000
# 5 0.0000 0.0000 0.0000 0.0000 51.1290 0.0000
# 6 0.0000 0.0000 0.0000 0.0000 0.0000 37.5621
#
#
#
# Elastic Compliance Matrix: (Units=1/GPa)
#
#
# Indices 1 2 3 4 5 6 
#
# 1 -1.671833 1.678450 -0.000401 0.000000 0.000000 0.000000
# 2 1.678450 -1.671806 -0.000325 0.000000 0.000000 0.000000
# 3 -0.000401 -0.000325 0.035225 0.000000 0.000000 0.000000
# 4 0.000000 0.000000 0.000000 0.019559 0.000000 0.000000
# 5 0.000000 0.000000 0.000000 0.000000 0.019558 0.000000
# 6 0.000000 0.000000 0.000000 0.000000 0.000000 0.026623
#
#
# Mechanical properties :
#
#
# Convention : Reuss Voigt Hill
#
# Bulk Modulus (GPa) = 21.26045 37.39908 29.32977
# Shear Modulus (GPa) = -0.75960 34.65337 16.94689
#
# Velocity S-wave (km/s) = -0.60275 4.07116 2.84702
# Velocity P-wave (km/s) = 3.11195 6.32351 4.98352
#
# Compressibility (1/GPa) = 0.04703569
#
# Stress axis : x y z
#
# Youngs Moduli (GPa) = -0.59815 -0.59816 28.38859
#
# Poissons Ratio (x) = 1.00397 0.01139
# Poissons Ratio (y) = 1.00396 0.00922
# Poissons Ratio (z) = -0.00024 -0.00019
#
# Static dielectric constant tensor:
#      x y z
#    x 1.754360 0.000000 0.000000 
#    y 0.000000 1.754360 0.000000 
#    z 0.000000 0.000000 1.752240 
# 
# From -- ./inp_files/6638.got.cif
#   From: 2010.05.17/outbox.cif.g08.bks.cpg/sg132_4_cif.got.tgz:6638.got - 2010.05.20 12:30:18.
