data_PCOD9567221
_publ_section_title
;
Structure prediction by ZEFSAII (Michael W. Deem and Ramdas Pophale) SiO2 
 PCOD9567221
Probable space group: P 42/M C M
;
_chemical_formula_sum "Si O2"
_cell_formula_units_Z 96
_cell_length_a 23.935939
_cell_length_b 23.935939
_cell_length_c 7.974737
_cell_angle_alpha 90.000000
_cell_angle_beta 90.000000
_cell_angle_gamma 90.000000
_cell_volume 4568.959497
_symmetry_space_group_name_H-M "P 42/M C M"
_symmetry_group_IT_number 132
_symmetry_cell_setting 'tetragonal'
loop_
_space_group_symop_operation_xyz
x,y,z
-y,x,1/2+z
-x,-y,z
y,-x,1/2+z
x,-y,1/2-z
-x,y,1/2-z
y,x,-z
-y,-x,-z
-x,-y,-z
y,-x,1/2-z
x,y,-z
-y,x,1/2-z
-x,y,1/2+z
x,-y,1/2+z
-y,-x,z
y,x,z
loop_
_atom_site_type_symbol
_atom_site_label
_atom_site_fract_x
_atom_site_fract_y
_atom_site_fract_z
Si Si1 0.151583 0.761280 0.193807
Si Si2 0.102952 0.564386 0.299262
Si Si3 0.346633 0.564851 0.297230
Si Si4 0.226177 0.564977 0.701482
Si Si5 0.150640 0.936692 0.303690
Si Si6 0.061060 0.679107 0.802650
O O1 0.206794 0.793207 0.266823
O O2 0.103057 0.807987 0.201578
O O3 0.116892 0.709177 0.271715
O O4 0.165461 0.748126 0.000000
O O5 0.091253 0.500000 0.250000
O O6 0.102732 0.565756 0.500000
O O7 0.165212 0.581452 0.234447
O O8 0.063553 0.613256 0.235241
O O9 0.353079 0.500000 0.250000
O O10 0.346390 0.566939 0.500000
O O11 0.396718 0.603283 0.234314
O O12 0.285879 0.587721 0.238878
O O13 0.229436 0.500000 0.750000
O O14 0.224809 0.570772 0.500000
O O15 0.165516 0.930824 0.500000
O O16 0.089095 0.910906 0.281293
O O17 0.154151 0.000000 0.250000
O O18 0.000000 0.701371 0.750000
O O19 0.064391 0.687811 0.000000
#
# Coordination Sequence:
#
# PCOD9567221 Si02
#       6
#    16  16  16  16  16  16
#     4   9  19  37  59  80 105 140 180 222 267 314
#     4  10  20  36  58  83 111 143 181 225 277 335
#     4   9  17  29  45  66  95 132 174 221 274 332
#     4   8  15  29  49  70  92 123 164 209 256 310
#     4  10  20  32  48  71  98 130 169 213 260 310
#     4  11  23  38  58  85 117 151 187 226 270 324
#
# _framework density 21.01135
#
# number of rings (size 3 to 8) (size 9 to 14) (size 15 to 20)
#    0.000    2.500    0.000    2.000    0.000    5.333 
#    0.000    4.167    0.000    1.000    0.000    0.000 
#    0.000    0.000    0.000    0.000    0.000    0.000 
#
# Total GULP energy -534586.361164 kJ/mol
# GULP energy per Si atom -5568.607929 kJ/mol
# Density = 2.096353 g / cm^3
# Si number density = 21.011350 Si / 1000 Ang^3
#
#
#
# Elastic Constant Matrix: (Units=GPa)
#
#
# Indices 1 2 3 4 5 6 
#
# 1 92.8561 36.2976 1.1806 0.0000 0.0000 0.0000
# 2 36.2976 92.8561 1.1806 0.0000 0.0000 0.0000
# 3 1.1806 1.1806 30.7474 0.0000 0.0000 0.0000
# 4 0.0000 0.0000 0.0000 9.9838 0.0000 0.0000
# 5 0.0000 0.0000 0.0000 0.0000 9.9838 0.0000
# 6 0.0000 0.0000 0.0000 0.0000 0.0000 30.7815
#
#
#
# Elastic Compliance Matrix: (Units=1/GPa)
#
#
# Indices 1 2 3 4 5 6 
#
# 1 0.012714 -0.004966 -0.000298 0.000000 0.000000 0.000000
# 2 -0.004966 0.012714 -0.000298 0.000000 0.000000 0.000000
# 3 -0.000298 -0.000298 0.032546 0.000000 0.000000 0.000000
# 4 0.000000 0.000000 0.000000 0.100162 0.000000 0.000000
# 5 0.000000 0.000000 0.000000 0.000000 0.100162 0.000000
# 6 0.000000 0.000000 0.000000 0.000000 0.000000 0.032487
#
#
# Mechanical properties :
#
#
# Convention : Reuss Voigt Hill
#
# Bulk Modulus (GPa) = 21.34372 32.64193 26.99283
# Shear Modulus (GPa) = 15.74672 22.00320 18.87496
#
# Velocity S-wave (km/s) = 2.74056 3.23957 3.00045
# Velocity P-wave (km/s) = 4.49382 5.43711 4.98782
#
# Compressibility (1/GPa) = 0.04685218
#
# Stress axis : x y z
#
# Youngs Moduli (GPa) = 78.65051 78.65051 30.72583
#
# Poissons Ratio (x) = 0.39060 0.00914
# Poissons Ratio (y) = 0.39060 0.00914
# Poissons Ratio (z) = 0.02340 0.02340
#
# Static dielectric constant tensor:
#      x y z
#    x 1.789020 0.000000 0.000000 
#    y 0.000000 1.789020 0.000000 
#    z 0.000000 0.000000 1.829100 
# 
# From -- ./inp_files/1724.got.cif
#   From: 2010.05.17/outbox.cif.g08.bks.cpg/sg132_1_cif.got.tgz:1724.got - 2010.05.20 12:30:18.
