data_PCOD9567571
_publ_section_title
;
Structure prediction by ZEFSAII (Michael W. Deem and Ramdas Pophale) SiO2 
 PCOD9567571
Probable space group: P 42/N B C
;
_chemical_formula_sum "Si O2"
_cell_formula_units_Z 64
_cell_length_a 18.517343
_cell_length_b 18.517343
_cell_length_c 9.086665
_cell_angle_alpha 90.000000
_cell_angle_beta 90.000000
_cell_angle_gamma 90.000000
_cell_volume 3115.744660
_symmetry_space_group_name_H-M "P 42/N B C"
_symmetry_group_IT_number 133
_space_group.IT_coordinate_system_code '2'
_symmetry_cell_setting 'tetragonal'
loop_
_space_group_symop_operation_xyz
x,y,z
1/2-y,x,1/2+z
1/2-x,1/2-y,z
y,1/2-x,1/2+z
x,1/2-y,-z
1/2-x,y,-z
y,x,1/2-z
1/2-y,1/2-x,1/2-z
-x,-y,-z
1/2+y,-x,1/2-z
1/2+x,1/2+y,-z
-y,1/2+x,1/2-z
-x,1/2+y,z
1/2+x,-y,z
-y,-x,1/2+z
1/2+y,1/2+x,1/2+z
loop_
_atom_site_type_symbol
_atom_site_label
_atom_site_fract_x
_atom_site_fract_y
_atom_site_fract_z
Si Si1 0.977364 0.830666 0.071736
Si Si2 0.670948 0.821141 0.574683
Si Si3 0.447344 0.774854 0.655639
Si Si4 0.822315 0.387171 0.405753
O O1 0.899366 0.864932 0.046616
O O2 0.995958 0.817859 0.242687
O O3 0.975064 0.750000 0.000000
O O4 0.048642 0.862124 0.995435
O O5 0.637807 0.750000 0.500000
O O6 0.750000 0.825585 0.500000
O O7 0.683391 0.816610 0.750000
O O8 0.476417 0.750000 0.500000
O O9 0.420156 0.707842 0.754237
O O10 0.376713 0.823061 0.624352
O O11 0.750000 0.366383 0.500000
#
# Coordination Sequence:
#
# PCOD9567571 Si02
#       4
#    16  16  16  16
#     4   8  18  33  46  69 107 139 166 208 263 319
#     4  10  19  34  57  82 105 124 155 211 273 331
#     4  10  17  27  45  70 100 143 189 221 256 299
#     4   9  18  29  43  68 105 145 182 224 263 296
#
# _framework density 20.540835999999999
#
# number of rings (size 3 to 8) (size 9 to 14) (size 15 to 20)
#    0.000    3.250    0.000    4.500    0.000    4.000 
#    0.000    2.500    0.000    1.500    0.000    0.000 
#    0.000    2.000    0.000    0.000    0.000    0.000 
#
# Total GULP energy -356613.622864 kJ/mol
# GULP energy per Si atom -5572.087857 kJ/mol
# Density = 2.049408 g / cm^3
# Si number density = 20.540836 Si / 1000 Ang^3
#
#
#
# Elastic Constant Matrix: (Units=GPa)
#
#
# Indices 1 2 3 4 5 6 
#
# 1 72.8409 36.5533 31.1372 0.0000 0.0000 0.0000
# 2 36.5533 72.8411 31.1372 0.0000 0.0000 0.0000
# 3 31.1372 31.1372 148.4901 0.0000 0.0000 0.0000
# 4 0.0000 0.0000 0.0000 4.9759 0.0000 0.0000
# 5 0.0000 0.0000 0.0000 0.0000 4.9766 0.0000
# 6 0.0000 0.0000 0.0000 0.0000 0.0000 -4.1484
#
#
#
# Elastic Compliance Matrix: (Units=1/GPa)
#
#
# Indices 1 2 3 4 5 6 
#
# 1 0.018969 -0.008589 -0.002177 0.000000 0.000000 0.000000
# 2 -0.008589 0.018969 -0.002177 0.000000 0.000000 0.000000
# 3 -0.002177 -0.002177 0.007647 0.000000 0.000000 0.000000
# 4 0.000000 0.000000 0.000000 0.200967 0.000000 0.000000
# 5 0.000000 0.000000 0.000000 0.000000 0.200939 0.000000
# 6 0.000000 0.000000 0.000000 0.000000 0.000000 -0.241054
#
#
# Mechanical properties :
#
#
# Convention : Reuss Voigt Hill
#
# Bulk Modulus (GPa) = 50.75803 54.64749 52.70276
# Shear Modulus (GPa) = 20.93031 14.18379 17.55705
#
# Velocity S-wave (km/s) = 3.19558 2.63062 2.92676
# Velocity P-wave (km/s) = 6.19517 5.99074 6.09381
#
# Compressibility (1/GPa) = 0.01970131
#
# Stress axis : x y z
#
# Youngs Moduli (GPa) = 52.71764 52.71784 130.76475
#
# Poissons Ratio (x) = 0.45277 0.28463
# Poissons Ratio (y) = 0.45277 0.28463
# Poissons Ratio (z) = 0.11475 0.11475
#
# Static dielectric constant tensor:
#      x y z
#    x 1.781590 0.000000 0.000000 
#    y 0.000000 1.781590 0.000000 
#    z 0.000000 0.000000 1.764310 
# 
# From -- ./inp_files/1549.got.cif
#   From: 2010.05.17/outbox.cif.g08.bks.cpg/sg133_1_cif.got.tgz:1549.got - 2010.05.20 12:37:36.
