data_PCOD9567301
_publ_section_title
;
Structure prediction by ZEFSAII (Michael W. Deem and Ramdas Pophale) SiO2 
 PCOD9567301
Probable space group: P 42/M C M
;
_chemical_formula_sum "Si O2"
_cell_formula_units_Z 96
_cell_length_a 24.228100
_cell_length_b 24.228100
_cell_length_c 8.661903
_cell_angle_alpha 90.000000
_cell_angle_beta 90.000000
_cell_angle_gamma 90.000000
_cell_volume 5084.544247
_symmetry_space_group_name_H-M "P 42/M C M"
_symmetry_group_IT_number 132
_symmetry_cell_setting 'tetragonal'
loop_
_space_group_symop_operation_xyz
x,y,z
-y,x,1/2+z
-x,-y,z
y,-x,1/2+z
x,-y,1/2-z
-x,y,1/2-z
y,x,-z
-y,-x,-z
-x,-y,-z
y,-x,1/2-z
x,y,-z
-y,x,1/2-z
-x,y,1/2+z
x,-y,1/2+z
-y,-x,z
y,x,z
loop_
_atom_site_type_symbol
_atom_site_label
_atom_site_fract_x
_atom_site_fract_y
_atom_site_fract_z
Si Si1 0.822370 0.737179 0.317358
Si Si2 0.058176 0.423465 0.178592
Si Si3 0.652853 0.563069 0.685242
Si Si4 0.290016 0.941104 0.323287
Si Si5 0.555835 0.829033 0.679830
Si Si6 0.751877 0.639170 0.178904
O O1 0.823739 0.727140 0.500000
O O2 0.797857 0.797857 0.287013
O O3 0.883957 0.728698 0.254642
O O4 0.776435 0.695025 0.250307
O O5 0.059892 0.356787 0.179573
O O6 0.105962 0.443242 0.292556
O O7 0.000000 0.439688 0.250000
O O8 0.065909 0.441379 0.000000
O O9 0.655949 0.500000 0.750000
O O10 0.657567 0.559681 0.500000
O O11 0.595390 0.595390 0.723294
O O12 0.701499 0.604697 0.744151
O O13 0.271758 0.940346 0.500000
O O14 0.273142 0.000000 0.250000
O O15 0.500000 0.805208 0.750000
O O16 0.563843 0.815284 0.500000
O O17 0.601182 0.804780 0.792469
O O18 0.738979 0.646660 0.000000
#
# Coordination Sequence:
#
# PCOD9567301 Si02
#       6
#    16  16  16  16  16  16
#     4  11  23  38  59  89 124 160 200 245 292 344
#     4  10  20  35  54  78 106 142 188 237 288 341
#     4  11  25  45  68  93 120 150 186 231 287 352
#     4  10  20  35  58  84 117 157 199 244 292 347
#     4  12  24  38  56  77 107 145 189 241 290 343
#     4  12  24  40  61  87 118 153 192 235 288 348
#
# _framework density 18.880749999999999
#
# number of rings (size 3 to 8) (size 9 to 14) (size 15 to 20)
#    0.000    1.000    1.667    6.000    0.000    6.500 
#    0.000    2.500    0.000    0.000    0.000    0.000 
#    0.000    0.333    0.000    3.500    0.000    1.500 
#
# Total GULP energy -535931.615283 kJ/mol
# GULP energy per Si atom -5582.620993 kJ/mol
# Density = 1.883778 g / cm^3
# Si number density = 18.880750 Si / 1000 Ang^3
#
#
#
# Elastic Constant Matrix: (Units=GPa)
#
#
# Indices 1 2 3 4 5 6 
#
# 1 101.6339 68.6578 48.5593 0.0000 0.0000 0.0000
# 2 68.6578 101.6339 48.5593 0.0000 0.0000 0.0000
# 3 48.5593 48.5593 115.9551 0.0000 0.0000 0.0000
# 4 0.0000 0.0000 0.0000 48.8303 0.0000 0.0000
# 5 0.0000 0.0000 0.0000 0.0000 48.8303 0.0000
# 6 0.0000 0.0000 0.0000 0.0000 0.0000 28.1863
#
#
#
# Elastic Compliance Matrix: (Units=1/GPa)
#
#
# Indices 1 2 3 4 5 6 
#
# 1 0.019020 -0.011305 -0.003231 0.000000 0.000000 0.000000
# 2 -0.011305 0.019020 -0.003231 0.000000 0.000000 0.000000
# 3 -0.003231 -0.003231 0.011330 0.000000 0.000000 0.000000
# 4 0.000000 0.000000 0.000000 0.020479 0.000000 0.000000
# 5 0.000000 0.000000 0.000000 0.000000 0.020479 0.000000
# 6 0.000000 0.000000 0.000000 0.000000 0.000000 0.035478
#
#
# Mechanical properties :
#
#
# Convention : Reuss Voigt Hill
#
# Bulk Modulus (GPa) = 72.27277 72.30844 72.29061
# Shear Modulus (GPa) = 30.12926 35.39915 32.76420
#
# Velocity S-wave (km/s) = 3.99904 4.33469 4.17024
# Velocity P-wave (km/s) = 7.72559 7.96450 7.84595
#
# Compressibility (1/GPa) = 0.01383647
#
# Stress axis : x y z
#
# Youngs Moduli (GPa) = 52.57651 52.57651 88.26133
#
# Poissons Ratio (x) = 0.59438 0.28515
# Poissons Ratio (y) = 0.59438 0.28515
# Poissons Ratio (z) = 0.16986 0.16986
#
# Static dielectric constant tensor:
#      x y z
#    x 1.659030 0.000000 0.000000 
#    y 0.000000 1.659030 0.000000 
#    z 0.000000 0.000000 1.646740 
# 
# From -- ./inp_files/1798.got.cif
#   From: 2010.05.17/outbox.cif.g08.bks.cpg/sg132_1_cif.got.tgz:1798.got - 2010.05.20 12:30:18.
