data_PCOD9567659
_publ_section_title
;
Structure prediction by ZEFSAII (Michael W. Deem and Ramdas Pophale) SiO2 
 PCOD9567659
Probable space group: P 42/N B C
;
_chemical_formula_sum "Si O2"
_cell_formula_units_Z 112
_cell_length_a 15.190957
_cell_length_b 15.190957
_cell_length_c 22.267982
_cell_angle_alpha 90.000000
_cell_angle_beta 90.000000
_cell_angle_gamma 90.000000
_cell_volume 5138.674754
_symmetry_space_group_name_H-M "P 42/N B C"
_symmetry_group_IT_number 133
_space_group.IT_coordinate_system_code '2'
_symmetry_cell_setting 'tetragonal'
loop_
_space_group_symop_operation_xyz
x,y,z
1/2-y,x,1/2+z
1/2-x,1/2-y,z
y,1/2-x,1/2+z
x,1/2-y,-z
1/2-x,y,-z
y,x,1/2-z
1/2-y,1/2-x,1/2-z
-x,-y,-z
1/2+y,-x,1/2-z
1/2+x,1/2+y,-z
-y,1/2+x,1/2-z
-x,1/2+y,z
1/2+x,-y,z
-y,-x,1/2+z
1/2+y,1/2+x,1/2+z
loop_
_atom_site_type_symbol
_atom_site_label
_atom_site_fract_x
_atom_site_fract_y
_atom_site_fract_z
Si Si1 0.116062 0.726489 0.259428
Si Si2 0.497102 0.567932 0.584590
Si Si3 0.830874 0.703524 0.319152
Si Si4 0.200259 0.998383 0.560865
Si Si5 0.235044 0.997016 0.865432
Si Si6 0.845147 0.593880 0.972982
Si Si7 0.000425 0.150083 0.155572
O O1 0.160850 0.805437 0.221936
O O2 0.079994 0.777866 0.317967
O O3 0.044483 0.672197 0.219967
O O4 0.397287 0.540185 0.570908
O O5 0.487919 0.662758 0.616195
O O6 0.553184 0.592138 0.524879
O O7 0.552747 0.496809 0.624582
O O8 0.750000 0.750000 0.350641
O O9 0.810629 0.689372 0.250000
O O10 0.843670 0.605842 0.341892
O O11 0.913514 0.766256 0.327286
O O12 0.250000 0.971619 0.500000
O O13 0.175548 0.102143 0.554978
O O14 0.269622 0.974137 0.612375
O O15 0.178266 0.017902 0.924173
O O16 0.750000 0.618744 0.000000
#
# Coordination Sequence:
#
# PCOD9567659 Si02
#       7
#    16  16  16  16  16  16  16
#     4  11  25  43  64  91 125 177 230 279 334 392
#     4  10  23  41  65  96 125 176 215 274 346 392
#     4  10  19  36  61  91 129 159 202 257 336 401
#     4  12  24  39  63  97 130 167 220 270 344 408
#     4  10  21  41  65  90 128 171 215 269 335 405
#     4  10  22  41  63  93 130 169 219 270 336 417
#     4  11  23  42  63  94 133 169 219 280 334 412
#
# _framework density 21.795503
#
# number of rings (size 3 to 8) (size 9 to 14) (size 15 to 20)
#    0.000    1.429    2.857    2.143    2.000    0.286 
#    0.000    0.000    0.000    3.000    0.000    0.000 
#    0.000    0.000    0.000    0.000    0.000    0.000 
#
# Total GULP energy -624352.299505 kJ/mol
# GULP energy per Si atom -5574.574103 kJ/mol
# Density = 2.174590 g / cm^3
# Si number density = 21.795503 Si / 1000 Ang^3
#
#
#
# Elastic Constant Matrix: (Units=GPa)
#
#
# Indices 1 2 3 4 5 6 
#
# 1 57.9834 -4.5784 -5.9528 0.0000 0.0000 0.0000
# 2 -4.5784 57.9833 -5.9529 0.0000 0.0000 0.0000
# 3 -5.9528 -5.9529 61.5657 0.0000 0.0000 0.0000
# 4 0.0000 0.0000 0.0000 15.8087 0.0000 0.0000
# 5 0.0000 0.0000 0.0000 0.0000 15.8088 0.0000
# 6 0.0000 0.0000 0.0000 0.0000 0.0000 30.4676
#
#
#
# Elastic Compliance Matrix: (Units=1/GPa)
#
#
# Indices 1 2 3 4 5 6 
#
# 1 0.017561 0.001577 0.001850 0.000000 0.000000 0.000000
# 2 0.001577 0.017561 0.001850 0.000000 0.000000 0.000000
# 3 0.001850 0.001850 0.016601 0.000000 0.000000 0.000000
# 4 0.000000 0.000000 0.000000 0.063256 0.000000 0.000000
# 5 0.000000 0.000000 0.000000 0.000000 0.063256 0.000000
# 6 0.000000 0.000000 0.000000 0.000000 0.000000 0.032822
#
#
# Mechanical properties :
#
#
# Convention : Reuss Voigt Hill
#
# Bulk Modulus (GPa) = 16.05728 16.06269 16.05998
# Shear Modulus (GPa) = 22.59780 25.35146 23.97463
#
# Velocity S-wave (km/s) = 3.22345 3.41420 3.32019
# Velocity P-wave (km/s) = 4.60840 4.78833 4.69923
#
# Compressibility (1/GPa) = 0.06227704
#
# Stress axis : x y z
#
# Youngs Moduli (GPa) = 56.94514 56.94498 60.23864
#
# Poissons Ratio (x) = -0.08978 -0.11147
# Poissons Ratio (y) = -0.08978 -0.11147
# Poissons Ratio (z) = -0.10537 -0.10537
#
# Static dielectric constant tensor:
#      x y z
#    x 1.870010 0.000000 0.000000 
#    y 0.000000 1.870010 0.000000 
#    z 0.000000 0.000000 1.836020 
# 
# From -- ./inp_files/7243.got.cif
#   From: 2010.05.17/outbox.cif.g08.bks.cpg/sg133_4_cif.got.tgz:7243.got - 2010.05.20 12:37:36.
