data_PCOD9567491
_publ_section_title
;
Structure prediction by ZEFSAII (Michael W. Deem and Ramdas Pophale) SiO2 
 PCOD9567491
Probable space group: P 42/M C M
;
_chemical_formula_sum "Si O2"
_cell_formula_units_Z 56
_cell_length_a 13.826712
_cell_length_b 13.826712
_cell_length_c 15.523057
_cell_angle_alpha 90.000000
_cell_angle_beta 90.000000
_cell_angle_gamma 90.000000
_cell_volume 2967.666444
_symmetry_space_group_name_H-M "P 42/M C M"
_symmetry_group_IT_number 132
_symmetry_cell_setting 'tetragonal'
loop_
_space_group_symop_operation_xyz
x,y,z
-y,x,1/2+z
-x,-y,z
y,-x,1/2+z
x,-y,1/2-z
-x,y,1/2-z
y,x,-z
-y,-x,-z
-x,-y,-z
y,-x,1/2-z
x,y,-z
-y,x,1/2-z
-x,y,1/2+z
x,-y,1/2+z
-y,-x,z
y,x,z
loop_
_atom_site_type_symbol
_atom_site_label
_atom_site_fract_x
_atom_site_fract_y
_atom_site_fract_z
Si Si1 0.508147 0.174535 0.902446
Si Si2 0.995272 0.846275 0.396058
Si Si3 0.630193 0.003350 0.349431
Si Si4 0.666038 0.500000 0.750000
O O1 0.596950 0.099039 0.889574
O O2 0.505029 0.260609 0.832325
O O3 0.420608 0.097367 0.890168
O O4 0.508176 0.212358 0.000000
O O5 0.995210 0.838581 0.500000
O O6 0.894226 0.894226 0.369462
O O7 0.013191 0.743390 0.357396
O O8 0.078717 0.921284 0.372289
O O9 0.602177 0.000000 0.250000
O O10 0.594023 0.405978 0.746913
#
# Coordination Sequence:
#
# PCOD9567491 Si02
#       4
#    16  16  16   8
#     4  11  22  42  68  93 122 159 200 252 315 371
#     4   9  19  35  53  80 122 165 203 243 286 343
#     4  11  20  37  63  92 127 161 199 253 304 357
#     4  11  26  47  66  90 124 159 208 269 320 376
#
# _framework density 18.870045000000001
#
# number of rings (size 3 to 8) (size 9 to 14) (size 15 to 20)
#    0.000    1.571    2.857    5.143    0.000    4.571 
#    0.000    2.857    0.000    0.000    0.000    0.000 
#    0.000    0.000    0.000    0.000    0.000    0.000 
#
# Total GULP energy -312415.064736 kJ/mol
# GULP energy per Si atom -5578.840442 kJ/mol
# Density = 1.882710 g / cm^3
# Si number density = 18.870045 Si / 1000 Ang^3
#
#
#
# Elastic Constant Matrix: (Units=GPa)
#
#
# Indices 1 2 3 4 5 6 
#
# 1 120.2180 12.1370 38.9198 0.0000 0.0000 0.0000
# 2 12.1370 120.2180 38.9198 0.0000 0.0000 0.0000
# 3 38.9198 38.9198 138.6355 0.0000 0.0000 0.0000
# 4 0.0000 0.0000 0.0000 19.8577 0.0000 0.0000
# 5 0.0000 0.0000 0.0000 0.0000 19.8577 0.0000
# 6 0.0000 0.0000 0.0000 0.0000 0.0000 0.8874
#
#
#
# Elastic Compliance Matrix: (Units=1/GPa)
#
#
# Indices 1 2 3 4 5 6 
#
# 1 0.009151 -0.000101 -0.002541 0.000000 0.000000 0.000000
# 2 -0.000101 0.009151 -0.002541 0.000000 0.000000 0.000000
# 3 -0.002541 -0.002541 0.008640 0.000000 0.000000 0.000000
# 4 0.000000 0.000000 0.000000 0.050358 0.000000 0.000000
# 5 0.000000 0.000000 0.000000 0.000000 0.050358 0.000000
# 6 0.000000 0.000000 0.000000 0.000000 0.000000 1.126884
#
#
# Mechanical properties :
#
#
# Convention : Reuss Voigt Hill
#
# Bulk Modulus (GPa) = 60.32601 62.11385 61.21993
# Shear Modulus (GPa) = 3.93567 27.39354 15.66460
#
# Velocity S-wave (km/s) = 1.44575 3.81424 2.88432
# Velocity P-wave (km/s) = 5.90132 7.23782 6.60347
#
# Compressibility (1/GPa) = 0.01657660
#
# Stress axis : x y z
#
# Youngs Moduli (GPa) = 109.27841 109.27841 115.74627
#
# Poissons Ratio (x) = 0.01108 0.29406
# Poissons Ratio (y) = 0.01108 0.29406
# Poissons Ratio (z) = 0.27762 0.27762
#
# Static dielectric constant tensor:
#      x y z
#    x 1.638060 0.000000 0.000000 
#    y 0.000000 1.638060 0.000000 
#    z 0.000000 0.000000 1.690990 
# 
# From -- ./inp_files/4263.got.cif
#   From: 2010.05.17/outbox.cif.g08.bks.cpg/sg132_3_cif.got.tgz:4263.got - 2010.05.20 12:30:18.
