data_PCOD9567764
_publ_section_title
;
Structure prediction by ZEFSAII (Michael W. Deem and Ramdas Pophale) SiO2 
 PCOD9567764
Probable space group: P 42/N B C
;
_chemical_formula_sum "Si O2"
_cell_formula_units_Z 60
_cell_length_a 13.222364
_cell_length_b 13.222364
_cell_length_c 15.776881
_cell_angle_alpha 90.000000
_cell_angle_beta 90.000000
_cell_angle_gamma 90.000000
_cell_volume 2758.286458
_symmetry_space_group_name_H-M "P 42/N B C"
_symmetry_group_IT_number 133
_space_group.IT_coordinate_system_code '2'
_symmetry_cell_setting 'tetragonal'
loop_
_space_group_symop_operation_xyz
x,y,z
1/2-y,x,1/2+z
1/2-x,1/2-y,z
y,1/2-x,1/2+z
x,1/2-y,-z
1/2-x,y,-z
y,x,1/2-z
1/2-y,1/2-x,1/2-z
-x,-y,-z
1/2+y,-x,1/2-z
1/2+x,1/2+y,-z
-y,1/2+x,1/2-z
-x,1/2+y,z
1/2+x,-y,z
-y,-x,1/2+z
1/2+y,1/2+x,1/2+z
loop_
_atom_site_type_symbol
_atom_site_label
_atom_site_fract_x
_atom_site_fract_y
_atom_site_fract_z
Si Si1 0.391388 0.829289 0.728155
Si Si2 0.025066 0.025066 0.250000
Si Si3 0.888170 0.579381 0.430197
Si Si4 0.088363 0.856080 0.466239
Si Si5 0.750000 0.750000 0.500000
O O1 0.378452 0.720538 0.768879
O O2 0.430506 0.828532 0.632296
O O3 0.460027 0.908826 0.776321
O O4 0.058151 0.087029 0.167858
O O5 0.858839 0.466931 0.465146
O O6 0.811933 0.671298 0.442457
O O7 0.987317 0.618932 0.480883
O O8 0.134349 0.750000 0.500000
#
# Coordination Sequence:
#
# PCOD9567764 Si02
#       5
#    16   8  16  16   4
#     4  10  22  42  66  99 133 175 225 284 336 408
#     4  10  22  47  66  97 138 174 232 280 352 399
#     4  10  23  42  71  99 137 182 223 298 341 420
#     4  10  20  44  68  94 137 184 226 279 352 415
#     4  12  24  46  66 108 134 174 244 282 352 434
#
# _framework density 21.752635000000001
#
# number of rings (size 3 to 8) (size 9 to 14) (size 15 to 20)
#    0.000    1.867    1.333    1.600    0.000    0.533 
#   48.000    0.000    0.000    0.000    0.000    0.000 
#    0.000    0.000    0.000    0.000    0.000    0.000 
#
# Total GULP energy -334381.706447 kJ/mol
# GULP energy per Si atom -5573.028441 kJ/mol
# Density = 2.170313 g / cm^3
# Si number density = 21.752635 Si / 1000 Ang^3
#
#
#
# Elastic Constant Matrix: (Units=GPa)
#
#
# Indices 1 2 3 4 5 6 
#
# 1 106.8379 54.3400 27.4867 0.0000 0.0000 0.0000
# 2 54.3400 106.8379 27.4867 0.0000 0.0000 0.0000
# 3 27.4867 27.4867 100.9499 0.0000 0.0000 0.0000
# 4 0.0000 0.0000 0.0000 5.8846 0.0000 0.0000
# 5 0.0000 0.0000 0.0000 0.0000 5.8846 0.0000
# 6 0.0000 0.0000 0.0000 0.0000 0.0000-3367.6398
#
#
#
# Elastic Compliance Matrix: (Units=1/GPa)
#
#
# Indices 1 2 3 4 5 6 
#
# 1 0.012944 -0.006104 -0.001862 0.000000 0.000000 0.000000
# 2 -0.006104 0.012944 -0.001862 0.000000 0.000000 0.000000
# 3 -0.001862 -0.001862 0.010920 0.000000 0.000000 0.000000
# 4 0.000000 0.000000 0.000000 0.169936 0.000000 0.000000
# 5 0.000000 0.000000 0.000000 0.000000 0.169936 0.000000
# 6 0.000000 0.000000 0.000000 0.000000 0.000000 -0.000297
#
#
# Mechanical properties :
#
#
# Convention : Reuss Voigt Hill
#
# Bulk Modulus (GPa) = 58.30915 59.25025 58.77970
# Shear Modulus (GPa) = 12.44534 -657.48663 -322.52064
#
# Velocity S-wave (km/s) = 2.39452 -17.40437 -12.18972
# Velocity P-wave (km/s) = 5.87441 19.40582 13.07817
#
# Compressibility (1/GPa) = 0.01714997
#
# Stress axis : x y z
#
# Youngs Moduli (GPa) = 77.25631 77.25631 91.57493
#
# Poissons Ratio (x) = 0.47161 0.17054
# Poissons Ratio (y) = 0.47161 0.17054
# Poissons Ratio (z) = 0.14387 0.14387
#
# Static dielectric constant tensor:
#      x y z
#    x 1.857790 0.000000 0.000000 
#    y 0.000000 1.857790 0.000000 
#    z 0.000000 0.000000 1.767710 
# 
# From -- ./inp_files/4208.got.cif
#   From: 2010.05.17/outbox.cif.g08.bks.cpg/sg133_3_cif.got.tgz:4208.got - 2010.05.20 12:37:36.
