data_PCOD9567702
_publ_section_title
;
Structure prediction by ZEFSAII (Michael W. Deem and Ramdas Pophale) SiO2 
 PCOD9567702
Probable space group: P 42/N B C
;
_chemical_formula_sum "Si O2"
_cell_formula_units_Z 108
_cell_length_a 15.038083
_cell_length_b 15.038083
_cell_length_c 20.375743
_cell_angle_alpha 90.000000
_cell_angle_beta 90.000000
_cell_angle_gamma 90.000000
_cell_volume 4607.850809
_symmetry_space_group_name_H-M "P 42/N B C"
_symmetry_group_IT_number 133
_space_group.IT_coordinate_system_code '2'
_symmetry_cell_setting 'tetragonal'
loop_
_space_group_symop_operation_xyz
x,y,z
1/2-y,x,1/2+z
1/2-x,1/2-y,z
y,1/2-x,1/2+z
x,1/2-y,-z
1/2-x,y,-z
y,x,1/2-z
1/2-y,1/2-x,1/2-z
-x,-y,-z
1/2+y,-x,1/2-z
1/2+x,1/2+y,-z
-y,1/2+x,1/2-z
-x,1/2+y,z
1/2+x,-y,z
-y,-x,1/2+z
1/2+y,1/2+x,1/2+z
loop_
_atom_site_type_symbol
_atom_site_label
_atom_site_fract_x
_atom_site_fract_y
_atom_site_fract_z
Si Si1 0.150635 0.603478 0.413510
Si Si2 0.031974 0.163547 0.455264
Si Si3 0.599974 0.424292 0.776594
Si Si4 0.250000 0.750000 0.000000
Si Si5 0.716551 0.918553 0.191850
Si Si6 0.644287 0.905891 0.559470
Si Si7 0.519086 0.903981 0.672900
Si Si8 0.750000 0.750000 0.632950
O O1 0.139961 0.629049 0.336045
O O2 0.198379 0.682161 0.452197
O O3 0.185452 0.502373 0.424243
O O4 0.053161 0.601501 0.447556
O O5 0.015634 0.250000 0.500000
O O6 0.046875 0.198240 0.382133
O O7 0.117664 0.113520 0.484796
O O8 0.660048 0.511442 0.767404
O O9 0.503353 0.453009 0.806156
O O10 0.578168 0.388464 0.703842
O O11 0.821080 0.928229 0.204544
O O12 0.696012 0.815829 0.180821
O O13 0.548712 0.901382 0.597718
O O14 0.700028 0.823188 0.588573
#
# Coordination Sequence:
#
# PCOD9567702 Si02
#       8
#    16  16  16   4  16  16  16   8
#     4  10  23  40  60  86 124 175 225 258 329 387
#     4  11  18  36  61  93 129 170 212 260 318 401
#     4   9  20  41  62  84 116 168 222 264 315 389
#     4  12  24  40  56  90 138 170 212 282 316 386
#     4  10  21  36  62  97 129 168 209 265 338 390
#     4  10  21  38  64  98 130 176 209 264 341 404
#     4   9  18  39  63  82 121 160 207 267 312 372
#     4  10  20  35  58  97 144 160 204 270 332 406
#
# _framework density 23.438258999999999
#
# number of rings (size 3 to 8) (size 9 to 14) (size 15 to 20)
#    0.000    2.074    3.704    0.444    0.000    2.370 
#    0.000   22.222    0.000   43.556    0.000    0.000 
#    0.000    0.000    0.000    0.000    0.000    0.296 
#
# Total GULP energy -601694.487902 kJ/mol
# GULP energy per Si atom -5571.245258 kJ/mol
# Density = 2.338491 g / cm^3
# Si number density = 23.438259 Si / 1000 Ang^3
#
#
#
# Elastic Constant Matrix: (Units=GPa)
#
#
# Indices 1 2 3 4 5 6 
#
# 1 82.4895 45.4439 20.4162 0.0000 0.0000 0.0000
# 2 45.4439 82.4895 20.4162 0.0000 0.0000 0.0000
# 3 20.4162 20.4162 78.6158 0.0000 0.0000 0.0000
# 4 0.0000 0.0000 0.0000 25.3721 0.0000 0.0000
# 5 0.0000 0.0000 0.0000 0.0000 25.3721 0.0000
# 6 0.0000 0.0000 0.0000 0.0000 0.0000 34.1588
#
#
#
# Elastic Compliance Matrix: (Units=1/GPa)
#
#
# Indices 1 2 3 4 5 6 
#
# 1 0.017758 -0.009235 -0.002213 0.000000 0.000000 0.000000
# 2 -0.009235 0.017758 -0.002213 0.000000 0.000000 0.000000
# 3 -0.002213 -0.002213 0.013870 0.000000 0.000000 0.000000
# 4 0.000000 0.000000 0.000000 0.039413 0.000000 0.000000
# 5 0.000000 0.000000 0.000000 0.000000 0.039413 0.000000
# 6 0.000000 0.000000 0.000000 0.000000 0.000000 0.029275
#
#
# Mechanical properties :
#
#
# Convention : Reuss Voigt Hill
#
# Bulk Modulus (GPa) = 45.32648 46.23862 45.78255
# Shear Modulus (GPa) = 26.01908 27.46849 26.74378
#
# Velocity S-wave (km/s) = 3.33545 3.42709 3.38158
# Velocity P-wave (km/s) = 5.84930 5.95236 5.90105
#
# Compressibility (1/GPa) = 0.02206216
#
# Stress axis : x y z
#
# Youngs Moduli (GPa) = 56.31148 56.31148 72.09953
#
# Poissons Ratio (x) = 0.52006 0.15958
# Poissons Ratio (y) = 0.52006 0.15958
# Poissons Ratio (z) = 0.12464 0.12464
#
# Static dielectric constant tensor:
#      x y z
#    x 1.949750 0.000000 0.000000 
#    y 0.000000 1.949750 0.000000 
#    z 0.000000 0.000000 2.002940 
# 
# From -- ./inp_files/7296.got.cif
#   From: 2010.05.17/outbox.cif.g08.bks.cpg/sg133_4_cif.got.tgz:7296.got - 2010.05.20 12:37:36.
