data_PCOD9567739
_publ_section_title
;
Structure prediction by ZEFSAII (Michael W. Deem and Ramdas Pophale) SiO2 
 PCOD9567739
Probable space group: P 42/N B C
;
_chemical_formula_sum "Si O2"
_cell_formula_units_Z 32
_cell_length_a 14.572959
_cell_length_b 14.572959
_cell_length_c 5.824602
_cell_angle_alpha 90.000000
_cell_angle_beta 90.000000
_cell_angle_gamma 90.000000
_cell_volume 1236.977332
_symmetry_space_group_name_H-M "P 42/N B C"
_symmetry_group_IT_number 133
_space_group.IT_coordinate_system_code '2'
_symmetry_cell_setting 'tetragonal'
loop_
_space_group_symop_operation_xyz
x,y,z
1/2-y,x,1/2+z
1/2-x,1/2-y,z
y,1/2-x,1/2+z
x,1/2-y,-z
1/2-x,y,-z
y,x,1/2-z
1/2-y,1/2-x,1/2-z
-x,-y,-z
1/2+y,-x,1/2-z
1/2+x,1/2+y,-z
-y,1/2+x,1/2-z
-x,1/2+y,z
1/2+x,-y,z
-y,-x,1/2+z
1/2+y,1/2+x,1/2+z
loop_
_atom_site_type_symbol
_atom_site_label
_atom_site_fract_x
_atom_site_fract_y
_atom_site_fract_z
Si Si1 0.358358 0.890270 0.690469
Si Si2 0.574178 0.574178 0.250000
Si Si3 0.250000 0.455635 0.500000
O O1 0.342729 0.847700 0.436591
O O2 0.467465 0.915964 0.678438
O O3 0.290630 0.977571 0.697449
O O4 0.656731 0.592381 0.426860
#
# Coordination Sequence:
#
# PCOD9567739 Si02
#       3
#    16   8   8
#     4  10  21  39  65  93 125 172 222 269 329 395
#     4  10  22  40  68  98 132 182 228 274 340 404
#     4  10  20  38  68  96 132 176 224 282 338 404
#
# _framework density 25.869515
#
# number of rings (size 3 to 8) (size 9 to 14) (size 15 to 20)
#    0.000    2.000    0.000    6.000    0.000    8.000 
#    0.000    0.000    0.000  127.500    0.000    0.000 
#    0.000    0.000    0.000    0.000    0.000    0.000 
#
# Total GULP energy -178260.982879 kJ/mol
# GULP energy per Si atom -5570.655715 kJ/mol
# Density = 2.581063 g / cm^3
# Si number density = 25.869515 Si / 1000 Ang^3
#
#
#
# Elastic Constant Matrix: (Units=GPa)
#
#
# Indices 1 2 3 4 5 6 
#
# 1 160.4903 11.5101 31.6985 0.0000 0.0000 0.0000
# 2 11.5101 160.4903 31.6985 0.0000 0.0000 0.0000
# 3 31.6985 31.6985 190.5405 0.0000 0.0000 0.0000
# 4 0.0000 0.0000 0.0000 10.7536 0.0000 0.0000
# 5 0.0000 0.0000 0.0000 0.0000 10.7536 0.0000
# 6 0.0000 0.0000 0.0000 0.0000 0.0000 7.8730
#
#
#
# Elastic Compliance Matrix: (Units=1/GPa)
#
#
# Indices 1 2 3 4 5 6 
#
# 1 0.006453 -0.000259 -0.001030 0.000000 0.000000 0.000000
# 2 -0.000259 0.006453 -0.001030 0.000000 0.000000 0.000000
# 3 -0.001030 -0.001030 0.005591 0.000000 0.000000 0.000000
# 4 0.000000 0.000000 0.000000 0.092992 0.000000 0.000000
# 5 0.000000 0.000000 0.000000 0.000000 0.092992 0.000000
# 6 0.000000 0.000000 0.000000 0.000000 0.000000 0.127017
#
#
# Mechanical properties :
#
#
# Convention : Reuss Voigt Hill
#
# Bulk Modulus (GPa) = 72.16599 73.48170 72.82385
# Shear Modulus (GPa) = 14.67322 34.98365 24.82843
#
# Velocity S-wave (km/s) = 2.38418 3.68137 3.10135
# Velocity P-wave (km/s) = 5.96119 6.82176 6.40594
#
# Compressibility (1/GPa) = 0.01385694
#
# Stress axis : x y z
#
# Youngs Moduli (GPa) = 154.96634 154.96634 178.85689
#
# Poissons Ratio (x) = 0.04018 0.18429
# Poissons Ratio (y) = 0.04018 0.18429
# Poissons Ratio (z) = 0.15968 0.15968
#
# Static dielectric constant tensor:
#      x y z
#    x 2.104530 0.000000 0.000000 
#    y 0.000000 2.104530 0.000000 
#    z 0.000000 0.000000 2.122800 
# 
# From -- ./inp_files/108.got.cif
#   From: 2010.05.17/outbox.cif.g08.bks.cpg/sg133_1_cif.got.tgz:108.got - 2010.05.20 12:37:36.
