data_PCOD9567460
_publ_section_title
;
Structure prediction by ZEFSAII (Michael W. Deem and Ramdas Pophale) SiO2 
 PCOD9567460
Probable space group: P 42/M C M
;
_chemical_formula_sum "Si O2"
_cell_formula_units_Z 108
_cell_length_a 14.695051
_cell_length_b 14.695051
_cell_length_c 23.454320
_cell_angle_alpha 90.000000
_cell_angle_beta 90.000000
_cell_angle_gamma 90.000000
_cell_volume 5064.831966
_symmetry_space_group_name_H-M "P 42/M C M"
_symmetry_group_IT_number 132
_symmetry_cell_setting 'tetragonal'
loop_
_space_group_symop_operation_xyz
x,y,z
-y,x,1/2+z
-x,-y,z
y,-x,1/2+z
x,-y,1/2-z
-x,y,1/2-z
y,x,-z
-y,-x,-z
-x,-y,-z
y,-x,1/2-z
x,y,-z
-y,x,1/2-z
-x,y,1/2+z
x,-y,1/2+z
-y,-x,z
y,x,z
loop_
_atom_site_type_symbol
_atom_site_label
_atom_site_fract_x
_atom_site_fract_y
_atom_site_fract_z
Si Si1 0.000000 0.000000 0.668215
Si Si2 0.839886 0.692792 0.130717
Si Si3 0.497069 0.352976 0.643153
Si Si4 0.158332 0.309283 0.267769
Si Si5 0.186062 0.496012 0.932051
Si Si6 0.232568 0.500000 0.250000
Si Si7 0.837649 0.301644 0.067401
Si Si8 0.215212 0.977715 0.852029
O O1 0.112717 0.002247 0.667226
O O2 0.749331 0.749331 0.113701
O O3 0.844972 0.692922 0.199413
O O4 0.844790 0.593713 0.102026
O O5 0.931339 0.747372 0.118545
O O6 0.570436 0.429565 0.631677
O O7 0.402893 0.402893 0.658311
O O8 0.490157 0.289500 0.588447
O O9 0.531198 0.295728 0.697680
O O10 0.242396 0.242396 0.284865
O O11 0.177573 0.416014 0.277281
O O12 0.069306 0.271041 0.299662
O O13 0.142974 0.593848 0.915702
O O14 0.177191 0.483346 0.000000
O O15 0.735266 0.264735 0.078645
O O16 0.903002 0.232979 0.099650
O O17 0.851361 0.296974 0.000000
#
# Coordination Sequence:
#
# PCOD9567460 Si02
#       8
#     4  16  16  16  16   8  16  16
#     4  12  24  48  78 116 144 186 245 304 379 442
#     4  11  25  44  65  98 140 186 241 297 365 448
#     4  11  22  36  60  97 136 184 244 302 366 433
#     4  11  23  42  66  98 140 187 235 290 360 438
#     4  11  24  44  68  97 140 195 248 305 364 433
#     4  12  22  39  65  98 142 192 232 294 367 443
#     4  10  22  43  71 102 137 180 236 295 361 435
#     4  12  24  46  74 106 143 186 236 303 371 444
#
# _framework density 21.323509999999999
#
# number of rings (size 3 to 8) (size 9 to 14) (size 15 to 20)
#    0.000    0.889    3.704    3.556    0.000    3.852 
#    0.000    5.185    0.000    0.000    0.000    0.000 
#    0.000    0.000    0.000    0.000    0.000    0.000 
#
# Total GULP energy -601659.667380 kJ/mol
# GULP energy per Si atom -5570.922846 kJ/mol
# Density = 2.127498 g / cm^3
# Si number density = 21.323510 Si / 1000 Ang^3
#
#
#
# Elastic Constant Matrix: (Units=GPa)
#
#
# Indices 1 2 3 4 5 6 
#
# 1 73.4489 67.5088 15.4688 0.0000 0.0000 0.0000
# 2 67.5088 73.4489 15.4688 0.0000 0.0000 0.0000
# 3 15.4688 15.4688 62.2357 0.0000 0.0000 0.0000
# 4 0.0000 0.0000 0.0000 11.9190 0.0000 0.0000
# 5 0.0000 0.0000 0.0000 0.0000 11.9190 0.0000
# 6 0.0000 0.0000 0.0000 0.0000 0.0000 44.0085
#
#
#
# Elastic Compliance Matrix: (Units=1/GPa)
#
#
# Indices 1 2 3 4 5 6 
#
# 1 0.087925 -0.080421 -0.001865 0.000000 0.000000 0.000000
# 2 -0.080421 0.087925 -0.001865 0.000000 0.000000 0.000000
# 3 -0.001865 -0.001865 0.016995 0.000000 0.000000 0.000000
# 4 0.000000 0.000000 0.000000 0.083899 0.000000 0.000000
# 5 0.000000 0.000000 0.000000 0.000000 0.083899 0.000000
# 6 0.000000 0.000000 0.000000 0.000000 0.000000 0.022723
#
#
# Mechanical properties :
#
#
# Convention : Reuss Voigt Hill
#
# Bulk Modulus (GPa) = 40.74613 45.11402 42.93008
# Shear Modulus (GPa) = 8.93096 20.94846 14.93971
#
# Velocity S-wave (km/s) = 2.04876 3.13774 2.64980
# Velocity P-wave (km/s) = 4.97459 5.85919 5.43492
#
# Compressibility (1/GPa) = 0.02454221
#
# Stress axis : x y z
#
# Youngs Moduli (GPa) = 11.37332 11.37332 58.84061
#
# Poissons Ratio (x) = 0.91466 0.10974
# Poissons Ratio (y) = 0.91466 0.10974
# Poissons Ratio (z) = 0.02121 0.02121
#
# Static dielectric constant tensor:
#      x y z
#    x 1.823830 0.000000 0.000000 
#    y 0.000000 1.823830 0.000000 
#    z 0.000000 0.000000 1.778480 
# 
# From -- ./inp_files/9164.got.cif
#   From: 2010.05.17/outbox.cif.g08.bks.cpg/sg132_5_cif.got.tgz:9164.got - 2010.05.20 12:30:18.
