data_PCOD9567833
_publ_section_title
;
Structure prediction by ZEFSAII (Michael W. Deem and Ramdas Pophale) SiO2 
 PCOD9567833
Probable space group: P 42/N B C
;
_chemical_formula_sum "Si O2"
_cell_formula_units_Z 48
_cell_length_a 14.462287
_cell_length_b 14.462287
_cell_length_c 9.858710
_cell_angle_alpha 90.000000
_cell_angle_beta 90.000000
_cell_angle_gamma 90.000000
_cell_volume 2062.025555
_symmetry_space_group_name_H-M "P 42/N B C"
_symmetry_group_IT_number 133
_space_group.IT_coordinate_system_code '2'
_symmetry_cell_setting 'tetragonal'
loop_
_space_group_symop_operation_xyz
x,y,z
1/2-y,x,1/2+z
1/2-x,1/2-y,z
y,1/2-x,1/2+z
x,1/2-y,-z
1/2-x,y,-z
y,x,1/2-z
1/2-y,1/2-x,1/2-z
-x,-y,-z
1/2+y,-x,1/2-z
1/2+x,1/2+y,-z
-y,1/2+x,1/2-z
-x,1/2+y,z
1/2+x,-y,z
-y,-x,1/2+z
1/2+y,1/2+x,1/2+z
loop_
_atom_site_type_symbol
_atom_site_label
_atom_site_fract_x
_atom_site_fract_y
_atom_site_fract_z
Si Si1 0.581733 0.057346 0.576330
Si Si2 0.427029 0.276110 0.780195
Si Si3 0.958914 0.250000 0.500000
Si Si4 0.917653 0.582348 0.250000
O O1 0.599708 0.155298 0.505505
O O2 0.524061 0.087729 0.708444
O O3 0.500000 0.000000 0.500000
O O4 0.665550 0.995530 0.625087
O O5 0.337023 0.337023 0.750000
O O6 0.475779 0.260746 0.632769
O O7 0.406154 0.174459 0.840790
#
# Coordination Sequence:
#
# PCOD9567833 Si02
#       4
#    16  16   8   8
#     4  11  20  40  64  92 134 180 226 289 355 431
#     4  11  21  40  63  97 136 175 229 288 357 432
#     4  10  22  38  67  97 130 180 234 284 363 441
#     4  10  23  36  62  95 128 174 224 288 350 417
#
# _framework density 23.278082000000001
#
# number of rings (size 3 to 8) (size 9 to 14) (size 15 to 20)
#    0.000    1.333    5.000    0.500    0.000    1.333 
#    0.000    1.667    0.000   60.000    0.000    0.000 
#    0.000    0.000    0.000    0.000    0.000    0.000 
#
# Total GULP energy -267378.693281 kJ/mol
# GULP energy per Si atom -5570.389443 kJ/mol
# Density = 2.322510 g / cm^3
# Si number density = 23.278082 Si / 1000 Ang^3
#
#
#
# Elastic Constant Matrix: (Units=GPa)
#
#
# Indices 1 2 3 4 5 6 
#
# 1 125.1115 30.2171 14.4340 0.0000 0.0000 0.0000
# 2 30.2171 125.1105 14.4333 0.0000 0.0000 0.0000
# 3 14.4340 14.4333 72.5081 0.0000 0.0000 0.0000
# 4 0.0000 0.0000 0.0000 32.9471 0.0000 0.0000
# 5 0.0000 0.0000 0.0000 0.0000 32.9476 0.0000
# 6 0.0000 0.0000 0.0000 0.0000 0.0000 35.1909
#
#
#
# Elastic Compliance Matrix: (Units=1/GPa)
#
#
# Indices 1 2 3 4 5 6 
#
# 1 0.008612 -0.001926 -0.001331 0.000000 0.000000 0.000000
# 2 -0.001926 0.008612 -0.001331 0.000000 0.000000 0.000000
# 3 -0.001331 -0.001331 0.014321 0.000000 0.000000 0.000000
# 4 0.000000 0.000000 0.000000 0.030352 0.000000 0.000000
# 5 0.000000 0.000000 0.000000 0.000000 0.030351 0.000000
# 6 0.000000 0.000000 0.000000 0.000000 0.000000 0.028416
#
#
# Mechanical properties :
#
#
# Convention : Reuss Voigt Hill
#
# Bulk Modulus (GPa) = 44.70507 48.98877 46.84692
# Shear Modulus (GPa) = 36.41757 37.79350 37.10554
#
# Velocity S-wave (km/s) = 3.95961 4.03372 3.99684
# Velocity P-wave (km/s) = 6.33650 6.54104 6.43958
#
# Compressibility (1/GPa) = 0.02236883
#
# Stress axis : x y z
#
# Youngs Moduli (GPa) = 116.12144 116.12077 69.82561
#
# Poissons Ratio (x) = 0.22369 0.09293
# Poissons Ratio (y) = 0.22370 0.09292
# Poissons Ratio (z) = 0.15454 0.15453
#
# Static dielectric constant tensor:
#      x y z
#    x 1.947630 0.000000 0.000000 
#    y 0.000000 1.947630 0.000000 
#    z 0.000000 0.000000 1.767330 
# 
# From -- ./inp_files/2662.got.cif
#   From: 2010.05.17/outbox.cif.g08.bks.cpg/sg133_2_cif.got.tgz:2662.got - 2010.05.20 12:37:36.
