data_PCOD9567427
_publ_section_title
;
Structure prediction by ZEFSAII (Michael W. Deem and Ramdas Pophale) SiO2 
 PCOD9567427
Probable space group: P 42/M C M
;
_chemical_formula_sum "Si O2"
_cell_formula_units_Z 60
_cell_length_a 15.614012
_cell_length_b 15.614012
_cell_length_c 13.733137
_cell_angle_alpha 90.000000
_cell_angle_beta 90.000000
_cell_angle_gamma 90.000000
_cell_volume 3348.102693
_symmetry_space_group_name_H-M "P 42/M C M"
_symmetry_group_IT_number 132
_symmetry_cell_setting 'tetragonal'
loop_
_space_group_symop_operation_xyz
x,y,z
-y,x,1/2+z
-x,-y,z
y,-x,1/2+z
x,-y,1/2-z
-x,y,1/2-z
y,x,-z
-y,-x,-z
-x,-y,-z
y,-x,1/2-z
x,y,-z
-y,x,1/2-z
-x,y,1/2+z
x,-y,1/2+z
-y,-x,z
y,x,z
loop_
_atom_site_type_symbol
_atom_site_label
_atom_site_fract_x
_atom_site_fract_y
_atom_site_fract_z
Si Si1 0.165283 0.165283 0.500000
Si Si2 0.234912 0.022619 0.000000
Si Si3 0.421503 0.063249 0.500000
Si Si4 0.447458 0.212125 0.346223
Si Si5 0.185951 0.185951 0.895748
Si Si6 0.747527 0.747527 0.309748
Si Si7 0.498873 0.353934 0.000000
O O1 0.064682 0.182805 0.500000
O O2 0.207520 0.207520 0.403315
O O3 0.209042 0.085536 0.910467
O O4 0.333179 0.990583 0.000000
O O5 0.432444 0.127286 0.409591
O O6 0.500000 0.000000 0.500000
O O7 0.500000 0.193701 0.250000
O O8 0.352891 0.239261 0.317298
O O9 0.491132 0.288868 0.408679
O O10 0.218953 0.218953 0.793873
O O11 0.223453 0.223453 0.000000
O O12 0.413270 0.413270 0.000000
O O13 0.579049 0.420952 0.000000
#
# Coordination Sequence:
#
# PCOD9567427 Si02
#       7
#     4   8   8  16   8   8   8
#     4  12  20  41  78  94 125 178 214 292 320 398
#     4   9  21  45  65  99 128 173 220 263 345 389
#     4  11  24  44  64  93 135 166 221 272 325 399
#     4  11  25  41  63  99 123 172 223 268 330 396
#     4   8  24  42  62  98 137 173 210 267 331 417
#     4  12  22  44  69  94 134 177 223 268 336 399
#     4  10  21  41  63  86 129 165 209 275 326 388
#
# _framework density 17.920597000000001
#
# number of rings (size 3 to 8) (size 9 to 14) (size 15 to 20)
#    0.800    0.667    4.000    0.800    5.600    2.667 
#    2.400    1.333    0.000    3.200    0.000    0.000 
#    0.000    0.000    0.000    0.000    0.000    0.000 
#
# Total GULP energy -334300.049683 kJ/mol
# GULP energy per Si atom -5571.667495 kJ/mol
# Density = 1.787981 g / cm^3
# Si number density = 17.920597 Si / 1000 Ang^3
#
#
#
# Elastic Constant Matrix: (Units=GPa)
#
#
# Indices 1 2 3 4 5 6 
#
# 1 -132.9680 381.9096 68.9453 0.0000 0.0000 0.0000
# 2 381.9096 -132.9809 68.9416 0.0000 0.0000 0.0000
# 3 68.9453 68.9416 148.2247 0.0000 0.0000 0.0000
# 4 0.0000 0.0000 0.0000 31.6441 0.0000 0.0000
# 5 0.0000 0.0000 0.0000 0.0000 31.6489 0.0000
# 6 0.0000 0.0000 0.0000 0.0000 0.0000 38.1295
#
#
#
# Elastic Compliance Matrix: (Units=1/GPa)
#
#
# Indices 1 2 3 4 5 6 
#
# 1 0.001735 0.003677 -0.002517 0.000000 0.000000 0.000000
# 2 0.003677 0.001734 -0.002517 0.000000 0.000000 0.000000
# 3 -0.002517 -0.002517 0.009088 0.000000 0.000000 0.000000
# 4 0.000000 0.000000 0.000000 0.031601 0.000000 0.000000
# 5 0.000000 0.000000 0.000000 0.000000 0.031597 0.000000
# 6 0.000000 0.000000 0.000000 0.000000 0.000000 0.026226
#
#
# Mechanical properties :
#
#
# Convention : Reuss Voigt Hill
#
# Bulk Modulus (GPa) = 101.59810 102.42987 102.01399
# Shear Modulus (GPa) = 46.30628 -22.21688 12.04470
#
# Velocity S-wave (km/s) = 5.08879 -3.52481 2.59533
# Velocity P-wave (km/s) = 9.55742 6.38091 8.12589
#
# Compressibility (1/GPa) = 0.00984270
#
# Stress axis : x y z
#
# Youngs Moduli (GPa) = 576.50718 576.54045 110.03644
#
# Poissons Ratio (x) = -2.11978 0.27695
# Poissons Ratio (y) = -2.11965 0.27695
# Poissons Ratio (z) = 1.45103 1.45111
#
# Static dielectric constant tensor:
#      x y z
#    x 1.584840 0.000000 0.000000 
#    y 0.000000 1.584840 0.000000 
#    z 0.000000 0.000000 1.630900 
# 
# From -- ./inp_files/4524.got.cif
#   From: 2010.05.17/outbox.cif.g08.bks.cpg/sg132_3_cif.got.tgz:4524.got - 2010.05.20 12:30:18.
