data_PCOD9567028
_publ_section_title
;
Structure prediction by ZEFSAII (Michael W. Deem and Ramdas Pophale) SiO2 
 PCOD9567028
Probable space group: P 42/M C M
;
_chemical_formula_sum "Si O2"
_cell_formula_units_Z 116
_cell_length_a 28.724800
_cell_length_b 28.724800
_cell_length_c 7.809190
_cell_angle_alpha 90.000000
_cell_angle_beta 90.000000
_cell_angle_gamma 90.000000
_cell_volume 6443.473052
_symmetry_space_group_name_H-M "P 42/M C M"
_symmetry_group_IT_number 132
_symmetry_cell_setting 'tetragonal'
loop_
_space_group_symop_operation_xyz
x,y,z
-y,x,1/2+z
-x,-y,z
y,-x,1/2+z
x,-y,1/2-z
-x,y,1/2-z
y,x,-z
-y,-x,-z
-x,-y,-z
y,-x,1/2-z
x,y,-z
-y,x,1/2-z
-x,y,1/2+z
x,-y,1/2+z
-y,-x,z
y,x,z
loop_
_atom_site_type_symbol
_atom_site_label
_atom_site_fract_x
_atom_site_fract_y
_atom_site_fract_z
Si Si1 0.238845 0.350065 0.702521
Si Si2 0.447414 0.200988 0.205261
Si Si3 0.946174 0.871321 0.794025
Si Si4 0.093448 0.551575 0.706302
Si Si5 0.861089 0.307236 0.195531
Si Si6 0.357849 0.951754 0.694584
Si Si7 0.304466 0.304466 0.000000
Si Si8 0.796518 0.874874 0.203839
O O1 0.248606 0.338427 0.500000
O O2 0.230823 0.405601 0.716652
O O3 0.188891 0.326610 0.751382
O O4 0.274850 0.332181 0.845426
O O5 0.500000 0.216021 0.250000
O O6 0.442772 0.147105 0.266460
O O7 0.442218 0.201653 0.000000
O O8 0.915040 0.915040 0.732150
O O9 0.920871 0.823908 0.734316
O O10 0.000000 0.874655 0.750000
O O11 0.942247 0.870878 0.000000
O O12 0.077146 0.500000 0.750000
O O13 0.095835 0.554916 0.500000
O O14 0.061621 0.592779 0.779029
O O15 0.905712 0.327059 0.292402
O O16 0.863217 0.251739 0.208761
O O17 0.866975 0.322249 0.000000
O O18 0.369193 0.960872 0.500000
O O19 0.335019 0.000000 0.750000
O O20 0.832994 0.832994 0.226568
O O21 0.787486 0.879348 0.000000
#
# Coordination Sequence:
#
# PCOD9567028 Si02
#       8
#    16  16  16  16  16  16   4  16
#     4  11  24  40  60  92 124 162 213 258 308 374
#     4  10  18  34  59  88 120 161 208 262 314 360
#     4   9  19  36  55  79 104 129 161 198 247 317
#     4   9  19  33  54  78 105 140 183 237 299 356
#     4  11  24  38  56  80 109 140 185 242 289 352
#     4  11  23  39  56  75 103 140 183 231 295 364
#     4  12  26  40  64  86 132 172 200 259 325 362
#     4   9  20  37  58  77 100 135 172 210 262 324
#
# _framework density 18.002714000000001
#
# number of rings (size 3 to 8) (size 9 to 14) (size 15 to 20)
#    0.000    1.931    2.069    2.276    2.897    3.724 
#    0.000    4.828    0.000    0.000    0.000    0.000 
#    0.000    0.000    0.000    0.000    0.000    1.034 
#
# Total GULP energy -645917.140269 kJ/mol
# GULP energy per Si atom -5568.251209 kJ/mol
# Density = 1.796174 g / cm^3
# Si number density = 18.002714 Si / 1000 Ang^3
#
#
#
# Elastic Constant Matrix: (Units=GPa)
#
#
# Indices 1 2 3 4 5 6 
#
# 1 68.9347 27.5417 17.0766 0.0000 0.0000 0.0000
# 2 27.5417 68.9347 17.0766 0.0000 0.0000 0.0000
# 3 17.0766 17.0766 56.7426 0.0000 0.0000 0.0000
# 4 0.0000 0.0000 0.0000 22.8395 0.0000 0.0000
# 5 0.0000 0.0000 0.0000 0.0000 22.8395 0.0000
# 6 0.0000 0.0000 0.0000 0.0000 0.0000 18.3648
#
#
#
# Elastic Compliance Matrix: (Units=1/GPa)
#
#
# Indices 1 2 3 4 5 6 
#
# 1 0.017880 -0.006279 -0.003491 0.000000 0.000000 0.000000
# 2 -0.006279 0.017880 -0.003491 0.000000 0.000000 0.000000
# 3 -0.003491 -0.003491 0.019725 0.000000 0.000000 0.000000
# 4 0.000000 0.000000 0.000000 0.043784 0.000000 0.000000
# 5 0.000000 0.000000 0.000000 0.000000 0.043784 0.000000
# 6 0.000000 0.000000 0.000000 0.000000 0.000000 0.054452
#
#
# Mechanical properties :
#
#
# Convention : Reuss Voigt Hill
#
# Bulk Modulus (GPa) = 34.52821 35.33353 34.93087
# Shear Modulus (GPa) = 21.39665 21.66988 21.53326
#
# Velocity S-wave (km/s) = 3.45124 3.47320 3.46224
# Velocity P-wave (km/s) = 5.92473 5.97943 5.95214
#
# Compressibility (1/GPa) = 0.02896182
#
# Stress axis : x y z
#
# Youngs Moduli (GPa) = 55.92854 55.92854 50.69739
#
# Poissons Ratio (x) = 0.35116 0.17700
# Poissons Ratio (y) = 0.35116 0.17700
# Poissons Ratio (z) = 0.19527 0.19527
#
# Static dielectric constant tensor:
#      x y z
#    x 1.628210 0.000000 0.000000 
#    y 0.000000 1.628210 0.000000 
#    z 0.000000 0.000000 1.680060 
# 
# From -- ./inp_files/2098.got.cif
#   From: 2010.05.17/outbox.cif.g08.bks.cpg/sg132_2_cif.got.tgz:2098.got - 2010.05.20 12:30:18.
