data_PCOD9567197
_publ_section_title
;
Structure prediction by ZEFSAII (Michael W. Deem and Ramdas Pophale) SiO2 
 PCOD9567197
Probable space group: P 42/M C M
;
_chemical_formula_sum "Si O2"
_cell_formula_units_Z 128
_cell_length_a 20.956340
_cell_length_b 20.956340
_cell_length_c 21.888407
_cell_angle_alpha 90.000000
_cell_angle_beta 90.000000
_cell_angle_gamma 90.000000
_cell_volume 9612.692001
_symmetry_space_group_name_H-M "P 42/M C M"
_symmetry_group_IT_number 132
_symmetry_cell_setting 'tetragonal'
loop_
_space_group_symop_operation_xyz
x,y,z
-y,x,1/2+z
-x,-y,z
y,-x,1/2+z
x,-y,1/2-z
-x,y,1/2-z
y,x,-z
-y,-x,-z
-x,-y,-z
y,-x,1/2-z
x,y,-z
-y,x,1/2-z
-x,y,1/2+z
x,-y,1/2+z
-y,-x,z
y,x,z
loop_
_atom_site_type_symbol
_atom_site_label
_atom_site_fract_x
_atom_site_fract_y
_atom_site_fract_z
Si Si1 0.048958 0.851246 0.619633
Si Si2 0.525865 0.926553 0.187816
Si Si3 0.910110 0.193263 0.115303
Si Si4 0.070848 0.532077 0.066368
Si Si5 0.962281 0.319651 0.070387
Si Si6 0.849692 0.746498 0.929185
Si Si7 0.203503 0.898546 0.738901
Si Si8 0.673203 0.919617 0.837605
O O1 0.080442 0.919559 0.607035
O O2 0.095558 0.798741 0.588288
O O3 0.056641 0.836672 0.692384
O O4 0.977102 0.840757 0.599097
O O5 0.500000 0.896790 0.250000
O O6 0.498678 0.897150 0.125427
O O7 0.601869 0.925170 0.186046
O O8 0.500000 0.000000 0.187606
O O9 0.850451 0.149549 0.097412
O O10 0.912934 0.263337 0.085747
O O11 0.910242 0.198718 0.189270
O O12 0.063139 0.608014 0.074574
O O13 0.000000 0.500000 0.063698
O O14 0.100624 0.519540 0.000000
O O15 0.017571 0.313603 0.121211
O O16 0.985267 0.311623 0.000000
O O17 0.783509 0.783509 0.919105
O O18 0.862368 0.687398 0.884908
O O19 0.855340 0.729928 0.000000
O O20 0.171368 0.828633 0.727504
O O21 0.275407 0.909479 0.715888
#
# Coordination Sequence:
#
# PCOD9567197 Si02
#       8
#    16  16  16  16  16  16  16  16
#     4   9  17  29  42  57  77  95 120 165 220 268
#     4  10  20  29  39  67  92 106 133 165 201 253
#     4  11  22  32  44  58  75 100 136 175 209 255
#     4   9  17  31  44  60  87 110 127 155 191 252
#     4  11  21  31  45  62  79 106 135 160 207 256
#     4   9  17  29  45  65  83 102 137 176 211 263
#     4   9  19  32  45  64  78  97 134 170 211 261
#     4  11  18  28  49  61  82 110 126 162 212 265
#
# _framework density 13.315728999999999
#
# number of rings (size 3 to 8) (size 9 to 14) (size 15 to 20)
#    0.000    2.125    5.000    1.875    1.750    1.000 
#    0.000    0.000    0.000    2.250    0.000    2.625 
#    0.000    0.000    0.000    0.000    0.000    0.000 
#
# Total GULP energy -712641.603992 kJ/mol
# GULP energy per Si atom -5567.512531 kJ/mol
# Density = 1.328542 g / cm^3
# Si number density = 13.315729 Si / 1000 Ang^3
#
#
#
# Elastic Constant Matrix: (Units=GPa)
#
#
# Indices 1 2 3 4 5 6 
#
# 1 69.3547 27.7601 14.8289 0.0000 0.0000 0.0000
# 2 27.7601 69.3547 14.8289 0.0000 0.0000 0.0000
# 3 14.8289 14.8289 48.6412 0.0000 0.0000 0.0000
# 4 0.0000 0.0000 0.0000 21.6100 0.0000 0.0000
# 5 0.0000 0.0000 0.0000 0.0000 21.6100 0.0000
# 6 0.0000 0.0000 0.0000 0.0000 0.0000 6.3335
#
#
#
# Elastic Compliance Matrix: (Units=1/GPa)
#
#
# Indices 1 2 3 4 5 6 
#
# 1 0.017698 -0.006344 -0.003461 0.000000 0.000000 0.000000
# 2 -0.006344 0.017698 -0.003461 0.000000 0.000000 0.000000
# 3 -0.003461 -0.003461 0.022669 0.000000 0.000000 0.000000
# 4 0.000000 0.000000 0.000000 0.046275 0.000000 0.000000
# 5 0.000000 0.000000 0.000000 0.000000 0.046275 0.000000
# 6 0.000000 0.000000 0.000000 0.000000 0.000000 0.157890
#
#
# Mechanical properties :
#
#
# Convention : Reuss Voigt Hill
#
# Bulk Modulus (GPa) = 31.71407 33.57627 32.64517
# Shear Modulus (GPa) = 14.46972 18.57287 16.52129
#
# Velocity S-wave (km/s) = 3.30003 3.73876 3.52623
# Velocity P-wave (km/s) = 6.19589 6.62631 6.41471
#
# Compressibility (1/GPa) = 0.03153174
#
# Stress axis : x y z
#
# Youngs Moduli (GPa) = 56.50397 56.50397 44.11261
#
# Poissons Ratio (x) = 0.35844 0.15269
# Poissons Ratio (y) = 0.35844 0.15269
# Poissons Ratio (z) = 0.19559 0.19559
#
# Static dielectric constant tensor:
#      x y z
#    x 1.449070 0.000000 0.000000 
#    y 0.000000 1.449070 0.000000 
#    z 0.000000 0.000000 1.499420 
# 
# From -- ./inp_files/9391.got.cif
#   From: 2010.05.17/outbox.cif.g08.bks.cpg/sg132_5_cif.got.tgz:9391.got - 2010.05.20 12:30:18.
