data_PCOD9567479
_publ_section_title
;
Structure prediction by ZEFSAII (Michael W. Deem and Ramdas Pophale) SiO2 
 PCOD9567479
Probable space group: P 42/M C M
;
_chemical_formula_sum "Si O2"
_cell_formula_units_Z 80
_cell_length_a 11.686708
_cell_length_b 11.686708
_cell_length_c 28.440378
_cell_angle_alpha 90.000000
_cell_angle_beta 90.000000
_cell_angle_gamma 90.000000
_cell_volume 3884.362479
_symmetry_space_group_name_H-M "P 42/M C M"
_symmetry_group_IT_number 132
_symmetry_cell_setting 'tetragonal'
loop_
_space_group_symop_operation_xyz
x,y,z
-y,x,1/2+z
-x,-y,z
y,-x,1/2+z
x,-y,1/2-z
-x,y,1/2-z
y,x,-z
-y,-x,-z
-x,-y,-z
y,-x,1/2-z
x,y,-z
-y,x,1/2-z
-x,y,1/2+z
x,-y,1/2+z
-y,-x,z
y,x,z
loop_
_atom_site_type_symbol
_atom_site_label
_atom_site_fract_x
_atom_site_fract_y
_atom_site_fract_z
Si Si1 0.655334 0.846117 0.553268
Si Si2 0.224965 0.042915 0.696509
Si Si3 0.868017 0.534027 0.695851
Si Si4 0.747303 0.076789 0.398642
Si Si5 0.738300 0.554745 0.109183
O O1 0.618088 0.873247 0.500000
O O2 0.764333 0.764333 0.551657
O O3 0.556385 0.774244 0.579434
O O4 0.698310 0.961017 0.578893
O O5 0.106752 0.106752 0.688031
O O6 0.329610 0.131117 0.690755
O O7 0.229970 0.000000 0.750000
O O8 0.241042 0.947018 0.657191
O O9 0.853332 0.500000 0.750000
O O10 0.775344 0.476376 0.662427
O O11 0.000000 0.500000 0.682547
O O12 0.868070 0.131931 0.415200
O O13 0.652141 0.172583 0.406470
O O14 0.612812 0.612812 0.105552
#
# Coordination Sequence:
#
# PCOD9567479 Si02
#       5
#    16  16  16  16  16
#     4  11  25  45  68  94 127 168 214 269 331 392
#     4  12  23  36  59  92 130 172 213 258 316 384
#     4  11  19  37  62  88 127 171 218 262 316 382
#     4  11  23  40  64  96 131 167 212 266 323 388
#     4  11  23  41  67  95 127 167 217 272 324 383
#
# _framework density 20.595400999999999
#
# number of rings (size 3 to 8) (size 9 to 14) (size 15 to 20)
#    0.000    0.800    6.000    1.800    0.000    7.800 
#    0.000    4.000    0.000    0.000    0.000    1.400 
#    0.000    0.000    0.000    0.000    0.000    0.000 
#
# Total GULP energy -446714.090675 kJ/mol
# GULP energy per Si atom -5583.926133 kJ/mol
# Density = 2.054852 g / cm^3
# Si number density = 20.595401 Si / 1000 Ang^3
#
#
#
# Elastic Constant Matrix: (Units=GPa)
#
#
# Indices 1 2 3 4 5 6 
#
# 1 1.4150 86.3889 10.0056 0.0000 0.0000 0.0000
# 2 86.3889 1.4150 10.0056 0.0000 0.0000 0.0000
# 3 10.0056 10.0056 73.1789 0.0000 0.0000 0.0000
# 4 0.0000 0.0000 0.0000 26.1184 0.0000 0.0000
# 5 0.0000 0.0000 0.0000 0.0000 26.1184 0.0000
# 6 0.0000 0.0000 0.0000 0.0000 0.0000 42.4661
#
#
#
# Elastic Compliance Matrix: (Units=1/GPa)
#
#
# Indices 1 2 3 4 5 6 
#
# 1 -0.000007 0.011762 -0.001607 0.000000 0.000000 0.000000
# 2 0.011762 -0.000007 -0.001607 0.000000 0.000000 0.000000
# 3 -0.001607 -0.001607 0.014105 0.000000 0.000000 0.000000
# 4 0.000000 0.000000 0.000000 0.038287 0.000000 0.000000
# 5 0.000000 0.000000 0.000000 0.000000 0.038287 0.000000
# 6 0.000000 0.000000 0.000000 0.000000 0.000000 0.023548
#
#
# Mechanical properties :
#
#
# Convention : Reuss Voigt Hill
#
# Bulk Modulus (GPa) = 32.06547 32.08990 32.07768
# Shear Modulus (GPa) = 46.50512 16.91451 31.70981
#
# Velocity S-wave (km/s) = 4.75703 2.86890 3.92810
# Velocity P-wave (km/s) = 6.76576 5.15646 6.01517
#
# Compressibility (1/GPa) = 0.03118619
#
# Stress axis : x y z
#
# Youngs Moduli (GPa) = -153791.58966 -153791.58968 70.89860
#
# Poissons Ratio (x) = 1808.86952 0.11395
# Poissons Ratio (y) = 1808.86952 0.11395
# Poissons Ratio (z) = -247.18528 -247.18528
#
# Static dielectric constant tensor:
#      x y z
#    x 1.770470 0.000000 0.000000 
#    y 0.000000 1.770470 0.000000 
#    z 0.000000 0.000000 1.754570 
# 
# From -- ./inp_files/10610.got.cif
#   From: 2010.05.17/outbox.cif.g08.bks.cpg/sg132_6_cif.got.tgz:10610.got - 2010.05.20 12:30:18.
