data_PCOD9567455
_publ_section_title
;
Structure prediction by ZEFSAII (Michael W. Deem and Ramdas Pophale) SiO2 
 PCOD9567455
Probable space group: P 42/M C M
;
_chemical_formula_sum "Si O2"
_cell_formula_units_Z 108
_cell_length_a 15.580233
_cell_length_b 15.580233
_cell_length_c 23.212717
_cell_angle_alpha 90.000000
_cell_angle_beta 90.000000
_cell_angle_gamma 90.000000
_cell_volume 5634.739891
_symmetry_space_group_name_H-M "P 42/M C M"
_symmetry_group_IT_number 132
_symmetry_cell_setting 'tetragonal'
loop_
_space_group_symop_operation_xyz
x,y,z
-y,x,1/2+z
-x,-y,z
y,-x,1/2+z
x,-y,1/2-z
-x,y,1/2-z
y,x,-z
-y,-x,-z
-x,-y,-z
y,-x,1/2-z
x,y,-z
-y,x,1/2-z
-x,y,1/2+z
x,-y,1/2+z
-y,-x,z
y,x,z
loop_
_atom_site_type_symbol
_atom_site_label
_atom_site_fract_x
_atom_site_fract_y
_atom_site_fract_z
Si Si1 0.857931 0.142070 0.500000
Si Si2 0.788955 0.930857 0.700092
Si Si3 0.947429 0.242693 0.606613
Si Si4 0.790946 0.646048 0.293697
Si Si5 0.357015 0.501945 0.500000
Si Si6 0.520683 0.780414 0.399133
Si Si7 0.585639 0.960419 0.566684
Si Si8 0.344672 0.204206 0.838727
O O1 0.909623 0.196166 0.551028
O O2 0.863062 0.863062 0.715134
O O3 0.702289 0.875168 0.690589
O O4 0.775115 0.000000 0.750000
O O5 0.812806 0.985952 0.643773
O O6 0.869678 0.276127 0.646811
O O7 0.000718 0.328137 0.591371
O O8 0.712475 0.712475 0.295734
O O9 0.769650 0.571390 0.338839
O O10 0.802492 0.621630 0.226717
O O11 0.431061 0.431061 0.500000
O O12 0.405349 0.594652 0.500000
O O13 0.298384 0.486631 0.556546
O O14 0.571557 0.858838 0.428492
O O15 0.423109 0.803728 0.382705
O O16 0.586426 0.986003 0.500000
O O17 0.500000 0.000000 0.595153
O O18 0.294222 0.294222 0.845216
#
# Coordination Sequence:
#
# PCOD9567455 Si02
#       8
#     4  16  16  16   8  16  16  16
#     4  12  28  40  69  86 134 182 209 272 344 400
#     4  11  24  42  67  93 125 168 226 279 330 396
#     4  12  23  43  62  95 130 173 220 269 339 401
#     4  10  22  40  64  95 130 169 209 273 333 392
#     4  11  26  46  66  93 133 182 232 279 324 397
#     4  12  22  40  65  98 127 169 220 271 335 394
#     4  11  22  37  59  91 129 162 204 263 330 396
#     4  11  23  39  63  95 135 172 218 269 328 402
#
# _framework density 19.166810999999999
#
# number of rings (size 3 to 8) (size 9 to 14) (size 15 to 20)
#    0.000    0.815    6.667    1.333    1.037    0.741 
#    1.333    0.741    0.000    0.000    0.000    6.222 
#    0.000    0.000    0.000    0.000    0.000    0.000 
#
# Total GULP energy -601520.813720 kJ/mol
# GULP energy per Si atom -5569.637164 kJ/mol
# Density = 1.912319 g / cm^3
# Si number density = 19.166811 Si / 1000 Ang^3
#
#
#
# Elastic Constant Matrix: (Units=GPa)
#
#
# Indices 1 2 3 4 5 6 
#
# 1 79.9660 34.8083 21.9888 0.0000 0.0000 0.0000
# 2 34.8083 79.9655 21.9888 0.0000 0.0000 0.0000
# 3 21.9888 21.9888 74.7634 0.0000 0.0000 0.0000
# 4 0.0000 0.0000 0.0000 31.1899 0.0000 0.0000
# 5 0.0000 0.0000 0.0000 0.0000 31.1900 0.0000
# 6 0.0000 0.0000 0.0000 0.0000 0.0000 28.7615
#
#
#
# Elastic Compliance Matrix: (Units=1/GPa)
#
#
# Indices 1 2 3 4 5 6 
#
# 1 0.015982 -0.006163 -0.002888 0.000000 0.000000 0.000000
# 2 -0.006163 0.015982 -0.002888 0.000000 0.000000 0.000000
# 3 -0.002888 -0.002888 0.015074 0.000000 0.000000 0.000000
# 4 0.000000 0.000000 0.000000 0.032062 0.000000 0.000000
# 5 0.000000 0.000000 0.000000 0.000000 0.032062 0.000000
# 6 0.000000 0.000000 0.000000 0.000000 0.000000 0.034769
#
#
# Mechanical properties :
#
#
# Convention : Reuss Voigt Hill
#
# Bulk Modulus (GPa) = 43.17592 43.58520 43.38056
# Shear Modulus (GPa) = 28.16458 28.62223 28.39341
#
# Velocity S-wave (km/s) = 3.83749 3.86855 3.85305
# Velocity P-wave (km/s) = 6.49696 6.53785 6.51744
#
# Compressibility (1/GPa) = 0.02316106
#
# Stress axis : x y z
#
# Youngs Moduli (GPa) = 62.57043 62.56999 66.33806
#
# Poissons Ratio (x) = 0.38560 0.19158
# Poissons Ratio (y) = 0.38560 0.19159
# Poissons Ratio (z) = 0.18070 0.18070
#
# Static dielectric constant tensor:
#      x y z
#    x 1.665630 0.000000 0.000000 
#    y 0.000000 1.665630 0.000000 
#    z 0.000000 0.000000 1.682540 
# 
# From -- ./inp_files/9181.got.cif
#   From: 2010.05.17/outbox.cif.g08.bks.cpg/sg132_5_cif.got.tgz:9181.got - 2010.05.20 12:30:18.
