data_PCOD9567058
_publ_section_title
;
Structure prediction by ZEFSAII (Michael W. Deem and Ramdas Pophale) SiO2 
 PCOD9567058
Probable space group: P 42/M C M
;
_chemical_formula_sum "Si O2"
_cell_formula_units_Z 92
_cell_length_a 20.628335
_cell_length_b 20.628335
_cell_length_c 14.124843
_cell_angle_alpha 90.000000
_cell_angle_beta 90.000000
_cell_angle_gamma 90.000000
_cell_volume 6010.519086
_symmetry_space_group_name_H-M "P 42/M C M"
_symmetry_group_IT_number 132
_symmetry_cell_setting 'tetragonal'
loop_
_space_group_symop_operation_xyz
x,y,z
-y,x,1/2+z
-x,-y,z
y,-x,1/2+z
x,-y,1/2-z
-x,y,1/2-z
y,x,-z
-y,-x,-z
-x,-y,-z
y,-x,1/2-z
x,y,-z
-y,x,1/2-z
-x,y,1/2+z
x,-y,1/2+z
-y,-x,z
y,x,z
loop_
_atom_site_type_symbol
_atom_site_label
_atom_site_fract_x
_atom_site_fract_y
_atom_site_fract_z
Si Si1 0.267229 0.099483 0.104939
Si Si2 0.017858 0.828871 0.143894
Si Si3 0.252046 0.147444 0.686296
Si Si4 0.032100 0.407284 0.892774
Si Si5 0.500000 0.892484 0.750000
Si Si6 0.605622 0.123053 0.110671
Si Si7 0.934222 0.065779 0.000000
O O1 0.255304 0.140969 0.199294
O O2 0.338437 0.067913 0.115533
O O3 0.216623 0.040186 0.108397
O O4 0.262983 0.130278 0.000000
O O5 0.083936 0.786276 0.147982
O O6 0.029068 0.890910 0.080914
O O7 0.000000 0.847777 0.250000
O O8 0.209786 0.209786 0.659963
O O9 0.323944 0.146555 0.643893
O O10 0.063539 0.456466 0.819451
O O11 0.955651 0.395812 0.878964
O O12 0.041563 0.431890 0.000000
O O13 0.450881 0.853923 0.818365
O O14 0.594686 0.137821 0.000000
#
# Coordination Sequence:
#
# PCOD9567058 Si02
#       7
#    16  16  16  16   8  16   4
#     4  10  19  34  52  71  95 127 156 201 256 300
#     4  10  21  33  52  79  98 116 156 202 252 318
#     4  11  22  34  50  74 100 127 163 211 252 299
#     4  10  19  30  48  68  95 128 161 195 243 293
#     4  12  21  32  48  72 100 134 164 195 246 295
#     4  11  22  32  47  70 102 129 165 205 244 295
#     4  12  20  36  64  77  88 126 156 200 264 332
#
# _framework density 15.306497
#
# number of rings (size 3 to 8) (size 9 to 14) (size 15 to 20)
#    0.000    1.391    5.217    2.087    1.217    2.087 
#    0.000    0.000    0.000    1.304    0.000    0.000 
#    0.000    0.000    0.000    0.000    0.000    0.435 
#
# Total GULP energy -512790.936843 kJ/mol
# GULP energy per Si atom -5573.814531 kJ/mol
# Density = 1.527166 g / cm^3
# Si number density = 15.306497 Si / 1000 Ang^3
#
#
#
# Elastic Constant Matrix: (Units=GPa)
#
#
# Indices 1 2 3 4 5 6 
#
# 1 31.0971 50.7293 32.0328 0.0000 0.0000 0.0000
# 2 50.7293 31.0982 32.0336 0.0000 0.0000 0.0000
# 3 32.0328 32.0336 100.1591 0.0000 0.0000 0.0000
# 4 0.0000 0.0000 0.0000 -189.3455 0.0000 0.0000
# 5 0.0000 0.0000 0.0000 0.0000 -189.7531 0.0000
# 6 0.0000 0.0000 0.0000 0.0000 0.0000 9.1621
#
#
#
# Elastic Compliance Matrix: (Units=1/GPa)
#
#
# Indices 1 2 3 4 5 6 
#
# 1 -0.017318 0.033621 -0.005214 0.000000 0.000000 0.000000
# 2 0.033621 -0.017317 -0.005214 0.000000 0.000000 0.000000
# 3 -0.005214 -0.005214 0.013319 0.000000 0.000000 0.000000
# 4 0.000000 0.000000 0.000000 -0.005281 0.000000 0.000000
# 5 0.000000 0.000000 0.000000 0.000000 -0.005270 0.000000
# 6 0.000000 0.000000 0.000000 0.000000 0.000000 0.109145
#
#
# Mechanical properties :
#
#
# Convention : Reuss Voigt Hill
#
# Bulk Modulus (GPa) = 39.88941 43.54952 41.71946
# Shear Modulus (GPa) = 127.38830 -70.81671 28.28580
#
# Velocity S-wave (km/s) = 9.13267 -6.80927 4.30345
# Velocity P-wave (km/s) = 11.71856 5.77133 7.21167
#
# Compressibility (1/GPa) = 0.02506931
#
# Stress axis : x y z
#
# Youngs Moduli (GPa) = -57.74435 -57.74604 75.07872
#
# Poissons Ratio (x) = 1.94147 0.39148
# Poissons Ratio (y) = 1.94141 0.39146
# Poissons Ratio (z) = -0.30110 -0.30109
#
# Static dielectric constant tensor:
#      x y z
#    x 1.500400 0.000000 0.000000 
#    y 0.000000 1.500400 0.000000 
#    z 0.000000 0.000000 1.562340 
# 
# From -- ./inp_files/5042.got.cif
#   From: 2010.05.17/outbox.cif.g08.bks.cpg/sg132_3_cif.got.tgz:5042.got - 2010.05.20 12:30:18.
