data_PCOD9567718
_publ_section_title
;
Structure prediction by ZEFSAII (Michael W. Deem and Ramdas Pophale) SiO2 
 PCOD9567718
Probable space group: P 42/N B C
;
_chemical_formula_sum "Si O2"
_cell_formula_units_Z 116
_cell_length_a 18.184232
_cell_length_b 18.184232
_cell_length_c 19.113665
_cell_angle_alpha 90.000000
_cell_angle_beta 90.000000
_cell_angle_gamma 90.000000
_cell_volume 6320.244759
_symmetry_space_group_name_H-M "P 42/N B C"
_symmetry_group_IT_number 133
_space_group.IT_coordinate_system_code '2'
_symmetry_cell_setting 'tetragonal'
loop_
_space_group_symop_operation_xyz
x,y,z
1/2-y,x,1/2+z
1/2-x,1/2-y,z
y,1/2-x,1/2+z
x,1/2-y,-z
1/2-x,y,-z
y,x,1/2-z
1/2-y,1/2-x,1/2-z
-x,-y,-z
1/2+y,-x,1/2-z
1/2+x,1/2+y,-z
-y,1/2+x,1/2-z
-x,1/2+y,z
1/2+x,-y,z
-y,-x,1/2+z
1/2+y,1/2+x,1/2+z
loop_
_atom_site_type_symbol
_atom_site_label
_atom_site_fract_x
_atom_site_fract_y
_atom_site_fract_z
Si Si1 0.002968 0.121180 0.725737
Si Si2 0.750000 0.250000 0.250000
Si Si3 0.168224 0.337191 0.499836
Si Si4 0.965079 0.715226 0.251153
Si Si5 0.618260 0.347046 0.304969
Si Si6 0.405746 0.037937 0.069111
Si Si7 0.892977 0.608538 0.145467
Si Si8 0.959691 0.424653 0.576278
O O1 0.052229 0.052229 0.750000
O O2 0.041447 0.197180 0.750531
O O3 0.999671 0.116625 0.641389
O O4 0.922471 0.120753 0.760196
O O5 0.691655 0.299000 0.294322
O O6 0.171878 0.250000 0.500000
O O7 0.250000 0.368150 0.500000
O O8 0.112768 0.360391 0.439277
O O9 0.134780 0.365525 0.571444
O O10 0.945138 0.668321 0.182005
O O11 0.910403 0.677375 0.306945
O O12 0.047968 0.698079 0.276351
O O13 0.598525 0.373295 0.383908
O O14 0.490934 0.063045 0.067953
O O15 0.396345 0.986997 0.999751
O O16 0.929813 0.529933 0.129004
#
# Coordination Sequence:
#
# PCOD9567718 Si02
#       8
#    16   4  16  16  16  16  16  16
#     4  12  23  35  61  97 123 156 210 268 312 381
#     4  12  24  44  68  94 132 172 212 266 336 388
#     4  10  21  35  52  75 118 163 199 237 302 380
#     4  10  21  36  58  85 120 152 200 253 312 367
#     4  11  22  41  63  91 123 164 209 260 321 390
#     4  10  20  36  61  88 119 157 204 261 316 365
#     4   9  19  36  56  82 113 162 198 245 306 372
#     4   9  19  38  63  88 116 156 211 259 307 378
#
# _framework density 18.353719000000002
#
# number of rings (size 3 to 8) (size 9 to 14) (size 15 to 20)
#    0.000    1.793    2.759    1.655    3.862    0.000 
#    0.000    0.690    0.000    0.828    0.000    0.000 
#    0.000    0.000    0.000    0.000    0.000    0.000 
#
# Total GULP energy -646755.913318 kJ/mol
# GULP energy per Si atom -5575.482011 kJ/mol
# Density = 1.831195 g / cm^3
# Si number density = 18.353719 Si / 1000 Ang^3
#
#
#
# Elastic Constant Matrix: (Units=GPa)
#
#
# Indices 1 2 3 4 5 6 
#
# 1 86.9393 38.5267 24.5638 0.0000 0.0000 0.0000
# 2 38.5267 86.9393 24.5638 0.0000 0.0000 0.0000
# 3 24.5638 24.5638 88.7629 0.0000 0.0000 0.0000
# 4 0.0000 0.0000 0.0000 19.2549 0.0000 0.0000
# 5 0.0000 0.0000 0.0000 0.0000 19.2549 0.0000
# 6 0.0000 0.0000 0.0000 0.0000 0.0000 37.1364
#
#
#
# Elastic Compliance Matrix: (Units=1/GPa)
#
#
# Indices 1 2 3 4 5 6 
#
# 1 0.014797 -0.005858 -0.002474 0.000000 0.000000 0.000000
# 2 -0.005858 0.014797 -0.002474 0.000000 0.000000 0.000000
# 3 -0.002474 -0.002474 0.012635 0.000000 0.000000 0.000000
# 4 0.000000 0.000000 0.000000 0.051935 0.000000 0.000000
# 5 0.000000 0.000000 0.000000 0.000000 0.051935 0.000000
# 6 0.000000 0.000000 0.000000 0.000000 0.000000 0.026928
#
#
# Mechanical properties :
#
#
# Convention : Reuss Voigt Hill
#
# Bulk Modulus (GPa) = 48.50118 48.66113 48.58115
# Shear Modulus (GPa) = 24.81247 26.79506 25.80377
#
# Velocity S-wave (km/s) = 3.68081 3.82504 3.75362
# Velocity P-wave (km/s) = 6.67441 6.78811 6.73150
#
# Compressibility (1/GPa) = 0.02061805
#
# Stress axis : x y z
#
# Youngs Moduli (GPa) = 67.57976 67.57976 79.14470
#
# Poissons Ratio (x) = 0.39591 0.19578
# Poissons Ratio (y) = 0.39591 0.19578
# Poissons Ratio (z) = 0.16717 0.16717
#
# Static dielectric constant tensor:
#      x y z
#    x 1.649750 0.000000 0.000000 
#    y 0.000000 1.649750 0.000000 
#    z 0.000000 0.000000 1.656850 
# 
# From -- ./inp_files/5636.got.cif
#   From: 2010.05.17/outbox.cif.g08.bks.cpg/sg133_3_cif.got.tgz:5636.got - 2010.05.20 12:37:36.
