data_PCOD9567828
_publ_section_title
;
Structure prediction by ZEFSAII (Michael W. Deem and Ramdas Pophale) SiO2 
 PCOD9567828
Probable space group: P 42/N B C
;
_chemical_formula_sum "Si O2"
_cell_formula_units_Z 108
_cell_length_a 14.667459
_cell_length_b 14.667459
_cell_length_c 23.579312
_cell_angle_alpha 90.000000
_cell_angle_beta 90.000000
_cell_angle_gamma 90.000000
_cell_volume 5072.720043
_symmetry_space_group_name_H-M "P 42/N B C"
_symmetry_group_IT_number 133
_space_group.IT_coordinate_system_code '2'
_symmetry_cell_setting 'tetragonal'
loop_
_space_group_symop_operation_xyz
x,y,z
1/2-y,x,1/2+z
1/2-x,1/2-y,z
y,1/2-x,1/2+z
x,1/2-y,-z
1/2-x,y,-z
y,x,1/2-z
1/2-y,1/2-x,1/2-z
-x,-y,-z
1/2+y,-x,1/2-z
1/2+x,1/2+y,-z
-y,1/2+x,1/2-z
-x,1/2+y,z
1/2+x,-y,z
-y,-x,1/2+z
1/2+y,1/2+x,1/2+z
loop_
_atom_site_type_symbol
_atom_site_label
_atom_site_fract_x
_atom_site_fract_y
_atom_site_fract_z
Si Si1 0.249547 0.611234 0.277201
Si Si2 0.760081 0.551213 0.068229
Si Si3 0.250000 0.250000 0.620640
Si Si4 0.276062 0.617883 0.406433
Si Si5 0.075334 0.923609 0.558890
Si Si6 0.539100 0.420308 0.575602
Si Si7 0.751337 0.888304 0.278772
Si Si8 0.250000 0.750000 0.500000
O O1 0.160476 0.661183 0.250261
O O2 0.251406 0.642563 0.342924
O O3 0.249407 0.499286 0.274861
O O4 0.758050 0.655941 0.086332
O O5 0.847127 0.491079 0.083487
O O6 0.677305 0.494776 0.094903
O O7 0.750000 0.548995 0.000000
O O8 0.246363 0.158128 0.658989
O O9 0.182401 0.586555 0.434100
O O10 0.362647 0.552481 0.400877
O O11 0.307716 0.693298 0.453565
O O12 0.052906 0.925123 0.492223
O O13 0.043353 0.014172 0.589227
O O14 0.840840 0.840840 0.250000
O O15 0.662602 0.837399 0.250000
#
# Coordination Sequence:
#
# PCOD9567828 Si02
#       8
#    16  16   8  16  16  16  16   4
#     4  11  27  49  69 104 138 175 236 292 350 410
#     4  10  22  37  59  93 141 182 221 276 332 403
#     4  10  22  40  70  96 128 180 236 276 354 414
#     4  12  24  40  73  95 135 179 219 280 338 407
#     4  10  22  39  60  98 139 177 226 269 329 411
#     4  10  22  39  60  98 139 177 226 269 329 411
#     4   9  23  47  73  96 132 175 232 296 348 418
#     4  12  20  40  70 100 132 188 212 258 356 396
#
# _framework density 21.290354000000001
#
# number of rings (size 3 to 8) (size 9 to 14) (size 15 to 20)
#    0.000    1.778    1.481    2.000    6.222    5.333 
#    0.000    4.444    0.000    0.000    0.000    0.000 
#    0.000    0.000    0.000    0.000    0.000    0.000 
#
# Total GULP energy -601485.417451 kJ/mol
# GULP energy per Si atom -5569.309421 kJ/mol
# Density = 2.124190 g / cm^3
# Si number density = 21.290354 Si / 1000 Ang^3
#
#
#
# Elastic Constant Matrix: (Units=GPa)
#
#
# Indices 1 2 3 4 5 6 
#
# 1 123.2867 33.6938 9.3515 0.0000 0.0000 0.0000
# 2 33.6938 123.2864 9.3515 0.0000 0.0000 0.0000
# 3 9.3515 9.3515 51.9649 0.0000 0.0000 0.0000
# 4 0.0000 0.0000 0.0000 8.0310 0.0000 0.0000
# 5 0.0000 0.0000 0.0000 0.0000 8.0355 0.0000
# 6 0.0000 0.0000 0.0000 0.0000 0.0000 22.3923
#
#
#
# Elastic Compliance Matrix: (Units=1/GPa)
#
#
# Indices 1 2 3 4 5 6 
#
# 1 0.008836 -0.002326 -0.001171 0.000000 0.000000 0.000000
# 2 -0.002326 0.008836 -0.001172 0.000000 0.000000 0.000000
# 3 -0.001171 -0.001172 0.019665 0.000000 0.000000 0.000000
# 4 0.000000 0.000000 0.000000 0.124518 0.000000 0.000000
# 5 0.000000 0.000000 0.000000 0.000000 0.124448 0.000000
# 6 0.000000 0.000000 0.000000 0.000000 0.000000 0.044658
#
#
# Mechanical properties :
#
#
# Convention : Reuss Voigt Hill
#
# Bulk Modulus (GPa) = 35.71552 44.81462 40.26507
# Shear Modulus (GPa) = 14.30077 24.10118 19.20098
#
# Velocity S-wave (km/s) = 2.59453 3.36821 3.00636
# Velocity P-wave (km/s) = 5.07812 6.01842 5.56816
#
# Compressibility (1/GPa) = 0.02799903
#
# Stress axis : x y z
#
# Youngs Moduli (GPa) = 113.17731 113.17701 50.85073
#
# Poissons Ratio (x) = 0.26324 0.05957
# Poissons Ratio (y) = 0.26324 0.05957
# Poissons Ratio (z) = 0.13259 0.13259
#
# Static dielectric constant tensor:
#      x y z
#    x 1.858810 0.000000 0.000000 
#    y 0.000000 1.858810 0.000000 
#    z 0.000000 0.000000 1.796170 
# 
# From -- ./inp_files/7297.got.cif
#   From: 2010.05.17/outbox.cif.g08.bks.cpg/sg133_4_cif.got.tgz:7297.got - 2010.05.20 12:37:36.
