data_PCOD9567638
_publ_section_title
;
Structure prediction by ZEFSAII (Michael W. Deem and Ramdas Pophale) SiO2 
 PCOD9567638
Probable space group: P 42/N B C
;
_chemical_formula_sum "Si O2"
_cell_formula_units_Z 96
_cell_length_a 18.526131
_cell_length_b 18.526131
_cell_length_c 16.683799
_cell_angle_alpha 90.000000
_cell_angle_beta 90.000000
_cell_angle_gamma 90.000000
_cell_volume 5726.172281
_symmetry_space_group_name_H-M "P 42/N B C"
_symmetry_group_IT_number 133
_space_group.IT_coordinate_system_code '2'
_symmetry_cell_setting 'tetragonal'
loop_
_space_group_symop_operation_xyz
x,y,z
1/2-y,x,1/2+z
1/2-x,1/2-y,z
y,1/2-x,1/2+z
x,1/2-y,-z
1/2-x,y,-z
y,x,1/2-z
1/2-y,1/2-x,1/2-z
-x,-y,-z
1/2+y,-x,1/2-z
1/2+x,1/2+y,-z
-y,1/2+x,1/2-z
-x,1/2+y,z
1/2+x,-y,z
-y,-x,1/2+z
1/2+y,1/2+x,1/2+z
loop_
_atom_site_type_symbol
_atom_site_label
_atom_site_fract_x
_atom_site_fract_y
_atom_site_fract_z
Si Si1 0.091553 0.929612 0.349990
Si Si2 0.965177 0.487416 0.086693
Si Si3 0.427665 0.748819 0.774887
Si Si4 0.980920 0.875596 0.215625
Si Si5 0.822372 0.297915 0.636694
Si Si6 0.830193 0.070363 0.992034
O O1 0.172774 0.930307 0.319822
O O2 0.040535 0.902523 0.279126
O O3 0.080798 0.875676 0.426087
O O4 0.059268 0.008937 0.368135
O O5 0.000048 0.418823 0.133599
O O6 0.881554 0.472478 0.069884
O O7 0.000000 0.500000 0.000000
O O8 0.503697 0.790385 0.781879
O O9 0.371773 0.800069 0.821301
O O10 0.387849 0.736931 0.688959
O O11 0.905350 0.905350 0.250000
O O12 0.750000 0.250000 0.638260
O O13 0.852477 0.315677 0.549526
O O14 0.750000 0.037589 0.000000
#
# Coordination Sequence:
#
# PCOD9567638 Si02
#       6
#    16  16  16  16  16  16
#     4  10  21  33  51  71 102 138 174 212 257 310
#     4   9  19  36  48  68  99 134 174 216 250 305
#     4  12  18  32  50  73 101 140 174 208 255 313
#     4  10  19  34  52  68  99 139 172 211 257 308
#     4  12  21  31  47  74 111 141 165 202 253 323
#     4  11  21  32  47  72 102 139 171 213 258 312
#
# _framework density 16.765127
#
# number of rings (size 3 to 8) (size 9 to 14) (size 15 to 20)
#    0.000    1.333    5.000    2.000    0.000    2.333 
#    0.000    0.000    0.000    0.000    0.000    0.000 
#    0.000   98.000    0.000    0.000    0.000    0.000 
#
# Total GULP energy -534765.273997 kJ/mol
# GULP energy per Si atom -5570.471604 kJ/mol
# Density = 1.672697 g / cm^3
# Si number density = 16.765127 Si / 1000 Ang^3
#
#
#
# Elastic Constant Matrix: (Units=GPa)
#
#
# Indices 1 2 3 4 5 6 
#
# 1 67.2405 42.7441 14.8410 0.0000 0.0000 0.0000
# 2 42.7441 67.2405 14.8410 0.0000 0.0000 0.0000
# 3 14.8410 14.8410 65.0197 0.0000 0.0000 0.0000
# 4 0.0000 0.0000 0.0000 28.3384 0.0000 0.0000
# 5 0.0000 0.0000 0.0000 0.0000 28.3384 0.0000
# 6 0.0000 0.0000 0.0000 0.0000 0.0000 33.6661
#
#
#
# Elastic Compliance Matrix: (Units=1/GPa)
#
#
# Indices 1 2 3 4 5 6 
#
# 1 0.025256 -0.015567 -0.002212 0.000000 0.000000 0.000000
# 2 -0.015567 0.025256 -0.002212 0.000000 0.000000 0.000000
# 3 -0.002212 -0.002212 0.016390 0.000000 0.000000 0.000000
# 4 0.000000 0.000000 0.000000 0.035288 0.000000 0.000000
# 5 0.000000 0.000000 0.000000 0.000000 0.035288 0.000000
# 6 0.000000 0.000000 0.000000 0.000000 0.000000 0.029704
#
#
# Mechanical properties :
#
#
# Convention : Reuss Voigt Hill
#
# Bulk Modulus (GPa) = 37.14520 38.26142 37.70331
# Shear Modulus (GPa) = 23.13384 26.54020 24.83702
#
# Velocity S-wave (km/s) = 3.71870 3.98308 3.85316
# Velocity P-wave (km/s) = 6.37516 6.63512 6.50644
#
# Compressibility (1/GPa) = 0.02692138
#
# Stress axis : x y z
#
# Youngs Moduli (GPa) = 39.59501 39.59501 61.01455
#
# Poissons Ratio (x) = 0.61636 0.13494
# Poissons Ratio (y) = 0.61636 0.13494
# Poissons Ratio (z) = 0.08757 0.08757
#
# Static dielectric constant tensor:
#      x y z
#    x 1.622500 0.000000 0.000000 
#    y 0.000000 1.622500 0.000000 
#    z 0.000000 0.000000 1.638110 
# 
# From -- ./inp_files/5510.got.cif
#   From: 2010.05.17/outbox.cif.g08.bks.cpg/sg133_3_cif.got.tgz:5510.got - 2010.05.20 12:37:36.
