data_PCOD9567932
_publ_section_title
;
Structure prediction by ZEFSAII (Michael W. Deem and Ramdas Pophale) SiO2 
 PCOD9567932
Probable space group: P 42/N B C
;
_chemical_formula_sum "Si O2"
_cell_formula_units_Z 108
_cell_length_a 14.018864
_cell_length_b 14.018864
_cell_length_c 23.442921
_cell_angle_alpha 90.000000
_cell_angle_beta 90.000000
_cell_angle_gamma 90.000000
_cell_volume 4607.203222
_symmetry_space_group_name_H-M "P 42/N B C"
_symmetry_group_IT_number 133
_space_group.IT_coordinate_system_code '2'
_symmetry_cell_setting 'tetragonal'
loop_
_space_group_symop_operation_xyz
x,y,z
1/2-y,x,1/2+z
1/2-x,1/2-y,z
y,1/2-x,1/2+z
x,1/2-y,-z
1/2-x,y,-z
y,x,1/2-z
1/2-y,1/2-x,1/2-z
-x,-y,-z
1/2+y,-x,1/2-z
1/2+x,1/2+y,-z
-y,1/2+x,1/2-z
-x,1/2+y,z
1/2+x,-y,z
-y,-x,1/2+z
1/2+y,1/2+x,1/2+z
loop_
_atom_site_type_symbol
_atom_site_label
_atom_site_fract_x
_atom_site_fract_y
_atom_site_fract_z
Si Si1 0.806410 0.481260 0.732375
Si Si2 0.750000 0.750000 0.000000
Si Si3 0.934288 0.457272 0.626540
Si Si4 0.146398 0.084478 0.197708
Si Si5 0.838377 0.319590 0.824912
Si Si6 0.097187 0.158856 0.573860
Si Si7 0.750000 0.750000 0.657664
Si Si8 0.896463 0.239784 0.434265
O O1 0.891287 0.498358 0.686948
O O2 0.746705 0.544531 0.777665
O O3 0.838432 0.400181 0.776794
O O4 0.732855 0.436641 0.686420
O O5 0.826310 0.827198 0.023844
O O6 0.935390 0.550928 0.587015
O O7 0.884244 0.366739 0.593458
O O8 0.031367 0.403355 0.645606
O O9 0.074865 0.074865 0.250000
O O10 0.164915 0.196330 0.188527
O O11 0.750000 0.250000 0.811678
O O12 0.814291 0.352040 0.888821
O O13 0.163649 0.203271 0.623312
O O14 0.006651 0.226760 0.565587
O O15 0.863192 0.250000 0.500000
#
# Coordination Sequence:
#
# PCOD9567932 Si02
#       8
#    16   4  16  16  16  16   8  16
#     4  12  21  43  71 104 147 198 237 289 385 459
#     4  10  24  56  82  96 138 206 260 314 398 464
#     4  12  26  45  72 114 145 192 258 304 380 465
#     4  12  25  39  69 110 152 187 241 303 371 455
#     4  12  19  40  71  98 147 197 231 289 375 456
#     4  11  25  49  80 100 142 199 255 314 382 455
#     4  11  23  49  71 106 154 197 247 318 368 450
#     4  12  26  48  70 105 150 192 250 324 370 437
#
# _framework density 23.441552999999999
#
# number of rings (size 3 to 8) (size 9 to 14) (size 15 to 20)
#    0.000    0.296    8.148    1.111    2.074    2.074 
#    2.667    0.000    0.000    0.000    0.000    0.000 
#    0.000    0.000    0.000    0.000    0.000    0.000 
#
# Total GULP energy -601478.135535 kJ/mol
# GULP energy per Si atom -5569.241996 kJ/mol
# Density = 2.338820 g / cm^3
# Si number density = 23.441553 Si / 1000 Ang^3
#
#
#
# Elastic Constant Matrix: (Units=GPa)
#
#
# Indices 1 2 3 4 5 6 
#
# 1 91.3786 10.2732 0.7321 0.0000 0.0000 0.0000
# 2 10.2732 91.3786 0.7321 0.0000 0.0000 0.0000
# 3 0.7321 0.7321 43.7472 0.0000 0.0000 0.0000
# 4 0.0000 0.0000 0.0000 55.9530 0.0000 0.0000
# 5 0.0000 0.0000 0.0000 0.0000 55.9530 0.0000
# 6 0.0000 0.0000 0.0000 0.0000 0.0000 20.0005
#
#
#
# Elastic Compliance Matrix: (Units=1/GPa)
#
#
# Indices 1 2 3 4 5 6 
#
# 1 0.011085 -0.001245 -0.000165 0.000000 0.000000 0.000000
# 2 -0.001245 0.011085 -0.000165 0.000000 0.000000 0.000000
# 3 -0.000165 -0.000165 0.022864 0.000000 0.000000 0.000000
# 4 0.000000 0.000000 0.000000 0.017872 0.000000 0.000000
# 5 0.000000 0.000000 0.000000 0.000000 0.017872 0.000000
# 6 0.000000 0.000000 0.000000 0.000000 0.000000 0.049999
#
#
# Mechanical properties :
#
#
# Convention : Reuss Voigt Hill
#
# Bulk Modulus (GPa) = 23.87479 27.77548 25.82514
# Shear Modulus (GPa) = 33.80962 40.69908 37.25435
#
# Velocity S-wave (km/s) = 3.80188 4.17129 3.99086
# Velocity P-wave (km/s) = 5.42948 5.92233 5.68126
#
# Compressibility (1/GPa) = 0.04188518
#
# Stress axis : x y z
#
# Youngs Moduli (GPa) = 90.21398 90.21398 43.73668
#
# Poissons Ratio (x) = 0.11231 0.00720
# Poissons Ratio (y) = 0.11231 0.00720
# Poissons Ratio (z) = 0.01486 0.01486
#
# Static dielectric constant tensor:
#      x y z
#    x 2.020470 0.000000 0.000000 
#    y 0.000000 2.020470 0.000000 
#    z 0.000000 0.000000 1.980010 
# 
# From -- ./inp_files/7287.got.cif
#   From: 2010.05.17/outbox.cif.g08.bks.cpg/sg133_4_cif.got.tgz:7287.got - 2010.05.20 12:37:36.
