data_PCOD9567305
_publ_section_title
;
Structure prediction by ZEFSAII (Michael W. Deem and Ramdas Pophale) SiO2 
 PCOD9567305
Probable space group: P 42/M C M
;
_chemical_formula_sum "Si O2"
_cell_formula_units_Z 116
_cell_length_a 28.024059
_cell_length_b 28.024059
_cell_length_c 7.775896
_cell_angle_alpha 90.000000
_cell_angle_beta 90.000000
_cell_angle_gamma 90.000000
_cell_volume 6106.783461
_symmetry_space_group_name_H-M "P 42/M C M"
_symmetry_group_IT_number 132
_symmetry_cell_setting 'tetragonal'
loop_
_space_group_symop_operation_xyz
x,y,z
-y,x,1/2+z
-x,-y,z
y,-x,1/2+z
x,-y,1/2-z
-x,y,1/2-z
y,x,-z
-y,-x,-z
-x,-y,-z
y,-x,1/2-z
x,y,-z
-y,x,1/2-z
-x,y,1/2+z
x,-y,1/2+z
-y,-x,z
y,x,z
loop_
_atom_site_type_symbol
_atom_site_label
_atom_site_fract_x
_atom_site_fract_y
_atom_site_fract_z
Si Si1 0.238338 0.447080 0.292843
Si Si2 0.920377 0.732695 0.201632
Si Si3 0.655131 0.268456 0.209906
Si Si4 0.053634 0.835151 0.803440
Si Si5 0.129987 0.447791 0.702993
Si Si6 0.881944 0.118057 0.500000
Si Si7 0.189918 0.732117 0.208156
Si Si8 0.052268 0.370270 0.202478
O O1 0.256858 0.500000 0.250000
O O2 0.237259 0.444375 0.500000
O O3 0.265401 0.399549 0.231924
O O4 0.183749 0.443842 0.224404
O O5 0.941209 0.777969 0.298334
O O6 0.862785 0.732705 0.216957
O O7 0.938888 0.682520 0.276043
O O8 0.933002 0.737056 0.000000
O O9 0.685857 0.314144 0.267179
O O10 0.685789 0.221353 0.258088
O O11 0.655361 0.269143 0.000000
O O12 0.088151 0.853886 0.653760
O O13 0.000000 0.849030 0.750000
O O14 0.063731 0.851137 0.000000
O O15 0.110806 0.500000 0.750000
O O16 0.135207 0.445889 0.500000
O O17 0.094345 0.406200 0.752276
O O18 0.221505 0.778496 0.256824
O O19 0.186130 0.732051 0.000000
O O20 0.000000 0.388657 0.250000
O O21 0.053669 0.364452 0.000000
#
# Coordination Sequence:
#
# PCOD9567305 Si02
#       8
#    16  16  16  16  16   4  16  16
#     4   9  17  29  48  72  97 130 170 215 262 314
#     4  11  23  38  57  85 123 158 195 239 281 343
#     4   8  14  27  46  69 100 138 179 223 268 325
#     4  12  25  46  73 102 134 168 200 243 293 349
#     4  10  20  35  55  77 104 136 181 234 286 340
#     4  12  26  48  76 105 136 162 206 240 292 354
#     4   9  18  31  50  77 107 140 183 224 269 326
#     4  11  24  39  56  77 105 143 187 236 289 338
#
# _framework density 18.995270999999999
#
# number of rings (size 3 to 8) (size 9 to 14) (size 15 to 20)
#    0.000    1.931    1.379    3.517    0.966    5.517 
#    0.000    2.069    0.000    1.862    0.000    0.000 
#    0.000    0.276    0.000    3.448    0.000    0.000 
#
# Total GULP energy -646593.173092 kJ/mol
# GULP energy per Si atom -5574.079078 kJ/mol
# Density = 1.895204 g / cm^3
# Si number density = 18.995271 Si / 1000 Ang^3
#
#
#
# Elastic Constant Matrix: (Units=GPa)
#
#
# Indices 1 2 3 4 5 6 
#
# 1 39.6829 43.9580 11.2997 0.0000 0.0000 0.0000
# 2 43.9580 39.6805 11.2990 0.0000 0.0000 0.0000
# 3 11.2997 11.2990 81.7676 0.0000 0.0000 0.0000
# 4 0.0000 0.0000 0.0000 16.1572 0.0000 0.0000
# 5 0.0000 0.0000 0.0000 0.0000 16.1583 0.0000
# 6 0.0000 0.0000 0.0000 0.0000 0.0000 82.9886
#
#
#
# Elastic Compliance Matrix: (Units=1/GPa)
#
#
# Indices 1 2 3 4 5 6 
#
# 1 -0.110711 0.123134 -0.001716 0.000000 0.000000 0.000000
# 2 0.123134 -0.110717 -0.001717 0.000000 0.000000 0.000000
# 3 -0.001716 -0.001717 0.012704 0.000000 0.000000 0.000000
# 4 0.000000 0.000000 0.000000 0.061892 0.000000 0.000000
# 5 0.000000 0.000000 0.000000 0.000000 0.061888 0.000000
# 6 0.000000 0.000000 0.000000 0.000000 0.000000 0.012050
#
#
# Mechanical properties :
#
#
# Convention : Reuss Voigt Hill
#
# Bulk Modulus (GPa) = 32.59605 32.69383 32.64494
# Shear Modulus (GPa) = -16.55238 29.36577 6.40669
#
# Velocity S-wave (km/s) = -2.95514 3.93612 1.83851
# Velocity P-wave (km/s) = 2.35659 6.15681 4.66154
#
# Compressibility (1/GPa) = 0.03067857
#
# Stress axis : x y z
#
# Youngs Moduli (GPa) = -9.03253 -9.03200 78.71455
#
# Poissons Ratio (x) = 1.11215 0.13505
# Poissons Ratio (y) = 1.11221 0.13514
# Poissons Ratio (z) = -0.01550 -0.01551
#
# Static dielectric constant tensor:
#      x y z
#    x 1.650930 0.000000 0.000000 
#    y 0.000000 1.650930 0.000000 
#    z 0.000000 0.000000 1.665740 
# 
# From -- ./inp_files/2088.got.cif
#   From: 2010.05.17/outbox.cif.g08.bks.cpg/sg132_2_cif.got.tgz:2088.got - 2010.05.20 12:30:18.
