data_PCOD9567283
_publ_section_title
;
Structure prediction by ZEFSAII (Michael W. Deem and Ramdas Pophale) SiO2 
 PCOD9567283
Probable space group: P 42/M C M
;
_chemical_formula_sum "Si O2"
_cell_formula_units_Z 72
_cell_length_a 13.694902
_cell_length_b 13.694902
_cell_length_c 18.716649
_cell_angle_alpha 90.000000
_cell_angle_beta 90.000000
_cell_angle_gamma 90.000000
_cell_volume 3510.313898
_symmetry_space_group_name_H-M "P 42/M C M"
_symmetry_group_IT_number 132
_symmetry_cell_setting 'tetragonal'
loop_
_space_group_symop_operation_xyz
x,y,z
-y,x,1/2+z
-x,-y,z
y,-x,1/2+z
x,-y,1/2-z
-x,y,1/2-z
y,x,-z
-y,-x,-z
-x,-y,-z
y,-x,1/2-z
x,y,-z
-y,x,1/2-z
-x,y,1/2+z
x,-y,1/2+z
-y,-x,z
y,x,z
loop_
_atom_site_type_symbol
_atom_site_label
_atom_site_fract_x
_atom_site_fract_y
_atom_site_fract_z
Si Si1 0.203127 0.045207 0.326823
Si Si2 0.133137 0.133137 0.085165
Si Si3 0.401140 0.871846 0.791179
Si Si4 0.732775 0.423501 0.079263
Si Si5 0.736484 0.736484 0.191923
Si Si6 0.382675 0.382675 0.921115
O O1 0.149965 0.149965 0.333322
O O2 0.321190 0.052328 0.323040
O O3 0.173318 0.000000 0.250000
O O4 0.162458 0.975349 0.388646
O O5 0.200855 0.200855 0.135641
O O6 0.145011 0.145011 0.000000
O O7 0.500000 0.900659 0.750000
O O8 0.437146 0.808171 0.857921
O O9 0.332551 0.805782 0.739574
O O10 0.680608 0.319393 0.086945
O O11 0.648488 0.505229 0.082862
O O12 0.777031 0.430320 0.000000
O O13 0.668963 0.668963 0.144011
O O14 0.348035 0.348035 0.000000
#
# Coordination Sequence:
#
# PCOD9567283 Si02
#       6
#    16   8  16  16   8   8
#     4  12  23  44  73 100 133 176 221 277 354 419
#     4  12  28  48  75 108 135 169 228 300 371 439
#     4  12  23  39  67 100 138 183 237 280 345 417
#     4  10  20  34  54  86 130 179 236 296 346 399
#     4  12  21  42  65  96 133 188 232 282 345 424
#     4  10  20  34  55  82 127 185 232 286 351 403
#
# _framework density 20.510985000000002
#
# number of rings (size 3 to 8) (size 9 to 14) (size 15 to 20)
#    0.000    0.667    7.778    1.000    0.000    3.556 
#    0.000    0.000    0.000    1.333    0.000    0.000 
#    0.000    0.000    0.000    0.000    0.000    0.000 
#
# Total GULP energy -401975.134945 kJ/mol
# GULP energy per Si atom -5582.987985 kJ/mol
# Density = 2.046430 g / cm^3
# Si number density = 20.510985 Si / 1000 Ang^3
#
#
#
# Elastic Constant Matrix: (Units=GPa)
#
#
# Indices 1 2 3 4 5 6 
#
# 1 102.6499 41.4898 50.0040 0.0000 0.0000 0.0000
# 2 41.4898 102.6499 50.0040 0.0000 0.0000 0.0000
# 3 50.0040 50.0040 145.5484 0.0000 0.0000 0.0000
# 4 0.0000 0.0000 0.0000 23.4188 0.0000 0.0000
# 5 0.0000 0.0000 0.0000 0.0000 23.4188 0.0000
# 6 0.0000 0.0000 0.0000 0.0000 0.0000 38.4625
#
#
#
# Elastic Compliance Matrix: (Units=1/GPa)
#
#
# Indices 1 2 3 4 5 6 
#
# 1 0.012730 -0.003621 -0.003129 0.000000 0.000000 0.000000
# 2 -0.003621 0.012730 -0.003129 0.000000 0.000000 0.000000
# 3 -0.003129 -0.003129 0.009021 0.000000 0.000000 0.000000
# 4 0.000000 0.000000 0.000000 0.042701 0.000000 0.000000
# 5 0.000000 0.000000 0.000000 0.000000 0.042701 0.000000
# 6 0.000000 0.000000 0.000000 0.000000 0.000000 0.025999
#
#
# Mechanical properties :
#
#
# Convention : Reuss Voigt Hill
#
# Bulk Modulus (GPa) = 67.92991 70.42712 69.17851
# Shear Modulus (GPa) = 29.31730 31.01668 30.16699
#
# Velocity S-wave (km/s) = 3.78477 3.89292 3.83923
# Velocity P-wave (km/s) = 7.23118 7.39035 7.31120
#
# Compressibility (1/GPa) = 0.01472106
#
# Stress axis : x y z
#
# Youngs Moduli (GPa) = 78.55598 78.55598 110.85428
#
# Poissons Ratio (x) = 0.28443 0.34691
# Poissons Ratio (y) = 0.28443 0.34691
# Poissons Ratio (z) = 0.24584 0.24584
#
# Static dielectric constant tensor:
#      x y z
#    x 1.763880 0.000000 0.000000 
#    y 0.000000 1.763880 0.000000 
#    z 0.000000 0.000000 1.700740 
# 
# From -- ./inp_files/6192.got.cif
#   From: 2010.05.17/outbox.cif.g08.bks.cpg/sg132_4_cif.got.tgz:6192.got - 2010.05.20 12:30:18.
