data_PCOD9567686
_publ_section_title
;
Structure prediction by ZEFSAII (Michael W. Deem and Ramdas Pophale) SiO2 
 PCOD9567686
Probable space group: P 42/N B C
;
_chemical_formula_sum "Si O2"
_cell_formula_units_Z 72
_cell_length_a 21.040271
_cell_length_b 21.040271
_cell_length_c 8.657701
_cell_angle_alpha 90.000000
_cell_angle_beta 90.000000
_cell_angle_gamma 90.000000
_cell_volume 3832.703661
_symmetry_space_group_name_H-M "P 42/N B C"
_symmetry_group_IT_number 133
_space_group.IT_coordinate_system_code '2'
_symmetry_cell_setting 'tetragonal'
loop_
_space_group_symop_operation_xyz
x,y,z
1/2-y,x,1/2+z
1/2-x,1/2-y,z
y,1/2-x,1/2+z
x,1/2-y,-z
1/2-x,y,-z
y,x,1/2-z
1/2-y,1/2-x,1/2-z
-x,-y,-z
1/2+y,-x,1/2-z
1/2+x,1/2+y,-z
-y,1/2+x,1/2-z
-x,1/2+y,z
1/2+x,-y,z
-y,-x,1/2+z
1/2+y,1/2+x,1/2+z
loop_
_atom_site_type_symbol
_atom_site_label
_atom_site_fract_x
_atom_site_fract_y
_atom_site_fract_z
Si Si1 0.382785 0.250000 0.000000
Si Si2 0.353488 0.353488 0.250000
Si Si3 0.486165 0.250000 0.500000
Si Si4 0.999523 0.131084 0.348589
Si Si5 0.338192 0.054093 0.263872
Si Si6 0.564136 0.032442 0.831955
O O1 0.347427 0.203752 0.875791
O O2 0.427772 0.298288 0.910224
O O3 0.425707 0.354673 0.318959
O O4 0.526182 0.301022 0.403689
O O5 0.444614 0.291343 0.618110
O O6 0.964602 0.101386 0.200872
O O7 0.987947 0.082595 0.493591
O O8 0.393056 0.106945 0.250000
O O9 0.371744 0.985685 0.260326
O O10 0.511999 0.988002 0.750000
#
# Coordination Sequence:
#
# PCOD9567686 Si02
#       6
#     8   8   8  16  16  16
#     4  12  24  40  63  80 116 163 222 250 314 344
#     4  12  24  40  63  88 120 172 208 269 304 366
#     4  10  20  40  52  81 124 161 188 250 302 350
#     4  11  22  36  61  85 124 152 202 246 320 367
#     4  10  22  37  57  79 118 157 200 255 307 359
#     4  10  20  33  56  87 115 148 192 249 311 381
#
# _framework density 18.785692999999998
#
# number of rings (size 3 to 8) (size 9 to 14) (size 15 to 20)
#    0.000    1.333    3.333    4.667    3.111    0.000 
#    0.000    1.667    0.000    0.000    0.000    0.000 
#    0.000   57.778    0.000    0.000    0.000    0.000 
#
# Total GULP energy -400902.642890 kJ/mol
# GULP energy per Si atom -5568.092262 kJ/mol
# Density = 1.874294 g / cm^3
# Si number density = 18.785693 Si / 1000 Ang^3
#
#
#
# Elastic Constant Matrix: (Units=GPa)
#
#
# Indices 1 2 3 4 5 6 
#
# 1 77.5316 40.9329 35.0345 0.0000 0.0000 0.0000
# 2 40.9329 77.5315 35.0343 0.0000 0.0000 0.0000
# 3 35.0345 35.0343 81.8519 0.0000 0.0000 0.0000
# 4 0.0000 0.0000 0.0000 32.0295 0.0000 0.0000
# 5 0.0000 0.0000 0.0000 0.0000 32.0288 0.0000
# 6 0.0000 0.0000 0.0000 0.0000 0.0000 8.3050
#
#
#
# Elastic Compliance Matrix: (Units=1/GPa)
#
#
# Indices 1 2 3 4 5 6 
#
# 1 0.019313 -0.008010 -0.004838 0.000000 0.000000 0.000000
# 2 -0.008010 0.019313 -0.004838 0.000000 0.000000 0.000000
# 3 -0.004838 -0.004838 0.016359 0.000000 0.000000 0.000000
# 4 0.000000 0.000000 0.000000 0.031221 0.000000 0.000000
# 5 0.000000 0.000000 0.000000 0.000000 0.031222 0.000000
# 6 0.000000 0.000000 0.000000 0.000000 0.000000 0.120409
#
#
# Mechanical properties :
#
#
# Convention : Reuss Voigt Hill
#
# Bulk Modulus (GPa) = 50.98703 50.99093 50.98898
# Shear Modulus (GPa) = 17.87329 22.86687 20.37008
#
# Velocity S-wave (km/s) = 3.08787 3.49269 3.29650
# Velocity P-wave (km/s) = 6.31772 6.59300 6.45683
#
# Compressibility (1/GPa) = 0.01961283
#
# Stress axis : x y z
#
# Youngs Moduli (GPa) = 51.77824 51.77826 61.12993
#
# Poissons Ratio (x) = 0.41476 0.29574
# Poissons Ratio (y) = 0.41476 0.29574
# Poissons Ratio (z) = 0.25050 0.25049
#
# Static dielectric constant tensor:
#      x y z
#    x 1.715720 0.000000 0.000000 
#    y 0.000000 1.715730 0.000000 
#    z 0.000000 0.000000 1.810260 
# 
# From -- ./inp_files/1726.got.cif
#   From: 2010.05.17/outbox.cif.g08.bks.cpg/sg133_1_cif.got.tgz:1726.got - 2010.05.20 12:37:36.
