data_PCOD9567179
_publ_section_title
;
Structure prediction by ZEFSAII (Michael W. Deem and Ramdas Pophale) SiO2 
 PCOD9567179
Probable space group: P 42/M C M
;
_chemical_formula_sum "Si O2"
_cell_formula_units_Z 96
_cell_length_a 24.156943
_cell_length_b 24.156943
_cell_length_c 9.196976
_cell_angle_alpha 90.000000
_cell_angle_beta 90.000000
_cell_angle_gamma 90.000000
_cell_volume 5366.967956
_symmetry_space_group_name_H-M "P 42/M C M"
_symmetry_group_IT_number 132
_symmetry_cell_setting 'tetragonal'
loop_
_space_group_symop_operation_xyz
x,y,z
-y,x,1/2+z
-x,-y,z
y,-x,1/2+z
x,-y,1/2-z
-x,y,1/2-z
y,x,-z
-y,-x,-z
-x,-y,-z
y,-x,1/2-z
x,y,-z
-y,x,1/2-z
-x,y,1/2+z
x,-y,1/2+z
-y,-x,z
y,x,z
loop_
_atom_site_type_symbol
_atom_site_label
_atom_site_fract_x
_atom_site_fract_y
_atom_site_fract_z
Si Si1 0.557864 0.784049 0.828375
Si Si2 0.668072 0.955457 0.162047
Si Si3 0.763915 0.675121 0.671604
Si Si4 0.151657 0.061073 0.175337
Si Si5 0.251928 0.144679 0.833128
Si Si6 0.554128 0.082597 0.330105
O O1 0.500000 0.766121 0.750000
O O2 0.615716 0.766415 0.752504
O O3 0.558172 0.851019 0.819756
O O4 0.557328 0.769083 0.000000
O O5 0.698620 0.898492 0.157461
O O6 0.609453 0.943164 0.234492
O O7 0.702088 0.000000 0.250000
O O8 0.660877 0.976663 0.000000
O O9 0.776188 0.667438 0.500000
O O10 0.704008 0.704008 0.685933
O O11 0.806793 0.720872 0.737497
O O12 0.093455 0.093455 0.202909
O O13 0.199468 0.106887 0.216914
O O14 0.154910 0.000000 0.250000
O O15 0.157838 0.053791 0.000000
O O16 0.241489 0.162493 0.000000
O O17 0.500000 0.063689 0.250000
O O18 0.551362 0.069068 0.500000
#
# Coordination Sequence:
#
# PCOD9567179 Si02
#       6
#    16  16  16  16  16  16
#     4  10  19  35  57  80 110 149 190 231 278 329
#     4  10  20  33  48  70  97 130 175 221 267 321
#     4  11  23  36  54  85 119 149 187 231 274 325
#     4  10  22  39  60  84 107 136 174 218 275 343
#     4  10  20  38  58  77 106 141 178 220 272 333
#     4   9  18  32  48  68  95 129 173 219 264 314
#
# _framework density 17.887194000000001
#
# number of rings (size 3 to 8) (size 9 to 14) (size 15 to 20)
#    0.000    2.000    1.667    2.000    0.000    5.500 
#    0.000    2.500    0.000    0.000    0.000    0.000 
#    0.000    0.333    0.000    3.500    0.000    1.500 
#
# Total GULP energy -534515.652608 kJ/mol
# GULP energy per Si atom -5567.871381 kJ/mol
# Density = 1.784648 g / cm^3
# Si number density = 17.887194 Si / 1000 Ang^3
#
#
#
# Elastic Constant Matrix: (Units=GPa)
#
#
# Indices 1 2 3 4 5 6 
#
# 1 94.3050 68.6483 55.2849 0.0000 0.0000 0.0000
# 2 68.6483 94.3050 55.2849 0.0000 0.0000 0.0000
# 3 55.2849 55.2849 88.5131 0.0000 0.0000 0.0000
# 4 0.0000 0.0000 0.0000 33.5177 0.0000 0.0000
# 5 0.0000 0.0000 0.0000 0.0000 33.5177 0.0000
# 6 0.0000 0.0000 0.0000 0.0000 0.0000 8.0866
#
#
#
# Elastic Compliance Matrix: (Units=1/GPa)
#
#
# Indices 1 2 3 4 5 6 
#
# 1 0.024813 -0.014163 -0.006652 0.000000 0.000000 0.000000
# 2 -0.014163 0.024813 -0.006652 0.000000 0.000000 0.000000
# 3 -0.006652 -0.006652 0.019608 0.000000 0.000000 0.000000
# 4 0.000000 0.000000 0.000000 0.029835 0.000000 0.000000
# 5 0.000000 0.000000 0.000000 0.000000 0.029835 0.000000
# 6 0.000000 0.000000 0.000000 0.000000 0.000000 0.123661
#
#
# Mechanical properties :
#
#
# Convention : Reuss Voigt Hill
#
# Bulk Modulus (GPa) = 69.93156 70.61768 70.27462
# Shear Modulus (GPa) = 16.01194 21.55142 18.78168
#
# Velocity S-wave (km/s) = 2.99517 3.47486 3.24390
# Velocity P-wave (km/s) = 7.15137 7.46088 7.30777
#
# Compressibility (1/GPa) = 0.01429970
#
# Stress axis : x y z
#
# Youngs Moduli (GPa) = 40.30079 40.30079 51.00033
#
# Poissons Ratio (x) = 0.57077 0.33927
# Poissons Ratio (y) = 0.57077 0.33927
# Poissons Ratio (z) = 0.26809 0.26809
#
# Static dielectric constant tensor:
#      x y z
#    x 1.633040 0.000000 0.000000 
#    y 0.000000 1.633040 0.000000 
#    z 0.000000 0.000000 1.630380 
# 
# From -- ./inp_files/1736.got.cif
#   From: 2010.05.17/outbox.cif.g08.bks.cpg/sg132_1_cif.got.tgz:1736.got - 2010.05.20 12:30:18.
