data_PCOD9567704
_publ_section_title
;
Structure prediction by ZEFSAII (Michael W. Deem and Ramdas Pophale) SiO2 
 PCOD9567704
Probable space group: P 42/N B C
;
_chemical_formula_sum "Si O2"
_cell_formula_units_Z 92
_cell_length_a 15.948182
_cell_length_b 15.948182
_cell_length_c 17.394233
_cell_angle_alpha 90.000000
_cell_angle_beta 90.000000
_cell_angle_gamma 90.000000
_cell_volume 4424.127654
_symmetry_space_group_name_H-M "P 42/N B C"
_symmetry_group_IT_number 133
_space_group.IT_coordinate_system_code '2'
_symmetry_cell_setting 'tetragonal'
loop_
_space_group_symop_operation_xyz
x,y,z
1/2-y,x,1/2+z
1/2-x,1/2-y,z
y,1/2-x,1/2+z
x,1/2-y,-z
1/2-x,y,-z
y,x,1/2-z
1/2-y,1/2-x,1/2-z
-x,-y,-z
1/2+y,-x,1/2-z
1/2+x,1/2+y,-z
-y,1/2+x,1/2-z
-x,1/2+y,z
1/2+x,-y,z
-y,-x,1/2+z
1/2+y,1/2+x,1/2+z
loop_
_atom_site_type_symbol
_atom_site_label
_atom_site_fract_x
_atom_site_fract_y
_atom_site_fract_z
Si Si1 0.619942 0.718686 0.189381
Si Si2 0.187504 0.630473 0.627710
Si Si3 0.347061 0.344920 0.525983
Si Si4 0.488839 0.011162 0.750000
Si Si5 0.179794 0.938762 0.741612
Si Si6 0.250000 0.750000 0.000000
Si Si7 0.943082 0.626250 0.110854
O O1 0.687179 0.687179 0.250000
O O2 0.630095 0.655028 0.115964
O O3 0.529953 0.723130 0.233236
O O4 0.623823 0.809496 0.149876
O O5 0.271979 0.618852 0.679301
O O6 0.115682 0.672082 0.681016
O O7 0.198581 0.689383 0.555408
O O8 0.167238 0.535209 0.601788
O O9 0.368656 0.250000 0.500000
O O10 0.250000 0.357261 0.500000
O O11 0.398954 0.407259 0.471722
O O12 0.584225 0.032985 0.731363
O O13 0.457776 0.057363 0.825678
#
# Coordination Sequence:
#
# PCOD9567704 Si02
#       7
#    16  16  16   8  16   4  16
#     4  10  20  35  62  85 116 161 208 246 303 372
#     4  10  22  37  63  88 121 153 216 260 326 386
#     4   9  19  36  55  85 124 157 195 244 297 360
#     4  10  20  38  61  84 120 157 204 246 320 378
#     4  10  20  41  61  87 119 162 202 265 316 378
#     4  12  24  38  68  96 114 166 214 280 348 382
#     4   9  21  36  58  86 120 160 197 252 304 374
#
# _framework density 20.795059999999999
#
# number of rings (size 3 to 8) (size 9 to 14) (size 15 to 20)
#    0.000    2.261    0.870    1.043    8.522    0.000 
#    0.000    2.609    3.826    0.000    0.000    0.000 
#    0.000    0.000    0.000    0.000    0.000    0.000 
#
# Total GULP energy -512465.860931 kJ/mol
# GULP energy per Si atom -5570.281097 kJ/mol
# Density = 2.074773 g / cm^3
# Si number density = 20.795060 Si / 1000 Ang^3
#
#
#
# Elastic Constant Matrix: (Units=GPa)
#
#
# Indices 1 2 3 4 5 6 
#
# 1 -57.4088 124.9275 40.3786 0.0000 0.0000 0.0000
# 2 124.9275 -57.4176 40.3608 0.0000 0.0000 0.0000
# 3 40.3786 40.3608 107.4533 0.0000 0.0000 0.0000
# 4 0.0000 0.0000 0.0000 -29.7858 0.0000 0.0000
# 5 0.0000 0.0000 0.0000 0.0000 -29.7860 0.0000
# 6 0.0000 0.0000 0.0000 0.0000 0.0000 16.1822
#
#
#
# Elastic Compliance Matrix: (Units=1/GPa)
#
#
# Indices 1 2 3 4 5 6 
#
# 1 0.010705 0.016190 -0.010104 0.000000 0.000000 0.000000
# 2 0.016190 0.010706 -0.010105 0.000000 0.000000 0.000000
# 3 -0.010104 -0.010105 0.016899 0.000000 0.000000 0.000000
# 4 0.000000 0.000000 0.000000 -0.033573 0.000000 0.000000
# 5 0.000000 0.000000 0.000000 0.000000 -0.033573 0.000000
# 6 0.000000 0.000000 0.000000 0.000000 0.000000 0.061796
#
#
# Mechanical properties :
#
#
# Convention : Reuss Voigt Hill
#
# Bulk Modulus (GPa) = 33.03404 44.88451 38.95927
# Shear Modulus (GPa) = 97.86740 -22.88060 37.49340
#
# Velocity S-wave (km/s) = 6.86768 -3.32066 4.25078
# Velocity P-wave (km/s) = 8.87731 2.63224 6.54734
#
# Compressibility (1/GPa) = 0.03027181
#
# Stress axis : x y z
#
# Youngs Moduli (GPa) = 93.41135 93.40548 59.17566
#
# Poissons Ratio (x) = -1.51223 0.59791
# Poissons Ratio (y) = -1.51232 0.59798
# Poissons Ratio (z) = 0.94383 0.94387
#
# Static dielectric constant tensor:
#      x y z
#    x 1.765070 0.000000 0.000000 
#    y 0.000000 1.765080 0.000000 
#    z 0.000000 0.000000 1.777510 
# 
# From -- ./inp_files/5581.got.cif
#   From: 2010.05.17/outbox.cif.g08.bks.cpg/sg133_3_cif.got.tgz:5581.got - 2010.05.20 12:37:36.
