data_PCOD9567660
_publ_section_title
;
Structure prediction by ZEFSAII (Michael W. Deem and Ramdas Pophale) SiO2 
 PCOD9567660
Probable space group: P 42/N B C
;
_chemical_formula_sum "Si O2"
_cell_formula_units_Z 88
_cell_length_a 14.795637
_cell_length_b 14.795637
_cell_length_c 20.992098
_cell_angle_alpha 90.000000
_cell_angle_beta 90.000000
_cell_angle_gamma 90.000000
_cell_volume 4595.398525
_symmetry_space_group_name_H-M "P 42/N B C"
_symmetry_group_IT_number 133
_space_group.IT_coordinate_system_code '2'
_symmetry_cell_setting 'tetragonal'
loop_
_space_group_symop_operation_xyz
x,y,z
1/2-y,x,1/2+z
1/2-x,1/2-y,z
y,1/2-x,1/2+z
x,1/2-y,-z
1/2-x,y,-z
y,x,1/2-z
1/2-y,1/2-x,1/2-z
-x,-y,-z
1/2+y,-x,1/2-z
1/2+x,1/2+y,-z
-y,1/2+x,1/2-z
-x,1/2+y,z
1/2+x,-y,z
-y,-x,1/2+z
1/2+y,1/2+x,1/2+z
loop_
_atom_site_type_symbol
_atom_site_label
_atom_site_fract_x
_atom_site_fract_y
_atom_site_fract_z
Si Si1 0.527662 0.300414 0.869733
Si Si2 0.641465 0.550190 0.998247
Si Si3 0.056833 0.250000 0.000000
Si Si4 0.005930 0.503629 0.104488
Si Si5 0.321606 0.849539 0.784655
Si Si6 0.854857 0.524125 0.283669
O O1 0.505984 0.255344 0.937378
O O2 0.492217 0.401887 0.870299
O O3 0.631623 0.308450 0.846686
O O4 0.477413 0.241911 0.816443
O O5 0.587243 0.517022 0.935487
O O6 0.750000 0.538794 0.000000
O O7 0.615615 0.657651 0.001721
O O8 0.590095 0.495455 0.054915
O O9 0.005596 0.575796 0.160850
O O10 0.350205 0.785771 0.724491
O O11 0.356816 0.948631 0.771021
O O12 0.884540 0.615461 0.250000
#
# Coordination Sequence:
#
# PCOD9567660 Si02
#       6
#    16  16   8  16  16  16
#     4  10  20  36  60  85 120 158 206 260 308 388
#     4  10  21  38  60  88 123 163 210 256 314 379
#     4  10  19  36  64  87 122 164 209 262 316 374
#     4  10  21  38  59  88 117 159 208 250 315 371
#     4   9  19  34  56  84 117 159 207 252 308 379
#     4  11  20  37  61  84 116 165 202 256 324 368
#
# _framework density 19.149591000000001
#
# number of rings (size 3 to 8) (size 9 to 14) (size 15 to 20)
#    0.000    2.000    3.636    0.273    0.000    1.455 
#    0.000    0.000    0.000    0.000    0.000    0.000 
#    0.000    0.000    0.000    0.000    0.000    0.000 
#
# Total GULP energy -490059.368682 kJ/mol
# GULP energy per Si atom -5568.856462 kJ/mol
# Density = 1.910601 g / cm^3
# Si number density = 19.149591 Si / 1000 Ang^3
#
#
#
# Elastic Constant Matrix: (Units=GPa)
#
#
# Indices 1 2 3 4 5 6 
#
# 1 87.4919 23.2134 22.1078 0.0000 0.0000 0.0000
# 2 23.2134 87.4913 22.1092 0.0000 0.0000 0.0000
# 3 22.1078 22.1092 56.0827 0.0000 0.0000 0.0000
# 4 0.0000 0.0000 0.0000 20.1646 0.0000 0.0000
# 5 0.0000 0.0000 0.0000 0.0000 20.1650 0.0000
# 6 0.0000 0.0000 0.0000 0.0000 0.0000 21.7001
#
#
#
# Elastic Compliance Matrix: (Units=1/GPa)
#
#
# Indices 1 2 3 4 5 6 
#
# 1 0.013139 -0.002418 -0.004226 0.000000 0.000000 0.000000
# 2 -0.002418 0.013139 -0.004227 0.000000 0.000000 0.000000
# 3 -0.004226 -0.004227 0.021163 0.000000 0.000000 0.000000
# 4 0.000000 0.000000 0.000000 0.049592 0.000000 0.000000
# 5 0.000000 0.000000 0.000000 0.000000 0.049591 0.000000
# 6 0.000000 0.000000 0.000000 0.000000 0.000000 0.046083
#
#
# Mechanical properties :
#
#
# Convention : Reuss Voigt Hill
#
# Bulk Modulus (GPa) = 38.91109 40.65854 39.78481
# Shear Modulus (GPa) = 22.41998 23.31496 22.86747
#
# Velocity S-wave (km/s) = 3.42538 3.49308 3.45940
# Velocity P-wave (km/s) = 6.00066 6.12756 6.06444
#
# Compressibility (1/GPa) = 0.02569962
#
# Stress axis : x y z
#
# Youngs Moduli (GPa) = 76.10879 76.10705 47.25227
#
# Poissons Ratio (x) = 0.18404 0.19969
# Poissons Ratio (y) = 0.18404 0.19972
# Poissons Ratio (z) = 0.32165 0.32168
#
# Static dielectric constant tensor:
#      x y z
#    x 1.685200 0.000000 0.000000 
#    y 0.000000 1.685200 0.000000 
#    z 0.000000 0.000000 1.681210 
# 
# From -- ./inp_files/6417.got.cif
#   From: 2010.05.17/outbox.cif.g08.bks.cpg/sg133_4_cif.got.tgz:6417.got - 2010.05.20 12:37:36.
