data_PCOD9567169
_publ_section_title
;
Structure prediction by ZEFSAII (Michael W. Deem and Ramdas Pophale) SiO2 
 PCOD9567169
Probable space group: P 42/M C M
;
_chemical_formula_sum "Si O2"
_cell_formula_units_Z 72
_cell_length_a 15.413628
_cell_length_b 15.413628
_cell_length_c 15.231919
_cell_angle_alpha 90.000000
_cell_angle_beta 90.000000
_cell_angle_gamma 90.000000
_cell_volume 3618.798221
_symmetry_space_group_name_H-M "P 42/M C M"
_symmetry_group_IT_number 132
_symmetry_cell_setting 'tetragonal'
loop_
_space_group_symop_operation_xyz
x,y,z
-y,x,1/2+z
-x,-y,z
y,-x,1/2+z
x,-y,1/2-z
-x,y,1/2-z
y,x,-z
-y,-x,-z
-x,-y,-z
y,-x,1/2-z
x,y,-z
-y,x,1/2-z
-x,y,1/2+z
x,-y,1/2+z
-y,-x,z
y,x,z
loop_
_atom_site_type_symbol
_atom_site_label
_atom_site_fract_x
_atom_site_fract_y
_atom_site_fract_z
Si Si1 0.071424 0.071424 0.900763
Si Si2 0.175267 0.687614 0.898154
Si Si3 0.495514 0.896679 0.891897
Si Si4 0.249489 0.007966 0.848286
Si Si5 0.669927 0.811520 0.898308
O O1 0.149629 0.031076 0.848181
O O2 0.099551 0.099551 0.000000
O O3 0.000000 0.000000 0.911680
O O4 0.251730 0.748271 0.859331
O O5 0.148504 0.593735 0.861605
O O6 0.083849 0.737885 0.894224
O O7 0.197670 0.673359 0.000000
O O8 0.574551 0.834757 0.861331
O O9 0.500000 0.000000 0.866508
O O10 0.496565 0.898491 0.000000
O O11 0.289741 0.091977 0.894028
O O12 0.284902 0.000000 0.750000
O O13 0.738918 0.738918 0.862677
O O14 0.657011 0.787913 0.000000
#
# Coordination Sequence:
#
# PCOD9567169 Si02
#       5
#     8  16  16  16  16
#     4  11  24  38  52  68  98 148 193 217 253 322
#     4  10  20  35  55  76 102 138 181 221 265 324
#     4   9  16  30  54  79 101 133 180 228 265 313
#     4  12  24  33  50  75 109 139 173 223 272 313
#     4  10  19  34  56  77 102 138 181 222 266 324
#
# _framework density 19.896108000000002
#
# number of rings (size 3 to 8) (size 9 to 14) (size 15 to 20)
#    0.000    1.667    3.333    2.667    3.111    1.778 
#    0.000    2.222    0.000    0.667    0.000    4.667 
#    0.000    0.000    0.000    4.000    0.000    4.444 
#
# Total GULP energy -401010.075497 kJ/mol
# GULP energy per Si atom -5569.584382 kJ/mol
# Density = 1.985082 g / cm^3
# Si number density = 19.896108 Si / 1000 Ang^3
#
#
#
# Elastic Constant Matrix: (Units=GPa)
#
#
# Indices 1 2 3 4 5 6 
#
# 1 184.6005 43.7472 0.2518 0.0000 0.0000 0.0000
# 2 43.7472 184.6005 0.2518 0.0000 0.0000 0.0000
# 3 0.2518 0.2518 47.0295 0.0000 0.0000 0.0000
# 4 0.0000 0.0000 0.0000 -19.9628 0.0000 0.0000
# 5 0.0000 0.0000 0.0000 0.0000 -19.9628 0.0000
# 6 0.0000 0.0000 0.0000 0.0000 0.0000 24.5102
#
#
#
# Elastic Compliance Matrix: (Units=1/GPa)
#
#
# Indices 1 2 3 4 5 6 
#
# 1 0.005739 -0.001360 -0.000023 0.000000 0.000000 0.000000
# 2 -0.001360 0.005739 -0.000023 0.000000 0.000000 0.000000
# 3 -0.000023 -0.000023 0.021263 0.000000 0.000000 0.000000
# 4 0.000000 0.000000 0.000000 -0.050093 0.000000 0.000000
# 5 0.000000 0.000000 0.000000 0.000000 -0.050093 0.000000
# 6 0.000000 0.000000 0.000000 0.000000 0.000000 0.040799
#
#
# Mechanical properties :
#
#
# Convention : Reuss Voigt Hill
#
# Bulk Modulus (GPa) = 33.41310 56.08134 44.74722
# Shear Modulus (GPa) = -360.89321 21.71558 -169.58881
#
# Velocity S-wave (km/s) = -13.48268 3.30729 -9.24241
# Velocity P-wave (km/s) = 15.01821 6.54466 9.55809
#
# Compressibility (1/GPa) = 0.02992838
#
# Stress axis : x y z
#
# Youngs Moduli (GPa) = 174.23240 174.23240 47.02896
#
# Poissons Ratio (x) = 0.23698 0.00110
# Poissons Ratio (y) = 0.23698 0.00110
# Poissons Ratio (z) = 0.00409 0.00409
#
# Static dielectric constant tensor:
#      x y z
#    x 1.722630 0.000000 0.000000 
#    y 0.000000 1.722630 0.000000 
#    z 0.000000 0.000000 1.787490 
# 
# From -- ./inp_files/6119.got.cif
#   From: 2010.05.17/outbox.cif.g08.bks.cpg/sg132_4_cif.got.tgz:6119.got - 2010.05.20 12:30:18.
