data_PCOD9567403
_publ_section_title
;
Structure prediction by ZEFSAII (Michael W. Deem and Ramdas Pophale) SiO2 
 PCOD9567403
Probable space group: P 42/M C M
;
_chemical_formula_sum "Si O2"
_cell_formula_units_Z 64
_cell_length_a 14.231127
_cell_length_b 14.231127
_cell_length_c 17.491071
_cell_angle_alpha 90.000000
_cell_angle_beta 90.000000
_cell_angle_gamma 90.000000
_cell_volume 3542.378729
_symmetry_space_group_name_H-M "P 42/M C M"
_symmetry_group_IT_number 132
_symmetry_cell_setting 'tetragonal'
loop_
_space_group_symop_operation_xyz
x,y,z
-y,x,1/2+z
-x,-y,z
y,-x,1/2+z
x,-y,1/2-z
-x,y,1/2-z
y,x,-z
-y,-x,-z
-x,-y,-z
y,-x,1/2-z
x,y,-z
-y,x,1/2-z
-x,y,1/2+z
x,-y,1/2+z
-y,-x,z
y,x,z
loop_
_atom_site_type_symbol
_atom_site_label
_atom_site_fract_x
_atom_site_fract_y
_atom_site_fract_z
Si Si1 0.815894 0.664929 0.089943
Si Si2 0.284570 0.132435 0.587303
Si Si3 0.108976 0.482626 0.659935
Si Si4 0.807690 0.961588 0.836368
O O1 0.714569 0.714569 0.099844
O O2 0.827187 0.557595 0.115144
O O3 0.888164 0.725345 0.141615
O O4 0.840973 0.675133 0.000000
O O5 0.314944 0.117907 0.500000
O O6 0.229604 0.229604 0.594108
O O7 0.375414 0.129971 0.640110
O O8 0.212294 0.050359 0.610322
O O9 0.118367 0.500000 0.750000
O O10 0.000000 0.500000 0.638301
O O11 0.904789 0.904789 0.846910
O O12 0.801612 0.000000 0.750000
#
# Coordination Sequence:
#
# PCOD9567403 Si02
#       4
#    16  16  16  16
#     4  10  21  37  60  87 113 147 193 242 287 337
#     4  11  24  39  57  84 117 153 191 236 289 340
#     4  11  22  37  60  88 114 150 192 235 289 340
#     4  11  22  36  54  79 113 155 198 237 280 333
#
# _framework density 18.066956000000001
#
# number of rings (size 3 to 8) (size 9 to 14) (size 15 to 20)
#    0.000    1.250    2.500    3.750    0.000    7.250 
#    0.000    1.250    0.000    0.750    0.000    5.250 
#    0.000    0.000    0.000    0.000    0.000    0.000 
#
# Total GULP energy -357511.607345 kJ/mol
# GULP energy per Si atom -5586.118865 kJ/mol
# Density = 1.802583 g / cm^3
# Si number density = 18.066956 Si / 1000 Ang^3
#
#
#
# Elastic Constant Matrix: (Units=GPa)
#
#
# Indices 1 2 3 4 5 6 
#
# 1 81.4518 38.9612 40.6677 0.0000 0.0000 0.0000
# 2 38.9612 81.4518 40.6677 0.0000 0.0000 0.0000
# 3 40.6677 40.6677 74.0406 0.0000 0.0000 0.0000
# 4 0.0000 0.0000 0.0000 57.8406 0.0000 0.0000
# 5 0.0000 0.0000 0.0000 0.0000 57.8406 0.0000
# 6 0.0000 0.0000 0.0000 0.0000 0.0000 17.5382
#
#
#
# Elastic Compliance Matrix: (Units=1/GPa)
#
#
# Indices 1 2 3 4 5 6 
#
# 1 0.018369 -0.005166 -0.007252 0.000000 0.000000 0.000000
# 2 -0.005166 0.018369 -0.007252 0.000000 0.000000 0.000000
# 3 -0.007252 -0.007252 0.021473 0.000000 0.000000 0.000000
# 4 0.000000 0.000000 0.000000 0.017289 0.000000 0.000000
# 5 0.000000 0.000000 0.000000 0.000000 0.017289 0.000000
# 6 0.000000 0.000000 0.000000 0.000000 0.000000 0.057019
#
#
# Mechanical properties :
#
#
# Convention : Reuss Voigt Hill
#
# Bulk Modulus (GPa) = 52.99138 53.05972 53.02555
# Shear Modulus (GPa) = 25.58371 34.42036 30.00204
#
# Velocity S-wave (km/s) = 3.76713 4.36954 4.07947
# Velocity P-wave (km/s) = 6.95096 7.40874 7.18350
#
# Compressibility (1/GPa) = 0.01887099
#
# Stress axis : x y z
#
# Youngs Moduli (GPa) = 54.43968 54.43968 46.57081
#
# Poissons Ratio (x) = 0.28122 0.33773
# Poissons Ratio (y) = 0.28122 0.33773
# Poissons Ratio (z) = 0.39480 0.39480
#
# Static dielectric constant tensor:
#      x y z
#    x 1.610290 0.000000 0.000000 
#    y 0.000000 1.610290 0.000000 
#    z 0.000000 0.000000 1.606620 
# 
# From -- ./inp_files/4393.got.cif
#   From: 2010.05.17/outbox.cif.g08.bks.cpg/sg132_3_cif.got.tgz:4393.got - 2010.05.20 12:30:18.
