data_PCOD9567463
_publ_section_title
;
Structure prediction by ZEFSAII (Michael W. Deem and Ramdas Pophale) SiO2 
 PCOD9567463
Probable space group: P 42/M C M
;
_chemical_formula_sum "Si O2"
_cell_formula_units_Z 70
_cell_length_a 14.573218
_cell_length_b 14.573218
_cell_length_c 17.312141
_cell_angle_alpha 90.000000
_cell_angle_beta 90.000000
_cell_angle_gamma 90.000000
_cell_volume 3676.729703
_symmetry_space_group_name_H-M "P 42/M C M"
_symmetry_group_IT_number 132
_symmetry_cell_setting 'tetragonal'
loop_
_space_group_symop_operation_xyz
x,y,z
-y,x,1/2+z
-x,-y,z
y,-x,1/2+z
x,-y,1/2-z
-x,y,1/2-z
y,x,-z
-y,-x,-z
-x,-y,-z
y,-x,1/2-z
x,y,-z
-y,x,1/2-z
-x,y,1/2+z
x,-y,1/2+z
-y,-x,z
y,x,z
loop_
_atom_site_type_symbol
_atom_site_label
_atom_site_fract_x
_atom_site_fract_y
_atom_site_fract_z
Si Si1 0.179832 0.326180 0.618567
Si Si2 0.097576 0.902425 0.500000
Si Si3 0.000000 0.000000 0.250000
Si Si4 0.937742 0.786082 0.500000
Si Si5 0.891599 0.475339 0.585820
Si Si6 0.123840 0.123840 0.834042
Si Si7 0.672555 0.101075 0.285210
O O1 0.273944 0.273944 0.597662
O O2 0.100474 0.268854 0.573696
O O3 0.165837 0.430911 0.593942
O O4 0.164702 0.321220 0.709983
O O5 0.076472 0.923529 0.409030
O O6 0.046061 0.803756 0.500000
O O7 0.078407 0.078407 0.239443
O O8 0.885839 0.885839 0.500000
O O9 0.876113 0.436069 0.500000
O O10 0.872217 0.406935 0.655599
O O11 0.000000 0.500000 0.590781
O O12 0.105024 0.231332 0.829795
O O13 0.655157 0.000000 0.250000
#
# Coordination Sequence:
#
# PCOD9567463 Si02
#       7
#    16   4   2   8  16   8  16
#     4  11  22  41  64  88 121 166 212 265 321 392
#     4  12  27  36  54  82 120 172 211 264 302 378
#     4  12  28  42  60  92 120 190 232 260 280 378
#     4  10  23  38  60  83 119 167 223 259 304 369
#     4  11  24  38  63  91 122 162 213 270 329 385
#     4  12  28  41  61  84 134 175 226 254 311 373
#     4  12  23  40  59  90 126 169 208 266 318 377
#
# _framework density 19.038658999999999
#
# number of rings (size 3 to 8) (size 9 to 14) (size 15 to 20)
#    0.000    0.686    5.714    2.229    3.200    0.000 
#    0.000    0.000    0.000    0.000    0.000    0.800 
#    0.000    1.829    0.000    0.000    0.000    0.000 
#
# Total GULP energy -390073.236679 kJ/mol
# GULP energy per Si atom -5572.474810 kJ/mol
# Density = 1.899533 g / cm^3
# Si number density = 19.038659 Si / 1000 Ang^3
#
#
#
# Elastic Constant Matrix: (Units=GPa)
#
#
# Indices 1 2 3 4 5 6 
#
# 1 76.6801 65.0836 34.4135 0.0000 0.0000 0.0000
# 2 65.0836 76.6785 34.4120 0.0000 0.0000 0.0000
# 3 34.4135 34.4120 92.7283 0.0000 0.0000 0.0000
# 4 0.0000 0.0000 0.0000 100.9750 0.0000 0.0000
# 5 0.0000 0.0000 0.0000 0.0000 100.9604 0.0000
# 6 0.0000 0.0000 0.0000 0.0000 0.0000 19.8248
#
#
#
# Elastic Compliance Matrix: (Units=1/GPa)
#
#
# Indices 1 2 3 4 5 6 
#
# 1 0.047421 -0.038817 -0.003194 0.000000 0.000000 0.000000
# 2 -0.038817 0.047422 -0.003193 0.000000 0.000000 0.000000
# 3 -0.003194 -0.003193 0.013154 0.000000 0.000000 0.000000
# 4 0.000000 0.000000 0.000000 0.009903 0.000000 0.000000
# 5 0.000000 0.000000 0.000000 0.000000 0.009905 0.000000
# 6 0.000000 0.000000 0.000000 0.000000 0.000000 0.050442
#
#
# Mechanical properties :
#
#
# Convention : Reuss Voigt Hill
#
# Bulk Modulus (GPa) = 56.84993 57.10056 56.97525
# Shear Modulus (GPa) = 18.21378 51.83056 35.02217
#
# Velocity S-wave (km/s) = 3.09637 5.22331 4.29363
# Velocity P-wave (km/s) = 6.53517 8.15072 7.38724
#
# Compressibility (1/GPa) = 0.01759017
#
# Stress axis : x y z
#
# Youngs Moduli (GPa) = 21.08763 21.08745 76.02100
#
# Poissons Ratio (x) = 0.81855 0.24280
# Poissons Ratio (y) = 0.81856 0.24270
# Poissons Ratio (z) = 0.06735 0.06732
#
# Static dielectric constant tensor:
#      x y z
#    x 1.718880 0.000000 0.000000 
#    y 0.000000 1.718890 0.000000 
#    z 0.000000 0.000000 1.735400 
# 
# From -- ./inp_files/6245.got.cif
#   From: 2010.05.17/outbox.cif.g08.bks.cpg/sg132_4_cif.got.tgz:6245.got - 2010.05.20 12:30:18.
