data_PCOD9567330
_publ_section_title
;
Structure prediction by ZEFSAII (Michael W. Deem and Ramdas Pophale) SiO2 
 PCOD9567330
Probable space group: P 42/M C M
;
_chemical_formula_sum "Si O2"
_cell_formula_units_Z 80
_cell_length_a 12.171336
_cell_length_b 12.171336
_cell_length_c 31.491456
_cell_angle_alpha 90.000000
_cell_angle_beta 90.000000
_cell_angle_gamma 90.000000
_cell_volume 4665.189010
_symmetry_space_group_name_H-M "P 42/M C M"
_symmetry_group_IT_number 132
_symmetry_cell_setting 'tetragonal'
loop_
_space_group_symop_operation_xyz
x,y,z
-y,x,1/2+z
-x,-y,z
y,-x,1/2+z
x,-y,1/2-z
-x,y,1/2-z
y,x,-z
-y,-x,-z
-x,-y,-z
y,-x,1/2-z
x,y,-z
-y,x,1/2-z
-x,y,1/2+z
x,-y,1/2+z
-y,-x,z
y,x,z
loop_
_atom_site_type_symbol
_atom_site_label
_atom_site_fract_x
_atom_site_fract_y
_atom_site_fract_z
Si Si1 0.868455 0.314224 0.249234
Si Si2 0.525902 0.174125 0.584995
Si Si3 0.911194 0.088807 0.948425
Si Si4 0.868431 0.500460 0.818554
Si Si5 0.334792 0.023910 0.551011
Si Si6 0.588864 0.411137 0.550743
O O1 0.793416 0.206584 0.249791
O O2 0.843256 0.390667 0.208236
O O3 0.843309 0.394069 0.289221
O O4 0.000000 0.291979 0.250000
O O5 0.507646 0.183310 0.635270
O O6 0.417607 0.121499 0.563589
O O7 0.556411 0.290762 0.566213
O O8 0.620561 0.084942 0.574145
O O9 0.788407 0.055010 0.935919
O O10 0.912129 0.087872 0.000000
O O11 0.000000 0.000000 0.933539
O O12 0.000000 0.500000 0.824981
O O13 0.339014 0.007035 0.500000
O O14 0.500000 0.500000 0.565988
O O15 0.588564 0.411436 0.500000
#
# Coordination Sequence:
#
# PCOD9567330 Si02
#       6
#    16  16   8  16  16   8
#     4   9  19  35  60  84 113 144 178 223 281 349
#     4  11  21  37  60  83 108 152 202 241 283 349
#     4   9  20  36  56  83 114 147 189 244 297 339
#     4   9  18  37  58  83 108 145 186 228 281 333
#     4  10  20  36  59  82 110 150 198 244 290 346
#     4  11  26  40  52  79 120 157 193 246 297 335
#
# _framework density 17.148287
#
# number of rings (size 3 to 8) (size 9 to 14) (size 15 to 20)
#    0.000    2.200    2.000    3.600    4.200    1.000 
#    0.000    0.000    0.000    1.200    0.000    0.000 
#    0.000    0.000    0.000    0.000    0.000    0.000 
#
# Total GULP energy -446315.858540 kJ/mol
# GULP energy per Si atom -5578.948232 kJ/mol
# Density = 1.710926 g / cm^3
# Si number density = 17.148287 Si / 1000 Ang^3
#
#
#
# Elastic Constant Matrix: (Units=GPa)
#
#
# Indices 1 2 3 4 5 6 
#
# 1 130.4579 98.8255 36.4561 0.0000 0.0000 0.0000
# 2 98.8255 130.4580 36.4561 0.0000 0.0000 0.0000
# 3 36.4561 36.4561 95.6933 0.0000 0.0000 0.0000
# 4 0.0000 0.0000 0.0000 -27.2563 0.0000 0.0000
# 5 0.0000 0.0000 0.0000 0.0000 -27.2544 0.0000
# 6 0.0000 0.0000 0.0000 0.0000 0.0000 9.7595
#
#
#
# Elastic Compliance Matrix: (Units=1/GPa)
#
#
# Indices 1 2 3 4 5 6 
#
# 1 0.018288 -0.013325 -0.001891 0.000000 0.000000 0.000000
# 2 -0.013325 0.018288 -0.001891 0.000000 0.000000 0.000000
# 3 -0.001891 -0.001891 0.011891 0.000000 0.000000 0.000000
# 4 0.000000 0.000000 0.000000 -0.036689 0.000000 0.000000
# 5 0.000000 0.000000 0.000000 0.000000 -0.036691 0.000000
# 6 0.000000 0.000000 0.000000 0.000000 0.000000 0.102464
#
#
# Mechanical properties :
#
#
# Convention : Reuss Voigt Hill
#
# Bulk Modulus (GPa) = 70.15863 77.78718 73.97291
# Shear Modulus (GPa) = 42.91331 3.37454 23.14392
#
# Velocity S-wave (km/s) = 5.00791 1.40433 3.67772
# Velocity P-wave (km/s) = 8.62790 6.93466 7.82720
#
# Compressibility (1/GPa) = 0.01425341
#
# Stress axis : x y z
#
# Youngs Moduli (GPa) = 54.68105 54.68110 84.10024
#
# Poissons Ratio (x) = 0.72864 0.15900
# Poissons Ratio (y) = 0.72864 0.15900
# Poissons Ratio (z) = 0.10338 0.10338
#
# Static dielectric constant tensor:
#      x y z
#    x 1.561440 0.000000 0.000000 
#    y 0.000000 1.561440 0.000000 
#    z 0.000000 0.000000 1.594260 
# 
# From -- ./inp_files/10667.got.cif
#   From: 2010.05.17/outbox.cif.g08.bks.cpg/sg132_6_cif.got.tgz:10667.got - 2010.05.20 12:30:18.
