data_PCOD9567830
_publ_section_title
;
Structure prediction by ZEFSAII (Michael W. Deem and Ramdas Pophale) SiO2 
 PCOD9567830
Probable space group: P 42/N B C
;
_chemical_formula_sum "Si O2"
_cell_formula_units_Z 80
_cell_length_a 10.213063
_cell_length_b 10.213063
_cell_length_c 29.498172
_cell_angle_alpha 90.000000
_cell_angle_beta 90.000000
_cell_angle_gamma 90.000000
_cell_volume 3076.855675
_symmetry_space_group_name_H-M "P 42/N B C"
_symmetry_group_IT_number 133
_space_group.IT_coordinate_system_code '2'
_symmetry_cell_setting 'tetragonal'
loop_
_space_group_symop_operation_xyz
x,y,z
1/2-y,x,1/2+z
1/2-x,1/2-y,z
y,1/2-x,1/2+z
x,1/2-y,-z
1/2-x,y,-z
y,x,1/2-z
1/2-y,1/2-x,1/2-z
-x,-y,-z
1/2+y,-x,1/2-z
1/2+x,1/2+y,-z
-y,1/2+x,1/2-z
-x,1/2+y,z
1/2+x,-y,z
-y,-x,1/2+z
1/2+y,1/2+x,1/2+z
loop_
_atom_site_type_symbol
_atom_site_label
_atom_site_fract_x
_atom_site_fract_y
_atom_site_fract_z
Si Si1 0.559199 0.750000 0.500000
Si Si2 0.505382 0.750000 0.000000
Si Si3 0.319794 0.972950 0.591710
Si Si4 0.575415 0.924586 0.250000
Si Si5 0.250000 0.750000 0.161325
Si Si6 0.849825 0.919386 0.097330
Si Si7 0.502967 0.816537 0.699067
O O1 0.630368 0.607969 0.499985
O O2 0.527663 0.760504 0.555129
O O3 0.417729 0.726115 0.956793
O O4 0.273631 0.875926 0.630539
O O5 0.476671 0.971659 0.594813
O O6 0.231164 0.103527 0.592299
O O7 0.566363 0.771753 0.262644
O O8 0.464828 0.962756 0.212148
O O9 0.267664 0.627917 0.192653
O O10 0.804762 0.931523 0.149383
#
# Coordination Sequence:
#
# PCOD9567830 Si02
#       7
#     8   8  16   8   8  16  16
#     4   9  20  40  64  95 134 183 228 279 350 421
#     4   9  20  37  58  90 136 177 228 287 336 404
#     4  10  22  38  63  96 134 182 230 281 345 414
#     4  12  26  48  74 104 138 184 238 296 358 426
#     4  10  22  42  66  96 136 180 226 285 356 429
#     4  10  23  43  70 101 139 184 234 291 353 425
#     4  11  25  46  74 104 143 183 236 295 358 423
#
# _framework density 26.000571999999998
#
# number of rings (size 3 to 8) (size 9 to 14) (size 15 to 20)
#    0.000    1.800    0.000    2.400    0.000   15.200 
#    0.000    8.000    0.000    6.000    0.000    0.000 
#    0.000    0.000    0.000    0.000    0.000    0.000 
#
# Total GULP energy -445522.894028 kJ/mol
# GULP energy per Si atom -5569.036175 kJ/mol
# Density = 2.594139 g / cm^3
# Si number density = 26.000572 Si / 1000 Ang^3
#
#
#
# Elastic Constant Matrix: (Units=GPa)
#
#
# Indices 1 2 3 4 5 6 
#
# 1 88.9008 23.1510 11.8710 0.0000 0.0000 0.0000
# 2 23.1510 88.9000 11.8709 0.0000 0.0000 0.0000
# 3 11.8710 11.8709 90.6400 0.0000 0.0000 0.0000
# 4 0.0000 0.0000 0.0000 14.7877 0.0000 0.0000
# 5 0.0000 0.0000 0.0000 0.0000 14.7877 0.0000
# 6 0.0000 0.0000 0.0000 0.0000 0.0000 5.4027
#
#
#
# Elastic Compliance Matrix: (Units=1/GPa)
#
#
# Indices 1 2 3 4 5 6 
#
# 1 0.012194 -0.003015 -0.001202 0.000000 0.000000 0.000000
# 2 -0.003015 0.012194 -0.001202 0.000000 0.000000 0.000000
# 3 -0.001202 -0.001202 0.011348 0.000000 0.000000 0.000000
# 4 0.000000 0.000000 0.000000 0.067624 0.000000 0.000000
# 5 0.000000 0.000000 0.000000 0.000000 0.067624 0.000000
# 6 0.000000 0.000000 0.000000 0.000000 0.000000 0.185094
#
#
# Mechanical properties :
#
#
# Convention : Reuss Voigt Hill
#
# Bulk Modulus (GPa) = 40.16511 40.24738 40.20625
# Shear Modulus (GPa) = 13.32568 21.76547 17.54558
#
# Velocity S-wave (km/s) = 2.26634 2.89643 2.60054
# Velocity P-wave (km/s) = 4.72543 5.16709 4.95119
#
# Compressibility (1/GPa) = 0.02489723
#
# Stress axis : x y z
#
# Youngs Moduli (GPa) = 82.00632 82.00562 88.12470
#
# Poissons Ratio (x) = 0.24725 0.10594
# Poissons Ratio (y) = 0.24725 0.10594
# Poissons Ratio (z) = 0.09859 0.09859
#
# Static dielectric constant tensor:
#      x y z
#    x 2.075670 0.000000 0.000000 
#    y 0.000000 2.075670 0.000000 
#    z 0.000000 0.000000 2.087590 
# 
# From -- ./inp_files/7925.got.cif
#   From: 2010.05.17/outbox.cif.g08.bks.cpg/sg133_4_cif.got.tgz:7925.got - 2010.05.20 12:37:36.
