data_PCOD9567505
_publ_section_title
;
Structure prediction by ZEFSAII (Michael W. Deem and Ramdas Pophale) SiO2 
 PCOD9567505
Probable space group: P 42/M C M
;
_chemical_formula_sum "Si O2"
_cell_formula_units_Z 112
_cell_length_a 15.537033
_cell_length_b 15.537033
_cell_length_c 24.600599
_cell_angle_alpha 90.000000
_cell_angle_beta 90.000000
_cell_angle_gamma 90.000000
_cell_volume 5938.569702
_symmetry_space_group_name_H-M "P 42/M C M"
_symmetry_group_IT_number 132
_symmetry_cell_setting 'tetragonal'
loop_
_space_group_symop_operation_xyz
x,y,z
-y,x,1/2+z
-x,-y,z
y,-x,1/2+z
x,-y,1/2-z
-x,y,1/2-z
y,x,-z
-y,-x,-z
-x,-y,-z
y,-x,1/2-z
x,y,-z
-y,x,1/2-z
-x,y,1/2+z
x,-y,1/2+z
-y,-x,z
y,x,z
loop_
_atom_site_type_symbol
_atom_site_label
_atom_site_fract_x
_atom_site_fract_y
_atom_site_fract_z
Si Si1 0.766585 0.368588 0.233497
Si Si2 0.584971 0.042049 0.396137
Si Si3 0.676743 0.049695 0.200301
Si Si4 0.463994 0.220325 0.841429
Si Si5 0.644361 0.502507 0.437253
Si Si6 0.229867 0.094940 0.937723
Si Si7 0.003623 0.859636 0.339430
O O1 0.682924 0.317077 0.216926
O O2 0.852129 0.317018 0.218071
O O3 0.761338 0.388339 0.297843
O O4 0.774324 0.453344 0.197268
O O5 0.551798 0.125090 0.363552
O O6 0.668899 0.077605 0.427959
O O7 0.500000 0.000000 0.423693
O O8 0.623801 0.971840 0.354001
O O9 0.771911 0.012576 0.192024
O O10 0.632179 0.000000 0.250000
O O11 0.479308 0.284846 0.891939
O O12 0.677427 0.506490 0.500000
O O13 0.572731 0.427269 0.435852
O O14 0.591272 0.591272 0.426417
O O15 0.191931 0.191931 0.927331
O O16 0.174444 0.034328 0.898283
O O17 0.211648 0.074900 0.000000
O O18 0.920162 0.920162 0.342331
O O19 0.080834 0.919167 0.316787
#
# Coordination Sequence:
#
# PCOD9567505 Si02
#       7
#    16  16  16  16  16  16  16
#     4  11  23  36  57  87 118 156 196 237 291 353
#     4  11  22  38  60  83 115 159 198 245 292 354
#     4  11  21  37  57  80 114 152 194 235 286 345
#     4  11  22  37  58  86 120 152 198 242 292 350
#     4   9  19  38  63  88 116 153 195 242 300 361
#     4   9  20  38  59  86 118 151 193 247 301 351
#     4   9  19  35  56  84 115 150 193 239 290 349
#
# _framework density 18.859760999999999
#
# number of rings (size 3 to 8) (size 9 to 14) (size 15 to 20)
#    0.000    1.857    2.857    1.714    0.000    3.714 
#    0.000    3.571    0.000    3.429    0.000    0.000 
#    0.000    0.000    0.000    0.000    0.000    0.000 
#
# Total GULP energy -624079.435770 kJ/mol
# GULP energy per Si atom -5572.137819 kJ/mol
# Density = 1.881684 g / cm^3
# Si number density = 18.859761 Si / 1000 Ang^3
#
#
#
# Elastic Constant Matrix: (Units=GPa)
#
#
# Indices 1 2 3 4 5 6 
#
# 1 54.3570 13.3304 24.7528 0.0000 0.0000 0.0000
# 2 13.3304 54.3570 24.7528 0.0000 0.0000 0.0000
# 3 24.7528 24.7528 97.4869 0.0000 0.0000 0.0000
# 4 0.0000 0.0000 0.0000 5.1932 0.0000 0.0000
# 5 0.0000 0.0000 0.0000 0.0000 5.1932 0.0000
# 6 0.0000 0.0000 0.0000 0.0000 0.0000 23.9054
#
#
#
# Elastic Compliance Matrix: (Units=1/GPa)
#
#
# Indices 1 2 3 4 5 6 
#
# 1 0.021259 -0.003116 -0.004607 0.000000 0.000000 0.000000
# 2 -0.003116 0.021259 -0.004607 0.000000 0.000000 0.000000
# 3 -0.004607 -0.004607 0.012597 0.000000 0.000000 0.000000
# 4 0.000000 0.000000 0.000000 0.192561 0.000000 0.000000
# 5 0.000000 0.000000 0.000000 0.000000 0.192561 0.000000
# 6 0.000000 0.000000 0.000000 0.000000 0.000000 0.041832
#
#
# Mechanical properties :
#
#
# Convention : Reuss Voigt Hill
#
# Bulk Modulus (GPa) = 32.83370 36.87479 34.85425
# Shear Modulus (GPa) = 9.67346 16.41600 13.04473
#
# Velocity S-wave (km/s) = 2.26722 2.95350 2.63282
# Velocity P-wave (km/s) = 4.92959 5.58797 5.26908
#
# Compressibility (1/GPa) = 0.03045651
#
# Stress axis : x y z
#
# Youngs Moduli (GPa) = 47.03947 47.03947 79.38305
#
# Poissons Ratio (x) = 0.14656 0.36569
# Poissons Ratio (y) = 0.14656 0.36569
# Poissons Ratio (z) = 0.21670 0.21670
#
# Static dielectric constant tensor:
#      x y z
#    x 1.671940 0.000000 0.000000 
#    y 0.000000 1.671940 0.000000 
#    z 0.000000 0.000000 1.633750 
# 
# From -- ./inp_files/9106.got.cif
#   From: 2010.05.17/outbox.cif.g08.bks.cpg/sg132_5_cif.got.tgz:9106.got - 2010.05.20 12:30:18.
