data_PCOD9567239
_publ_section_title
;
Structure prediction by ZEFSAII (Michael W. Deem and Ramdas Pophale) SiO2 
 PCOD9567239
Probable space group: P 42/M C M
;
_chemical_formula_sum "Si O2"
_cell_formula_units_Z 104
_cell_length_a 19.139211
_cell_length_b 19.139211
_cell_length_c 17.647265
_cell_angle_alpha 90.000000
_cell_angle_beta 90.000000
_cell_angle_gamma 90.000000
_cell_volume 6464.359013
_symmetry_space_group_name_H-M "P 42/M C M"
_symmetry_group_IT_number 132
_symmetry_cell_setting 'tetragonal'
loop_
_space_group_symop_operation_xyz
x,y,z
-y,x,1/2+z
-x,-y,z
y,-x,1/2+z
x,-y,1/2-z
-x,y,1/2-z
y,x,-z
-y,-x,-z
-x,-y,-z
y,-x,1/2-z
x,y,-z
-y,x,1/2-z
-x,y,1/2+z
x,-y,1/2+z
-y,-x,z
y,x,z
loop_
_atom_site_type_symbol
_atom_site_label
_atom_site_fract_x
_atom_site_fract_y
_atom_site_fract_z
Si Si1 0.498086 0.384060 0.500000
Si Si2 0.611684 0.721186 0.262065
Si Si3 0.733391 0.506547 0.876188
Si Si4 0.110048 0.487004 0.085225
Si Si5 0.347562 0.084073 0.410530
Si Si6 0.641535 0.951430 0.821911
Si Si7 0.725033 0.839602 0.271427
O O1 0.425155 0.425155 0.500000
O O2 0.558598 0.441403 0.500000
O O3 0.505557 0.333269 0.429030
O O4 0.645916 0.645916 0.271144
O O5 0.567765 0.740194 0.335580
O O6 0.562376 0.723093 0.189840
O O7 0.671579 0.777675 0.252733
O O8 0.806431 0.520555 0.916388
O O9 0.094004 0.568430 0.104677
O O10 0.083497 0.429077 0.144837
O O11 0.081898 0.473684 0.000000
O O12 0.336799 0.097866 0.500000
O O13 0.299900 0.130547 0.353750
O O14 0.332046 0.004110 0.386918
O O15 0.701526 0.899177 0.789608
O O16 0.622570 0.000000 0.750000
O O17 0.801911 0.801911 0.270664
#
# Coordination Sequence:
#
# PCOD9567239 Si02
#       7
#     8  16  16  16  16  16  16
#     4  11  24  40  54  72  97 134 190 252 303 330
#     4  10  20  33  50  70  94 126 171 222 270 319
#     4  11  20  34  53  71  96 130 175 225 281 329
#     4  11  20  33  50  77 107 138 173 219 265 328
#     4  10  21  35  52  78 109 141 177 215 263 317
#     4  10  21  34  54  77 107 143 176 215 258 316
#     4  10  20  34  52  77 105 139 176 212 253 307
#
# _framework density 16.088215000000002
#
# number of rings (size 3 to 8) (size 9 to 14) (size 15 to 20)
#    0.000    1.615    3.846    1.846    0.000    5.846 
#    0.000    0.000    0.000    5.077    0.000    0.000 
#    0.000   24.923    0.000   12.462    0.000    0.000 
#
# Total GULP energy -579381.363802 kJ/mol
# GULP energy per Si atom -5570.974652 kJ/mol
# Density = 1.605160 g / cm^3
# Si number density = 16.088215 Si / 1000 Ang^3
#
#
#
# Elastic Constant Matrix: (Units=GPa)
#
#
# Indices 1 2 3 4 5 6 
#
# 1 83.8680 33.4844 27.8958 0.0000 0.0000 0.0000
# 2 33.4844 83.8677 27.8956 0.0000 0.0000 0.0000
# 3 27.8958 27.8956 54.2485 0.0000 0.0000 0.0000
# 4 0.0000 0.0000 0.0000 36.8551 0.0000 0.0000
# 5 0.0000 0.0000 0.0000 0.0000 36.8497 0.0000
# 6 0.0000 0.0000 0.0000 0.0000 0.0000 23.7994
#
#
#
# Elastic Compliance Matrix: (Units=1/GPa)
#
#
# Indices 1 2 3 4 5 6 
#
# 1 0.015563 -0.004285 -0.005800 0.000000 0.000000 0.000000
# 2 -0.004285 0.015563 -0.005800 0.000000 0.000000 0.000000
# 3 -0.005800 -0.005800 0.024398 0.000000 0.000000 0.000000
# 4 0.000000 0.000000 0.000000 0.027133 0.000000 0.000000
# 5 0.000000 0.000000 0.000000 0.000000 0.027137 0.000000
# 6 0.000000 0.000000 0.000000 0.000000 0.000000 0.042018
#
#
# Mechanical properties :
#
#
# Convention : Reuss Voigt Hill
#
# Bulk Modulus (GPa) = 42.09324 44.50400 43.29862
# Shear Modulus (GPa) = 26.10963 28.34806 27.22885
#
# Velocity S-wave (km/s) = 4.03290 4.20222 4.11843
# Velocity P-wave (km/s) = 6.92145 7.16013 7.04180
#
# Compressibility (1/GPa) = 0.02375678
#
# Stress axis : x y z
#
# Youngs Moduli (GPa) = 64.25406 64.25402 40.98636
#
# Poissons Ratio (x) = 0.27530 0.23771
# Poissons Ratio (y) = 0.27530 0.23771
# Poissons Ratio (z) = 0.37266 0.37265
#
# Static dielectric constant tensor:
#      x y z
#    x 1.553190 0.000000 0.000000 
#    y 0.000000 1.553180 0.000000 
#    z 0.000000 0.000000 1.564530 
# 
# From -- ./inp_files/6563.got.cif
#   From: 2010.05.17/outbox.cif.g08.bks.cpg/sg132_4_cif.got.tgz:6563.got - 2010.05.20 12:30:18.
