data_PCOD9567938
_publ_section_title
;
Structure prediction by ZEFSAII (Michael W. Deem and Ramdas Pophale) SiO2 
 PCOD9567938
Probable space group: P 42/N B C
;
_chemical_formula_sum "Si O2"
_cell_formula_units_Z 56
_cell_length_a 16.345474
_cell_length_b 16.345474
_cell_length_c 10.159104
_cell_angle_alpha 90.000000
_cell_angle_beta 90.000000
_cell_angle_gamma 90.000000
_cell_volume 2714.253738
_symmetry_space_group_name_H-M "P 42/N B C"
_symmetry_group_IT_number 133
_space_group.IT_coordinate_system_code '2'
_symmetry_cell_setting 'tetragonal'
loop_
_space_group_symop_operation_xyz
x,y,z
1/2-y,x,1/2+z
1/2-x,1/2-y,z
y,1/2-x,1/2+z
x,1/2-y,-z
1/2-x,y,-z
y,x,1/2-z
1/2-y,1/2-x,1/2-z
-x,-y,-z
1/2+y,-x,1/2-z
1/2+x,1/2+y,-z
-y,1/2+x,1/2-z
-x,1/2+y,z
1/2+x,-y,z
-y,-x,1/2+z
1/2+y,1/2+x,1/2+z
loop_
_atom_site_type_symbol
_atom_site_label
_atom_site_fract_x
_atom_site_fract_y
_atom_site_fract_z
Si Si1 0.169286 0.578998 0.196644
Si Si2 0.250000 0.750000 0.250000
Si Si3 0.250000 0.250000 0.750000
Si Si4 0.931235 0.777855 0.648143
Si Si5 0.467057 0.580534 0.572530
O O1 0.217675 0.664723 0.188056
O O2 0.229984 0.502528 0.225654
O O3 0.101322 0.574802 0.312807
O O4 0.130821 0.567713 0.052128
O O5 0.253838 0.161042 0.817833
O O6 0.941429 0.750000 0.500000
O O7 0.956991 0.872104 0.639549
O O8 0.500000 0.500000 0.500000
#
# Coordination Sequence:
#
# PCOD9567938 Si02
#       5
#    16   4   4  16  16
#     4  11  25  45  71 106 144 188 233 301 357 435
#     4  12  24  46  72 110 152 178 236 290 372 430
#     4  12  26  44  76  90 140 188 250 288 362 420
#     4  10  25  46  64 103 138 182 239 296 354 423
#     4  11  25  45  74 100 147 188 244 293 362 433
#
# _framework density 20.631820999999999
#
# number of rings (size 3 to 8) (size 9 to 14) (size 15 to 20)
#    0.000    1.143    2.857    1.286   12.000    2.286 
#    0.000    0.000    0.000    0.000    0.000    0.000 
#    0.000    0.000    0.000    0.000    0.000    0.000 
#
# Total GULP energy -311772.794932 kJ/mol
# GULP energy per Si atom -5567.371338 kJ/mol
# Density = 2.058486 g / cm^3
# Si number density = 20.631821 Si / 1000 Ang^3
#
#
#
# Elastic Constant Matrix: (Units=GPa)
#
#
# Indices 1 2 3 4 5 6 
#
# 1 166.1836 89.5628 56.4312 0.0000 0.0000 0.0000
# 2 89.5628 166.1836 56.4312 0.0000 0.0000 0.0000
# 3 56.4312 56.4312 105.9163 0.0000 0.0000 0.0000
# 4 0.0000 0.0000 0.0000 1.2856 0.0000 0.0000
# 5 0.0000 0.0000 0.0000 0.0000 1.2856 0.0000
# 6 0.0000 0.0000 0.0000 0.0000 0.0000 35.0361
#
#
#
# Elastic Compliance Matrix: (Units=1/GPa)
#
#
# Indices 1 2 3 4 5 6 
#
# 1 0.009082 -0.003970 -0.002724 0.000000 0.000000 0.000000
# 2 -0.003970 0.009082 -0.002724 0.000000 0.000000 0.000000
# 3 -0.002724 -0.002724 0.012344 0.000000 0.000000 0.000000
# 4 0.000000 0.000000 0.000000 0.777839 0.000000 0.000000
# 5 0.000000 0.000000 0.000000 0.000000 0.777839 0.000000
# 6 0.000000 0.000000 0.000000 0.000000 0.000000 0.028542
#
#
# Mechanical properties :
#
#
# Convention : Reuss Voigt Hill
#
# Bulk Modulus (GPa) = 85.66628 93.68155 89.67391
# Shear Modulus (GPa) = 3.05353 23.24535 13.14944
#
# Velocity S-wave (km/s) = 1.21788 3.36024 2.52729
# Velocity P-wave (km/s) = 6.60221 7.78202 7.21627
#
# Compressibility (1/GPa) = 0.01167320
#
# Stress axis : x y z
#
# Youngs Moduli (GPa) = 110.11164 110.11164 81.01289
#
# Poissons Ratio (x) = 0.43710 0.22065
# Poissons Ratio (y) = 0.43710 0.22065
# Poissons Ratio (z) = 0.29991 0.29991
#
# Static dielectric constant tensor:
#      x y z
#    x 1.782210 0.000000 0.000000 
#    y 0.000000 1.782210 0.000000 
#    z 0.000000 0.000000 1.711330 
# 
# From -- ./inp_files/2809.got.cif
#   From: 2010.05.17/outbox.cif.g08.bks.cpg/sg133_2_cif.got.tgz:2809.got - 2010.05.20 12:37:36.
