data_PCOD9567355
_publ_section_title
;
Structure prediction by ZEFSAII (Michael W. Deem and Ramdas Pophale) SiO2 
 PCOD9567355
Probable space group: P 42/M C M
;
_chemical_formula_sum "Si O2"
_cell_formula_units_Z 112
_cell_length_a 16.352869
_cell_length_b 16.352869
_cell_length_c 23.376462
_cell_angle_alpha 90.000000
_cell_angle_beta 90.000000
_cell_angle_gamma 90.000000
_cell_volume 6251.247549
_symmetry_space_group_name_H-M "P 42/M C M"
_symmetry_group_IT_number 132
_symmetry_cell_setting 'tetragonal'
loop_
_space_group_symop_operation_xyz
x,y,z
-y,x,1/2+z
-x,-y,z
y,-x,1/2+z
x,-y,1/2-z
-x,y,1/2-z
y,x,-z
-y,-x,-z
-x,-y,-z
y,-x,1/2-z
x,y,-z
-y,x,1/2-z
-x,y,1/2+z
x,-y,1/2+z
-y,-x,z
y,x,z
loop_
_atom_site_type_symbol
_atom_site_label
_atom_site_fract_x
_atom_site_fract_y
_atom_site_fract_z
Si Si1 0.094280 0.227366 0.377330
Si Si2 0.679691 0.182883 0.658112
Si Si3 0.485793 0.188851 0.347997
Si Si4 0.080329 0.785009 0.566752
Si Si5 0.780613 0.346841 0.066618
Si Si6 0.910289 0.643849 0.725932
Si Si7 0.502438 0.374228 0.317975
O O1 0.148041 0.148041 0.362043
O O2 0.148556 0.281487 0.420624
O O3 0.081985 0.286061 0.322449
O O4 0.009810 0.205914 0.407695
O O5 0.730467 0.269534 0.659126
O O6 0.582562 0.177026 0.644074
O O7 0.724839 0.128654 0.609975
O O8 0.679545 0.144559 0.722144
O O9 0.430375 0.190853 0.404416
O O10 0.436029 0.131568 0.303414
O O11 0.482442 0.281781 0.327742
O O12 0.079022 0.757406 0.500000
O O13 0.130418 0.869583 0.568071
O O14 0.698023 0.301978 0.090197
O O15 0.768865 0.359172 0.000000
O O16 0.000000 0.623781 0.750000
O O17 0.500000 0.383323 0.250000
O O18 0.589669 0.410332 0.337823
O O19 0.433723 0.433723 0.343015
#
# Coordination Sequence:
#
# PCOD9567355 Si02
#       7
#    16  16  16  16  16  16  16
#     4  10  20  38  65  90 113 147 189 235 291 354
#     4  11  23  39  58  82 117 160 197 239 290 346
#     4  11  22  33  56  85 111 153 198 238 284 349
#     4  10  22  40  60  84 115 151 193 241 289 340
#     4   9  19  36  57  84 117 150 191 246 298 342
#     4  11  22  40  60  86 122 154 189 238 293 353
#     4   9  17  30  49  76 111 144 181 236 290 336
#
# _framework density 17.916423999999999
#
# number of rings (size 3 to 8) (size 9 to 14) (size 15 to 20)
#    0.000    1.857    1.429    3.429    0.000    5.714 
#    0.000    0.714    0.000    3.857    0.000    5.000 
#    0.000    0.000    0.000    0.000    0.000    0.000 
#
# Total GULP energy -623767.843359 kJ/mol
# GULP energy per Si atom -5569.355744 kJ/mol
# Density = 1.787564 g / cm^3
# Si number density = 17.916424 Si / 1000 Ang^3
#
#
#
# Elastic Constant Matrix: (Units=GPa)
#
#
# Indices 1 2 3 4 5 6 
#
# 1 139.0566 56.4536 48.8477 0.0000 0.0000 0.0000
# 2 56.4536 139.0566 48.8477 0.0000 0.0000 0.0000
# 3 48.8477 48.8477 84.9677 0.0000 0.0000 0.0000
# 4 0.0000 0.0000 0.0000 19.8701 0.0000 0.0000
# 5 0.0000 0.0000 0.0000 0.0000 19.8701 0.0000
# 6 0.0000 0.0000 0.0000 0.0000 0.0000 19.3097
#
#
#
# Elastic Compliance Matrix: (Units=1/GPa)
#
#
# Indices 1 2 3 4 5 6 
#
# 1 0.009641 -0.002465 -0.004126 0.000000 0.000000 0.000000
# 2 -0.002465 0.009641 -0.004126 0.000000 0.000000 0.000000
# 3 -0.004126 -0.004126 0.016513 0.000000 0.000000 0.000000
# 4 0.000000 0.000000 0.000000 0.050327 0.000000 0.000000
# 5 0.000000 0.000000 0.000000 0.000000 0.050327 0.000000
# 6 0.000000 0.000000 0.000000 0.000000 0.000000 0.051787
#
#
# Mechanical properties :
#
#
# Convention : Reuss Voigt Hill
#
# Bulk Modulus (GPa) = 69.62375 74.59763 72.11069
# Shear Modulus (GPa) = 23.31471 25.73876 24.52673
#
# Velocity S-wave (km/s) = 3.61127 3.79436 3.70395
# Velocity P-wave (km/s) = 7.50553 7.80533 7.65690
#
# Compressibility (1/GPa) = 0.01436291
#
# Stress axis : x y z
#
# Youngs Moduli (GPa) = 103.72096 103.72096 60.55879
#
# Poissons Ratio (x) = 0.25566 0.24985
# Poissons Ratio (y) = 0.25566 0.24985
# Poissons Ratio (z) = 0.42792 0.42792
#
# Static dielectric constant tensor:
#      x y z
#    x 1.636350 0.000000 0.000000 
#    y 0.000000 1.636350 0.000000 
#    z 0.000000 0.000000 1.653900 
# 
# From -- ./inp_files/9162.got.cif
#   From: 2010.05.17/outbox.cif.g08.bks.cpg/sg132_5_cif.got.tgz:9162.got - 2010.05.20 12:30:18.
