data_PCOD9567692
_publ_section_title
;
Structure prediction by ZEFSAII (Michael W. Deem and Ramdas Pophale) SiO2 
 PCOD9567692
Probable space group: P 42/N B C
;
_chemical_formula_sum "Si O2"
_cell_formula_units_Z 64
_cell_length_a 12.518760
_cell_length_b 12.518760
_cell_length_c 21.863552
_cell_angle_alpha 90.000000
_cell_angle_beta 90.000000
_cell_angle_gamma 90.000000
_cell_volume 3426.441700
_symmetry_space_group_name_H-M "P 42/N B C"
_symmetry_group_IT_number 133
_space_group.IT_coordinate_system_code '2'
_symmetry_cell_setting 'tetragonal'
loop_
_space_group_symop_operation_xyz
x,y,z
1/2-y,x,1/2+z
1/2-x,1/2-y,z
y,1/2-x,1/2+z
x,1/2-y,-z
1/2-x,y,-z
y,x,1/2-z
1/2-y,1/2-x,1/2-z
-x,-y,-z
1/2+y,-x,1/2-z
1/2+x,1/2+y,-z
-y,1/2+x,1/2-z
-x,1/2+y,z
1/2+x,-y,z
-y,-x,1/2+z
1/2+y,1/2+x,1/2+z
loop_
_atom_site_type_symbol
_atom_site_label
_atom_site_fract_x
_atom_site_fract_y
_atom_site_fract_z
Si Si1 0.876537 0.625048 0.997799
Si Si2 0.480892 0.979453 0.398966
Si Si3 0.976382 0.117416 0.713600
Si Si4 0.364007 0.688187 0.674207
O O1 0.925397 0.573801 0.936648
O O2 0.902260 0.750000 0.000000
O O3 0.750000 0.611376 0.000000
O O4 0.927387 0.565837 0.055824
O O5 0.390430 0.893953 0.379806
O O6 0.534590 0.024825 0.337055
O O7 0.882576 0.128253 0.763962
O O8 0.961546 0.227813 0.678012
O O9 0.083923 0.083923 0.750000
O O10 0.250000 0.750000 0.668659
#
# Coordination Sequence:
#
# PCOD9567692 Si02
#       4
#    16  16  16  16
#     4  10  22  42  60  83 123 161 204 252 299 355
#     4  10  23  37  62  89 118 162 205 246 304 360
#     4  10  20  34  57  86 121 154 193 246 306 359
#     4  11  20  37  60  89 123 156 198 254 303 365
#
# _framework density 18.678270000000001
#
# number of rings (size 3 to 8) (size 9 to 14) (size 15 to 20)
#    0.000    1.750    2.500    1.500    3.500    0.000 
#    0.000    0.000    0.000    5.250    0.000    0.000 
#    0.000    0.000    0.000    0.000    0.000    0.000 
#
# Total GULP energy -356659.499147 kJ/mol
# GULP energy per Si atom -5572.804674 kJ/mol
# Density = 1.863576 g / cm^3
# Si number density = 18.678270 Si / 1000 Ang^3
#
#
#
# Elastic Constant Matrix: (Units=GPa)
#
#
# Indices 1 2 3 4 5 6 
#
# 1 80.0374 61.2841 43.5140 0.0000 0.0000 0.0000
# 2 61.2841 80.0374 43.5140 0.0000 0.0000 0.0000
# 3 43.5140 43.5140 91.6405 0.0000 0.0000 0.0000
# 4 0.0000 0.0000 0.0000 16.2944 0.0000 0.0000
# 5 0.0000 0.0000 0.0000 0.0000 16.2944 0.0000
# 6 0.0000 0.0000 0.0000 0.0000 0.0000 29.6588
#
#
#
# Elastic Compliance Matrix: (Units=1/GPa)
#
#
# Indices 1 2 3 4 5 6 
#
# 1 0.031662 -0.021662 -0.004748 0.000000 0.000000 0.000000
# 2 -0.021662 0.031662 -0.004748 0.000000 0.000000 0.000000
# 3 -0.004748 -0.004748 0.015422 0.000000 0.000000 0.000000
# 4 0.000000 0.000000 0.000000 0.061371 0.000000 0.000000
# 5 0.000000 0.000000 0.000000 0.000000 0.061371 0.000000
# 6 0.000000 0.000000 0.000000 0.000000 0.000000 0.033717
#
#
# Mechanical properties :
#
#
# Convention : Reuss Voigt Hill
#
# Bulk Modulus (GPa) = 60.87050 60.92663 60.89856
# Shear Modulus (GPa) = 16.50173 19.34305 17.92239
#
# Velocity S-wave (km/s) = 2.97555 3.22155 3.10099
# Velocity P-wave (km/s) = 6.66820 6.82112 6.74509
#
# Compressibility (1/GPa) = 0.01642832
#
# Stress axis : x y z
#
# Youngs Moduli (GPa) = 31.58338 31.58338 64.84389
#
# Poissons Ratio (x) = 0.68416 0.30791
# Poissons Ratio (y) = 0.68416 0.30791
# Poissons Ratio (z) = 0.14997 0.14997
#
# Static dielectric constant tensor:
#      x y z
#    x 1.655760 0.000000 0.000000 
#    y 0.000000 1.655760 0.000000 
#    z 0.000000 0.000000 1.669700 
# 
# From -- ./inp_files/6129.got.cif
#   From: 2010.05.17/outbox.cif.g08.bks.cpg/sg133_4_cif.got.tgz:6129.got - 2010.05.20 12:37:36.
