data_PCOD9567590
_publ_section_title
;
Structure prediction by ZEFSAII (Michael W. Deem and Ramdas Pophale) SiO2 
 PCOD9567590
Probable space group: P 42/N B C
;
_chemical_formula_sum "Si O2"
_cell_formula_units_Z 96
_cell_length_a 20.409689
_cell_length_b 20.409689
_cell_length_c 12.215545
_cell_angle_alpha 90.000000
_cell_angle_beta 90.000000
_cell_angle_gamma 90.000000
_cell_volume 5088.451296
_symmetry_space_group_name_H-M "P 42/N B C"
_symmetry_group_IT_number 133
_space_group.IT_coordinate_system_code '2'
_symmetry_cell_setting 'tetragonal'
loop_
_space_group_symop_operation_xyz
x,y,z
1/2-y,x,1/2+z
1/2-x,1/2-y,z
y,1/2-x,1/2+z
x,1/2-y,-z
1/2-x,y,-z
y,x,1/2-z
1/2-y,1/2-x,1/2-z
-x,-y,-z
1/2+y,-x,1/2-z
1/2+x,1/2+y,-z
-y,1/2+x,1/2-z
-x,1/2+y,z
1/2+x,-y,z
-y,-x,1/2+z
1/2+y,1/2+x,1/2+z
loop_
_atom_site_type_symbol
_atom_site_label
_atom_site_fract_x
_atom_site_fract_y
_atom_site_fract_z
Si Si1 0.997904 0.084640 0.119259
Si Si2 0.989067 0.874226 0.631141
Si Si3 0.132489 0.578319 0.418261
Si Si4 0.234422 0.852848 0.721089
Si Si5 0.986304 0.891427 0.291470
Si Si6 0.973072 0.259448 0.384083
O O1 0.007626 0.116230 0.237831
O O2 0.068746 0.056978 0.083719
O O3 0.951607 0.022239 0.146740
O O4 0.961312 0.130737 0.032164
O O5 0.062862 0.884727 0.587144
O O6 0.973863 0.798495 0.615849
O O7 0.193657 0.624812 0.386624
O O8 0.125993 0.527754 0.317189
O O9 0.302931 0.813832 0.712308
O O10 0.247331 0.918316 0.790554
O O11 0.916720 0.916720 0.250000
O O12 0.992209 0.828684 0.367594
O O13 0.937973 0.250000 0.500000
#
# Coordination Sequence:
#
# PCOD9567590 Si02
#       6
#    16  16  16  16  16  16
#     4  10  19  34  60  80 106 147 196 244 300 337
#     4  10  19  35  53  84 112 136 189 245 291 354
#     4  10  18  32  56  74 103 146 197 247 289 333
#     4  10  21  38  50  70 112 161 209 245 280 353
#     4  10  20  33  52  84 111 142 189 248 289 357
#     4  11  23  36  56  80 118 152 193 247 301 349
#
# _framework density 18.866250000000001
#
# number of rings (size 3 to 8) (size 9 to 14) (size 15 to 20)
#    0.000    1.833    5.000    1.500    2.333    0.000 
#    0.000    6.667    0.000    0.000    0.000    2.333 
#    0.000    5.333    0.000    0.000    0.000    0.000 
#
# Total GULP energy -535322.401223 kJ/mol
# GULP energy per Si atom -5576.275013 kJ/mol
# Density = 1.882331 g / cm^3
# Si number density = 18.866250 Si / 1000 Ang^3
#
#
#
# Elastic Constant Matrix: (Units=GPa)
#
#
# Indices 1 2 3 4 5 6 
#
# 1 71.0342 23.6818 9.3893 0.0000 0.0000 0.0000
# 2 23.6818 71.0342 9.3893 0.0000 0.0000 0.0000
# 3 9.3893 9.3893 61.7654 0.0000 0.0000 0.0000
# 4 0.0000 0.0000 0.0000 21.2817 0.0000 0.0000
# 5 0.0000 0.0000 0.0000 0.0000 21.2817 0.0000
# 6 0.0000 0.0000 0.0000 0.0000 0.0000 20.6710
#
#
#
# Elastic Compliance Matrix: (Units=1/GPa)
#
#
# Indices 1 2 3 4 5 6 
#
# 1 0.016002 -0.005116 -0.001655 0.000000 0.000000 0.000000
# 2 -0.005116 0.016002 -0.001655 0.000000 0.000000 0.000000
# 3 -0.001655 -0.001655 0.016693 0.000000 0.000000 0.000000
# 4 0.000000 0.000000 0.000000 0.046989 0.000000 0.000000
# 5 0.000000 0.000000 0.000000 0.000000 0.046989 0.000000
# 6 0.000000 0.000000 0.000000 0.000000 0.000000 0.048377
#
#
# Mechanical properties :
#
#
# Convention : Reuss Voigt Hill
#
# Bulk Modulus (GPa) = 31.40111 32.08384 31.74247
# Shear Modulus (GPa) = 22.88130 23.40510 23.14320
#
# Velocity S-wave (km/s) = 3.48633 3.52601 3.50623
# Velocity P-wave (km/s) = 5.73465 5.79826 5.76654
#
# Compressibility (1/GPa) = 0.03184601
#
# Stress axis : x y z
#
# Youngs Moduli (GPa) = 62.49179 62.49179 59.90389
#
# Poissons Ratio (x) = 0.31972 0.09913
# Poissons Ratio (y) = 0.31972 0.09913
# Poissons Ratio (z) = 0.10341 0.10341
#
# Static dielectric constant tensor:
#      x y z
#    x 1.685170 0.000000 0.000000 
#    y 0.000000 1.685170 0.000000 
#    z 0.000000 0.000000 1.734710 
# 
# From -- ./inp_files/3361.got.cif
#   From: 2010.05.17/outbox.cif.g08.bks.cpg/sg133_2_cif.got.tgz:3361.got - 2010.05.20 12:37:36.
