data_PCOD9567586
_publ_section_title
;
Structure prediction by ZEFSAII (Michael W. Deem and Ramdas Pophale) SiO2 
 PCOD9567586
Probable space group: P 42/N B C
;
_chemical_formula_sum "Si O2"
_cell_formula_units_Z 96
_cell_length_a 25.198086
_cell_length_b 25.198086
_cell_length_c 9.343787
_cell_angle_alpha 90.000000
_cell_angle_beta 90.000000
_cell_angle_gamma 90.000000
_cell_volume 5932.777177
_symmetry_space_group_name_H-M "P 42/N B C"
_symmetry_group_IT_number 133
_space_group.IT_coordinate_system_code '2'
_symmetry_cell_setting 'tetragonal'
loop_
_space_group_symop_operation_xyz
x,y,z
1/2-y,x,1/2+z
1/2-x,1/2-y,z
y,1/2-x,1/2+z
x,1/2-y,-z
1/2-x,y,-z
y,x,1/2-z
1/2-y,1/2-x,1/2-z
-x,-y,-z
1/2+y,-x,1/2-z
1/2+x,1/2+y,-z
-y,1/2+x,1/2-z
-x,1/2+y,z
1/2+x,-y,z
-y,-x,1/2+z
1/2+y,1/2+x,1/2+z
loop_
_atom_site_type_symbol
_atom_site_label
_atom_site_fract_x
_atom_site_fract_y
_atom_site_fract_z
Si Si1 0.189864 0.098666 0.527943
Si Si2 0.499040 0.923725 0.671227
Si Si3 0.805466 0.885824 0.954782
Si Si4 0.807102 0.531176 0.271272
Si Si5 0.579997 0.997088 0.173559
Si Si6 0.468244 0.191001 0.299265
O O1 0.250000 0.117055 0.500000
O O2 0.148791 0.143667 0.486348
O O3 0.183585 0.044283 0.437005
O O4 0.183309 0.080567 0.690119
O O5 0.550611 0.949390 0.750000
O O6 0.502359 0.930815 0.497961
O O7 0.451025 0.955990 0.744265
O O8 0.496235 0.861255 0.703806
O O9 0.804833 0.909095 0.795903
O O10 0.750000 0.859082 0.000000
O O11 0.807329 0.939845 0.047632
O O12 0.857500 0.501832 0.205680
O O13 0.748727 0.507976 0.239109
O O14 0.555657 0.944344 0.250000
#
# Coordination Sequence:
#
# PCOD9567586 Si02
#       6
#    16  16  16  16  16  16
#     4  10  20  31  45  67  91 125 166 208 250 286
#     4  11  22  34  52  75 103 130 163 205 251 303
#     4  10  18  31  47  65  89 123 166 206 250 290
#     4  10  21  34  50  69  94 129 166 204 247 297
#     4  11  22  34  52  75 103 130 163 205 251 303
#     4  10  21  34  50  69  94 129 166 204 247 297
#
# _framework density 16.181293
#
# number of rings (size 3 to 8) (size 9 to 14) (size 15 to 20)
#    0.000    1.667    1.667    5.000    4.667    0.333 
#    0.000    0.000    0.000    6.000    0.000    0.000 
#    0.000    0.667    0.000    3.000    0.000    0.000 
#
# Total GULP energy -535139.007738 kJ/mol
# GULP energy per Si atom -5574.364664 kJ/mol
# Density = 1.614446 g / cm^3
# Si number density = 16.181293 Si / 1000 Ang^3
#
#
#
# Elastic Constant Matrix: (Units=GPa)
#
#
# Indices 1 2 3 4 5 6 
#
# 1 81.5341 31.8403 22.2080 0.0000 0.0000 0.0000
# 2 31.8403 81.5370 22.2079 0.0000 0.0000 0.0000
# 3 22.2080 22.2079 65.0635 0.0000 0.0000 0.0000
# 4 0.0000 0.0000 0.0000 17.7675 0.0000 0.0000
# 5 0.0000 0.0000 0.0000 0.0000 17.7672 0.0000
# 6 0.0000 0.0000 0.0000 0.0000 0.0000 20.0100
#
#
#
# Elastic Compliance Matrix: (Units=1/GPa)
#
#
# Indices 1 2 3 4 5 6 
#
# 1 0.015152 -0.004970 -0.003475 0.000000 0.000000 0.000000
# 2 -0.004970 0.015152 -0.003475 0.000000 0.000000 0.000000
# 3 -0.003475 -0.003475 0.017742 0.000000 0.000000 0.000000
# 4 0.000000 0.000000 0.000000 0.056282 0.000000 0.000000
# 5 0.000000 0.000000 0.000000 0.000000 0.056283 0.000000
# 6 0.000000 0.000000 0.000000 0.000000 0.000000 0.049975
#
#
# Mechanical properties :
#
#
# Convention : Reuss Voigt Hill
#
# Bulk Modulus (GPa) = 41.31507 42.29412 41.80460
# Shear Modulus (GPa) = 20.61877 21.23417 20.92647
#
# Velocity S-wave (km/s) = 3.57352 3.62645 3.60008
# Velocity P-wave (km/s) = 6.52800 6.61281 6.57054
#
# Compressibility (1/GPa) = 0.02420424
#
# Stress axis : x y z
#
# Youngs Moduli (GPa) = 65.99581 65.99843 56.36329
#
# Poissons Ratio (x) = 0.32804 0.19589
# Poissons Ratio (y) = 0.32803 0.19587
# Poissons Ratio (z) = 0.22936 0.22936
#
# Static dielectric constant tensor:
#      x y z
#    x 1.552740 0.000000 0.000000 
#    y 0.000000 1.552740 0.000000 
#    z 0.000000 0.000000 1.574640 
# 
# From -- ./inp_files/2006.got.cif
#   From: 2010.05.17/outbox.cif.g08.bks.cpg/sg133_2_cif.got.tgz:2006.got - 2010.05.20 12:37:36.
