data_PCOD9567725
_publ_section_title
;
Structure prediction by ZEFSAII (Michael W. Deem and Ramdas Pophale) SiO2 
 PCOD9567725
Probable space group: P 42/N B C
;
_chemical_formula_sum "Si O2"
_cell_formula_units_Z 92
_cell_length_a 15.531471
_cell_length_b 15.531471
_cell_length_c 21.377008
_cell_angle_alpha 90.000000
_cell_angle_beta 90.000000
_cell_angle_gamma 90.000000
_cell_volume 5156.702775
_symmetry_space_group_name_H-M "P 42/N B C"
_symmetry_group_IT_number 133
_space_group.IT_coordinate_system_code '2'
_symmetry_cell_setting 'tetragonal'
loop_
_space_group_symop_operation_xyz
x,y,z
1/2-y,x,1/2+z
1/2-x,1/2-y,z
y,1/2-x,1/2+z
x,1/2-y,-z
1/2-x,y,-z
y,x,1/2-z
1/2-y,1/2-x,1/2-z
-x,-y,-z
1/2+y,-x,1/2-z
1/2+x,1/2+y,-z
-y,1/2+x,1/2-z
-x,1/2+y,z
1/2+x,-y,z
-y,-x,1/2+z
1/2+y,1/2+x,1/2+z
loop_
_atom_site_type_symbol
_atom_site_label
_atom_site_fract_x
_atom_site_fract_y
_atom_site_fract_z
Si Si1 0.097842 0.033504 0.135651
Si Si2 0.533501 0.597842 0.364349
Si Si3 0.249999 0.893637 0.141361
Si Si4 0.250000 0.750000 0.250000
Si Si5 0.851428 0.648573 0.250000
Si Si6 0.148570 0.351431 0.250000
Si Si7 0.250000 0.609989 0.000000
Si Si8 0.529808 0.900789 0.500000
O O1 0.112583 0.101632 0.189389
O O2 0.165978 0.955533 0.144110
O O3 0.114056 0.073631 0.066695
O O4 1.000000 0.000003 0.138181
O O5 0.455532 0.665980 0.355889
O O6 0.601630 0.612580 0.310611
O O7 0.573630 0.614055 0.433305
O O8 0.249999 0.830179 0.201012
O O9 0.249999 0.851061 0.070875
O O10 0.867109 0.750001 0.246566
O O11 0.335396 0.550638 1.000000
O O12 0.500000 0.000000 0.500000
#
# Coordination Sequence:
#
# PCOD9567725 Si02
#       8
#    16  16  16   4   8   8   8  16
#     4  10  20  37  62  80 107 148 183 228 281 330
#     4  10  20  37  62  80 107 148 183 228 281 330
#     4  10  22  39  56  86 114 144 194 227 280 334
#     4  12  28  34  48  88 124 138 184 244 260 338
#     4  11  23  36  52  82 115 145 184 224 268 333
#     4  11  23  36  52  82 115 145 184 224 268 333
#     4   8  16  35  60  74 107 152 178 232 275 324
#     4   8  16  32  56  85 101 131 190 228 266 333
#
# _framework density 17.840858000000001
#
# number of rings (size 3 to 8) (size 9 to 14) (size 15 to 20)
#    0.000    2.261    1.739    0.522    4.870    0.348 
#    0.000    0.870    0.000    2.087    0.000    0.000 
#    0.000    0.000    0.000    0.000    0.000    0.000 
#
# Total GULP energy -512139.488216 kJ/mol
# GULP energy per Si atom -5566.733568 kJ/mol
# Density = 1.780025 g / cm^3
# Si number density = 17.840858 Si / 1000 Ang^3
#
#
#
# Elastic Constant Matrix: (Units=GPa)
#
#
# Indices 1 2 3 4 5 6 
#
# 1 -687.5527 807.9311 50.2028 0.0000 0.0000 0.0000
# 2 807.9311 -687.5526 50.2029 0.0000 0.0000 0.0000
# 3 50.2028 50.2029 228.7577 0.0000 0.0000 0.0000
# 4 0.0000 0.0000 0.0000 24.0179 0.0000 0.0000
# 5 0.0000 0.0000 0.0000 0.0000 24.0179 0.0000
# 6 0.0000 0.0000 0.0000 0.0000 0.0000 14.8230
#
#
#
# Elastic Compliance Matrix: (Units=1/GPa)
#
#
# Indices 1 2 3 4 5 6 
#
# 1 0.004750 0.005419 -0.002232 0.000000 0.000000 0.000000
# 2 0.005419 0.004750 -0.002232 0.000000 0.000000 0.000000
# 3 -0.002232 -0.002232 0.005351 0.000000 0.000000 0.000000
# 4 0.000000 0.000000 0.000000 0.041636 0.000000 0.000000
# 5 0.000000 0.000000 0.000000 0.000000 0.041636 0.000000
# 6 0.000000 0.000000 0.000000 0.000000 0.000000 0.067463
#
#
# Mechanical properties :
#
#
# Convention : Reuss Voigt Hill
#
# Bulk Modulus (GPa) = 59.66029 74.48067 67.07048
# Shear Modulus (GPa) = 29.54017 -124.40721 -47.43352
#
# Velocity S-wave (km/s) = 4.07352 -8.35961 -5.16185
# Velocity P-wave (km/s) = 7.45906 7.16516 1.46596
#
# Compressibility (1/GPa) = 0.01676157
#
# Stress axis : x y z
#
# Youngs Moduli (GPa) = 210.53184 210.53182 186.88438
#
# Poissons Ratio (x) = -1.14078 0.41704
# Poissons Ratio (y) = -1.14078 0.41704
# Poissons Ratio (z) = 0.46981 0.46981
#
# Static dielectric constant tensor:
#      x y z
#    x 1.591780 0.000000 0.000000 
#    y 0.000000 1.591780 0.000000 
#    z 0.000000 0.000000 1.624040 
# 
# From -- ./inp_files/6593.got.cif
#   From: 2010.05.17/outbox.cif.g08.bks.cpg/sg133_4_cif.got.tgz:6593.got - 2010.05.20 12:37:36.
