data_PCOD9567527
_publ_section_title
;
Structure prediction by ZEFSAII (Michael W. Deem and Ramdas Pophale) SiO2 
 PCOD9567527
Probable space group: P 42/M C M
;
_chemical_formula_sum "Si O2"
_cell_formula_units_Z 40
_cell_length_a 11.998535
_cell_length_b 11.998535
_cell_length_c 13.685030
_cell_angle_alpha 90.000000
_cell_angle_beta 90.000000
_cell_angle_gamma 90.000000
_cell_volume 1970.163184
_symmetry_space_group_name_H-M "P 42/M C M"
_symmetry_group_IT_number 132
_symmetry_cell_setting 'tetragonal'
loop_
_space_group_symop_operation_xyz
x,y,z
-y,x,1/2+z
-x,-y,z
y,-x,1/2+z
x,-y,1/2-z
-x,y,1/2-z
y,x,-z
-y,-x,-z
-x,-y,-z
y,-x,1/2-z
x,y,-z
-y,x,1/2-z
-x,y,1/2+z
x,-y,1/2+z
-y,-x,z
y,x,z
loop_
_atom_site_type_symbol
_atom_site_label
_atom_site_fract_x
_atom_site_fract_y
_atom_site_fract_z
Si Si1 0.594855 0.594855 0.112355
Si Si2 0.620769 0.062056 0.887876
Si Si3 0.189265 0.000000 0.750000
Si Si4 0.221711 0.500000 0.750000
O O1 0.500000 0.500000 0.121498
O O2 0.552625 0.702942 0.166755
O O3 0.616207 0.616207 0.000000
O O4 0.595766 0.154456 0.806021
O O5 0.500000 0.000000 0.888430
O O6 0.727564 0.998045 0.844065
O O7 0.640933 0.098143 0.000000
O O8 0.107789 0.107789 0.745945
#
# Coordination Sequence:
#
# PCOD9567527 Si02
#       4
#     8  16   8   8
#     4  11  24  40  60  96 141 180 215 265 336 410
#     4  11  24  44  70  98 129 169 221 283 346 401
#     4  11  25  46  68  96 139 185 232 284 334 407
#     4  12  20  42  64  96 134 170 222 280 328 414
#
# _framework density 20.302886000000001
#
# number of rings (size 3 to 8) (size 9 to 14) (size 15 to 20)
#    0.000    0.800    6.000    1.200    2.800    1.600 
#    0.000    2.000    0.000    0.000    0.000    0.000 
#    0.000    0.000    0.000    0.000    0.000    0.000 
#
# Total GULP energy -223206.266641 kJ/mol
# GULP energy per Si atom -5580.156666 kJ/mol
# Density = 2.025668 g / cm^3
# Si number density = 20.302886 Si / 1000 Ang^3
#
#
#
# Elastic Constant Matrix: (Units=GPa)
#
#
# Indices 1 2 3 4 5 6 
#
# 1 94.6275 35.4636 56.3840 0.0000 0.0000 0.0000
# 2 35.4636 94.6275 56.3840 0.0000 0.0000 0.0000
# 3 56.3840 56.3840 202.8850 0.0000 0.0000 0.0000
# 4 0.0000 0.0000 0.0000 56.2655 0.0000 0.0000
# 5 0.0000 0.0000 0.0000 0.0000 56.2655 0.0000
# 6 0.0000 0.0000 0.0000 0.0000 0.0000 29.4172
#
#
#
# Elastic Compliance Matrix: (Units=1/GPa)
#
#
# Indices 1 2 3 4 5 6 
#
# 1 0.013514 -0.003388 -0.002814 0.000000 0.000000 0.000000
# 2 -0.003388 0.013514 -0.002814 0.000000 0.000000 0.000000
# 3 -0.002814 -0.002814 0.006493 0.000000 0.000000 0.000000
# 4 0.000000 0.000000 0.000000 0.017773 0.000000 0.000000
# 5 0.000000 0.000000 0.000000 0.000000 0.017773 0.000000
# 6 0.000000 0.000000 0.000000 0.000000 0.000000 0.033994
#
#
# Mechanical properties :
#
#
# Convention : Reuss Voigt Hill
#
# Bulk Modulus (GPa) = 64.56205 76.51148 70.53676
# Shear Modulus (GPa) = 39.60178 44.65022 42.12600
#
# Velocity S-wave (km/s) = 4.42129 4.69466 4.56002
# Velocity P-wave (km/s) = 7.61132 8.19471 7.90840
#
# Compressibility (1/GPa) = 0.01548898
#
# Stress axis : x y z
#
# Youngs Moduli (GPa) = 73.99564 73.99564 154.00919
#
# Poissons Ratio (x) = 0.25069 0.43342
# Poissons Ratio (y) = 0.25069 0.43342
# Poissons Ratio (z) = 0.20824 0.20824
#
# Static dielectric constant tensor:
#      x y z
#    x 2.117780 0.000000 0.000000 
#    y 0.000000 2.117780 0.000000 
#    z 0.000000 0.000000 1.695520 
# 
# From -- ./inp_files/4028.got.cif
#   From: 2010.05.17/outbox.cif.g08.bks.cpg/sg132_3_cif.got.tgz:4028.got - 2010.05.20 12:30:18.
