data_PCOD9567423
_publ_section_title
;
Structure prediction by ZEFSAII (Michael W. Deem and Ramdas Pophale) SiO2 
 PCOD9567423
Probable space group: P 42/M C M
;
_chemical_formula_sum "Si O2"
_cell_formula_units_Z 108
_cell_length_a 15.354327
_cell_length_b 15.354327
_cell_length_c 24.669999
_cell_angle_alpha 90.000000
_cell_angle_beta 90.000000
_cell_angle_gamma 90.000000
_cell_volume 5816.084437
_symmetry_space_group_name_H-M "P 42/M C M"
_symmetry_group_IT_number 132
_symmetry_cell_setting 'tetragonal'
loop_
_space_group_symop_operation_xyz
x,y,z
-y,x,1/2+z
-x,-y,z
y,-x,1/2+z
x,-y,1/2-z
-x,y,1/2-z
y,x,-z
-y,-x,-z
-x,-y,-z
y,-x,1/2-z
x,y,-z
-y,x,1/2-z
-x,y,1/2+z
x,-y,1/2+z
-y,-x,z
y,x,z
loop_
_atom_site_type_symbol
_atom_site_label
_atom_site_fract_x
_atom_site_fract_y
_atom_site_fract_z
Si Si1 0.426144 0.426144 0.434516
Si Si2 0.942633 0.417877 0.064497
Si Si3 0.762587 0.537409 0.382145
Si Si4 0.650708 0.794503 0.157963
Si Si5 0.059439 0.206067 0.696816
Si Si6 0.137095 0.862906 0.500000
Si Si7 0.948820 0.751587 0.901872
Si Si8 0.197477 0.345812 0.717734
O O1 0.500000 0.500000 0.421276
O O2 0.421287 0.421287 0.500000
O O3 0.331114 0.448895 0.409898
O O4 0.844058 0.421400 0.085967
O O5 0.000000 0.500000 0.085904
O O6 0.991592 0.328980 0.078960
O O7 0.938866 0.426156 0.000000
O O8 0.781107 0.435509 0.376526
O O9 0.768559 0.580266 0.322484
O O10 0.706180 0.706180 0.158957
O O11 0.709995 0.868031 0.130848
O O12 0.627601 0.817894 0.220065
O O13 0.131027 0.131027 0.701223
O O14 0.110688 0.298288 0.695932
O O15 0.000000 0.204628 0.750000
O O16 0.003702 0.195262 0.642540
O O17 0.192575 0.914913 0.452096
O O18 0.271406 0.271406 0.718523
#
# Coordination Sequence:
#
# PCOD9567423 Si02
#       8
#     8  16  16  16  16   4  16  16
#     4  11  26  48  67  96 138 182 243 293 329 400
#     4  11  23  39  63  94 129 165 217 279 337 398
#     4  12  22  41  67  97 132 178 220 281 349 394
#     4  11  23  39  64  95 131 176 219 270 333 410
#     4  11  24  42  68  99 128 169 217 275 335 400
#     4  12  28  44  69  88 132 189 210 276 340 406
#     4  12  23  44  64  94 132 172 227 273 337 412
#     4  10  21  39  64  95 132 166 210 266 333 402
#
# _framework density 18.569192999999999
#
# number of rings (size 3 to 8) (size 9 to 14) (size 15 to 20)
#    0.000    0.815    6.667    1.333    1.037    0.148 
#    1.333    0.741    0.000    0.000    0.000    0.000 
#    0.000    0.000    0.000    0.000    0.000    0.000 
#
# Total GULP energy -602094.282907 kJ/mol
# GULP energy per Si atom -5574.947064 kJ/mol
# Density = 1.852693 g / cm^3
# Si number density = 18.569193 Si / 1000 Ang^3
#
#
#
# Elastic Constant Matrix: (Units=GPa)
#
#
# Indices 1 2 3 4 5 6 
#
# 1 81.2427 40.3831 20.3109 0.0000 0.0000 0.0000
# 2 40.3831 81.2426 20.3107 0.0000 0.0000 0.0000
# 3 20.3109 20.3107 75.7358 0.0000 0.0000 0.0000
# 4 0.0000 0.0000 0.0000 27.4746 0.0000 0.0000
# 5 0.0000 0.0000 0.0000 0.0000 27.4744 0.0000
# 6 0.0000 0.0000 0.0000 0.0000 0.0000 30.8381
#
#
#
# Elastic Compliance Matrix: (Units=1/GPa)
#
#
# Indices 1 2 3 4 5 6 
#
# 1 0.016752 -0.007722 -0.002422 0.000000 0.000000 0.000000
# 2 -0.007722 0.016752 -0.002422 0.000000 0.000000 0.000000
# 3 -0.002422 -0.002422 0.014503 0.000000 0.000000 0.000000
# 4 0.000000 0.000000 0.000000 0.036397 0.000000 0.000000
# 5 0.000000 0.000000 0.000000 0.000000 0.036397 0.000000
# 6 0.000000 0.000000 0.000000 0.000000 0.000000 0.032427
#
#
# Mechanical properties :
#
#
# Convention : Reuss Voigt Hill
#
# Bulk Modulus (GPa) = 43.71217 44.47003 44.09110
# Shear Modulus (GPa) = 26.88369 27.63850 27.26110
#
# Velocity S-wave (km/s) = 3.80907 3.86217 3.83571
# Velocity P-wave (km/s) = 6.55260 6.62486 6.58883
#
# Compressibility (1/GPa) = 0.02287692
#
# Stress axis : x y z
#
# Youngs Moduli (GPa) = 59.69276 59.69275 68.95224
#
# Poissons Ratio (x) = 0.46092 0.16700
# Poissons Ratio (y) = 0.46093 0.16699
# Poissons Ratio (z) = 0.14457 0.14457
#
# Static dielectric constant tensor:
#      x y z
#    x 1.632720 0.000000 0.000000 
#    y 0.000000 1.632720 0.000000 
#    z 0.000000 0.000000 1.628390 
# 
# From -- ./inp_files/9182.got.cif
#   From: 2010.05.17/outbox.cif.g08.bks.cpg/sg132_5_cif.got.tgz:9182.got - 2010.05.20 12:30:18.
