data_PCOD9567129
_publ_section_title
;
Structure prediction by ZEFSAII (Michael W. Deem and Ramdas Pophale) SiO2 
 PCOD9567129
Probable space group: P 42/M C M
;
_chemical_formula_sum "Si O2"
_cell_formula_units_Z 96
_cell_length_a 25.077415
_cell_length_b 25.077415
_cell_length_c 9.220535
_cell_angle_alpha 90.000000
_cell_angle_beta 90.000000
_cell_angle_gamma 90.000000
_cell_volume 5798.580020
_symmetry_space_group_name_H-M "P 42/M C M"
_symmetry_group_IT_number 132
_symmetry_cell_setting 'tetragonal'
loop_
_space_group_symop_operation_xyz
x,y,z
-y,x,1/2+z
-x,-y,z
y,-x,1/2+z
x,-y,1/2-z
-x,y,1/2-z
y,x,-z
-y,-x,-z
-x,-y,-z
y,-x,1/2-z
x,y,-z
-y,x,1/2-z
-x,y,1/2+z
x,-y,1/2+z
-y,-x,z
y,x,z
loop_
_atom_site_type_symbol
_atom_site_label
_atom_site_fract_x
_atom_site_fract_y
_atom_site_fract_z
Si Si1 0.266422 0.944877 0.827068
Si Si2 0.944088 0.856782 0.325480
Si Si3 0.839133 0.332061 0.824132
Si Si4 0.257058 0.257058 0.664401
Si Si5 0.652794 0.652794 0.663923
Si Si6 0.176983 0.445726 0.167742
Si Si7 0.694358 0.448143 0.334867
O O1 0.204864 0.931577 0.787852
O O2 0.305287 0.896076 0.793412
O O3 0.280922 0.000000 0.750000
O O4 0.267646 0.952879 0.000000
O O5 0.950107 0.859700 0.500000
O O6 0.897114 0.897114 0.283017
O O7 0.000000 0.870708 0.250000
O O8 0.794007 0.288999 0.773427
O O9 0.835336 0.390101 0.749921
O O10 0.832351 0.338193 0.000000
O O11 0.240760 0.240760 0.500000
O O12 0.302138 0.302138 0.657477
O O13 0.638234 0.638234 0.500000
O O14 0.603181 0.675987 0.748939
O O15 0.158594 0.500000 0.250000
O O16 0.241346 0.448862 0.163741
O O17 0.158258 0.444768 0.000000
O O18 0.675412 0.500000 0.250000
O O19 0.675542 0.447473 0.500000
#
# Coordination Sequence:
#
# PCOD9567129 Si02
#       7
#    16  16  16   8   8  16  16
#     4   9  19  34  54  75 101 136 175 215 256 307
#     4   9  18  32  49  71  98 131 172 216 260 307
#     4  10  19  33  53  78 105 137 172 211 256 306
#     4   9  18  29  47  77 108 134 166 206 253 308
#     4  11  19  31  51  74 104 137 167 210 258 307
#     4  10  20  33  51  75 105 138 170 208 251 303
#     4  10  20  33  49  71 100 136 175 212 253 304
#
# _framework density 16.555778
#
# number of rings (size 3 to 8) (size 9 to 14) (size 15 to 20)
#    0.000    2.333    1.667    1.250    1.167    2.500 
#    0.000    1.250    0.000    0.750    0.000    5.250 
#    0.000    0.000    0.000    0.000    0.000    0.000 
#
# Total GULP energy -534877.249034 kJ/mol
# GULP energy per Si atom -5571.638011 kJ/mol
# Density = 1.651810 g / cm^3
# Si number density = 16.555778 Si / 1000 Ang^3
#
#
#
# Elastic Constant Matrix: (Units=GPa)
#
#
# Indices 1 2 3 4 5 6 
#
# 1 101.9622 48.9332 46.1318 0.0000 0.0000 0.0000
# 2 48.9332 101.9622 46.1318 0.0000 0.0000 0.0000
# 3 46.1318 46.1318 80.7357 0.0000 0.0000 0.0000
# 4 0.0000 0.0000 0.0000 14.6338 0.0000 0.0000
# 5 0.0000 0.0000 0.0000 0.0000 14.6338 0.0000
# 6 0.0000 0.0000 0.0000 0.0000 0.0000 23.3577
#
#
#
# Elastic Compliance Matrix: (Units=1/GPa)
#
#
# Indices 1 2 3 4 5 6 
#
# 1 0.014522 -0.004336 -0.005820 0.000000 0.000000 0.000000
# 2 -0.004336 0.014522 -0.005820 0.000000 0.000000 0.000000
# 3 -0.005820 -0.005820 0.019037 0.000000 0.000000 0.000000
# 4 0.000000 0.000000 0.000000 0.068335 0.000000 0.000000
# 5 0.000000 0.000000 0.000000 0.000000 0.068335 0.000000
# 6 0.000000 0.000000 0.000000 0.000000 0.000000 0.042812
#
#
# Mechanical properties :
#
#
# Convention : Reuss Voigt Hill
#
# Bulk Modulus (GPa) = 62.00240 63.00598 62.50419
# Shear Modulus (GPa) = 18.87571 20.08930 19.48250
#
# Velocity S-wave (km/s) = 3.38024 3.48721 3.43414
# Velocity P-wave (km/s) = 7.26406 7.37249 7.31848
#
# Compressibility (1/GPa) = 0.01612841
#
# Stress axis : x y z
#
# Youngs Moduli (GPa) = 68.86260 68.86260 52.52885
#
# Poissons Ratio (x) = 0.29858 0.30572
# Poissons Ratio (y) = 0.29858 0.30572
# Poissons Ratio (z) = 0.40078 0.40078
#
# Static dielectric constant tensor:
#      x y z
#    x 1.524520 0.000000 0.000000 
#    y 0.000000 1.524520 0.000000 
#    z 0.000000 0.000000 1.570830 
# 
# From -- ./inp_files/1862.got.cif
#   From: 2010.05.17/outbox.cif.g08.bks.cpg/sg132_1_cif.got.tgz:1862.got - 2010.05.20 12:30:18.
