data_PCOD9567386
_publ_section_title
;
Structure prediction by ZEFSAII (Michael W. Deem and Ramdas Pophale) SiO2 
 PCOD9567386
Probable space group: P 42/M C M
;
_chemical_formula_sum "Si O2"
_cell_formula_units_Z 128
_cell_length_a 19.638552
_cell_length_b 19.638552
_cell_length_c 18.347740
_cell_angle_alpha 90.000000
_cell_angle_beta 90.000000
_cell_angle_gamma 90.000000
_cell_volume 7076.222877
_symmetry_space_group_name_H-M "P 42/M C M"
_symmetry_group_IT_number 132
_symmetry_cell_setting 'tetragonal'
loop_
_space_group_symop_operation_xyz
x,y,z
-y,x,1/2+z
-x,-y,z
y,-x,1/2+z
x,-y,1/2-z
-x,y,1/2-z
y,x,-z
-y,-x,-z
-x,-y,-z
y,-x,1/2-z
x,y,-z
-y,x,1/2-z
-x,y,1/2+z
x,-y,1/2+z
-y,-x,z
y,x,z
loop_
_atom_site_type_symbol
_atom_site_label
_atom_site_fract_x
_atom_site_fract_y
_atom_site_fract_z
Si Si1 0.670851 0.974660 0.332605
Si Si2 0.523512 0.920164 0.671580
Si Si3 0.900773 0.602854 0.917442
Si Si4 0.295916 0.587902 0.918122
Si Si5 0.126912 0.236526 0.587593
Si Si6 0.673225 0.566083 0.916294
Si Si7 0.219820 0.668614 0.187427
Si Si8 0.776857 0.665453 0.150917
O O1 0.605355 0.922513 0.334639
O O2 0.736792 0.942047 0.372615
O O3 0.683762 0.000000 0.250000
O O4 0.640858 0.039368 0.374624
O O5 0.500000 0.893514 0.750000
O O6 0.473318 0.886614 0.613082
O O7 0.500000 0.000000 0.669419
O O8 0.834965 0.649410 0.906669
O O9 0.922122 0.595844 0.000000
O O10 0.354106 0.645895 0.915334
O O11 0.326882 0.513968 0.907581
O O12 0.241435 0.601492 0.855143
O O13 0.265679 0.591772 0.000000
O O14 0.123421 0.247519 0.500000
O O15 0.160854 0.160854 0.598157
O O16 0.179655 0.286056 0.629087
O O17 0.599421 0.599421 0.909173
O O18 0.722072 0.605409 0.860721
O O19 0.696739 0.580735 0.000000
O O20 0.289126 0.710875 0.203707
O O21 0.190234 0.661940 0.268301
O O22 0.735838 0.735838 0.140150
#
# Coordination Sequence:
#
# PCOD9567386 Si02
#       8
#    16  16  16  16  16  16  16  16
#     4  11  20  36  58  80 112 151 184 225 269 320
#     4   9  17  34  52  72 106 146 178 218 274 320
#     4  11  22  34  54  82 106 138 187 231 271 329
#     4   9  17  30  48  69  92 116 156 218 272 320
#     4  10  21  36  55  82 116 149 180 218 268 323
#     4   9  18  32  47  63  88 123 162 207 270 337
#     4   9  18  32  50  71  94 128 171 208 253 312
#     4  10  21  37  53  70 100 139 177 223 274 326
#
# _framework density 18.088744999999999
#
# number of rings (size 3 to 8) (size 9 to 14) (size 15 to 20)
#    0.000    2.250    2.500    1.875    0.000    6.750 
#    0.000    1.250    0.000    0.000    0.000    3.500 
#    0.000    1.750    0.000    6.875    0.000    0.000 
#
# Total GULP energy -712908.861853 kJ/mol
# GULP energy per Si atom -5569.600483 kJ/mol
# Density = 1.804757 g / cm^3
# Si number density = 18.088745 Si / 1000 Ang^3
#
#
#
# Elastic Constant Matrix: (Units=GPa)
#
#
# Indices 1 2 3 4 5 6 
#
# 1 40.2627 3.0918 5.3210 0.0000 0.0000 0.0000
# 2 3.0918 40.2627 5.3210 0.0000 0.0000 0.0000
# 3 5.3210 5.3210 79.2036 0.0000 0.0000 0.0000
# 4 0.0000 0.0000 0.0000 21.5942 0.0000 0.0000
# 5 0.0000 0.0000 0.0000 0.0000 21.5942 0.0000
# 6 0.0000 0.0000 0.0000 0.0000 0.0000 19.5098
#
#
#
# Elastic Compliance Matrix: (Units=1/GPa)
#
#
# Indices 1 2 3 4 5 6 
#
# 1 0.025178 -0.001725 -0.001576 0.000000 0.000000 0.000000
# 2 -0.001725 0.025178 -0.001576 0.000000 0.000000 0.000000
# 3 -0.001576 -0.001576 0.012837 0.000000 0.000000 0.000000
# 4 0.000000 0.000000 0.000000 0.046309 0.000000 0.000000
# 5 0.000000 0.000000 0.000000 0.000000 0.046309 0.000000
# 6 0.000000 0.000000 0.000000 0.000000 0.000000 0.051256
#
#
# Mechanical properties :
#
#
# Convention : Reuss Voigt Hill
#
# Bulk Modulus (GPa) = 18.71259 20.79961 19.75610
# Shear Modulus (GPa) = 21.30996 22.27267 21.79132
#
# Velocity S-wave (km/s) = 3.43604 3.51280 3.47463
# Velocity P-wave (km/s) = 5.10971 5.28929 5.20028
#
# Compressibility (1/GPa) = 0.05343995
#
# Stress axis : x y z
#
# Youngs Moduli (GPa) = 39.71792 39.71792 77.89753
#
# Poissons Ratio (x) = 0.06852 0.12273
# Poissons Ratio (y) = 0.06852 0.12273
# Poissons Ratio (z) = 0.06258 0.06258
#
# Static dielectric constant tensor:
#      x y z
#    x 1.653320 0.000000 0.000000 
#    y 0.000000 1.653320 0.000000 
#    z 0.000000 0.000000 1.665080 
# 
# From -- ./inp_files/6877.got.cif
#   From: 2010.05.17/outbox.cif.g08.bks.cpg/sg132_4_cif.got.tgz:6877.got - 2010.05.20 12:30:18.
