data_PCOD9567763
_publ_section_title
;
Structure prediction by ZEFSAII (Michael W. Deem and Ramdas Pophale) SiO2 
 PCOD9567763
Probable space group: P 42/N B C
;
_chemical_formula_sum "Si O2"
_cell_formula_units_Z 116
_cell_length_a 17.982586
_cell_length_b 17.982586
_cell_length_c 18.435866
_cell_angle_alpha 90.000000
_cell_angle_beta 90.000000
_cell_angle_gamma 90.000000
_cell_volume 5961.668656
_symmetry_space_group_name_H-M "P 42/N B C"
_symmetry_group_IT_number 133
_space_group.IT_coordinate_system_code '2'
_symmetry_cell_setting 'tetragonal'
loop_
_space_group_symop_operation_xyz
x,y,z
1/2-y,x,1/2+z
1/2-x,1/2-y,z
y,1/2-x,1/2+z
x,1/2-y,-z
1/2-x,y,-z
y,x,1/2-z
1/2-y,1/2-x,1/2-z
-x,-y,-z
1/2+y,-x,1/2-z
1/2+x,1/2+y,-z
-y,1/2+x,1/2-z
-x,1/2+y,z
1/2+x,-y,z
-y,-x,1/2+z
1/2+y,1/2+x,1/2+z
loop_
_atom_site_type_symbol
_atom_site_label
_atom_site_fract_x
_atom_site_fract_y
_atom_site_fract_z
Si Si1 0.464325 0.479248 0.575396
Si Si2 0.703748 0.617843 0.811411
Si Si3 0.591429 0.489551 0.799669
Si Si4 0.750000 0.250000 0.750000
Si Si5 0.167867 0.227682 0.084653
Si Si6 0.094291 0.683761 0.791397
Si Si7 0.456554 0.357467 0.694579
Si Si8 0.512874 0.790631 0.923167
O O1 0.500000 0.500000 0.500000
O O2 0.485540 0.549713 0.624246
O O3 0.480149 0.405200 0.623706
O O4 0.376735 0.474108 0.561846
O O5 0.677680 0.677680 0.750000
O O6 0.661824 0.542134 0.791774
O O7 0.668691 0.643212 0.888580
O O8 0.790832 0.601552 0.819214
O O9 0.528477 0.528477 0.750000
O O10 0.613732 0.404250 0.787877
O O11 0.729293 0.170567 0.713760
O O12 0.250000 0.250000 0.112989
O O13 0.090125 0.261072 0.111934
O O14 0.167786 0.250000 0.000000
O O15 0.028505 0.681490 0.730891
O O16 0.052661 0.710566 0.864565
O O17 0.414739 0.414739 0.750000
O O18 0.498905 0.750000 0.000000
#
# Coordination Sequence:
#
# PCOD9567763 Si02
#       8
#    16  16  16   4  16  16  16  16
#     4  11  23  39  67  95 125 178 229 271 338 401
#     4  11  25  35  64  99 131 172 216 271 341 414
#     4  10  20  44  65  93 131 170 220 283 336 410
#     4  12  28  40  70 100 128 172 240 302 348 412
#     4  10  22  38  56  89 135 175 209 255 327 408
#     4  11  22  44  67  96 127 173 230 290 353 399
#     4  12  22  44  68  96 136 173 223 286 337 419
#     4  10  22  40  64  94 134 180 222 272 342 426
#
# _framework density 19.457639
#
# number of rings (size 3 to 8) (size 9 to 14) (size 15 to 20)
#    0.000    1.241    4.138    2.483    5.793    2.207 
#    0.000    0.345    0.000    3.310    0.000    0.000 
#    0.000    0.000    0.000    0.000    0.000    0.000 
#
# Total GULP energy -645883.612007 kJ/mol
# GULP energy per Si atom -5567.962172 kJ/mol
# Density = 1.941335 g / cm^3
# Si number density = 19.457639 Si / 1000 Ang^3
#
#
#
# Elastic Constant Matrix: (Units=GPa)
#
#
# Indices 1 2 3 4 5 6 
#
# 1 50.9199 118.1746 44.1232 0.0000 0.0000 0.0000
# 2 118.1746 50.9199 44.1232 0.0000 0.0000 0.0000
# 3 44.1232 44.1232 83.8970 0.0000 0.0000 0.0000
# 4 0.0000 0.0000 0.0000 2.5197 0.0000 0.0000
# 5 0.0000 0.0000 0.0000 0.0000 2.5197 0.0000
# 6 0.0000 0.0000 0.0000 0.0000 0.0000 34.5553
#
#
#
# Elastic Compliance Matrix: (Units=1/GPa)
#
#
# Indices 1 2 3 4 5 6 
#
# 1 -0.003359 0.011510 -0.004287 0.000000 0.000000 0.000000
# 2 0.011510 -0.003359 -0.004287 0.000000 0.000000 0.000000
# 3 -0.004287 -0.004287 0.016428 0.000000 0.000000 0.000000
# 4 0.000000 0.000000 0.000000 0.396874 0.000000 0.000000
# 5 0.000000 0.000000 0.000000 0.000000 0.396874 0.000000
# 6 0.000000 0.000000 0.000000 0.000000 0.000000 0.028939
#
#
# Mechanical properties :
#
#
# Convention : Reuss Voigt Hill
#
# Bulk Modulus (GPa) = 64.17134 66.50874 65.34004
# Shear Modulus (GPa) = 6.01165 6.53998 6.27582
#
# Velocity S-wave (km/s) = 1.75964 1.83533 1.79788
# Velocity P-wave (km/s) = 6.09754 6.22469 6.16144
#
# Compressibility (1/GPa) = 0.01558328
#
# Stress axis : x y z
#
# Youngs Moduli (GPa) = -297.71612 -297.71612 60.87015
#
# Poissons Ratio (x) = 3.42669 0.26094
# Poissons Ratio (y) = 3.42669 0.26094
# Poissons Ratio (z) = -1.27625 -1.27625
#
# Static dielectric constant tensor:
#      x y z
#    x 1.712420 0.000000 0.000000 
#    y 0.000000 1.712420 0.000000 
#    z 0.000000 0.000000 1.558410 
# 
# From -- ./inp_files/5655.got.cif
#   From: 2010.05.17/outbox.cif.g08.bks.cpg/sg133_3_cif.got.tgz:5655.got - 2010.05.20 12:37:36.
