data_PCOD9567443
_publ_section_title
;
Structure prediction by ZEFSAII (Michael W. Deem and Ramdas Pophale) SiO2 
 PCOD9567443
Probable space group: P 42/M C M
;
_chemical_formula_sum "Si O2"
_cell_formula_units_Z 88
_cell_length_a 12.565247
_cell_length_b 12.565247
_cell_length_c 29.109870
_cell_angle_alpha 90.000000
_cell_angle_beta 90.000000
_cell_angle_gamma 90.000000
_cell_volume 4596.024405
_symmetry_space_group_name_H-M "P 42/M C M"
_symmetry_group_IT_number 132
_symmetry_cell_setting 'tetragonal'
loop_
_space_group_symop_operation_xyz
x,y,z
-y,x,1/2+z
-x,-y,z
y,-x,1/2+z
x,-y,1/2-z
-x,y,1/2-z
y,x,-z
-y,-x,-z
-x,-y,-z
y,-x,1/2-z
x,y,-z
-y,x,1/2-z
-x,y,1/2+z
x,-y,1/2+z
-y,-x,z
y,x,z
loop_
_atom_site_type_symbol
_atom_site_label
_atom_site_fract_x
_atom_site_fract_y
_atom_site_fract_z
Si Si1 0.768700 0.941356 0.202472
Si Si2 0.297056 0.008663 0.894346
Si Si3 0.237972 0.589104 0.287375
Si Si4 0.198845 0.621514 0.945947
Si Si5 0.765581 0.585457 0.892141
Si Si6 0.910169 0.910169 0.052503
O O1 0.870019 0.870019 0.188495
O O2 0.672668 0.859031 0.211495
O O3 0.791203 0.000000 0.250000
O O4 0.734655 0.011486 0.158851
O O5 0.351329 0.907627 0.917654
O O6 0.370164 0.114146 0.895631
O O7 0.191474 0.041960 0.921827
O O8 0.218894 0.500000 0.250000
O O9 0.343232 0.656769 0.276074
O O10 0.249152 0.547580 0.339467
O O11 0.283271 0.716730 0.940001
O O12 0.246732 0.511650 0.926821
O O13 0.173945 0.612580 0.000000
O O14 0.682389 0.682389 0.899469
O O15 0.881815 0.881815 0.000000
O O16 0.000000 0.000000 0.051589
#
# Coordination Sequence:
#
# PCOD9567443 Si02
#       6
#    16  16  16  16  16   8
#     4  10  22  39  58  88 125 163 203 250 307 375
#     4  11  21  43  64  90 128 165 213 263 314 376
#     4   9  20  38  60  87 121 157 202 254 304 363
#     4  11  26  44  63  93 131 168 211 263 320 381
#     4  10  22  43  67  93 125 164 214 265 317 381
#     4  11  22  36  62  94 125 165 209 259 318 370
#
# _framework density 19.146982999999999
#
# number of rings (size 3 to 8) (size 9 to 14) (size 15 to 20)
#    0.000    1.727    1.818    2.727    2.545    7.273 
#    0.000    2.727    0.000    0.000    0.000    0.000 
#    0.000    0.000    0.000    0.000    0.000    0.000 
#
# Total GULP energy -491638.482739 kJ/mol
# GULP energy per Si atom -5586.800940 kJ/mol
# Density = 1.910340 g / cm^3
# Si number density = 19.146983 Si / 1000 Ang^3
#
#
#
# Elastic Constant Matrix: (Units=GPa)
#
#
# Indices 1 2 3 4 5 6 
#
# 1 -249.7640 341.4482 52.5562 0.0000 0.0000 0.0000
# 2 341.4482 -249.7640 52.5562 0.0000 0.0000 0.0000
# 3 52.5562 52.5562 122.7875 0.0000 0.0000 0.0000
# 4 0.0000 0.0000 0.0000 38.5027 0.0000 0.0000
# 5 0.0000 0.0000 0.0000 0.0000 38.5027 0.0000
# 6 0.0000 0.0000 0.0000 0.0000 0.0000 7.2125
#
#
#
# Elastic Compliance Matrix: (Units=1/GPa)
#
#
# Indices 1 2 3 4 5 6 
#
# 1 0.009862 0.011554 -0.009167 0.000000 0.000000 0.000000
# 2 0.011554 0.009862 -0.009167 0.000000 0.000000 0.000000
# 3 -0.009167 -0.009167 0.015991 0.000000 0.000000 0.000000
# 4 0.000000 0.000000 0.000000 0.025972 0.000000 0.000000
# 5 0.000000 0.000000 0.000000 0.000000 0.025972 0.000000
# 6 0.000000 0.000000 0.000000 0.000000 0.000000 0.138649
#
#
# Mechanical properties :
#
#
# Convention : Reuss Voigt Hill
#
# Bulk Modulus (GPa) = 45.13239 57.37565 51.25402
# Shear Modulus (GPa) = 20.22207 -38.04318 -8.91056
#
# Velocity S-wave (km/s) = 3.25337 -4.46230 -2.15960
# Velocity P-wave (km/s) = 6.14290 1.86585 4.53964
#
# Compressibility (1/GPa) = 0.02215704
#
# Stress axis : x y z
#
# Youngs Moduli (GPa) = 101.39474 101.39474 62.53374
#
# Poissons Ratio (x) = -1.17150 0.57323
# Poissons Ratio (y) = -1.17150 0.57323
# Poissons Ratio (z) = 0.92946 0.92946
#
# Static dielectric constant tensor:
#      x y z
#    x 1.654650 0.000000 0.000000 
#    y 0.000000 1.654650 0.000000 
#    z 0.000000 0.000000 1.665350 
# 
# From -- ./inp_files/10764.got.cif
#   From: 2010.05.17/outbox.cif.g08.bks.cpg/sg132_6_cif.got.tgz:10764.got - 2010.05.20 12:30:18.
