data_PCOD9567551
_publ_section_title
;
Structure prediction by ZEFSAII (Michael W. Deem and Ramdas Pophale) SiO2 
 PCOD9567551
Probable space group: P 42/M C M
;
_chemical_formula_sum "Si O2"
_cell_formula_units_Z 112
_cell_length_a 15.000000
_cell_length_b 15.000000
_cell_length_c 24.000000
_cell_angle_alpha 90.000000
_cell_angle_beta 90.000000
_cell_angle_gamma 90.000000
_cell_volume 5400.000000
_symmetry_space_group_name_H-M "P 42/M C M"
_symmetry_group_IT_number 132
_symmetry_cell_setting 'tetragonal'
loop_
_space_group_symop_operation_xyz
x,y,z
-y,x,1/2+z
-x,-y,z
y,-x,1/2+z
x,-y,1/2-z
-x,y,1/2-z
y,x,-z
-y,-x,-z
-x,-y,-z
y,-x,1/2-z
x,y,-z
-y,x,1/2-z
-x,y,1/2+z
x,-y,1/2+z
-y,-x,z
y,x,z
loop_
_atom_site_type_symbol
_atom_site_label
_atom_site_fract_x
_atom_site_fract_y
_atom_site_fract_z
Si Si1 0.196563 0.333481 0.562972
Si Si2 0.343127 0.513519 0.059600
Si Si3 0.860271 0.278667 0.563446
Si Si4 0.236625 0.908792 0.228659
Si Si5 0.099370 0.575706 0.707116
Si Si6 0.971381 0.663990 0.375972
Si Si7 0.738116 0.392553 0.647173
O O1 0.170574 0.309938 0.500000
O O2 0.246514 0.246514 0.587673
O O3 0.269828 0.409519 0.560752
O O4 0.112221 0.374693 0.592744
O O5 0.435371 0.564630 0.061413
O O6 0.325125 0.453222 0.111402
O O7 0.332932 0.466681 0.000000
O O8 0.849116 0.307930 0.500000
O O9 0.820131 0.179869 0.568632
O O10 0.800847 0.339174 0.603972
O O11 0.960767 0.288381 0.582684
O O12 0.174030 0.825971 0.235848
O O13 0.328056 0.896066 0.263011
O O14 0.265444 0.929116 0.166202
O O15 0.192875 0.000000 0.250000
O O16 0.080782 0.500000 0.750000
O O17 0.195331 0.552147 0.683511
O O18 0.027799 0.593652 0.659216
O O19 0.680133 0.319868 0.679497
#
# Coordination Sequence:
#
# PCOD9567551 Si02
#       7
#    16  16  16  16  16  16  16
#     4   9  18  34  55  82 117 153 188 226 272 335
#     4   9  19  35  54  81 115 148 182 223 273 335
#     4   9  18  34  56  83 116 149 180 223 279 338
#     4  10  22  39  59  83 111 147 194 245 295 343
#     4  10  23  41  58  80 114 149 192 247 298 342
#     4  10  20  34  57  84 112 147 191 228 282 343
#     4  10  20  36  59  83 107 144 190 233 284 342
#
# _framework density 20.740741
#
# number of rings (size 3 to 8) (size 9 to 14) (size 15 to 20)
#    0.000    2.429    0.000    2.571    2.000    7.286 
#    2.571    1.429    0.000    5.571    0.000    5.000 
#    0.000    0.000    0.000    0.000    0.000    0.000 
#
# Total GULP energy -623507.404870 kJ/mol
# GULP energy per Si atom -5567.030401 kJ/mol
# Density = 2.069353 g / cm^3
# Si number density = 20.740741 Si / 1000 Ang^3
#
#
#
# Elastic Constant Matrix: (Units=GPa)
#
#
# Indices 1 2 3 4 5 6 
#
# 1 -2761.5985 2910.5081 35.9572 0.0000 0.0000 0.0000
# 2 2910.5081-2761.5985 35.9572 0.0000 0.0000 0.0000
# 3 35.9572 35.9572 30.9414 0.0000 0.0000 0.0000
# 4 0.0000 0.0000 0.0000 28.6618 0.0000 0.0000
# 5 0.0000 0.0000 0.0000 0.0000 28.6618 0.0000
# 6 0.0000 0.0000 0.0000 0.0000 0.0000 4.9874
#
#
#
# Elastic Compliance Matrix: (Units=1/GPa)
#
#
# Indices 1 2 3 4 5 6 
#
# 1 0.007564 0.007741 -0.017786 0.000000 0.000000 0.000000
# 2 0.007741 0.007564 -0.017786 0.000000 0.000000 0.000000
# 3 -0.017786 -0.017786 0.073658 0.000000 0.000000 0.000000
# 4 0.000000 0.000000 0.000000 0.034890 0.000000 0.000000
# 5 0.000000 0.000000 0.000000 0.000000 0.034890 0.000000
# 6 0.000000 0.000000 0.000000 0.000000 0.000000 0.200505
#
#
# Mechanical properties :
#
#
# Convention : Reuss Voigt Hill
#
# Bulk Modulus (GPa) = 30.19002 52.50996 41.34999
# Shear Modulus (GPa) = 11.74327 -552.51632 -270.38653
#
# Velocity S-wave (km/s) = 2.38206 -16.33922 -11.43013
# Velocity P-wave (km/s) = 4.70671 18.18208 12.41843
#
# Compressibility (1/GPa) = 0.03312353
#
# Stress axis : x y z
#
# Youngs Moduli (GPa) = 132.19732 132.19732 13.57621
#
# Poissons Ratio (x) = -1.02331 0.24147
# Poissons Ratio (y) = -1.02331 0.24147
# Poissons Ratio (z) = 2.35130 2.35130
#
# Static dielectric constant tensor:
#      x y z
#    x 1.780540 0.000000 0.000000 
#    y 0.000000 1.780540 0.000000 
#    z 0.000000 0.000000 1.825490 
# 
# From -- ./inp_files/9114.got.cif
#   From: 2010.05.17/outbox.ucp.g08.bks.cvg/sg132_5_cif.got.tgz:9114.got - 2010.06.11 11:39:14.
