data_PCOD9567621
_publ_section_title
;
Structure prediction by ZEFSAII (Michael W. Deem and Ramdas Pophale) SiO2 
 PCOD9567621
Probable space group: P 42/N B C
;
_chemical_formula_sum "Si O2"
_cell_formula_units_Z 112
_cell_length_a 18.989435
_cell_length_b 18.989435
_cell_length_c 18.823855
_cell_angle_alpha 90.000000
_cell_angle_beta 90.000000
_cell_angle_gamma 90.000000
_cell_volume 6787.856543
_symmetry_space_group_name_H-M "P 42/N B C"
_symmetry_group_IT_number 133
_space_group.IT_coordinate_system_code '2'
_symmetry_cell_setting 'tetragonal'
loop_
_space_group_symop_operation_xyz
x,y,z
1/2-y,x,1/2+z
1/2-x,1/2-y,z
y,1/2-x,1/2+z
x,1/2-y,-z
1/2-x,y,-z
y,x,1/2-z
1/2-y,1/2-x,1/2-z
-x,-y,-z
1/2+y,-x,1/2-z
1/2+x,1/2+y,-z
-y,1/2+x,1/2-z
-x,1/2+y,z
1/2+x,-y,z
-y,-x,1/2+z
1/2+y,1/2+x,1/2+z
loop_
_atom_site_type_symbol
_atom_site_label
_atom_site_fract_x
_atom_site_fract_y
_atom_site_fract_z
Si Si1 0.029046 0.580798 0.082677
Si Si2 0.775896 0.548313 0.422295
Si Si3 0.081737 0.955645 0.070021
Si Si4 0.633977 0.525396 0.338944
Si Si5 0.022797 0.231044 0.416027
Si Si6 0.682991 0.711841 0.577139
Si Si7 0.509308 0.629793 0.329415
O O1 0.075528 0.550606 0.146326
O O2 0.999243 0.657643 0.096940
O O3 0.962954 0.528285 0.071403
O O4 0.073943 0.574579 0.009848
O O5 0.750000 0.526053 0.500000
O O6 0.710515 0.540558 0.369857
O O7 0.799417 0.629642 0.428315
O O8 0.040938 0.902206 0.121907
O O9 0.160821 0.976119 0.091144
O O10 0.582432 0.592092 0.353689
O O11 0.637071 0.513066 0.254933
O O12 0.022291 0.250000 0.500000
O O13 0.104299 0.218600 0.392990
O O14 0.998213 0.297296 0.370038
O O15 0.750000 0.750000 0.614012
O O16 0.678841 0.750000 0.500000
#
# Coordination Sequence:
#
# PCOD9567621 Si02
#       7
#    16  16  16  16  16  16  16
#     4  10  20  34  57  84 115 146 197 244 282 335
#     4  12  20  33  56  90 117 149 194 238 287 342
#     4  10  19  34  56  87 111 147 196 243 278 332
#     4  10  23  38  57  81 121 156 184 235 298 350
#     4  11  20  32  58  87 112 147 195 235 279 334
#     4  10  19  28  48  86 123 152 181 225 277 342
#     4  10  22  40  56  81 119 156 186 233 300 351
#
# _framework density 16.500053999999999
#
# number of rings (size 3 to 8) (size 9 to 14) (size 15 to 20)
#    0.000    1.571    5.714    0.857    2.000    1.143 
#    0.000    0.714    0.000    3.429    0.000    2.000 
#    0.000    0.000    0.000    0.000    0.000    0.000 
#
# Total GULP energy -624706.272685 kJ/mol
# GULP energy per Si atom -5577.734578 kJ/mol
# Density = 1.646250 g / cm^3
# Si number density = 16.500054 Si / 1000 Ang^3
#
#
#
# Elastic Constant Matrix: (Units=GPa)
#
#
# Indices 1 2 3 4 5 6 
#
# 1 105.9439 58.6586 31.8120 0.0000 0.0000 0.0000
# 2 58.6586 105.9439 31.8120 0.0000 0.0000 0.0000
# 3 31.8120 31.8120 62.2537 0.0000 0.0000 0.0000
# 4 0.0000 0.0000 0.0000 18.6650 0.0000 0.0000
# 5 0.0000 0.0000 0.0000 0.0000 18.6650 0.0000
# 6 0.0000 0.0000 0.0000 0.0000 0.0000 17.5310
#
#
#
# Elastic Compliance Matrix: (Units=1/GPa)
#
#
# Indices 1 2 3 4 5 6 
#
# 1 0.014359 -0.006789 -0.003869 0.000000 0.000000 0.000000
# 2 -0.006789 0.014359 -0.003869 0.000000 0.000000 0.000000
# 3 -0.003869 -0.003869 0.020017 0.000000 0.000000 0.000000
# 4 0.000000 0.000000 0.000000 0.053576 0.000000 0.000000
# 5 0.000000 0.000000 0.000000 0.000000 0.053576 0.000000
# 6 0.000000 0.000000 0.000000 0.000000 0.000000 0.057042
#
#
# Mechanical properties :
#
#
# Convention : Reuss Voigt Hill
#
# Bulk Modulus (GPa) = 50.80322 57.63407 54.21865
# Shear Modulus (GPa) = 20.11718 21.09610 20.60664
#
# Velocity S-wave (km/s) = 3.49552 3.57956 3.53779
# Velocity P-wave (km/s) = 6.86645 7.21732 7.04407
#
# Compressibility (1/GPa) = 0.01968379
#
# Stress axis : x y z
#
# Youngs Moduli (GPa) = 69.64072 69.64072 49.95733
#
# Poissons Ratio (x) = 0.47278 0.19327
# Poissons Ratio (y) = 0.47278 0.19327
# Poissons Ratio (z) = 0.26941 0.26941
#
# Static dielectric constant tensor:
#      x y z
#    x 1.557200 0.000000 0.000000 
#    y 0.000000 1.557200 0.000000 
#    z 0.000000 0.000000 1.548790 
# 
# From -- ./inp_files/6692.got.cif
#   From: 2010.05.17/outbox.cif.g08.bks.cpg/sg133_4_cif.got.tgz:6692.got - 2010.05.20 12:37:36.
