data_PCOD9567366
_publ_section_title
;
Structure prediction by ZEFSAII (Michael W. Deem and Ramdas Pophale) SiO2 
 PCOD9567366
Probable space group: P 42/M C M
;
_chemical_formula_sum "Si O2"
_cell_formula_units_Z 80
_cell_length_a 17.625265
_cell_length_b 17.625265
_cell_length_c 14.875582
_cell_angle_alpha 90.000000
_cell_angle_beta 90.000000
_cell_angle_gamma 90.000000
_cell_volume 4621.099047
_symmetry_space_group_name_H-M "P 42/M C M"
_symmetry_group_IT_number 132
_symmetry_cell_setting 'tetragonal'
loop_
_space_group_symop_operation_xyz
x,y,z
-y,x,1/2+z
-x,-y,z
y,-x,1/2+z
x,-y,1/2-z
-x,y,1/2-z
y,x,-z
-y,-x,-z
-x,-y,-z
y,-x,1/2-z
x,y,-z
-y,x,1/2-z
-x,y,1/2+z
x,-y,1/2+z
-y,-x,z
y,x,z
loop_
_atom_site_type_symbol
_atom_site_label
_atom_site_fract_x
_atom_site_fract_y
_atom_site_fract_z
Si Si1 0.344871 0.785619 0.000000
Si Si2 0.793855 0.319450 0.398461
Si Si3 0.901162 0.581129 0.637278
Si Si4 0.436991 0.318208 0.818779
Si Si5 0.922240 0.412081 0.353419
Si Si6 0.653354 0.528246 0.500000
O O1 0.364307 0.841876 0.085464
O O2 0.410133 0.721352 0.000000
O O3 0.264705 0.735295 0.000000
O O4 0.771536 0.339716 0.500000
O O5 0.765018 0.234983 0.381177
O O6 0.746690 0.375490 0.335440
O O7 0.880465 0.338490 0.388956
O O8 0.885690 0.492187 0.614859
O O9 0.907164 0.588344 0.745741
O O10 0.990680 0.590655 0.615882
O O11 0.500000 0.291872 0.750000
O O12 0.391413 0.391413 0.782993
O O13 0.476840 0.339407 0.911931
O O14 0.575625 0.575625 0.500000
#
# Coordination Sequence:
#
# PCOD9567366 Si02
#       6
#     8  16  16  16  16   8
#     4  11  24  36  51  79 110 140 172 210 272 338
#     4  10  21  34  50  73 100 131 166 212 266 314
#     4   9  20  35  53  81 105 134 175 216 264 314
#     4  11  23  37  51  68  92 131 179 224 270 309
#     4   9  19  35  56  78 103 135 176 220 259 312
#     4  11  23  36  50  68  93 128 172 220 264 308
#
# _framework density 17.311899
#
# number of rings (size 3 to 8) (size 9 to 14) (size 15 to 20)
#    0.000    2.000    1.000    3.300    8.400    3.400 
#    0.000    0.000    0.000    0.000    0.000    0.000 
#    0.000    1.600    0.000    4.400    0.000    0.000 
#
# Total GULP energy -445801.178764 kJ/mol
# GULP energy per Si atom -5572.514735 kJ/mol
# Density = 1.727250 g / cm^3
# Si number density = 17.311899 Si / 1000 Ang^3
#
#
#
# Elastic Constant Matrix: (Units=GPa)
#
#
# Indices 1 2 3 4 5 6 
#
# 1 76.1383 38.7132 7.9726 0.0000 0.0000 0.0000
# 2 38.7132 76.1381 7.9727 0.0000 0.0000 0.0000
# 3 7.9726 7.9727 43.8291 0.0000 0.0000 0.0000
# 4 0.0000 0.0000 0.0000 15.3081 0.0000 0.0000
# 5 0.0000 0.0000 0.0000 0.0000 15.3083 0.0000
# 6 0.0000 0.0000 0.0000 0.0000 0.0000 29.2511
#
#
#
# Elastic Compliance Matrix: (Units=1/GPa)
#
#
# Indices 1 2 3 4 5 6 
#
# 1 0.017826 -0.008894 -0.001625 0.000000 0.000000 0.000000
# 2 -0.008894 0.017826 -0.001625 0.000000 0.000000 0.000000
# 3 -0.001625 -0.001625 0.023407 0.000000 0.000000 0.000000
# 4 0.000000 0.000000 0.000000 0.065325 0.000000 0.000000
# 5 0.000000 0.000000 0.000000 0.000000 0.065324 0.000000
# 6 0.000000 0.000000 0.000000 0.000000 0.000000 0.034187
#
#
# Mechanical properties :
#
#
# Convention : Reuss Voigt Hill
#
# Bulk Modulus (GPa) = 28.75829 33.93586 31.34708
# Shear Modulus (GPa) = 19.24754 21.40328 20.32541
#
# Velocity S-wave (km/s) = 3.33800 3.51997 3.43019
# Velocity P-wave (km/s) = 5.61286 6.01377 5.81677
#
# Compressibility (1/GPa) = 0.03477258
#
# Stress axis : x y z
#
# Youngs Moduli (GPa) = 56.09697 56.09681 42.72220
#
# Poissons Ratio (x) = 0.49891 0.06942
# Poissons Ratio (y) = 0.49892 0.06942
# Poissons Ratio (z) = 0.09115 0.09115
#
# Static dielectric constant tensor:
#      x y z
#    x 1.612300 0.000000 0.000000 
#    y 0.000000 1.612300 0.000000 
#    z 0.000000 0.000000 1.664090 
# 
# From -- ./inp_files/4701.got.cif
#   From: 2010.05.17/outbox.cif.g08.bks.cpg/sg132_3_cif.got.tgz:4701.got - 2010.05.20 12:30:18.
