data_PCOD9567233
_publ_section_title
;
Structure prediction by ZEFSAII (Michael W. Deem and Ramdas Pophale) SiO2 
 PCOD9567233
Probable space group: P 42/M C M
;
_chemical_formula_sum "Si O2"
_cell_formula_units_Z 96
_cell_length_a 25.733584
_cell_length_b 25.733584
_cell_length_c 9.422034
_cell_angle_alpha 90.000000
_cell_angle_beta 90.000000
_cell_angle_gamma 90.000000
_cell_volume 6239.434345
_symmetry_space_group_name_H-M "P 42/M C M"
_symmetry_group_IT_number 132
_symmetry_cell_setting 'tetragonal'
loop_
_space_group_symop_operation_xyz
x,y,z
-y,x,1/2+z
-x,-y,z
y,-x,1/2+z
x,-y,1/2-z
-x,y,1/2-z
y,x,-z
-y,-x,-z
-x,-y,-z
y,-x,1/2-z
x,y,-z
-y,x,1/2-z
-x,y,1/2+z
x,-y,1/2+z
-y,-x,z
y,x,z
loop_
_atom_site_type_symbol
_atom_site_label
_atom_site_fract_x
_atom_site_fract_y
_atom_site_fract_z
Si Si1 0.346009 0.187634 0.663118
Si Si2 0.552209 0.198005 0.335216
Si Si3 0.754908 0.157922 0.666328
Si Si4 0.759915 0.949751 0.335049
Si Si5 0.451543 0.928304 0.343472
Si Si6 0.638637 0.063314 0.848726
O O1 0.340378 0.207073 0.500000
O O2 0.395158 0.211298 0.748104
O O3 0.292956 0.187014 0.754492
O O4 0.357623 0.126073 0.650110
O O5 0.500000 0.214064 0.250000
O O6 0.552835 0.215841 0.500000
O O7 0.550667 0.134875 0.341764
O O8 0.741484 0.147540 0.500000
O O9 0.804418 0.195583 0.670250
O O10 0.767057 0.104118 0.748973
O O11 0.777710 0.946585 0.500000
O O12 0.697321 0.955710 0.341730
O O13 0.780702 0.000000 0.250000
O O14 0.500000 0.943117 0.250000
O O15 0.460312 0.946239 0.500000
O O16 0.397298 0.947989 0.283375
O O17 0.614885 0.048021 0.000000
#
# Coordination Sequence:
#
# PCOD9567233 Si02
#       6
#    16  16  16  16  16  16
#     4   9  16  26  40  58  81 109 141 176 215 258
#     4   9  15  22  33  51  76 105 138 176 217 258
#     4  10  20  33  49  69  93 119 146 177 214 257
#     4  10  20  33  50  69  89 112 137 167 202 245
#     4   9  15  21  32  49  69  95 126 163 204 244
#     4   8  15  26  38  54  75  99 128 162 200 241
#
# _framework density 15.386011
#
# number of rings (size 3 to 8) (size 9 to 14) (size 15 to 20)
#    0.000    2.833    0.000    3.500    0.000   10.000 
#    0.000    0.000    0.000    0.500    0.000    3.500 
#    0.000    0.333    0.000    3.500    0.000    1.500 
#
# Total GULP energy -534690.248706 kJ/mol
# GULP energy per Si atom -5569.690091 kJ/mol
# Density = 1.535099 g / cm^3
# Si number density = 15.386011 Si / 1000 Ang^3
#
#
#
# Elastic Constant Matrix: (Units=GPa)
#
#
# Indices 1 2 3 4 5 6 
#
# 1 39.4393 14.8707 36.6918 0.0000 0.0000 0.0000
# 2 14.8707 39.4393 36.6918 0.0000 0.0000 0.0000
# 3 36.6918 36.6918 155.0772 0.0000 0.0000 0.0000
# 4 0.0000 0.0000 0.0000 15.2729 0.0000 0.0000
# 5 0.0000 0.0000 0.0000 0.0000 15.2729 0.0000
# 6 0.0000 0.0000 0.0000 0.0000 0.0000 -1.5889
#
#
#
# Elastic Compliance Matrix: (Units=1/GPa)
#
#
# Indices 1 2 3 4 5 6 
#
# 1 0.033884 -0.006818 -0.006404 0.000000 0.000000 0.000000
# 2 -0.006818 0.033884 -0.006404 0.000000 0.000000 0.000000
# 3 -0.006404 -0.006404 0.009479 0.000000 0.000000 0.000000
# 4 0.000000 0.000000 0.000000 0.065476 0.000000 0.000000
# 5 0.000000 0.000000 0.000000 0.000000 0.065476 0.000000
# 6 0.000000 0.000000 0.000000 0.000000 0.000000 -0.629373
#
#
# Mechanical properties :
#
#
# Convention : Reuss Voigt Hill
#
# Bulk Modulus (GPa) = 26.31944 45.60718 35.96331
# Shear Modulus (GPa) = -13.54066 15.50481 0.98207
#
# Velocity S-wave (km/s) = -2.96980 3.17791 0.79980
# Velocity P-wave (km/s) = 2.32025 6.57052 4.92724
#
# Compressibility (1/GPa) = 0.03799473
#
# Stress axis : x y z
#
# Youngs Moduli (GPa) = 29.51244 29.51244 105.49919
#
# Poissons Ratio (x) = 0.20123 0.67560
# Poissons Ratio (y) = 0.20123 0.67560
# Poissons Ratio (z) = 0.18899 0.18899
#
# Static dielectric constant tensor:
#      x y z
#    x 1.502180 0.000000 0.000000 
#    y 0.000000 1.502180 0.000000 
#    z 0.000000 0.000000 1.562630 
# 
# From -- ./inp_files/1905.got.cif
#   From: 2010.05.17/outbox.cif.g08.bks.cpg/sg132_1_cif.got.tgz:1905.got - 2010.05.20 12:30:18.
