data_PCOD9567919
_publ_section_title
;
Structure prediction by ZEFSAII (Michael W. Deem and Ramdas Pophale) SiO2 
 PCOD9567919
Probable space group: P 42/N B C
;
_chemical_formula_sum "Si O2"
_cell_formula_units_Z 96
_cell_length_a 15.255303
_cell_length_b 15.255303
_cell_length_c 18.966336
_cell_angle_alpha 90.000000
_cell_angle_beta 90.000000
_cell_angle_gamma 90.000000
_cell_volume 4413.926693
_symmetry_space_group_name_H-M "P 42/N B C"
_symmetry_group_IT_number 133
_space_group.IT_coordinate_system_code '2'
_symmetry_cell_setting 'tetragonal'
loop_
_space_group_symop_operation_xyz
x,y,z
1/2-y,x,1/2+z
1/2-x,1/2-y,z
y,1/2-x,1/2+z
x,1/2-y,-z
1/2-x,y,-z
y,x,1/2-z
1/2-y,1/2-x,1/2-z
-x,-y,-z
1/2+y,-x,1/2-z
1/2+x,1/2+y,-z
-y,1/2+x,1/2-z
-x,1/2+y,z
1/2+x,-y,z
-y,-x,1/2+z
1/2+y,1/2+x,1/2+z
loop_
_atom_site_type_symbol
_atom_site_label
_atom_site_fract_x
_atom_site_fract_y
_atom_site_fract_z
Si Si1 0.558590 0.475338 0.685938
Si Si2 0.527473 0.286085 0.674804
Si Si3 0.453837 0.338617 0.524428
Si Si4 0.401249 0.224921 0.791274
Si Si5 0.965518 0.807779 0.068423
Si Si6 0.396401 0.936083 0.894407
O O1 0.492093 0.492093 0.750000
O O2 0.585459 0.373255 0.687055
O O3 0.642977 0.534783 0.695799
O O4 0.505754 0.526262 0.624311
O O5 0.486215 0.315117 0.601267
O O6 0.452955 0.283189 0.734493
O O7 0.560744 0.186670 0.659405
O O8 0.405552 0.250000 0.500000
O O9 0.389260 0.418036 0.531934
O O10 0.531781 0.359015 0.469784
O O11 0.317230 0.182771 0.750000
O O12 0.402303 0.270381 0.868783
O O13 0.055290 0.843015 0.103007
O O14 0.985291 0.750000 0.000000
#
# Coordination Sequence:
#
# PCOD9567919 Si02
#       6
#    16  16  16  16  16  16
#     4  11  21  42  73  95 136 186 237 294 359 424
#     4  11  23  41  75 100 128 181 250 284 349 437
#     4  10  24  42  70  99 134 181 236 289 359 431
#     4  11  25  44  69 103 140 186 234 297 359 434
#     4  12  26  42  71 102 144 185 231 297 372 430
#     4  11  22  46  70 101 134 191 238 289 357 439
#
# _framework density 21.749341999999999
#
# number of rings (size 3 to 8) (size 9 to 14) (size 15 to 20)
#    0.000    1.000    5.000    2.500    4.667    0.333 
#    0.000    1.667    0.000    0.000    0.000    0.000 
#    0.000    0.000    0.000    0.000    0.000    0.000 
#
# Total GULP energy -534753.871216 kJ/mol
# GULP energy per Si atom -5570.352825 kJ/mol
# Density = 2.169984 g / cm^3
# Si number density = 21.749342 Si / 1000 Ang^3
#
#
#
# Elastic Constant Matrix: (Units=GPa)
#
#
# Indices 1 2 3 4 5 6 
#
# 1 76.2834 13.7683 9.8846 0.0000 0.0000 0.0000
# 2 13.7683 76.2832 9.8848 0.0000 0.0000 0.0000
# 3 9.8846 9.8848 110.2629 0.0000 0.0000 0.0000
# 4 0.0000 0.0000 0.0000 178.0012 0.0000 0.0000
# 5 0.0000 0.0000 0.0000 0.0000 177.9619 0.0000
# 6 0.0000 0.0000 0.0000 0.0000 0.0000 10.1449
#
#
#
# Elastic Compliance Matrix: (Units=1/GPa)
#
#
# Indices 1 2 3 4 5 6 
#
# 1 0.013662 -0.002334 -0.001015 0.000000 0.000000 0.000000
# 2 -0.002334 0.013662 -0.001016 0.000000 0.000000 0.000000
# 3 -0.001015 -0.001016 0.009251 0.000000 0.000000 0.000000
# 4 0.000000 0.000000 0.000000 0.005618 0.000000 0.000000
# 5 0.000000 0.000000 0.000000 0.000000 0.005619 0.000000
# 6 0.000000 0.000000 0.000000 0.000000 0.000000 0.098572
#
#
# Mechanical properties :
#
#
# Convention : Reuss Voigt Hill
#
# Bulk Modulus (GPa) = 35.91347 36.65610 36.28478
# Shear Modulus (GPa) = 30.41439 88.50772 59.46106
#
# Velocity S-wave (km/s) = 3.74358 6.38614 5.23437
# Velocity P-wave (km/s) = 5.93584 8.44201 7.29732
#
# Compressibility (1/GPa) = 0.02784471
#
# Stress axis : x y z
#
# Youngs Moduli (GPa) = 73.19630 73.19600 108.09286
#
# Poissons Ratio (x) = 0.17086 0.10976
# Poissons Ratio (y) = 0.17086 0.10977
# Poissons Ratio (z) = 0.07433 0.07433
#
# Static dielectric constant tensor:
#      x y z
#    x 1.950290 0.000000 0.000000 
#    y 0.000000 1.950300 0.000000 
#    z 0.000000 0.000000 1.887760 
# 
# From -- ./inp_files/6549.got.cif
#   From: 2010.05.17/outbox.cif.g08.bks.cpg/sg133_4_cif.got.tgz:6549.got - 2010.05.20 12:37:36.
