data_PCOD9567359
_publ_section_title
;
Structure prediction by ZEFSAII (Michael W. Deem and Ramdas Pophale) SiO2 
 PCOD9567359
Probable space group: P 42/M C M
;
_chemical_formula_sum "Si O2"
_cell_formula_units_Z 58
_cell_length_a 17.233240
_cell_length_b 17.233240
_cell_length_c 9.739119
_cell_angle_alpha 90.000000
_cell_angle_beta 90.000000
_cell_angle_gamma 90.000000
_cell_volume 2892.367980
_symmetry_space_group_name_H-M "P 42/M C M"
_symmetry_group_IT_number 132
_symmetry_cell_setting 'tetragonal'
loop_
_space_group_symop_operation_xyz
x,y,z
-y,x,1/2+z
-x,-y,z
y,-x,1/2+z
x,-y,1/2-z
-x,y,1/2-z
y,x,-z
-y,-x,-z
-x,-y,-z
y,-x,1/2-z
x,y,-z
-y,x,1/2-z
-x,y,1/2+z
x,-y,1/2+z
-y,-x,z
y,x,z
loop_
_atom_site_type_symbol
_atom_site_label
_atom_site_fract_x
_atom_site_fract_y
_atom_site_fract_z
Si Si1 0.737375 0.612232 0.000000
Si Si2 0.585401 0.181814 0.221551
Si Si3 0.313906 0.556491 0.000000
Si Si4 0.126004 0.873996 0.336662
Si Si5 0.000000 0.000000 0.750000
Si Si6 0.275636 0.928662 0.840346
O O1 0.791103 0.611752 0.869152
O O2 0.681004 0.536691 0.000000
O O3 0.687385 0.687385 0.000000
O O4 0.500000 0.145637 0.250000
O O5 0.574875 0.259125 0.130092
O O6 0.653079 0.131137 0.156993
O O7 0.391103 0.608898 0.000000
O O8 0.140725 0.859275 0.500000
O O9 0.099150 0.798244 0.249997
O O10 0.059172 0.940829 0.327350
O O11 0.305944 0.000000 0.750000
O O12 0.253621 0.946063 0.000000
#
# Coordination Sequence:
#
# PCOD9567359 Si02
#       6
#     8  16   8   8   2  16
#     4  10  22  37  61  97 129 171 223 275 331 389
#     4  10  23  42  64  93 132 176 223 273 336 398
#     4  10  20  39  63  91 129 177 219 269 335 401
#     4  12  28  47  74 107 137 178 223 277 337 410
#     4  12  26  52  80  94 154 180 206 272 354 392
#     4  12  27  45  68 101 135 174 227 275 337 405
#
# _framework density 20.052772000000001
#
# number of rings (size 3 to 8) (size 9 to 14) (size 15 to 20)
#    0.000    1.103    2.759    2.276    7.724    1.931 
#    0.000    1.379    0.000    4.966    0.000    0.000 
#    0.000    0.000    0.000    0.000    0.000    0.000 
#
# Total GULP energy -323486.035782 kJ/mol
# GULP energy per Si atom -5577.345445 kJ/mol
# Density = 2.000713 g / cm^3
# Si number density = 20.052772 Si / 1000 Ang^3
#
#
#
# Elastic Constant Matrix: (Units=GPa)
#
#
# Indices 1 2 3 4 5 6 
#
# 1 59.4601 32.7765 26.8983 0.0000 0.0000 0.0000
# 2 32.7765 59.4614 26.8982 0.0000 0.0000 0.0000
# 3 26.8983 26.8982 194.9709 0.0000 0.0000 0.0000
# 4 0.0000 0.0000 0.0000 29.0608 0.0000 0.0000
# 5 0.0000 0.0000 0.0000 0.0000 29.0615 0.0000
# 6 0.0000 0.0000 0.0000 0.0000 0.0000 35.2520
#
#
#
# Elastic Compliance Matrix: (Units=1/GPa)
#
#
# Indices 1 2 3 4 5 6 
#
# 1 0.024633 -0.012842 -0.001627 0.000000 0.000000 0.000000
# 2 -0.012842 0.024632 -0.001627 0.000000 0.000000 0.000000
# 3 -0.001627 -0.001627 0.005578 0.000000 0.000000 0.000000
# 4 0.000000 0.000000 0.000000 0.034411 0.000000 0.000000
# 5 0.000000 0.000000 0.000000 0.000000 0.034410 0.000000
# 6 0.000000 0.000000 0.000000 0.000000 0.000000 0.028367
#
#
# Mechanical properties :
#
#
# Convention : Reuss Voigt Hill
#
# Bulk Modulus (GPa) = 44.14618 54.11537 49.13077
# Shear Modulus (GPa) = 26.07250 33.82948 29.95099
#
# Velocity S-wave (km/s) = 3.60973 4.11179 3.86892
# Velocity P-wave (km/s) = 6.27984 7.04184 6.67173
#
# Compressibility (1/GPa) = 0.02265202
#
# Stress axis : x y z
#
# Youngs Moduli (GPa) = 40.59583 40.59679 179.28277
#
# Poissons Ratio (x) = 0.52136 0.29163
# Poissons Ratio (y) = 0.52135 0.29161
# Poissons Ratio (z) = 0.06603 0.06603
#
# Static dielectric constant tensor:
#      x y z
#    x 1.743860 0.000000 0.000000 
#    y 0.000000 1.743860 0.000000 
#    z 0.000000 0.000000 1.740730 
# 
# From -- ./inp_files/1054.got.cif
#   From: 2010.05.17/outbox.cif.g08.bks.cpg/sg132_1_cif.got.tgz:1054.got - 2010.05.20 12:30:18.
