data_PCOD9567343
_publ_section_title
;
Structure prediction by ZEFSAII (Michael W. Deem and Ramdas Pophale) SiO2 
 PCOD9567343
Probable space group: P 42/M C M
;
_chemical_formula_sum "Si O2"
_cell_formula_units_Z 58
_cell_length_a 17.977179
_cell_length_b 17.977179
_cell_length_c 10.163629
_cell_angle_alpha 90.000000
_cell_angle_beta 90.000000
_cell_angle_gamma 90.000000
_cell_volume 3284.671099
_symmetry_space_group_name_H-M "P 42/M C M"
_symmetry_group_IT_number 132
_symmetry_cell_setting 'tetragonal'
loop_
_space_group_symop_operation_xyz
x,y,z
-y,x,1/2+z
-x,-y,z
y,-x,1/2+z
x,-y,1/2-z
-x,y,1/2-z
y,x,-z
-y,-x,-z
-x,-y,-z
y,-x,1/2-z
x,y,-z
-y,x,1/2-z
-x,y,1/2+z
x,-y,1/2+z
-y,-x,z
y,x,z
loop_
_atom_site_type_symbol
_atom_site_label
_atom_site_fract_x
_atom_site_fract_y
_atom_site_fract_z
Si Si1 0.500000 0.500000 0.750000
Si Si2 0.433506 0.780016 0.344085
Si Si3 0.772277 0.101527 0.000000
Si Si4 0.811144 0.931110 0.000000
Si Si5 0.617203 0.382798 0.653335
Si Si6 0.153619 0.277663 0.225050
O O1 0.554572 0.445429 0.670610
O O2 0.500000 0.805816 0.250000
O O3 0.453413 0.777674 0.500000
O O4 0.411295 0.696477 0.295441
O O5 0.359857 0.829194 0.325348
O O6 0.725244 0.117895 0.130840
O O7 0.839512 0.160489 0.000000
O O8 0.806491 0.019385 0.000000
O O9 0.767221 0.899178 0.874115
O O10 0.892383 0.892383 0.000000
O O11 0.630977 0.369024 0.500000
O O12 0.230905 0.230905 0.227664
#
# Coordination Sequence:
#
# PCOD9567343 Si02
#       6
#     2  16   8   8   8  16
#     4  12  18  36  44  82 116 156 170 240 330 372
#     4  11  22  37  57  83 112 153 201 249 291 340
#     4  10  22  37  59  95 127 149 187 241 293 347
#     4  10  20  37  65  91 117 161 193 225 289 359
#     4  10  21  33  51  74 113 151 189 233 291 362
#     4  10  20  37  60  85 118 159 202 240 284 351
#
# _framework density 17.657781
#
# number of rings (size 3 to 8) (size 9 to 14) (size 15 to 20)
#    0.000    1.655    4.138    1.034    1.931    0.276 
#    0.000    0.690    0.000    9.931    0.000    0.000 
#    0.000    0.000    0.000    0.000    0.000    0.000 
#
# Total GULP energy -323566.425873 kJ/mol
# GULP energy per Si atom -5578.731481 kJ/mol
# Density = 1.761759 g / cm^3
# Si number density = 17.657781 Si / 1000 Ang^3
#
#
#
# Elastic Constant Matrix: (Units=GPa)
#
#
# Indices 1 2 3 4 5 6 
#
# 1 65.7334 3.0497 14.1163 0.0000 0.0000 0.0000
# 2 3.0497 65.7336 14.1164 0.0000 0.0000 0.0000
# 3 14.1163 14.1164 106.1851 0.0000 0.0000 0.0000
# 4 0.0000 0.0000 0.0000 11.3497 0.0000 0.0000
# 5 0.0000 0.0000 0.0000 0.0000 11.3477 0.0000
# 6 0.0000 0.0000 0.0000 0.0000 0.0000 2.2182
#
#
#
# Elastic Compliance Matrix: (Units=1/GPa)
#
#
# Indices 1 2 3 4 5 6 
#
# 1 0.015665 -0.000288 -0.002044 0.000000 0.000000 0.000000
# 2 -0.000288 0.015665 -0.002044 0.000000 0.000000 0.000000
# 3 -0.002044 -0.002044 0.009961 0.000000 0.000000 0.000000
# 4 0.000000 0.000000 0.000000 0.088108 0.000000 0.000000
# 5 0.000000 0.000000 0.000000 0.000000 0.088123 0.000000
# 6 0.000000 0.000000 0.000000 0.000000 0.000000 0.450819
#
#
# Mechanical properties :
#
#
# Convention : Reuss Voigt Hill
#
# Bulk Modulus (GPa) = 30.73243 33.35744 32.04494
# Shear Modulus (GPa) = 7.26807 18.74110 13.00458
#
# Velocity S-wave (km/s) = 2.03101 3.26137 2.71676
# Velocity P-wave (km/s) = 4.78981 5.75449 5.29417
#
# Compressibility (1/GPa) = 0.03253892
#
# Stress axis : x y z
#
# Youngs Moduli (GPa) = 63.83528 63.83538 100.39091
#
# Poissons Ratio (x) = 0.01837 0.20523
# Poissons Ratio (y) = 0.01837 0.20523
# Poissons Ratio (z) = 0.13050 0.13050
#
# Static dielectric constant tensor:
#      x y z
#    x 1.592120 0.000000 0.000000 
#    y 0.000000 1.592120 0.000000 
#    z 0.000000 0.000000 1.609330 
# 
# From -- ./inp_files/1050.got.cif
#   From: 2010.05.17/outbox.cif.g08.bks.cpg/sg132_1_cif.got.tgz:1050.got - 2010.05.20 12:30:18.
