data_PCOD9567721
_publ_section_title
;
Structure prediction by ZEFSAII (Michael W. Deem and Ramdas Pophale) SiO2 
 PCOD9567721
Probable space group: P 42/N B C
;
_chemical_formula_sum "Si O2"
_cell_formula_units_Z 96
_cell_length_a 17.717295
_cell_length_b 17.717295
_cell_length_c 15.024721
_cell_angle_alpha 90.000000
_cell_angle_beta 90.000000
_cell_angle_gamma 90.000000
_cell_volume 4716.298116
_symmetry_space_group_name_H-M "P 42/N B C"
_symmetry_group_IT_number 133
_space_group.IT_coordinate_system_code '2'
_symmetry_cell_setting 'tetragonal'
loop_
_space_group_symop_operation_xyz
x,y,z
1/2-y,x,1/2+z
1/2-x,1/2-y,z
y,1/2-x,1/2+z
x,1/2-y,-z
1/2-x,y,-z
y,x,1/2-z
1/2-y,1/2-x,1/2-z
-x,-y,-z
1/2+y,-x,1/2-z
1/2+x,1/2+y,-z
-y,1/2+x,1/2-z
-x,1/2+y,z
1/2+x,-y,z
-y,-x,1/2+z
1/2+y,1/2+x,1/2+z
loop_
_atom_site_type_symbol
_atom_site_label
_atom_site_fract_x
_atom_site_fract_y
_atom_site_fract_z
Si Si1 0.869337 0.074279 0.155761
Si Si2 0.100434 0.907867 0.646019
Si Si3 0.511618 0.776187 0.396930
Si Si4 0.074152 0.079964 0.860332
Si Si5 0.758098 0.166297 0.605123
Si Si6 0.171650 0.283356 0.351492
O O1 0.911487 0.083151 0.248915
O O2 0.784521 0.038938 0.158964
O O3 0.864738 0.158249 0.119448
O O4 0.910273 0.005069 0.107248
O O5 0.035910 0.853144 0.608957
O O6 0.185211 0.877261 0.638564
O O7 0.101217 0.991782 0.608284
O O8 0.512515 0.750000 0.500000
O O9 0.598017 0.771660 0.360281
O O10 0.079199 0.079199 0.750000
O O11 0.139103 0.137432 0.891471
O O12 0.750000 0.250000 0.644088
O O13 0.750000 0.171184 0.500000
O O14 0.250000 0.250000 0.389552
O O15 0.194016 0.305985 0.250000
#
# Coordination Sequence:
#
# PCOD9567721 Si02
#       6
#    16  16  16  16  16  16
#     4  10  20  37  59  85 117 160 200 251 301 370
#     4  11  21  37  62  89 118 160 209 256 309 379
#     4  11  22  39  63  92 126 172 209 254 333 392
#     4   8  18  37  58  87 121 148 191 262 306 344
#     4  11  22  35  54  82 120 155 193 242 297 359
#     4   9  19  40  65  90 122 166 214 266 309 374
#
# _framework density 20.354946000000002
#
# number of rings (size 3 to 8) (size 9 to 14) (size 15 to 20)
#    0.000    2.000    1.667    3.000    0.000    0.333 
#   12.000    7.500    0.000    0.000    0.000    0.000 
#    0.000    0.000    0.000    0.000    0.000    0.000 
#
# Total GULP energy -534684.278324 kJ/mol
# GULP energy per Si atom -5569.627899 kJ/mol
# Density = 2.030862 g / cm^3
# Si number density = 20.354946 Si / 1000 Ang^3
#
#
#
# Elastic Constant Matrix: (Units=GPa)
#
#
# Indices 1 2 3 4 5 6 
#
# 1 168.5685 108.5519 7.5445 0.0000 0.0000 0.0000
# 2 108.5519 168.5686 7.5443 0.0000 0.0000 0.0000
# 3 7.5445 7.5443 48.0143 0.0000 0.0000 0.0000
# 4 0.0000 0.0000 0.0000 2.6961 0.0000 0.0000
# 5 0.0000 0.0000 0.0000 0.0000 2.6970 0.0000
# 6 0.0000 0.0000 0.0000 0.0000 0.0000 28.4816
#
#
#
# Elastic Compliance Matrix: (Units=1/GPa)
#
#
# Indices 1 2 3 4 5 6 
#
# 1 0.010151 -0.006511 -0.000572 0.000000 0.000000 0.000000
# 2 -0.006511 0.010151 -0.000572 0.000000 0.000000 0.000000
# 3 -0.000572 -0.000572 0.021007 0.000000 0.000000 0.000000
# 4 0.000000 0.000000 0.000000 0.370909 0.000000 0.000000
# 5 0.000000 0.000000 0.000000 0.000000 0.370785 0.000000
# 6 0.000000 0.000000 0.000000 0.000000 0.000000 0.035110
#
#
# Mechanical properties :
#
#
# Convention : Reuss Voigt Hill
#
# Bulk Modulus (GPa) = 38.46356 70.27031 54.36693
# Shear Modulus (GPa) = 5.93761 24.20897 15.07329
#
# Velocity S-wave (km/s) = 1.70979 3.45242 2.72421
# Velocity P-wave (km/s) = 4.77863 7.10561 6.05496
#
# Compressibility (1/GPa) = 0.02599863
#
# Stress axis : x y z
#
# Youngs Moduli (GPa) = 98.51373 98.51387 47.60348
#
# Poissons Ratio (x) = 0.64144 0.02723
# Poissons Ratio (y) = 0.64144 0.02722
# Poissons Ratio (z) = 0.05634 0.05634
#
# Static dielectric constant tensor:
#      x y z
#    x 1.680780 0.000000 0.000000 
#    y 0.000000 1.680780 0.000000 
#    z 0.000000 0.000000 1.732160 
# 
# From -- ./inp_files/5502.got.cif
#   From: 2010.05.17/outbox.cif.g08.bks.cpg/sg133_3_cif.got.tgz:5502.got - 2010.05.20 12:37:36.
