data_PCOD9567970
_publ_section_title
;
Structure prediction by ZEFSAII (Michael W. Deem and Ramdas Pophale) SiO2 
 PCOD9567970
Probable space group: P 42/N B C
;
_chemical_formula_sum "Si O2"
_cell_formula_units_Z 60
_cell_length_a 12.063512
_cell_length_b 12.063512
_cell_length_c 17.766169
_cell_angle_alpha 90.000000
_cell_angle_beta 90.000000
_cell_angle_gamma 90.000000
_cell_volume 2585.480759
_symmetry_space_group_name_H-M "P 42/N B C"
_symmetry_group_IT_number 133
_space_group.IT_coordinate_system_code '2'
_symmetry_cell_setting 'tetragonal'
loop_
_space_group_symop_operation_xyz
x,y,z
1/2-y,x,1/2+z
1/2-x,1/2-y,z
y,1/2-x,1/2+z
x,1/2-y,-z
1/2-x,y,-z
y,x,1/2-z
1/2-y,1/2-x,1/2-z
-x,-y,-z
1/2+y,-x,1/2-z
1/2+x,1/2+y,-z
-y,1/2+x,1/2-z
-x,1/2+y,z
1/2+x,-y,z
-y,-x,1/2+z
1/2+y,1/2+x,1/2+z
loop_
_atom_site_type_symbol
_atom_site_label
_atom_site_fract_x
_atom_site_fract_y
_atom_site_fract_z
Si Si1 0.458825 0.750000 0.500000
Si Si2 0.750000 0.750000 0.848641
Si Si3 0.250000 0.750000 0.750000
Si Si4 0.127260 0.604594 0.141777
Si Si5 0.609973 0.609973 0.250000
Si Si6 0.595323 0.862611 0.048683
O O1 0.397159 0.726659 0.420839
O O2 0.530471 0.636244 0.503804
O O3 0.860722 0.712825 0.805197
O O4 0.704813 0.652932 0.899990
O O5 0.152183 0.794370 0.802365
O O6 0.118250 0.497187 0.196967
O O7 0.012766 0.619629 0.097706
O O8 0.583916 0.750000 0.000000
#
# Coordination Sequence:
#
# PCOD9567970 Si02
#       6
#     8   8   4  16   8  16
#     4  12  25  47  74 114 144 198 258 314 380 458
#     4  11  21  44  76 107 148 189 250 311 378 451
#     4  12  32  50  64 108 156 206 252 308 400 450
#     4  12  29  46  76 107 157 198 254 312 386 460
#     4  11  24  44  74 109 142 196 244 315 380 448
#     4  12  23  45  76 111 146 195 251 315 378 454
#
# _framework density 23.206513999999999
#
# number of rings (size 3 to 8) (size 9 to 14) (size 15 to 20)
#    0.000    0.267    5.333    2.400    7.467    2.133 
#    0.000    0.000    0.000    0.000    0.000    0.000 
#    0.000    0.000    0.000    0.000    0.000    0.000 
#
# Total GULP energy -334709.552986 kJ/mol
# GULP energy per Si atom -5578.492550 kJ/mol
# Density = 2.315370 g / cm^3
# Si number density = 23.206514 Si / 1000 Ang^3
#
#
#
# Elastic Constant Matrix: (Units=GPa)
#
#
# Indices 1 2 3 4 5 6 
#
# 1 96.2976 29.8664 50.1806 0.0000 0.0000 0.0000
# 2 29.8664 96.2976 50.1806 0.0000 0.0000 0.0000
# 3 50.1806 50.1806 124.9567 0.0000 0.0000 0.0000
# 4 0.0000 0.0000 0.0000 -6.2709 0.0000 0.0000
# 5 0.0000 0.0000 0.0000 0.0000 -6.2709 0.0000
# 6 0.0000 0.0000 0.0000 0.0000 0.0000 20.6710
#
#
#
# Elastic Compliance Matrix: (Units=1/GPa)
#
#
# Indices 1 2 3 4 5 6 
#
# 1 0.013350 -0.001703 -0.004677 0.000000 0.000000 0.000000
# 2 -0.001703 0.013350 -0.004677 0.000000 0.000000 0.000000
# 3 -0.004677 -0.004677 0.011759 0.000000 0.000000 0.000000
# 4 0.000000 0.000000 0.000000 -0.159466 0.000000 0.000000
# 5 0.000000 0.000000 0.000000 0.000000 -0.159466 0.000000
# 6 0.000000 0.000000 0.000000 0.000000 0.000000 0.048377
#
#
# Mechanical properties :
#
#
# Convention : Reuss Voigt Hill
#
# Bulk Modulus (GPa) = 61.18362 64.22302 62.70332
# Shear Modulus (GPa) = -24.44587 14.11412 -5.16587
#
# Velocity S-wave (km/s) = -3.24914 2.46884 -1.49361
# Velocity P-wave (km/s) = 3.51371 5.98845 4.90957
#
# Compressibility (1/GPa) = 0.01634424
#
# Stress axis : x y z
#
# Youngs Moduli (GPa) = 74.90651 74.90651 85.03893
#
# Poissons Ratio (x) = 0.12758 0.39774
# Poissons Ratio (y) = 0.12758 0.39774
# Poissons Ratio (z) = 0.35035 0.35035
#
# Static dielectric constant tensor:
#      x y z
#    x 1.864000 0.000000 0.000000 
#    y 0.000000 1.864000 0.000000 
#    z 0.000000 0.000000 2.014520 
# 
# From -- ./inp_files/6226.got.cif
#   From: 2010.05.17/outbox.cif.g08.bks.cpg/sg133_4_cif.got.tgz:6226.got - 2010.05.20 12:37:36.
