data_PCOD9567824
_publ_section_title
;
Structure prediction by ZEFSAII (Michael W. Deem and Ramdas Pophale) SiO2 
 PCOD9567824
Probable space group: P 42/N B C
;
_chemical_formula_sum "Si O2"
_cell_formula_units_Z 52
_cell_length_a 16.171942
_cell_length_b 16.171942
_cell_length_c 8.370370
_cell_angle_alpha 90.000000
_cell_angle_beta 90.000000
_cell_angle_gamma 90.000000
_cell_volume 2189.117163
_symmetry_space_group_name_H-M "P 42/N B C"
_symmetry_group_IT_number 133
_space_group.IT_coordinate_system_code '2'
_symmetry_cell_setting 'tetragonal'
loop_
_space_group_symop_operation_xyz
x,y,z
1/2-y,x,1/2+z
1/2-x,1/2-y,z
y,1/2-x,1/2+z
x,1/2-y,-z
1/2-x,y,-z
y,x,1/2-z
1/2-y,1/2-x,1/2-z
-x,-y,-z
1/2+y,-x,1/2-z
1/2+x,1/2+y,-z
-y,1/2+x,1/2-z
-x,1/2+y,z
1/2+x,-y,z
-y,-x,1/2+z
1/2+y,1/2+x,1/2+z
loop_
_atom_site_type_symbol
_atom_site_label
_atom_site_fract_x
_atom_site_fract_y
_atom_site_fract_z
Si Si1 0.580026 0.494789 0.609285
Si Si2 0.457075 0.808096 0.660979
Si Si3 0.852837 0.647164 0.750000
Si Si4 0.468681 0.750000 0.000000
Si Si5 0.750000 0.750000 0.000000
O O1 0.556223 0.556223 0.750000
O O2 0.500000 0.500000 0.500000
O O3 0.587049 0.396728 0.642610
O O4 0.666708 0.519029 0.535208
O O5 0.452107 0.750000 0.500000
O O6 0.552044 0.833820 0.701581
O O7 0.425546 0.767848 0.828049
O O8 0.811118 0.695506 0.895104
#
# Coordination Sequence:
#
# PCOD9567824 Si02
#       5
#    16  16   8   8   4
#     4  12  24  49  79 113 158 212 271 328 408 486
#     4  12  25  44  74 108 152 204 265 329 397 480
#     4  11  20  40  60 100 146 200 250 313 396 476
#     4  12  27  46  77 115 147 202 272 334 395 481
#     4  10  22  34  60  98 154 196 258 326 392 476
#
# _framework density 23.753868000000001
#
# number of rings (size 3 to 8) (size 9 to 14) (size 15 to 20)
#    0.000    0.308    6.154    2.769    0.000    0.000 
#    5.538    0.769    0.000    0.000    0.000    0.000 
#    0.000    0.000    0.000    0.000    0.000    0.000 
#
# Total GULP energy -290334.302741 kJ/mol
# GULP energy per Si atom -5583.351976 kJ/mol
# Density = 2.369980 g / cm^3
# Si number density = 23.753868 Si / 1000 Ang^3
#
#
#
# Elastic Constant Matrix: (Units=GPa)
#
#
# Indices 1 2 3 4 5 6 
#
# 1 169.0913 29.4973 54.9290 0.0000 0.0000 0.0000
# 2 29.4973 169.0902 54.9288 0.0000 0.0000 0.0000
# 3 54.9290 54.9288 185.6535 0.0000 0.0000 0.0000
# 4 0.0000 0.0000 0.0000 37.4282 0.0000 0.0000
# 5 0.0000 0.0000 0.0000 0.0000 37.4272 0.0000
# 6 0.0000 0.0000 0.0000 0.0000 0.0000 26.9221
#
#
#
# Elastic Compliance Matrix: (Units=1/GPa)
#
#
# Indices 1 2 3 4 5 6 
#
# 1 0.006592 -0.000571 -0.001781 0.000000 0.000000 0.000000
# 2 -0.000571 0.006592 -0.001781 0.000000 0.000000 0.000000
# 3 -0.001781 -0.001781 0.006441 0.000000 0.000000 0.000000
# 4 0.000000 0.000000 0.000000 0.026718 0.000000 0.000000
# 5 0.000000 0.000000 0.000000 0.000000 0.026719 0.000000
# 6 0.000000 0.000000 0.000000 0.000000 0.000000 0.037144
#
#
# Mechanical properties :
#
#
# Convention : Reuss Voigt Hill
#
# Bulk Modulus (GPa) = 88.05258 89.17171 88.61214
# Shear Modulus (GPa) = 40.89650 45.98746 43.44198
#
# Velocity S-wave (km/s) = 4.15381 4.40477 4.28113
# Velocity P-wave (km/s) = 7.75595 7.96811 7.86274
#
# Compressibility (1/GPa) = 0.01135685
#
# Stress axis : x y z
#
# Youngs Moduli (GPa) = 151.69156 151.69059 155.26705
#
# Poissons Ratio (x) = 0.08666 0.27660
# Poissons Ratio (y) = 0.08666 0.27660
# Poissons Ratio (z) = 0.27023 0.27023
#
# Static dielectric constant tensor:
#      x y z
#    x 1.077950 0.000000 0.000000 
#    y 0.000000 1.081140 0.000000 
#    z 0.000000 0.000000 2.057450 
# 
# From -- ./inp_files/1239.got.cif
#   From: 2010.05.17/outbox.cif.g08.bks.cpg/sg133_1_cif.got.tgz:1239.got - 2010.05.20 12:37:36.
