data_PCOD9567788
_publ_section_title
;
Structure prediction by ZEFSAII (Michael W. Deem and Ramdas Pophale) SiO2 
 PCOD9567788
Probable space group: P 42/N B C
;
_chemical_formula_sum "Si O2"
_cell_formula_units_Z 36
_cell_length_a 8.804689
_cell_length_b 8.804689
_cell_length_c 19.710983
_cell_angle_alpha 90.000000
_cell_angle_beta 90.000000
_cell_angle_gamma 90.000000
_cell_volume 1528.045633
_symmetry_space_group_name_H-M "P 42/N B C"
_symmetry_group_IT_number 133
_space_group.IT_coordinate_system_code '2'
_symmetry_cell_setting 'tetragonal'
loop_
_space_group_symop_operation_xyz
x,y,z
1/2-y,x,1/2+z
1/2-x,1/2-y,z
y,1/2-x,1/2+z
x,1/2-y,-z
1/2-x,y,-z
y,x,1/2-z
1/2-y,1/2-x,1/2-z
-x,-y,-z
1/2+y,-x,1/2-z
1/2+x,1/2+y,-z
-y,1/2+x,1/2-z
-x,1/2+y,z
1/2+x,-y,z
-y,-x,1/2+z
1/2+y,1/2+x,1/2+z
loop_
_atom_site_type_symbol
_atom_site_label
_atom_site_fract_x
_atom_site_fract_y
_atom_site_fract_z
Si Si1 0.750000 0.750000 0.250000
Si Si2 0.457400 0.290370 0.628387
Si Si3 0.497446 0.302256 0.075700
O O1 0.599275 0.755688 0.296901
O O2 0.342534 0.429317 0.613352
O O3 0.414937 0.150192 0.578827
O O4 0.618655 0.362735 0.613017
O O5 0.533523 0.250000 0.000000
#
# Coordination Sequence:
#
# PCOD9567788 Si02
#       3
#     4  16  16
#     4   8  20  40  62  90 124 170 220 270 348 390
#     4  10  21  38  62  90 133 172 217 285 327 406
#     4  10  21  38  59  91 129 172 218 269 334 394
#
# _framework density 23.559502999999999
#
# number of rings (size 3 to 8) (size 9 to 14) (size 15 to 20)
#    0.000    2.667    0.000    4.000    0.000    8.889 
#    0.000    4.444    0.000   21.333    0.000    0.000 
#    0.000    0.000    0.000    0.000    0.000    0.000 
#
# Total GULP energy -201055.107891 kJ/mol
# GULP energy per Si atom -5584.864108 kJ/mol
# Density = 2.350588 g / cm^3
# Si number density = 23.559503 Si / 1000 Ang^3
#
#
#
# Elastic Constant Matrix: (Units=GPa)
#
#
# Indices 1 2 3 4 5 6 
#
# 1 85.4682 104.6234 46.5502 0.0000 0.0000 0.0000
# 2 104.6234 85.4682 46.5502 0.0000 0.0000 0.0000
# 3 46.5502 46.5502 151.1907 0.0000 0.0000 0.0000
# 4 0.0000 0.0000 0.0000 31.0542 0.0000 0.0000
# 5 0.0000 0.0000 0.0000 0.0000 31.0542 0.0000
# 6 0.0000 0.0000 0.0000 0.0000 0.0000 82.9063
#
#
#
# Elastic Compliance Matrix: (Units=1/GPa)
#
#
# Indices 1 2 3 4 5 6 
#
# 1 -0.023005 0.029200 -0.001907 0.000000 0.000000 0.000000
# 2 0.029200 -0.023005 -0.001907 0.000000 0.000000 0.000000
# 3 -0.001907 -0.001907 0.007789 0.000000 0.000000 0.000000
# 4 0.000000 0.000000 0.000000 0.032202 0.000000 0.000000
# 5 0.000000 0.000000 0.000000 0.000000 0.032202 0.000000
# 6 0.000000 0.000000 0.000000 0.000000 0.000000 0.012062
#
#
# Mechanical properties :
#
#
# Convention : Reuss Voigt Hill
#
# Bulk Modulus (GPa) = 79.68810 79.73055 79.70933
# Shear Modulus (GPa) = -599.23348 37.29648 -280.96850
#
# Velocity S-wave (km/s) = -15.96562 3.98310 -10.93243
# Velocity P-wave (km/s) = 17.49201 7.42086 11.20048
#
# Compressibility (1/GPa) = 0.01254893
#
# Stress axis : x y z
#
# Youngs Moduli (GPa) = -43.46845 -43.46845 128.39196
#
# Poissons Ratio (x) = 1.26928 0.24488
# Poissons Ratio (y) = 1.26928 0.24488
# Poissons Ratio (z) = -0.08291 -0.08291
#
# Static dielectric constant tensor:
#      x y z
#    x 1.949940 0.000000 0.000000 
#    y 0.000000 1.949940 0.000000 
#    z 0.000000 0.000000 1.919060 
# 
# From -- ./inp_files/5845.got.cif
#   From: 2010.05.17/outbox.cif.g08.bks.cpg/sg133_3_cif.got.tgz:5845.got - 2010.05.20 12:37:36.
