data_PCOD9567918
_publ_section_title
;
Structure prediction by ZEFSAII (Michael W. Deem and Ramdas Pophale) SiO2 
 PCOD9567918
Probable space group: P 42/N B C
;
_chemical_formula_sum "Si O2"
_cell_formula_units_Z 88
_cell_length_a 15.092282
_cell_length_b 15.092282
_cell_length_c 18.478349
_cell_angle_alpha 90.000000
_cell_angle_beta 90.000000
_cell_angle_gamma 90.000000
_cell_volume 4208.942456
_symmetry_space_group_name_H-M "P 42/N B C"
_symmetry_group_IT_number 133
_space_group.IT_coordinate_system_code '2'
_symmetry_cell_setting 'tetragonal'
loop_
_space_group_symop_operation_xyz
x,y,z
1/2-y,x,1/2+z
1/2-x,1/2-y,z
y,1/2-x,1/2+z
x,1/2-y,-z
1/2-x,y,-z
y,x,1/2-z
1/2-y,1/2-x,1/2-z
-x,-y,-z
1/2+y,-x,1/2-z
1/2+x,1/2+y,-z
-y,1/2+x,1/2-z
-x,1/2+y,z
1/2+x,-y,z
-y,-x,1/2+z
1/2+y,1/2+x,1/2+z
loop_
_atom_site_type_symbol
_atom_site_label
_atom_site_fract_x
_atom_site_fract_y
_atom_site_fract_z
Si Si1 0.750000 0.250000 0.750000
Si Si2 0.431648 0.681186 0.192538
Si Si3 0.750000 0.750000 0.250000
Si Si4 0.848173 0.479764 0.525911
Si Si5 0.941878 0.736532 0.680749
Si Si6 0.078721 0.018568 0.180779
Si Si7 0.084155 0.988290 0.925285
O O1 0.771717 0.338061 0.704915
O O2 0.450559 0.670796 0.108001
O O3 0.505889 0.726096 0.242600
O O4 0.429328 0.578493 0.215830
O O5 0.759143 0.837802 0.199447
O O6 0.750000 0.504613 0.500000
O O7 0.923348 0.556038 0.530395
O O8 0.901607 0.407453 0.476646
O O9 0.971565 0.827601 0.643348
O O10 0.978991 0.660565 0.628376
O O11 0.081691 0.081691 0.250000
O O12 0.999023 0.034543 0.126763
#
# Coordination Sequence:
#
# PCOD9567918 Si02
#       7
#     4  16   4  16  16  16  16
#     4  12  24  40  70 108 132 164 230 276 352 400
#     4  11  24  42  67 103 133 176 222 285 337 408
#     4  12  24  36  60 108 130 176 232 290 344 388
#     4  10  24  42  69  93 138 190 225 274 353 416
#     4  12  24  40  69 101 137 170 233 291 335 402
#     4  11  21  39  67  95 129 173 219 281 341 391
#     4  10  24  46  64 100 137 180 231 281 340 413
#
# _framework density 20.907865000000001
#
# number of rings (size 3 to 8) (size 9 to 14) (size 15 to 20)
#    0.000    1.091    4.545    2.182    5.091    1.455 
#    0.000   12.273    0.000    5.455    0.000    0.000 
#    0.000    0.000    0.000    0.000    0.000    0.000 
#
# Total GULP energy -490738.390381 kJ/mol
# GULP energy per Si atom -5576.572618 kJ/mol
# Density = 2.086028 g / cm^3
# Si number density = 20.907865 Si / 1000 Ang^3
#
#
#
# Elastic Constant Matrix: (Units=GPa)
#
#
# Indices 1 2 3 4 5 6 
#
# 1 112.5603 5.1625 54.6191 0.0000 0.0000 0.0000
# 2 5.1625 112.5603 54.6191 0.0000 0.0000 0.0000
# 3 54.6191 54.6191 104.6811 0.0000 0.0000 0.0000
# 4 0.0000 0.0000 0.0000 8.5293 0.0000 0.0000
# 5 0.0000 0.0000 0.0000 0.0000 8.5293 0.0000
# 6 0.0000 0.0000 0.0000 0.0000 0.0000 20.4940
#
#
#
# Elastic Compliance Matrix: (Units=1/GPa)
#
#
# Indices 1 2 3 4 5 6 
#
# 1 0.012889 0.003578 -0.008592 0.000000 0.000000 0.000000
# 2 0.003578 0.012889 -0.008592 0.000000 0.000000 0.000000
# 3 -0.008592 -0.008592 0.018519 0.000000 0.000000 0.000000
# 4 0.000000 0.000000 0.000000 0.117243 0.000000 0.000000
# 5 0.000000 0.000000 0.000000 0.000000 0.117243 0.000000
# 6 0.000000 0.000000 0.000000 0.000000 0.000000 0.048795
#
#
# Mechanical properties :
#
#
# Convention : Reuss Voigt Hill
#
# Bulk Modulus (GPa) = 58.52998 62.06702 60.29850
# Shear Modulus (GPa) = 13.87015 21.87057 17.87036
#
# Velocity S-wave (km/s) = 2.57844 3.23777 2.92673
# Velocity P-wave (km/s) = 6.07614 6.61271 6.35010
#
# Compressibility (1/GPa) = 0.01708526
#
# Stress axis : x y z
#
# Youngs Moduli (GPa) = 77.58364 77.58364 53.99848
#
# Poissons Ratio (x) = -0.27760 0.46396
# Poissons Ratio (y) = -0.27760 0.46396
# Poissons Ratio (z) = 0.66661 0.66661
#
# Static dielectric constant tensor:
#      x y z
#    x 1.812980 0.000000 0.000000 
#    y 0.000000 1.812980 0.000000 
#    z 0.000000 0.000000 1.783080 
# 
# From -- ./inp_files/6462.got.cif
#   From: 2010.05.17/outbox.cif.g08.bks.cpg/sg133_4_cif.got.tgz:6462.got - 2010.05.20 12:37:36.
