data_PCOD9567593
_publ_section_title
;
Structure prediction by ZEFSAII (Michael W. Deem and Ramdas Pophale) SiO2 
 PCOD9567593
Probable space group: P 42/N B C
;
_chemical_formula_sum "Si O2"
_cell_formula_units_Z 88
_cell_length_a 14.322921
_cell_length_b 14.322921
_cell_length_c 22.075759
_cell_angle_alpha 90.000000
_cell_angle_beta 90.000000
_cell_angle_gamma 90.000000
_cell_volume 4528.755112
_symmetry_space_group_name_H-M "P 42/N B C"
_symmetry_group_IT_number 133
_space_group.IT_coordinate_system_code '2'
_symmetry_cell_setting 'tetragonal'
loop_
_space_group_symop_operation_xyz
x,y,z
1/2-y,x,1/2+z
1/2-x,1/2-y,z
y,1/2-x,1/2+z
x,1/2-y,-z
1/2-x,y,-z
y,x,1/2-z
1/2-y,1/2-x,1/2-z
-x,-y,-z
1/2+y,-x,1/2-z
1/2+x,1/2+y,-z
-y,1/2+x,1/2-z
-x,1/2+y,z
1/2+x,-y,z
-y,-x,1/2+z
1/2+y,1/2+x,1/2+z
loop_
_atom_site_type_symbol
_atom_site_label
_atom_site_fract_x
_atom_site_fract_y
_atom_site_fract_z
Si Si1 0.445113 0.250000 0.000000
Si Si2 0.227416 0.598918 0.734409
Si Si3 0.787147 0.462908 0.140323
Si Si4 0.937582 0.601886 0.449926
Si Si5 0.275827 0.901527 0.402079
Si Si6 0.427221 0.619684 0.440446
O O1 0.385601 0.164664 0.976203
O O2 0.511283 0.294718 0.946754
O O3 0.149206 0.678749 0.740872
O O4 0.206465 0.528187 0.787846
O O5 0.239051 0.569792 0.665007
O O6 0.843499 0.545410 0.110559
O O7 0.836352 0.364790 0.115653
O O8 0.683366 0.465886 0.113136
O O9 0.942463 0.491388 0.435011
O O10 0.016819 0.636901 0.497247
O O11 0.184412 0.859626 0.436735
#
# Coordination Sequence:
#
# PCOD9567593 Si02
#       6
#     8  16  16  16  16  16
#     4  10  22  40  54  70 116 152 200 260 280 316
#     4   9  17  30  51  84 123 146 168 216 287 374
#     4  11  19  33  58  84 117 151 184 229 293 363
#     4  10  22  36  54  79 114 150 200 244 280 334
#     4  10  18  32  57  85 114 150 171 228 314 360
#     4  10  19  34  53  83 114 145 186 235 288 354
#
# _framework density 19.431387999999998
#
# number of rings (size 3 to 8) (size 9 to 14) (size 15 to 20)
#    0.000    2.000    1.818    4.364    0.000    0.000 
#    0.000   10.909    4.000    0.000    0.000    0.000 
#    0.000   15.273    0.000    0.000    0.000    0.000 
#
# Total GULP energy -489993.448676 kJ/mol
# GULP energy per Si atom -5568.107371 kJ/mol
# Density = 1.938716 g / cm^3
# Si number density = 19.431388 Si / 1000 Ang^3
#
#
#
# Elastic Constant Matrix: (Units=GPa)
#
#
# Indices 1 2 3 4 5 6 
#
# 1 41.4277 30.1328 39.6544 0.0000 0.0000 0.0000
# 2 30.1328 41.4277 39.6544 0.0000 0.0000 0.0000
# 3 39.6544 39.6544 145.5721 0.0000 0.0000 0.0000
# 4 0.0000 0.0000 0.0000 19.6452 0.0000 0.0000
# 5 0.0000 0.0000 0.0000 0.0000 19.6452 0.0000
# 6 0.0000 0.0000 0.0000 0.0000 0.0000 -150.8070
#
#
#
# Elastic Compliance Matrix: (Units=1/GPa)
#
#
# Indices 1 2 3 4 5 6 
#
# 1 0.054277 -0.034259 -0.005453 0.000000 0.000000 0.000000
# 2 -0.034259 0.054277 -0.005453 0.000000 0.000000 0.000000
# 3 -0.005453 -0.005453 0.009840 0.000000 0.000000 0.000000
# 4 0.000000 0.000000 0.000000 0.050903 0.000000 0.000000
# 5 0.000000 0.000000 0.000000 0.000000 0.050903 0.000000
# 6 0.000000 0.000000 0.000000 0.000000 0.000000 -0.006631
#
#
# Mechanical properties :
#
#
# Convention : Reuss Voigt Hill
#
# Bulk Modulus (GPa) = 35.63316 49.70119 42.66718
# Shear Modulus (GPa) = 15.96151 -14.37093 0.79529
#
# Velocity S-wave (km/s) = 2.86917 -2.72246 0.64044
# Velocity P-wave (km/s) = 5.41793 3.96874 4.74894
#
# Compressibility (1/GPa) = 0.02806374
#
# Stress axis : x y z
#
# Youngs Moduli (GPa) = 18.42406 18.42406 101.62399
#
# Poissons Ratio (x) = 0.63120 0.55414
# Poissons Ratio (y) = 0.63120 0.55414
# Poissons Ratio (z) = 0.10046 0.10046
#
# Static dielectric constant tensor:
#      x y z
#    x 1.714640 0.000000 0.000000 
#    y 0.000000 1.714640 0.000000 
#    z 0.000000 0.000000 1.707370 
# 
# From -- ./inp_files/6428.got.cif
#   From: 2010.05.17/outbox.cif.g08.bks.cpg/sg133_4_cif.got.tgz:6428.got - 2010.05.20 12:37:36.
