data_PCOD9567119
_publ_section_title
;
Structure prediction by ZEFSAII (Michael W. Deem and Ramdas Pophale) SiO2 
 PCOD9567119
Probable space group: P 42/M C M
;
_chemical_formula_sum "Si O2"
_cell_formula_units_Z 104
_cell_length_a 21.026518
_cell_length_b 21.026518
_cell_length_c 16.599449
_cell_angle_alpha 90.000000
_cell_angle_beta 90.000000
_cell_angle_gamma 90.000000
_cell_volume 7338.856418
_symmetry_space_group_name_H-M "P 42/M C M"
_symmetry_group_IT_number 132
_symmetry_cell_setting 'tetragonal'
loop_
_space_group_symop_operation_xyz
x,y,z
-y,x,1/2+z
-x,-y,z
y,-x,1/2+z
x,-y,1/2-z
-x,y,1/2-z
y,x,-z
-y,-x,-z
-x,-y,-z
y,-x,1/2-z
x,y,-z
-y,x,1/2-z
-x,y,1/2+z
x,-y,1/2+z
-y,-x,z
y,x,z
loop_
_atom_site_type_symbol
_atom_site_label
_atom_site_fract_x
_atom_site_fract_y
_atom_site_fract_z
Si Si1 0.002542 0.576710 0.656510
Si Si2 0.363297 0.739846 0.096539
Si Si3 0.269561 0.628536 0.403637
Si Si4 0.681091 0.494843 0.156044
Si Si5 0.568770 0.859683 0.097030
Si Si6 0.552345 0.552345 0.590757
Si Si7 0.421157 0.865359 0.096426
O O1 0.070802 0.594252 0.620343
O O2 0.000000 0.500000 0.648690
O O3 0.000000 0.593355 0.750000
O O4 0.937194 0.598798 0.616275
O O5 0.308506 0.691495 0.128088
O O6 0.433738 0.714503 0.116622
O O7 0.370606 0.812736 0.126017
O O8 0.355540 0.740995 0.000000
O O9 0.265586 0.636984 0.500000
O O10 0.312792 0.687209 0.371839
O O11 0.303872 0.561574 0.385920
O O12 0.197894 0.613613 0.373340
O O13 0.697157 0.500000 0.250000
O O14 0.608341 0.478412 0.141121
O O15 0.494603 0.853848 0.126450
O O16 0.565995 0.855758 0.000000
O O17 0.500000 0.500000 0.579157
O O18 0.573963 0.573963 0.500000
O O19 0.424948 0.859340 0.000000
#
# Coordination Sequence:
#
# PCOD9567119 Si02
#       7
#    16  16  16  16  16   8  16
#     4   9  17  27  41  63  85 105 127 162 211 256
#     4  10  19  33  50  63  80 109 143 172 210 262
#     4  10  20  34  49  62  80 109 143 172 210 262
#     4  12  24  32  45  61  81 101 132 181 222 253
#     4   9  16  28  45  63  81 105 136 171 205 248
#     4  11  24  38  50  56  68 100 134 172 220 268
#     4   9  16  28  45  63  81 105 136 171 205 248
#
# _framework density 14.171146
#
# number of rings (size 3 to 8) (size 9 to 14) (size 15 to 20)
#    0.000    2.077    2.308    2.308    2.154    4.308 
#    0.000    0.000    0.000    0.000    0.000    0.000 
#    0.000    0.000    0.000    0.000    0.000    0.769 
#
# Total GULP energy -578972.286369 kJ/mol
# GULP energy per Si atom -5567.041215 kJ/mol
# Density = 1.413889 g / cm^3
# Si number density = 14.171146 Si / 1000 Ang^3
#
#
#
# Elastic Constant Matrix: (Units=GPa)
#
#
# Indices 1 2 3 4 5 6 
#
# 1 90.2888 49.1468 7.7605 0.0000 0.0000 0.0000
# 2 49.1468 90.2888 7.7605 0.0000 0.0000 0.0000
# 3 7.7605 7.7605 -3.0214 0.0000 0.0000 0.0000
# 4 0.0000 0.0000 0.0000 -9.5129 0.0000 0.0000
# 5 0.0000 0.0000 0.0000 0.0000 -9.5129 0.0000
# 6 0.0000 0.0000 0.0000 0.0000 0.0000 10.6501
#
#
#
# Elastic Compliance Matrix: (Units=1/GPa)
#
#
# Indices 1 2 3 4 5 6 
#
# 1 0.014942 -0.009364 0.014325 0.000000 0.000000 0.000000
# 2 -0.009364 0.014942 0.014325 0.000000 0.000000 0.000000
# 3 0.014325 0.014325 -0.257382 0.000000 0.000000 0.000000
# 4 0.000000 0.000000 0.000000 -0.105120 0.000000 0.000000
# 5 0.000000 0.000000 0.000000 0.000000 -0.105120 0.000000
# 6 0.000000 0.000000 0.000000 0.000000 0.000000 0.093896
#
#
# Mechanical properties :
#
#
# Convention : Reuss Voigt Hill
#
# Bulk Modulus (GPa) = -5.29304 34.09910 14.40303
# Shear Modulus (GPa) = -11.22613 5.85073 -2.68770
#
# Velocity S-wave (km/s) = -2.81763 2.03410 -1.37867
# Velocity P-wave (km/s) = 3.78531 5.44347 2.76612
#
# Compressibility (1/GPa) = -0.18892739
#
# Stress axis : x y z
#
# Youngs Moduli (GPa) = 66.92709 66.92709 -3.88528
#
# Poissons Ratio (x) = 0.62673 0.05566
# Poissons Ratio (y) = 0.62673 0.05566
# Poissons Ratio (z) = -0.95873 -0.95873
#
# Static dielectric constant tensor:
#      x y z
#    x 1.491640 0.000000 0.000000 
#    y 0.000000 1.491640 0.000000 
#    z 0.000000 0.000000 1.495970 
# 
# From -- ./inp_files/5096.got.cif
#   From: 2010.05.17/outbox.cif.g08.bks.cpg/sg132_3_cif.got.tgz:5096.got - 2010.05.20 12:30:18.
