data_PCOD9567851
_publ_section_title
;
Structure prediction by ZEFSAII (Michael W. Deem and Ramdas Pophale) SiO2 
 PCOD9567851
Probable space group: P 42/N B C
;
_chemical_formula_sum "Si O2"
_cell_formula_units_Z 116
_cell_length_a 14.338507
_cell_length_b 14.338507
_cell_length_c 23.514185
_cell_angle_alpha 90.000000
_cell_angle_beta 90.000000
_cell_angle_gamma 90.000000
_cell_volume 4834.346734
_symmetry_space_group_name_H-M "P 42/N B C"
_symmetry_group_IT_number 133
_space_group.IT_coordinate_system_code '2'
_symmetry_cell_setting 'tetragonal'
loop_
_space_group_symop_operation_xyz
x,y,z
1/2-y,x,1/2+z
1/2-x,1/2-y,z
y,1/2-x,1/2+z
x,1/2-y,-z
1/2-x,y,-z
y,x,1/2-z
1/2-y,1/2-x,1/2-z
-x,-y,-z
1/2+y,-x,1/2-z
1/2+x,1/2+y,-z
-y,1/2+x,1/2-z
-x,1/2+y,z
1/2+x,-y,z
-y,-x,1/2+z
1/2+y,1/2+x,1/2+z
loop_
_atom_site_type_symbol
_atom_site_label
_atom_site_fract_x
_atom_site_fract_y
_atom_site_fract_z
Si Si1 0.935939 0.197902 0.060568
Si Si2 0.662257 0.850498 0.457130
Si Si3 0.318953 0.608520 0.671707
Si Si4 0.569476 0.222316 0.298803
Si Si5 0.096186 0.001941 0.965835
Si Si6 0.250000 0.250000 0.250000
Si Si7 0.934325 0.553060 0.838251
Si Si8 0.125610 0.254526 0.658294
O O1 0.908809 0.260196 0.114494
O O2 0.876667 0.103290 0.050558
O O3 0.044823 0.169471 0.068637
O O4 0.931303 0.250000 0.000000
O O5 0.750000 0.843166 0.500000
O O6 0.568705 0.844944 0.494303
O O7 0.652468 0.778688 0.405433
O O8 0.268555 0.582003 0.731113
O O9 0.347908 0.716967 0.674962
O O10 0.407782 0.536387 0.673320
O O11 0.542529 0.113218 0.313376
O O12 0.481051 0.274092 0.327325
O O13 0.077668 0.049506 0.905744
O O14 0.000000 0.000000 0.000000
O O15 0.194001 0.192533 0.200495
O O16 0.854458 0.627462 0.820701
#
# Coordination Sequence:
#
# PCOD9567851 Si02
#       8
#    16  16  16  16  16   4  16  16
#     4  10  24  41  75 109 148 206 251 329 385 446
#     4  10  22  41  70 111 152 203 255 317 397 461
#     4  12  24  50  77 109 158 193 270 313 397 468
#     4  10  28  46  75 111 144 211 250 323 376 464
#     4  10  22  42  70 107 150 197 256 313 379 473
#     4  12  24  44  58 100 160 180 252 302 380 484
#     4  10  24  47  71 108 151 190 247 326 378 448
#     4  10  26  43  68 105 151 197 246 311 393 457
#
# _framework density 23.994968
#
# number of rings (size 3 to 8) (size 9 to 14) (size 15 to 20)
#    0.828    0.828    0.000    3.724   13.517    0.828 
#    2.483    0.690    0.000    0.828    0.000    0.000 
#    0.000    0.000    0.000    0.000    0.000    0.000 
#
# Total GULP energy -645778.888503 kJ/mol
# GULP energy per Si atom -5567.059384 kJ/mol
# Density = 2.394035 g / cm^3
# Si number density = 23.994968 Si / 1000 Ang^3
#
#
#
# Elastic Constant Matrix: (Units=GPa)
#
#
# Indices 1 2 3 4 5 6 
#
# 1 95.6385 59.5674 35.7867 0.0000 0.0000 0.0000
# 2 59.5674 95.6385 35.7867 0.0000 0.0000 0.0000
# 3 35.7867 35.7867 160.9856 0.0000 0.0000 0.0000
# 4 0.0000 0.0000 0.0000 27.9129 0.0000 0.0000
# 5 0.0000 0.0000 0.0000 0.0000 27.9129 0.0000
# 6 0.0000 0.0000 0.0000 0.0000 0.0000 -40.8025
#
#
#
# Elastic Compliance Matrix: (Units=1/GPa)
#
#
# Indices 1 2 3 4 5 6 
#
# 1 0.017451 -0.010272 -0.001596 0.000000 0.000000 0.000000
# 2 -0.010272 0.017451 -0.001596 0.000000 0.000000 0.000000
# 3 -0.001596 -0.001596 0.006921 0.000000 0.000000 0.000000
# 4 0.000000 0.000000 0.000000 0.035826 0.000000 0.000000
# 5 0.000000 0.000000 0.000000 0.000000 0.035826 0.000000
# 6 0.000000 0.000000 0.000000 0.000000 0.000000 -0.024508
#
#
# Mechanical properties :
#
#
# Convention : Reuss Voigt Hill
#
# Bulk Modulus (GPa) = 67.13321 68.28265 67.70793
# Shear Modulus (GPa) = 41.37048 17.74612 29.55830
#
# Velocity S-wave (km/s) = 4.15677 2.72247 3.51359
# Velocity P-wave (km/s) = 7.14682 6.19688 6.68874
#
# Compressibility (1/GPa) = 0.01489576
#
# Stress axis : x y z
#
# Youngs Moduli (GPa) = 57.30324 57.30324 144.48250
#
# Poissons Ratio (x) = 0.58862 0.23058
# Poissons Ratio (y) = 0.58862 0.23058
# Poissons Ratio (z) = 0.09145 0.09145
#
# Static dielectric constant tensor:
#      x y z
#    x 1.948640 0.000000 0.000000 
#    y 0.000000 1.948640 0.000000 
#    z 0.000000 0.000000 2.142420 
# 
# From -- ./inp_files/5645.got.cif
#   From: 2010.05.17/outbox.cif.g08.bks.cpg/sg133_3_cif.got.tgz:5645.got - 2010.05.20 12:37:36.
