data_PCOD9567465
_publ_section_title
;
Structure prediction by ZEFSAII (Michael W. Deem and Ramdas Pophale) SiO2 
 PCOD9567465
Probable space group: P 42/M C M
;
_chemical_formula_sum "Si O2"
_cell_formula_units_Z 64
_cell_length_a 14.070438
_cell_length_b 14.070438
_cell_length_c 14.222678
_cell_angle_alpha 90.000000
_cell_angle_beta 90.000000
_cell_angle_gamma 90.000000
_cell_volume 2815.766330
_symmetry_space_group_name_H-M "P 42/M C M"
_symmetry_group_IT_number 132
_symmetry_cell_setting 'tetragonal'
loop_
_space_group_symop_operation_xyz
x,y,z
-y,x,1/2+z
-x,-y,z
y,-x,1/2+z
x,-y,1/2-z
-x,y,1/2-z
y,x,-z
-y,-x,-z
-x,-y,-z
y,-x,1/2-z
x,y,-z
-y,x,1/2-z
-x,y,1/2+z
x,-y,1/2+z
-y,-x,z
y,x,z
loop_
_atom_site_type_symbol
_atom_site_label
_atom_site_fract_x
_atom_site_fract_y
_atom_site_fract_z
Si Si1 0.695824 0.059554 0.392478
Si Si2 0.860731 0.290534 0.193572
Si Si3 0.864611 0.488607 0.896676
Si Si4 0.502691 0.651566 0.636827
O O1 0.719084 0.086235 0.500000
O O2 0.728873 0.121076 0.303560
O O3 0.580155 0.068606 0.383834
O O4 0.733387 0.954321 0.367425
O O5 0.768237 0.231764 0.163562
O O6 0.857839 0.404060 0.178311
O O7 0.755278 0.521958 0.898968
O O8 0.886118 0.446351 0.000000
O O9 0.500000 0.655032 0.750000
O O10 0.423111 0.576890 0.607364
O O11 0.604390 0.604390 0.610463
#
# Coordination Sequence:
#
# PCOD9567465 Si02
#       4
#    16  16  16  16
#     4  10  23  42  63  91 128 165 203 254 316 379
#     4  11  23  40  65  94 124 161 207 260 318 380
#     4  11  22  35  56  87 124 168 213 255 306 369
#     4   9  18  32  49  73 112 162 211 258 308 364
#
# _framework density 22.729158999999999
#
# number of rings (size 3 to 8) (size 9 to 14) (size 15 to 20)
#    0.000    1.750    0.000    5.250    0.000   11.500 
#    0.000    3.750    0.000    6.000    0.000    7.000 
#    0.000    0.000    0.000    0.000    0.000    0.000 
#
# Total GULP energy -357286.405095 kJ/mol
# GULP energy per Si atom -5582.600080 kJ/mol
# Density = 2.267743 g / cm^3
# Si number density = 22.729159 Si / 1000 Ang^3
#
#
#
# Elastic Constant Matrix: (Units=GPa)
#
#
# Indices 1 2 3 4 5 6 
#
# 1 74.2109 45.9359 27.4725 0.0000 0.0000 0.0000
# 2 45.9359 74.2109 27.4725 0.0000 0.0000 0.0000
# 3 27.4725 27.4725 156.8191 0.0000 0.0000 0.0000
# 4 0.0000 0.0000 0.0000 121.7825 0.0000 0.0000
# 5 0.0000 0.0000 0.0000 0.0000 121.7825 0.0000
# 6 0.0000 0.0000 0.0000 0.0000 0.0000 39.9861
#
#
#
# Elastic Compliance Matrix: (Units=1/GPa)
#
#
# Indices 1 2 3 4 5 6 
#
# 1 0.022207 -0.013159 -0.001585 0.000000 0.000000 0.000000
# 2 -0.013159 0.022207 -0.001585 0.000000 0.000000 0.000000
# 3 -0.001585 -0.001585 0.006932 0.000000 0.000000 0.000000
# 4 0.000000 0.000000 0.000000 0.008211 0.000000 0.000000
# 5 0.000000 0.000000 0.000000 0.000000 0.008211 0.000000
# 6 0.000000 0.000000 0.000000 0.000000 0.000000 0.025009
#
#
# Mechanical properties :
#
#
# Convention : Reuss Voigt Hill
#
# Bulk Modulus (GPa) = 53.51067 56.33364 54.92215
# Shear Modulus (GPa) = 37.97462 70.33423 54.15442
#
# Velocity S-wave (km/s) = 4.09191 5.56881 4.88648
# Velocity P-wave (km/s) = 6.77634 8.13557 7.48686
#
# Compressibility (1/GPa) = 0.01868786
#
# Stress axis : x y z
#
# Youngs Moduli (GPa) = 45.02995 45.02995 144.25545
#
# Poissons Ratio (x) = 0.59257 0.22866
# Poissons Ratio (y) = 0.59257 0.22866
# Poissons Ratio (z) = 0.07138 0.07138
#
# Static dielectric constant tensor:
#      x y z
#    x 1.858210 0.000000 0.000000 
#    y 0.000000 1.858210 0.000000 
#    z 0.000000 0.000000 1.884580 
# 
# From -- ./inp_files/4411.got.cif
#   From: 2010.05.17/outbox.cif.g08.bks.cpg/sg132_3_cif.got.tgz:4411.got - 2010.05.20 12:30:18.
