data_PCOD9567452
_publ_section_title
;
Structure prediction by ZEFSAII (Michael W. Deem and Ramdas Pophale) SiO2 
 PCOD9567452
Probable space group: P 42/M C M
;
_chemical_formula_sum "Si O2"
_cell_formula_units_Z 80
_cell_length_a 11.913887
_cell_length_b 11.913887
_cell_length_c 26.297000
_cell_angle_alpha 90.000000
_cell_angle_beta 90.000000
_cell_angle_gamma 90.000000
_cell_volume 3732.614679
_symmetry_space_group_name_H-M "P 42/M C M"
_symmetry_group_IT_number 132
_symmetry_cell_setting 'tetragonal'
loop_
_space_group_symop_operation_xyz
x,y,z
-y,x,1/2+z
-x,-y,z
y,-x,1/2+z
x,-y,1/2-z
-x,y,1/2-z
y,x,-z
-y,-x,-z
-x,-y,-z
y,-x,1/2-z
x,y,-z
-y,x,1/2-z
-x,y,1/2+z
x,-y,1/2+z
-y,-x,z
y,x,z
loop_
_atom_site_type_symbol
_atom_site_label
_atom_site_fract_x
_atom_site_fract_y
_atom_site_fract_z
Si Si1 0.178466 0.354888 0.163397
Si Si2 0.038494 0.788038 0.193974
Si Si3 0.325259 0.857266 0.056548
Si Si4 0.700560 0.876634 0.943573
Si Si5 0.394604 0.217083 0.332201
O O1 0.283568 0.283568 0.182044
O O2 0.180999 0.365106 0.102112
O O3 0.187054 0.479822 0.184600
O O4 0.069520 0.275423 0.171042
O O5 0.103619 0.896382 0.170392
O O6 0.132414 0.691126 0.195197
O O7 0.000000 0.820462 0.250000
O O8 0.206391 0.793610 0.056679
O O9 0.384613 0.812756 0.107395
O O10 0.308704 0.990142 0.061414
O O11 0.375758 0.836001 0.000000
O O12 0.826624 0.826624 0.939710
O O13 0.659382 0.847255 0.000000
O O14 0.341526 0.341526 0.325323
#
# Coordination Sequence:
#
# PCOD9567452 Si02
#       5
#    16  16  16  16  16
#     4  11  23  38  60  89 121 160 202 245 297 352
#     4  11  24  43  66  91 119 151 189 240 302 369
#     4   9  17  31  53  82 117 159 203 243 288 345
#     4   9  18  31  49  80 121 160 197 239 292 354
#     4  10  22  40  60  87 121 158 205 252 292 344
#
# _framework density 21.432697000000001
#
# number of rings (size 3 to 8) (size 9 to 14) (size 15 to 20)
#    0.000    2.000    2.000    1.200    0.000    4.600 
#    0.000    6.000    0.000    0.000    0.000    8.400 
#    0.000    0.000    0.000    0.000    0.000    0.000 
#
# Total GULP energy -445787.095559 kJ/mol
# GULP energy per Si atom -5572.338694 kJ/mol
# Density = 2.138392 g / cm^3
# Si number density = 21.432697 Si / 1000 Ang^3
#
#
#
# Elastic Constant Matrix: (Units=GPa)
#
#
# Indices 1 2 3 4 5 6 
#
# 1 38.0798 120.7748 12.9658 0.0000 0.0000 0.0000
# 2 120.7748 38.0798 12.9658 0.0000 0.0000 0.0000
# 3 12.9658 12.9658 52.8979 0.0000 0.0000 0.0000
# 4 0.0000 0.0000 0.0000 7.2305 0.0000 0.0000
# 5 0.0000 0.0000 0.0000 0.0000 7.2305 0.0000
# 6 0.0000 0.0000 0.0000 0.0000 0.0000 10.6766
#
#
#
# Elastic Compliance Matrix: (Units=1/GPa)
#
#
# Indices 1 2 3 4 5 6 
#
# 1 -0.002768 0.009325 -0.001607 0.000000 0.000000 0.000000
# 2 0.009325 -0.002768 -0.001607 0.000000 0.000000 0.000000
# 3 -0.001607 -0.001607 0.019692 0.000000 0.000000 0.000000
# 4 0.000000 0.000000 0.000000 0.138302 0.000000 0.000000
# 5 0.000000 0.000000 0.000000 0.000000 0.138302 0.000000
# 6 0.000000 0.000000 0.000000 0.000000 0.000000 0.093662
#
#
# Mechanical properties :
#
#
# Convention : Reuss Voigt Hill
#
# Bulk Modulus (GPa) = 37.91045 46.94117 42.42581
# Shear Modulus (GPa) = 13.12350 3.85095 8.48723
#
# Velocity S-wave (km/s) = 2.47718 1.34189 1.99212
# Velocity P-wave (km/s) = 5.09003 4.93458 5.01291
#
# Compressibility (1/GPa) = 0.02637795
#
# Stress axis : x y z
#
# Youngs Moduli (GPa) = -361.32458 -361.32458 50.78137
#
# Poissons Ratio (x) = 3.36937 0.08162
# Poissons Ratio (y) = 3.36937 0.08162
# Poissons Ratio (z) = -0.58076 -0.58076
#
# Static dielectric constant tensor:
#      x y z
#    x 1.783390 0.000000 0.000000 
#    y 0.000000 1.783390 0.000000 
#    z 0.000000 0.000000 1.872920 
# 
# From -- ./inp_files/10635.got.cif
#   From: 2010.05.17/outbox.cif.g08.bks.cpg/sg132_6_cif.got.tgz:10635.got - 2010.05.20 12:30:18.
