data_PCOD9567743
_publ_section_title
;
Structure prediction by ZEFSAII (Michael W. Deem and Ramdas Pophale) SiO2 
 PCOD9567743
Probable space group: P 42/N B C
;
_chemical_formula_sum "Si O2"
_cell_formula_units_Z 52
_cell_length_a 14.793701
_cell_length_b 14.793701
_cell_length_c 10.493753
_cell_angle_alpha 90.000000
_cell_angle_beta 90.000000
_cell_angle_gamma 90.000000
_cell_volume 2296.595509
_symmetry_space_group_name_H-M "P 42/N B C"
_symmetry_group_IT_number 133
_space_group.IT_coordinate_system_code '2'
_symmetry_cell_setting 'tetragonal'
loop_
_space_group_symop_operation_xyz
x,y,z
1/2-y,x,1/2+z
1/2-x,1/2-y,z
y,1/2-x,1/2+z
x,1/2-y,-z
1/2-x,y,-z
y,x,1/2-z
1/2-y,1/2-x,1/2-z
-x,-y,-z
1/2+y,-x,1/2-z
1/2+x,1/2+y,-z
-y,1/2+x,1/2-z
-x,1/2+y,z
1/2+x,-y,z
-y,-x,1/2+z
1/2+y,1/2+x,1/2+z
loop_
_atom_site_type_symbol
_atom_site_label
_atom_site_fract_x
_atom_site_fract_y
_atom_site_fract_z
Si Si1 0.750000 0.750000 0.000000
Si Si2 0.919019 0.816082 0.340463
Si Si3 0.563301 0.411800 0.498579
Si Si4 0.359261 0.513571 0.261739
O O1 0.699368 0.821922 0.908619
O O2 0.901584 0.901584 0.250000
O O3 0.995549 0.838871 0.441427
O O4 0.955862 0.730705 0.263080
O O5 0.500000 0.500000 0.500000
O O6 0.582503 0.379953 0.355154
O O7 0.639070 0.436678 0.602246
O O8 0.439492 0.439492 0.250000
#
# Coordination Sequence:
#
# PCOD9567743 Si02
#       4
#     4  16  16  16
#     4  12  22  36  60  94 136 162 196 272 354 380
#     4  12  23  37  60  96 130 168 211 270 341 403
#     4  10  21  39  58  85 122 174 211 261 319 407
#     4  10  20  39  59  86 125 167 217 261 320 393
#
# _framework density 22.642211
#
# number of rings (size 3 to 8) (size 9 to 14) (size 15 to 20)
#    0.000    1.231    3.077    5.077    4.308    0.000 
#    0.000    0.000    0.000    0.923    0.000    8.615 
#    0.000    0.000    0.000    0.000    0.000    0.000 
#
# Total GULP energy -290305.335462 kJ/mol
# GULP energy per Si atom -5582.794913 kJ/mol
# Density = 2.259068 g / cm^3
# Si number density = 22.642211 Si / 1000 Ang^3
#
#
#
# Elastic Constant Matrix: (Units=GPa)
#
#
# Indices 1 2 3 4 5 6 
#
# 1 61.5891 45.1569 29.6680 0.0000 0.0000 0.0000
# 2 45.1569 61.5891 29.6680 0.0000 0.0000 0.0000
# 3 29.6680 29.6680 119.0984 0.0000 0.0000 0.0000
# 4 0.0000 0.0000 0.0000 23.2102 0.0000 0.0000
# 5 0.0000 0.0000 0.0000 0.0000 23.2102 0.0000
# 6 0.0000 0.0000 0.0000 0.0000 0.0000 24.5248
#
#
#
# Elastic Compliance Matrix: (Units=1/GPa)
#
#
# Indices 1 2 3 4 5 6 
#
# 1 0.035865 -0.024991 -0.002709 0.000000 0.000000 0.000000
# 2 -0.024991 0.035865 -0.002709 0.000000 0.000000 0.000000
# 3 -0.002709 -0.002709 0.009746 0.000000 0.000000 0.000000
# 4 0.000000 0.000000 0.000000 0.043084 0.000000 0.000000
# 5 0.000000 0.000000 0.000000 0.000000 0.043084 0.000000
# 6 0.000000 0.000000 0.000000 0.000000 0.000000 0.040775
#
#
# Mechanical properties :
#
#
# Convention : Reuss Voigt Hill
#
# Bulk Modulus (GPa) = 48.40615 50.14028 49.27321
# Shear Modulus (GPa) = 18.10787 23.37462 20.74125
#
# Velocity S-wave (km/s) = 2.83103 3.21650 3.02990
# Velocity P-wave (km/s) = 5.66670 5.99893 5.83518
#
# Compressibility (1/GPa) = 0.02065853
#
# Stress axis : x y z
#
# Youngs Moduli (GPa) = 27.88245 27.88245 102.60707
#
# Poissons Ratio (x) = 0.69681 0.27793
# Poissons Ratio (y) = 0.69681 0.27793
# Poissons Ratio (z) = 0.07553 0.07553
#
# Static dielectric constant tensor:
#      x y z
#    x 1.925780 0.000000 0.000000 
#    y 0.000000 1.925780 0.000000 
#    z 0.000000 0.000000 1.988860 
# 
# From -- ./inp_files/2767.got.cif
#   From: 2010.05.17/outbox.cif.g08.bks.cpg/sg133_2_cif.got.tgz:2767.got - 2010.05.20 12:37:36.
