data_PCOD9567072
_publ_section_title
;
Structure prediction by ZEFSAII (Michael W. Deem and Ramdas Pophale) SiO2 
 PCOD9567072
Probable space group: P 42/M C M
;
_chemical_formula_sum "Si O2"
_cell_formula_units_Z 96
_cell_length_a 18.444445
_cell_length_b 18.444445
_cell_length_c 17.675365
_cell_angle_alpha 90.000000
_cell_angle_beta 90.000000
_cell_angle_gamma 90.000000
_cell_volume 6013.115892
_symmetry_space_group_name_H-M "P 42/M C M"
_symmetry_group_IT_number 132
_symmetry_cell_setting 'tetragonal'
loop_
_space_group_symop_operation_xyz
x,y,z
-y,x,1/2+z
-x,-y,z
y,-x,1/2+z
x,-y,1/2-z
-x,y,1/2-z
y,x,-z
-y,-x,-z
-x,-y,-z
y,-x,1/2-z
x,y,-z
-y,x,1/2-z
-x,y,1/2+z
x,-y,1/2+z
-y,-x,z
y,x,z
loop_
_atom_site_type_symbol
_atom_site_label
_atom_site_fract_x
_atom_site_fract_y
_atom_site_fract_z
Si Si1 0.318228 0.197630 0.708145
Si Si2 0.997607 0.392436 0.913485
Si Si3 0.996029 0.118993 0.413824
Si Si4 0.439927 0.866283 0.684866
Si Si5 0.255662 0.043345 0.674283
Si Si6 0.438377 0.830604 0.087780
O O1 0.267905 0.267905 0.719999
O O2 0.370617 0.172530 0.777202
O O3 0.267422 0.128294 0.689522
O O4 0.374229 0.204112 0.637585
O O5 0.058795 0.418142 0.855421
O O6 0.980580 0.309838 0.892261
O O7 0.918614 0.429354 0.905699
O O8 0.022028 0.402486 0.000000
O O9 0.992663 0.148363 0.500000
O O10 0.056205 0.056205 0.414736
O O11 0.020109 0.177101 0.353084
O O12 0.919802 0.080199 0.396556
O O13 0.500000 0.880283 0.750000
O O14 0.483250 0.816910 0.624624
O O15 0.275911 0.000000 0.750000
O O16 0.433432 0.811649 0.000000
#
# Coordination Sequence:
#
# PCOD9567072 Si02
#       6
#    16  16  16  16  16  16
#     4  10  21  34  49  73 105 138 168 205 256 307
#     4  10  19  31  48  74 101 128 165 206 249 301
#     4   9  19  35  50  62  80 114 167 228 279 313
#     4  10  19  32  51  72 101 133 166 205 245 299
#     4  11  20  32  48  69  96 130 169 216 258 303
#     4   9  19  32  52  77  99 130 168 208 253 300
#
# _framework density 15.9651
#
# number of rings (size 3 to 8) (size 9 to 14) (size 15 to 20)
#    0.000    2.167    1.667    2.500    0.000    7.000 
#    0.000    0.833    0.000    2.000    0.000    0.000 
#    0.000   27.000    0.000   13.500    0.000    0.000 
#
# Total GULP energy -535122.694901 kJ/mol
# GULP energy per Si atom -5574.194739 kJ/mol
# Density = 1.592876 g / cm^3
# Si number density = 15.965100 Si / 1000 Ang^3
#
#
#
# Elastic Constant Matrix: (Units=GPa)
#
#
# Indices 1 2 3 4 5 6 
#
# 1 74.3652 38.0835 35.4102 0.0000 0.0000 0.0000
# 2 38.0835 74.3652 35.4102 0.0000 0.0000 0.0000
# 3 35.4102 35.4102 80.0393 0.0000 0.0000 0.0000
# 4 0.0000 0.0000 0.0000 15.9183 0.0000 0.0000
# 5 0.0000 0.0000 0.0000 0.0000 15.9183 0.0000
# 6 0.0000 0.0000 0.0000 0.0000 0.0000 11.1797
#
#
#
# Elastic Compliance Matrix: (Units=1/GPa)
#
#
# Indices 1 2 3 4 5 6 
#
# 1 0.019945 -0.007617 -0.005454 0.000000 0.000000 0.000000
# 2 -0.007617 0.019945 -0.005454 0.000000 0.000000 0.000000
# 3 -0.005454 -0.005454 0.017320 0.000000 0.000000 0.000000
# 4 0.000000 0.000000 0.000000 0.062821 0.000000 0.000000
# 5 0.000000 0.000000 0.000000 0.000000 0.062821 0.000000
# 6 0.000000 0.000000 0.000000 0.000000 0.000000 0.089448
#
#
# Mechanical properties :
#
#
# Convention : Reuss Voigt Hill
#
# Bulk Modulus (GPa) = 49.60442 49.61971 49.61207
# Shear Modulus (GPa) = 15.81931 16.59429 16.20680
#
# Velocity S-wave (km/s) = 3.15122 3.22749 3.18958
# Velocity P-wave (km/s) = 6.66170 6.71092 6.68636
#
# Compressibility (1/GPa) = 0.02015949
#
# Stress axis : x y z
#
# Youngs Moduli (GPa) = 50.13791 50.13791 57.73792
#
# Poissons Ratio (x) = 0.38191 0.31490
# Poissons Ratio (y) = 0.38191 0.31490
# Poissons Ratio (z) = 0.27345 0.27345
#
# Static dielectric constant tensor:
#      x y z
#    x 1.534970 0.000000 0.000000 
#    y 0.000000 1.534970 0.000000 
#    z 0.000000 0.000000 1.574800 
# 
# From -- ./inp_files/6438.got.cif
#   From: 2010.05.17/outbox.cif.g08.bks.cpg/sg132_4_cif.got.tgz:6438.got - 2010.05.20 12:30:18.
