data_PCOD9567206
_publ_section_title
;
Structure prediction by ZEFSAII (Michael W. Deem and Ramdas Pophale) SiO2 
 PCOD9567206
Probable space group: P 42/M C M
;
_chemical_formula_sum "Si O2"
_cell_formula_units_Z 96
_cell_length_a 25.773550
_cell_length_b 25.773550
_cell_length_c 8.644548
_cell_angle_alpha 90.000000
_cell_angle_beta 90.000000
_cell_angle_gamma 90.000000
_cell_volume 5742.364726
_symmetry_space_group_name_H-M "P 42/M C M"
_symmetry_group_IT_number 132
_symmetry_cell_setting 'tetragonal'
loop_
_space_group_symop_operation_xyz
x,y,z
-y,x,1/2+z
-x,-y,z
y,-x,1/2+z
x,-y,1/2-z
-x,y,1/2-z
y,x,-z
-y,-x,-z
-x,-y,-z
y,-x,1/2-z
x,y,-z
-y,x,1/2-z
-x,y,1/2+z
x,-y,1/2+z
-y,-x,z
y,x,z
loop_
_atom_site_type_symbol
_atom_site_label
_atom_site_fract_x
_atom_site_fract_y
_atom_site_fract_z
Si Si1 0.673781 0.942836 0.813165
Si Si2 0.946832 0.206868 0.682377
Si Si3 0.275884 0.638800 0.685259
Si Si4 0.331892 0.170761 0.313978
Si Si5 0.357934 0.442312 0.315456
Si Si6 0.771435 0.228566 0.826380
Si Si7 0.858183 0.141818 0.171186
O O1 0.734088 0.939551 0.759828
O O2 0.653789 0.885972 0.755210
O O3 0.654934 0.000000 0.750000
O O4 0.670068 0.944325 0.000000
O O5 0.949092 0.210422 0.500000
O O6 0.903256 0.168711 0.736617
O O7 0.000000 0.187062 0.750000
O O8 0.269846 0.640016 0.500000
O O9 0.308063 0.691938 0.729880
O O10 0.219772 0.632836 0.765090
O O11 0.313216 0.592168 0.736340
O O12 0.329244 0.165028 0.500000
O O13 0.276641 0.195813 0.255510
O O14 0.358986 0.500000 0.250000
O O15 0.349516 0.442822 0.500000
O O16 0.411511 0.411511 0.285185
O O17 0.814674 0.185327 0.844159
O O18 0.754228 0.245773 0.000000
O O19 0.874787 0.125214 0.000000
#
# Coordination Sequence:
#
# PCOD9567206 Si02
#       7
#    16  16  16  16  16   8   8
#     4  10  20  32  45  64  91 125 162 202 247 299
#     4  10  20  32  45  62  82 107 139 179 226 279
#     4  10  20  33  50  75 106 140 178 221 266 315
#     4  11  19  31  48  69  98 133 169 208 254 309
#     4  10  21  37  57  81 111 149 190 233 277 318
#     4   9  18  27  41  65  92 122 156 194 237 293
#     4  11  19  31  47  64  84 109 141 180 226 279
#
# _framework density 16.717851
#
# number of rings (size 3 to 8) (size 9 to 14) (size 15 to 20)
#    0.000    1.833    2.500    2.750    0.000    3.167 
#    0.000    0.833    0.000    0.250    0.000    1.750 
#    0.000    0.667    0.000    6.667    0.000    4.000 
#
# Total GULP energy -534451.282612 kJ/mol
# GULP energy per Si atom -5567.200861 kJ/mol
# Density = 1.667980 g / cm^3
# Si number density = 16.717851 Si / 1000 Ang^3
#
#
#
# Elastic Constant Matrix: (Units=GPa)
#
#
# Indices 1 2 3 4 5 6 
#
# 1 83.7710 32.0168 25.5468 0.0000 0.0000 0.0000
# 2 32.0168 83.7707 25.5466 0.0000 0.0000 0.0000
# 3 25.5468 25.5466 52.5805 0.0000 0.0000 0.0000
# 4 0.0000 0.0000 0.0000 24.5100 0.0000 0.0000
# 5 0.0000 0.0000 0.0000 0.0000 24.5101 0.0000
# 6 0.0000 0.0000 0.0000 0.0000 0.0000 14.2764
#
#
#
# Elastic Compliance Matrix: (Units=1/GPa)
#
#
# Indices 1 2 3 4 5 6 
#
# 1 0.015158 -0.004164 -0.005341 0.000000 0.000000 0.000000
# 2 -0.004164 0.015158 -0.005341 0.000000 0.000000 0.000000
# 3 -0.005341 -0.005341 0.024209 0.000000 0.000000 0.000000
# 4 0.000000 0.000000 0.000000 0.040800 0.000000 0.000000
# 5 0.000000 0.000000 0.000000 0.000000 0.040800 0.000000
# 6 0.000000 0.000000 0.000000 0.000000 0.000000 0.070045
#
#
# Mechanical properties :
#
#
# Convention : Reuss Voigt Hill
#
# Bulk Modulus (GPa) = 40.27308 42.92695 41.60002
# Shear Modulus (GPa) = 20.48010 21.79344 21.13677
#
# Velocity S-wave (km/s) = 3.50386 3.61446 3.55959
# Velocity P-wave (km/s) = 6.36487 6.56903 6.46776
#
# Compressibility (1/GPa) = 0.02483048
#
# Stress axis : x y z
#
# Youngs Moduli (GPa) = 65.97272 65.97261 41.30756
#
# Poissons Ratio (x) = 0.27473 0.22064
# Poissons Ratio (y) = 0.27473 0.22063
# Poissons Ratio (z) = 0.35238 0.35237
#
# Static dielectric constant tensor:
#      x y z
#    x 1.583130 0.000000 0.000000 
#    y 0.000000 1.583130 0.000000 
#    z 0.000000 0.000000 1.614990 
# 
# From -- ./inp_files/1827.got.cif
#   From: 2010.05.17/outbox.cif.g08.bks.cpg/sg132_1_cif.got.tgz:1827.got - 2010.05.20 12:30:18.
