data_PCOD9567103
_publ_section_title
;
Structure prediction by ZEFSAII (Michael W. Deem and Ramdas Pophale) SiO2 
 PCOD9567103
Probable space group: P 42/M C M
;
_chemical_formula_sum "Si O2"
_cell_formula_units_Z 80
_cell_length_a 11.177019
_cell_length_b 11.177019
_cell_length_c 29.107300
_cell_angle_alpha 90.000000
_cell_angle_beta 90.000000
_cell_angle_gamma 90.000000
_cell_volume 3636.251391
_symmetry_space_group_name_H-M "P 42/M C M"
_symmetry_group_IT_number 132
_symmetry_cell_setting 'tetragonal'
loop_
_space_group_symop_operation_xyz
x,y,z
-y,x,1/2+z
-x,-y,z
y,-x,1/2+z
x,-y,1/2-z
-x,y,1/2-z
y,x,-z
-y,-x,-z
-x,-y,-z
y,-x,1/2-z
x,y,-z
-y,x,1/2-z
-x,y,1/2+z
x,-y,1/2+z
-y,-x,z
y,x,z
loop_
_atom_site_type_symbol
_atom_site_label
_atom_site_fract_x
_atom_site_fract_y
_atom_site_fract_z
Si Si1 0.727263 0.909383 0.214256
Si Si2 0.882521 0.568514 0.373953
Si Si3 0.499577 0.300891 0.553893
Si Si4 0.993269 0.191147 0.383018
Si Si5 0.716082 0.470758 0.696215
O O1 0.832164 0.832164 0.237861
O O2 0.632321 0.815847 0.195487
O O3 0.671349 0.000000 0.250000
O O4 0.784881 0.975913 0.171253
O O5 0.812833 0.496993 0.413470
O O6 0.939303 0.687098 0.396786
O O7 0.780162 0.574044 0.333939
O O8 0.000000 0.500000 0.356022
O O9 0.496397 0.270234 0.500000
O O10 0.611912 0.388089 0.561516
O O11 0.381259 0.381259 0.564020
O O12 0.087871 0.087871 0.391622
O O13 0.864187 0.135814 0.399069
O O14 0.698749 0.500000 0.750000
O O15 0.593924 0.406077 0.679090
#
# Coordination Sequence:
#
# PCOD9567103 Si02
#       5
#    16  16  16  16  16
#     4  10  19  32  50  73 104 146 200 256 305 348
#     4  12  23  37  64  90 126 165 205 253 318 379
#     4   9  20  41  68  96 124 156 202 260 318 381
#     4  10  21  36  54  81 115 154 203 253 301 362
#     4  11  25  40  56  83 122 168 214 263 316 373
#
# _framework density 22.000678000000001
#
# number of rings (size 3 to 8) (size 9 to 14) (size 15 to 20)
#    0.000    1.600    2.000    3.600    0.000    5.600 
#    0.000    0.000    0.000    0.600    0.000    2.800 
#    0.000    0.000    0.000    0.000    0.000    0.000 
#
# Total GULP energy -446005.594580 kJ/mol
# GULP energy per Si atom -5575.069932 kJ/mol
# Density = 2.195060 g / cm^3
# Si number density = 22.000678 Si / 1000 Ang^3
#
#
#
# Elastic Constant Matrix: (Units=GPa)
#
#
# Indices 1 2 3 4 5 6 
#
# 1 62.8812 40.9264 17.8556 0.0000 0.0000 0.0000
# 2 40.9264 62.8812 17.8556 0.0000 0.0000 0.0000
# 3 17.8556 17.8556 59.8976 0.0000 0.0000 0.0000
# 4 0.0000 0.0000 0.0000 22.7837 0.0000 0.0000
# 5 0.0000 0.0000 0.0000 0.0000 22.7837 0.0000
# 6 0.0000 0.0000 0.0000 0.0000 0.0000 23.0271
#
#
#
# Elastic Compliance Matrix: (Units=1/GPa)
#
#
# Indices 1 2 3 4 5 6 
#
# 1 0.028141 -0.017407 -0.003200 0.000000 0.000000 0.000000
# 2 -0.017407 0.028141 -0.003200 0.000000 0.000000 0.000000
# 3 -0.003200 -0.003200 0.018603 0.000000 0.000000 0.000000
# 4 0.000000 0.000000 0.000000 0.043891 0.000000 0.000000
# 5 0.000000 0.000000 0.000000 0.000000 0.043891 0.000000
# 6 0.000000 0.000000 0.000000 0.000000 0.000000 0.043427
#
#
# Mechanical properties :
#
#
# Convention : Reuss Voigt Hill
#
# Bulk Modulus (GPa) = 36.66819 37.65946 37.16383
# Shear Modulus (GPa) = 19.02599 20.98704 20.00651
#
# Velocity S-wave (km/s) = 2.94392 3.09192 3.01883
# Velocity P-wave (km/s) = 5.31588 5.46820 5.39258
#
# Compressibility (1/GPa) = 0.02727159
#
# Stress axis : x y z
#
# Youngs Moduli (GPa) = 35.53524 35.53524 53.75502
#
# Poissons Ratio (x) = 0.61857 0.17201
# Poissons Ratio (y) = 0.61857 0.17201
# Poissons Ratio (z) = 0.11371 0.11371
#
# Static dielectric constant tensor:
#      x y z
#    x 1.893060 0.000000 0.000000 
#    y 0.000000 1.893060 0.000000 
#    z 0.000000 0.000000 1.759110 
# 
# From -- ./inp_files/10648.got.cif
#   From: 2010.05.17/outbox.cif.g08.bks.cpg/sg132_6_cif.got.tgz:10648.got - 2010.05.20 12:30:18.
