data_PCOD9567962
_publ_section_title
;
Structure prediction by ZEFSAII (Michael W. Deem and Ramdas Pophale) SiO2 
 PCOD9567962
Probable space group: P 42/N B C
;
_chemical_formula_sum "Si O2"
_cell_formula_units_Z 112
_cell_length_a 14.886759
_cell_length_b 14.886759
_cell_length_c 22.441890
_cell_angle_alpha 90.000000
_cell_angle_beta 90.000000
_cell_angle_gamma 90.000000
_cell_volume 4973.472772
_symmetry_space_group_name_H-M "P 42/N B C"
_symmetry_group_IT_number 133
_space_group.IT_coordinate_system_code '2'
_symmetry_cell_setting 'tetragonal'
loop_
_space_group_symop_operation_xyz
x,y,z
1/2-y,x,1/2+z
1/2-x,1/2-y,z
y,1/2-x,1/2+z
x,1/2-y,-z
1/2-x,y,-z
y,x,1/2-z
1/2-y,1/2-x,1/2-z
-x,-y,-z
1/2+y,-x,1/2-z
1/2+x,1/2+y,-z
-y,1/2+x,1/2-z
-x,1/2+y,z
1/2+x,-y,z
-y,-x,1/2+z
1/2+y,1/2+x,1/2+z
loop_
_atom_site_type_symbol
_atom_site_label
_atom_site_fract_x
_atom_site_fract_y
_atom_site_fract_z
Si Si1 0.598569 0.429377 0.234632
Si Si2 0.530663 0.283439 0.321645
Si Si3 0.859643 0.490259 0.375214
Si Si4 0.649582 0.966000 0.648377
Si Si5 0.090831 0.522044 0.927717
Si Si6 0.343892 0.280346 0.684990
Si Si7 0.646032 0.151782 0.977032
O O1 0.587535 0.343268 0.276409
O O2 0.684789 0.437353 0.193291
O O3 0.519539 0.417080 0.186152
O O4 0.616718 0.502980 0.285898
O O5 0.538500 0.319466 0.388307
O O6 0.424007 0.289079 0.307822
O O7 0.757305 0.520611 0.359601
O O8 0.850513 0.395136 0.410422
O O9 0.920745 0.556173 0.416173
O O10 0.623585 0.862246 0.645012
O O11 0.591894 0.020870 0.601508
O O12 0.107131 0.561188 0.992750
O O13 0.250000 0.250000 0.658118
O O14 0.317121 0.317121 0.750000
O O15 0.611657 0.250000 0.000000
O O16 0.750000 0.152082 0.000000
#
# Coordination Sequence:
#
# PCOD9567962 Si02
#       7
#    16  16  16  16  16  16  16
#     4  11  22  41  59  95 136 175 216 268 333 410
#     4  11  23  38  61  95 135 177 223 268 340 400
#     4  12  23  43  69  94 132 179 220 284 350 409
#     4  11  23  41  62  97 137 170 225 272 336 410
#     4  11  25  42  68  98 130 177 230 284 333 418
#     4  11  21  37  60  90 135 177 219 265 326 408
#     4  11  24  46  70  96 128 171 229 287 350 416
#
# _framework density 22.519473999999999
#
# number of rings (size 3 to 8) (size 9 to 14) (size 15 to 20)
#    0.000    0.857    4.286    3.000    0.000    3.143 
#    0.000    0.000    0.000    0.000    0.000    2.000 
#    0.000    0.000    0.000    0.000    0.000    0.000 
#
# Total GULP energy -624582.935340 kJ/mol
# GULP energy per Si atom -5576.633351 kJ/mol
# Density = 2.246822 g / cm^3
# Si number density = 22.519474 Si / 1000 Ang^3
#
#
#
# Elastic Constant Matrix: (Units=GPa)
#
#
# Indices 1 2 3 4 5 6 
#
# 1 80.2010 31.4331 -0.5665 0.0000 0.0000 0.0000
# 2 31.4331 80.2010 -0.5665 0.0000 0.0000 0.0000
# 3 -0.5665 -0.5665 57.2605 0.0000 0.0000 0.0000
# 4 0.0000 0.0000 0.0000 21.0787 0.0000 0.0000
# 5 0.0000 0.0000 0.0000 0.0000 21.0787 0.0000
# 6 0.0000 0.0000 0.0000 0.0000 0.0000 35.2372
#
#
#
# Elastic Compliance Matrix: (Units=1/GPa)
#
#
# Indices 1 2 3 4 5 6 
#
# 1 0.014732 -0.005773 0.000089 0.000000 0.000000 0.000000
# 2 -0.005773 0.014732 0.000089 0.000000 0.000000 0.000000
# 3 0.000089 0.000089 0.017466 0.000000 0.000000 0.000000
# 4 0.000000 0.000000 0.000000 0.047441 0.000000 0.000000
# 5 0.000000 0.000000 0.000000 0.000000 0.047441 0.000000
# 6 0.000000 0.000000 0.000000 0.000000 0.000000 0.028379
#
#
# Mechanical properties :
#
#
# Convention : Reuss Voigt Hill
#
# Bulk Modulus (GPa) = 27.98157 30.91807 29.44982
# Shear Modulus (GPa) = 25.86706 27.96976 26.91841
#
# Velocity S-wave (km/s) = 3.39286 3.52806 3.46112
# Velocity P-wave (km/s) = 5.27267 5.50959 5.39243
#
# Compressibility (1/GPa) = 0.03573781
#
# Stress axis : x y z
#
# Youngs Moduli (GPa) = 67.87940 67.87940 57.25476
#
# Poissons Ratio (x) = 0.39189 -0.00507
# Poissons Ratio (y) = 0.39189 -0.00507
# Poissons Ratio (z) = -0.00602 -0.00602
#
# Static dielectric constant tensor:
#      x y z
#    x 1.907830 0.000000 0.000000 
#    y 0.000000 1.907830 0.000000 
#    z 0.000000 0.000000 1.820180 
# 
# From -- ./inp_files/7273.got.cif
#   From: 2010.05.17/outbox.cif.g08.bks.cpg/sg133_4_cif.got.tgz:7273.got - 2010.05.20 12:37:36.
