data_PCOD9567510
_publ_section_title
;
Structure prediction by ZEFSAII (Michael W. Deem and Ramdas Pophale) SiO2 
 PCOD9567510
Probable space group: P 42/M C M
;
_chemical_formula_sum "Si O2"
_cell_formula_units_Z 56
_cell_length_a 13.616940
_cell_length_b 13.616940
_cell_length_c 18.238000
_cell_angle_alpha 90.000000
_cell_angle_beta 90.000000
_cell_angle_gamma 90.000000
_cell_volume 3381.709200
_symmetry_space_group_name_H-M "P 42/M C M"
_symmetry_group_IT_number 132
_symmetry_cell_setting 'tetragonal'
loop_
_space_group_symop_operation_xyz
x,y,z
-y,x,1/2+z
-x,-y,z
y,-x,1/2+z
x,-y,1/2-z
-x,y,1/2-z
y,x,-z
-y,-x,-z
-x,-y,-z
y,-x,1/2-z
x,y,-z
-y,x,1/2-z
-x,y,1/2+z
x,-y,1/2+z
-y,-x,z
y,x,z
loop_
_atom_site_type_symbol
_atom_site_label
_atom_site_fract_x
_atom_site_fract_y
_atom_site_fract_z
Si Si1 0.991479 0.723340 0.662999
Si Si2 0.190773 0.350891 0.088050
Si Si3 0.106904 0.552989 0.083253
Si Si4 0.917068 0.917068 0.584166
O O1 0.097500 0.695432 0.629160
O O2 0.000000 0.728940 0.750000
O O3 0.911640 0.641400 0.638664
O O4 0.958448 0.823999 0.626696
O O5 0.289159 0.289159 0.105294
O O6 0.184333 0.467763 0.103832
O O7 0.174392 0.342373 0.000000
O O8 0.000000 0.500000 0.080950
O O9 0.127145 0.587722 0.000000
O O10 0.891861 0.891861 0.500000
O O11 0.000000 0.000000 0.582667
#
# Coordination Sequence:
#
# PCOD9567510 Si02
#       4
#    16  16  16   8
#     4  11  22  31  49  70 105 137 175 226 267 314
#     4   9  17  31  52  74  98 131 171 215 265 321
#     4   8  15  30  49  70  95 128 170 211 258 317
#     4  11  24  38  52  68  97 149 193 217 258 317
#
# _framework density 16.559674000000001
#
# number of rings (size 3 to 8) (size 9 to 14) (size 15 to 20)
#    0.000    2.429    0.000    5.143    4.000    7.429 
#    0.000    0.000    0.000    0.000    0.000    1.000 
#    0.000    5.714    0.000    0.000    0.571    0.000 
#
# Total GULP energy -312027.165875 kJ/mol
# GULP energy per Si atom -5571.913676 kJ/mol
# Density = 1.652198 g / cm^3
# Si number density = 16.559674 Si / 1000 Ang^3
#
#
#
# Elastic Constant Matrix: (Units=GPa)
#
#
# Indices 1 2 3 4 5 6 
#
# 1 85.2057 39.9539 56.6797 0.0000 0.0000 0.0000
# 2 39.9539 85.2057 56.6797 0.0000 0.0000 0.0000
# 3 56.6797 56.6797 116.3955 0.0000 0.0000 0.0000
# 4 0.0000 0.0000 0.0000 1.8637 0.0000 0.0000
# 5 0.0000 0.0000 0.0000 0.0000 1.8637 0.0000
# 6 0.0000 0.0000 0.0000 0.0000 0.0000 36.1819
#
#
#
# Elastic Compliance Matrix: (Units=1/GPa)
#
#
# Indices 1 2 3 4 5 6 
#
# 1 0.018196 -0.003902 -0.006961 0.000000 0.000000 0.000000
# 2 -0.003902 0.018196 -0.006961 0.000000 0.000000 0.000000
# 3 -0.006961 -0.006961 0.015371 0.000000 0.000000 0.000000
# 4 0.000000 0.000000 0.000000 0.536573 0.000000 0.000000
# 5 0.000000 0.000000 0.000000 0.000000 0.536573 0.000000
# 6 0.000000 0.000000 0.000000 0.000000 0.000000 0.027638
#
#
# Mechanical properties :
#
#
# Convention : Reuss Voigt Hill
#
# Bulk Modulus (GPa) = 62.04928 65.93706 63.99317
# Shear Modulus (GPa) = 4.18912 16.88142 10.53527
#
# Velocity S-wave (km/s) = 1.59223 3.19631 2.52504
# Velocity P-wave (km/s) = 6.39779 7.31616 6.87233
#
# Compressibility (1/GPa) = 0.01611622
#
# Stress axis : x y z
#
# Youngs Moduli (GPa) = 54.95596 54.95596 65.05963
#
# Poissons Ratio (x) = 0.21445 0.45286
# Poissons Ratio (y) = 0.21445 0.45286
# Poissons Ratio (z) = 0.38253 0.38253
#
# Static dielectric constant tensor:
#      x y z
#    x 1.556530 0.000000 0.000000 
#    y 0.000000 1.556530 0.000000 
#    z 0.000000 0.000000 1.551490 
# 
# From -- ./inp_files/4251.got.cif
#   From: 2010.05.17/outbox.cif.g08.bks.cpg/sg132_3_cif.got.tgz:4251.got - 2010.05.20 12:30:18.
