data_PCOD9567182
_publ_section_title
;
Structure prediction by ZEFSAII (Michael W. Deem and Ramdas Pophale) SiO2 
 PCOD9567182
Probable space group: P 42/M C M
;
_chemical_formula_sum "Si O2"
_cell_formula_units_Z 96
_cell_length_a 15.323176
_cell_length_b 15.323176
_cell_length_c 20.717588
_cell_angle_alpha 90.000000
_cell_angle_beta 90.000000
_cell_angle_gamma 90.000000
_cell_volume 4864.483918
_symmetry_space_group_name_H-M "P 42/M C M"
_symmetry_group_IT_number 132
_symmetry_cell_setting 'tetragonal'
loop_
_space_group_symop_operation_xyz
x,y,z
-y,x,1/2+z
-x,-y,z
y,-x,1/2+z
x,-y,1/2-z
-x,y,1/2-z
y,x,-z
-y,-x,-z
-x,-y,-z
y,-x,1/2-z
x,y,-z
-y,x,1/2-z
-x,y,1/2+z
x,-y,1/2+z
-y,-x,z
y,x,z
loop_
_atom_site_type_symbol
_atom_site_label
_atom_site_fract_x
_atom_site_fract_y
_atom_site_fract_z
Si Si1 0.809763 0.665038 0.869559
Si Si2 0.265121 0.601693 0.757179
Si Si3 0.937429 0.201939 0.191366
Si Si4 0.054434 0.200290 0.927344
Si Si5 0.099866 0.499345 0.426083
Si Si6 0.327511 0.189860 0.615863
O O1 0.723355 0.723355 0.889642
O O2 0.798792 0.652584 0.792561
O O3 0.892182 0.719396 0.895835
O O4 0.831628 0.567643 0.894721
O O5 0.256502 0.500000 0.750000
O O6 0.360127 0.639874 0.740204
O O7 0.246636 0.622705 0.830958
O O8 0.873127 0.126874 0.216618
O O9 0.880065 0.277998 0.160443
O O10 0.000000 0.227929 0.250000
O O11 0.987918 0.170326 0.127426
O O12 0.124462 0.124462 0.934438
O O13 0.020233 0.220918 0.000000
O O14 0.091142 0.528079 0.500000
O O15 0.139602 0.401707 0.423531
O O16 0.000000 0.500000 0.398167
O O17 0.253285 0.253285 0.584909
#
# Coordination Sequence:
#
# PCOD9567182 Si02
#       6
#    16  16  16  16  16  16
#     4  10  20  37  61  87 119 158 198 250 311 368
#     4  10  19  35  59  85 114 149 192 240 292 354
#     4  11  23  39  60  85 116 158 203 252 309 374
#     4  10  21  37  58  85 118 157 201 251 306 365
#     4  11  23  38  59  88 119 154 205 259 300 357
#     4  10  22  39  57  82 118 155 193 239 303 370
#
# _framework density 19.734878999999999
#
# number of rings (size 3 to 8) (size 9 to 14) (size 15 to 20)
#    0.000    1.667    1.667    3.000    0.000    7.667 
#    0.000    3.333    0.000    0.500    0.000    1.167 
#    0.000    0.000    0.000    0.000    0.000    0.000 
#
# Total GULP energy -534507.413295 kJ/mol
# GULP energy per Si atom -5567.785555 kJ/mol
# Density = 1.968996 g / cm^3
# Si number density = 19.734879 Si / 1000 Ang^3
#
#
#
# Elastic Constant Matrix: (Units=GPa)
#
#
# Indices 1 2 3 4 5 6 
#
# 1 86.4234 -1.5605 -0.0668 0.0000 0.0000 0.0000
# 2 -1.5605 86.4234 -0.0668 0.0000 0.0000 0.0000
# 3 -0.0668 -0.0668 54.0063 0.0000 0.0000 0.0000
# 4 0.0000 0.0000 0.0000 5.3829 0.0000 0.0000
# 5 0.0000 0.0000 0.0000 0.0000 5.3829 0.0000
# 6 0.0000 0.0000 0.0000 0.0000 0.0000 7.8964
#
#
#
# Elastic Compliance Matrix: (Units=1/GPa)
#
#
# Indices 1 2 3 4 5 6 
#
# 1 0.011575 0.000209 0.000015 0.000000 0.000000 0.000000
# 2 0.000209 0.011575 0.000015 0.000000 0.000000 0.000000
# 3 0.000015 0.000015 0.018516 0.000000 0.000000 0.000000
# 4 0.000000 0.000000 0.000000 0.185774 0.000000 0.000000
# 5 0.000000 0.000000 0.000000 0.000000 0.185774 0.000000
# 6 0.000000 0.000000 0.000000 0.000000 0.000000 0.126640
#
#
# Mechanical properties :
#
#
# Convention : Reuss Voigt Hill
#
# Bulk Modulus (GPa) = 23.72923 24.82946 24.27934
# Shear Modulus (GPa) = 9.03466 18.96891 14.00179
#
# Velocity S-wave (km/s) = 2.14195 3.10367 2.66652
# Velocity P-wave (km/s) = 4.26232 5.04504 4.67011
#
# Compressibility (1/GPa) = 0.04214212
#
# Stress axis : x y z
#
# Youngs Moduli (GPa) = 86.39514 86.39514 54.00620
#
# Poissons Ratio (x) = -0.01806 -0.00079
# Poissons Ratio (y) = -0.01806 -0.00079
# Poissons Ratio (z) = -0.00126 -0.00126
#
# Static dielectric constant tensor:
#      x y z
#    x 1.750720 0.000000 0.000000 
#    y 0.000000 1.750720 0.000000 
#    z 0.000000 0.000000 1.675420 
# 
# From -- ./inp_files/7854.got.cif
#   From: 2010.05.17/outbox.cif.g08.bks.cpg/sg132_4_cif.got.tgz:7854.got - 2010.05.20 12:30:18.
