data_PCOD9567753
_publ_section_title
;
Structure prediction by ZEFSAII (Michael W. Deem and Ramdas Pophale) SiO2 
 PCOD9567753
Probable space group: P 42/N B C
;
_chemical_formula_sum "Si O2"
_cell_formula_units_Z 64
_cell_length_a 23.762213
_cell_length_b 23.762213
_cell_length_c 5.111883
_cell_angle_alpha 90.000000
_cell_angle_beta 90.000000
_cell_angle_gamma 90.000000
_cell_volume 2886.387760
_symmetry_space_group_name_H-M "P 42/N B C"
_symmetry_group_IT_number 133
_space_group.IT_coordinate_system_code '2'
_symmetry_cell_setting 'tetragonal'
loop_
_space_group_symop_operation_xyz
x,y,z
1/2-y,x,1/2+z
1/2-x,1/2-y,z
y,1/2-x,1/2+z
x,1/2-y,-z
1/2-x,y,-z
y,x,1/2-z
1/2-y,1/2-x,1/2-z
-x,-y,-z
1/2+y,-x,1/2-z
1/2+x,1/2+y,-z
-y,1/2+x,1/2-z
-x,1/2+y,z
1/2+x,-y,z
-y,-x,1/2+z
1/2+y,1/2+x,1/2+z
loop_
_atom_site_type_symbol
_atom_site_label
_atom_site_fract_x
_atom_site_fract_y
_atom_site_fract_z
Si Si1 0.853248 0.646753 0.750000
Si Si2 0.096851 0.250000 0.500000
Si Si3 0.589460 0.589460 0.750000
Si Si4 0.919903 0.250000 0.000000
Si Si5 0.651321 0.095139 0.797628
Si Si6 0.168498 0.999452 0.162002
O O1 0.866392 0.711696 0.691782
O O2 0.878017 0.613190 0.503128
O O3 0.054206 0.292142 0.644539
O O4 0.607687 0.524107 0.760872
O O5 0.886063 0.214456 0.784131
O O6 0.957058 0.296608 0.846363
O O7 0.616432 0.118579 0.553511
O O8 0.530006 0.161504 0.378970
#
# Coordination Sequence:
#
# PCOD9567753 Si02
#       6
#     8   8   8   8  16  16
#     4  10  22  38  62 102 140 183 252 309 354 427
#     4  10  20  40  70 105 136 193 248 302 364 424
#     4  10  24  38  66 104 142 183 244 297 338 442
#     4  12  22  44  76 103 134 193 226 294 360 438
#     4  12  26  43  70 109 139 176 238 290 351 438
#     4  11  22  42  71 102 140 191 242 288 366 425
#
# _framework density 22.173041999999999
#
# number of rings (size 3 to 8) (size 9 to 14) (size 15 to 20)
#    0.000    1.000    5.000    1.500    3.500    3.000 
#    0.000    1.250    0.000   44.250    0.000    0.000 
#    0.000    0.000    0.000    0.000    0.000    0.000 
#
# Total GULP energy -356603.191649 kJ/mol
# GULP energy per Si atom -5571.924870 kJ/mol
# Density = 2.212258 g / cm^3
# Si number density = 22.173042 Si / 1000 Ang^3
#
#
#
# Elastic Constant Matrix: (Units=GPa)
#
#
# Indices 1 2 3 4 5 6 
#
# 1 49.7178 44.9569 27.5182 0.0000 0.0000 0.0000
# 2 44.9569 49.7196 27.5187 0.0000 0.0000 0.0000
# 3 27.5182 27.5187 147.3694 0.0000 0.0000 0.0000
# 4 0.0000 0.0000 0.0000 39.2757 0.0000 0.0000
# 5 0.0000 0.0000 0.0000 0.0000 39.2755 0.0000
# 6 0.0000 0.0000 0.0000 0.0000 0.0000 21.8166
#
#
#
# Elastic Compliance Matrix: (Units=1/GPa)
#
#
# Indices 1 2 3 4 5 6 
#
# 1 0.110928 -0.099077 -0.002213 0.000000 0.000000 0.000000
# 2 -0.099077 0.110924 -0.002212 0.000000 0.000000 0.000000
# 3 -0.002213 -0.002212 0.007612 0.000000 0.000000 0.000000
# 4 0.000000 0.000000 0.000000 0.025461 0.000000 0.000000
# 5 0.000000 0.000000 0.000000 0.000000 0.025461 0.000000
# 6 0.000000 0.000000 0.000000 0.000000 0.000000 0.045837
#
#
# Mechanical properties :
#
#
# Convention : Reuss Voigt Hill
#
# Bulk Modulus (GPa) = 44.52543 49.64384 47.08464
# Shear Modulus (GPa) = 9.24703 29.86108 19.55405
#
# Velocity S-wave (km/s) = 2.04437 3.67376 2.97288
# Velocity P-wave (km/s) = 5.06923 6.35871 5.75023
#
# Compressibility (1/GPa) = 0.02245907
#
# Stress axis : x y z
#
# Youngs Moduli (GPa) = 9.01486 9.01519 131.37238
#
# Poissons Ratio (x) = 0.89320 0.29067
# Poissons Ratio (y) = 0.89317 0.29065
# Poissons Ratio (z) = 0.01995 0.01995
#
# Static dielectric constant tensor:
#      x y z
#    x 1.897280 0.000000 0.000000 
#    y 0.000000 1.897270 0.000000 
#    z 0.000000 0.000000 0.141910 
# 
# From -- ./inp_files/399.got.cif
#   From: 2010.05.17/outbox.cif.g08.bks.cpg/sg133_1_cif.got.tgz:399.got - 2010.05.20 12:37:36.
