data_PCOD9567530
_publ_section_title
;
Structure prediction by ZEFSAII (Michael W. Deem and Ramdas Pophale) SiO2 
 PCOD9567530
Probable space group: P 42/M C M
;
_chemical_formula_sum "Si O2"
_cell_formula_units_Z 40
_cell_length_a 11.180187
_cell_length_b 11.180187
_cell_length_c 14.483934
_cell_angle_alpha 90.000000
_cell_angle_beta 90.000000
_cell_angle_gamma 90.000000
_cell_volume 1810.442235
_symmetry_space_group_name_H-M "P 42/M C M"
_symmetry_group_IT_number 132
_symmetry_cell_setting 'tetragonal'
loop_
_space_group_symop_operation_xyz
x,y,z
-y,x,1/2+z
-x,-y,z
y,-x,1/2+z
x,-y,1/2-z
-x,y,1/2-z
y,x,-z
-y,-x,-z
-x,-y,-z
y,-x,1/2-z
x,y,-z
-y,x,1/2-z
-x,y,1/2+z
x,-y,1/2+z
-y,-x,z
y,x,z
loop_
_atom_site_type_symbol
_atom_site_label
_atom_site_fract_x
_atom_site_fract_y
_atom_site_fract_z
Si Si1 0.194202 0.007679 0.607436
Si Si2 0.113888 0.563164 0.651202
Si Si3 0.495731 0.695015 0.000000
O O1 0.230215 0.028337 0.500000
O O2 0.086804 0.913196 0.606380
O O3 0.301213 0.934953 0.656357
O O4 0.132408 0.132408 0.642258
O O5 0.131890 0.500000 0.750000
O O6 0.226196 0.532537 0.588349
O O7 0.000000 0.500000 0.606314
O O8 0.585108 0.585108 0.000000
O O9 0.361864 0.638136 0.000000
#
# Coordination Sequence:
#
# PCOD9567530 Si02
#       3
#    16  16   8
#     4   9  18  36  67 100 127 165 222 295 368 420
#     4  11  24  42  65  97 140 180 227 287 356 426
#     4  11  25  44  67  97 137 189 244 287 332 406
#
# _framework density 22.094047
#
# number of rings (size 3 to 8) (size 9 to 14) (size 15 to 20)
#    0.000    1.800    2.000    3.000    0.000    4.800 
#    0.000   14.000    0.000    9.600    0.000    0.000 
#    0.000    0.000    0.000    0.000    0.000    0.000 
#
# Total GULP energy -222901.421596 kJ/mol
# GULP energy per Si atom -5572.535540 kJ/mol
# Density = 2.204376 g / cm^3
# Si number density = 22.094047 Si / 1000 Ang^3
#
#
#
# Elastic Constant Matrix: (Units=GPa)
#
#
# Indices 1 2 3 4 5 6 
#
# 1 152.6439 72.4166 67.3448 0.0000 0.0000 0.0000
# 2 72.4166 152.6408 67.3439 0.0000 0.0000 0.0000
# 3 67.3448 67.3439 147.9475 0.0000 0.0000 0.0000
# 4 0.0000 0.0000 0.0000 94.2431 0.0000 0.0000
# 5 0.0000 0.0000 0.0000 0.0000 94.2423 0.0000
# 6 0.0000 0.0000 0.0000 0.0000 0.0000 37.7279
#
#
#
# Elastic Compliance Matrix: (Units=1/GPa)
#
#
# Indices 1 2 3 4 5 6 
#
# 1 0.009286 -0.003179 -0.002780 0.000000 0.000000 0.000000
# 2 -0.003179 0.009286 -0.002780 0.000000 0.000000 0.000000
# 3 -0.002780 -0.002780 0.009290 0.000000 0.000000 0.000000
# 4 0.000000 0.000000 0.000000 0.010611 0.000000 0.000000
# 5 0.000000 0.000000 0.000000 0.000000 0.010611 0.000000
# 6 0.000000 0.000000 0.000000 0.000000 0.000000 0.026506
#
#
# Mechanical properties :
#
#
# Convention : Reuss Voigt Hill
#
# Bulk Modulus (GPa) = 96.29828 96.38255 96.34041
# Shear Modulus (GPa) = 51.79870 61.65112 56.72491
#
# Velocity S-wave (km/s) = 4.84722 5.28815 5.07248
# Velocity P-wave (km/s) = 8.66069 9.00025 8.83210
#
# Compressibility (1/GPa) = 0.01038440
#
# Stress axis : x y z
#
# Youngs Moduli (GPa) = 107.69177 107.68973 107.64465
#
# Poissons Ratio (x) = 0.34234 0.29923
# Poissons Ratio (y) = 0.34235 0.29923
# Poissons Ratio (z) = 0.29936 0.29936
#
# Static dielectric constant tensor:
#      x y z
#    x 1.899020 0.000000 0.000000 
#    y 0.000000 1.899020 0.000000 
#    z 0.000000 0.000000 1.872110 
# 
# From -- ./inp_files/4018.got.cif
#   From: 2010.05.17/outbox.cif.g08.bks.cpg/sg132_3_cif.got.tgz:4018.got - 2010.05.20 12:30:18.
