data_PCOD9567266
_publ_section_title
;
Structure prediction by ZEFSAII (Michael W. Deem and Ramdas Pophale) SiO2 
 PCOD9567266
Probable space group: P 42/M C M
;
_chemical_formula_sum "Si O2"
_cell_formula_units_Z 72
_cell_length_a 20.272247
_cell_length_b 20.272247
_cell_length_c 9.962003
_cell_angle_alpha 90.000000
_cell_angle_beta 90.000000
_cell_angle_gamma 90.000000
_cell_volume 4094.024585
_symmetry_space_group_name_H-M "P 42/M C M"
_symmetry_group_IT_number 132
_symmetry_cell_setting 'tetragonal'
loop_
_space_group_symop_operation_xyz
x,y,z
-y,x,1/2+z
-x,-y,z
y,-x,1/2+z
x,-y,1/2-z
-x,y,1/2-z
y,x,-z
-y,-x,-z
-x,-y,-z
y,-x,1/2-z
x,y,-z
-y,x,1/2-z
-x,y,1/2+z
x,-y,1/2+z
-y,-x,z
y,x,z
loop_
_atom_site_type_symbol
_atom_site_label
_atom_site_fract_x
_atom_site_fract_y
_atom_site_fract_z
Si Si1 0.399121 0.884603 0.000000
Si Si2 0.929249 0.659597 0.782209
Si Si3 0.831915 0.721479 0.000000
Si Si4 0.451424 0.078853 0.000000
Si Si5 0.582901 0.230250 0.500000
Si Si6 0.373178 0.729329 0.000000
Si Si7 0.329196 0.430912 0.771672
O O1 0.362183 0.901603 0.138549
O O2 0.468960 0.926306 0.000000
O O3 0.396099 0.804965 0.000000
O O4 0.879288 0.704755 0.871010
O O5 0.941788 0.592834 0.871282
O O6 0.000000 0.691588 0.750000
O O7 0.790225 0.790225 0.000000
O O8 0.778643 0.661964 0.000000
O O9 0.445177 0.157757 0.000000
O O10 0.559410 0.268335 0.369862
O O11 0.404079 0.697067 0.131628
O O12 0.295884 0.704117 0.000000
O O13 0.364396 0.500000 0.750000
O O14 0.377334 0.377334 0.833409
#
# Coordination Sequence:
#
# PCOD9567266 Si02
#       7
#     8  16   8   8   8   8  16
#     4  12  20  31  54  76 103 147 193 232 271 328
#     4  10  22  36  52  79 114 148 182 226 274 321
#     4  10  21  39  60  81 108 144 183 218 264 327
#     4  10  21  33  50  76 107 147 189 227 272 332
#     4  10  20  34  52  71  92 124 168 211 255 306
#     4  10  22  35  48  71  97 120 159 222 279 309
#     4  11  21  33  48  64  87 118 156 210 270 325
#
# _framework density 17.586607000000001
#
# number of rings (size 3 to 8) (size 9 to 14) (size 15 to 20)
#    0.000    1.778    0.000    7.667    0.000    5.556 
#    0.000    0.000    0.000    3.333    0.000    0.000 
#    0.000    1.333    0.000    0.000    0.000    0.000 
#
# Total GULP energy -401243.925026 kJ/mol
# GULP energy per Si atom -5572.832292 kJ/mol
# Density = 1.754658 g / cm^3
# Si number density = 17.586607 Si / 1000 Ang^3
#
#
#
# Elastic Constant Matrix: (Units=GPa)
#
#
# Indices 1 2 3 4 5 6 
#
# 1 68.1011 28.2382 25.5975 0.0000 0.0000 0.0000
# 2 28.2382 68.1000 25.5968 0.0000 0.0000 0.0000
# 3 25.5975 25.5968 134.6314 0.0000 0.0000 0.0000
# 4 0.0000 0.0000 0.0000 12.7466 0.0000 0.0000
# 5 0.0000 0.0000 0.0000 0.0000 12.7465 0.0000
# 6 0.0000 0.0000 0.0000 0.0000 0.0000 23.1001
#
#
#
# Elastic Compliance Matrix: (Units=1/GPa)
#
#
# Indices 1 2 3 4 5 6 
#
# 1 0.018316 -0.006770 -0.002195 0.000000 0.000000 0.000000
# 2 -0.006770 0.018317 -0.002195 0.000000 0.000000 0.000000
# 3 -0.002195 -0.002195 0.008262 0.000000 0.000000 0.000000
# 4 0.000000 0.000000 0.000000 0.078452 0.000000 0.000000
# 5 0.000000 0.000000 0.000000 0.000000 0.078453 0.000000
# 6 0.000000 0.000000 0.000000 0.000000 0.000000 0.043290
#
#
# Mechanical properties :
#
#
# Convention : Reuss Voigt Hill
#
# Bulk Modulus (GPa) = 44.29796 47.74418 46.02107
# Shear Modulus (GPa) = 18.18601 22.47863 20.33232
#
# Velocity S-wave (km/s) = 3.21921 3.57903 3.40387
# Velocity P-wave (km/s) = 6.24987 6.65479 6.45550
#
# Compressibility (1/GPa) = 0.02257440
#
# Stress axis : x y z
#
# Youngs Moduli (GPa) = 54.59597 54.59525 121.02905
#
# Poissons Ratio (x) = 0.36960 0.26570
# Poissons Ratio (y) = 0.36961 0.26569
# Poissons Ratio (z) = 0.11986 0.11985
#
# Static dielectric constant tensor:
#      x y z
#    x 1.641410 0.000000 0.000000 
#    y 0.000000 1.641410 0.000000 
#    z 0.000000 0.000000 1.589930 
# 
# From -- ./inp_files/1481.got.cif
#   From: 2010.05.17/outbox.cif.g08.bks.cpg/sg132_1_cif.got.tgz:1481.got - 2010.05.20 12:30:18.
