data_PCOD9567944
_publ_section_title
;
Structure prediction by ZEFSAII (Michael W. Deem and Ramdas Pophale) SiO2 
 PCOD9567944
Probable space group: P 42/N B C
;
_chemical_formula_sum "Si O2"
_cell_formula_units_Z 24
_cell_length_a 9.688859
_cell_length_b 9.688859
_cell_length_c 10.146608
_cell_angle_alpha 90.000000
_cell_angle_beta 90.000000
_cell_angle_gamma 90.000000
_cell_volume 952.502565
_symmetry_space_group_name_H-M "P 42/N B C"
_symmetry_group_IT_number 133
_space_group.IT_coordinate_system_code '2'
_symmetry_cell_setting 'tetragonal'
loop_
_space_group_symop_operation_xyz
x,y,z
1/2-y,x,1/2+z
1/2-x,1/2-y,z
y,1/2-x,1/2+z
x,1/2-y,-z
1/2-x,y,-z
y,x,1/2-z
1/2-y,1/2-x,1/2-z
-x,-y,-z
1/2+y,-x,1/2-z
1/2+x,1/2+y,-z
-y,1/2+x,1/2-z
-x,1/2+y,z
1/2+x,-y,z
-y,-x,1/2+z
1/2+y,1/2+x,1/2+z
loop_
_atom_site_type_symbol
_atom_site_label
_atom_site_fract_x
_atom_site_fract_y
_atom_site_fract_z
Si Si1 0.750000 0.750000 0.250000
Si Si2 0.250000 0.750000 0.750000
Si Si3 0.103709 0.501533 0.377500
O O1 0.623591 0.712843 0.148675
O O2 0.184630 0.859562 0.650156
O O3 0.006402 0.493599 0.250000
O O4 0.000000 0.500000 0.500000
#
# Coordination Sequence:
#
# PCOD9567944 Si02
#       3
#     4   4  16
#     4   8  24  56  80 122 186 226 290 380 460 536
#     4  12  28  54  88 138 168 242 308 382 456 558
#     4  10  26  53  88 126 180 234 299 376 460 546
#
# _framework density 25.196784000000001
#
# number of rings (size 3 to 8) (size 9 to 14) (size 15 to 20)
#    2.000    0.000    0.000    0.000    4.667    8.000 
#    0.000    8.333    0.000    0.000    0.000    0.000 
#    0.000    0.000    0.000    0.000    0.000    0.000 
#
# Total GULP energy -133710.414992 kJ/mol
# GULP energy per Si atom -5571.267291 kJ/mol
# Density = 2.513943 g / cm^3
# Si number density = 25.196784 Si / 1000 Ang^3
#
#
#
# Elastic Constant Matrix: (Units=GPa)
#
#
# Indices 1 2 3 4 5 6 
#
# 1 227.5651 137.3448 118.5567 0.0000 0.0000 0.0000
# 2 137.3448 227.5653 118.5565 0.0000 0.0000 0.0000
# 3 118.5567 118.5565 245.7257 0.0000 0.0000 0.0000
# 4 0.0000 0.0000 0.0000 6.5487 0.0000 0.0000
# 5 0.0000 0.0000 0.0000 0.0000 6.5489 0.0000
# 6 0.0000 0.0000 0.0000 0.0000 0.0000 50.8154
#
#
#
# Elastic Compliance Matrix: (Units=1/GPa)
#
#
# Indices 1 2 3 4 5 6 
#
# 1 0.007538 -0.003546 -0.001926 0.000000 0.000000 0.000000
# 2 -0.003546 0.007538 -0.001926 0.000000 0.000000 0.000000
# 3 -0.001926 -0.001926 0.005928 0.000000 0.000000 0.000000
# 4 0.000000 0.000000 0.000000 0.152701 0.000000 0.000000
# 5 0.000000 0.000000 0.000000 0.000000 0.152698 0.000000
# 6 0.000000 0.000000 0.000000 0.000000 0.000000 0.019679
#
#
# Mechanical properties :
#
#
# Convention : Reuss Voigt Hill
#
# Bulk Modulus (GPa) = 161.08556 161.08579 161.08568
# Shear Modulus (GPa) = 13.77612 34.54249 24.15930
#
# Velocity S-wave (km/s) = 2.34079 3.70660 3.09985
# Velocity P-wave (km/s) = 8.44840 9.07680 8.76823
#
# Compressibility (1/GPa) = 0.00620788
#
# Stress axis : x y z
#
# Youngs Moduli (GPa) = 132.66248 132.66280 168.68934
#
# Poissons Ratio (x) = 0.47043 0.32489
# Poissons Ratio (y) = 0.47043 0.32489
# Poissons Ratio (z) = 0.25551 0.25550
#
# Static dielectric constant tensor:
#      x y z
#    x 3.091120 0.000000 0.000000 
#    y 0.000000 3.092500 0.000000 
#    z 0.000000 0.000000 1.998600 
# 
# From -- ./inp_files/698.got.cif
#   From: 2010.05.17/outbox.cif.g08.bks.cpg/sg133_1_cif.got.tgz:698.got - 2010.05.20 12:37:36.
