data_PCOD9567528
_publ_section_title
;
Structure prediction by ZEFSAII (Michael W. Deem and Ramdas Pophale) SiO2 
 PCOD9567528
Probable space group: P 42/M C M
;
_chemical_formula_sum "Si O2"
_cell_formula_units_Z 56
_cell_length_a 14.461485
_cell_length_b 14.461485
_cell_length_c 13.836361
_cell_angle_alpha 90.000000
_cell_angle_beta 90.000000
_cell_angle_gamma 90.000000
_cell_volume 2893.661109
_symmetry_space_group_name_H-M "P 42/M C M"
_symmetry_group_IT_number 132
_symmetry_cell_setting 'tetragonal'
loop_
_space_group_symop_operation_xyz
x,y,z
-y,x,1/2+z
-x,-y,z
y,-x,1/2+z
x,-y,1/2-z
-x,y,1/2-z
y,x,-z
-y,-x,-z
-x,-y,-z
y,-x,1/2-z
x,y,-z
-y,x,1/2-z
-x,y,1/2+z
x,-y,1/2+z
-y,-x,z
y,x,z
loop_
_atom_site_type_symbol
_atom_site_label
_atom_site_fract_x
_atom_site_fract_y
_atom_site_fract_z
Si Si1 0.063393 0.355026 0.616282
Si Si2 0.213990 0.786011 0.888612
Si Si3 0.371729 0.371729 0.391655
Si Si4 0.868249 0.567547 0.115170
Si Si5 0.500000 0.728644 0.750000
O O1 0.061835 0.343819 0.500000
O O2 0.124664 0.268872 0.653450
O O3 0.107191 0.457902 0.628723
O O4 0.956512 0.370683 0.644378
O O5 0.292801 0.707200 0.893799
O O6 0.189424 0.810577 0.000000
O O7 0.396069 0.396069 0.500000
O O8 0.331189 0.455984 0.333433
O O9 0.787150 0.577867 0.192171
O O10 0.849059 0.580266 0.000000
#
# Coordination Sequence:
#
# PCOD9567528 Si02
#       5
#    16   8   8  16   8
#     4   8  14  25  46  74 107 144 175 216 274 322
#     4   9  14  28  49  70 107 151 177 210 269 333
#     4  11  24  41  56  77 104 139 189 246 291 346
#     4   9  17  30  47  75 108 137 179 230 271 327
#     4  12  22  36  58  76 102 144 192 229 297 340
#
# _framework density 19.352647999999999
#
# number of rings (size 3 to 8) (size 9 to 14) (size 15 to 20)
#    0.000    2.571    2.857    2.571    0.000    2.571 
#    0.000    3.571    0.000    0.000    0.000    0.000 
#    0.000    1.143    0.000   13.000    0.000   27.429 
#
# Total GULP energy -311852.287984 kJ/mol
# GULP energy per Si atom -5568.790857 kJ/mol
# Density = 1.930860 g / cm^3
# Si number density = 19.352648 Si / 1000 Ang^3
#
#
#
# Elastic Constant Matrix: (Units=GPa)
#
#
# Indices 1 2 3 4 5 6 
#
# 1 59.4463 60.6667 38.1071 0.0000 0.0000 0.0000
# 2 60.6667 59.4462 38.1071 0.0000 0.0000 0.0000
# 3 38.1071 38.1071 122.9848 0.0000 0.0000 0.0000
# 4 0.0000 0.0000 0.0000 16.8902 0.0000 0.0000
# 5 0.0000 0.0000 0.0000 0.0000 16.8903 0.0000
# 6 0.0000 0.0000 0.0000 0.0000 0.0000 44.9775
#
#
#
# Elastic Compliance Matrix: (Units=1/GPa)
#
#
# Indices 1 2 3 4 5 6 
#
# 1 -0.404489 0.414852 -0.003211 0.000000 0.000000 0.000000
# 2 0.414852 -0.404490 -0.003211 0.000000 0.000000 0.000000
# 3 -0.003211 -0.003211 0.010121 0.000000 0.000000 0.000000
# 4 0.000000 0.000000 0.000000 0.059206 0.000000 0.000000
# 5 0.000000 0.000000 0.000000 0.000000 0.059206 0.000000
# 6 0.000000 0.000000 0.000000 0.000000 0.000000 0.022233
#
#
# Mechanical properties :
#
#
# Convention : Reuss Voigt Hill
#
# Bulk Modulus (GPa) = 55.54660 57.29322 56.41991
# Shear Modulus (GPa) = -3.40351 22.75134 9.67392
#
# Velocity S-wave (km/s) = -1.32759 3.43245 2.23822
# Velocity P-wave (km/s) = 5.13952 6.73632 5.99136
#
# Compressibility (1/GPa) = 0.01800290
#
# Stress axis : x y z
#
# Youngs Moduli (GPa) = -2.47225 -2.47225 98.80502
#
# Poissons Ratio (x) = 1.02562 0.31726
# Poissons Ratio (y) = 1.02562 0.31726
# Poissons Ratio (z) = -0.00794 -0.00794
#
# Static dielectric constant tensor:
#      x y z
#    x 1.947500 0.000000 0.000000 
#    y 0.000000 1.947500 0.000000 
#    z 0.000000 0.000000 1.719210 
# 
# From -- ./inp_files/4348.got.cif
#   From: 2010.05.17/outbox.cif.g08.bks.cpg/sg132_3_cif.got.tgz:4348.got - 2010.05.20 12:30:18.
