data_PCOD9567108
_publ_section_title
;
Structure prediction by ZEFSAII (Michael W. Deem and Ramdas Pophale) SiO2 
 PCOD9567108
Probable space group: P 42/M C M
;
_chemical_formula_sum "Si O2"
_cell_formula_units_Z 116
_cell_length_a 28.146066
_cell_length_b 28.146066
_cell_length_c 7.778502
_cell_angle_alpha 90.000000
_cell_angle_beta 90.000000
_cell_angle_gamma 90.000000
_cell_volume 6162.137306
_symmetry_space_group_name_H-M "P 42/M C M"
_symmetry_group_IT_number 132
_symmetry_cell_setting 'tetragonal'
loop_
_space_group_symop_operation_xyz
x,y,z
-y,x,1/2+z
-x,-y,z
y,-x,1/2+z
x,-y,1/2-z
-x,y,1/2-z
y,x,-z
-y,-x,-z
-x,-y,-z
y,-x,1/2-z
x,y,-z
-y,x,1/2-z
-x,y,1/2+z
x,-y,1/2+z
-y,-x,z
y,x,z
loop_
_atom_site_type_symbol
_atom_site_label
_atom_site_fract_x
_atom_site_fract_y
_atom_site_fract_z
Si Si1 0.377180 0.946818 0.205775
Si Si2 0.053438 0.170747 0.290580
Si Si3 0.136575 0.447503 0.198011
Si Si4 0.445634 0.758114 0.193896
Si Si5 0.883763 0.116238 0.500000
Si Si6 0.344849 0.731482 0.208848
Si Si7 0.275156 0.918575 0.799083
Si Si8 0.809147 0.267101 0.704194
O O1 0.410735 0.905426 0.275250
O O2 0.324066 0.938069 0.277771
O O3 0.392953 0.000000 0.250000
O O4 0.377348 0.941822 0.000000
O O5 0.063279 0.165574 0.500000
O O6 0.087241 0.144621 0.155115
O O7 0.058411 0.226307 0.240768
O O8 0.000000 0.154508 0.250000
O O9 0.119946 0.500000 0.250000
O O10 0.185046 0.436919 0.298937
O O11 0.151408 0.448534 0.000000
O O12 0.500000 0.750501 0.250000
O O13 0.398649 0.735101 0.277481
O O14 0.444910 0.741009 0.000000
O O15 0.314535 0.685466 0.264400
O O16 0.313588 0.777252 0.261639
O O17 0.345631 0.731718 0.000000
O O18 0.271620 0.861626 0.778483
O O19 0.278020 0.929404 0.000000
O O20 0.814431 0.261211 0.500000
O O21 0.778000 0.222001 0.769057
#
# Coordination Sequence:
#
# PCOD9567108 Si02
#       8
#    16  16  16  16   4  16  16  16
#     4  11  23  40  57  79 107 142 184 231 285 338
#     4  11  24  45  70 101 131 164 199 237 290 345
#     4  11  22  37  56  79 105 140 185 237 287 334
#     4  10  19  32  52  76 102 135 177 223 268 319
#     4  12  26  44  76 101 132 166 194 244 284 346
#     4   9  18  33  50  70 103 146 183 222 272 327
#     4  10  23  38  58  84 118 154 190 232 278 338
#     4  10  21  32  49  77 111 144 183 223 267 322
#
# _framework density 18.824636999999999
#
# number of rings (size 3 to 8) (size 9 to 14) (size 15 to 20)
#    0.000    1.655    0.690    4.759    1.931    6.621 
#    0.000    1.379    0.000    0.621    0.000    0.000 
#    0.000    0.276    0.000    3.448    0.000    0.000 
#
# Total GULP energy -646195.631817 kJ/mol
# GULP energy per Si atom -5570.651998 kJ/mol
# Density = 1.878179 g / cm^3
# Si number density = 18.824637 Si / 1000 Ang^3
#
#
#
# Elastic Constant Matrix: (Units=GPa)
#
#
# Indices 1 2 3 4 5 6 
#
# 1 32.6799 59.7395 -0.5825 0.0000 0.0000 0.0000
# 2 59.7395 32.6776 -0.5828 0.0000 0.0000 0.0000
# 3 -0.5825 -0.5828 56.6147 0.0000 0.0000 0.0000
# 4 0.0000 0.0000 0.0000 24.9987 0.0000 0.0000
# 5 0.0000 0.0000 0.0000 0.0000 24.9985 0.0000
# 6 0.0000 0.0000 0.0000 0.0000 0.0000 19.1889
#
#
#
# Elastic Compliance Matrix: (Units=1/GPa)
#
#
# Indices 1 2 3 4 5 6 
#
# 1 -0.013066 0.023888 0.000111 0.000000 0.000000 0.000000
# 2 0.023888 -0.013067 0.000111 0.000000 0.000000 0.000000
# 3 0.000111 0.000111 0.017666 0.000000 0.000000 0.000000
# 4 0.000000 0.000000 0.000000 0.040002 0.000000 0.000000
# 5 0.000000 0.000000 0.000000 0.000000 0.040002 0.000000
# 6 0.000000 0.000000 0.000000 0.000000 0.000000 0.052113
#
#
# Mechanical properties :
#
#
# Convention : Reuss Voigt Hill
#
# Bulk Modulus (GPa) = 25.15434 26.56897 25.86165
# Shear Modulus (GPa) = 56.38141 18.06376 37.22258
#
# Velocity S-wave (km/s) = 5.47868 3.10107 4.45155
# Velocity P-wave (km/s) = 7.30840 5.19295 6.33953
#
# Compressibility (1/GPa) = 0.03975457
#
# Stress axis : x y z
#
# Youngs Moduli (GPa) = -76.53694 -76.53143 56.60739
#
# Poissons Ratio (x) = 1.82817 -0.00631
# Poissons Ratio (y) = 1.82830 -0.00630
# Poissons Ratio (z) = 0.00853 0.00851
#
# Static dielectric constant tensor:
#      x y z
#    x 1.626990 0.000000 0.000000 
#    y 0.000000 1.626990 0.000000 
#    z 0.000000 0.000000 1.704090 
# 
# From -- ./inp_files/2081.got.cif
#   From: 2010.05.17/outbox.cif.g08.bks.cpg/sg132_2_cif.got.tgz:2081.got - 2010.05.20 12:30:18.
