data_PCOD9567630
_publ_section_title
;
Structure prediction by ZEFSAII (Michael W. Deem and Ramdas Pophale) SiO2 
 PCOD9567630
Probable space group: P 42/N B C
;
_chemical_formula_sum "Si O2"
_cell_formula_units_Z 96
_cell_length_a 30.657663
_cell_length_b 30.657663
_cell_length_c 5.351274
_cell_angle_alpha 90.000000
_cell_angle_beta 90.000000
_cell_angle_gamma 90.000000
_cell_volume 5029.621231
_symmetry_space_group_name_H-M "P 42/N B C"
_symmetry_group_IT_number 133
_space_group.IT_coordinate_system_code '2'
_symmetry_cell_setting 'tetragonal'
loop_
_space_group_symop_operation_xyz
x,y,z
1/2-y,x,1/2+z
1/2-x,1/2-y,z
y,1/2-x,1/2+z
x,1/2-y,-z
1/2-x,y,-z
y,x,1/2-z
1/2-y,1/2-x,1/2-z
-x,-y,-z
1/2+y,-x,1/2-z
1/2+x,1/2+y,-z
-y,1/2+x,1/2-z
-x,1/2+y,z
1/2+x,-y,z
-y,-x,1/2+z
1/2+y,1/2+x,1/2+z
loop_
_atom_site_type_symbol
_atom_site_label
_atom_site_fract_x
_atom_site_fract_y
_atom_site_fract_z
Si Si1 0.250000 0.594599 0.500000
Si Si2 0.053518 0.197413 0.973480
Si Si3 0.950216 0.250000 0.500000
Si Si4 0.842039 0.801304 0.001473
Si Si5 0.611584 0.421955 0.039014
Si Si6 0.342857 0.826626 0.068740
Si Si7 0.007014 0.330699 0.543814
O O1 0.268065 0.572880 0.752697
O O2 0.292699 0.618469 0.392851
O O3 0.036642 0.168136 0.207668
O O4 0.043186 0.250000 0.000000
O O5 0.105728 0.194509 0.978486
O O6 0.033376 0.179566 0.712224
O O7 0.979152 0.288084 0.605935
O O8 0.821919 0.821919 0.250000
O O9 0.831270 0.750000 0.000000
O O10 0.823834 0.823834 0.750000
O O11 0.587946 0.419448 0.304717
O O12 0.643011 0.377972 0.042253
O O13 0.633857 0.468825 0.998688
O O14 0.312796 0.822998 0.306819
#
# Coordination Sequence:
#
# PCOD9567630 Si02
#       7
#     8  16   8  16  16  16  16
#     4  12  22  34  54  73 102 140 190 244 313 384
#     4  11  22  40  56  89 131 162 203 252 312 365
#     4  12  20  30  50  82 106 141 189 226 294 386
#     4  11  24  42  68  98 138 186 223 264 293 326
#     4  10  19  33  48  73 110 146 187 249 310 373
#     4  10  20  35  48  68  95 131 179 242 303 360
#     4  12  21  34  55  81 119 160 197 247 313 398
#
# _framework density 19.086924
#
# number of rings (size 3 to 8) (size 9 to 14) (size 15 to 20)
#    0.000    1.000    1.667    8.500    0.000    3.667 
#    0.000    0.000    0.000    1.500    0.000    0.000 
#    0.000   46.667    0.000    0.000    0.000    0.000 
#
# Total GULP energy -534697.918818 kJ/mol
# GULP energy per Si atom -5569.769988 kJ/mol
# Density = 1.904348 g / cm^3
# Si number density = 19.086924 Si / 1000 Ang^3
#
#
#
# Elastic Constant Matrix: (Units=GPa)
#
#
# Indices 1 2 3 4 5 6 
#
# 1 61.3328 45.3203 31.7681 0.0000 0.0000 0.0000
# 2 45.3203 61.3328 31.7681 0.0000 0.0000 0.0000
# 3 31.7681 31.7681 147.4664 0.0000 0.0000 0.0000
# 4 0.0000 0.0000 0.0000 49.3123 0.0000 0.0000
# 5 0.0000 0.0000 0.0000 0.0000 49.3123 0.0000
# 6 0.0000 0.0000 0.0000 0.0000 0.0000 21.6554
#
#
#
# Elastic Compliance Matrix: (Units=1/GPa)
#
#
# Indices 1 2 3 4 5 6 
#
# 1 0.036604 -0.025847 -0.002317 0.000000 0.000000 0.000000
# 2 -0.025847 0.036604 -0.002317 0.000000 0.000000 0.000000
# 3 -0.002317 -0.002317 0.007780 0.000000 0.000000 0.000000
# 4 0.000000 0.000000 0.000000 0.020279 0.000000 0.000000
# 5 0.000000 0.000000 0.000000 0.000000 0.020279 0.000000
# 6 0.000000 0.000000 0.000000 0.000000 0.000000 0.046178
#
#
# Mechanical properties :
#
#
# Convention : Reuss Voigt Hill
#
# Bulk Modulus (GPa) = 49.94042 54.20500 52.07271
# Shear Modulus (GPa) = 21.24392 34.80770 28.02581
#
# Velocity S-wave (km/s) = 3.33980 4.27504 3.83603
# Velocity P-wave (km/s) = 6.41045 7.26833 6.85283
#
# Compressibility (1/GPa) = 0.02002386
#
# Stress axis : x y z
#
# Youngs Moduli (GPa) = 27.31944 27.31944 128.54126
#
# Poissons Ratio (x) = 0.70613 0.29786
# Poissons Ratio (y) = 0.70613 0.29786
# Poissons Ratio (z) = 0.06331 0.06331
#
# Static dielectric constant tensor:
#      x y z
#    x 1.686570 0.000000 0.000000 
#    y 0.000000 1.686570 0.000000 
#    z 0.000000 0.000000 1.732350 
# 
# From -- ./inp_files/589.got.cif
#   From: 2010.05.17/outbox.cif.g08.bks.cpg/sg133_1_cif.got.tgz:589.got - 2010.05.20 12:37:36.
