data_PCOD9567217
_publ_section_title
;
Structure prediction by ZEFSAII (Michael W. Deem and Ramdas Pophale) SiO2 
 PCOD9567217
Probable space group: P 42/M C M
;
_chemical_formula_sum "Si O2"
_cell_formula_units_Z 88
_cell_length_a 12.909448
_cell_length_b 12.909448
_cell_length_c 29.487174
_cell_angle_alpha 90.000000
_cell_angle_beta 90.000000
_cell_angle_gamma 90.000000
_cell_volume 4914.151004
_symmetry_space_group_name_H-M "P 42/M C M"
_symmetry_group_IT_number 132
_symmetry_cell_setting 'tetragonal'
loop_
_space_group_symop_operation_xyz
x,y,z
-y,x,1/2+z
-x,-y,z
y,-x,1/2+z
x,-y,1/2-z
-x,y,1/2-z
y,x,-z
-y,-x,-z
-x,-y,-z
y,-x,1/2-z
x,y,-z
-y,x,1/2-z
-x,y,1/2+z
x,-y,1/2+z
-y,-x,z
y,x,z
loop_
_atom_site_type_symbol
_atom_site_label
_atom_site_fract_x
_atom_site_fract_y
_atom_site_fract_z
Si Si1 0.769364 0.406347 0.410841
Si Si2 0.234916 0.927951 0.707927
Si Si3 0.775368 0.617256 0.262576
Si Si4 0.993189 0.619527 0.872807
Si Si5 0.326399 0.502949 0.000000
Si Si6 0.385284 0.218152 0.368448
O O1 0.691796 0.308205 0.407486
O O2 0.890326 0.375661 0.404307
O O3 0.741394 0.471014 0.456257
O O4 0.749972 0.494509 0.372966
O O5 0.136983 0.863018 0.690923
O O6 0.315405 0.848992 0.730998
O O7 0.296899 0.979024 0.666818
O O8 0.203045 0.000000 0.750000
O O9 0.787759 0.500000 0.250000
O O10 0.659740 0.659740 0.255792
O O11 0.801158 0.634563 0.315258
O O12 0.000000 0.500000 0.855058
O O13 0.108280 0.633665 0.893335
O O14 0.420732 0.420732 0.000000
O O15 0.384525 0.615475 0.000000
O O16 0.308797 0.308797 0.383989
#
# Coordination Sequence:
#
# PCOD9567217 Si02
#       6
#    16  16  16  16   8  16
#     4  10  20  35  56  83 107 135 175 216 267 324
#     4  11  22  34  51  73  99 135 183 231 266 307
#     4  10  20  32  47  69  98 135 176 217 264 316
#     4  10  20  34  53  77 107 142 177 221 270 324
#     4   9  18  34  57  84 115 145 173 215 272 335
#     4  10  20  34  51  73 105 142 177 216 267 324
#
# _framework density 17.907468000000001
#
# number of rings (size 3 to 8) (size 9 to 14) (size 15 to 20)
#    0.000    1.909    1.818    3.273    0.000    3.636 
#    0.000    5.909    0.000    1.636    0.000    0.000 
#    0.000    2.182    0.000    0.000    0.000    1.455 
#
# Total GULP energy -490063.691418 kJ/mol
# GULP energy per Si atom -5568.905584 kJ/mol
# Density = 1.786671 g / cm^3
# Si number density = 17.907468 Si / 1000 Ang^3
#
#
#
# Elastic Constant Matrix: (Units=GPa)
#
#
# Indices 1 2 3 4 5 6 
#
# 1 82.9291 42.7689 5.3415 0.0000 0.0000 0.0000
# 2 42.7689 82.9291 5.3415 0.0000 0.0000 0.0000
# 3 5.3415 5.3415 35.2341 0.0000 0.0000 0.0000
# 4 0.0000 0.0000 0.0000 27.4152 0.0000 0.0000
# 5 0.0000 0.0000 0.0000 0.0000 27.4028 0.0000
# 6 0.0000 0.0000 0.0000 0.0000 0.0000 24.5421
#
#
#
# Elastic Compliance Matrix: (Units=1/GPa)
#
#
# Indices 1 2 3 4 5 6 
#
# 1 0.016480 -0.008420 -0.001222 0.000000 0.000000 0.000000
# 2 -0.008420 0.016480 -0.001222 0.000000 0.000000 0.000000
# 3 -0.001222 -0.001222 0.028752 0.000000 0.000000 0.000000
# 4 0.000000 0.000000 0.000000 0.036476 0.000000 0.000000
# 5 0.000000 0.000000 0.000000 0.000000 0.036493 0.000000
# 6 0.000000 0.000000 0.000000 0.000000 0.000000 0.040746
#
#
# Mechanical properties :
#
#
# Convention : Reuss Voigt Hill
#
# Bulk Modulus (GPa) = 25.01022 34.22179 29.61600
# Shear Modulus (GPa) = 23.75492 25.71473 24.73482
#
# Velocity S-wave (km/s) = 3.64612 3.79354 3.72056
# Velocity P-wave (km/s) = 5.63225 6.19191 5.91870
#
# Compressibility (1/GPa) = 0.03998366
#
# Stress axis : x y z
#
# Youngs Moduli (GPa) = 60.68021 60.68017 34.78011
#
# Poissons Ratio (x) = 0.51095 0.04250
# Poissons Ratio (y) = 0.51095 0.04249
# Poissons Ratio (z) = 0.07414 0.07414
#
# Static dielectric constant tensor:
#      x y z
#    x 1.646350 0.000000 0.000000 
#    y 0.000000 1.646350 0.000000 
#    z 0.000000 0.000000 1.644350 
# 
# From -- ./inp_files/10801.got.cif
#   From: 2010.05.17/outbox.cif.g08.bks.cpg/sg132_6_cif.got.tgz:10801.got - 2010.05.20 12:30:18.
