data_PCOD9567901
_publ_section_title
;
Structure prediction by ZEFSAII (Michael W. Deem and Ramdas Pophale) SiO2 
 PCOD9567901
Probable space group: P 42/N B C
;
_chemical_formula_sum "Si O2"
_cell_formula_units_Z 88
_cell_length_a 12.171632
_cell_length_b 12.171632
_cell_length_c 27.309901
_cell_angle_alpha 90.000000
_cell_angle_beta 90.000000
_cell_angle_gamma 90.000000
_cell_volume 4045.924297
_symmetry_space_group_name_H-M "P 42/N B C"
_symmetry_group_IT_number 133
_space_group.IT_coordinate_system_code '2'
_symmetry_cell_setting 'tetragonal'
loop_
_space_group_symop_operation_xyz
x,y,z
1/2-y,x,1/2+z
1/2-x,1/2-y,z
y,1/2-x,1/2+z
x,1/2-y,-z
1/2-x,y,-z
y,x,1/2-z
1/2-y,1/2-x,1/2-z
-x,-y,-z
1/2+y,-x,1/2-z
1/2+x,1/2+y,-z
-y,1/2+x,1/2-z
-x,1/2+y,z
1/2+x,-y,z
-y,-x,1/2+z
1/2+y,1/2+x,1/2+z
loop_
_atom_site_type_symbol
_atom_site_label
_atom_site_fract_x
_atom_site_fract_y
_atom_site_fract_z
Si Si1 0.660958 0.846278 0.193237
Si Si2 0.300725 0.501568 0.879192
Si Si3 0.443899 0.091511 0.036359
Si Si4 0.250000 0.750000 0.750000
Si Si5 0.250000 0.250000 0.000000
Si Si6 0.711038 0.416535 0.667871
Si Si7 0.842313 0.334233 0.073916
O O1 0.750000 0.750000 0.196024
O O2 0.628100 0.871901 0.250000
O O3 0.725792 0.932702 0.158687
O O4 0.546420 0.807766 0.169418
O O5 0.402591 0.453865 0.910704
O O6 0.355138 0.600297 0.848819
O O7 0.217029 0.549152 0.920244
O O8 0.548086 0.169191 0.043726
O O9 0.338063 0.163324 0.022113
O O10 0.500000 0.000000 0.000000
O O11 0.360497 0.747339 0.781886
O O12 0.799857 0.380144 0.628139
O O13 0.750000 0.250000 0.057147
#
# Coordination Sequence:
#
# PCOD9567901 Si02
#       7
#    16  16  16   4   4  16  16
#     4  11  25  42  64 104 146 191 240 298 369 452
#     4  11  23  46  70 105 143 191 242 309 386 456
#     4  12  28  49  76 109 145 195 259 320 399 468
#     4  12  20  44  72 116 142 200 268 300 372 468
#     4  12  32  48  78 114 150 196 256 334 392 482
#     4  11  23  42  73 102 146 190 244 306 369 455
#     4  10  23  44  73 102 139 187 237 302 384 448
#
# _framework density 21.750284000000001
#
# number of rings (size 3 to 8) (size 9 to 14) (size 15 to 20)
#    0.000    0.909    2.727    4.364    8.909    0.000 
#    3.273    0.000    0.000    0.000    0.000    0.000 
#    0.000    0.000    0.000    0.000    0.000    0.000 
#
# Total GULP energy -490615.463494 kJ/mol
# GULP energy per Si atom -5575.175722 kJ/mol
# Density = 2.170078 g / cm^3
# Si number density = 21.750284 Si / 1000 Ang^3
#
#
#
# Elastic Constant Matrix: (Units=GPa)
#
#
# Indices 1 2 3 4 5 6 
#
# 1 123.8480 32.6384 34.7664 0.0000 0.0000 0.0000
# 2 32.6384 123.8479 34.7664 0.0000 0.0000 0.0000
# 3 34.7664 34.7664 80.4701 0.0000 0.0000 0.0000
# 4 0.0000 0.0000 0.0000 12.3341 0.0000 0.0000
# 5 0.0000 0.0000 0.0000 0.0000 12.3339 0.0000
# 6 0.0000 0.0000 0.0000 0.0000 0.0000 1.3192
#
#
#
# Elastic Compliance Matrix: (Units=1/GPa)
#
#
# Indices 1 2 3 4 5 6 
#
# 1 0.009436 -0.001528 -0.003417 0.000000 0.000000 0.000000
# 2 -0.001528 0.009436 -0.003417 0.000000 0.000000 0.000000
# 3 -0.003417 -0.003417 0.015379 0.000000 0.000000 0.000000
# 4 0.000000 0.000000 0.000000 0.081076 0.000000 0.000000
# 5 0.000000 0.000000 0.000000 0.000000 0.081077 0.000000
# 6 0.000000 0.000000 0.000000 0.000000 0.000000 0.758062
#
#
# Mechanical properties :
#
#
# Convention : Reuss Voigt Hill
#
# Bulk Modulus (GPa) = 57.04762 59.16760 58.10761
# Shear Modulus (GPa) = 5.11754 20.26376 12.69065
#
# Velocity S-wave (km/s) = 1.53557 3.05561 2.41813
# Velocity P-wave (km/s) = 5.42488 6.30168 5.87965
#
# Compressibility (1/GPa) = 0.01752922
#
# Stress axis : x y z
#
# Youngs Moduli (GPa) = 105.97535 105.97524 65.02213
#
# Poissons Ratio (x) = 0.16189 0.22217
# Poissons Ratio (y) = 0.16189 0.22217
# Poissons Ratio (z) = 0.36210 0.36210
#
# Static dielectric constant tensor:
#      x y z
#    x 1.825000 0.000000 0.000000 
#    y 0.000000 1.825000 0.000000 
#    z 0.000000 0.000000 1.873730 
# 
# From -- ./inp_files/8015.got.cif
#   From: 2010.05.17/outbox.cif.g08.bks.cpg/sg133_5_cif.got.tgz:8015.got - 2010.05.20 12:37:36.
