data_PCOD9567575
_publ_section_title
;
Structure prediction by ZEFSAII (Michael W. Deem and Ramdas Pophale) SiO2 
 PCOD9567575
Probable space group: P 42/N B C
;
_chemical_formula_sum "Si O2"
_cell_formula_units_Z 112
_cell_length_a 14.423541
_cell_length_b 14.423541
_cell_length_c 28.762442
_cell_angle_alpha 90.000000
_cell_angle_beta 90.000000
_cell_angle_gamma 90.000000
_cell_volume 5983.696296
_symmetry_space_group_name_H-M "P 42/N B C"
_symmetry_group_IT_number 133
_space_group.IT_coordinate_system_code '2'
_symmetry_cell_setting 'tetragonal'
loop_
_space_group_symop_operation_xyz
x,y,z
1/2-y,x,1/2+z
1/2-x,1/2-y,z
y,1/2-x,1/2+z
x,1/2-y,-z
1/2-x,y,-z
y,x,1/2-z
1/2-y,1/2-x,1/2-z
-x,-y,-z
1/2+y,-x,1/2-z
1/2+x,1/2+y,-z
-y,1/2+x,1/2-z
-x,1/2+y,z
1/2+x,-y,z
-y,-x,1/2+z
1/2+y,1/2+x,1/2+z
loop_
_atom_site_type_symbol
_atom_site_label
_atom_site_fract_x
_atom_site_fract_y
_atom_site_fract_z
Si Si1 0.445387 0.226413 0.613888
Si Si2 0.991451 0.768749 0.867256
Si Si3 0.961648 0.415227 0.396007
Si Si4 0.586239 0.103258 0.091498
Si Si5 0.301044 0.130694 0.547536
Si Si6 0.661063 0.817317 0.197108
Si Si7 0.096258 0.550189 0.510458
O O1 0.476855 0.331298 0.623150
O O2 0.540085 0.173342 0.602593
O O3 0.373441 0.204250 0.570699
O O4 0.396970 0.181974 0.659122
O O5 0.040815 0.869819 0.872119
O O6 0.067467 0.690440 0.875826
O O7 0.911567 0.748797 0.907212
O O8 0.932388 0.767512 0.820345
O O9 0.924407 0.382181 0.446864
O O10 0.032799 0.499931 0.402451
O O11 0.589030 0.134560 0.037517
O O12 0.250000 0.159824 0.500000
O O13 0.346908 0.035311 0.530431
O O14 0.750000 0.750000 0.194770
O O15 0.650569 0.849432 0.250000
O O16 0.000000 0.500000 0.500000
#
# Coordination Sequence:
#
# PCOD9567575 Si02
#       7
#    16  16  16  16  16  16  16
#     4  11  22  37  58  89 121 159 204 253 311 367
#     4  10  20  36  62  85 120 164 195 245 307 359
#     4  10  21  36  54  84 127 159 204 248 294 363
#     4  11  19  35  59  81 123 164 203 248 294 359
#     4  10  17  32  56  81 115 161 206 251 291 339
#     4  10  21  42  66  90 116 145 200 267 319 367
#     4   9  16  31  50  74 112 161 193 239 285 329
#
# _framework density 18.717528000000001
#
# number of rings (size 3 to 8) (size 9 to 14) (size 15 to 20)
#    0.000    1.857    7.143    0.857    0.000    1.143 
#    0.000    1.429   12.571    1.714    0.000    2.000 
#    0.000    0.000    0.000    0.000    0.000    0.000 
#
# Total GULP energy -623544.508465 kJ/mol
# GULP energy per Si atom -5567.361683 kJ/mol
# Density = 1.867493 g / cm^3
# Si number density = 18.717528 Si / 1000 Ang^3
#
#
#
# Elastic Constant Matrix: (Units=GPa)
#
#
# Indices 1 2 3 4 5 6 
#
# 1 48.5050 3.4275 12.4381 0.0000 0.0000 0.0000
# 2 3.4275 48.5049 12.4380 0.0000 0.0000 0.0000
# 3 12.4381 12.4380 107.7773 0.0000 0.0000 0.0000
# 4 0.0000 0.0000 0.0000 15.4779 0.0000 0.0000
# 5 0.0000 0.0000 0.0000 0.0000 15.4778 0.0000
# 6 0.0000 0.0000 0.0000 0.0000 0.0000 14.4126
#
#
#
# Elastic Compliance Matrix: (Units=1/GPa)
#
#
# Indices 1 2 3 4 5 6 
#
# 1 0.021283 -0.000901 -0.002352 0.000000 0.000000 0.000000
# 2 -0.000901 0.021283 -0.002352 0.000000 0.000000 0.000000
# 3 -0.002352 -0.002352 0.009821 0.000000 0.000000 0.000000
# 4 0.000000 0.000000 0.000000 0.064608 0.000000 0.000000
# 5 0.000000 0.000000 0.000000 0.000000 0.064609 0.000000
# 6 0.000000 0.000000 0.000000 0.000000 0.000000 0.069384
#
#
# Mechanical properties :
#
#
# Convention : Reuss Voigt Hill
#
# Bulk Modulus (GPa) = 24.28519 29.04383 26.66451
# Shear Modulus (GPa) = 18.12089 20.83924 19.48006
#
# Velocity S-wave (km/s) = 3.11484 3.34032 3.22955
# Velocity P-wave (km/s) = 5.09304 5.51612 5.30880
#
# Compressibility (1/GPa) = 0.04117737
#
# Stress axis : x y z
#
# Youngs Moduli (GPa) = 46.98524 46.98519 101.81936
#
# Poissons Ratio (x) = 0.04232 0.23950
# Poissons Ratio (y) = 0.04232 0.23950
# Poissons Ratio (z) = 0.11052 0.11052
#
# Static dielectric constant tensor:
#      x y z
#    x 1.675250 0.000000 0.000000 
#    y 0.000000 1.675250 0.000000 
#    z 0.000000 0.000000 1.691650 
# 
# From -- ./inp_files/7629.got.cif
#   From: 2010.05.17/outbox.cif.g08.bks.cpg/sg133_4_cif.got.tgz:7629.got - 2010.05.20 12:37:36.
