data_PCOD9567770
_publ_section_title
;
Structure prediction by ZEFSAII (Michael W. Deem and Ramdas Pophale) SiO2 
 PCOD9567770
Probable space group: P 42/N B C
;
_chemical_formula_sum "Si O2"
_cell_formula_units_Z 100
_cell_length_a 13.923725
_cell_length_b 13.923725
_cell_length_c 27.027130
_cell_angle_alpha 90.000000
_cell_angle_beta 90.000000
_cell_angle_gamma 90.000000
_cell_volume 5239.752879
_symmetry_space_group_name_H-M "P 42/N B C"
_symmetry_group_IT_number 133
_space_group.IT_coordinate_system_code '2'
_symmetry_cell_setting 'tetragonal'
loop_
_space_group_symop_operation_xyz
x,y,z
1/2-y,x,1/2+z
1/2-x,1/2-y,z
y,1/2-x,1/2+z
x,1/2-y,-z
1/2-x,y,-z
y,x,1/2-z
1/2-y,1/2-x,1/2-z
-x,-y,-z
1/2+y,-x,1/2-z
1/2+x,1/2+y,-z
-y,1/2+x,1/2-z
-x,1/2+y,z
1/2+x,-y,z
-y,-x,1/2+z
1/2+y,1/2+x,1/2+z
loop_
_atom_site_type_symbol
_atom_site_label
_atom_site_fract_x
_atom_site_fract_y
_atom_site_fract_z
Si Si1 0.419900 0.500384 0.199753
Si Si2 0.044928 0.612466 0.121699
Si Si3 0.656505 0.022710 0.029230
Si Si4 0.516971 0.862211 0.008361
Si Si5 0.206327 0.598293 0.325481
Si Si6 0.750000 0.250000 0.750000
Si Si7 0.444430 0.765854 0.366150
O O1 0.447114 0.447114 0.250000
O O2 0.476512 0.453785 0.154249
O O3 0.448522 0.613373 0.200149
O O4 0.307664 0.502853 0.182844
O O5 0.019294 0.616467 0.064173
O O6 0.036552 0.719544 0.144039
O O7 0.153713 0.574945 0.129417
O O8 0.612285 0.927327 0.003882
O O9 0.693126 0.006081 0.084730
O O10 0.750000 0.058825 0.000000
O O11 0.568083 0.097570 0.026641
O O12 0.532772 0.750000 0.000000
O O13 0.263383 0.657213 0.283769
O O14 0.157227 0.677905 0.361134
#
# Coordination Sequence:
#
# PCOD9567770 Si02
#       7
#    16  16  16  16  16   4  16
#     4  10  23  37  59  89 121 161 203 248 315 371
#     4  12  20  39  63  87 126 157 196 270 305 370
#     4  11  22  42  61  87 126 162 207 260 313 386
#     4  11  24  37  64  92 123 165 210 255 322 384
#     4  10  21  33  56  87 119 145 205 246 309 357
#     4  12  16  32  56  84 114 156 184 260 304 348
#     4  10  21  38  58  89 119 157 202 252 318 362
#
# _framework density 19.084869999999999
#
# number of rings (size 3 to 8) (size 9 to 14) (size 15 to 20)
#    0.960    0.320    4.800    1.920    0.000    0.640 
#    0.000    0.000    0.000    0.960    0.000    2.240 
#    0.000    0.000    0.000    0.000    0.000    0.000 
#
# Total GULP energy -557324.628407 kJ/mol
# GULP energy per Si atom -5573.246284 kJ/mol
# Density = 1.904143 g / cm^3
# Si number density = 19.084870 Si / 1000 Ang^3
#
#
#
# Elastic Constant Matrix: (Units=GPa)
#
#
# Indices 1 2 3 4 5 6 
#
# 1 41.1805 6.1078 -1.2417 0.0000 0.0000 0.0000
# 2 6.1078 41.1805 -1.2417 0.0000 0.0000 0.0000
# 3 -1.2417 -1.2417 76.5078 0.0000 0.0000 0.0000
# 4 0.0000 0.0000 0.0000 23.9427 0.0000 0.0000
# 5 0.0000 0.0000 0.0000 0.0000 23.9427 0.0000
# 6 0.0000 0.0000 0.0000 0.0000 0.0000 23.4440
#
#
#
# Elastic Compliance Matrix: (Units=1/GPa)
#
#
# Indices 1 2 3 4 5 6 
#
# 1 0.024839 -0.003674 0.000344 0.000000 0.000000 0.000000
# 2 -0.003674 0.024839 0.000344 0.000000 0.000000 0.000000
# 3 0.000344 0.000344 0.013082 0.000000 0.000000 0.000000
# 4 0.000000 0.000000 0.000000 0.041766 0.000000 0.000000
# 5 0.000000 0.000000 0.000000 0.000000 0.041766 0.000000
# 6 0.000000 0.000000 0.000000 0.000000 0.000000 0.042655
#
#
# Mechanical properties :
#
#
# Convention : Reuss Voigt Hill
#
# Bulk Modulus (GPa) = 17.61012 18.45752 18.03382
# Shear Modulus (GPa) = 23.38107 24.61551 23.99829
#
# Velocity S-wave (km/s) = 3.50395 3.59526 3.54990
# Velocity P-wave (km/s) = 5.06138 5.18911 5.12564
#
# Compressibility (1/GPa) = 0.05678553
#
# Stress axis : x y z
#
# Youngs Moduli (GPa) = 40.25998 40.25998 76.44263
#
# Poissons Ratio (x) = 0.14790 -0.02626
# Poissons Ratio (y) = 0.14790 -0.02626
# Poissons Ratio (z) = -0.01383 -0.01383
#
# Static dielectric constant tensor:
#      x y z
#    x 1.673540 0.000000 0.000000 
#    y 0.000000 1.673540 0.000000 
#    z 0.000000 0.000000 1.713750 
# 
# From -- ./inp_files/7613.got.cif
#   From: 2010.05.17/outbox.cif.g08.bks.cpg/sg133_4_cif.got.tgz:7613.got - 2010.05.20 12:37:36.
