data_PCOD9567480
_publ_section_title
;
Structure prediction by ZEFSAII (Michael W. Deem and Ramdas Pophale) SiO2 
 PCOD9567480
Probable space group: P 42/M C M
;
_chemical_formula_sum "Si O2"
_cell_formula_units_Z 88
_cell_length_a 12.806711
_cell_length_b 12.806711
_cell_length_c 29.015448
_cell_angle_alpha 90.000000
_cell_angle_beta 90.000000
_cell_angle_gamma 90.000000
_cell_volume 4758.877207
_symmetry_space_group_name_H-M "P 42/M C M"
_symmetry_group_IT_number 132
_symmetry_cell_setting 'tetragonal'
loop_
_space_group_symop_operation_xyz
x,y,z
-y,x,1/2+z
-x,-y,z
y,-x,1/2+z
x,-y,1/2-z
-x,y,1/2-z
y,x,-z
-y,-x,-z
-x,-y,-z
y,-x,1/2-z
x,y,-z
-y,x,1/2-z
-x,y,1/2+z
x,-y,1/2+z
-y,-x,z
y,x,z
loop_
_atom_site_type_symbol
_atom_site_label
_atom_site_fract_x
_atom_site_fract_y
_atom_site_fract_z
Si Si1 0.624027 0.021234 0.803953
Si Si2 0.502387 0.770232 0.390743
Si Si3 0.585995 0.414006 0.950863
Si Si4 0.285585 0.889884 0.613012
Si Si5 0.943132 0.612893 0.447388
Si Si6 0.249635 0.420707 0.291908
O O1 0.641599 0.145004 0.805533
O O2 0.500000 0.000000 0.814959
O O3 0.639758 0.000000 0.750000
O O4 0.691286 0.950561 0.838616
O O5 0.529304 0.676680 0.423851
O O6 0.386193 0.815255 0.394523
O O7 0.586253 0.856681 0.408612
O O8 0.516724 0.730527 0.338757
O O9 0.500000 0.500000 0.956961
O O10 0.625621 0.374380 0.000000
O O11 0.181244 0.818757 0.612714
O O12 0.300892 0.977602 0.573216
O O13 0.908493 0.637515 0.500000
O O14 0.000000 0.500000 0.450460
O O15 0.227833 0.500000 0.250000
O O16 0.343826 0.343826 0.280241
#
# Coordination Sequence:
#
# PCOD9567480 Si02
#       6
#    16  16   8  16  16  16
#     4  11  19  38  61  81 118 159 206 252 297 367
#     4  11  20  38  58  81 119 164 208 246 297 374
#     4  11  24  38  54  82 123 167 205 247 304 374
#     4  11  21  34  59  90 120 158 202 262 323 363
#     4   9  18  34  58  84 113 153 205 257 302 357
#     4  12  24  39  61  90 122 159 199 246 301 365
#
# _framework density 18.491757
#
# number of rings (size 3 to 8) (size 9 to 14) (size 15 to 20)
#    0.000    1.182    6.364    1.636    0.000    4.909 
#    0.000    0.000    0.000    0.545    0.000    1.273 
#    0.000    3.636    0.000    0.000    0.000    0.000 
#
# Total GULP energy -490292.239780 kJ/mol
# GULP energy per Si atom -5571.502725 kJ/mol
# Density = 1.844967 g / cm^3
# Si number density = 18.491757 Si / 1000 Ang^3
#
#
#
# Elastic Constant Matrix: (Units=GPa)
#
#
# Indices 1 2 3 4 5 6 
#
# 1 69.6472 34.0502 34.2794 0.0000 0.0000 0.0000
# 2 34.0502 69.6471 34.2794 0.0000 0.0000 0.0000
# 3 34.2794 34.2794 146.4132 0.0000 0.0000 0.0000
# 4 0.0000 0.0000 0.0000 38.7205 0.0000 0.0000
# 5 0.0000 0.0000 0.0000 0.0000 38.7196 0.0000
# 6 0.0000 0.0000 0.0000 0.0000 0.0000 38.1902
#
#
#
# Elastic Compliance Matrix: (Units=1/GPa)
#
#
# Indices 1 2 3 4 5 6 
#
# 1 0.019751 -0.008341 -0.002671 0.000000 0.000000 0.000000
# 2 -0.008341 0.019751 -0.002671 0.000000 0.000000 0.000000
# 3 -0.002671 -0.002671 0.008081 0.000000 0.000000 0.000000
# 4 0.000000 0.000000 0.000000 0.025826 0.000000 0.000000
# 5 0.000000 0.000000 0.000000 0.000000 0.025827 0.000000
# 6 0.000000 0.000000 0.000000 0.000000 0.000000 0.026185
#
#
# Mechanical properties :
#
#
# Convention : Reuss Voigt Hill
#
# Bulk Modulus (GPa) = 49.46877 54.54726 52.00802
# Shear Modulus (GPa) = 31.34278 35.33263 33.33771
#
# Velocity S-wave (km/s) = 4.12146 4.37592 4.25059
# Velocity P-wave (km/s) = 7.03267 7.42252 7.23022
#
# Compressibility (1/GPa) = 0.02021477
#
# Stress axis : x y z
#
# Youngs Moduli (GPa) = 50.63062 50.63055 123.74966
#
# Poissons Ratio (x) = 0.42233 0.33057
# Poissons Ratio (y) = 0.42233 0.33057
# Poissons Ratio (z) = 0.13525 0.13525
#
# Static dielectric constant tensor:
#      x y z
#    x 1.411720 0.000000 0.000000 
#    y 0.000000 1.411720 0.000000 
#    z 0.000000 0.000000 1.746150 
# 
# From -- ./inp_files/10748.got.cif
#   From: 2010.05.17/outbox.cif.g08.bks.cpg/sg132_6_cif.got.tgz:10748.got - 2010.05.20 12:30:18.
