data_PCOD9567435
_publ_section_title
;
Structure prediction by ZEFSAII (Michael W. Deem and Ramdas Pophale) SiO2 
 PCOD9567435
Probable space group: P 42/M C M
;
_chemical_formula_sum "Si O2"
_cell_formula_units_Z 84
_cell_length_a 12.234005
_cell_length_b 12.234005
_cell_length_c 29.198373
_cell_angle_alpha 90.000000
_cell_angle_beta 90.000000
_cell_angle_gamma 90.000000
_cell_volume 4370.146133
_symmetry_space_group_name_H-M "P 42/M C M"
_symmetry_group_IT_number 132
_symmetry_cell_setting 'tetragonal'
loop_
_space_group_symop_operation_xyz
x,y,z
-y,x,1/2+z
-x,-y,z
y,-x,1/2+z
x,-y,1/2-z
-x,y,1/2-z
y,x,-z
-y,-x,-z
-x,-y,-z
y,-x,1/2-z
x,y,-z
-y,x,1/2-z
-x,y,1/2+z
x,-y,1/2+z
-y,-x,z
y,x,z
loop_
_atom_site_type_symbol
_atom_site_label
_atom_site_fract_x
_atom_site_fract_y
_atom_site_fract_z
Si Si1 0.906180 0.722210 0.212419
Si Si2 0.452533 0.723197 0.702837
Si Si3 0.296334 0.116860 0.446057
Si Si4 0.512939 0.756369 0.606434
Si Si5 0.500000 0.500000 0.584025
Si Si6 0.104879 0.711647 0.607429
O O1 0.824785 0.824785 0.219194
O O2 0.831755 0.613849 0.215951
O O3 0.942136 0.722271 0.159278
O O4 0.000000 0.722914 0.250000
O O5 0.500000 0.680105 0.750000
O O6 0.363982 0.636019 0.684401
O O7 0.534264 0.742887 0.661155
O O8 0.321515 0.118125 0.500000
O O9 0.185001 0.185001 0.438967
O O10 0.391861 0.178584 0.418693
O O11 0.287136 0.994360 0.427600
O O12 0.500541 0.635581 0.585965
O O13 0.400699 0.826066 0.604054
O O14 0.189316 0.810685 0.600679
#
# Coordination Sequence:
#
# PCOD9567435 Si02
#       6
#    16  16  16  16   4  16
#     4   9  20  38  56  84 122 161 211 258 306 372
#     4  10  22  35  55  87 124 164 205 249 306 379
#     4  11  26  45  67  97 129 165 217 275 329 390
#     4  11  22  42  66  94 132 171 213 266 322 389
#     4  12  20  40  74  96 128 174 212 264 330 376
#     4  10  22  43  67  92 129 172 215 267 329 391
#
# _framework density 19.221326000000001
#
# number of rings (size 3 to 8) (size 9 to 14) (size 15 to 20)
#    0.000    1.714    2.857    1.714    4.000    3.810 
#    0.000    3.810    0.000    0.000    0.000    0.000 
#    0.000    0.000    0.000    0.000    0.000    0.000 
#
# Total GULP energy -468051.723606 kJ/mol
# GULP energy per Si atom -5572.044329 kJ/mol
# Density = 1.917758 g / cm^3
# Si number density = 19.221326 Si / 1000 Ang^3
#
#
#
# Elastic Constant Matrix: (Units=GPa)
#
#
# Indices 1 2 3 4 5 6 
#
# 1 97.1967 23.7764 54.1736 0.0000 0.0000 0.0000
# 2 23.7764 97.1967 54.1736 0.0000 0.0000 0.0000
# 3 54.1736 54.1736 91.7797 0.0000 0.0000 0.0000
# 4 0.0000 0.0000 0.0000 50.0975 0.0000 0.0000
# 5 0.0000 0.0000 0.0000 0.0000 50.0975 0.0000
# 6 0.0000 0.0000 0.0000 0.0000 0.0000 5.8626
#
#
#
# Elastic Compliance Matrix: (Units=1/GPa)
#
#
# Indices 1 2 3 4 5 6 
#
# 1 0.015579 0.001959 -0.010352 0.000000 0.000000 0.000000
# 2 0.001959 0.015579 -0.010352 0.000000 0.000000 0.000000
# 3 -0.010352 -0.010352 0.023116 0.000000 0.000000 0.000000
# 4 0.000000 0.000000 0.000000 0.019961 0.000000 0.000000
# 5 0.000000 0.000000 0.000000 0.000000 0.019961 0.000000
# 6 0.000000 0.000000 0.000000 0.000000 0.000000 0.170574
#
#
# Mechanical properties :
#
#
# Convention : Reuss Voigt Hill
#
# Bulk Modulus (GPa) = 59.57909 61.15778 60.36844
# Shear Modulus (GPa) = 16.24145 31.48145 23.86145
#
# Velocity S-wave (km/s) = 2.90999 4.05141 3.52718
# Velocity P-wave (km/s) = 6.50802 7.33294 6.93276
#
# Compressibility (1/GPa) = 0.01678441
#
# Stress axis : x y z
#
# Youngs Moduli (GPa) = 64.18933 64.18933 43.26009
#
# Poissons Ratio (x) = -0.12573 0.44782
# Poissons Ratio (y) = -0.12573 0.44782
# Poissons Ratio (z) = 0.66447 0.66447
#
# Static dielectric constant tensor:
#      x y z
#    x 1.669920 0.000000 0.000000 
#    y 0.000000 1.669920 0.000000 
#    z 0.000000 0.000000 1.692410 
# 
# From -- ./inp_files/10750.got.cif
#   From: 2010.05.17/outbox.cif.g08.bks.cpg/sg132_6_cif.got.tgz:10750.got - 2010.05.20 12:30:18.
