data_PCOD9567903
_publ_section_title
;
Structure prediction by ZEFSAII (Michael W. Deem and Ramdas Pophale) SiO2 
 PCOD9567903
Probable space group: P 42/N B C
;
_chemical_formula_sum "Si O2"
_cell_formula_units_Z 88
_cell_length_a 17.770047
_cell_length_b 17.770047
_cell_length_c 14.303053
_cell_angle_alpha 90.000000
_cell_angle_beta 90.000000
_cell_angle_gamma 90.000000
_cell_volume 4516.540416
_symmetry_space_group_name_H-M "P 42/N B C"
_symmetry_group_IT_number 133
_space_group.IT_coordinate_system_code '2'
_symmetry_cell_setting 'tetragonal'
loop_
_space_group_symop_operation_xyz
x,y,z
1/2-y,x,1/2+z
1/2-x,1/2-y,z
y,1/2-x,1/2+z
x,1/2-y,-z
1/2-x,y,-z
y,x,1/2-z
1/2-y,1/2-x,1/2-z
-x,-y,-z
1/2+y,-x,1/2-z
1/2+x,1/2+y,-z
-y,1/2+x,1/2-z
-x,1/2+y,z
1/2+x,-y,z
-y,-x,1/2+z
1/2+y,1/2+x,1/2+z
loop_
_atom_site_type_symbol
_atom_site_label
_atom_site_fract_x
_atom_site_fract_y
_atom_site_fract_z
Si Si1 0.616850 0.616850 0.750000
Si Si2 0.039423 0.880984 0.695431
Si Si3 0.274779 0.541797 0.895805
Si Si4 0.663105 0.092368 0.393671
Si Si5 0.958575 0.326567 0.100782
Si Si6 0.291435 0.416680 0.737325
O O1 0.548321 0.604256 0.676137
O O2 0.607163 0.704738 0.769432
O O3 0.066740 0.802935 0.651185
O O4 0.047905 0.870692 0.806222
O O5 0.097842 0.939784 0.656404
O O6 0.332681 0.611793 0.901353
O O7 0.301561 0.475366 0.825097
O O8 0.250000 0.516319 0.000000
O O9 0.754207 0.096258 0.378249
O O10 0.657642 0.048795 0.491497
O O11 0.038903 0.304651 0.141061
O O12 0.348031 0.348031 0.750000
#
# Coordination Sequence:
#
# PCOD9567903 Si02
#       6
#     8  16  16  16  16  16
#     4  10  23  44  74  90 130 181 228 288 346 394
#     4  11  21  42  66  94 134 179 219 274 341 393
#     4  11  22  41  65 101 137 178 223 272 334 422
#     4  11  21  40  65  95 143 170 219 270 333 403
#     4  11  23  38  65 102 132 174 223 272 326 423
#     4  11  24  47  70  96 133 175 236 287 345 394
#
# _framework density 19.483938999999999
#
# number of rings (size 3 to 8) (size 9 to 14) (size 15 to 20)
#    0.000    1.091    7.273    0.273    1.273    0.727 
#    6.545    3.636    0.000    4.364    0.000    0.000 
#    0.000    0.000    0.000    0.000    0.000    0.000 
#
# Total GULP energy -490178.442656 kJ/mol
# GULP energy per Si atom -5570.209576 kJ/mol
# Density = 1.943959 g / cm^3
# Si number density = 19.483939 Si / 1000 Ang^3
#
#
#
# Elastic Constant Matrix: (Units=GPa)
#
#
# Indices 1 2 3 4 5 6 
#
# 1 91.4794 80.1670 29.2984 0.0000 0.0000 0.0000
# 2 80.1670 91.4794 29.2984 0.0000 0.0000 0.0000
# 3 29.2984 29.2984 97.9221 0.0000 0.0000 0.0000
# 4 0.0000 0.0000 0.0000 10.0153 0.0000 0.0000
# 5 0.0000 0.0000 0.0000 0.0000 10.0153 0.0000
# 6 0.0000 0.0000 0.0000 0.0000 0.0000 44.4345
#
#
#
# Elastic Compliance Matrix: (Units=1/GPa)
#
#
# Indices 1 2 3 4 5 6 
#
# 1 0.047443 -0.040955 -0.001941 0.000000 0.000000 0.000000
# 2 -0.040955 0.047443 -0.001941 0.000000 0.000000 0.000000
# 3 -0.001941 -0.001941 0.011374 0.000000 0.000000 0.000000
# 4 0.000000 0.000000 0.000000 0.099848 0.000000 0.000000
# 5 0.000000 0.000000 0.000000 0.000000 0.099848 0.000000
# 6 0.000000 0.000000 0.000000 0.000000 0.000000 0.022505
#
#
# Mechanical properties :
#
#
# Convention : Reuss Voigt Hill
#
# Bulk Modulus (GPa) = 60.29313 62.04541 61.16927
# Shear Modulus (GPa) = 11.80180 22.36749 17.08464
#
# Velocity S-wave (km/s) = 2.46381 3.39189 2.96439
# Velocity P-wave (km/s) = 6.25348 6.87411 6.57113
#
# Compressibility (1/GPa) = 0.01658564
#
# Stress axis : x y z
#
# Youngs Moduli (GPa) = 21.07777 21.07777 87.92021
#
# Poissons Ratio (x) = 0.86323 0.17069
# Poissons Ratio (y) = 0.86323 0.17069
# Poissons Ratio (z) = 0.04092 0.04092
#
# Static dielectric constant tensor:
#      x y z
#    x 1.712290 0.000000 0.000000 
#    y 0.000000 1.712290 0.000000 
#    z 0.000000 0.000000 1.710850 
# 
# From -- ./inp_files/4433.got.cif
#   From: 2010.05.17/outbox.cif.g08.bks.cpg/sg133_3_cif.got.tgz:4433.got - 2010.05.20 12:37:36.
