data_PCOD9567375
_publ_section_title
;
Structure prediction by ZEFSAII (Michael W. Deem and Ramdas Pophale) SiO2 
 PCOD9567375
Probable space group: P 42/M C M
;
_chemical_formula_sum "Si O2"
_cell_formula_units_Z 88
_cell_length_a 16.287442
_cell_length_b 16.287442
_cell_length_c 15.147066
_cell_angle_alpha 90.000000
_cell_angle_beta 90.000000
_cell_angle_gamma 90.000000
_cell_volume 4018.225285
_symmetry_space_group_name_H-M "P 42/M C M"
_symmetry_group_IT_number 132
_symmetry_cell_setting 'tetragonal'
loop_
_space_group_symop_operation_xyz
x,y,z
-y,x,1/2+z
-x,-y,z
y,-x,1/2+z
x,-y,1/2-z
-x,y,1/2-z
y,x,-z
-y,-x,-z
-x,-y,-z
y,-x,1/2-z
x,y,-z
-y,x,1/2-z
-x,y,1/2+z
x,-y,1/2+z
-y,-x,z
y,x,z
loop_
_atom_site_type_symbol
_atom_site_label
_atom_site_fract_x
_atom_site_fract_y
_atom_site_fract_z
Si Si1 0.613497 0.056498 0.834984
Si Si2 0.607618 0.943837 0.000000
Si Si3 0.236177 0.574974 0.189373
Si Si4 0.388229 0.232164 0.000000
Si Si5 0.944319 0.806559 0.336335
Si Si6 0.289708 0.710293 0.670436
Si Si7 0.680060 0.448605 0.000000
Si Si8 0.939024 0.804227 0.000000
O O1 0.563917 0.139950 0.828568
O O2 0.710679 0.079316 0.844057
O O3 0.604879 0.000000 0.750000
O O4 0.591517 0.999529 0.916377
O O5 0.566312 0.855289 0.000000
O O6 0.706410 0.924875 0.000000
O O7 0.269469 0.500000 0.250000
O O8 0.247035 0.653093 0.252529
O O9 0.278868 0.580018 0.093045
O O10 0.337907 0.238920 0.090672
O O11 0.453792 0.306244 0.000000
O O12 0.866089 0.866089 0.334427
O O13 0.000000 0.816696 0.250000
O O14 0.005224 0.826264 0.416468
O O15 0.588891 0.411110 0.000000
O O16 0.855045 0.855045 0.000000
#
# Coordination Sequence:
#
# PCOD9567375 Si02
#       8
#    16   8  16   8  16   8   8   8
#     4  10  23  42  63  98 136 180 231 287 357 420
#     4  10  22  45  65  99 145 178 239 294 354 434
#     4  12  25  46  72 106 143 186 238 298 365 441
#     4  11  24  46  74 108 139 194 241 300 366 435
#     4  10  21  36  54  82 121 163 220 278 336 406
#     4  11  24  43  74 106 143 183 251 294 351 453
#     4  12  26  46  73 105 142 179 239 299 365 446
#     4  10  21  35  55  87 119 173 224 278 343 402
#
# _framework density 21.900214999999999
#
# number of rings (size 3 to 8) (size 9 to 14) (size 15 to 20)
#    0.000    1.273    2.727    2.455    2.545    2.000 
#    0.000    1.818    2.000    0.000    0.000    0.000 
#    0.000    0.000    0.000    0.000    0.000    0.000 
#
# Total GULP energy -490053.818248 kJ/mol
# GULP energy per Si atom -5568.793389 kJ/mol
# Density = 2.185037 g / cm^3
# Si number density = 21.900215 Si / 1000 Ang^3
#
#
#
# Elastic Constant Matrix: (Units=GPa)
#
#
# Indices 1 2 3 4 5 6 
#
# 1 57.1530 43.3779 29.9323 0.0000 0.0000 0.0000
# 2 43.3779 57.1514 29.9318 0.0000 0.0000 0.0000
# 3 29.9323 29.9318 206.3359 0.0000 0.0000 0.0000
# 4 0.0000 0.0000 0.0000 -34.5586 0.0000 0.0000
# 5 0.0000 0.0000 0.0000 0.0000 -34.5575 0.0000
# 6 0.0000 0.0000 0.0000 0.0000 0.0000 28.8627
#
#
#
# Elastic Compliance Matrix: (Units=1/GPa)
#
#
# Indices 1 2 3 4 5 6 
#
# 1 0.041743 -0.030856 -0.001579 0.000000 0.000000 0.000000
# 2 -0.030856 0.041744 -0.001579 0.000000 0.000000 0.000000
# 3 -0.001579 -0.001579 0.005305 0.000000 0.000000 0.000000
# 4 0.000000 0.000000 0.000000 -0.028936 0.000000 0.000000
# 5 0.000000 0.000000 0.000000 0.000000 -0.028937 0.000000
# 6 0.000000 0.000000 0.000000 0.000000 0.000000 0.034647
#
#
# Mechanical properties :
#
#
# Convention : Reuss Voigt Hill
#
# Bulk Modulus (GPa) = 48.16358 58.56935 53.36647
# Shear Modulus (GPa) = 35.58347 6.44253 21.01300
#
# Velocity S-wave (km/s) = 4.03525 1.71702 3.10092
# Velocity P-wave (km/s) = 6.61446 5.54370 6.10261
#
# Compressibility (1/GPa) = 0.02076258
#
# Stress axis : x y z
#
# Youngs Moduli (GPa) = 23.95618 23.95553 188.51185
#
# Poissons Ratio (x) = 0.73916 0.29775
# Poissons Ratio (y) = 0.73918 0.29774
# Poissons Ratio (z) = 0.03784 0.03784
#
# Static dielectric constant tensor:
#      x y z
#    x 1.839170 0.000000 0.000000 
#    y 0.000000 1.839170 0.000000 
#    z 0.000000 0.000000 1.742520 
# 
# From -- ./inp_files/4850.got.cif
#   From: 2010.05.17/outbox.cif.g08.bks.cpg/sg132_3_cif.got.tgz:4850.got - 2010.05.20 12:30:18.
