data_PCOD9567641
_publ_section_title
;
Structure prediction by ZEFSAII (Michael W. Deem and Ramdas Pophale) SiO2 
 PCOD9567641
Probable space group: P 42/N B C
;
_chemical_formula_sum "Si O2"
_cell_formula_units_Z 104
_cell_length_a 18.243032
_cell_length_b 18.243032
_cell_length_c 16.040494
_cell_angle_alpha 90.000000
_cell_angle_beta 90.000000
_cell_angle_gamma 90.000000
_cell_volume 5338.408201
_symmetry_space_group_name_H-M "P 42/N B C"
_symmetry_group_IT_number 133
_space_group.IT_coordinate_system_code '2'
_symmetry_cell_setting 'tetragonal'
loop_
_space_group_symop_operation_xyz
x,y,z
1/2-y,x,1/2+z
1/2-x,1/2-y,z
y,1/2-x,1/2+z
x,1/2-y,-z
1/2-x,y,-z
y,x,1/2-z
1/2-y,1/2-x,1/2-z
-x,-y,-z
1/2+y,-x,1/2-z
1/2+x,1/2+y,-z
-y,1/2+x,1/2-z
-x,1/2+y,z
1/2+x,-y,z
-y,-x,1/2+z
1/2+y,1/2+x,1/2+z
loop_
_atom_site_type_symbol
_atom_site_label
_atom_site_fract_x
_atom_site_fract_y
_atom_site_fract_z
Si Si1 0.123546 0.135135 0.905138
Si Si2 0.250000 0.099441 0.000000
Si Si3 0.565452 0.401161 0.807851
Si Si4 0.523228 0.758749 0.810877
Si Si5 0.163713 0.024525 0.144338
Si Si6 0.034848 0.120871 0.075040
Si Si7 0.008839 0.936478 0.367671
O O1 0.091960 0.189016 0.835766
O O2 0.128448 0.048224 0.882701
O O3 0.203060 0.151604 0.940021
O O4 0.070989 0.137593 0.986370
O O5 0.202679 0.047150 0.059281
O O6 0.544917 0.315897 0.814397
O O7 0.635295 0.440680 0.847962
O O8 0.561086 0.419980 0.709969
O O9 0.498151 0.448656 0.844842
O O10 0.535469 0.716587 0.723763
O O11 0.514429 0.695941 0.880097
O O12 0.091840 0.077944 0.137247
O O13 0.968162 0.063345 0.063308
#
# Coordination Sequence:
#
# PCOD9567641 Si02
#       7
#    16   8  16  16  16  16  16
#     4  10  21  34  53  85 116 146 195 241 286 351
#     4  10  22  38  55  78 113 158 192 240 288 354
#     4   9  18  31  55  86 111 140 194 249 280 341
#     4  11  20  34  57  84 117 149 189 242 297 349
#     4  10  20  37  58  83 115 151 199 238 293 350
#     4  10  19  34  56  83 114 149 188 238 294 352
#     4   9  16  32  55  81 108 143 189 247 286 324
#
# _framework density 19.481462000000001
#
# number of rings (size 3 to 8) (size 9 to 14) (size 15 to 20)
#    0.000    2.154    1.538    2.308    0.000    3.077 
#    0.000    6.154    0.000   15.231    0.000    1.077 
#    0.000    0.000    0.000    0.000    0.000    0.000 
#
# Total GULP energy -579224.478988 kJ/mol
# GULP energy per Si atom -5569.466144 kJ/mol
# Density = 1.943712 g / cm^3
# Si number density = 19.481462 Si / 1000 Ang^3
#
#
#
# Elastic Constant Matrix: (Units=GPa)
#
#
# Indices 1 2 3 4 5 6 
#
# 1 33123.6669********** 11.6989 0.0000 0.0000 0.0000
# 2 **********33123.6669 11.6989 0.0000 0.0000 0.0000
# 3 11.6989 11.6989 54.1821 0.0000 0.0000 0.0000
# 4 0.0000 0.0000 0.0000 23.9789 0.0000 0.0000
# 5 0.0000 0.0000 0.0000 0.0000 23.9789 0.0000
# 6 0.0000 0.0000 0.0000 0.0000 0.0000 16.6222
#
#
#
# Elastic Compliance Matrix: (Units=1/GPa)
#
#
# Indices 1 2 3 4 5 6 
#
# 1 0.005587 0.005572 -0.002409 0.000000 0.000000 0.000000
# 2 0.005572 0.005587 -0.002409 0.000000 0.000000 0.000000
# 3 -0.002409 -0.002409 0.019497 0.000000 0.000000 0.000000
# 4 0.000000 0.000000 0.000000 0.041703 0.000000 0.000000
# 5 0.000000 0.000000 0.000000 0.000000 0.041703 0.000000
# 6 0.000000 0.000000 0.000000 0.000000 0.000000 0.060161
#
#
# Mechanical properties :
#
#
# Convention : Reuss Voigt Hill
#
# Bulk Modulus (GPa) = 31.07855 32.25730 31.66792
# Shear Modulus (GPa) = 27.25435 6633.39042 3330.32239
#
# Velocity S-wave (km/s) = 3.74436 58.41547 41.39075
# Velocity P-wave (km/s) = 5.88907 67.57527 47.96404
#
# Compressibility (1/GPa) = 0.03217653
#
# Stress axis : x y z
#
# Youngs Moduli (GPa) = 178.99125 178.99125 51.29069
#
# Poissons Ratio (x) = -0.99729 0.12358
# Poissons Ratio (y) = -0.99729 0.12358
# Poissons Ratio (z) = 0.43125 0.43125
#
# Static dielectric constant tensor:
#      x y z
#    x 1.755110 0.000000 0.000000 
#    y 0.000000 1.755110 0.000000 
#    z 0.000000 0.000000 1.726310 
# 
# From -- ./inp_files/5621.got.cif
#   From: 2010.05.17/outbox.cif.g08.bks.cpg/sg133_3_cif.got.tgz:5621.got - 2010.05.20 12:37:36.
