data_PCOD9567805
_publ_section_title
;
Structure prediction by ZEFSAII (Michael W. Deem and Ramdas Pophale) SiO2 
 PCOD9567805
Probable space group: P 42/N B C
;
_chemical_formula_sum "Si O2"
_cell_formula_units_Z 112
_cell_length_a 14.487444
_cell_length_b 14.487444
_cell_length_c 23.594132
_cell_angle_alpha 90.000000
_cell_angle_beta 90.000000
_cell_angle_gamma 90.000000
_cell_volume 4952.078783
_symmetry_space_group_name_H-M "P 42/N B C"
_symmetry_group_IT_number 133
_space_group.IT_coordinate_system_code '2'
_symmetry_cell_setting 'tetragonal'
loop_
_space_group_symop_operation_xyz
x,y,z
1/2-y,x,1/2+z
1/2-x,1/2-y,z
y,1/2-x,1/2+z
x,1/2-y,-z
1/2-x,y,-z
y,x,1/2-z
1/2-y,1/2-x,1/2-z
-x,-y,-z
1/2+y,-x,1/2-z
1/2+x,1/2+y,-z
-y,1/2+x,1/2-z
-x,1/2+y,z
1/2+x,-y,z
-y,-x,1/2+z
1/2+y,1/2+x,1/2+z
loop_
_atom_site_type_symbol
_atom_site_label
_atom_site_fract_x
_atom_site_fract_y
_atom_site_fract_z
Si Si1 0.902048 0.328548 0.111886
Si Si2 0.891588 0.022762 0.511954
Si Si3 0.921207 0.759076 0.907459
Si Si4 0.679043 0.635785 0.812476
Si Si5 0.657782 0.933233 0.880530
Si Si6 0.481270 0.984183 0.813643
Si Si7 0.391648 0.717972 0.436427
O O1 0.791540 0.335369 0.101806
O O2 0.979447 0.250821 0.124711
O O3 0.923435 0.398403 0.162533
O O4 0.940360 0.355532 0.048786
O O5 0.874749 0.108985 0.554873
O O6 0.830099 0.941786 0.540878
O O7 0.000000 0.000000 0.500000
O O8 0.846993 0.798235 0.864019
O O9 0.880454 0.654852 0.915239
O O10 0.677305 0.677305 0.750000
O O11 0.778185 0.594505 0.827824
O O12 0.593132 0.565164 0.815365
O O13 0.568440 0.986577 0.855971
O O14 0.720094 0.002008 0.917350
O O15 0.519504 0.980497 0.750000
O O16 0.378402 0.750000 0.500000
#
# Coordination Sequence:
#
# PCOD9567805 Si02
#       7
#    16  16  16  16  16  16  16
#     4  10  21  40  62  96 133 178 239 287 348 427
#     4  11  22  40  67  93 137 186 229 288 366 430
#     4  11  24  39  64  98 134 179 227 295 356 424
#     4  11  24  42  66 101 139 180 237 294 361 434
#     4  11  23  41  66  99 137 176 236 289 357 425
#     4  10  22  42  69  95 133 190 235 287 355 435
#     4  10  22  40  67  94 130 181 230 283 345 427
#
# _framework density 22.616765999999998
#
# number of rings (size 3 to 8) (size 9 to 14) (size 15 to 20)
#    0.000    1.429    1.429    4.286    6.000    1.143 
#    0.000    2.143    0.000    0.000    0.000    0.000 
#    0.000    0.000    0.000    0.000    0.000    0.000 
#
# Total GULP energy -623693.193006 kJ/mol
# GULP energy per Si atom -5568.689223 kJ/mol
# Density = 2.256529 g / cm^3
# Si number density = 22.616766 Si / 1000 Ang^3
#
#
#
# Elastic Constant Matrix: (Units=GPa)
#
#
# Indices 1 2 3 4 5 6 
#
# 1 91.9372 51.7573 28.0982 0.0000 0.0000 0.0000
# 2 51.7573 91.9375 28.0968 0.0000 0.0000 0.0000
# 3 28.0982 28.0968 89.7418 0.0000 0.0000 0.0000
# 4 0.0000 0.0000 0.0000 194.8937 0.0000 0.0000
# 5 0.0000 0.0000 0.0000 0.0000 194.7968 0.0000
# 6 0.0000 0.0000 0.0000 0.0000 0.0000 36.1370
#
#
#
# Elastic Compliance Matrix: (Units=1/GPa)
#
#
# Indices 1 2 3 4 5 6 
#
# 1 0.016409 -0.008479 -0.002483 0.000000 0.000000 0.000000
# 2 -0.008479 0.016409 -0.002483 0.000000 0.000000 0.000000
# 3 -0.002483 -0.002483 0.012698 0.000000 0.000000 0.000000
# 4 0.000000 0.000000 0.000000 0.005131 0.000000 0.000000
# 5 0.000000 0.000000 0.000000 0.000000 0.005134 0.000000
# 6 0.000000 0.000000 0.000000 0.000000 0.000000 0.027672
#
#
# Mechanical properties :
#
#
# Convention : Reuss Voigt Hill
#
# Bulk Modulus (GPa) = 53.68649 54.39124 54.03887
# Shear Modulus (GPa) = 42.89957 96.20976 69.55467
#
# Velocity S-wave (km/s) = 4.35996 6.52928 5.55161
# Velocity P-wave (km/s) = 7.00961 8.99685 8.06467
#
# Compressibility (1/GPa) = 0.01862666
#
# Stress axis : x y z
#
# Youngs Moduli (GPa) = 60.94139 60.94222 78.75365
#
# Poissons Ratio (x) = 0.51672 0.19555
# Poissons Ratio (y) = 0.51672 0.19552
# Poissons Ratio (z) = 0.15132 0.15130
#
# Static dielectric constant tensor:
#      x y z
#    x 1.937910 0.000000 0.000000 
#    y 0.000000 1.937910 0.000000 
#    z 0.000000 0.000000 1.819260 
# 
# From -- ./inp_files/7233.got.cif
#   From: 2010.05.17/outbox.cif.g08.bks.cpg/sg133_4_cif.got.tgz:7233.got - 2010.05.20 12:37:36.
