data_PCOD9567172
_publ_section_title
;
Structure prediction by ZEFSAII (Michael W. Deem and Ramdas Pophale) SiO2 
 PCOD9567172
Probable space group: P 42/M C M
;
_chemical_formula_sum "Si O2"
_cell_formula_units_Z 112
_cell_length_a 14.410937
_cell_length_b 14.410937
_cell_length_c 26.275846
_cell_angle_alpha 90.000000
_cell_angle_beta 90.000000
_cell_angle_gamma 90.000000
_cell_volume 5456.839083
_symmetry_space_group_name_H-M "P 42/M C M"
_symmetry_group_IT_number 132
_symmetry_cell_setting 'tetragonal'
loop_
_space_group_symop_operation_xyz
x,y,z
-y,x,1/2+z
-x,-y,z
y,-x,1/2+z
x,-y,1/2-z
-x,y,1/2-z
y,x,-z
-y,-x,-z
-x,-y,-z
y,-x,1/2-z
x,y,-z
-y,x,1/2-z
-x,y,1/2+z
x,-y,1/2+z
-y,-x,z
y,x,z
loop_
_atom_site_type_symbol
_atom_site_label
_atom_site_fract_x
_atom_site_fract_y
_atom_site_fract_z
Si Si1 0.860596 0.291542 0.945426
Si Si2 0.635673 0.211100 0.847296
Si Si3 0.813740 0.036006 0.586837
Si Si4 0.211268 0.061491 0.202967
Si Si5 0.721914 0.567203 0.847955
Si Si6 0.396001 0.866282 0.738983
Si Si7 0.341581 0.185526 0.943224
O O1 0.763614 0.236387 0.947745
O O2 0.854647 0.358368 0.896790
O O3 0.939395 0.213537 0.937954
O O4 0.876008 0.338652 0.000000
O O5 0.724427 0.275574 0.848014
O O6 0.544198 0.275859 0.847431
O O7 0.641157 0.155343 0.794936
O O8 0.906923 0.093078 0.572084
O O9 0.814926 0.023028 0.647800
O O10 0.727187 0.102683 0.572667
O O11 0.162531 0.162531 0.205852
O O12 0.321821 0.071809 0.209213
O O13 0.177156 0.000000 0.250000
O O14 0.626216 0.626216 0.851717
O O15 0.774257 0.595602 0.795916
O O16 0.787218 0.593340 0.896198
O O17 0.500000 0.900186 0.750000
O O18 0.274238 0.274238 0.947291
O O19 0.381529 0.168960 0.000000
#
# Coordination Sequence:
#
# PCOD9567172 Si02
#       7
#    16  16  16  16  16  16  16
#     4  10  22  40  58  78 111 152 192 236 286 344
#     4  10  21  36  56  81 111 152 190 226 282 344
#     4  10  20  35  58  85 110 142 187 239 289 336
#     4  11  22  36  56  82 118 159 195 237 285 340
#     4  10  19  34  57  84 113 144 185 235 284 338
#     4  10  20  36  59  86 114 150 191 238 288 348
#     4   9  17  31  53  80 108 136 171 222 282 333
#
# _framework density 20.524702000000001
#
# number of rings (size 3 to 8) (size 9 to 14) (size 15 to 20)
#    0.000    2.000    1.429    2.571    0.000    4.143 
#    0.000    2.857    0.000    4.286    0.000    4.000 
#    0.000    0.000    0.000    0.000    0.000    0.000 
#
# Total GULP energy -624492.830535 kJ/mol
# GULP energy per Si atom -5575.828844 kJ/mol
# Density = 2.047799 g / cm^3
# Si number density = 20.524702 Si / 1000 Ang^3
#
#
#
# Elastic Constant Matrix: (Units=GPa)
#
#
# Indices 1 2 3 4 5 6 
#
# 1 42.6325 -9.7645 13.4674 0.0000 0.0000 0.0000
# 2 -9.7645 42.6325 13.4674 0.0000 0.0000 0.0000
# 3 13.4674 13.4674 155.4715 0.0000 0.0000 0.0000
# 4 0.0000 0.0000 0.0000 15.3269 0.0000 0.0000
# 5 0.0000 0.0000 0.0000 0.0000 15.3269 0.0000
# 6 0.0000 0.0000 0.0000 0.0000 0.0000 13.4906
#
#
#
# Elastic Compliance Matrix: (Units=1/GPa)
#
#
# Indices 1 2 3 4 5 6 
#
# 1 0.025917 0.006832 -0.002837 0.000000 0.000000 0.000000
# 2 0.006832 0.025917 -0.002837 0.000000 0.000000 0.000000
# 3 -0.002837 -0.002837 0.006924 0.000000 0.000000 0.000000
# 4 0.000000 0.000000 0.000000 0.065245 0.000000 0.000000
# 5 0.000000 0.000000 0.000000 0.000000 0.065245 0.000000
# 6 0.000000 0.000000 0.000000 0.000000 0.000000 0.074126
#
#
# Mechanical properties :
#
#
# Convention : Reuss Voigt Hill
#
# Bulk Modulus (GPa) = 16.37325 30.56412 23.46868
# Shear Modulus (GPa) = 17.76736 23.73329 20.75033
#
# Velocity S-wave (km/s) = 2.94540 3.40417 3.18306
# Velocity P-wave (km/s) = 4.42287 5.51134 4.99683
#
# Compressibility (1/GPa) = 0.06107522
#
# Stress axis : x y z
#
# Youngs Moduli (GPa) = 38.58422 38.58422 144.43513
#
# Poissons Ratio (x) = -0.26362 0.40974
# Poissons Ratio (y) = -0.26362 0.40974
# Poissons Ratio (z) = 0.10946 0.10946
#
# Static dielectric constant tensor:
#      x y z
#    x 1.740470 0.000000 0.000000 
#    y 0.000000 1.740470 0.000000 
#    z 0.000000 0.000000 1.788560 
# 
# From -- ./inp_files/9094.got.cif
#   From: 2010.05.17/outbox.cif.g08.bks.cpg/sg132_5_cif.got.tgz:9094.got - 2010.05.20 12:30:18.
