data_PCOD9567458
_publ_section_title
;
Structure prediction by ZEFSAII (Michael W. Deem and Ramdas Pophale) SiO2 
 PCOD9567458
Probable space group: P 42/M C M
;
_chemical_formula_sum "Si O2"
_cell_formula_units_Z 116
_cell_length_a 18.110609
_cell_length_b 18.110609
_cell_length_c 16.369788
_cell_angle_alpha 90.000000
_cell_angle_beta 90.000000
_cell_angle_gamma 90.000000
_cell_volume 5369.194837
_symmetry_space_group_name_H-M "P 42/M C M"
_symmetry_group_IT_number 132
_symmetry_cell_setting 'tetragonal'
loop_
_space_group_symop_operation_xyz
x,y,z
-y,x,1/2+z
-x,-y,z
y,-x,1/2+z
x,-y,1/2-z
-x,y,1/2-z
y,x,-z
-y,-x,-z
-x,-y,-z
y,-x,1/2-z
x,y,-z
-y,x,1/2-z
-x,y,1/2+z
x,-y,1/2+z
-y,-x,z
y,x,z
loop_
_atom_site_type_symbol
_atom_site_label
_atom_site_fract_x
_atom_site_fract_y
_atom_site_fract_z
Si Si1 0.177759 0.936964 0.095507
Si Si2 0.715227 0.398550 0.826630
Si Si3 0.330918 0.121749 0.093861
Si Si4 0.359536 0.640465 0.500000
Si Si5 0.014821 0.585827 0.153936
Si Si6 0.433417 0.742803 0.362308
Si Si7 0.927350 0.805301 0.189838
Si Si8 0.324234 0.148414 0.401516
O O1 0.103278 0.896723 0.122859
O O2 0.248913 0.891652 0.128549
O O3 0.176403 0.023492 0.110730
O O4 0.184742 0.926016 0.000000
O O5 0.634213 0.365788 0.845989
O O6 0.736816 0.477944 0.863533
O O7 0.722520 0.408073 0.729303
O O8 0.774060 0.340027 0.860247
O O9 0.395824 0.178383 0.117754
O O10 0.265999 0.119809 0.161773
O O11 0.365088 0.040292 0.100450
O O12 0.306902 0.137561 0.000000
O O13 0.402302 0.687510 0.428830
O O14 0.095858 0.609702 0.128326
O O15 0.000000 0.500000 0.140281
O O16 0.000000 0.601168 0.250000
O O17 0.871446 0.871446 0.209954
O O18 0.000000 0.795295 0.250000
O O19 0.323546 0.155048 0.500000
#
# Coordination Sequence:
#
# PCOD9567458 Si02
#       8
#    16  16  16   4  16  16  16  16
#     4  10  22  42  64  92 130 174 228 289 353 423
#     4  11  25  47  74 107 149 196 249 297 370 449
#     4  12  25  43  71 106 143 185 242 301 365 449
#     4  12  24  52  77 108 156 186 249 316 374 428
#     4  11  23  40  63  96 142 189 236 296 371 446
#     4  11  26  46  74 110 148 191 242 313 372 435
#     4  12  28  46  68  99 137 182 237 302 370 440
#     4  11  23  40  64 100 143 186 239 300 366 444
#
# _framework density 21.604728999999999
#
# number of rings (size 3 to 8) (size 9 to 14) (size 15 to 20)
#    0.000    0.828    2.759    3.724    3.862    7.310 
#    0.000    1.379    0.000    0.000    0.000    0.000 
#    0.000    0.000    0.000    0.000    0.000    0.000 
#
# Total GULP energy -646855.287545 kJ/mol
# GULP energy per Si atom -5576.338686 kJ/mol
# Density = 2.155556 g / cm^3
# Si number density = 21.604729 Si / 1000 Ang^3
#
#
#
# Elastic Constant Matrix: (Units=GPa)
#
#
# Indices 1 2 3 4 5 6 
#
# 1 53.6797 95.6904 29.5327 0.0000 0.0000 0.0000
# 2 95.6904 53.6810 29.5325 0.0000 0.0000 0.0000
# 3 29.5327 29.5325 88.7818 0.0000 0.0000 0.0000
# 4 0.0000 0.0000 0.0000 8.0257 0.0000 0.0000
# 5 0.0000 0.0000 0.0000 0.0000 8.0262 0.0000
# 6 0.0000 0.0000 0.0000 0.0000 0.0000 33.8876
#
#
#
# Elastic Compliance Matrix: (Units=1/GPa)
#
#
# Indices 1 2 3 4 5 6 
#
# 1 -0.008048 0.015756 -0.002564 0.000000 0.000000 0.000000
# 2 0.015756 -0.008047 -0.002564 0.000000 0.000000 0.000000
# 3 -0.002564 -0.002564 0.012970 0.000000 0.000000 0.000000
# 4 0.000000 0.000000 0.000000 0.124600 0.000000 0.000000
# 5 0.000000 0.000000 0.000000 0.000000 0.124592 0.000000
# 6 0.000000 0.000000 0.000000 0.000000 0.000000 0.029509
#
#
# Mechanical properties :
#
#
# Convention : Reuss Voigt Hill
#
# Bulk Modulus (GPa) = 55.15728 56.18376 55.67052
# Shear Modulus (GPa) = 19.20386 12.74701 15.97544
#
# Velocity S-wave (km/s) = 2.98463 2.43165 2.72222
# Velocity P-wave (km/s) = 6.12070 5.82629 5.97531
#
# Compressibility (1/GPa) = 0.01812997
#
# Stress axis : x y z
#
# Youngs Moduli (GPa) = -124.25954 -124.26368 77.10385
#
# Poissons Ratio (x) = 1.95793 0.19771
# Poissons Ratio (y) = 1.95787 0.19772
# Poissons Ratio (z) = -0.31862 -0.31865
#
# Static dielectric constant tensor:
#      x y z
#    x 1.811370 0.000000 0.000000 
#    y 0.000000 1.811370 0.000000 
#    z 0.000000 0.000000 1.869330 
# 
# From -- ./inp_files/6664.got.cif
#   From: 2010.05.17/outbox.cif.g08.bks.cpg/sg132_4_cif.got.tgz:6664.got - 2010.05.20 12:30:18.
