data_PCOD9567295
_publ_section_title
;
Structure prediction by ZEFSAII (Michael W. Deem and Ramdas Pophale) SiO2 
 PCOD9567295
Probable space group: P 42/M C M
;
_chemical_formula_sum "Si O2"
_cell_formula_units_Z 116
_cell_length_a 28.271307
_cell_length_b 28.271307
_cell_length_c 8.047534
_cell_angle_alpha 90.000000
_cell_angle_beta 90.000000
_cell_angle_gamma 90.000000
_cell_volume 6432.126744
_symmetry_space_group_name_H-M "P 42/M C M"
_symmetry_group_IT_number 132
_symmetry_cell_setting 'tetragonal'
loop_
_space_group_symop_operation_xyz
x,y,z
-y,x,1/2+z
-x,-y,z
y,-x,1/2+z
x,-y,1/2-z
-x,y,1/2-z
y,x,-z
-y,-x,-z
-x,-y,-z
y,-x,1/2-z
x,y,-z
-y,x,1/2-z
-x,y,1/2+z
x,-y,1/2+z
-y,-x,z
y,x,z
loop_
_atom_site_type_symbol
_atom_site_label
_atom_site_fract_x
_atom_site_fract_y
_atom_site_fract_z
Si Si1 0.053122 0.584099 0.692351
Si Si2 0.150060 0.260065 0.693836
Si Si3 0.551490 0.148334 0.187686
Si Si4 0.630354 0.446248 0.698487
Si Si5 0.947871 0.308730 0.196829
Si Si6 0.625841 0.296212 0.804049
Si Si7 0.806898 0.646163 0.185464
Si Si8 0.800051 0.199950 0.500000
O O1 0.059475 0.571857 0.500000
O O2 0.091866 0.556543 0.798132
O O3 0.060683 0.640692 0.715422
O O4 0.000000 0.574226 0.750000
O O5 0.154520 0.242160 0.500000
O O6 0.094815 0.272538 0.727118
O O7 0.175661 0.311533 0.698165
O O8 0.171447 0.229534 0.846685
O O9 0.500000 0.163017 0.250000
O O10 0.596211 0.167796 0.287017
O O11 0.557624 0.164545 0.000000
O O12 0.623596 0.500000 0.750000
O O13 0.631966 0.443285 0.500000
O O14 0.587411 0.412590 0.758624
O O15 0.678787 0.423926 0.767091
O O16 0.000000 0.291789 0.250000
O O17 0.948696 0.318919 0.000000
O O18 0.665245 0.334756 0.755301
O O19 0.635951 0.248199 0.710193
O O20 0.629687 0.287205 0.000000
O O21 0.816581 0.662879 0.000000
#
# Coordination Sequence:
#
# PCOD9567295 Si02
#       8
#    16  16  16  16  16  16  16   4
#     4  11  21  35  57  83 111 145 189 243 303 363
#     4  11  24  41  60  92 127 165 214 262 315 371
#     4  12  25  42  59  80 108 144 188 244 309 372
#     4  10  21  38  59  84 111 138 169 210 261 330
#     4  10  20  34  59  88 120 160 209 266 309 363
#     4  10  22  39  60  84 109 140 177 223 272 326
#     4  12  24  40  60  84 113 151 194 244 299 363
#     4  12  26  40  64  90 128 176 204 267 321 374
#
# _framework density 18.034471
#
# number of rings (size 3 to 8) (size 9 to 14) (size 15 to 20)
#    0.000    1.103    2.069    6.000    2.897    2.621 
#    0.000    4.828    0.000    0.000    0.000    0.000 
#    0.000    0.000    0.000    0.000    0.000    1.034 
#
# Total GULP energy -646912.098012 kJ/mol
# GULP energy per Si atom -5576.828431 kJ/mol
# Density = 1.799342 g / cm^3
# Si number density = 18.034471 Si / 1000 Ang^3
#
#
#
# Elastic Constant Matrix: (Units=GPa)
#
#
# Indices 1 2 3 4 5 6 
#
# 1 59.3391 32.9121 17.4361 0.0000 0.0000 0.0000
# 2 32.9121 59.3394 17.4363 0.0000 0.0000 0.0000
# 3 17.4361 17.4363 80.9900 0.0000 0.0000 0.0000
# 4 0.0000 0.0000 0.0000 75.4383 0.0000 0.0000
# 5 0.0000 0.0000 0.0000 0.0000 75.4306 0.0000
# 6 0.0000 0.0000 0.0000 0.0000 0.0000 -24.9066
#
#
#
# Elastic Compliance Matrix: (Units=1/GPa)
#
#
# Indices 1 2 3 4 5 6 
#
# 1 0.024820 -0.013020 -0.002540 0.000000 0.000000 0.000000
# 2 -0.013020 0.024820 -0.002540 0.000000 0.000000 0.000000
# 3 -0.002540 -0.002540 0.013441 0.000000 0.000000 0.000000
# 4 0.000000 0.000000 0.000000 0.013256 0.000000 0.000000
# 5 0.000000 0.000000 0.000000 0.000000 0.013257 0.000000
# 6 0.000000 0.000000 0.000000 0.000000 0.000000 -0.040150
#
#
# Mechanical properties :
#
#
# Convention : Reuss Voigt Hill
#
# Bulk Modulus (GPa) = 37.20267 37.24860 37.22564
# Shear Modulus (GPa) = 52.85094 33.98474 43.41784
#
# Velocity S-wave (km/s) = 5.41933 4.34571 4.91194
# Velocity P-wave (km/s) = 7.73513 6.77342 7.27020
#
# Compressibility (1/GPa) = 0.02687979
#
# Stress axis : x y z
#
# Youngs Moduli (GPa) = 40.28985 40.28999 74.39889
#
# Poissons Ratio (x) = 0.52457 0.18900
# Poissons Ratio (y) = 0.52457 0.18901
# Poissons Ratio (z) = 0.10235 0.10236
#
# Static dielectric constant tensor:
#      x y z
#    x 1.661070 0.000000 0.000000 
#    y 0.000000 1.661070 0.000000 
#    z 0.000000 0.000000 1.642530 
# 
# From -- ./inp_files/2059.got.cif
#   From: 2010.05.17/outbox.cif.g08.bks.cpg/sg132_2_cif.got.tgz:2059.got - 2010.05.20 12:30:18.
