data_PCOD9567153
_publ_section_title
;
Structure prediction by ZEFSAII (Michael W. Deem and Ramdas Pophale) SiO2 
 PCOD9567153
Probable space group: P 42/M C M
;
_chemical_formula_sum "Si O2"
_cell_formula_units_Z 96
_cell_length_a 25.122668
_cell_length_b 25.122668
_cell_length_c 9.225573
_cell_angle_alpha 90.000000
_cell_angle_beta 90.000000
_cell_angle_gamma 90.000000
_cell_volume 5822.706076
_symmetry_space_group_name_H-M "P 42/M C M"
_symmetry_group_IT_number 132
_symmetry_cell_setting 'tetragonal'
loop_
_space_group_symop_operation_xyz
x,y,z
-y,x,1/2+z
-x,-y,z
y,-x,1/2+z
x,-y,1/2-z
-x,y,1/2-z
y,x,-z
-y,-x,-z
-x,-y,-z
y,-x,1/2-z
x,y,-z
-y,x,1/2-z
-x,y,1/2+z
x,-y,1/2+z
-y,-x,z
y,x,z
loop_
_atom_site_type_symbol
_atom_site_label
_atom_site_fract_x
_atom_site_fract_y
_atom_site_fract_z
Si Si1 0.678367 0.946289 0.666467
Si Si2 0.947628 0.193059 0.832983
Si Si3 0.233410 0.556116 0.673621
Si Si4 0.346855 0.175611 0.326133
Si Si5 0.357929 0.444553 0.173410
Si Si6 0.763982 0.236019 0.828535
Si Si7 0.842521 0.157480 0.328113
O O1 0.660206 0.950699 0.500000
O O2 0.742631 0.947374 0.666679
O O3 0.663780 0.886273 0.717976
O O4 0.660543 0.000000 0.750000
O O5 0.897700 0.174265 0.742449
O O6 0.000000 0.174672 0.750000
O O7 0.945520 0.175521 0.000000
O O8 0.220784 0.500000 0.750000
O O9 0.226948 0.552369 0.500000
O O10 0.198499 0.603002 0.740808
O O11 0.296002 0.567446 0.704737
O O12 0.356037 0.175449 0.500000
O O13 0.296298 0.215375 0.302811
O O14 0.371859 0.500000 0.250000
O O15 0.397153 0.397153 0.218683
O O16 0.362531 0.451138 0.000000
O O17 0.799791 0.200210 0.725540
O O18 0.775217 0.224784 0.000000
O O19 0.845177 0.154824 0.500000
#
# Coordination Sequence:
#
# PCOD9567153 Si02
#       7
#    16  16  16  16  16   8   8
#     4   9  18  32  52  76 107 141 175 213 259 316
#     4  10  19  34  52  73 103 141 181 223 270 321
#     4  10  21  37  57  78 105 141 180 223 265 317
#     4  10  20  35  55  80 110 145 179 217 268 321
#     4   9  19  35  52  73 103 135 172 217 263 310
#     4  10  20  36  52  76 115 151 177 215 272 326
#     4  12  22  32  50  77 109 144 182 223 267 324
#
# _framework density 16.487179999999999
#
# number of rings (size 3 to 8) (size 9 to 14) (size 15 to 20)
#    0.000    2.167    1.667    1.750    1.167    3.167 
#    0.000    0.833    0.000    0.750    0.000    5.250 
#    0.000    0.000    0.000    0.000    0.000    0.000 
#
# Total GULP energy -535051.282763 kJ/mol
# GULP energy per Si atom -5573.450862 kJ/mol
# Density = 1.644965 g / cm^3
# Si number density = 16.487180 Si / 1000 Ang^3
#
#
#
# Elastic Constant Matrix: (Units=GPa)
#
#
# Indices 1 2 3 4 5 6 
#
# 1 102.5178 60.4726 62.3889 0.0000 0.0000 0.0000
# 2 60.4726 102.5184 62.3887 0.0000 0.0000 0.0000
# 3 62.3889 62.3887 90.7470 0.0000 0.0000 0.0000
# 4 0.0000 0.0000 0.0000 29.0926 0.0000 0.0000
# 5 0.0000 0.0000 0.0000 0.0000 29.0927 0.0000
# 6 0.0000 0.0000 0.0000 0.0000 0.0000 20.4827
#
#
#
# Elastic Compliance Matrix: (Units=1/GPa)
#
#
# Indices 1 2 3 4 5 6 
#
# 1 0.018368 -0.005416 -0.008905 0.000000 0.000000 0.000000
# 2 -0.005416 0.018368 -0.008905 0.000000 0.000000 0.000000
# 3 -0.008905 -0.008905 0.023264 0.000000 0.000000 0.000000
# 4 0.000000 0.000000 0.000000 0.034373 0.000000 0.000000
# 5 0.000000 0.000000 0.000000 0.000000 0.034373 0.000000
# 6 0.000000 0.000000 0.000000 0.000000 0.000000 0.048822
#
#
# Mechanical properties :
#
#
# Convention : Reuss Voigt Hill
#
# Bulk Modulus (GPa) = 73.80416 74.03150 73.91783
# Shear Modulus (GPa) = 21.87853 23.10247 22.49050
#
# Velocity S-wave (km/s) = 3.64676 3.74737 3.69741
# Velocity P-wave (km/s) = 7.91161 7.98271 7.94724
#
# Compressibility (1/GPa) = 0.01354937
#
# Stress axis : x y z
#
# Youngs Moduli (GPa) = 54.44183 54.44268 42.98526
#
# Poissons Ratio (x) = 0.29484 0.38278
# Poissons Ratio (y) = 0.29484 0.38277
# Poissons Ratio (z) = 0.48480 0.48479
#
# Static dielectric constant tensor:
#      x y z
#    x 2.002230 0.000000 0.000000 
#    y 0.000000 2.002540 0.000000 
#    z 0.000000 0.000000 1.547220 
# 
# From -- ./inp_files/1837.got.cif
#   From: 2010.05.17/outbox.cif.g08.bks.cpg/sg132_1_cif.got.tgz:1837.got - 2010.05.20 12:30:18.
