data_PCOD9567360
_publ_section_title
;
Structure prediction by ZEFSAII (Michael W. Deem and Ramdas Pophale) SiO2 
 PCOD9567360
Probable space group: P 42/M C M
;
_chemical_formula_sum "Si O2"
_cell_formula_units_Z 58
_cell_length_a 17.516725
_cell_length_b 17.516725
_cell_length_c 9.734901
_cell_angle_alpha 90.000000
_cell_angle_beta 90.000000
_cell_angle_gamma 90.000000
_cell_volume 2987.014722
_symmetry_space_group_name_H-M "P 42/M C M"
_symmetry_group_IT_number 132
_symmetry_cell_setting 'tetragonal'
loop_
_space_group_symop_operation_xyz
x,y,z
-y,x,1/2+z
-x,-y,z
y,-x,1/2+z
x,-y,1/2-z
-x,y,1/2-z
y,x,-z
-y,-x,-z
-x,-y,-z
y,-x,1/2-z
x,y,-z
-y,x,1/2-z
-x,y,1/2+z
x,-y,1/2+z
-y,-x,z
y,x,z
loop_
_atom_site_type_symbol
_atom_site_label
_atom_site_fract_x
_atom_site_fract_y
_atom_site_fract_z
Si Si1 0.783177 0.344390 0.718625
Si Si2 0.312695 0.563791 0.500000
Si Si3 0.000000 0.000000 0.000000
Si Si4 0.263121 0.393248 0.500000
Si Si5 0.259274 0.934241 0.340614
Si Si6 0.886454 0.886454 0.655571
O O1 0.731490 0.268511 0.728128
O O2 0.734517 0.402555 0.627651
O O3 0.862043 0.315154 0.658292
O O4 0.788565 0.381586 0.867108
O O5 0.395750 0.604250 0.500000
O O6 0.307324 0.473339 0.500000
O O7 0.950105 0.049896 0.116707
O O8 0.327170 0.327170 0.500000
O O9 0.239257 0.953693 0.500000
O O10 0.183865 0.916019 0.248848
O O11 0.297664 0.000000 0.250000
O O12 0.860505 0.860505 0.500000
#
# Coordination Sequence:
#
# PCOD9567360 Si02
#       6
#    16   8   2   8  16   8
#     4  10  21  39  65  91 128 171 225 269 317 389
#     4  10  20  39  65 100 135 176 213 257 321 393
#     4   8  24  44  60  84 126 176 198 264 332 396
#     4  10  22  36  65 102 137 175 211 261 322 394
#     4  12  25  41  66  93 122 169 223 283 334 381
#     4  10  23  44  66  88 128 170 217 262 328 410
#
# _framework density 19.417380000000001
#
# number of rings (size 3 to 8) (size 9 to 14) (size 15 to 20)
#    0.414    1.103    2.759    2.069    3.862    1.379 
#    0.000    2.759    0.000    9.931    0.000    0.000 
#    0.000    0.000    0.000    0.000    0.000    0.000 
#
# Total GULP energy -322901.010695 kJ/mol
# GULP energy per Si atom -5567.258805 kJ/mol
# Density = 1.937319 g / cm^3
# Si number density = 19.417380 Si / 1000 Ang^3
#
#
#
# Elastic Constant Matrix: (Units=GPa)
#
#
# Indices 1 2 3 4 5 6 
#
# 1 59.7584 4.0670 21.3217 0.0000 0.0000 0.0000
# 2 4.0670 59.7589 21.3214 0.0000 0.0000 0.0000
# 3 21.3217 21.3214 182.6057 0.0000 0.0000 0.0000
# 4 0.0000 0.0000 0.0000 19.9132 0.0000 0.0000
# 5 0.0000 0.0000 0.0000 0.0000 19.9106 0.0000
# 6 0.0000 0.0000 0.0000 0.0000 0.0000 18.3410
#
#
#
# Elastic Compliance Matrix: (Units=1/GPa)
#
#
# Indices 1 2 3 4 5 6 
#
# 1 0.017475 -0.000481 -0.001984 0.000000 0.000000 0.000000
# 2 -0.000481 0.017475 -0.001984 0.000000 0.000000 0.000000
# 3 -0.001984 -0.001984 0.005940 0.000000 0.000000 0.000000
# 4 0.000000 0.000000 0.000000 0.050218 0.000000 0.000000
# 5 0.000000 0.000000 0.000000 0.000000 0.050224 0.000000
# 6 0.000000 0.000000 0.000000 0.000000 0.000000 0.054523
#
#
# Mechanical properties :
#
#
# Convention : Reuss Voigt Hill
#
# Bulk Modulus (GPa) = 31.26016 43.94923 37.60470
# Shear Modulus (GPa) = 23.21083 28.66050 25.93567
#
# Velocity S-wave (km/s) = 3.46115 3.84607 3.65868
# Velocity P-wave (km/s) = 5.66629 6.51200 6.10381
#
# Compressibility (1/GPa) = 0.03198960
#
# Stress axis : x y z
#
# Youngs Moduli (GPa) = 57.22541 57.22592 168.36041
#
# Poissons Ratio (x) = 0.02754 0.33406
# Poissons Ratio (y) = 0.02754 0.33406
# Poissons Ratio (z) = 0.11355 0.11355
#
# Static dielectric constant tensor:
#      x y z
#    x 1.701470 0.000000 0.000000 
#    y 0.000000 1.701460 0.000000 
#    z 0.000000 0.000000 1.820860 
# 
# From -- ./inp_files/1058.got.cif
#   From: 2010.05.17/outbox.cif.g08.bks.cpg/sg132_1_cif.got.tgz:1058.got - 2010.05.20 12:30:18.
