data_PCOD9567888
_publ_section_title
;
Structure prediction by ZEFSAII (Michael W. Deem and Ramdas Pophale) SiO2 
 PCOD9567888
Probable space group: P 42/N B C
;
_chemical_formula_sum "Si O2"
_cell_formula_units_Z 112
_cell_length_a 13.646862
_cell_length_b 13.646862
_cell_length_c 24.262738
_cell_angle_alpha 90.000000
_cell_angle_beta 90.000000
_cell_angle_gamma 90.000000
_cell_volume 4518.615714
_symmetry_space_group_name_H-M "P 42/N B C"
_symmetry_group_IT_number 133
_space_group.IT_coordinate_system_code '2'
_symmetry_cell_setting 'tetragonal'
loop_
_space_group_symop_operation_xyz
x,y,z
1/2-y,x,1/2+z
1/2-x,1/2-y,z
y,1/2-x,1/2+z
x,1/2-y,-z
1/2-x,y,-z
y,x,1/2-z
1/2-y,1/2-x,1/2-z
-x,-y,-z
1/2+y,-x,1/2-z
1/2+x,1/2+y,-z
-y,1/2+x,1/2-z
-x,1/2+y,z
1/2+x,-y,z
-y,-x,1/2+z
1/2+y,1/2+x,1/2+z
loop_
_atom_site_type_symbol
_atom_site_label
_atom_site_fract_x
_atom_site_fract_y
_atom_site_fract_z
Si Si1 0.631860 0.563781 0.504031
Si Si2 0.308865 0.096938 0.698478
Si Si3 0.124184 0.385157 0.383538
Si Si4 0.920309 0.510766 0.116497
Si Si5 0.351145 0.863330 0.018244
Si Si6 0.398186 0.759399 0.743694
Si Si7 0.560011 0.285255 0.628701
O O1 0.750000 0.556231 0.500000
O O2 0.617171 0.628586 0.450075
O O3 0.582982 0.588449 0.562484
O O4 0.596576 0.451565 0.494462
O O5 0.328777 0.171224 0.750000
O O6 0.225163 0.116554 0.650898
O O7 0.412788 0.082531 0.667503
O O8 0.271836 0.997265 0.727973
O O9 0.058350 0.483691 0.376554
O O10 0.056563 0.297369 0.364591
O O11 0.829254 0.435042 0.115206
O O12 0.348644 0.882938 0.083380
O O13 0.347274 0.750000 0.000000
O O14 0.250000 0.911925 0.000000
O O15 0.332388 0.668902 0.722075
O O16 0.406513 0.820228 0.687719
#
# Coordination Sequence:
#
# PCOD9567888 Si02
#       7
#    16  16  16  16  16  16  16
#     4  11  23  46  74 112 150 199 249 316 398 478
#     4  12  27  52  76 110 153 209 271 330 397 479
#     4  12  27  47  79 108 154 206 255 331 394 481
#     4  12  25  49  75 110 162 202 265 327 405 478
#     4  10  23  41  70 109 152 191 247 319 385 468
#     4  11  26  48  77 110 150 201 268 331 392 472
#     4  12  26  45  72 113 148 205 256 316 397 466
#
# _framework density 24.786351
#
# number of rings (size 3 to 8) (size 9 to 14) (size 15 to 20)
#    0.000    0.571    4.286    3.000    2.000    3.429 
#    2.571    0.714    0.000    0.000    0.000    0.000 
#    0.000    0.000    0.000    0.000    0.000    0.000 
#
# Total GULP energy -624738.377761 kJ/mol
# GULP energy per Si atom -5578.021230 kJ/mol
# Density = 2.472994 g / cm^3
# Si number density = 24.786351 Si / 1000 Ang^3
#
#
#
# Elastic Constant Matrix: (Units=GPa)
#
#
# Indices 1 2 3 4 5 6 
#
# 1 50.8254 7.0414 21.3756 0.0000 0.0000 0.0000
# 2 7.0414 50.8252 21.3755 0.0000 0.0000 0.0000
# 3 21.3756 21.3755 128.8504 0.0000 0.0000 0.0000
# 4 0.0000 0.0000 0.0000 34.3795 0.0000 0.0000
# 5 0.0000 0.0000 0.0000 0.0000 34.3793 0.0000
# 6 0.0000 0.0000 0.0000 0.0000 0.0000 36.5811
#
#
#
# Elastic Compliance Matrix: (Units=1/GPa)
#
#
# Indices 1 2 3 4 5 6 
#
# 1 0.021267 -0.001572 -0.003267 0.000000 0.000000 0.000000
# 2 -0.001572 0.021267 -0.003267 0.000000 0.000000 0.000000
# 3 -0.003267 -0.003267 0.008845 0.000000 0.000000 0.000000
# 4 0.000000 0.000000 0.000000 0.029087 0.000000 0.000000
# 5 0.000000 0.000000 0.000000 0.000000 0.029087 0.000000
# 6 0.000000 0.000000 0.000000 0.000000 0.000000 0.027337
#
#
# Mechanical properties :
#
#
# Convention : Reuss Voigt Hill
#
# Bulk Modulus (GPa) = 28.43679 36.67622 32.55650
# Shear Modulus (GPa) = 30.33506 33.11522 31.72514
#
# Velocity S-wave (km/s) = 3.50217 3.65914 3.58151
# Velocity P-wave (km/s) = 5.27743 5.71677 5.50148
#
# Compressibility (1/GPa) = 0.03516572
#
# Stress axis : x y z
#
# Youngs Moduli (GPa) = 47.02086 47.02070 113.05850
#
# Poissons Ratio (x) = 0.07393 0.36939
# Poissons Ratio (y) = 0.07393 0.36939
# Poissons Ratio (z) = 0.15363 0.15363
#
# Static dielectric constant tensor:
#      x y z
#    x 2.027390 0.000000 0.000000 
#    y 0.000000 2.027400 0.000000 
#    z 0.000000 0.000000 2.270320 
# 
# From -- ./inp_files/7249.got.cif
#   From: 2010.05.17/outbox.cif.g08.bks.cpg/sg133_4_cif.got.tgz:7249.got - 2010.05.20 12:37:36.
