data_PCOD9567698
_publ_section_title
;
Structure prediction by ZEFSAII (Michael W. Deem and Ramdas Pophale) SiO2 
 PCOD9567698
Probable space group: P 42/N B C
;
_chemical_formula_sum "Si O2"
_cell_formula_units_Z 96
_cell_length_a 24.470173
_cell_length_b 24.470173
_cell_length_c 7.818910
_cell_angle_alpha 90.000000
_cell_angle_beta 90.000000
_cell_angle_gamma 90.000000
_cell_volume 4681.880167
_symmetry_space_group_name_H-M "P 42/N B C"
_symmetry_group_IT_number 133
_space_group.IT_coordinate_system_code '2'
_symmetry_cell_setting 'tetragonal'
loop_
_space_group_symop_operation_xyz
x,y,z
1/2-y,x,1/2+z
1/2-x,1/2-y,z
y,1/2-x,1/2+z
x,1/2-y,-z
1/2-x,y,-z
y,x,1/2-z
1/2-y,1/2-x,1/2-z
-x,-y,-z
1/2+y,-x,1/2-z
1/2+x,1/2+y,-z
-y,1/2+x,1/2-z
-x,1/2+y,z
1/2+x,-y,z
-y,-x,1/2+z
1/2+y,1/2+x,1/2+z
loop_
_atom_site_type_symbol
_atom_site_label
_atom_site_fract_x
_atom_site_fract_y
_atom_site_fract_z
Si Si1 0.602268 0.589478 0.945743
Si Si2 0.935414 0.009724 0.450851
Si Si3 0.915146 0.309744 0.451912
Si Si4 0.581191 0.386790 0.225873
Si Si5 0.463648 0.299778 0.624373
Si Si6 0.302730 0.365909 0.609384
O O1 0.583019 0.583019 0.750000
O O2 0.550884 0.585521 0.070382
O O3 0.645705 0.546436 0.013564
O O4 0.628401 0.648174 0.974710
O O5 0.931024 0.052362 0.298594
O O6 0.889867 0.037114 0.576094
O O7 0.000000 0.000000 0.500000
O O8 0.891053 0.250000 0.500000
O O9 0.927672 0.341623 0.629728
O O10 0.883440 0.356777 0.345596
O O11 0.971254 0.297572 0.348525
O O12 0.448864 0.250000 0.500000
O O13 0.423213 0.297328 0.785846
O O14 0.250000 0.352805 0.500000
O O15 0.321715 0.321715 0.750000
#
# Coordination Sequence:
#
# PCOD9567698 Si02
#       6
#    16  16  16  16  16  16
#     4  11  20  32  53  80 111 150 193 234 288 354
#     4  11  20  32  53  85 125 159 188 230 291 361
#     4  10  21  39  60  84 117 154 192 241 296 353
#     4  10  21  36  56  85 120 155 196 240 290 358
#     4  10  20  35  56  81 113 150 189 238 294 358
#     4  10  22  38  58  80 108 146 195 252 305 361
#
# _framework density 20.504581999999999
#
# number of rings (size 3 to 8) (size 9 to 14) (size 15 to 20)
#    0.000    1.667    0.000    6.500    0.000    4.000 
#    0.000    3.333    0.000   35.000    0.000    0.000 
#    0.000    0.000    0.000    0.000    0.000    0.000 
#
# Total GULP energy -535247.281966 kJ/mol
# GULP energy per Si atom -5575.492520 kJ/mol
# Density = 2.045791 g / cm^3
# Si number density = 20.504582 Si / 1000 Ang^3
#
#
#
# Elastic Constant Matrix: (Units=GPa)
#
#
# Indices 1 2 3 4 5 6 
#
# 1 98.0473 15.4085 13.2107 0.0000 0.0000 0.0000
# 2 15.4085 98.0473 13.2107 0.0000 0.0000 0.0000
# 3 13.2107 13.2107 59.0100 0.0000 0.0000 0.0000
# 4 0.0000 0.0000 0.0000 10.3559 0.0000 0.0000
# 5 0.0000 0.0000 0.0000 0.0000 10.3559 0.0000
# 6 0.0000 0.0000 0.0000 0.0000 0.0000 11.9570
#
#
#
# Elastic Compliance Matrix: (Units=1/GPa)
#
#
# Indices 1 2 3 4 5 6 
#
# 1 0.010700 -0.001401 -0.002082 0.000000 0.000000 0.000000
# 2 -0.001401 0.010700 -0.002082 0.000000 0.000000 0.000000
# 3 -0.002082 -0.002082 0.017878 0.000000 0.000000 0.000000
# 4 0.000000 0.000000 0.000000 0.096563 0.000000 0.000000
# 5 0.000000 0.000000 0.000000 0.000000 0.096563 0.000000
# 6 0.000000 0.000000 0.000000 0.000000 0.000000 0.083633
#
#
# Mechanical properties :
#
#
# Convention : Reuss Voigt Hill
#
# Bulk Modulus (GPa) = 35.52527 37.64051 36.58289
# Shear Modulus (GPa) = 14.85664 20.75207 17.80435
#
# Velocity S-wave (km/s) = 2.69467 3.18476 2.94991
# Velocity P-wave (km/s) = 5.20046 5.64983 5.42979
#
# Compressibility (1/GPa) = 0.02814898
#
# Stress axis : x y z
#
# Youngs Moduli (GPa) = 93.45950 93.45950 55.93349
#
# Poissons Ratio (x) = 0.13094 0.11644
# Poissons Ratio (y) = 0.13094 0.11644
# Poissons Ratio (z) = 0.19456 0.19456
#
# Static dielectric constant tensor:
#      x y z
#    x 1.748010 0.000000 0.000000 
#    y 0.000000 1.748010 0.000000 
#    z 0.000000 0.000000 17.823870 
# 
# From -- ./inp_files/1937.got.cif
#   From: 2010.05.17/outbox.cif.g08.bks.cpg/sg133_1_cif.got.tgz:1937.got - 2010.05.20 12:37:36.
