data_PCOD9567276
_publ_section_title
;
Structure prediction by ZEFSAII (Michael W. Deem and Ramdas Pophale) SiO2 
 PCOD9567276
Probable space group: P 42/M C M
;
_chemical_formula_sum "Si O2"
_cell_formula_units_Z 64
_cell_length_a 13.189228
_cell_length_b 13.189228
_cell_length_c 18.775522
_cell_angle_alpha 90.000000
_cell_angle_beta 90.000000
_cell_angle_gamma 90.000000
_cell_volume 3266.109734
_symmetry_space_group_name_H-M "P 42/M C M"
_symmetry_group_IT_number 132
_symmetry_cell_setting 'tetragonal'
loop_
_space_group_symop_operation_xyz
x,y,z
-y,x,1/2+z
-x,-y,z
y,-x,1/2+z
x,-y,1/2-z
-x,y,1/2-z
y,x,-z
-y,-x,-z
-x,-y,-z
y,-x,1/2-z
x,y,-z
-y,x,1/2-z
-x,y,1/2+z
x,-y,1/2+z
-y,-x,z
y,x,z
loop_
_atom_site_type_symbol
_atom_site_label
_atom_site_fract_x
_atom_site_fract_y
_atom_site_fract_z
Si Si1 0.030991 0.798547 0.581122
Si Si2 0.593181 0.245888 0.710493
Si Si3 0.102328 0.257276 0.289777
Si Si4 0.566267 0.102628 0.580538
O O1 0.999583 0.819580 0.500000
O O2 0.110826 0.889175 0.600895
O O3 0.083974 0.687806 0.581482
O O4 0.935893 0.776732 0.632549
O O5 0.500000 0.297475 0.750000
O O6 0.674992 0.325009 0.682477
O O7 0.651317 0.177262 0.770125
O O8 0.551630 0.178109 0.645937
O O9 0.159057 0.159057 0.258715
O O10 0.000000 0.282422 0.250000
O O11 0.540108 0.138049 0.500000
O O12 0.500000 0.000000 0.592029
#
# Coordination Sequence:
#
# PCOD9567276 Si02
#       4
#    16  16  16  16
#     4  10  20  34  52  77 115 159 199 242 294 357
#     4  11  24  40  62  89 118 157 199 249 306 358
#     4  11  22  35  53  81 114 153 198 242 295 358
#     4  10  20  35  59  90 119 152 197 249 304 359
#
# _framework density 19.595179000000002
#
# number of rings (size 3 to 8) (size 9 to 14) (size 15 to 20)
#    0.000    1.500    2.500    3.000    0.000    4.000 
#    0.000    1.250    0.000    2.250    0.000    1.750 
#    0.000    0.000    0.000    0.000    0.000    0.000 
#
# Total GULP energy -356378.693287 kJ/mol
# GULP energy per Si atom -5568.417083 kJ/mol
# Density = 1.955058 g / cm^3
# Si number density = 19.595179 Si / 1000 Ang^3
#
#
#
# Elastic Constant Matrix: (Units=GPa)
#
#
# Indices 1 2 3 4 5 6 
#
# 1 39.6254 40.9497 28.7414 0.0000 0.0000 0.0000
# 2 40.9497 39.6254 28.7414 0.0000 0.0000 0.0000
# 3 28.7414 28.7414 130.7342 0.0000 0.0000 0.0000
# 4 0.0000 0.0000 0.0000 35.8349 0.0000 0.0000
# 5 0.0000 0.0000 0.0000 0.0000 35.8349 0.0000
# 6 0.0000 0.0000 0.0000 0.0000 0.0000 20.6074
#
#
#
# Elastic Compliance Matrix: (Units=1/GPa)
#
#
# Indices 1 2 3 4 5 6 
#
# 1 -0.370204 0.384923 -0.003236 0.000000 0.000000 0.000000
# 2 0.384923 -0.370204 -0.003236 0.000000 0.000000 0.000000
# 3 -0.003236 -0.003236 0.009072 0.000000 0.000000 0.000000
# 4 0.000000 0.000000 0.000000 0.027906 0.000000 0.000000
# 5 0.000000 0.000000 0.000000 0.000000 0.027906 0.000000
# 6 0.000000 0.000000 0.000000 0.000000 0.000000 0.048526
#
#
# Mechanical properties :
#
#
# Convention : Reuss Voigt Hill
#
# Bulk Modulus (GPa) = 39.11338 45.20553 42.15946
# Shear Modulus (GPa) = -3.63536 25.89228 11.12846
#
# Velocity S-wave (km/s) = -1.36355 3.63899 2.38569
# Velocity P-wave (km/s) = 4.18629 6.38562 5.39913
#
# Compressibility (1/GPa) = 0.02556670
#
# Stress axis : x y z
#
# Youngs Moduli (GPa) = -2.70122 -2.70122 110.22994
#
# Poissons Ratio (x) = 1.03976 0.35670
# Poissons Ratio (y) = 1.03976 0.35670
# Poissons Ratio (z) = -0.00874 -0.00874
#
# Static dielectric constant tensor:
#      x y z
#    x 1.705420 0.000000 0.000000 
#    y 0.000000 1.705420 0.000000 
#    z 0.000000 0.000000 1.760940 
# 
# From -- ./inp_files/5971.got.cif
#   From: 2010.05.17/outbox.cif.g08.bks.cpg/sg132_3_cif.got.tgz:5971.got - 2010.05.20 12:30:18.
