data_PCOD9567622
_publ_section_title
;
Structure prediction by ZEFSAII (Michael W. Deem and Ramdas Pophale) SiO2 
 PCOD9567622
Probable space group: P 42/N B C
;
_chemical_formula_sum "Si O2"
_cell_formula_units_Z 84
_cell_length_a 25.393716
_cell_length_b 25.393716
_cell_length_c 7.645485
_cell_angle_alpha 90.000000
_cell_angle_beta 90.000000
_cell_angle_gamma 90.000000
_cell_volume 4930.120758
_symmetry_space_group_name_H-M "P 42/N B C"
_symmetry_group_IT_number 133
_space_group.IT_coordinate_system_code '2'
_symmetry_cell_setting 'tetragonal'
loop_
_space_group_symop_operation_xyz
x,y,z
1/2-y,x,1/2+z
1/2-x,1/2-y,z
y,1/2-x,1/2+z
x,1/2-y,-z
1/2-x,y,-z
y,x,1/2-z
1/2-y,1/2-x,1/2-z
-x,-y,-z
1/2+y,-x,1/2-z
1/2+x,1/2+y,-z
-y,1/2+x,1/2-z
-x,1/2+y,z
1/2+x,-y,z
-y,-x,1/2+z
1/2+y,1/2+x,1/2+z
loop_
_atom_site_type_symbol
_atom_site_label
_atom_site_fract_x
_atom_site_fract_y
_atom_site_fract_z
Si Si1 0.953161 0.690672 0.540950
Si Si2 0.667122 0.832879 0.965536
Si Si3 0.415861 0.998497 0.459991
Si Si4 0.001503 0.915861 0.459991
Si Si5 0.453161 0.309329 0.959050
Si Si6 0.750000 0.750000 0.000000
O O1 0.969653 0.750000 0.500000
O O2 0.892748 0.680642 0.485385
O O3 0.952085 0.686460 0.750000
O O4 0.989330 0.642793 0.474357
O O5 0.673020 0.826980 0.750000
O O6 0.607252 0.819360 0.014614
O O7 0.706849 0.793151 0.059559
O O8 0.442868 0.942868 0.500000
O O9 0.414964 0.002977 0.250000
O O10 0.456037 0.043963 0.525471
O O11 0.357207 0.010670 0.525643
O O12 0.469652 0.250000 0.000000
#
# Coordination Sequence:
#
# PCOD9567622 Si02
#       6
#    16  16  16  16  16   4
#     4  10  19  32  46  63  89 120 151 191 232 269
#     4  10  19  29  40  57  84 117 155 192 230 261
#     4   9  17  30  48  66  88 116 149 189 236 278
#     4   9  17  30  48  66  88 116 149 189 236 278
#     4  10  19  32  46  63  89 120 151 191 232 269
#     4  12  18  28  44  54  80 124 166 192 226 256
#
# _framework density 17.038122000000001
#
# number of rings (size 3 to 8) (size 9 to 14) (size 15 to 20)
#    0.000    2.286    3.810    0.286    0.000    1.524 
#    0.000    0.952    0.000    0.000    0.000    0.000 
#    0.000    0.762    0.000    8.381    0.000    6.095 
#
# Total GULP energy -467957.221159 kJ/mol
# GULP energy per Si atom -5570.919300 kJ/mol
# Density = 1.699934 g / cm^3
# Si number density = 17.038122 Si / 1000 Ang^3
#
#
#
# Elastic Constant Matrix: (Units=GPa)
#
#
# Indices 1 2 3 4 5 6 
#
# 1 129.6364 97.8108 9.1148 0.0000 0.0000 0.0000
# 2 97.8108 129.6367 9.1146 0.0000 0.0000 0.0000
# 3 9.1148 9.1146 37.2507 0.0000 0.0000 0.0000
# 4 0.0000 0.0000 0.0000 44.0039 0.0000 0.0000
# 5 0.0000 0.0000 0.0000 0.0000 44.0040 0.0000
# 6 0.0000 0.0000 0.0000 0.0000 0.0000 34.4910
#
#
#
# Elastic Compliance Matrix: (Units=1/GPa)
#
#
# Indices 1 2 3 4 5 6 
#
# 1 0.017953 -0.013468 -0.001097 0.000000 0.000000 0.000000
# 2 -0.013468 0.017953 -0.001097 0.000000 0.000000 0.000000
# 3 -0.001097 -0.001097 0.027382 0.000000 0.000000 0.000000
# 4 0.000000 0.000000 0.000000 0.022725 0.000000 0.000000
# 5 0.000000 0.000000 0.000000 0.000000 0.022725 0.000000
# 6 0.000000 0.000000 0.000000 0.000000 0.000000 0.028993
#
#
# Mechanical properties :
#
#
# Convention : Reuss Voigt Hill
#
# Bulk Modulus (GPa) = 31.28710 58.73379 45.01044
# Shear Modulus (GPa) = 27.82244 36.53200 32.17722
#
# Velocity S-wave (km/s) = 4.04536 4.63550 4.35045
# Velocity P-wave (km/s) = 6.34215 7.94967 7.19097
#
# Compressibility (1/GPa) = 0.03196206
#
# Stress axis : x y z
#
# Youngs Moduli (GPa) = 55.70154 55.70172 36.52014
#
# Poissons Ratio (x) = 0.75020 0.04008
# Poissons Ratio (y) = 0.75020 0.04007
# Poissons Ratio (z) = 0.06113 0.06112
#
# Static dielectric constant tensor:
#      x y z
#    x 1.591120 0.000000 0.000000 
#    y 0.000000 1.591120 0.000000 
#    z 0.000000 0.000000 1.684080 
# 
# From -- ./inp_files/1829.got.cif
#   From: 2010.05.17/outbox.cif.g08.bks.cpg/sg133_1_cif.got.tgz:1829.got - 2010.05.20 12:37:36.
