data_PCOD9567042
_publ_section_title
;
Structure prediction by ZEFSAII (Michael W. Deem and Ramdas Pophale) SiO2 
 PCOD9567042
Probable space group: P 42/M C M
;
_chemical_formula_sum "Si O2"
_cell_formula_units_Z 112
_cell_length_a 20.799146
_cell_length_b 20.799146
_cell_length_c 17.967162
_cell_angle_alpha 90.000000
_cell_angle_beta 90.000000
_cell_angle_gamma 90.000000
_cell_volume 7772.674672
_symmetry_space_group_name_H-M "P 42/M C M"
_symmetry_group_IT_number 132
_symmetry_cell_setting 'tetragonal'
loop_
_space_group_symop_operation_xyz
x,y,z
-y,x,1/2+z
-x,-y,z
y,-x,1/2+z
x,-y,1/2-z
-x,y,1/2-z
y,x,-z
-y,-x,-z
-x,-y,-z
y,-x,1/2-z
x,y,-z
-y,x,1/2-z
-x,y,1/2+z
x,-y,1/2+z
-y,-x,z
y,x,z
loop_
_atom_site_type_symbol
_atom_site_label
_atom_site_fract_x
_atom_site_fract_y
_atom_site_fract_z
Si Si1 0.076814 0.491270 0.166082
Si Si2 0.376388 0.090052 0.588389
Si Si3 0.939744 0.357216 0.410760
Si Si4 0.959448 0.141589 0.325000
Si Si5 0.180447 0.924123 0.083349
Si Si6 0.853552 0.248652 0.664265
Si Si7 0.726751 0.829741 0.668990
O O1 0.102811 0.500000 0.250000
O O2 0.097082 0.549903 0.113609
O O3 0.086068 0.421336 0.130264
O O4 0.000000 0.500000 0.171135
O O5 0.370492 0.094646 0.500000
O O6 0.336972 0.146737 0.628046
O O7 0.351944 0.016778 0.609587
O O8 0.937914 0.364777 0.500000
O O9 0.893724 0.298603 0.385784
O O10 0.924398 0.075603 0.345272
O O11 0.904946 0.194435 0.312604
O O12 0.000000 0.133011 0.250000
O O13 0.004795 0.168302 0.389271
O O14 0.112750 0.887251 0.082364
O O15 0.223971 0.884764 0.140378
O O16 0.208331 0.921169 0.000000
O O17 0.792064 0.207937 0.633061
O O18 0.832345 0.280658 0.742148
O O19 0.762663 0.762663 0.649188
#
# Coordination Sequence:
#
# PCOD9567042 Si02
#       7
#    16  16  16  16  16  16  16
#     4   9  17  30  47  68  90 113 141 172 212 262
#     4  10  19  29  45  68  90 112 139 175 220 267
#     4  10  20  32  47  67  91 116 142 181 228 267
#     4  11  21  33  46  59  75 100 134 178 226 272
#     4  10  20  32  44  58  76  98 128 170 219 269
#     4  10  21  33  46  62  80 108 146 181 215 262
#     4  10  19  32  46  62  84 110 142 177 213 258
#
# _framework density 14.409454999999999
#
# number of rings (size 3 to 8) (size 9 to 14) (size 15 to 20)
#    0.000    2.000    1.429    3.000    0.000    7.000 
#    0.000    2.143    0.000    0.000    0.000    0.000 
#    0.000    0.000    0.000    0.000    0.000    0.714 
#
# Total GULP energy -623940.523173 kJ/mol
# GULP energy per Si atom -5570.897528 kJ/mol
# Density = 1.437666 g / cm^3
# Si number density = 14.409455 Si / 1000 Ang^3
#
#
#
# Elastic Constant Matrix: (Units=GPa)
#
#
# Indices 1 2 3 4 5 6 
#
# 1 49.1004 8.9776 5.2591 0.0000 0.0000 0.0000
# 2 8.9776 49.1004 5.2591 0.0000 0.0000 0.0000
# 3 5.2591 5.2591 41.2807 0.0000 0.0000 0.0000
# 4 0.0000 0.0000 0.0000 17.8749 0.0000 0.0000
# 5 0.0000 0.0000 0.0000 0.0000 17.8749 0.0000
# 6 0.0000 0.0000 0.0000 0.0000 0.0000 13.4802
#
#
#
# Elastic Compliance Matrix: (Units=1/GPa)
#
#
# Indices 1 2 3 4 5 6 
#
# 1 0.021274 -0.003649 -0.002245 0.000000 0.000000 0.000000
# 2 -0.003649 0.021274 -0.002245 0.000000 0.000000 0.000000
# 3 -0.002245 -0.002245 0.024796 0.000000 0.000000 0.000000
# 4 0.000000 0.000000 0.000000 0.055944 0.000000 0.000000
# 5 0.000000 0.000000 0.000000 0.000000 0.055944 0.000000
# 6 0.000000 0.000000 0.000000 0.000000 0.000000 0.074183
#
#
# Mechanical properties :
#
#
# Convention : Reuss Voigt Hill
#
# Bulk Modulus (GPa) = 19.58301 19.83037 19.70669
# Shear Modulus (GPa) = 17.43872 17.84505 17.64189
#
# Velocity S-wave (km/s) = 3.48261 3.52295 3.50283
# Velocity P-wave (km/s) = 5.45814 5.50819 5.48322
#
# Compressibility (1/GPa) = 0.05106466
#
# Stress axis : x y z
#
# Youngs Moduli (GPa) = 47.00536 47.00536 40.32828
#
# Poissons Ratio (x) = 0.17154 0.09055
# Poissons Ratio (y) = 0.17154 0.09055
# Poissons Ratio (z) = 0.10555 0.10555
#
# Static dielectric constant tensor:
#      x y z
#    x 1.488720 0.000000 0.000000 
#    y 0.000000 1.488720 0.000000 
#    z 0.000000 0.000000 1.503260 
# 
# From -- ./inp_files/6769.got.cif
#   From: 2010.05.17/outbox.cif.g08.bks.cpg/sg132_4_cif.got.tgz:6769.got - 2010.05.20 12:30:18.
