data_PCOD9567536
_publ_section_title
;
Structure prediction by ZEFSAII (Michael W. Deem and Ramdas Pophale) SiO2 
 PCOD9567536
Probable space group: P 42/M C M
;
_chemical_formula_sum "Si O2"
_cell_formula_units_Z 68
_cell_length_a 17.238346
_cell_length_b 17.238346
_cell_length_c 10.621873
_cell_angle_alpha 90.000000
_cell_angle_beta 90.000000
_cell_angle_gamma 90.000000
_cell_volume 3156.401865
_symmetry_space_group_name_H-M "P 42/M C M"
_symmetry_group_IT_number 132
_symmetry_cell_setting 'tetragonal'
loop_
_space_group_symop_operation_xyz
x,y,z
-y,x,1/2+z
-x,-y,z
y,-x,1/2+z
x,-y,1/2-z
-x,y,1/2-z
y,x,-z
-y,-x,-z
-x,-y,-z
y,-x,1/2-z
x,y,-z
-y,x,1/2-z
-x,y,1/2+z
x,-y,1/2+z
-y,-x,z
y,x,z
loop_
_atom_site_type_symbol
_atom_site_label
_atom_site_fract_x
_atom_site_fract_y
_atom_site_fract_z
Si Si1 0.907608 0.907608 0.244538
Si Si2 0.039178 0.585046 0.000000
Si Si3 0.794468 0.794468 0.356455
Si Si4 0.319097 0.447115 0.638215
Si Si5 0.623236 0.842250 0.720540
Si Si6 0.121412 0.348875 0.000000
Si Si7 0.169335 0.830665 0.500000
O O1 0.860318 0.860318 0.349580
O O2 0.000000 0.894312 0.250000
O O3 0.870838 0.870838 0.119311
O O4 0.089129 0.598267 0.873394
O O5 0.000000 0.500000 0.000000
O O6 0.971534 0.649099 0.000000
O O7 0.775168 0.775168 0.500000
O O8 0.825828 0.715308 0.295138
O O9 0.349458 0.500000 0.750000
O O10 0.322293 0.484554 0.500000
O O11 0.370037 0.370037 0.634504
O O12 0.232626 0.421957 0.671993
O O13 0.609940 0.854704 0.869256
O O14 0.153541 0.261381 0.000000
#
# Coordination Sequence:
#
# PCOD9567536 Si02
#       7
#     8   8   8  16  16   8   4
#     4  11  28  43  64  99 142 189 244 317 378 424
#     4  12  30  49  72 107 153 203 246 306 377 448
#     4  12  23  45  77 100 134 196 254 299 361 443
#     4  11  26  49  78 111 148 190 241 298 365 444
#     4  12  25  47  75 107 149 196 250 302 369 449
#     4  12  28  44  68 111 147 194 249 313 367 435
#     4  12  26  47  68 100 150 182 255 320 368 444
#
# _framework density 21.543517999999999
#
# number of rings (size 3 to 8) (size 9 to 14) (size 15 to 20)
#    0.000    0.353    5.882    0.706    9.882    2.118 
#    0.000    1.176    0.000    0.000    0.000    0.000 
#    0.000    0.000    0.000    0.000    0.000    0.000 
#
# Total GULP energy -380520.463838 kJ/mol
# GULP energy per Si atom -5595.889174 kJ/mol
# Density = 2.149448 g / cm^3
# Si number density = 21.543518 Si / 1000 Ang^3
#
#
#
# Elastic Constant Matrix: (Units=GPa)
#
#
# Indices 1 2 3 4 5 6 
#
# 1 94.2460 33.0460 36.8729 0.0000 0.0000 0.0000
# 2 33.0460 94.2455 36.8730 0.0000 0.0000 0.0000
# 3 36.8729 36.8730 217.5076 0.0000 0.0000 0.0000
# 4 0.0000 0.0000 0.0000 -6.4194 0.0000 0.0000
# 5 0.0000 0.0000 0.0000 0.0000 -6.4177 0.0000
# 6 0.0000 0.0000 0.0000 0.0000 0.0000 -6.8141
#
#
#
# Elastic Compliance Matrix: (Units=1/GPa)
#
#
# Indices 1 2 3 4 5 6 
#
# 1 0.012526 -0.003814 -0.001477 0.000000 0.000000 0.000000
# 2 -0.003814 0.012526 -0.001477 0.000000 0.000000 0.000000
# 3 -0.001477 -0.001477 0.005098 0.000000 0.000000 0.000000
# 4 0.000000 0.000000 0.000000 -0.155777 0.000000 0.000000
# 5 0.000000 0.000000 0.000000 0.000000 -0.155818 0.000000
# 6 0.000000 0.000000 0.000000 0.000000 0.000000 -0.146754
#
#
# Mechanical properties :
#
#
# Convention : Reuss Voigt Hill
#
# Bulk Modulus (GPa) = 60.18993 68.84256 64.51624
# Shear Modulus (GPa) = -12.22117 16.01689 1.89786
#
# Velocity S-wave (km/s) = -2.38434 2.72962 0.93960
# Velocity P-wave (km/s) = 4.51877 6.47757 5.58472
#
# Compressibility (1/GPa) = 0.01661407
#
# Stress axis : x y z
#
# Youngs Moduli (GPa) = 79.83584 79.83536 196.14534
#
# Poissons Ratio (x) = 0.30451 0.28967
# Poissons Ratio (y) = 0.30451 0.28968
# Poissons Ratio (z) = 0.11790 0.11790
#
# Static dielectric constant tensor:
#      x y z
#    x 1.774160 0.000000 0.000000 
#    y 0.000000 1.774160 0.000000 
#    z 0.000000 0.000000 1.785790 
# 
# From -- ./inp_files/3229.got.cif
#   From: 2010.05.17/outbox.cif.g08.bks.cpg/sg132_2_cif.got.tgz:3229.got - 2010.05.20 12:30:18.
