data_PCOD9567868
_publ_section_title
;
Structure prediction by ZEFSAII (Michael W. Deem and Ramdas Pophale) SiO2 
 PCOD9567868
Probable space group: P 42/N B C
;
_chemical_formula_sum "Si O2"
_cell_formula_units_Z 36
_cell_length_a 12.714356
_cell_length_b 12.714356
_cell_length_c 8.579173
_cell_angle_alpha 90.000000
_cell_angle_beta 90.000000
_cell_angle_gamma 90.000000
_cell_volume 1386.864912
_symmetry_space_group_name_H-M "P 42/N B C"
_symmetry_group_IT_number 133
_space_group.IT_coordinate_system_code '2'
_symmetry_cell_setting 'tetragonal'
loop_
_space_group_symop_operation_xyz
x,y,z
1/2-y,x,1/2+z
1/2-x,1/2-y,z
y,1/2-x,1/2+z
x,1/2-y,-z
1/2-x,y,-z
y,x,1/2-z
1/2-y,1/2-x,1/2-z
-x,-y,-z
1/2+y,-x,1/2-z
1/2+x,1/2+y,-z
-y,1/2+x,1/2-z
-x,1/2+y,z
1/2+x,-y,z
-y,-x,1/2+z
1/2+y,1/2+x,1/2+z
loop_
_atom_site_type_symbol
_atom_site_label
_atom_site_fract_x
_atom_site_fract_y
_atom_site_fract_z
Si Si1 0.364682 0.061884 0.516879
Si Si2 0.931133 0.376215 0.670609
Si Si3 0.750000 0.250000 0.500000
O O1 0.250000 0.111333 0.500000
O O2 0.461840 0.133742 0.568160
O O3 0.358450 0.972598 0.654872
O O4 0.393119 0.994774 0.365165
O O5 0.833742 0.309610 0.610197
#
# Coordination Sequence:
#
# PCOD9567868 Si02
#       3
#    16  16   4
#     4  10  22  44  64  97 150 187 233 305 367 442
#     4  10  24  39  66 105 139 183 245 297 367 429
#     4  12  24  42  68 108 130 178 238 306 342 436
#
# _framework density 25.957825
#
# number of rings (size 3 to 8) (size 9 to 14) (size 15 to 20)
#    0.000    1.778    2.222    0.000    6.222    1.778 
#    0.000    1.111    0.000    5.333    0.000    0.000 
#    0.000    0.000    0.000    0.000    0.000    0.000 
#
# Total GULP energy -201344.820971 kJ/mol
# GULP energy per Si atom -5592.911694 kJ/mol
# Density = 2.589874 g / cm^3
# Si number density = 25.957825 Si / 1000 Ang^3
#
#
#
# Elastic Constant Matrix: (Units=GPa)
#
#
# Indices 1 2 3 4 5 6 
#
# 1 193.4428 58.3919 54.8462 0.0000 0.0000 0.0000
# 2 58.3919 193.4428 54.8462 0.0000 0.0000 0.0000
# 3 54.8462 54.8462 107.2768 0.0000 0.0000 0.0000
# 4 0.0000 0.0000 0.0000 22.4171 0.0000 0.0000
# 5 0.0000 0.0000 0.0000 0.0000 22.4171 0.0000
# 6 0.0000 0.0000 0.0000 0.0000 0.0000 58.8224
#
#
#
# Elastic Compliance Matrix: (Units=1/GPa)
#
#
# Indices 1 2 3 4 5 6 
#
# 1 0.006257 -0.001148 -0.002612 0.000000 0.000000 0.000000
# 2 -0.001148 0.006257 -0.002612 0.000000 0.000000 0.000000
# 3 -0.002612 -0.002612 0.011992 0.000000 0.000000 0.000000
# 4 0.000000 0.000000 0.000000 0.044609 0.000000 0.000000
# 5 0.000000 0.000000 0.000000 0.000000 0.044609 0.000000
# 6 0.000000 0.000000 0.000000 0.000000 0.000000 0.017000
#
#
# Mechanical properties :
#
#
# Convention : Reuss Voigt Hill
#
# Bulk Modulus (GPa) = 85.01824 92.25897 88.63860
# Shear Modulus (GPa) = 33.92427 42.46986 38.19707
#
# Velocity S-wave (km/s) = 3.61903 4.04927 3.84018
# Velocity P-wave (km/s) = 7.09131 7.58164 7.34057
#
# Compressibility (1/GPa) = 0.01176218
#
# Stress axis : x y z
#
# Youngs Moduli (GPa) = 159.83275 159.83275 83.38726
#
# Poissons Ratio (x) = 0.18350 0.21779
# Poissons Ratio (y) = 0.18350 0.21779
# Poissons Ratio (z) = 0.41744 0.41744
#
# Static dielectric constant tensor:
#      x y z
#    x 2.085910 0.000000 0.000000 
#    y 0.000000 2.085910 0.000000 
#    z 0.000000 0.000000 2.074100 
# 
# From -- ./inp_files/799.got.cif
#   From: 2010.05.17/outbox.cif.g08.bks.cpg/sg133_1_cif.got.tgz:799.got - 2010.05.20 12:37:36.
