data_PCOD9567474
_publ_section_title
;
Structure prediction by ZEFSAII (Michael W. Deem and Ramdas Pophale) SiO2 
 PCOD9567474
Probable space group: P 42/M C M
;
_chemical_formula_sum "Si O2"
_cell_formula_units_Z 96
_cell_length_a 13.738704
_cell_length_b 13.738704
_cell_length_c 32.661142
_cell_angle_alpha 90.000000
_cell_angle_beta 90.000000
_cell_angle_gamma 90.000000
_cell_volume 6164.855470
_symmetry_space_group_name_H-M "P 42/M C M"
_symmetry_group_IT_number 132
_symmetry_cell_setting 'tetragonal'
loop_
_space_group_symop_operation_xyz
x,y,z
-y,x,1/2+z
-x,-y,z
y,-x,1/2+z
x,-y,1/2-z
-x,y,1/2-z
y,x,-z
-y,-x,-z
-x,-y,-z
y,-x,1/2-z
x,y,-z
-y,x,1/2-z
-x,y,1/2+z
x,-y,1/2+z
-y,-x,z
y,x,z
loop_
_atom_site_type_symbol
_atom_site_label
_atom_site_fract_x
_atom_site_fract_y
_atom_site_fract_z
Si Si1 0.274499 0.885782 0.744030
Si Si2 0.860255 0.703226 0.337123
Si Si3 0.498939 0.663929 0.953988
Si Si4 0.399786 0.946590 0.670426
Si Si5 0.339341 0.503963 0.206204
Si Si6 0.786061 0.506138 0.373025
O O1 0.183303 0.816698 0.734048
O O2 0.314748 0.850226 0.788053
O O3 0.353151 0.887278 0.707908
O O4 0.246112 0.000000 0.750000
O O5 0.806216 0.806216 0.344858
O O6 0.811075 0.618661 0.363575
O O7 0.975026 0.681794 0.343154
O O8 0.402879 0.597122 0.949172
O O9 0.589098 0.589098 0.951610
O O10 0.505059 0.738082 0.916854
O O11 0.497809 0.706096 0.000000
O O12 0.438069 0.879428 0.633895
O O13 0.500000 0.000000 0.684805
O O14 0.285361 0.500000 0.250000
O O15 0.391624 0.608377 0.200744
O O16 0.424664 0.424664 0.210965
O O17 0.283222 0.479805 0.165081
#
# Coordination Sequence:
#
# PCOD9567474 Si02
#       6
#    16  16  16  16  16  16
#     4   9  18  31  45  63  88 123 166 207 244 281
#     4   9  18  31  46  62  85 121 161 193 231 284
#     4   9  18  32  48  67  94 126 157 190 229 276
#     4   9  20  32  45  66  97 125 154 197 248 288
#     4   9  18  28  36  55  91 127 152 178 215 262
#     4  11  19  27  46  68  88 119 156 194 231 277
#
# _framework density 15.572141
#
# number of rings (size 3 to 8) (size 9 to 14) (size 15 to 20)
#    0.000    2.667    0.000    3.000    2.333    9.833 
#    0.000    0.000    0.000    4.500    0.000    0.000 
#    0.000    0.000    0.000    1.833    0.000    0.000 
#
# Total GULP energy -534508.700556 kJ/mol
# GULP energy per Si atom -5567.798964 kJ/mol
# Density = 1.553670 g / cm^3
# Si number density = 15.572141 Si / 1000 Ang^3
#
#
#
# Elastic Constant Matrix: (Units=GPa)
#
#
# Indices 1 2 3 4 5 6 
#
# 1 58.2222 37.2850 47.3037 0.0000 0.0000 0.0000
# 2 37.2850 58.2222 47.3037 0.0000 0.0000 0.0000
# 3 47.3037 47.3037 118.5213 0.0000 0.0000 0.0000
# 4 0.0000 0.0000 0.0000 21.4520 0.0000 0.0000
# 5 0.0000 0.0000 0.0000 0.0000 21.4520 0.0000
# 6 0.0000 0.0000 0.0000 0.0000 0.0000 30.5433
#
#
#
# Elastic Compliance Matrix: (Units=1/GPa)
#
#
# Indices 1 2 3 4 5 6 
#
# 1 0.032539 -0.015223 -0.006911 0.000000 0.000000 0.000000
# 2 -0.015223 0.032539 -0.006911 0.000000 0.000000 0.000000
# 3 -0.006911 -0.006911 0.013954 0.000000 0.000000 0.000000
# 4 0.000000 0.000000 0.000000 0.046616 0.000000 0.000000
# 5 0.000000 0.000000 0.000000 0.000000 0.046616 0.000000
# 6 0.000000 0.000000 0.000000 0.000000 0.000000 0.032740
#
#
# Mechanical properties :
#
#
# Convention : Reuss Voigt Hill
#
# Bulk Modulus (GPa) = 47.75082 55.41672 51.58377
# Shear Modulus (GPa) = 18.51334 21.56103 20.03718
#
# Velocity S-wave (km/s) = 3.45175 3.72504 3.59100
# Velocity P-wave (km/s) = 6.82766 7.35973 7.09868
#
# Compressibility (1/GPa) = 0.02094205
#
# Stress axis : x y z
#
# Youngs Moduli (GPa) = 30.73211 30.73211 71.66337
#
# Poissons Ratio (x) = 0.46782 0.49529
# Poissons Ratio (y) = 0.46782 0.49529
# Poissons Ratio (z) = 0.21240 0.21240
#
# Static dielectric constant tensor:
#      x y z
#    x 1.561140 0.000000 0.000000 
#    y 0.000000 1.561140 0.000000 
#    z 0.000000 0.000000 1.499460 
# 
# From -- ./inp_files/10885.got.cif
#   From: 2010.05.17/outbox.cif.g08.bks.cpg/sg132_6_cif.got.tgz:10885.got - 2010.05.20 12:30:18.
