data_PCOD9567007
_publ_section_title
;
Structure prediction by ZEFSAII (Michael W. Deem and Ramdas Pophale) SiO2 
 PCOD9567007
Probable space group: P 42/M C M
;
_chemical_formula_sum "Si O2"
_cell_formula_units_Z 120
_cell_length_a 15.382555
_cell_length_b 15.382555
_cell_length_c 28.407448
_cell_angle_alpha 90.000000
_cell_angle_beta 90.000000
_cell_angle_gamma 90.000000
_cell_volume 6721.855521
_symmetry_space_group_name_H-M "P 42/M C M"
_symmetry_group_IT_number 132
_symmetry_cell_setting 'tetragonal'
loop_
_space_group_symop_operation_xyz
x,y,z
-y,x,1/2+z
-x,-y,z
y,-x,1/2+z
x,-y,1/2-z
-x,y,1/2-z
y,x,-z
-y,-x,-z
-x,-y,-z
y,-x,1/2-z
x,y,-z
-y,x,1/2-z
-x,y,1/2+z
x,-y,1/2+z
-y,-x,z
y,x,z
loop_
_atom_site_type_symbol
_atom_site_label
_atom_site_fract_x
_atom_site_fract_y
_atom_site_fract_z
Si Si1 0.217308 0.924172 0.784345
Si Si2 0.318843 0.822257 0.948331
Si Si3 0.431450 0.431450 0.944130
Si Si4 0.494728 0.246763 0.422712
Si Si5 0.352302 0.041344 0.634655
Si Si6 0.418249 0.066475 0.052398
Si Si7 0.352485 0.208338 0.761472
Si Si8 0.826627 0.519089 0.678546
O O1 0.139807 0.860194 0.800278
O O2 0.274428 0.961623 0.827678
O O3 0.283275 0.865044 0.753373
O O4 0.185079 0.000000 0.750000
O O5 0.230406 0.769595 0.944350
O O6 0.399292 0.755924 0.945202
O O7 0.330087 0.887063 0.905241
O O8 0.323253 0.864702 0.000000
O O9 0.500000 0.500000 0.923278
O O10 0.334812 0.456127 0.930746
O O11 0.436742 0.436742 0.000000
O O12 0.545131 0.163265 0.442748
O O13 0.483576 0.230625 0.367695
O O14 0.436283 0.081610 0.662497
O O15 0.369108 0.958408 0.601033
O O16 0.500000 0.000000 0.052536
O O17 0.376692 0.058898 0.000000
O O18 0.295581 0.295581 0.772178
O O19 0.421886 0.172925 0.799894
O O20 0.414738 0.216717 0.715770
#
# Coordination Sequence:
#
# PCOD9567007 Si02
#       8
#    16  16   8  16  16  16  16  16
#     4  10  22  38  58  82 107 139 173 222 276 339
#     4  10  18  30  51  77 108 145 185 228 275 329
#     4  11  24  40  54  74 108 154 201 245 281 323
#     4  11  22  34  53  77 110 146 195 239 283 340
#     4  10  20  34  54  80 112 140 179 222 277 342
#     4  11  20  33  54  82 116 151 185 230 288 344
#     4   9  19  36  54  72 107 139 181 231 276 327
#     4   9  19  33  51  79 101 143 183 227 280 331
#
# _framework density 17.852212999999999
#
# number of rings (size 3 to 8) (size 9 to 14) (size 15 to 20)
#    0.000    1.933    2.667    2.400    2.800    4.933 
#    0.000    0.667    0.000    0.800    0.000    0.000 
#    0.000    0.000    0.000    4.267    0.000    0.000 
#
# Total GULP energy -668797.909069 kJ/mol
# GULP energy per Si atom -5573.315909 kJ/mol
# Density = 1.781158 g / cm^3
# Si number density = 17.852213 Si / 1000 Ang^3
#
#
#
# Elastic Constant Matrix: (Units=GPa)
#
#
# Indices 1 2 3 4 5 6 
#
# 1 67.5756 32.7532 20.9620 0.0000 0.0000 0.0000
# 2 32.7532 67.5756 20.9620 0.0000 0.0000 0.0000
# 3 20.9620 20.9620 106.1214 0.0000 0.0000 0.0000
# 4 0.0000 0.0000 0.0000 15.2360 0.0000 0.0000
# 5 0.0000 0.0000 0.0000 0.0000 15.2360 0.0000
# 6 0.0000 0.0000 0.0000 0.0000 0.0000 15.5449
#
#
#
# Elastic Compliance Matrix: (Units=1/GPa)
#
#
# Indices 1 2 3 4 5 6 
#
# 1 0.019791 -0.008927 -0.002146 0.000000 0.000000 0.000000
# 2 -0.008927 0.019791 -0.002146 0.000000 0.000000 0.000000
# 3 -0.002146 -0.002146 0.010271 0.000000 0.000000 0.000000
# 4 0.000000 0.000000 0.000000 0.065634 0.000000 0.000000
# 5 0.000000 0.000000 0.000000 0.000000 0.065634 0.000000
# 6 0.000000 0.000000 0.000000 0.000000 0.000000 0.064330
#
#
# Mechanical properties :
#
#
# Convention : Reuss Voigt Hill
#
# Bulk Modulus (GPa) = 42.70753 43.40298 43.05525
# Shear Modulus (GPa) = 17.87684 20.30976 19.09330
#
# Velocity S-wave (km/s) = 3.16789 3.37658 3.27390
# Velocity P-wave (km/s) = 6.11191 6.29022 6.20171
#
# Compressibility (1/GPa) = 0.02341508
#
# Stress axis : x y z
#
# Youngs Moduli (GPa) = 50.52925 50.52925 97.36210
#
# Poissons Ratio (x) = 0.45105 0.20893
# Poissons Ratio (y) = 0.45105 0.20893
# Poissons Ratio (z) = 0.10843 0.10843
#
# Static dielectric constant tensor:
#      x y z
#    x 1.600940 0.000000 0.000000 
#    y 0.000000 1.600940 0.000000 
#    z 0.000000 0.000000 1.641250 
# 
# From -- ./inp_files/11109.got.cif
#   From: 2010.05.17/outbox.cif.g08.bks.cpg/sg132_6_cif.got.tgz:11109.got - 2010.05.20 12:30:18.
