data_PCOD9567841
_publ_section_title
;
Structure prediction by ZEFSAII (Michael W. Deem and Ramdas Pophale) SiO2 
 PCOD9567841
Probable space group: P 42/N B C
;
_chemical_formula_sum "Si O2"
_cell_formula_units_Z 96
_cell_length_a 14.070470
_cell_length_b 14.070470
_cell_length_c 22.577154
_cell_angle_alpha 90.000000
_cell_angle_beta 90.000000
_cell_angle_gamma 90.000000
_cell_volume 4469.782640
_symmetry_space_group_name_H-M "P 42/N B C"
_symmetry_group_IT_number 133
_space_group.IT_coordinate_system_code '2'
_symmetry_cell_setting 'tetragonal'
loop_
_space_group_symop_operation_xyz
x,y,z
1/2-y,x,1/2+z
1/2-x,1/2-y,z
y,1/2-x,1/2+z
x,1/2-y,-z
1/2-x,y,-z
y,x,1/2-z
1/2-y,1/2-x,1/2-z
-x,-y,-z
1/2+y,-x,1/2-z
1/2+x,1/2+y,-z
-y,1/2+x,1/2-z
-x,1/2+y,z
1/2+x,-y,z
-y,-x,1/2+z
1/2+y,1/2+x,1/2+z
loop_
_atom_site_type_symbol
_atom_site_label
_atom_site_fract_x
_atom_site_fract_y
_atom_site_fract_z
Si Si1 0.345106 0.495172 0.770483
Si Si2 0.579977 0.521535 0.917648
Si Si3 0.636361 0.757499 0.361586
Si Si4 0.863594 0.173951 0.634421
Si Si5 0.490878 0.138316 0.449020
Si Si6 0.883704 0.168439 0.844610
O O1 0.431227 0.431227 0.750000
O O2 0.271144 0.424419 0.803139
O O3 0.380518 0.568540 0.820328
O O4 0.313744 0.552956 0.712853
O O5 0.637328 0.601547 0.880951
O O6 0.468116 0.526215 0.931726
O O7 0.586654 0.422272 0.882297
O O8 0.632986 0.523807 0.981373
O O9 0.750000 0.750000 0.354490
O O10 0.597874 0.681016 0.411404
O O11 0.767052 0.121134 0.620089
O O12 0.848852 0.272766 0.669662
O O13 0.921004 0.199441 0.575519
#
# Coordination Sequence:
#
# PCOD9567841 Si02
#       6
#    16  16  16  16  16  16
#     4  11  23  42  63  95 138 176 232 286 337 427
#     4  11  23  42  72  99 142 186 226 300 355 429
#     4  11  25  47  70 101 144 192 246 296 360 438
#     4  10  22  39  65  98 134 172 225 285 349 426
#     4  10  23  43  66 106 140 178 236 288 364 432
#     4  11  21  39  68  98 127 179 223 284 356 412
#
# _framework density 21.477554999999999
#
# number of rings (size 3 to 8) (size 9 to 14) (size 15 to 20)
#    0.000    1.333    3.333    3.500    0.000    6.333 
#    0.000    6.667    0.000    0.000    0.000    0.000 
#    0.000    0.000    0.000    0.000    0.000    0.000 
#
# Total GULP energy -535293.506173 kJ/mol
# GULP energy per Si atom -5575.974023 kJ/mol
# Density = 2.142867 g / cm^3
# Si number density = 21.477555 Si / 1000 Ang^3
#
#
#
# Elastic Constant Matrix: (Units=GPa)
#
#
# Indices 1 2 3 4 5 6 
#
# 1 110.0311 14.1724 31.4693 0.0000 0.0000 0.0000
# 2 14.1724 110.0311 31.4693 0.0000 0.0000 0.0000
# 3 31.4693 31.4693 77.2106 0.0000 0.0000 0.0000
# 4 0.0000 0.0000 0.0000 13.6308 0.0000 0.0000
# 5 0.0000 0.0000 0.0000 0.0000 13.6308 0.0000
# 6 0.0000 0.0000 0.0000 0.0000 0.0000 25.5808
#
#
#
# Elastic Compliance Matrix: (Units=1/GPa)
#
#
# Indices 1 2 3 4 5 6 
#
# 1 0.010290 -0.000142 -0.004136 0.000000 0.000000 0.000000
# 2 -0.000142 0.010290 -0.004136 0.000000 0.000000 0.000000
# 3 -0.004136 -0.004136 0.016323 0.000000 0.000000 0.000000
# 4 0.000000 0.000000 0.000000 0.073363 0.000000 0.000000
# 5 0.000000 0.000000 0.000000 0.000000 0.073363 0.000000
# 6 0.000000 0.000000 0.000000 0.000000 0.000000 0.039092
#
#
# Mechanical properties :
#
#
# Convention : Reuss Voigt Hill
#
# Bulk Modulus (GPa) = 49.81548 50.16607 49.99078
# Shear Modulus (GPa) = 20.30548 25.24595 22.77571
#
# Velocity S-wave (km/s) = 3.07812 3.43221 3.25998
# Velocity P-wave (km/s) = 5.98979 6.25419 6.12342
#
# Compressibility (1/GPa) = 0.02007408
#
# Stress axis : x y z
#
# Youngs Moduli (GPa) = 97.18624 97.18624 61.26390
#
# Poissons Ratio (x) = 0.01385 0.25337
# Poissons Ratio (y) = 0.01385 0.25337
# Poissons Ratio (z) = 0.40193 0.40193
#
# Static dielectric constant tensor:
#      x y z
#    x 1.842490 0.000000 0.000000 
#    y 0.000000 1.842490 0.000000 
#    z 0.000000 0.000000 1.829090 
# 
# From -- ./inp_files/6525.got.cif
#   From: 2010.05.17/outbox.cif.g08.bks.cpg/sg133_4_cif.got.tgz:6525.got - 2010.05.20 12:37:36.
