data_PCOD9567523
_publ_section_title
;
Structure prediction by ZEFSAII (Michael W. Deem and Ramdas Pophale) SiO2 
 PCOD9567523
Probable space group: P 42/M C M
;
_chemical_formula_sum "Si O2"
_cell_formula_units_Z 60
_cell_length_a 12.061799
_cell_length_b 12.061799
_cell_length_c 19.905301
_cell_angle_alpha 90.000000
_cell_angle_beta 90.000000
_cell_angle_gamma 90.000000
_cell_volume 2895.962429
_symmetry_space_group_name_H-M "P 42/M C M"
_symmetry_group_IT_number 132
_symmetry_cell_setting 'tetragonal'
loop_
_space_group_symop_operation_xyz
x,y,z
-y,x,1/2+z
-x,-y,z
y,-x,1/2+z
x,-y,1/2-z
-x,y,1/2-z
y,x,-z
-y,-x,-z
-x,-y,-z
y,-x,1/2-z
x,y,-z
-y,x,1/2-z
-x,y,1/2+z
x,-y,1/2+z
-y,-x,z
y,x,z
loop_
_atom_site_type_symbol
_atom_site_label
_atom_site_fract_x
_atom_site_fract_y
_atom_site_fract_z
Si Si1 0.000000 0.000000 0.840654
Si Si2 0.269091 0.001675 0.829679
Si Si3 0.500000 0.324795 0.250000
Si Si4 0.393161 0.214887 0.621342
Si Si5 0.814791 0.634654 0.926193
O O1 0.863165 0.999681 0.837796
O O2 0.320582 0.108044 0.866703
O O3 0.294108 0.000000 0.750000
O O4 0.323048 0.895290 0.865425
O O5 0.406348 0.406348 0.219830
O O6 0.441832 0.253785 0.306801
O O7 0.312025 0.312025 0.596285
O O8 0.502774 0.195269 0.578309
O O9 0.697141 0.697141 0.921086
O O10 0.861801 0.665229 0.000000
#
# Coordination Sequence:
#
# PCOD9567523 Si02
#       5
#     4  16   8  16  16
#     4  12  25  44  73 106 137 172 217 278 337 396
#     4  12  24  43  71 102 137 176 223 277 338 401
#     4   9  18  34  57  92 136 170 211 277 340 392
#     4  11  23  38  63  98 130 174 226 277 330 399
#     4  11  26  47  68  94 135 180 222 275 337 397
#
# _framework density 20.718502000000001
#
# number of rings (size 3 to 8) (size 9 to 14) (size 15 to 20)
#    0.000    0.933    2.667    4.400    0.000    7.467 
#    0.000    2.667    0.000    0.000    0.000    0.000 
#    0.000    0.000    0.000    0.000    0.000    0.000 
#
# Total GULP energy -334365.369567 kJ/mol
# GULP energy per Si atom -5572.756159 kJ/mol
# Density = 2.067135 g / cm^3
# Si number density = 20.718502 Si / 1000 Ang^3
#
#
#
# Elastic Constant Matrix: (Units=GPa)
#
#
# Indices 1 2 3 4 5 6 
#
# 1 152.1786 40.1491 43.9716 0.0000 0.0000 0.0000
# 2 40.1491 152.1786 43.9716 0.0000 0.0000 0.0000
# 3 43.9716 43.9716 91.8351 0.0000 0.0000 0.0000
# 4 0.0000 0.0000 0.0000 7.6933 0.0000 0.0000
# 5 0.0000 0.0000 0.0000 0.0000 7.6933 0.0000
# 6 0.0000 0.0000 0.0000 0.0000 0.0000 35.1307
#
#
#
# Elastic Compliance Matrix: (Units=1/GPa)
#
#
# Indices 1 2 3 4 5 6 
#
# 1 0.007792 -0.001135 -0.003187 0.000000 0.000000 0.000000
# 2 -0.001135 0.007792 -0.003187 0.000000 0.000000 0.000000
# 3 -0.003187 -0.003187 0.013941 0.000000 0.000000 0.000000
# 4 0.000000 0.000000 0.000000 0.129983 0.000000 0.000000
# 5 0.000000 0.000000 0.000000 0.000000 0.129983 0.000000
# 6 0.000000 0.000000 0.000000 0.000000 0.000000 0.028465
#
#
# Mechanical properties :
#
#
# Convention : Reuss Voigt Hill
#
# Bulk Modulus (GPa) = 68.93868 72.48629 70.71248
# Shear Modulus (GPa) = 14.80125 27.97681 21.38903
#
# Velocity S-wave (km/s) = 2.67572 3.67867 3.21653
# Velocity P-wave (km/s) = 6.54921 7.28737 6.92813
#
# Compressibility (1/GPa) = 0.01450564
#
# Stress axis : x y z
#
# Youngs Moduli (GPa) = 128.34383 128.34383 71.72877
#
# Poissons Ratio (x) = 0.14563 0.22863
# Poissons Ratio (y) = 0.14563 0.22863
# Poissons Ratio (z) = 0.40908 0.40908
#
# Static dielectric constant tensor:
#      x y z
#    x 1.729390 0.000000 0.000000 
#    y 0.000000 1.729390 0.000000 
#    z 0.000000 0.000000 1.750820 
# 
# From -- ./inp_files/7482.got.cif
#   From: 2010.05.17/outbox.cif.g08.bks.cpg/sg132_4_cif.got.tgz:7482.got - 2010.05.20 12:30:18.
