data_PCOD9567344
_publ_section_title
;
Structure prediction by ZEFSAII (Michael W. Deem and Ramdas Pophale) SiO2 
 PCOD9567344
Probable space group: P 42/M C M
;
_chemical_formula_sum "Si O2"
_cell_formula_units_Z 52
_cell_length_a 11.136923
_cell_length_b 11.136923
_cell_length_c 21.635207
_cell_angle_alpha 90.000000
_cell_angle_beta 90.000000
_cell_angle_gamma 90.000000
_cell_volume 2683.437526
_symmetry_space_group_name_H-M "P 42/M C M"
_symmetry_group_IT_number 132
_symmetry_cell_setting 'tetragonal'
loop_
_space_group_symop_operation_xyz
x,y,z
-y,x,1/2+z
-x,-y,z
y,-x,1/2+z
x,-y,1/2-z
-x,y,1/2-z
y,x,-z
-y,-x,-z
-x,-y,-z
y,-x,1/2-z
x,y,-z
-y,x,1/2-z
-x,y,1/2+z
x,-y,1/2+z
-y,-x,z
y,x,z
loop_
_atom_site_type_symbol
_atom_site_label
_atom_site_fract_x
_atom_site_fract_y
_atom_site_fract_z
Si Si1 0.057802 0.365280 0.689655
Si Si2 0.673023 0.326978 0.226999
Si Si3 0.683249 0.316752 0.622823
Si Si4 0.500000 0.500000 0.848954
Si Si5 0.052726 0.364200 0.069169
O O1 0.198105 0.367600 0.701631
O O2 0.000000 0.500000 0.687782
O O3 0.000000 0.304597 0.750000
O O4 0.024920 0.306505 0.624409
O O5 0.684006 0.315995 0.301574
O O6 0.581389 0.418612 0.195676
O O7 0.583630 0.416371 0.609553
O O8 0.643859 0.188882 0.594685
O O9 0.000000 0.500000 0.064309
O O10 0.046641 0.312615 0.000000
#
# Coordination Sequence:
#
# PCOD9567344 Si02
#       5
#    16   8   8   4  16
#     4  10  20  37  60  85 122 162 212 262 309 372
#     4  12  23  35  61  98 129 174 208 267 338 388
#     4  12  22  36  58  92 134 168 213 260 324 398
#     4  12  25  30  53  98 141 166 206 265 334 401
#     4  10  21  38  60  83 118 169 214 254 310 378
#
# _framework density 19.378129999999999
#
# number of rings (size 3 to 8) (size 9 to 14) (size 15 to 20)
#    0.000    1.231    3.077    5.538    4.308    0.000 
#    0.000    2.308    0.000   14.308    0.000    2.154 
#    0.000    0.000    0.000    0.000    0.000    0.000 
#
# Total GULP energy -289886.365909 kJ/mol
# GULP energy per Si atom -5574.737806 kJ/mol
# Density = 1.933402 g / cm^3
# Si number density = 19.378130 Si / 1000 Ang^3
#
#
#
# Elastic Constant Matrix: (Units=GPa)
#
#
# Indices 1 2 3 4 5 6 
#
# 1 116.3148 37.5732 29.6677 0.0000 0.0000 0.0000
# 2 37.5732 116.3148 29.6677 0.0000 0.0000 0.0000
# 3 29.6677 29.6677 187.2149 0.0000 0.0000 0.0000
# 4 0.0000 0.0000 0.0000 9.6749 0.0000 0.0000
# 5 0.0000 0.0000 0.0000 0.0000 9.6749 0.0000
# 6 0.0000 0.0000 0.0000 0.0000 0.0000 20.9397
#
#
#
# Elastic Compliance Matrix: (Units=1/GPa)
#
#
# Indices 1 2 3 4 5 6 
#
# 1 0.009810 -0.002889 -0.001097 0.000000 0.000000 0.000000
# 2 -0.002889 0.009810 -0.001097 0.000000 0.000000 0.000000
# 3 -0.001097 -0.001097 0.005689 0.000000 0.000000 0.000000
# 4 0.000000 0.000000 0.000000 0.103360 0.000000 0.000000
# 5 0.000000 0.000000 0.000000 0.000000 0.103360 0.000000
# 6 0.000000 0.000000 0.000000 0.000000 0.000000 0.047756
#
#
# Mechanical properties :
#
#
# Convention : Reuss Voigt Hill
#
# Bulk Modulus (GPa) = 66.03194 68.18465 67.10830
# Shear Modulus (GPa) = 16.94912 29.58696 23.26804
#
# Velocity S-wave (km/s) = 2.96066 3.91170 3.46892
# Velocity P-wave (km/s) = 6.77029 7.46087 7.12395
#
# Compressibility (1/GPa) = 0.01514419
#
# Stress axis : x y z
#
# Youngs Moduli (GPa) = 101.93213 101.93213 175.77577
#
# Poissons Ratio (x) = 0.29451 0.19279
# Poissons Ratio (y) = 0.29451 0.19279
# Poissons Ratio (z) = 0.11180 0.11180
#
# Static dielectric constant tensor:
#      x y z
#    x 1.727580 0.000000 0.000000 
#    y 0.000000 1.727580 0.000000 
#    z 0.000000 0.000000 1.775200 
# 
# From -- ./inp_files/7371.got.cif
#   From: 2010.05.17/outbox.cif.g08.bks.cpg/sg132_4_cif.got.tgz:7371.got - 2010.05.20 12:30:18.
