data_PCOD9567188
_publ_section_title
;
Structure prediction by ZEFSAII (Michael W. Deem and Ramdas Pophale) SiO2 
 PCOD9567188
Probable space group: P 42/M C M
;
_chemical_formula_sum "Si O2"
_cell_formula_units_Z 88
_cell_length_a 19.588231
_cell_length_b 19.588231
_cell_length_c 14.709986
_cell_angle_alpha 90.000000
_cell_angle_beta 90.000000
_cell_angle_gamma 90.000000
_cell_volume 5644.203884
_symmetry_space_group_name_H-M "P 42/M C M"
_symmetry_group_IT_number 132
_symmetry_cell_setting 'tetragonal'
loop_
_space_group_symop_operation_xyz
x,y,z
-y,x,1/2+z
-x,-y,z
y,-x,1/2+z
x,-y,1/2-z
-x,y,1/2-z
y,x,-z
-y,-x,-z
-x,-y,-z
y,-x,1/2-z
x,y,-z
-y,x,1/2-z
-x,y,1/2+z
x,-y,1/2+z
-y,-x,z
y,x,z
loop_
_atom_site_type_symbol
_atom_site_label
_atom_site_fract_x
_atom_site_fract_y
_atom_site_fract_z
Si Si1 0.721774 0.838311 0.500000
Si Si2 0.379415 0.260886 0.000000
Si Si3 0.725985 0.390915 0.000000
Si Si4 0.847709 0.731528 0.000000
Si Si5 0.811299 0.075972 0.356037
Si Si6 0.805418 0.082061 0.859775
Si Si7 0.556696 0.443305 0.608809
Si Si8 0.508933 0.293496 0.646947
O O1 0.777052 0.777052 0.500000
O O2 0.650031 0.798119 0.500000
O O3 0.741612 0.885255 0.586569
O O4 0.428067 0.264174 0.088108
O O5 0.323698 0.323698 0.000000
O O6 0.339575 0.189979 0.000000
O O7 0.717774 0.440613 0.087228
O O8 0.664820 0.335181 0.000000
O O9 0.892425 0.749380 0.087376
O O10 0.786898 0.786898 0.000000
O O11 0.879032 0.120969 0.376175
O O12 0.797061 0.083701 0.248987
O O13 0.818838 0.996920 0.381934
O O14 0.870534 0.129467 0.882548
O O15 0.500000 0.500000 0.620212
O O16 0.567151 0.432850 0.500000
O O17 0.528769 0.373403 0.649337
O O18 0.500000 0.268391 0.750000
#
# Coordination Sequence:
#
# PCOD9567188 Si02
#       8
#     8   8   8   8  16  16   8  16
#     4   9  18  32  48  65  92 132 168 196 237 274
#     4  10  19  36  48  67  97 127 160 201 238 281
#     4  10  21  35  48  68  97 126 162 202 233 280
#     4   9  18  30  49  65  93 131 164 201 238 273
#     4   9  17  29  45  74 102 130 166 195 231 283
#     4   9  17  29  47  70 103 134 162 196 232 279
#     4  11  20  32  48  67  99 129 153 186 222 281
#     4  11  22  33  49  71  95 124 160 192 237 288
#
# _framework density 15.591215999999999
#
# number of rings (size 3 to 8) (size 9 to 14) (size 15 to 20)
#    0.000    2.273    2.727    1.091    2.545    1.818 
#    0.000    5.455    0.000    3.273    0.000   10.182 
#    0.000   17.455    0.000    0.000    0.000    0.000 
#
# Total GULP energy -490190.410757 kJ/mol
# GULP energy per Si atom -5570.345577 kJ/mol
# Density = 1.555573 g / cm^3
# Si number density = 15.591216 Si / 1000 Ang^3
#
#
#
# Elastic Constant Matrix: (Units=GPa)
#
#
# Indices 1 2 3 4 5 6 
#
# 1 90.8486 72.5164 50.1613 0.0000 0.0000 0.0000
# 2 72.5164 90.8485 50.1610 0.0000 0.0000 0.0000
# 3 50.1613 50.1610 107.6226 0.0000 0.0000 0.0000
# 4 0.0000 0.0000 0.0000 -97.8820 0.0000 0.0000
# 5 0.0000 0.0000 0.0000 0.0000 -97.9075 0.0000
# 6 0.0000 0.0000 0.0000 0.0000 0.0000 25.8640
#
#
#
# Elastic Compliance Matrix: (Units=1/GPa)
#
#
# Indices 1 2 3 4 5 6 
#
# 1 0.031563 -0.022987 -0.003997 0.000000 0.000000 0.000000
# 2 -0.022987 0.031562 -0.003997 0.000000 0.000000 0.000000
# 3 -0.003997 -0.003997 0.013018 0.000000 0.000000 0.000000
# 4 0.000000 0.000000 0.000000 -0.010216 0.000000 0.000000
# 5 0.000000 0.000000 0.000000 0.000000 -0.010214 0.000000
# 6 0.000000 0.000000 0.000000 0.000000 0.000000 0.038664
#
#
# Mechanical properties :
#
#
# Convention : Reuss Voigt Hill
#
# Bulk Modulus (GPa) = 70.51634 70.55523 70.53578
# Shear Modulus (GPa) = 31.04340 -26.21970 2.41185
#
# Velocity S-wave (km/s) = 4.46700 -4.10530 1.24511
# Velocity P-wave (km/s) = 8.48126 4.78332 6.88520
#
# Compressibility (1/GPa) = 0.01418111
#
# Stress axis : x y z
#
# Youngs Moduli (GPa) = 31.68316 31.68325 76.81862
#
# Poissons Ratio (x) = 0.72829 0.30706
# Poissons Ratio (y) = 0.72829 0.30704
# Poissons Ratio (z) = 0.12664 0.12664
#
# Static dielectric constant tensor:
#      x y z
#    x 1.572660 0.000000 0.000000 
#    y 0.000000 1.572670 0.000000 
#    z 0.000000 0.000000 1.557930 
# 
# From -- ./inp_files/4839.got.cif
#   From: 2010.05.17/outbox.cif.g08.bks.cpg/sg132_3_cif.got.tgz:4839.got - 2010.05.20 12:30:18.
