data_PCOD9567800
_publ_section_title
;
Structure prediction by ZEFSAII (Michael W. Deem and Ramdas Pophale) SiO2 
 PCOD9567800
Probable space group: P 42/N B C
;
_chemical_formula_sum "Si O2"
_cell_formula_units_Z 112
_cell_length_a 14.410352
_cell_length_b 14.410352
_cell_length_c 28.834871
_cell_angle_alpha 90.000000
_cell_angle_beta 90.000000
_cell_angle_gamma 90.000000
_cell_volume 5987.798700
_symmetry_space_group_name_H-M "P 42/N B C"
_symmetry_group_IT_number 133
_space_group.IT_coordinate_system_code '2'
_symmetry_cell_setting 'tetragonal'
loop_
_space_group_symop_operation_xyz
x,y,z
1/2-y,x,1/2+z
1/2-x,1/2-y,z
y,1/2-x,1/2+z
x,1/2-y,-z
1/2-x,y,-z
y,x,1/2-z
1/2-y,1/2-x,1/2-z
-x,-y,-z
1/2+y,-x,1/2-z
1/2+x,1/2+y,-z
-y,1/2+x,1/2-z
-x,1/2+y,z
1/2+x,-y,z
-y,-x,1/2+z
1/2+y,1/2+x,1/2+z
loop_
_atom_site_type_symbol
_atom_site_label
_atom_site_fract_x
_atom_site_fract_y
_atom_site_fract_z
Si Si1 0.602362 0.526683 0.387653
Si Si2 0.447344 0.359834 0.295576
Si Si3 0.359421 0.249999 0.055477
Si Si4 0.640166 0.947345 0.795576
Si Si5 0.650498 0.357897 0.672694
Si Si6 0.150497 0.642103 0.327307
Si Si7 0.473317 0.397637 0.112347
O O1 0.662514 0.585636 0.423231
O O2 0.591389 0.589112 0.341200
O O3 0.645995 0.430131 0.369660
O O4 0.500000 0.500000 0.405038
O O5 0.403147 0.403147 0.250000
O O6 0.428886 0.250000 0.297385
O O7 0.558171 0.374696 0.297949
O O8 0.408609 0.410888 0.341200
O O9 0.250000 0.250000 0.068878
O O10 0.414364 0.337484 0.076769
O O11 0.364013 0.250000 0.000000
O O12 0.596853 0.903148 0.750000
O O13 0.625305 0.058172 0.797949
O O14 0.750000 0.371773 0.697223
O O15 0.646202 0.250000 0.657737
O O16 0.645995 0.430130 0.630340
#
# Coordination Sequence:
#
# PCOD9567800 Si02
#       7
#    16  16  16  16  16  16  16
#     4  10  21  39  63  89 124 165 205 257 316 377
#     4  10  22  37  56  87 123 162 208 253 305 374
#     4  11  24  42  67  97 127 165 214 266 321 381
#     4  10  22  37  56  87 123 162 208 253 305 374
#     4   9  18  36  61  85 113 152 200 253 309 367
#     4   9  18  36  61  85 113 152 200 253 309 367
#     4  10  21  39  63  89 124 165 205 257 316 377
#
# _framework density 18.704702999999999
#
# number of rings (size 3 to 8) (size 9 to 14) (size 15 to 20)
#    0.000    2.143    1.429    0.857    2.000    7.143 
#    0.000    4.286    0.000   10.286    0.000    0.000 
#    0.000    0.000    0.000    0.000    0.000    0.000 
#
# Total GULP energy -625384.999075 kJ/mol
# GULP energy per Si atom -5583.794635 kJ/mol
# Density = 1.866213 g / cm^3
# Si number density = 18.704703 Si / 1000 Ang^3
#
#
#
# Elastic Constant Matrix: (Units=GPa)
#
#
# Indices 1 2 3 4 5 6 
#
# 1 122.7729 62.8741 56.0047 0.0000 0.0000 0.0000
# 2 62.8741 122.7739 56.0052 0.0000 0.0000 0.0000
# 3 56.0047 56.0052 86.3788 0.0000 0.0000 0.0000
# 4 0.0000 0.0000 0.0000 24.7979 0.0000 0.0000
# 5 0.0000 0.0000 0.0000 0.0000 24.7979 0.0000
# 6 0.0000 0.0000 0.0000 0.0000 0.0000 29.5757
#
#
#
# Elastic Compliance Matrix: (Units=1/GPa)
#
#
# Indices 1 2 3 4 5 6 
#
# 1 0.012771 -0.003924 -0.005736 0.000000 0.000000 0.000000
# 2 -0.003924 0.012771 -0.005737 0.000000 0.000000 0.000000
# 3 -0.005736 -0.005737 0.019016 0.000000 0.000000 0.000000
# 4 0.000000 0.000000 0.000000 0.040326 0.000000 0.000000
# 5 0.000000 0.000000 0.000000 0.000000 0.040326 0.000000
# 6 0.000000 0.000000 0.000000 0.000000 0.000000 0.033812
#
#
# Mechanical properties :
#
#
# Convention : Reuss Voigt Hill
#
# Bulk Modulus (GPa) = 72.64856 75.74373 74.19615
# Shear Modulus (GPa) = 25.71979 26.30374 26.01176
#
# Velocity S-wave (km/s) = 3.71218 3.75409 3.73319
# Velocity P-wave (km/s) = 7.56953 7.70541 7.63777
#
# Compressibility (1/GPa) = 0.01376490
#
# Stress axis : x y z
#
# Youngs Moduli (GPa) = 78.30113 78.30153 52.58834
#
# Poissons Ratio (x) = 0.30722 0.30167
# Poissons Ratio (y) = 0.30722 0.30167
# Poissons Ratio (z) = 0.44917 0.44918
#
# Static dielectric constant tensor:
#      x y z
#    x 1.680530 0.000000 0.000000 
#    y 0.000000 1.680530 0.000000 
#    z 0.000000 0.000000 1.598310 
# 
# From -- ./inp_files/7252.got.cif
#   From: 2010.05.17/outbox.cif.g08.bks.cpg/sg133_4_cif.got.tgz:7252.got - 2010.05.20 12:37:36.
