data_PCOD9567538
_publ_section_title
;
Structure prediction by ZEFSAII (Michael W. Deem and Ramdas Pophale) SiO2 
 PCOD9567538
Probable space group: P 42/M C M
;
_chemical_formula_sum "Si O2"
_cell_formula_units_Z 42
_cell_length_a 14.160238
_cell_length_b 14.160238
_cell_length_c 10.357533
_cell_angle_alpha 90.000000
_cell_angle_beta 90.000000
_cell_angle_gamma 90.000000
_cell_volume 2076.813181
_symmetry_space_group_name_H-M "P 42/M C M"
_symmetry_group_IT_number 132
_symmetry_cell_setting 'tetragonal'
loop_
_space_group_symop_operation_xyz
x,y,z
-y,x,1/2+z
-x,-y,z
y,-x,1/2+z
x,-y,1/2-z
-x,y,1/2-z
y,x,-z
-y,-x,-z
-x,-y,-z
y,-x,1/2-z
x,y,-z
-y,x,1/2-z
-x,y,1/2+z
x,-y,1/2+z
-y,-x,z
y,x,z
loop_
_atom_site_type_symbol
_atom_site_label
_atom_site_fract_x
_atom_site_fract_y
_atom_site_fract_z
Si Si1 0.611159 0.229238 0.000000
Si Si2 0.000000 0.000000 0.750000
Si Si3 0.352524 0.890917 0.744103
Si Si4 0.855014 0.144987 0.650976
Si Si5 0.761642 0.599419 0.000000
O O1 0.622777 0.163248 0.874879
O O2 0.692219 0.307782 0.000000
O O3 0.507507 0.275684 0.000000
O O4 0.933975 0.066026 0.664264
O O5 0.240008 0.888871 0.720212
O O6 0.390696 0.829321 0.624587
O O7 0.383782 0.000000 0.750000
O O8 0.835659 0.164342 0.500000
O O9 0.679326 0.679326 0.000000
#
# Coordination Sequence:
#
# PCOD9567538 Si02
#       5
#     8   2  16   8   8
#     4  12  27  44  71 103 131 171 234 290 338 410
#     4  12  26  36  68 110 128 182 256 272 314 410
#     4  12  24  43  70  97 138 178 220 272 341 406
#     4  12  23  42  64  98 141 186 220 276 333 400
#     4  12  25  48  71  95 137 179 222 284 358 410
#
# _framework density 20.223293000000002
#
# number of rings (size 3 to 8) (size 9 to 14) (size 15 to 20)
#    0.000    0.000    7.619    2.571    0.000    4.952 
#    3.429    0.000    0.000    4.571    0.000    0.000 
#    0.000    0.000    0.000    0.000    0.000    0.000 
#
# Total GULP energy -235001.082147 kJ/mol
# GULP energy per Si atom -5595.263861 kJ/mol
# Density = 2.017726 g / cm^3
# Si number density = 20.223293 Si / 1000 Ang^3
#
#
#
# Elastic Constant Matrix: (Units=GPa)
#
#
# Indices 1 2 3 4 5 6 
#
# 1 150.1116 60.1701 58.8087 0.0000 0.0000 0.0000
# 2 60.1701 150.1073 58.8081 0.0000 0.0000 0.0000
# 3 58.8087 58.8081 181.0074 0.0000 0.0000 0.0000
# 4 0.0000 0.0000 0.0000 85.0070 0.0000 0.0000
# 5 0.0000 0.0000 0.0000 0.0000 85.0369 0.0000
# 6 0.0000 0.0000 0.0000 0.0000 0.0000 6.6172
#
#
#
# Elastic Compliance Matrix: (Units=1/GPa)
#
#
# Indices 1 2 3 4 5 6 
#
# 1 0.008465 -0.002653 -0.001888 0.000000 0.000000 0.000000
# 2 -0.002653 0.008465 -0.001888 0.000000 0.000000 0.000000
# 3 -0.001888 -0.001888 0.006752 0.000000 0.000000 0.000000
# 4 0.000000 0.000000 0.000000 0.011764 0.000000 0.000000
# 5 0.000000 0.000000 0.000000 0.000000 0.011760 0.000000
# 6 0.000000 0.000000 0.000000 0.000000 0.000000 0.151122
#
#
# Mechanical properties :
#
#
# Convention : Reuss Voigt Hill
#
# Bulk Modulus (GPa) = 92.40264 92.97780 92.69022
# Shear Modulus (GPa) = 23.27806 55.56151 39.41979
#
# Velocity S-wave (km/s) = 3.39640 5.24725 4.41979
# Velocity P-wave (km/s) = 7.82119 9.09873 8.48404
#
# Compressibility (1/GPa) = 0.01082220
#
# Stress axis : x y z
#
# Youngs Moduli (GPa) = 118.13310 118.12947 148.11380
#
# Poissons Ratio (x) = 0.31345 0.27966
# Poissons Ratio (y) = 0.31346 0.27967
# Poissons Ratio (z) = 0.22306 0.22305
#
# Static dielectric constant tensor:
#      x y z
#    x 1.709540 0.000000 0.000000 
#    y 0.000000 1.709540 0.000000 
#    z 0.000000 0.000000 1.683650 
# 
# From -- ./inp_files/611.got.cif
#   From: 2010.05.17/outbox.cif.g08.bks.cpg/sg132_1_cif.got.tgz:611.got - 2010.05.20 12:30:18.
