data_PCOD9567019
_publ_section_title
;
Structure prediction by ZEFSAII (Michael W. Deem and Ramdas Pophale) SiO2 
 PCOD9567019
Probable space group: P 42/M C M
;
_chemical_formula_sum "Si O2"
_cell_formula_units_Z 96
_cell_length_a 14.876924
_cell_length_b 14.876924
_cell_length_c 24.166447
_cell_angle_alpha 90.000000
_cell_angle_beta 90.000000
_cell_angle_gamma 90.000000
_cell_volume 5348.587352
_symmetry_space_group_name_H-M "P 42/M C M"
_symmetry_group_IT_number 132
_symmetry_cell_setting 'tetragonal'
loop_
_space_group_symop_operation_xyz
x,y,z
-y,x,1/2+z
-x,-y,z
y,-x,1/2+z
x,-y,1/2-z
-x,y,1/2-z
y,x,-z
-y,-x,-z
-x,-y,-z
y,-x,1/2-z
x,y,-z
-y,x,1/2-z
-x,y,1/2+z
x,-y,1/2+z
-y,-x,z
y,x,z
loop_
_atom_site_type_symbol
_atom_site_label
_atom_site_fract_x
_atom_site_fract_y
_atom_site_fract_z
Si Si1 0.077013 0.077013 0.435428
Si Si2 0.496666 0.236676 0.110996
Si Si3 0.138352 0.460909 0.500000
Si Si4 0.254987 0.594823 0.221885
Si Si5 0.348633 0.963841 0.500000
Si Si6 0.938153 0.214591 0.399137
Si Si7 0.576134 0.423866 0.435017
Si Si8 0.324686 0.827523 0.676285
O O1 0.098446 0.098446 0.500000
O O2 0.031030 0.160228 0.404310
O O3 0.000000 0.000000 0.437466
O O4 0.537315 0.196119 0.055457
O O5 0.570436 0.232438 0.159269
O O6 0.461749 0.336326 0.096067
O O7 0.409655 0.184641 0.135486
O O8 0.088893 0.557677 0.500000
O O9 0.067316 0.380033 0.500000
O O10 0.279647 0.500000 0.250000
O O11 0.338214 0.661787 0.223539
O O12 0.178363 0.638094 0.261220
O O13 0.288326 0.939570 0.552685
O O14 0.858414 0.141587 0.409206
O O15 0.912629 0.266204 0.342807
O O16 0.500000 0.500000 0.434744
O O17 0.597377 0.402624 0.500000
O O18 0.258757 0.741244 0.669076
#
# Coordination Sequence:
#
# PCOD9567019 Si02
#       8
#     8  16   8  16   8  16   8  16
#     4   9  16  26  46  82 122 148 164 221 299 359
#     4  11  19  35  51  73 108 156 197 242 294 328
#     4  11  24  35  52  77 113 155 192 240 279 352
#     4   9  19  32  50  75 110 146 193 246 288 334
#     4  11  21  35  52  81 116 148 183 227 288 345
#     4  10  18  31  57  86 118 148 183 233 294 356
#     4  11  22  32  50  76 110 153 205 252 286 339
#     4   9  17  30  51  82 105 142 193 236 283 340
#
# _framework density 17.948664000000001
#
# number of rings (size 3 to 8) (size 9 to 14) (size 15 to 20)
#    0.000    2.000    4.167    0.750    1.167    0.167 
#    1.500    0.000    7.333    1.000    0.000    0.000 
#    5.000    0.000    0.000    0.000    0.000    0.000 
#
# Total GULP energy -535052.617645 kJ/mol
# GULP energy per Si atom -5573.464767 kJ/mol
# Density = 1.790781 g / cm^3
# Si number density = 17.948664 Si / 1000 Ang^3
#
#
#
# Elastic Constant Matrix: (Units=GPa)
#
#
# Indices 1 2 3 4 5 6 
#
# 1 63.4978 47.0053 54.0454 0.0000 0.0000 0.0000
# 2 47.0053 63.4979 54.0454 0.0000 0.0000 0.0000
# 3 54.0454 54.0454 153.5620 0.0000 0.0000 0.0000
# 4 0.0000 0.0000 0.0000 11.6162 0.0000 0.0000
# 5 0.0000 0.0000 0.0000 0.0000 11.6163 0.0000
# 6 0.0000 0.0000 0.0000 0.0000 0.0000 30.4117
#
#
#
# Elastic Compliance Matrix: (Units=1/GPa)
#
#
# Indices 1 2 3 4 5 6 
#
# 1 0.037217 -0.023416 -0.004857 0.000000 0.000000 0.000000
# 2 -0.023416 0.037217 -0.004857 0.000000 0.000000 0.000000
# 3 -0.004857 -0.004857 0.009931 0.000000 0.000000 0.000000
# 4 0.000000 0.000000 0.000000 0.086087 0.000000 0.000000
# 5 0.000000 0.000000 0.000000 0.000000 0.086086 0.000000
# 6 0.000000 0.000000 0.000000 0.000000 0.000000 0.032882
#
#
# Mechanical properties :
#
#
# Convention : Reuss Voigt Hill
#
# Bulk Modulus (GPa) = 55.23712 65.63887 60.43800
# Shear Modulus (GPa) = 13.82303 19.09294 16.45799
#
# Velocity S-wave (km/s) = 2.77816 3.26506 3.03140
# Velocity P-wave (km/s) = 6.41348 7.13189 6.78221
#
# Compressibility (1/GPa) = 0.01810377
#
# Stress axis : x y z
#
# Youngs Moduli (GPa) = 26.86942 26.86948 100.69642
#
# Poissons Ratio (x) = 0.62919 0.48909
# Poissons Ratio (y) = 0.62919 0.48908
# Poissons Ratio (z) = 0.13051 0.13051
#
# Static dielectric constant tensor:
#      x y z
#    x 1.608950 0.000000 0.000000 
#    y 0.000000 1.608950 0.000000 
#    z 0.000000 0.000000 1.619680 
# 
# From -- ./inp_files/9074.got.cif
#   From: 2010.05.17/outbox.cif.g08.bks.cpg/sg132_5_cif.got.tgz:9074.got - 2010.05.20 12:30:18.
