data_PCOD9567797
_publ_section_title
;
Structure prediction by ZEFSAII (Michael W. Deem and Ramdas Pophale) SiO2 
 PCOD9567797
Probable space group: P 42/N B C
;
_chemical_formula_sum "Si O2"
_cell_formula_units_Z 96
_cell_length_a 14.872848
_cell_length_b 14.872848
_cell_length_c 22.705656
_cell_angle_alpha 90.000000
_cell_angle_beta 90.000000
_cell_angle_gamma 90.000000
_cell_volume 5022.527610
_symmetry_space_group_name_H-M "P 42/N B C"
_symmetry_group_IT_number 133
_space_group.IT_coordinate_system_code '2'
_symmetry_cell_setting 'tetragonal'
loop_
_space_group_symop_operation_xyz
x,y,z
1/2-y,x,1/2+z
1/2-x,1/2-y,z
y,1/2-x,1/2+z
x,1/2-y,-z
1/2-x,y,-z
y,x,1/2-z
1/2-y,1/2-x,1/2-z
-x,-y,-z
1/2+y,-x,1/2-z
1/2+x,1/2+y,-z
-y,1/2+x,1/2-z
-x,1/2+y,z
1/2+x,-y,z
-y,-x,1/2+z
1/2+y,1/2+x,1/2+z
loop_
_atom_site_type_symbol
_atom_site_label
_atom_site_fract_x
_atom_site_fract_y
_atom_site_fract_z
Si Si1 0.494607 0.704537 0.558789
Si Si2 0.890810 0.288698 0.247195
Si Si3 0.660821 0.890521 0.462451
Si Si4 0.131464 0.951890 0.863770
Si Si5 0.083677 0.506327 0.431714
Si Si6 0.274321 0.526681 0.372088
O O1 0.456239 0.750000 0.500000
O O2 0.601394 0.695394 0.551395
O O3 0.472194 0.771090 0.610640
O O4 0.462203 0.603157 0.565418
O O5 0.846178 0.196921 0.274095
O O6 0.942479 0.351532 0.293888
O O7 0.955889 0.254805 0.195266
O O8 0.750000 0.872435 0.500000
O O9 0.603558 0.957665 0.505707
O O10 0.682831 0.936578 0.399732
O O11 0.099237 0.852651 0.883805
O O12 0.061325 0.025101 0.890297
O O13 0.181569 0.530375 0.406821
#
# Coordination Sequence:
#
# PCOD9567797 Si02
#       6
#    16  16  16  16  16  16
#     4  12  22  36  61  89 123 160 204 256 315 376
#     4   9  19  37  61  91 124 164 211 261 317 380
#     4  10  21  39  59  86 122 166 205 256 309 377
#     4  11  22  39  61  89 126 160 206 264 311 376
#     4  11  22  39  61  91 122 162 210 258 312 380
#     4  10  21  40  62  86 125 164 204 259 319 375
#
# _framework density 19.113882
#
# number of rings (size 3 to 8) (size 9 to 14) (size 15 to 20)
#    0.000    1.500    3.333    2.500    0.000    3.000 
#    0.000    1.667    0.000    0.000    0.000    2.333 
#    0.000    0.000    0.000    0.000    0.000    0.000 
#
# Total GULP energy -534682.236420 kJ/mol
# GULP energy per Si atom -5569.606629 kJ/mol
# Density = 1.907038 g / cm^3
# Si number density = 19.113882 Si / 1000 Ang^3
#
#
#
# Elastic Constant Matrix: (Units=GPa)
#
#
# Indices 1 2 3 4 5 6 
#
# 1 63.8039 51.7413 28.5364 0.0000 0.0000 0.0000
# 2 51.7413 63.8039 28.5364 0.0000 0.0000 0.0000
# 3 28.5364 28.5364 62.0040 0.0000 0.0000 0.0000
# 4 0.0000 0.0000 0.0000 -166.6286 0.0000 0.0000
# 5 0.0000 0.0000 0.0000 0.0000 -166.6286 0.0000
# 6 0.0000 0.0000 0.0000 0.0000 0.0000 0.3227
#
#
#
# Elastic Compliance Matrix: (Units=1/GPa)
#
#
# Indices 1 2 3 4 5 6 
#
# 1 0.047051 -0.035850 -0.005155 0.000000 0.000000 0.000000
# 2 -0.035850 0.047051 -0.005155 0.000000 0.000000 0.000000
# 3 -0.005155 -0.005155 0.020873 0.000000 0.000000 0.000000
# 4 0.000000 0.000000 0.000000 -0.006001 0.000000 0.000000
# 5 0.000000 0.000000 0.000000 0.000000 -0.006001 0.000000
# 6 0.000000 0.000000 0.000000 0.000000 0.000000 3.098437
#
#
# Mechanical properties :
#
#
# Convention : Reuss Voigt Hill
#
# Bulk Modulus (GPa) = 44.14097 45.24889 44.69493
# Shear Modulus (GPa) = 1.51456 -61.20036 -29.84290
#
# Velocity S-wave (km/s) = 0.89113 -5.66465 -3.95564
# Velocity P-wave (km/s) = 4.91962 4.36574 1.60358
#
# Compressibility (1/GPa) = 0.02265469
#
# Stress axis : x y z
#
# Youngs Moduli (GPa) = 21.25364 21.25364 47.90866
#
# Poissons Ratio (x) = 0.76194 0.24697
# Poissons Ratio (y) = 0.76194 0.24697
# Poissons Ratio (z) = 0.10956 0.10956
#
# Static dielectric constant tensor:
#      x y z
#    x 1.695500 0.000000 0.000000 
#    y 0.000000 1.695500 0.000000 
#    z 0.000000 0.000000 1.727390 
# 
# From -- ./inp_files/6514.got.cif
#   From: 2010.05.17/outbox.cif.g08.bks.cpg/sg133_4_cif.got.tgz:6514.got - 2010.05.20 12:37:36.
