data_PCOD9567050
_publ_section_title
;
Structure prediction by ZEFSAII (Michael W. Deem and Ramdas Pophale) SiO2 
 PCOD9567050
Probable space group: P 42/M C M
;
_chemical_formula_sum "Si O2"
_cell_formula_units_Z 112
_cell_length_a 15.525259
_cell_length_b 15.525259
_cell_length_c 29.046074
_cell_angle_alpha 90.000000
_cell_angle_beta 90.000000
_cell_angle_gamma 90.000000
_cell_volume 7001.081729
_symmetry_space_group_name_H-M "P 42/M C M"
_symmetry_group_IT_number 132
_symmetry_cell_setting 'tetragonal'
loop_
_space_group_symop_operation_xyz
x,y,z
-y,x,1/2+z
-x,-y,z
y,-x,1/2+z
x,-y,1/2-z
-x,y,1/2-z
y,x,-z
-y,-x,-z
-x,-y,-z
y,-x,1/2-z
x,y,-z
-y,x,1/2-z
-x,y,1/2+z
x,-y,1/2+z
-y,-x,z
y,x,z
loop_
_atom_site_type_symbol
_atom_site_label
_atom_site_fract_x
_atom_site_fract_y
_atom_site_fract_z
Si Si1 0.826761 0.686541 0.947742
Si Si2 0.890123 0.588927 0.862191
Si Si3 0.133055 0.272040 0.445579
Si Si4 0.096673 0.395673 0.367978
Si Si5 0.029907 0.836763 0.445375
Si Si6 0.092108 0.232045 0.692449
Si Si7 0.245779 0.105914 0.197272
O O1 0.736920 0.736920 0.942902
O O2 0.842741 0.617663 0.908592
O O3 0.900145 0.760139 0.941871
O O4 0.834291 0.653678 0.000000
O O5 0.870228 0.489188 0.852874
O O6 0.872095 0.660600 0.823295
O O7 0.992996 0.596529 0.869876
O O8 0.117961 0.285747 0.500000
O O9 0.223021 0.223021 0.439701
O O10 0.126957 0.359628 0.417157
O O11 0.058624 0.205283 0.428135
O O12 0.119365 0.319339 0.332895
O O13 0.015617 0.853553 0.500000
O O14 0.077327 0.922674 0.426502
O O15 0.151792 0.151792 0.679199
O O16 0.102665 0.245846 0.747318
O O17 0.990689 0.219406 0.682184
O O18 0.176037 0.176037 0.181606
#
# Coordination Sequence:
#
# PCOD9567050 Si02
#       7
#    16  16  16  16  16  16  16
#     4   9  16  27  44  64  89 119 149 190 239 276
#     4  10  19  30  46  66  89 122 160 199 234 269
#     4  10  19  30  43  60  88 124 162 202 234 270
#     4  10  20  31  44  63  90 125 163 196 230 273
#     4   8  14  25  40  58  82 115 155 195 232 266
#     4   9  18  33  50  69  97 128 155 187 227 272
#     4   9  18  32  51  73  95 121 155 194 231 270
#
# _framework density 15.997528000000001
#
# number of rings (size 3 to 8) (size 9 to 14) (size 15 to 20)
#    0.000    2.714    1.429    1.714    0.000    1.714 
#    0.000    7.143    0.000    1.714    0.000    0.000 
#    0.000    9.143    0.000   25.143    0.000    0.571 
#
# Total GULP energy -624098.302394 kJ/mol
# GULP energy per Si atom -5572.306271 kJ/mol
# Density = 1.596112 g / cm^3
# Si number density = 15.997528 Si / 1000 Ang^3
#
#
#
# Elastic Constant Matrix: (Units=GPa)
#
#
# Indices 1 2 3 4 5 6 
#
# 1 77.1749 43.8765 29.0476 0.0000 0.0000 0.0000
# 2 43.8765 77.1749 29.0476 0.0000 0.0000 0.0000
# 3 29.0476 29.0476 41.9397 0.0000 0.0000 0.0000
# 4 0.0000 0.0000 0.0000 17.6239 0.0000 0.0000
# 5 0.0000 0.0000 0.0000 0.0000 17.6239 0.0000
# 6 0.0000 0.0000 0.0000 0.0000 0.0000 10.7531
#
#
#
# Elastic Compliance Matrix: (Units=1/GPa)
#
#
# Indices 1 2 3 4 5 6 
#
# 1 0.021203 -0.008829 -0.008570 0.000000 0.000000 0.000000
# 2 -0.008829 0.021203 -0.008570 0.000000 0.000000 0.000000
# 3 -0.008570 -0.008570 0.035715 0.000000 0.000000 0.000000
# 4 0.000000 0.000000 0.000000 0.056741 0.000000 0.000000
# 5 0.000000 0.000000 0.000000 0.000000 0.056741 0.000000
# 6 0.000000 0.000000 0.000000 0.000000 0.000000 0.092996
#
#
# Mechanical properties :
#
#
# Convention : Reuss Voigt Hill
#
# Bulk Modulus (GPa) = 38.19382 44.47032 41.33207
# Shear Modulus (GPa) = 14.48162 15.48805 14.98484
#
# Velocity S-wave (km/s) = 3.01199 3.11489 3.06387
# Velocity P-wave (km/s) = 6.00189 6.38712 6.19750
#
# Compressibility (1/GPa) = 0.02618225
#
# Stress axis : x y z
#
# Youngs Moduli (GPa) = 47.16366 47.16366 27.99917
#
# Poissons Ratio (x) = 0.41640 0.23996
# Poissons Ratio (y) = 0.41640 0.23996
# Poissons Ratio (z) = 0.40421 0.40421
#
# Static dielectric constant tensor:
#      x y z
#    x 1.531870 0.000000 0.000000 
#    y 0.000000 1.531870 0.000000 
#    z 0.000000 0.000000 1.577540 
# 
# From -- ./inp_files/11044.got.cif
#   From: 2010.05.17/outbox.cif.g08.bks.cpg/sg132_6_cif.got.tgz:11044.got - 2010.05.20 12:30:18.
