data_PCOD9567138
_publ_section_title
;
Structure prediction by ZEFSAII (Michael W. Deem and Ramdas Pophale) SiO2 
 PCOD9567138
Probable space group: P 42/M C M
;
_chemical_formula_sum "Si O2"
_cell_formula_units_Z 120
_cell_length_a 20.678120
_cell_length_b 20.678120
_cell_length_c 14.465502
_cell_angle_alpha 90.000000
_cell_angle_beta 90.000000
_cell_angle_gamma 90.000000
_cell_volume 6185.226563
_symmetry_space_group_name_H-M "P 42/M C M"
_symmetry_group_IT_number 132
_symmetry_cell_setting 'tetragonal'
loop_
_space_group_symop_operation_xyz
x,y,z
-y,x,1/2+z
-x,-y,z
y,-x,1/2+z
x,-y,1/2-z
-x,y,1/2-z
y,x,-z
-y,-x,-z
-x,-y,-z
y,-x,1/2-z
x,y,-z
-y,x,1/2-z
-x,y,1/2+z
x,-y,1/2+z
-y,-x,z
y,x,z
loop_
_atom_site_type_symbol
_atom_site_label
_atom_site_fract_x
_atom_site_fract_y
_atom_site_fract_z
Si Si1 0.444906 0.444906 0.102393
Si Si2 0.189008 0.705850 0.107583
Si Si3 0.351878 0.450998 0.613185
Si Si4 0.234909 0.474499 0.110814
Si Si5 0.642116 0.089199 0.605835
Si Si6 0.338773 0.769693 0.699638
Si Si7 0.049711 0.346202 0.392184
Si Si8 0.089320 0.505798 0.854678
O O1 0.500000 0.500000 0.092083
O O2 0.484409 0.388288 0.147275
O O3 0.423402 0.423402 0.000000
O O4 0.222969 0.777032 0.111354
O O5 0.224117 0.666812 0.189459
O O6 0.112994 0.696363 0.131260
O O7 0.198108 0.683342 0.000000
O O8 0.358063 0.451468 0.500000
O O9 0.387595 0.387595 0.647187
O O10 0.279887 0.465708 0.634789
O O11 0.253872 0.407640 0.160181
O O12 0.165705 0.500246 0.138773
O O13 0.236116 0.462733 0.000000
O O14 0.662960 0.100035 0.500000
O O15 0.659939 0.155337 0.660081
O O16 0.564302 0.073683 0.601519
O O17 0.667618 0.021739 0.648670
O O18 0.279309 0.720692 0.671840
O O19 0.039289 0.333884 0.500000
O O20 0.068309 0.422691 0.384921
O O21 0.068261 0.500000 0.750000
#
# Coordination Sequence:
#
# PCOD9567138 Si02
#       8
#     8  16  16  16  16  16  16  16
#     4   7  10  18  34  58  86 110 139 187 241 293
#     4   9  19  36  55  76 103 135 175 220 259 298
#     4   8  14  25  42  66  95 125 161 207 258 312
#     4  10  20  32  48  71 102 137 173 210 258 322
#     4  10  21  35  52  80 112 140 172 209 253 313
#     4  10  20  33  51  76 107 142 175 209 253 308
#     4  10  19  33  55  77 102 138 176 215 261 305
#     4  11  21  32  47  69 101 141 181 219 256 299
#
# _framework density 19.401067999999999
#
# number of rings (size 3 to 8) (size 9 to 14) (size 15 to 20)
#    0.000    2.467    0.000    5.200    0.933    4.800 
#    0.000    0.667    0.000    6.400    0.000    0.000 
#    0.000    1.067    0.000   11.467    0.000   13.467 
#
# Total GULP energy -668027.200401 kJ/mol
# GULP energy per Si atom -5566.893337 kJ/mol
# Density = 1.935691 g / cm^3
# Si number density = 19.401068 Si / 1000 Ang^3
#
#
#
# Elastic Constant Matrix: (Units=GPa)
#
#
# Indices 1 2 3 4 5 6 
#
# 1 106.7238 87.3955 27.6892 0.0000 0.0000 0.0000
# 2 87.3955 106.7238 27.6892 0.0000 0.0000 0.0000
# 3 27.6892 27.6892 91.4752 0.0000 0.0000 0.0000
# 4 0.0000 0.0000 0.0000 11.2802 0.0000 0.0000
# 5 0.0000 0.0000 0.0000 0.0000 11.2802 0.0000
# 6 0.0000 0.0000 0.0000 0.0000 0.0000 844.7586
#
#
#
# Elastic Compliance Matrix: (Units=1/GPa)
#
#
# Indices 1 2 3 4 5 6 
#
# 1 0.028688 -0.023050 -0.001707 0.000000 0.000000 0.000000
# 2 -0.023050 0.028688 -0.001707 0.000000 0.000000 0.000000
# 3 -0.001707 -0.001707 0.011965 0.000000 0.000000 0.000000
# 4 0.000000 0.000000 0.000000 0.088651 0.000000 0.000000
# 5 0.000000 0.000000 0.000000 0.000000 0.088651 0.000000
# 6 0.000000 0.000000 0.000000 0.000000 0.000000 0.001184
#
#
# Mechanical properties :
#
#
# Convention : Reuss Voigt Hill
#
# Bulk Modulus (GPa) = 60.91973 65.60783 63.26378
# Shear Modulus (GPa) = 16.32787 184.27372 100.30080
#
# Velocity S-wave (km/s) = 2.90418 9.75640 7.19797
# Velocity P-wave (km/s) = 6.53560 12.68095 10.08763
#
# Compressibility (1/GPa) = 0.01641504
#
# Stress axis : x y z
#
# Youngs Moduli (GPa) = 34.85786 34.85786 83.57600
#
# Poissons Ratio (x) = 0.80346 0.14264
# Poissons Ratio (y) = 0.80346 0.14264
# Poissons Ratio (z) = 0.05949 0.05949
#
# Static dielectric constant tensor:
#      x y z
#    x 1.677410 0.000000 0.000000 
#    y 0.000000 1.677410 0.000000 
#    z 0.000000 0.000000 1.777800 
# 
# From -- ./inp_files/5142.got.cif
#   From: 2010.05.17/outbox.cif.g08.bks.cpg/sg132_3_cif.got.tgz:5142.got - 2010.05.20 12:30:18.
