data_PCOD9567059
_publ_section_title
;
Structure prediction by ZEFSAII (Michael W. Deem and Ramdas Pophale) SiO2 
 PCOD9567059
Probable space group: P 42/M C M
;
_chemical_formula_sum "Si O2"
_cell_formula_units_Z 96
_cell_length_a 13.939153
_cell_length_b 13.939153
_cell_length_c 23.045802
_cell_angle_alpha 90.000000
_cell_angle_beta 90.000000
_cell_angle_gamma 90.000000
_cell_volume 4477.799014
_symmetry_space_group_name_H-M "P 42/M C M"
_symmetry_group_IT_number 132
_symmetry_cell_setting 'tetragonal'
loop_
_space_group_symop_operation_xyz
x,y,z
-y,x,1/2+z
-x,-y,z
y,-x,1/2+z
x,-y,1/2-z
-x,y,1/2-z
y,x,-z
-y,-x,-z
-x,-y,-z
y,-x,1/2-z
x,y,-z
-y,x,1/2-z
-x,y,1/2+z
x,-y,1/2+z
-y,-x,z
y,x,z
loop_
_atom_site_type_symbol
_atom_site_label
_atom_site_fract_x
_atom_site_fract_y
_atom_site_fract_z
Si Si1 0.414105 0.259901 0.823968
Si Si2 0.579660 0.861444 0.065456
Si Si3 0.630451 0.789286 0.699875
Si Si4 0.627632 0.917648 0.405961
Si Si5 0.157993 0.003425 0.688927
Si Si6 0.026813 0.816845 0.937916
O O1 0.362174 0.362174 0.818975
O O2 0.387849 0.210466 0.884566
O O3 0.375475 0.198087 0.769164
O O4 0.529084 0.260971 0.817025
O O5 0.463482 0.863294 0.068026
O O6 0.608304 0.969926 0.082794
O O7 0.611237 0.840719 0.000000
O O8 0.718794 0.718794 0.686742
O O9 0.635540 0.884389 0.660861
O O10 0.728962 0.898650 0.435742
O O11 0.108610 0.108610 0.682965
O O12 0.195260 0.977324 0.624806
O O13 0.214608 0.000000 0.750000
O O14 0.072957 0.927044 0.698680
O O15 0.082487 0.917514 0.937266
O O16 0.974328 0.810738 0.000000
#
# Coordination Sequence:
#
# PCOD9567059 Si02
#       6
#    16  16  16  16  16  16
#     4   9  19  35  55  83 115 145 183 228 276 334
#     4  10  20  35  56  77 102 145 187 220 265 320
#     4   9  18  34  57  84 113 144 180 229 285 335
#     4  10  19  34  54  74 104 137 180 225 265 320
#     4   8  15  30  48  64  89 126 165 202 247 309
#     4  10  19  30  48  74 100 126 163 216 271 318
#
# _framework density 21.439105000000001
#
# number of rings (size 3 to 8) (size 9 to 14) (size 15 to 20)
#    0.000    2.667    0.000    3.000    0.000    1.667 
#    3.000    7.500    0.000    7.500    0.000    4.667 
#    0.000    0.000    0.000    0.000    0.000    0.000 
#
# Total GULP energy -534744.923044 kJ/mol
# GULP energy per Si atom -5570.259615 kJ/mol
# Density = 2.139031 g / cm^3
# Si number density = 21.439105 Si / 1000 Ang^3
#
#
#
# Elastic Constant Matrix: (Units=GPa)
#
#
# Indices 1 2 3 4 5 6 
#
# 1 37.8991 13.0132 33.2091 0.0000 0.0000 0.0000
# 2 13.0132 37.8991 33.2091 0.0000 0.0000 0.0000
# 3 33.2091 33.2091 240.8963 0.0000 0.0000 0.0000
# 4 0.0000 0.0000 0.0000 14.2244 0.0000 0.0000
# 5 0.0000 0.0000 0.0000 0.0000 14.2244 0.0000
# 6 0.0000 0.0000 0.0000 0.0000 0.0000 19.2372
#
#
#
# Elastic Compliance Matrix: (Units=1/GPa)
#
#
# Indices 1 2 3 4 5 6 
#
# 1 0.032066 -0.008117 -0.003301 0.000000 0.000000 0.000000
# 2 -0.008117 0.032066 -0.003301 0.000000 0.000000 0.000000
# 3 -0.003301 -0.003301 0.005061 0.000000 0.000000 0.000000
# 4 0.000000 0.000000 0.000000 0.070302 0.000000 0.000000
# 5 0.000000 0.000000 0.000000 0.000000 0.070302 0.000000
# 6 0.000000 0.000000 0.000000 0.000000 0.000000 0.051983
#
#
# Mechanical properties :
#
#
# Convention : Reuss Voigt Hill
#
# Bulk Modulus (GPa) = 25.15554 52.83973 38.99764
# Shear Modulus (GPa) = 16.42194 25.35475 20.88834
#
# Velocity S-wave (km/s) = 2.77064 3.44268 3.12478
# Velocity P-wave (km/s) = 4.68980 6.36417 5.59003
#
# Compressibility (1/GPa) = 0.03975267
#
# Stress axis : x y z
#
# Youngs Moduli (GPa) = 31.18569 31.18569 197.57300
#
# Poissons Ratio (x) = 0.25315 0.65228
# Poissons Ratio (y) = 0.25315 0.65228
# Poissons Ratio (z) = 0.10296 0.10296
#
# Static dielectric constant tensor:
#      x y z
#    x 1.799180 0.000000 0.000000 
#    y 0.000000 1.799180 0.000000 
#    z 0.000000 0.000000 1.860290 
# 
# From -- ./inp_files/7888.got.cif
#   From: 2010.05.17/outbox.cif.g08.bks.cpg/sg132_4_cif.got.tgz:7888.got - 2010.05.20 12:30:18.
