data_PCOD9567920
_publ_section_title
;
Structure prediction by ZEFSAII (Michael W. Deem and Ramdas Pophale) SiO2 
 PCOD9567920
Probable space group: P 42/N B C
;
_chemical_formula_sum "Si O2"
_cell_formula_units_Z 80
_cell_length_a 10.101739
_cell_length_b 10.101739
_cell_length_c 27.748973
_cell_angle_alpha 90.000000
_cell_angle_beta 90.000000
_cell_angle_gamma 90.000000
_cell_volume 2831.647580
_symmetry_space_group_name_H-M "P 42/N B C"
_symmetry_group_IT_number 133
_space_group.IT_coordinate_system_code '2'
_symmetry_cell_setting 'tetragonal'
loop_
_space_group_symop_operation_xyz
x,y,z
1/2-y,x,1/2+z
1/2-x,1/2-y,z
y,1/2-x,1/2+z
x,1/2-y,-z
1/2-x,y,-z
y,x,1/2-z
1/2-y,1/2-x,1/2-z
-x,-y,-z
1/2+y,-x,1/2-z
1/2+x,1/2+y,-z
-y,1/2+x,1/2-z
-x,1/2+y,z
1/2+x,-y,z
-y,-x,1/2+z
1/2+y,1/2+x,1/2+z
loop_
_atom_site_type_symbol
_atom_site_label
_atom_site_fract_x
_atom_site_fract_y
_atom_site_fract_z
Si Si1 0.244742 0.529811 0.249608
Si Si2 0.868281 0.885274 0.166931
Si Si3 0.996600 0.145159 0.458235
Si Si4 0.869645 0.323413 0.379300
Si Si5 0.548338 0.775053 0.933194
O O1 0.118821 0.627419 0.244913
O O2 0.204099 0.449938 0.296760
O O3 0.250805 0.435885 0.202075
O O4 0.876583 0.811167 0.116071
O O5 0.915809 0.030725 0.149634
O O6 0.959864 0.250000 0.500000
O O7 0.957327 0.215084 0.407345
O O8 0.909375 0.009128 0.458019
O O9 0.154859 0.125357 0.458226
O O10 0.750000 0.250000 0.351267
O O11 0.796172 0.411585 0.418260
#
# Coordination Sequence:
#
# PCOD9567920 Si02
#       5
#    16  16  16  16  16
#     4  10  24  42  76 112 162 215 266 337 411 510
#     4  11  23  44  72 119 152 214 272 329 418 497
#     4  11  27  53  82 118 162 216 273 349 433 507
#     4  10  24  45  80 113 155 213 263 338 416 500
#     4  11  24  50  83 115 164 211 274 346 415 517
#
# _framework density 28.252105
#
# number of rings (size 3 to 8) (size 9 to 14) (size 15 to 20)
#    0.000    1.400    2.000    1.200    8.400    5.200 
#    3.600    6.000    0.000    9.600    0.000    0.000 
#    0.000    0.000    0.000    0.000    0.000    0.000 
#
# Total GULP energy -447596.241798 kJ/mol
# GULP energy per Si atom -5594.953022 kJ/mol
# Density = 2.818780 g / cm^3
# Si number density = 28.252105 Si / 1000 Ang^3
#
#
#
# Elastic Constant Matrix: (Units=GPa)
#
#
# Indices 1 2 3 4 5 6 
#
# 1 136.0921 87.8927 66.5961 0.0000 0.0000 0.0000
# 2 87.8927 136.0921 66.5961 0.0000 0.0000 0.0000
# 3 66.5961 66.5961 181.9494 0.0000 0.0000 0.0000
# 4 0.0000 0.0000 0.0000 19.3915 0.0000 0.0000
# 5 0.0000 0.0000 0.0000 0.0000 19.3915 0.0000
# 6 0.0000 0.0000 0.0000 0.0000 0.0000 66.3554
#
#
#
# Elastic Compliance Matrix: (Units=1/GPa)
#
#
# Indices 1 2 3 4 5 6 
#
# 1 0.013227 -0.007520 -0.002089 0.000000 0.000000 0.000000
# 2 -0.007520 0.013227 -0.002089 0.000000 0.000000 0.000000
# 3 -0.002089 -0.002089 0.007025 0.000000 0.000000 0.000000
# 4 0.000000 0.000000 0.000000 0.051569 0.000000 0.000000
# 5 0.000000 0.000000 0.000000 0.000000 0.051569 0.000000
# 6 0.000000 0.000000 0.000000 0.000000 0.000000 0.015070
#
#
# Mechanical properties :
#
#
# Convention : Reuss Voigt Hill
#
# Bulk Modulus (GPa) = 99.17229 99.58924 99.38077
# Shear Modulus (GPa) = 28.02003 36.56426 32.29215
#
# Velocity S-wave (km/s) = 3.15268 3.60142 3.38450
# Velocity P-wave (km/s) = 6.95926 7.25399 7.10815
#
# Compressibility (1/GPa) = 0.01008346
#
# Stress axis : x y z
#
# Youngs Moduli (GPa) = 75.60362 75.60362 142.34819
#
# Poissons Ratio (x) = 0.56856 0.29732
# Poissons Ratio (y) = 0.56856 0.29732
# Poissons Ratio (z) = 0.15791 0.15791
#
# Static dielectric constant tensor:
#      x y z
#    x 2.224080 0.000000 0.000000 
#    y 0.000000 2.224080 0.000000 
#    z 0.000000 0.000000 2.294330 
# 
# From -- ./inp_files/7893.got.cif
#   From: 2010.05.17/outbox.cif.g08.bks.cpg/sg133_4_cif.got.tgz:7893.got - 2010.05.20 12:37:36.
