data_PCOD9567534
_publ_section_title
;
Structure prediction by ZEFSAII (Michael W. Deem and Ramdas Pophale) SiO2 
 PCOD9567534
Probable space group: P 42/M C M
;
_chemical_formula_sum "Si O2"
_cell_formula_units_Z 48
_cell_length_a 12.691988
_cell_length_b 12.691988
_cell_length_c 14.122307
_cell_angle_alpha 90.000000
_cell_angle_beta 90.000000
_cell_angle_gamma 90.000000
_cell_volume 2274.913845
_symmetry_space_group_name_H-M "P 42/M C M"
_symmetry_group_IT_number 132
_symmetry_cell_setting 'tetragonal'
loop_
_space_group_symop_operation_xyz
x,y,z
-y,x,1/2+z
-x,-y,z
y,-x,1/2+z
x,-y,1/2-z
-x,y,1/2-z
y,x,-z
-y,-x,-z
-x,-y,-z
y,-x,1/2-z
x,y,-z
-y,x,1/2-z
-x,y,1/2+z
x,-y,1/2+z
-y,-x,z
y,x,z
loop_
_atom_site_type_symbol
_atom_site_label
_atom_site_fract_x
_atom_site_fract_y
_atom_site_fract_z
Si Si1 0.961665 0.673789 0.614694
Si Si2 0.912139 0.912139 0.384216
Si Si3 0.539053 0.161153 0.613294
Si Si4 0.500000 0.337874 0.750000
O O1 0.962089 0.678331 0.500000
O O2 0.939100 0.792495 0.647232
O O3 0.880848 0.579055 0.637426
O O4 0.074386 0.625400 0.642724
O O5 0.911563 0.911563 0.500000
O O6 0.000000 0.000000 0.357567
O O7 0.544847 0.172719 0.500000
O O8 0.552379 0.266728 0.670448
O O9 0.412292 0.412292 0.704555
#
# Coordination Sequence:
#
# PCOD9567534 Si02
#       4
#    16   8  16   8
#     4   8  16  31  55  88 115 147 199 235 278 355
#     4   9  16  26  46  84 127 151 176 235 297 353
#     4   9  19  38  62  84 111 154 200 243 290 349
#     4  11  26  41  54  84 116 147 202 257 304 350
#
# _framework density 21.099699999999999
#
# number of rings (size 3 to 8) (size 9 to 14) (size 15 to 20)
#    0.000    3.000    0.000    2.000    2.333    5.333 
#    0.000    5.000    0.000    0.000    0.000    0.000 
#    0.000    0.000    0.000    0.000    0.000    0.000 
#
# Total GULP energy -267853.554899 kJ/mol
# GULP energy per Si atom -5580.282394 kJ/mol
# Density = 2.105168 g / cm^3
# Si number density = 21.099700 Si / 1000 Ang^3
#
#
#
# Elastic Constant Matrix: (Units=GPa)
#
#
# Indices 1 2 3 4 5 6 
#
# 1 143.4785 81.6542 15.2082 0.0000 0.0000 0.0000
# 2 81.6542 143.4785 15.2082 0.0000 0.0000 0.0000
# 3 15.2082 15.2082 58.8700 0.0000 0.0000 0.0000
# 4 0.0000 0.0000 0.0000 21.2435 0.0000 0.0000
# 5 0.0000 0.0000 0.0000 0.0000 21.2435 0.0000
# 6 0.0000 0.0000 0.0000 0.0000 0.0000 12.1060
#
#
#
# Elastic Compliance Matrix: (Units=1/GPa)
#
#
# Indices 1 2 3 4 5 6 
#
# 1 0.010389 -0.005786 -0.001189 0.000000 0.000000 0.000000
# 2 -0.005786 0.010389 -0.001189 0.000000 0.000000 0.000000
# 3 -0.001189 -0.001189 0.017601 0.000000 0.000000 0.000000
# 4 0.000000 0.000000 0.000000 0.047073 0.000000 0.000000
# 5 0.000000 0.000000 0.000000 0.000000 0.047073 0.000000
# 6 0.000000 0.000000 0.000000 0.000000 0.000000 0.082603
#
#
# Mechanical properties :
#
#
# Convention : Reuss Voigt Hill
#
# Bulk Modulus (GPa) = 45.35165 63.32978 54.34071
# Shear Modulus (GPa) = 20.93746 26.50237 23.71991
#
# Velocity S-wave (km/s) = 3.15351 3.54793 3.35652
# Velocity P-wave (km/s) = 5.89917 6.84569 6.38998
#
# Compressibility (1/GPa) = 0.02204992
#
# Stress axis : x y z
#
# Youngs Moduli (GPa) = 96.25882 96.25882 56.81528
#
# Poissons Ratio (x) = 0.55697 0.06755
# Poissons Ratio (y) = 0.55697 0.06755
# Poissons Ratio (z) = 0.11445 0.11445
#
# Static dielectric constant tensor:
#      x y z
#    x 1.760710 0.000000 0.000000 
#    y 0.000000 1.760710 0.000000 
#    z 0.000000 0.000000 1.764450 
# 
# From -- ./inp_files/5747.got.cif
#   From: 2010.05.17/outbox.cif.g08.bks.cpg/sg132_3_cif.got.tgz:5747.got - 2010.05.20 12:30:18.
