data_PCOD9567648
_publ_section_title
;
Structure prediction by ZEFSAII (Michael W. Deem and Ramdas Pophale) SiO2 
 PCOD9567648
Probable space group: P 42/N B C
;
_chemical_formula_sum "Si O2"
_cell_formula_units_Z 120
_cell_length_a 21.297556
_cell_length_b 21.297556
_cell_length_c 15.545769
_cell_angle_alpha 90.000000
_cell_angle_beta 90.000000
_cell_angle_gamma 90.000000
_cell_volume 7051.341492
_symmetry_space_group_name_H-M "P 42/N B C"
_symmetry_group_IT_number 133
_space_group.IT_coordinate_system_code '2'
_symmetry_cell_setting 'tetragonal'
loop_
_space_group_symop_operation_xyz
x,y,z
1/2-y,x,1/2+z
1/2-x,1/2-y,z
y,1/2-x,1/2+z
x,1/2-y,-z
1/2-x,y,-z
y,x,1/2-z
1/2-y,1/2-x,1/2-z
-x,-y,-z
1/2+y,-x,1/2-z
1/2+x,1/2+y,-z
-y,1/2+x,1/2-z
-x,1/2+y,z
1/2+x,-y,z
-y,-x,1/2+z
1/2+y,1/2+x,1/2+z
loop_
_atom_site_type_symbol
_atom_site_label
_atom_site_fract_x
_atom_site_fract_y
_atom_site_fract_z
Si Si1 0.915207 0.008768 0.918055
Si Si2 0.684003 0.815998 0.750000
Si Si3 0.290353 0.029897 0.585167
Si Si4 0.030611 0.923708 0.244239
Si Si5 0.287045 0.069232 0.911339
Si Si6 0.961645 0.420677 0.922689
Si Si7 0.714266 0.822984 0.407555
Si Si8 0.036011 0.208748 0.745449
O O1 0.926636 0.051240 0.833701
O O2 0.855204 0.963293 0.916598
O O3 0.918526 0.054709 0.999975
O O4 0.975818 0.963652 0.923968
O O5 0.689334 0.765261 0.830202
O O6 0.690961 0.890367 0.765961
O O7 0.250000 0.020790 0.500000
O O8 0.305177 0.104043 0.590132
O O9 0.251827 0.020875 0.672583
O O10 0.350418 0.986579 0.574487
O O11 0.067904 0.928723 0.332502
O O12 0.002778 0.854317 0.239487
O O13 0.971837 0.971837 0.250000
O O14 0.291047 0.145499 0.894032
O O15 0.249744 0.029060 0.840191
O O16 0.250000 0.064138 0.000000
O O17 0.750000 0.812491 0.500000
#
# Coordination Sequence:
#
# PCOD9567648 Si02
#       8
#    16   8  16  16  16  16  16  16
#     4  10  21  36  56  79 106 142 182 227 280 330
#     4  10  22  37  52  76 110 160 200 224 258 303
#     4  10  20  35  56  81 109 143 187 232 263 315
#     4  10  20  36  56  78 106 141 184 225 280 330
#     4  12  24  37  54  80 114 144 190 233 268 314
#     4  10  19  35  58  77 105 143 184 223 281 328
#     4  10  22  38  54  73 111 157 198 226 259 303
#     4  11  22  35  55  80 113 144 189 234 264 313
#
# _framework density 17.018038000000001
#
# number of rings (size 3 to 8) (size 9 to 14) (size 15 to 20)
#    0.000    1.600    2.000    3.200    0.000    4.533 
#    0.000    0.000    0.000    0.000    0.000    0.000 
#    0.000   56.000    0.000    0.000    0.000    0.000 
#
# Total GULP energy -668678.279469 kJ/mol
# GULP energy per Si atom -5572.318996 kJ/mol
# Density = 1.697930 g / cm^3
# Si number density = 17.018038 Si / 1000 Ang^3
#
#
#
# Elastic Constant Matrix: (Units=GPa)
#
#
# Indices 1 2 3 4 5 6 
#
# 1 84.4281 44.2161 43.3612 0.0000 0.0000 0.0000
# 2 44.2161 84.4284 43.3612 0.0000 0.0000 0.0000
# 3 43.3612 43.3612 139.6921 0.0000 0.0000 0.0000
# 4 0.0000 0.0000 0.0000 0.6022 0.0000 0.0000
# 5 0.0000 0.0000 0.0000 0.0000 0.6023 0.0000
# 6 0.0000 0.0000 0.0000 0.0000 0.0000 30.7268
#
#
#
# Elastic Compliance Matrix: (Units=1/GPa)
#
#
# Indices 1 2 3 4 5 6 
#
# 1 0.017349 -0.007519 -0.003051 0.000000 0.000000 0.000000
# 2 -0.007519 0.017349 -0.003051 0.000000 0.000000 0.000000
# 3 -0.003051 -0.003051 0.009053 0.000000 0.000000 0.000000
# 4 0.000000 0.000000 0.000000 1.660624 0.000000 0.000000
# 5 0.000000 0.000000 0.000000 0.000000 1.660211 0.000000
# 6 0.000000 0.000000 0.000000 0.000000 0.000000 0.032545
#
#
# Mechanical properties :
#
#
# Convention : Reuss Voigt Hill
#
# Bulk Modulus (GPa) = 60.57628 63.38062 61.97845
# Shear Modulus (GPa) = 1.45778 18.22693 9.84235
#
# Velocity S-wave (km/s) = 0.92654 3.27622 2.40750
# Velocity P-wave (km/s) = 6.06772 7.18579 6.65029
#
# Compressibility (1/GPa) = 0.01650811
#
# Stress axis : x y z
#
# Youngs Moduli (GPa) = 57.63922 57.63948 110.46121
#
# Poissons Ratio (x) = 0.43338 0.33706
# Poissons Ratio (y) = 0.43338 0.33706
# Poissons Ratio (z) = 0.17588 0.17588
#
# Static dielectric constant tensor:
#      x y z
#    x 1.557990 0.000000 0.000000 
#    y 0.000000 1.557990 0.000000 
#    z 0.000000 0.000000 1.599010 
# 
# From -- ./inp_files/4701.got.cif
#   From: 2010.05.17/outbox.cif.g08.bks.cpg/sg133_3_cif.got.tgz:4701.got - 2010.05.20 12:37:36.
