data_PCOD9567245
_publ_section_title
;
Structure prediction by ZEFSAII (Michael W. Deem and Ramdas Pophale) SiO2 
 PCOD9567245
Probable space group: P 42/M C M
;
_chemical_formula_sum "Si O2"
_cell_formula_units_Z 48
_cell_length_a 16.109588
_cell_length_b 16.109588
_cell_length_c 8.557339
_cell_angle_alpha 90.000000
_cell_angle_beta 90.000000
_cell_angle_gamma 90.000000
_cell_volume 2220.790567
_symmetry_space_group_name_H-M "P 42/M C M"
_symmetry_group_IT_number 132
_symmetry_cell_setting 'tetragonal'
loop_
_space_group_symop_operation_xyz
x,y,z
-y,x,1/2+z
-x,-y,z
y,-x,1/2+z
x,-y,1/2-z
-x,y,1/2-z
y,x,-z
-y,-x,-z
-x,-y,-z
y,-x,1/2-z
x,y,-z
-y,x,1/2-z
-x,y,1/2+z
x,-y,1/2+z
-y,-x,z
y,x,z
loop_
_atom_site_type_symbol
_atom_site_label
_atom_site_fract_x
_atom_site_fract_y
_atom_site_fract_z
Si Si1 0.724883 0.411846 0.187282
Si Si2 0.388716 0.910144 0.679939
Si Si3 0.213148 0.077826 0.679731
O O1 0.691057 0.500000 0.250000
O O2 0.666546 0.333455 0.238315
O O3 0.821670 0.409155 0.240590
O O4 0.724531 0.411837 0.000000
O O5 0.414186 0.906650 0.500000
O O6 0.290015 0.913074 0.705076
O O7 0.415190 0.000000 0.750000
O O8 0.240865 0.064372 0.500000
O O9 0.159168 0.159168 0.680708
O O10 0.163844 0.000000 0.750000
#
# Coordination Sequence:
#
# PCOD9567245 Si02
#       3
#    16  16  16
#     4  11  25  45  69  98 133 172 217 269 323 383
#     4  11  22  38  63  93 126 164 208 258 316 381
#     4  10  20  33  50  74 107 149 198 252 310 372
#
# _framework density 21.613924999999998
#
# number of rings (size 3 to 8) (size 9 to 14) (size 15 to 20)
#    0.000    1.333    0.000    8.000    0.000   10.667 
#    0.000    6.667    0.000    0.000    0.000    0.000 
#    0.000    0.000    0.000    0.000    0.000    0.000 
#
# Total GULP energy -267712.913812 kJ/mol
# GULP energy per Si atom -5577.352371 kJ/mol
# Density = 2.156473 g / cm^3
# Si number density = 21.613925 Si / 1000 Ang^3
#
#
#
# Elastic Constant Matrix: (Units=GPa)
#
#
# Indices 1 2 3 4 5 6 
#
# 1 122.3622 66.0715 39.4702 0.0000 0.0000 0.0000
# 2 66.0715 122.3622 39.4702 0.0000 0.0000 0.0000
# 3 39.4702 39.4702 96.9867 0.0000 0.0000 0.0000
# 4 0.0000 0.0000 0.0000 8.0862 0.0000 0.0000
# 5 0.0000 0.0000 0.0000 0.0000 8.0862 0.0000
# 6 0.0000 0.0000 0.0000 0.0000 0.0000 33.8994
#
#
#
# Elastic Compliance Matrix: (Units=1/GPa)
#
#
# Indices 1 2 3 4 5 6 
#
# 1 0.012081 -0.005684 -0.002604 0.000000 0.000000 0.000000
# 2 -0.005684 0.012081 -0.002604 0.000000 0.000000 0.000000
# 3 -0.002604 -0.002604 0.012430 0.000000 0.000000 0.000000
# 4 0.000000 0.000000 0.000000 0.123667 0.000000 0.000000
# 5 0.000000 0.000000 0.000000 0.000000 0.123667 0.000000
# 6 0.000000 0.000000 0.000000 0.000000 0.000000 0.029499
#
#
# Mechanical properties :
#
#
# Convention : Reuss Voigt Hill
#
# Bulk Modulus (GPa) = 67.51889 70.19276 68.85583
# Shear Modulus (GPa) = 14.69967 23.12766 18.91366
#
# Velocity S-wave (km/s) = 2.61071 3.27469 2.96136
# Velocity P-wave (km/s) = 6.35564 6.84429 6.60449
#
# Compressibility (1/GPa) = 0.01481067
#
# Stress axis : x y z
#
# Youngs Moduli (GPa) = 82.77265 82.77265 80.45148
#
# Poissons Ratio (x) = 0.47045 0.20946
# Poissons Ratio (y) = 0.47045 0.20946
# Poissons Ratio (z) = 0.21551 0.21551
#
# Static dielectric constant tensor:
#      x y z
#    x 1.852980 0.000000 0.000000 
#    y 0.000000 1.852980 0.000000 
#    z 0.000000 0.000000 1.793850 
# 
# From -- ./inp_files/744.got.cif
#   From: 2010.05.17/outbox.cif.g08.bks.cpg/sg132_1_cif.got.tgz:744.got - 2010.05.20 12:30:18.
