data_PCOD9567377
_publ_section_title
;
Structure prediction by ZEFSAII (Michael W. Deem and Ramdas Pophale) SiO2 
 PCOD9567377
Probable space group: P 42/M C M
;
_chemical_formula_sum "Si O2"
_cell_formula_units_Z 72
_cell_length_a 12.329727
_cell_length_b 12.329727
_cell_length_c 26.422272
_cell_angle_alpha 90.000000
_cell_angle_beta 90.000000
_cell_angle_gamma 90.000000
_cell_volume 4016.771070
_symmetry_space_group_name_H-M "P 42/M C M"
_symmetry_group_IT_number 132
_symmetry_cell_setting 'tetragonal'
loop_
_space_group_symop_operation_xyz
x,y,z
-y,x,1/2+z
-x,-y,z
y,-x,1/2+z
x,-y,1/2-z
-x,y,1/2-z
y,x,-z
-y,-x,-z
-x,-y,-z
y,-x,1/2-z
x,y,-z
-y,x,1/2-z
-x,y,1/2+z
x,-y,1/2+z
-y,-x,z
y,x,z
loop_
_atom_site_type_symbol
_atom_site_label
_atom_site_fract_x
_atom_site_fract_y
_atom_site_fract_z
Si Si1 0.589539 0.906206 0.943802
Si Si2 0.273697 0.096956 0.154772
Si Si3 0.678477 0.492856 0.091381
Si Si4 0.000000 0.817214 0.750000
Si Si5 0.444371 0.268761 0.199123
O O1 0.673827 0.931042 0.898940
O O2 0.530883 0.789815 0.934495
O O3 0.500000 0.000000 0.942203
O O4 0.639012 0.903930 0.000000
O O5 0.162893 0.162893 0.145427
O O6 0.358454 0.180849 0.179697
O O7 0.250648 0.008520 0.198091
O O8 0.613387 0.386614 0.072890
O O9 0.593334 0.593334 0.087725
O O10 0.706150 0.480370 0.151001
O O11 0.105048 0.894953 0.752087
O O12 0.500000 0.230433 0.250000
O O13 0.378005 0.378005 0.211197
#
# Coordination Sequence:
#
# PCOD9567377 Si02
#       5
#    16  16  16   8  16
#     4  10  21  36  52  73 104 140 175 212 258 311
#     4   9  19  34  51  73  98 129 171 212 256 312
#     4   9  18  32  51  76 103 134 176 220 260 307
#     4   9  18  34  55  76  98 124 161 216 272 317
#     4   9  16  26  42  67 101 135 163 197 247 308
#
# _framework density 17.924845999999999
#
# number of rings (size 3 to 8) (size 9 to 14) (size 15 to 20)
#    0.000    2.778    0.000    2.667    0.000    6.889 
#    0.000    4.444    0.000    2.000    0.000    3.111 
#    0.000    0.000    0.000    0.000    0.000    0.000 
#
# Total GULP energy -401092.128412 kJ/mol
# GULP energy per Si atom -5570.724006 kJ/mol
# Density = 1.788405 g / cm^3
# Si number density = 17.924846 Si / 1000 Ang^3
#
#
#
# Elastic Constant Matrix: (Units=GPa)
#
#
# Indices 1 2 3 4 5 6 
#
# 1 50.2996 14.0833 38.7744 0.0000 0.0000 0.0000
# 2 14.0833 50.2996 38.7744 0.0000 0.0000 0.0000
# 3 38.7744 38.7744 156.5415 0.0000 0.0000 0.0000
# 4 0.0000 0.0000 0.0000 29.4857 0.0000 0.0000
# 5 0.0000 0.0000 0.0000 0.0000 29.4857 0.0000
# 6 0.0000 0.0000 0.0000 0.0000 0.0000 5.5533
#
#
#
# Elastic Compliance Matrix: (Units=1/GPa)
#
#
# Indices 1 2 3 4 5 6 
#
# 1 0.024874 -0.002738 -0.005483 0.000000 0.000000 0.000000
# 2 -0.002738 0.024874 -0.005483 0.000000 0.000000 0.000000
# 3 -0.005483 -0.005483 0.009104 0.000000 0.000000 0.000000
# 4 0.000000 0.000000 0.000000 0.033915 0.000000 0.000000
# 5 0.000000 0.000000 0.000000 0.000000 0.033915 0.000000
# 6 0.000000 0.000000 0.000000 0.000000 0.000000 0.180072
#
#
# Mechanical properties :
#
#
# Convention : Reuss Voigt Hill
#
# Bulk Modulus (GPa) = 31.80167 48.93386 40.36777
# Shear Modulus (GPa) = 14.50774 23.93886 19.22330
#
# Velocity S-wave (km/s) = 2.84802 3.65843 3.27836
# Velocity P-wave (km/s) = 5.34744 6.72341 6.07451
#
# Compressibility (1/GPa) = 0.03144489
#
# Stress axis : x y z
#
# Youngs Moduli (GPa) = 40.20246 40.20246 109.83809
#
# Poissons Ratio (x) = 0.11006 0.60225
# Poissons Ratio (y) = 0.11006 0.60225
# Poissons Ratio (z) = 0.22043 0.22043
#
# Static dielectric constant tensor:
#      x y z
#    x 1.617250 0.000000 0.000000 
#    y 0.000000 1.617250 0.000000 
#    z 0.000000 0.000000 1.639640 
# 
# From -- ./inp_files/9743.got.cif
#   From: 2010.05.17/outbox.cif.g08.bks.cpg/sg132_5_cif.got.tgz:9743.got - 2010.05.20 12:30:18.
