data_PCOD9567794
_publ_section_title
;
Structure prediction by ZEFSAII (Michael W. Deem and Ramdas Pophale) SiO2 
 PCOD9567794
Probable space group: P 42/N B C
;
_chemical_formula_sum "Si O2"
_cell_formula_units_Z 72
_cell_length_a 24.258300
_cell_length_b 24.258300
_cell_length_c 5.133607
_cell_angle_alpha 90.000000
_cell_angle_beta 90.000000
_cell_angle_gamma 90.000000
_cell_volume 3020.948654
_symmetry_space_group_name_H-M "P 42/N B C"
_symmetry_group_IT_number 133
_space_group.IT_coordinate_system_code '2'
_symmetry_cell_setting 'tetragonal'
loop_
_space_group_symop_operation_xyz
x,y,z
1/2-y,x,1/2+z
1/2-x,1/2-y,z
y,1/2-x,1/2+z
x,1/2-y,-z
1/2-x,y,-z
y,x,1/2-z
1/2-y,1/2-x,1/2-z
-x,-y,-z
1/2+y,-x,1/2-z
1/2+x,1/2+y,-z
-y,1/2+x,1/2-z
-x,1/2+y,z
1/2+x,-y,z
-y,-x,1/2+z
1/2+y,1/2+x,1/2+z
loop_
_atom_site_type_symbol
_atom_site_label
_atom_site_fract_x
_atom_site_fract_y
_atom_site_fract_z
Si Si1 0.250000 0.547968 0.500000
Si Si2 0.143546 0.811702 0.520686
Si Si3 0.956958 0.594144 0.011575
Si Si4 0.450897 0.858037 0.733629
Si Si5 0.460141 0.302657 0.374141
O O1 0.307025 0.573878 0.595603
O O2 0.229121 0.508091 0.724547
O O3 0.120445 0.750000 0.500000
O O4 0.175318 0.815553 0.788463
O O5 0.094560 0.857537 0.494580
O O6 0.948243 0.551758 0.250000
O O7 0.939306 0.652434 0.158015
O O8 0.923273 0.576728 0.750000
O O9 0.021201 0.598118 0.925678
O O10 0.507645 0.837350 0.593391
O O11 0.426930 0.250000 0.500000
#
# Coordination Sequence:
#
# PCOD9567794 Si02
#       5
#     8  16  16  16  16
#     4   8  16  28  58  86 119 156 217 266 320 390
#     4  12  29  47  73 100 133 174 226 282 345 420
#     4  11  21  35  58  95 135 178 227 283 343 395
#     4  10  21  38  65  90 131 170 230 274 345 400
#     4   9  17  32  55  88 125 174 223 273 329 390
#
# _framework density 23.833573999999999
#
# number of rings (size 3 to 8) (size 9 to 14) (size 15 to 20)
#    0.000    1.778    2.222    2.667    9.333    1.333 
#    0.000    0.000    0.000    4.000    0.000    0.000 
#    0.000    0.000    0.000  120.000   35.111    1.333 
#
# Total GULP energy -400916.829842 kJ/mol
# GULP energy per Si atom -5568.289303 kJ/mol
# Density = 2.377933 g / cm^3
# Si number density = 23.833574 Si / 1000 Ang^3
#
#
#
# Elastic Constant Matrix: (Units=GPa)
#
#
# Indices 1 2 3 4 5 6 
#
# 1 79.6246 40.9341 35.2079 0.0000 0.0000 0.0000
# 2 40.9341 79.6263 35.2083 0.0000 0.0000 0.0000
# 3 35.2079 35.2083 150.9894 0.0000 0.0000 0.0000
# 4 0.0000 0.0000 0.0000 37.2431 0.0000 0.0000
# 5 0.0000 0.0000 0.0000 0.0000 37.2430 0.0000
# 6 0.0000 0.0000 0.0000 0.0000 0.0000 17.5444
#
#
#
# Elastic Compliance Matrix: (Units=1/GPa)
#
#
# Indices 1 2 3 4 5 6 
#
# 1 0.017724 -0.008122 -0.002239 0.000000 0.000000 0.000000
# 2 -0.008122 0.017724 -0.002239 0.000000 0.000000 0.000000
# 3 -0.002239 -0.002239 0.007667 0.000000 0.000000 0.000000
# 4 0.000000 0.000000 0.000000 0.026851 0.000000 0.000000
# 5 0.000000 0.000000 0.000000 0.000000 0.026851 0.000000
# 6 0.000000 0.000000 0.000000 0.000000 0.000000 0.056998
#
#
# Mechanical properties :
#
#
# Convention : Reuss Voigt Hill
#
# Bulk Modulus (GPa) = 55.81704 59.21565 57.51635
# Shear Modulus (GPa) = 27.02902 31.66543 29.34722
#
# Velocity S-wave (km/s) = 3.37125 3.64896 3.51285
# Velocity P-wave (km/s) = 6.21483 6.53090 6.37482
#
# Compressibility (1/GPa) = 0.01791568
#
# Stress axis : x y z
#
# Youngs Moduli (GPa) = 56.41999 56.42119 130.42512
#
# Poissons Ratio (x) = 0.45823 0.29204
# Poissons Ratio (y) = 0.45822 0.29204
# Poissons Ratio (z) = 0.12633 0.12633
#
# Static dielectric constant tensor:
#      x y z
#    x 2.033280 0.000000 0.000000 
#    y 0.000000 2.033270 0.000000 
#    z 0.000000 0.000000 2.116280 
# 
# From -- ./inp_files/431.got.cif
#   From: 2010.05.17/outbox.cif.g08.bks.cpg/sg133_1_cif.got.tgz:431.got - 2010.05.20 12:37:36.
