data_PCOD9567015
_publ_section_title
;
Structure prediction by ZEFSAII (Michael W. Deem and Ramdas Pophale) SiO2 
 PCOD9567015
Probable space group: P 42/M C M
;
_chemical_formula_sum "Si O2"
_cell_formula_units_Z 72
_cell_length_a 11.372339
_cell_length_b 11.372339
_cell_length_c 29.475370
_cell_angle_alpha 90.000000
_cell_angle_beta 90.000000
_cell_angle_gamma 90.000000
_cell_volume 3812.052383
_symmetry_space_group_name_H-M "P 42/M C M"
_symmetry_group_IT_number 132
_symmetry_cell_setting 'tetragonal'
loop_
_space_group_symop_operation_xyz
x,y,z
-y,x,1/2+z
-x,-y,z
y,-x,1/2+z
x,-y,1/2-z
-x,y,1/2-z
y,x,-z
-y,-x,-z
-x,-y,-z
y,-x,1/2-z
x,y,-z
-y,x,1/2-z
-x,y,1/2+z
x,-y,1/2+z
-y,-x,z
y,x,z
loop_
_atom_site_type_symbol
_atom_site_label
_atom_site_fract_x
_atom_site_fract_y
_atom_site_fract_z
Si Si1 0.904343 0.904343 0.859015
Si Si2 0.747682 0.747682 0.075735
Si Si3 0.486706 0.860231 0.549044
Si Si4 0.220710 0.582150 0.853560
Si Si5 0.597865 0.402136 0.647466
Si Si6 0.262177 0.936003 0.203525
O O1 0.833370 0.833370 0.896746
O O2 0.975273 0.811754 0.828108
O O3 0.000000 0.000000 0.876178
O O4 0.823915 0.650279 0.050191
O O5 0.666463 0.666463 0.108288
O O6 0.535362 0.817858 0.500000
O O7 0.544659 0.812721 0.595352
O O8 0.500000 0.000000 0.550399
O O9 0.306637 0.693364 0.857506
O O10 0.298304 0.478670 0.830228
O O11 0.111964 0.625963 0.823949
O O12 0.500000 0.500000 0.632499
O O13 0.173039 0.826962 0.213468
O O14 0.292957 0.000000 0.250000
#
# Coordination Sequence:
#
# PCOD9567015 Si02
#       6
#     8   8  16  16   8  16
#     4  10  20  31  53  83 116 150 183 240 293 344
#     4  10  19  34  56  80 108 152 198 231 294 349
#     4  10  20  34  53  77 111 148 192 241 285 343
#     4   9  18  32  54  83 111 149 187 232 290 340
#     4   8  16  33  55  79 106 146 188 232 278 333
#     4  10  18  31  53  86 118 149 187 232 286 353
#
# _framework density 18.887461999999999
#
# number of rings (size 3 to 8) (size 9 to 14) (size 15 to 20)
#    0.000    2.444    1.111    1.667    0.000    0.444 
#    0.000    0.000    0.000   26.000    2.889    0.000 
#    0.000    0.000    0.000    0.000    0.000    0.000 
#
# Total GULP energy -400941.068211 kJ/mol
# GULP energy per Si atom -5568.625947 kJ/mol
# Density = 1.884447 g / cm^3
# Si number density = 18.887462 Si / 1000 Ang^3
#
#
#
# Elastic Constant Matrix: (Units=GPa)
#
#
# Indices 1 2 3 4 5 6 
#
# 1 91.1962 54.5136 47.5454 0.0000 0.0000 0.0000
# 2 54.5136 91.1962 47.5454 0.0000 0.0000 0.0000
# 3 47.5454 47.5454 102.4386 0.0000 0.0000 0.0000
# 4 0.0000 0.0000 0.0000 17.2454 0.0000 0.0000
# 5 0.0000 0.0000 0.0000 0.0000 17.2454 0.0000
# 6 0.0000 0.0000 0.0000 0.0000 0.0000 30.6848
#
#
#
# Elastic Compliance Matrix: (Units=1/GPa)
#
#
# Indices 1 2 3 4 5 6 
#
# 1 0.018553 -0.008708 -0.004569 0.000000 0.000000 0.000000
# 2 -0.008708 0.018553 -0.004569 0.000000 0.000000 0.000000
# 3 -0.004569 -0.004569 0.014004 0.000000 0.000000 0.000000
# 4 0.000000 0.000000 0.000000 0.057986 0.000000 0.000000
# 5 0.000000 0.000000 0.000000 0.000000 0.057986 0.000000
# 6 0.000000 0.000000 0.000000 0.000000 0.000000 0.032589
#
#
# Mechanical properties :
#
#
# Convention : Reuss Voigt Hill
#
# Bulk Modulus (GPa) = 64.86802 64.89333 64.88067
# Shear Modulus (GPa) = 20.78968 22.05023 21.41995
#
# Velocity S-wave (km/s) = 3.32130 3.42051 3.37127
# Velocity P-wave (km/s) = 7.00907 7.07335 7.04128
#
# Compressibility (1/GPa) = 0.01541592
#
# Stress axis : x y z
#
# Youngs Moduli (GPa) = 53.89991 53.89991 71.41029
#
# Poissons Ratio (x) = 0.46936 0.32630
# Poissons Ratio (y) = 0.46936 0.32630
# Poissons Ratio (z) = 0.24629 0.24629
#
# Static dielectric constant tensor:
#      x y z
#    x 1.693390 0.000000 0.000000 
#    y 0.000000 1.693390 0.000000 
#    z 0.000000 0.000000 1.648880 
# 
# From -- ./inp_files/9819.got.cif
#   From: 2010.05.17/outbox.cif.g08.bks.cpg/sg132_5_cif.got.tgz:9819.got - 2010.05.20 12:30:18.
