data_PCOD9567261
_publ_section_title
;
Structure prediction by ZEFSAII (Michael W. Deem and Ramdas Pophale) SiO2 
 PCOD9567261
Probable space group: P 42/M C M
;
_chemical_formula_sum "Si O2"
_cell_formula_units_Z 120
_cell_length_a 21.461962
_cell_length_b 21.461962
_cell_length_c 15.013683
_cell_angle_alpha 90.000000
_cell_angle_beta 90.000000
_cell_angle_gamma 90.000000
_cell_volume 6915.539800
_symmetry_space_group_name_H-M "P 42/M C M"
_symmetry_group_IT_number 132
_symmetry_cell_setting 'tetragonal'
loop_
_space_group_symop_operation_xyz
x,y,z
-y,x,1/2+z
-x,-y,z
y,-x,1/2+z
x,-y,1/2-z
-x,y,1/2-z
y,x,-z
-y,-x,-z
-x,-y,-z
y,-x,1/2-z
x,y,-z
-y,x,1/2-z
-x,y,1/2+z
x,-y,1/2+z
-y,-x,z
y,x,z
loop_
_atom_site_type_symbol
_atom_site_label
_atom_site_fract_x
_atom_site_fract_y
_atom_site_fract_z
Si Si1 0.335205 0.765697 0.228270
Si Si2 0.712027 0.096362 0.770107
Si Si3 0.060023 0.402543 0.393823
Si Si4 0.152380 0.951746 0.177075
Si Si5 0.551473 0.190692 0.892998
Si Si6 0.070849 0.367869 0.102923
Si Si7 0.412568 0.787630 0.603344
Si Si8 0.002715 0.895173 0.500000
O O1 0.292201 0.707800 0.204062
O O2 0.293527 0.828634 0.232123
O O3 0.391198 0.779059 0.159398
O O4 0.366830 0.757366 0.325177
O O5 0.661430 0.074652 0.842772
O O6 0.779143 0.070882 0.795872
O O7 0.687501 0.071440 0.674792
O O8 0.065449 0.394815 0.500000
O O9 0.116709 0.447986 0.368413
O O10 0.986971 0.413994 0.376340
O O11 0.107772 0.892229 0.171521
O O12 0.146941 0.989100 0.085269
O O13 0.127991 0.000000 0.250000
O O14 0.484879 0.220628 0.872056
O O15 0.559780 0.195281 0.000000
O O16 0.137921 0.400114 0.109603
O O17 0.063816 0.346873 0.000000
O O18 0.402457 0.769703 0.500000
O O19 0.950351 0.950351 0.500000
O O20 0.068647 0.931354 0.500000
#
# Coordination Sequence:
#
# PCOD9567261 Si02
#       8
#    16  16  16  16  16  16  16   8
#     4  10  20  34  52  72 102 137 172 209 245 290
#     4  10  20  34  48  70  97 130 168 205 246 300
#     4   9  17  28  46  70 101 135 167 201 242 292
#     4  11  22  36  55  73  91 119 155 204 266 324
#     4   9  18  32  49  74 104 135 170 208 251 298
#     4   9  17  30  48  71 101 137 172 205 244 288
#     4   9  18  32  51  74 102 136 173 211 250 292
#     4   9  20  38  56  74  92 110 144 199 264 332
#
# _framework density 17.352225000000001
#
# number of rings (size 3 to 8) (size 9 to 14) (size 15 to 20)
#    0.000    2.467    0.000    2.400    0.933    1.733 
#    1.200    2.667    0.000    5.600    0.000    0.000 
#    0.000    4.267    0.000   11.733    0.000    0.000 
#
# Total GULP energy -668966.056255 kJ/mol
# GULP energy per Si atom -5574.717135 kJ/mol
# Density = 1.731273 g / cm^3
# Si number density = 17.352225 Si / 1000 Ang^3
#
#
#
# Elastic Constant Matrix: (Units=GPa)
#
#
# Indices 1 2 3 4 5 6 
#
# 1 54.9955 11.9514 15.5972 0.0000 0.0000 0.0000
# 2 11.9514 54.9957 15.5972 0.0000 0.0000 0.0000
# 3 15.5972 15.5972 48.6634 0.0000 0.0000 0.0000
# 4 0.0000 0.0000 0.0000 18.3898 0.0000 0.0000
# 5 0.0000 0.0000 0.0000 0.0000 18.3896 0.0000
# 6 0.0000 0.0000 0.0000 0.0000 0.0000 4.5420
#
#
#
# Elastic Compliance Matrix: (Units=1/GPa)
#
#
# Indices 1 2 3 4 5 6 
#
# 1 0.020396 -0.002836 -0.005628 0.000000 0.000000 0.000000
# 2 -0.002836 0.020396 -0.005628 0.000000 0.000000 0.000000
# 3 -0.005628 -0.005628 0.024157 0.000000 0.000000 0.000000
# 4 0.000000 0.000000 0.000000 0.054378 0.000000 0.000000
# 5 0.000000 0.000000 0.000000 0.000000 0.054379 0.000000
# 6 0.000000 0.000000 0.000000 0.000000 0.000000 0.220166
#
#
# Mechanical properties :
#
#
# Convention : Reuss Voigt Hill
#
# Bulk Modulus (GPa) = 27.20050 27.21624 27.20837
# Shear Modulus (GPa) = 11.51251 15.96488 13.73869
#
# Velocity S-wave (km/s) = 2.57857 3.03652 2.81687
# Velocity P-wave (km/s) = 4.95731 5.29269 5.12774
#
# Compressibility (1/GPa) = 0.03676403
#
# Stress axis : x y z
#
# Youngs Moduli (GPa) = 49.02971 49.02988 41.39578
#
# Poissons Ratio (x) = 0.13906 0.23298
# Poissons Ratio (y) = 0.13906 0.23298
# Poissons Ratio (z) = 0.27594 0.27594
#
# Static dielectric constant tensor:
#      x y z
#    x 1.582380 0.000000 0.000000 
#    y 0.000000 1.582380 0.000000 
#    z 0.000000 0.000000 1.736450 
# 
# From -- ./inp_files/5146.got.cif
#   From: 2010.05.17/outbox.cif.g08.bks.cpg/sg132_3_cif.got.tgz:5146.got - 2010.05.20 12:30:18.
