data_PCOD9567309
_publ_section_title
;
Structure prediction by ZEFSAII (Michael W. Deem and Ramdas Pophale) SiO2 
 PCOD9567309
Probable space group: P 42/M C M
;
_chemical_formula_sum "Si O2"
_cell_formula_units_Z 88
_cell_length_a 13.959195
_cell_length_b 13.959195
_cell_length_c 26.535445
_cell_angle_alpha 90.000000
_cell_angle_beta 90.000000
_cell_angle_gamma 90.000000
_cell_volume 5170.673595
_symmetry_space_group_name_H-M "P 42/M C M"
_symmetry_group_IT_number 132
_symmetry_cell_setting 'tetragonal'
loop_
_space_group_symop_operation_xyz
x,y,z
-y,x,1/2+z
-x,-y,z
y,-x,1/2+z
x,-y,1/2-z
-x,y,1/2-z
y,x,-z
-y,-x,-z
-x,-y,-z
y,-x,1/2-z
x,y,-z
-y,x,1/2-z
-x,y,1/2+z
x,-y,1/2+z
-y,-x,z
y,x,z
loop_
_atom_site_type_symbol
_atom_site_label
_atom_site_fract_x
_atom_site_fract_y
_atom_site_fract_z
Si Si1 0.818265 0.969421 0.559792
Si Si2 0.994266 0.385594 0.809772
Si Si3 0.575908 0.575908 0.060872
Si Si4 0.792974 0.525874 0.939776
Si Si5 0.864826 0.710350 0.885539
Si Si6 0.831383 0.326384 0.115417
O O1 0.817687 0.985019 0.500000
O O2 0.919095 0.919095 0.573389
O O3 0.738041 0.892758 0.576644
O O4 0.786517 0.064137 0.588554
O O5 0.897677 0.343731 0.835434
O O6 0.000000 0.500000 0.820190
O O7 0.000000 0.371999 0.750000
O O8 0.082423 0.331588 0.836612
O O9 0.500000 0.500000 0.081242
O O10 0.549139 0.683354 0.074116
O O11 0.572089 0.572089 0.000000
O O12 0.851730 0.618919 0.922149
O O13 0.818084 0.428999 0.910713
O O14 0.801570 0.513061 0.000000
O O15 0.765066 0.765066 0.876270
O O16 0.733519 0.266482 0.125111
#
# Coordination Sequence:
#
# PCOD9567309 Si02
#       6
#    16  16   8  16  16  16
#     4   9  19  34  52  77 110 148 187 227 273 326
#     4  10  21  40  62  81 103 136 182 235 288 337
#     4   9  18  30  44  68 107 153 191 221 258 312
#     4  11  20  31  50  79 115 154 190 223 266 326
#     4  11  22  36  55  82 113 146 186 232 283 339
#     4  10  20  35  56  83 110 142 185 231 279 330
#
# _framework density 17.019058000000001
#
# number of rings (size 3 to 8) (size 9 to 14) (size 15 to 20)
#    0.000    1.909    2.727    1.636    0.000    4.000 
#    0.000    3.636    0.000    0.000    0.000    2.545 
#    0.000    2.909    0.000    0.000    0.000    0.000 
#
# Total GULP energy -490683.803781 kJ/mol
# GULP energy per Si atom -5575.952316 kJ/mol
# Density = 1.698032 g / cm^3
# Si number density = 17.019058 Si / 1000 Ang^3
#
#
#
# Elastic Constant Matrix: (Units=GPa)
#
#
# Indices 1 2 3 4 5 6 
#
# 1 95.4956 51.1006 42.8358 0.0000 0.0000 0.0000
# 2 51.1006 95.4956 42.8358 0.0000 0.0000 0.0000
# 3 42.8358 42.8358 89.9603 0.0000 0.0000 0.0000
# 4 0.0000 0.0000 0.0000 12.4422 0.0000 0.0000
# 5 0.0000 0.0000 0.0000 0.0000 12.4422 0.0000
# 6 0.0000 0.0000 0.0000 0.0000 0.0000 31.3124
#
#
#
# Elastic Compliance Matrix: (Units=1/GPa)
#
#
# Indices 1 2 3 4 5 6 
#
# 1 0.015988 -0.006537 -0.004501 0.000000 0.000000 0.000000
# 2 -0.006537 0.015988 -0.004501 0.000000 0.000000 0.000000
# 3 -0.004501 -0.004501 0.015402 0.000000 0.000000 0.000000
# 4 0.000000 0.000000 0.000000 0.080372 0.000000 0.000000
# 5 0.000000 0.000000 0.000000 0.000000 0.080372 0.000000
# 6 0.000000 0.000000 0.000000 0.000000 0.000000 0.031936
#
#
# Mechanical properties :
#
#
# Convention : Reuss Voigt Hill
#
# Bulk Modulus (GPa) = 61.33791 61.61064 61.47427
# Shear Modulus (GPa) = 18.07870 20.85129 19.46499
#
# Velocity S-wave (km/s) = 3.26277 3.50404 3.38556
# Velocity P-wave (km/s) = 7.09318 7.25608 7.17509
#
# Compressibility (1/GPa) = 0.01630313
#
# Stress axis : x y z
#
# Youngs Moduli (GPa) = 62.54565 62.54565 64.92675
#
# Poissons Ratio (x) = 0.40884 0.29220
# Poissons Ratio (y) = 0.40884 0.29220
# Poissons Ratio (z) = 0.28149 0.28149
#
# Static dielectric constant tensor:
#      x y z
#    x 1.596020 0.000000 0.000000 
#    y 0.000000 1.596020 0.000000 
#    z 0.000000 0.000000 1.531570 
# 
# From -- ./inp_files/8964.got.cif
#   From: 2010.05.17/outbox.cif.g08.bks.cpg/sg132_5_cif.got.tgz:8964.got - 2010.05.20 12:30:18.
