data_PCOD9567499
_publ_section_title
;
Structure prediction by ZEFSAII (Michael W. Deem and Ramdas Pophale) SiO2 
 PCOD9567499
Probable space group: P 42/M C M
;
_chemical_formula_sum "Si O2"
_cell_formula_units_Z 58
_cell_length_a 19.995906
_cell_length_b 19.995906
_cell_length_c 7.852539
_cell_angle_alpha 90.000000
_cell_angle_beta 90.000000
_cell_angle_gamma 90.000000
_cell_volume 3139.729800
_symmetry_space_group_name_H-M "P 42/M C M"
_symmetry_group_IT_number 132
_symmetry_cell_setting 'tetragonal'
loop_
_space_group_symop_operation_xyz
x,y,z
-y,x,1/2+z
-x,-y,z
y,-x,1/2+z
x,-y,1/2-z
-x,y,1/2-z
y,x,-z
-y,-x,-z
-x,-y,-z
y,-x,1/2-z
x,y,-z
-y,x,1/2-z
-x,y,1/2+z
x,-y,1/2+z
-y,-x,z
y,x,z
loop_
_atom_site_type_symbol
_atom_site_label
_atom_site_fract_x
_atom_site_fract_y
_atom_site_fract_z
Si Si1 0.745935 0.925517 0.703747
Si Si2 0.898159 0.898159 0.195686
Si Si3 0.000000 0.000000 0.750000
Si Si4 0.422722 0.684857 0.204913
Si Si5 0.681279 0.208401 0.207016
O O1 0.750975 0.920513 0.500000
O O2 0.820405 0.912866 0.774047
O O3 0.697208 0.866330 0.765833
O O4 0.723980 0.000000 0.750000
O O5 0.945036 0.945036 0.310906
O O6 0.915205 0.915205 0.000000
O O7 0.500000 0.681306 0.250000
O O8 0.378345 0.621656 0.265507
O O9 0.384608 0.752033 0.266031
O O10 0.418439 0.684953 0.000000
O O11 0.744175 0.255826 0.251468
O O12 0.678436 0.206618 0.000000
#
# Coordination Sequence:
#
# PCOD9567499 Si02
#       5
#    16   8   2  16  16
#     4  11  21  34  52  72  97 128 169 216 265 308
#     4  12  24  35  48  67  95 132 173 211 257 312
#     4  12  26  36  48  62 102 140 170 200 258 320
#     4   9  18  33  54  79 108 140 173 204 244 298
#     4   8  15  31  53  72  94 133 174 207 251 307
#
# _framework density 18.472925
#
# number of rings (size 3 to 8) (size 9 to 14) (size 15 to 20)
#    0.000    2.207    2.759    3.103    0.000    1.931 
#    0.000    4.138    0.000    0.828    0.000    5.793 
#    0.000    0.000    0.000    0.000    0.000    0.000 
#
# Total GULP energy -323299.993328 kJ/mol
# GULP energy per Si atom -5574.137816 kJ/mol
# Density = 1.843088 g / cm^3
# Si number density = 18.472925 Si / 1000 Ang^3
#
#
#
# Elastic Constant Matrix: (Units=GPa)
#
#
# Indices 1 2 3 4 5 6 
#
# 1 156.8317 105.9060 10.7156 0.0000 0.0000 0.0000
# 2 105.9060 156.8317 10.7156 0.0000 0.0000 0.0000
# 3 10.7156 10.7156 47.0773 0.0000 0.0000 0.0000
# 4 0.0000 0.0000 0.0000 25.7200 0.0000 0.0000
# 5 0.0000 0.0000 0.0000 0.0000 25.7200 0.0000
# 6 0.0000 0.0000 0.0000 0.0000 0.0000 19.3748
#
#
#
# Elastic Compliance Matrix: (Units=1/GPa)
#
#
# Indices 1 2 3 4 5 6 
#
# 1 0.011757 -0.007879 -0.000883 0.000000 0.000000 0.000000
# 2 -0.007879 0.011757 -0.000883 0.000000 0.000000 0.000000
# 3 -0.000883 -0.000883 0.021644 0.000000 0.000000 0.000000
# 4 0.000000 0.000000 0.000000 0.038880 0.000000 0.000000
# 5 0.000000 0.000000 0.000000 0.000000 0.038880 0.000000
# 6 0.000000 0.000000 0.000000 0.000000 0.000000 0.051613
#
#
# Mechanical properties :
#
#
# Convention : Reuss Voigt Hill
#
# Bulk Modulus (GPa) = 38.65662 68.37946 53.51804
# Shear Modulus (GPa) = 24.69817 29.72319 27.21068
#
# Velocity S-wave (km/s) = 3.66046 4.01560 3.84214
# Velocity P-wave (km/s) = 6.23192 7.65483 6.97973
#
# Compressibility (1/GPa) = 0.02586879
#
# Stress axis : x y z
#
# Youngs Moduli (GPa) = 85.05375 85.05375 46.20323
#
# Poissons Ratio (x) = 0.67015 0.04078
# Poissons Ratio (y) = 0.67015 0.04078
# Poissons Ratio (z) = 0.07508 0.07508
#
# Static dielectric constant tensor:
#      x y z
#    x 1.631920 0.000000 0.000000 
#    y 0.000000 1.631920 0.000000 
#    z 0.000000 0.000000 1.722170 
# 
# From -- ./inp_files/1043.got.cif
#   From: 2010.05.17/outbox.cif.g08.bks.cpg/sg132_1_cif.got.tgz:1043.got - 2010.05.20 12:30:18.
