data_PCOD9567155
_publ_section_title
;
Structure prediction by ZEFSAII (Michael W. Deem and Ramdas Pophale) SiO2 
 PCOD9567155
Probable space group: P 42/M C M
;
_chemical_formula_sum "Si O2"
_cell_formula_units_Z 96
_cell_length_a 24.581309
_cell_length_b 24.581309
_cell_length_c 8.475766
_cell_angle_alpha 90.000000
_cell_angle_beta 90.000000
_cell_angle_gamma 90.000000
_cell_volume 5121.403223
_symmetry_space_group_name_H-M "P 42/M C M"
_symmetry_group_IT_number 132
_symmetry_cell_setting 'tetragonal'
loop_
_space_group_symop_operation_xyz
x,y,z
-y,x,1/2+z
-x,-y,z
y,-x,1/2+z
x,-y,1/2-z
-x,y,1/2-z
y,x,-z
-y,-x,-z
-x,-y,-z
y,-x,1/2-z
x,y,-z
-y,x,1/2-z
-x,y,1/2+z
x,-y,1/2+z
-y,-x,z
y,x,z
loop_
_atom_site_type_symbol
_atom_site_label
_atom_site_fract_x
_atom_site_fract_y
_atom_site_fract_z
Si Si1 0.400607 0.055529 0.822173
Si Si2 0.747620 0.367941 0.316673
Si Si3 0.440740 0.837923 0.182207
Si Si4 0.943009 0.729599 0.177037
Si Si5 0.820709 0.266807 0.689780
Si Si6 0.352598 0.561862 0.811464
O O1 0.411437 0.104919 0.705924
O O2 0.335611 0.050593 0.833838
O O3 0.423147 0.000000 0.750000
O O4 0.421483 0.066216 0.000000
O O5 0.734801 0.358028 0.500000
O O6 0.794080 0.412499 0.293168
O O7 0.778724 0.313908 0.251774
O O8 0.694908 0.395703 0.239067
O O9 0.500000 0.845942 0.250000
O O10 0.439893 0.820385 0.000000
O O11 0.882596 0.735821 0.252659
O O12 0.000000 0.749871 0.250000
O O13 0.939562 0.752414 0.000000
O O14 0.825646 0.278028 0.500000
O O15 0.789711 0.210290 0.711501
O O16 0.345088 0.500000 0.750000
O O17 0.409282 0.590719 0.760236
O O18 0.351951 0.558818 0.000000
#
# Coordination Sequence:
#
# PCOD9567155 Si02
#       6
#    16  16  16  16  16  16
#     4  10  19  34  52  74 101 135 179 227 276 327
#     4  11  21  38  60  84 113 145 182 223 273 333
#     4  12  24  37  53  74 102 140 183 231 279 326
#     4   9  17  31  51  76 107 143 183 222 267 322
#     4   9  17  31  54  83 112 144 183 225 266 318
#     4  11  25  44  65  90 117 144 179 223 275 338
#
# _framework density 18.744862999999999
#
# number of rings (size 3 to 8) (size 9 to 14) (size 15 to 20)
#    0.000    1.667    1.667    4.000    0.000    3.167 
#    0.000    2.500    0.000    2.500    0.000    0.000 
#    0.000    0.333    0.000    4.167    0.000    0.000 
#
# Total GULP energy -534963.781852 kJ/mol
# GULP energy per Si atom -5572.539394 kJ/mol
# Density = 1.870220 g / cm^3
# Si number density = 18.744863 Si / 1000 Ang^3
#
#
#
# Elastic Constant Matrix: (Units=GPa)
#
#
# Indices 1 2 3 4 5 6 
#
# 1 153.8748 20.7427 6.1173 0.0000 0.0000 0.0000
# 2 20.7427 153.8748 6.1173 0.0000 0.0000 0.0000
# 3 6.1173 6.1173 46.7068 0.0000 0.0000 0.0000
# 4 0.0000 0.0000 0.0000 14.1032 0.0000 0.0000
# 5 0.0000 0.0000 0.0000 0.0000 14.1032 0.0000
# 6 0.0000 0.0000 0.0000 0.0000 0.0000 10.3206
#
#
#
# Elastic Compliance Matrix: (Units=1/GPa)
#
#
# Indices 1 2 3 4 5 6 
#
# 1 0.006646 -0.000866 -0.000757 0.000000 0.000000 0.000000
# 2 -0.000866 0.006646 -0.000757 0.000000 0.000000 0.000000
# 3 -0.000757 -0.000757 0.021608 0.000000 0.000000 0.000000
# 4 0.000000 0.000000 0.000000 0.070906 0.000000 0.000000
# 5 0.000000 0.000000 0.000000 0.000000 0.070906 0.000000
# 6 0.000000 0.000000 0.000000 0.000000 0.000000 0.096894
#
#
# Mechanical properties :
#
#
# Convention : Reuss Voigt Hill
#
# Bulk Modulus (GPa) = 33.17838 46.71235 39.94536
# Shear Modulus (GPa) = 17.33635 29.13734 23.23685
#
# Velocity S-wave (km/s) = 3.04445 3.94689 3.52467
# Velocity P-wave (km/s) = 5.48604 6.76349 6.15798
#
# Compressibility (1/GPa) = 0.03014011
#
# Stress axis : x y z
#
# Youngs Moduli (GPa) = 150.47577 150.47577 46.27821
#
# Poissons Ratio (x) = 0.13027 0.03503
# Poissons Ratio (y) = 0.13027 0.03503
# Poissons Ratio (z) = 0.11391 0.11391
#
# Static dielectric constant tensor:
#      x y z
#    x 1.725580 0.000000 0.000000 
#    y 0.000000 1.725580 0.000000 
#    z 0.000000 0.000000 1.687170 
# 
# From -- ./inp_files/1709.got.cif
#   From: 2010.05.17/outbox.cif.g08.bks.cpg/sg132_1_cif.got.tgz:1709.got - 2010.05.20 12:30:18.
