data_PCOD9567047
_publ_section_title
;
Structure prediction by ZEFSAII (Michael W. Deem and Ramdas Pophale) SiO2 
 PCOD9567047
Probable space group: P 42/M C M
;
_chemical_formula_sum "Si O2"
_cell_formula_units_Z 64
_cell_length_a 24.377961
_cell_length_b 24.377961
_cell_length_c 7.913564
_cell_angle_alpha 90.000000
_cell_angle_beta 90.000000
_cell_angle_gamma 90.000000
_cell_volume 4702.912243
_symmetry_space_group_name_H-M "P 42/M C M"
_symmetry_group_IT_number 132
_symmetry_cell_setting 'tetragonal'
loop_
_space_group_symop_operation_xyz
x,y,z
-y,x,1/2+z
-x,-y,z
y,-x,1/2+z
x,-y,1/2-z
-x,y,1/2-z
y,x,-z
-y,-x,-z
-x,-y,-z
y,-x,1/2-z
x,y,-z
-y,x,1/2-z
-x,y,1/2+z
x,-y,1/2+z
-y,-x,z
y,x,z
loop_
_atom_site_type_symbol
_atom_site_label
_atom_site_fract_x
_atom_site_fract_y
_atom_site_fract_z
Si Si1 0.287745 0.618361 0.000000
Si Si2 0.146149 0.759577 0.312809
Si Si3 0.293284 0.801610 0.000000
Si Si4 0.654534 0.561895 0.197196
Si Si5 0.936944 0.847859 0.297919
O O1 0.229727 0.649060 0.000000
O O2 0.300504 0.583758 0.169001
O O3 0.333309 0.666692 0.000000
O O4 0.145696 0.735221 0.500000
O O5 0.193505 0.806496 0.308444
O O6 0.161969 0.717925 0.165324
O O7 0.090665 0.793347 0.278147
O O8 0.246010 0.753991 0.000000
O O9 0.640391 0.500000 0.250000
O O10 0.602033 0.602033 0.214149
O O11 0.671690 0.563708 0.000000
O O12 0.932018 0.843795 0.500000
O O13 0.899684 0.899684 0.242316
O O14 0.000000 0.854332 0.250000
#
# Coordination Sequence:
#
# PCOD9567047 Si02
#       5
#     8  16   8  16  16
#     4   9  18  30  43  62  85 107 141 183 217 253
#     4   9  16  27  43  60  78 102 133 170 211 255
#     4   9  16  28  44  61  81 103 132 174 215 253
#     4  10  19  30  44  61  84 116 152 187 219 250
#     4  10  19  30  42  57  80 108 143 184 218 254
#
# _framework density 13.608589
#
# number of rings (size 3 to 8) (size 9 to 14) (size 15 to 20)
#    0.000    2.500    2.500    0.750    0.000    3.000 
#    0.000    7.500    0.000    0.000    0.000    0.000 
#    0.000    0.000    0.000    0.000    0.000    3.750 
#
# Total GULP energy -356409.598059 kJ/mol
# GULP energy per Si atom -5568.899970 kJ/mol
# Density = 1.357762 g / cm^3
# Si number density = 13.608589 Si / 1000 Ang^3
#
#
#
# Elastic Constant Matrix: (Units=GPa)
#
#
# Indices 1 2 3 4 5 6 
#
# 1 46.4253 47.1084 45.1640 0.0000 0.0000 0.0000
# 2 47.1084 46.4251 45.1640 0.0000 0.0000 0.0000
# 3 45.1640 45.1640 127.1341 0.0000 0.0000 0.0000
# 4 0.0000 0.0000 0.0000 9.7789 0.0000 0.0000
# 5 0.0000 0.0000 0.0000 0.0000 9.7790 0.0000
# 6 0.0000 0.0000 0.0000 0.0000 0.0000 13.2694
#
#
#
# Elastic Compliance Matrix: (Units=1/GPa)
#
#
# Indices 1 2 3 4 5 6 
#
# 1 -0.723679 0.739956 -0.005782 0.000000 0.000000 0.000000
# 2 0.739956 -0.723684 -0.005781 0.000000 0.000000 0.000000
# 3 -0.005782 -0.005781 0.011973 0.000000 0.000000 0.000000
# 4 0.000000 0.000000 0.000000 0.102261 0.000000 0.000000
# 5 0.000000 0.000000 0.000000 0.000000 0.102260 0.000000
# 6 0.000000 0.000000 0.000000 0.000000 0.000000 0.075361
#
#
# Mechanical properties :
#
#
# Convention : Reuss Voigt Hill
#
# Bulk Modulus (GPa) = 46.73608 54.98416 50.86012
# Shear Modulus (GPa) = -1.91927 12.06866 5.07470
#
# Velocity S-wave (km/s) = -1.18886 2.98122 1.93317
# Velocity P-wave (km/s) = 5.70378 7.23477 6.51441
#
# Compressibility (1/GPa) = 0.02139674
#
# Stress axis : x y z
#
# Youngs Moduli (GPa) = -1.38183 -1.38182 83.51797
#
# Poissons Ratio (x) = 1.02249 0.48290
# Poissons Ratio (y) = 1.02249 0.48283
# Poissons Ratio (z) = -0.00799 -0.00799
#
# Static dielectric constant tensor:
#      x y z
#    x 1.425360 0.000000 0.000000 
#    y 0.000000 1.425360 0.000000 
#    z 0.000000 0.000000 1.480710 
# 
# From -- ./inp_files/1307.got.cif
#   From: 2010.05.17/outbox.cif.g08.bks.cpg/sg132_1_cif.got.tgz:1307.got - 2010.05.20 12:30:18.
