data_PCOD9567492
_publ_section_title
;
Structure prediction by ZEFSAII (Michael W. Deem and Ramdas Pophale) SiO2 
 PCOD9567492
Probable space group: P 42/M C M
;
_chemical_formula_sum "Si O2"
_cell_formula_units_Z 48
_cell_length_a 13.057469
_cell_length_b 13.057469
_cell_length_c 15.013541
_cell_angle_alpha 90.000000
_cell_angle_beta 90.000000
_cell_angle_gamma 90.000000
_cell_volume 2559.771157
_symmetry_space_group_name_H-M "P 42/M C M"
_symmetry_group_IT_number 132
_symmetry_cell_setting 'tetragonal'
loop_
_space_group_symop_operation_xyz
x,y,z
-y,x,1/2+z
-x,-y,z
y,-x,1/2+z
x,-y,1/2-z
-x,y,1/2-z
y,x,-z
-y,-x,-z
-x,-y,-z
y,-x,1/2-z
x,y,-z
-y,x,1/2-z
-x,y,1/2+z
x,-y,1/2+z
-y,-x,z
y,x,z
loop_
_atom_site_type_symbol
_atom_site_label
_atom_site_fract_x
_atom_site_fract_y
_atom_site_fract_z
Si Si1 0.477777 0.119271 0.645901
Si Si2 0.033179 0.200213 0.000000
Si Si3 0.622901 0.793932 0.000000
Si Si4 0.086995 0.250958 0.675260
O O1 0.500000 0.131728 0.750000
O O2 0.549556 0.189416 0.585223
O O3 0.356520 0.135556 0.640029
O O4 0.500000 0.000000 0.621312
O O5 0.967905 0.204816 0.910686
O O6 0.098867 0.098867 0.000000
O O7 0.112493 0.295705 0.000000
O O8 0.690366 0.690366 0.000000
O O9 0.172323 0.172323 0.710574
O O10 0.000000 0.272762 0.750000
#
# Coordination Sequence:
#
# PCOD9567492 Si02
#       4
#    16   8   8  16
#     4  11  20  39  63  87 123 165 211 264 310 367
#     4  11  22  36  54  82 121 162 199 243 308 370
#     4  11  22  38  67  97 123 163 219 272 321 374
#     4  12  24  38  59  88 122 164 205 249 310 381
#
# _framework density 18.751674999999999
#
# number of rings (size 3 to 8) (size 9 to 14) (size 15 to 20)
#    0.000    0.667    6.667    3.000    0.000    7.000 
#    0.000    0.000    0.000    2.000    0.000    2.333 
#    0.000    0.000    0.000    0.000    0.000    0.000 
#
# Total GULP energy -268240.682914 kJ/mol
# GULP energy per Si atom -5588.347561 kJ/mol
# Density = 1.870900 g / cm^3
# Si number density = 18.751675 Si / 1000 Ang^3
#
#
#
# Elastic Constant Matrix: (Units=GPa)
#
#
# Indices 1 2 3 4 5 6 
#
# 1 99.7435 65.2290 35.0188 0.0000 0.0000 0.0000
# 2 65.2290 99.7435 35.0188 0.0000 0.0000 0.0000
# 3 35.0188 35.0188 90.7587 0.0000 0.0000 0.0000
# 4 0.0000 0.0000 0.0000 44.9907 0.0000 0.0000
# 5 0.0000 0.0000 0.0000 0.0000 44.9907 0.0000
# 6 0.0000 0.0000 0.0000 0.0000 0.0000 30.7004
#
#
#
# Elastic Compliance Matrix: (Units=1/GPa)
#
#
# Indices 1 2 3 4 5 6 
#
# 1 0.018111 -0.010862 -0.002797 0.000000 0.000000 0.000000
# 2 -0.010862 0.018111 -0.002797 0.000000 0.000000 0.000000
# 3 -0.002797 -0.002797 0.013177 0.000000 0.000000 0.000000
# 4 0.000000 0.000000 0.000000 0.022227 0.000000 0.000000
# 5 0.000000 0.000000 0.000000 0.000000 0.022227 0.000000
# 6 0.000000 0.000000 0.000000 0.000000 0.000000 0.032573
#
#
# Mechanical properties :
#
#
# Convention : Reuss Voigt Hill
#
# Bulk Modulus (GPa) = 60.65488 62.30878 61.48183
# Shear Modulus (GPa) = 30.33366 34.46830 32.40098
#
# Velocity S-wave (km/s) = 4.02637 4.29201 4.16131
# Velocity P-wave (km/s) = 7.35065 7.60673 7.47979
#
# Compressibility (1/GPa) = 0.01648672
#
# Stress axis : x y z
#
# Youngs Moduli (GPa) = 55.21447 55.21447 75.89184
#
# Poissons Ratio (x) = 0.59975 0.21227
# Poissons Ratio (y) = 0.59975 0.21227
# Poissons Ratio (z) = 0.15444 0.15444
#
# Static dielectric constant tensor:
#      x y z
#    x 1.663010 0.000000 0.000000 
#    y 0.000000 1.663010 0.000000 
#    z 0.000000 0.000000 2.118180 
# 
# From -- ./inp_files/5745.got.cif
#   From: 2010.05.17/outbox.cif.g08.bks.cpg/sg132_3_cif.got.tgz:5745.got - 2010.05.20 12:30:18.
