data_PCOD9567311
_publ_section_title
;
Structure prediction by ZEFSAII (Michael W. Deem and Ramdas Pophale) SiO2 
 PCOD9567311
Probable space group: P 42/M C M
;
_chemical_formula_sum "Si O2"
_cell_formula_units_Z 104
_cell_length_a 13.760940
_cell_length_b 13.760940
_cell_length_c 29.194584
_cell_angle_alpha 90.000000
_cell_angle_beta 90.000000
_cell_angle_gamma 90.000000
_cell_volume 5528.387722
_symmetry_space_group_name_H-M "P 42/M C M"
_symmetry_group_IT_number 132
_symmetry_cell_setting 'tetragonal'
loop_
_space_group_symop_operation_xyz
x,y,z
-y,x,1/2+z
-x,-y,z
y,-x,1/2+z
x,-y,1/2-z
-x,y,1/2-z
y,x,-z
-y,-x,-z
-x,-y,-z
y,-x,1/2-z
x,y,-z
-y,x,1/2-z
-x,y,1/2+z
x,-y,1/2+z
-y,-x,z
y,x,z
loop_
_atom_site_type_symbol
_atom_site_label
_atom_site_fract_x
_atom_site_fract_y
_atom_site_fract_z
Si Si1 0.289940 0.865437 0.222698
Si Si2 0.220267 0.939834 0.309459
Si Si3 0.205040 0.630017 0.866186
Si Si4 0.121164 0.276489 0.910679
Si Si5 0.050424 0.605579 0.947996
Si Si6 0.494536 0.339065 0.500000
Si Si7 0.558563 0.282321 0.402306
O O1 0.237041 0.762960 0.226864
O O2 0.304733 0.899938 0.274932
O O3 0.366908 0.852008 0.182265
O O4 0.216416 0.947372 0.202848
O O5 0.124355 0.875646 0.299641
O O6 0.245490 0.923781 0.362049
O O7 0.276207 0.723794 0.870045
O O8 0.129266 0.625404 0.908428
O O9 0.267670 0.531996 0.869334
O O10 0.187759 0.187759 0.928649
O O11 0.195281 0.364502 0.900239
O O12 0.035852 0.315826 0.942429
O O13 0.000000 0.500000 0.940995
O O14 0.089675 0.608528 0.000000
O O15 0.389848 0.389848 0.500000
O O16 0.574374 0.425627 0.500000
O O17 0.515211 0.282288 0.453687
O O18 0.618500 0.381501 0.395230
#
# Coordination Sequence:
#
# PCOD9567311 Si02
#       7
#    16  16  16  16  16   8  16
#     4   9  18  32  52  80 109 140 181 229 278 328
#     4   9  17  32  54  79 108 141 180 230 281 322
#     4  11  22  36  56  81 114 149 183 227 277 334
#     4  10  20  35  57  81 109 147 188 229 271 330
#     4  11  23  38  56  80 113 148 187 235 277 326
#     4   9  18  32  50  75 104 132 174 231 278 319
#     4  10  21  35  53  77 107 144 184 227 276 329
#
# _framework density 18.811993999999999
#
# number of rings (size 3 to 8) (size 9 to 14) (size 15 to 20)
#    0.000    2.077    3.077    0.462    2.154    1.846 
#    0.000    2.308    0.000    3.231    0.000    2.154 
#    0.000   12.308    0.000    0.000    0.000    0.000 
#
# Total GULP energy -579422.280547 kJ/mol
# GULP energy per Si atom -5571.368082 kJ/mol
# Density = 1.876918 g / cm^3
# Si number density = 18.811994 Si / 1000 Ang^3
#
#
#
# Elastic Constant Matrix: (Units=GPa)
#
#
# Indices 1 2 3 4 5 6 
#
# 1 46.1061 9.8418 7.8754 0.0000 0.0000 0.0000
# 2 9.8418 46.1060 7.8755 0.0000 0.0000 0.0000
# 3 7.8754 7.8755 49.0918 0.0000 0.0000 0.0000
# 4 0.0000 0.0000 0.0000 20.9919 0.0000 0.0000
# 5 0.0000 0.0000 0.0000 0.0000 20.9918 0.0000
# 6 0.0000 0.0000 0.0000 0.0000 0.0000 28.4622
#
#
#
# Elastic Compliance Matrix: (Units=1/GPa)
#
#
# Indices 1 2 3 4 5 6 
#
# 1 0.023147 -0.004428 -0.003003 0.000000 0.000000 0.000000
# 2 -0.004428 0.023147 -0.003003 0.000000 0.000000 0.000000
# 3 -0.003003 -0.003003 0.021334 0.000000 0.000000 0.000000
# 4 0.000000 0.000000 0.000000 0.047638 0.000000 0.000000
# 5 0.000000 0.000000 0.000000 0.000000 0.047638 0.000000
# 6 0.000000 0.000000 0.000000 0.000000 0.000000 0.035134
#
#
# Mechanical properties :
#
#
# Convention : Reuss Voigt Hill
#
# Bulk Modulus (GPa) = 21.38582 21.38770 21.38676
# Shear Modulus (GPa) = 21.32265 21.80324 21.56295
#
# Velocity S-wave (km/s) = 3.37034 3.40811 3.38928
# Velocity P-wave (km/s) = 5.15155 5.18467 5.16814
#
# Compressibility (1/GPa) = 0.04675997
#
# Stress axis : x y z
#
# Youngs Moduli (GPa) = 43.20168 43.20154 46.87461
#
# Poissons Ratio (x) = 0.19130 0.14076
# Poissons Ratio (y) = 0.19130 0.14076
# Poissons Ratio (z) = 0.12973 0.12973
#
# Static dielectric constant tensor:
#      x y z
#    x 1.640840 0.000000 0.000000 
#    y 0.000000 1.640840 0.000000 
#    z 0.000000 0.000000 1.581640 
# 
# From -- ./inp_files/9134.got.cif
#   From: 2010.05.17/outbox.cif.g08.bks.cpg/sg132_5_cif.got.tgz:9134.got - 2010.05.20 12:30:18.
