data_PCOD9567890
_publ_section_title
;
Structure prediction by ZEFSAII (Michael W. Deem and Ramdas Pophale) SiO2 
 PCOD9567890
Probable space group: P 42/N B C
;
_chemical_formula_sum "Si O2"
_cell_formula_units_Z 116
_cell_length_a 16.250317
_cell_length_b 16.250317
_cell_length_c 20.264084
_cell_angle_alpha 90.000000
_cell_angle_beta 90.000000
_cell_angle_gamma 90.000000
_cell_volume 5351.193454
_symmetry_space_group_name_H-M "P 42/N B C"
_symmetry_group_IT_number 133
_space_group.IT_coordinate_system_code '2'
_symmetry_cell_setting 'tetragonal'
loop_
_space_group_symop_operation_xyz
x,y,z
1/2-y,x,1/2+z
1/2-x,1/2-y,z
y,1/2-x,1/2+z
x,1/2-y,-z
1/2-x,y,-z
y,x,1/2-z
1/2-y,1/2-x,1/2-z
-x,-y,-z
1/2+y,-x,1/2-z
1/2+x,1/2+y,-z
-y,1/2+x,1/2-z
-x,1/2+y,z
1/2+x,-y,z
-y,-x,1/2+z
1/2+y,1/2+x,1/2+z
loop_
_atom_site_type_symbol
_atom_site_label
_atom_site_fract_x
_atom_site_fract_y
_atom_site_fract_z
Si Si1 0.210685 0.918203 0.573111
Si Si2 0.128498 0.615769 0.629865
Si Si3 0.155712 0.933673 0.006656
Si Si4 0.561212 0.866638 0.183488
Si Si5 0.401333 0.328937 0.424681
Si Si6 0.750000 0.750000 0.000000
Si Si7 0.687752 0.963789 0.825225
Si Si8 0.311013 0.068638 0.328971
O O1 0.250000 0.931499 0.500000
O O2 0.277681 0.862173 0.611503
O O3 0.120724 0.880519 0.565313
O O4 0.201400 0.001630 0.614217
O O5 0.087656 0.602120 0.557475
O O6 0.137001 0.537161 0.677914
O O7 0.059434 0.675572 0.657905
O O8 0.162744 0.030292 0.018797
O O9 0.250000 0.903605 0.000000
O O10 0.589322 0.910679 0.250000
O O11 0.586518 0.907320 0.115013
O O12 0.610158 0.779493 0.176404
O O13 0.313660 0.303800 0.455958
O O14 0.431047 0.263927 0.368689
O O15 0.687358 0.964151 0.745931
O O16 0.618845 0.894194 0.841603
#
# Coordination Sequence:
#
# PCOD9567890 Si02
#       8
#    16  16  16  16  16   4  16  16
#     4   9  22  44  66  97 131 175 225 286 339 410
#     4  10  23  42  63  99 129 169 225 284 342 401
#     4  11  22  44  68  97 133 177 232 277 348 419
#     4  11  24  43  66  92 131 179 227 283 341 413
#     4  12  24  43  67  98 135 185 219 285 335 427
#     4  12  24  44  62 104 146 172 224 280 356 392
#     4  11  22  42  66  95 136 177 226 279 343 420
#     4  10  23  43  65  96 134 177 228 282 345 417
#
# _framework density 21.677406000000001
#
# number of rings (size 3 to 8) (size 9 to 14) (size 15 to 20)
#    0.000    1.379    3.448    0.828    3.862    3.034 
#   23.586    0.000    0.000    0.000    0.000    0.000 
#    0.000    0.000    0.000    0.000    0.000    0.000 
#
# Total GULP energy -645834.700166 kJ/mol
# GULP energy per Si atom -5567.540519 kJ/mol
# Density = 2.162807 g / cm^3
# Si number density = 21.677406 Si / 1000 Ang^3
#
#
#
# Elastic Constant Matrix: (Units=GPa)
#
#
# Indices 1 2 3 4 5 6 
#
# 1 66.1879 7.6066 18.4897 0.0000 0.0000 0.0000
# 2 7.6066 66.1877 18.4895 0.0000 0.0000 0.0000
# 3 18.4897 18.4895 48.2516 0.0000 0.0000 0.0000
# 4 0.0000 0.0000 0.0000 21.7403 0.0000 0.0000
# 5 0.0000 0.0000 0.0000 0.0000 21.7406 0.0000
# 6 0.0000 0.0000 0.0000 0.0000 0.0000 16.2835
#
#
#
# Elastic Compliance Matrix: (Units=1/GPa)
#
#
# Indices 1 2 3 4 5 6 
#
# 1 0.016921 -0.000149 -0.006427 0.000000 0.000000 0.000000
# 2 -0.000149 0.016921 -0.006427 0.000000 0.000000 0.000000
# 3 -0.006427 -0.006427 0.025650 0.000000 0.000000 0.000000
# 4 0.000000 0.000000 0.000000 0.045998 0.000000 0.000000
# 5 0.000000 0.000000 0.000000 0.000000 0.045997 0.000000
# 6 0.000000 0.000000 0.000000 0.000000 0.000000 0.061412
#
#
# Mechanical properties :
#
#
# Convention : Reuss Voigt Hill
#
# Bulk Modulus (GPa) = 29.86288 29.97763 29.92025
# Shear Modulus (GPa) = 19.99470 21.02230 20.50850
#
# Velocity S-wave (km/s) = 3.04036 3.11751 3.07917
# Velocity P-wave (km/s) = 5.11185 5.17856 5.14531
#
# Compressibility (1/GPa) = 0.03348639
#
# Stress axis : x y z
#
# Youngs Moduli (GPa) = 59.09819 59.09812 38.98624
#
# Poissons Ratio (x) = 0.00882 0.25056
# Poissons Ratio (y) = 0.00882 0.25055
# Poissons Ratio (z) = 0.37981 0.37981
#
# Static dielectric constant tensor:
#      x y z
#    x 1.879450 0.000000 0.000000 
#    y 0.000000 1.879450 0.000000 
#    z 0.000000 0.000000 1.907660 
# 
# From -- ./inp_files/5652.got.cif
#   From: 2010.05.17/outbox.cif.g08.bks.cpg/sg133_3_cif.got.tgz:5652.got - 2010.05.20 12:37:36.
