data_PCOD9567100
_publ_section_title
;
Structure prediction by ZEFSAII (Michael W. Deem and Ramdas Pophale) SiO2 
 PCOD9567100
Probable space group: P 42/M C M
;
_chemical_formula_sum "Si O2"
_cell_formula_units_Z 96
_cell_length_a 25.755683
_cell_length_b 25.755683
_cell_length_c 8.902912
_cell_angle_alpha 90.000000
_cell_angle_beta 90.000000
_cell_angle_gamma 90.000000
_cell_volume 5905.793031
_symmetry_space_group_name_H-M "P 42/M C M"
_symmetry_group_IT_number 132
_symmetry_cell_setting 'tetragonal'
loop_
_space_group_symop_operation_xyz
x,y,z
-y,x,1/2+z
-x,-y,z
y,-x,1/2+z
x,-y,1/2-z
-x,y,1/2-z
y,x,-z
-y,-x,-z
-x,-y,-z
y,-x,1/2-z
x,y,-z
-y,x,1/2-z
-x,y,1/2+z
x,-y,1/2+z
-y,-x,z
y,x,z
loop_
_atom_site_type_symbol
_atom_site_label
_atom_site_fract_x
_atom_site_fract_y
_atom_site_fract_z
Si Si1 0.867063 0.337512 0.819850
Si Si2 0.254305 0.661643 0.819375
Si Si3 0.056570 0.253493 0.180111
Si Si4 0.742468 0.553057 0.827930
Si Si5 0.131237 0.446650 0.173362
Si Si6 0.944716 0.142155 0.179182
O O1 0.806180 0.329951 0.778632
O O2 0.902249 0.295003 0.739424
O O3 0.882877 0.395002 0.764566
O O4 0.871775 0.333720 0.000000
O O5 0.291797 0.708204 0.769565
O O6 0.271935 0.606269 0.754529
O O7 0.256020 0.658825 0.000000
O O8 0.070350 0.196317 0.242563
O O9 0.000000 0.265522 0.250000
O O10 0.053866 0.253140 0.000000
O O11 0.724508 0.500000 0.750000
O O12 0.805645 0.551640 0.825803
O O13 0.725669 0.554376 0.000000
O O14 0.113079 0.500000 0.250000
O O15 0.114603 0.443282 0.000000
O O16 0.901641 0.098359 0.203552
O O17 0.000000 0.126631 0.250000
O O18 0.950628 0.150456 0.000000
#
# Coordination Sequence:
#
# PCOD9567100 Si02
#       6
#    16  16  16  16  16  16
#     4  10  19  32  50  72  98 130 166 202 244 294
#     4   9  18  31  46  67  98 132 162 196 240 288
#     4  11  22  37  56  76  99 129 166 206 244 286
#     4   9  16  26  42  63  89 123 162 201 239 283
#     4   9  16  27  44  68  95 124 160 202 246 290
#     4  10  21  37  57  80 105 132 162 198 241 289
#
# _framework density 16.255226
#
# number of rings (size 3 to 8) (size 9 to 14) (size 15 to 20)
#    0.000    2.333    0.000    4.500    0.000    7.167 
#    0.000    2.500    0.000    0.500    0.000    3.500 
#    0.000    0.333    0.000    3.500    0.000    1.833 
#
# Total GULP energy -535368.119106 kJ/mol
# GULP energy per Si atom -5576.751241 kJ/mol
# Density = 1.621823 g / cm^3
# Si number density = 16.255226 Si / 1000 Ang^3
#
#
#
# Elastic Constant Matrix: (Units=GPa)
#
#
# Indices 1 2 3 4 5 6 
#
# 1 97.3521 87.9423 63.7351 0.0000 0.0000 0.0000
# 2 87.9423 97.3521 63.7351 0.0000 0.0000 0.0000
# 3 63.7351 63.7351 107.5746 0.0000 0.0000 0.0000
# 4 0.0000 0.0000 0.0000 24.5752 0.0000 0.0000
# 5 0.0000 0.0000 0.0000 0.0000 24.5752 0.0000
# 6 0.0000 0.0000 0.0000 0.0000 0.0000 -5.4675
#
#
#
# Elastic Compliance Matrix: (Units=1/GPa)
#
#
# Indices 1 2 3 4 5 6 
#
# 1 0.057691 -0.048581 -0.005397 0.000000 0.000000 0.000000
# 2 -0.048581 0.057691 -0.005397 0.000000 0.000000 0.000000
# 3 -0.005397 -0.005397 0.015691 0.000000 0.000000 0.000000
# 4 0.000000 0.000000 0.000000 0.040691 0.000000 0.000000
# 5 0.000000 0.000000 0.000000 0.000000 0.040691 0.000000
# 6 0.000000 0.000000 0.000000 0.000000 0.000000 -0.182899
#
#
# Mechanical properties :
#
#
# Convention : Reuss Voigt Hill
#
# Bulk Modulus (GPa) = 81.15730 81.45599 81.30664
# Shear Modulus (GPa) = 32.80479 14.52768 23.66623
#
# Velocity S-wave (km/s) = 4.49721 2.99276 3.81979
# Velocity P-wave (km/s) = 8.77507 7.88426 8.34156
#
# Compressibility (1/GPa) = 0.01232175
#
# Stress axis : x y z
#
# Youngs Moduli (GPa) = 17.33370 17.33370 63.72917
#
# Poissons Ratio (x) = 0.84209 0.34397
# Poissons Ratio (y) = 0.84209 0.34397
# Poissons Ratio (z) = 0.09356 0.09356
#
# Static dielectric constant tensor:
#      x y z
#    x 1.531430 0.000000 0.000000 
#    y 0.000000 1.531430 0.000000 
#    z 0.000000 0.000000 1.546680 
# 
# From -- ./inp_files/1778.got.cif
#   From: 2010.05.17/outbox.cif.g08.bks.cpg/sg132_1_cif.got.tgz:1778.got - 2010.05.20 12:30:18.
