data_PCOD9567497
_publ_section_title
;
Structure prediction by ZEFSAII (Michael W. Deem and Ramdas Pophale) SiO2 
 PCOD9567497
Probable space group: P 42/M C M
;
_chemical_formula_sum "Si O2"
_cell_formula_units_Z 96
_cell_length_a 26.931896
_cell_length_b 26.931896
_cell_length_c 9.027979
_cell_angle_alpha 90.000000
_cell_angle_beta 90.000000
_cell_angle_gamma 90.000000
_cell_volume 6548.237124
_symmetry_space_group_name_H-M "P 42/M C M"
_symmetry_group_IT_number 132
_symmetry_cell_setting 'tetragonal'
loop_
_space_group_symop_operation_xyz
x,y,z
-y,x,1/2+z
-x,-y,z
y,-x,1/2+z
x,-y,1/2-z
-x,y,1/2-z
y,x,-z
-y,-x,-z
-x,-y,-z
y,-x,1/2-z
x,y,-z
-y,x,1/2-z
-x,y,1/2+z
x,-y,1/2+z
-y,-x,z
y,x,z
loop_
_atom_site_type_symbol
_atom_site_label
_atom_site_fract_x
_atom_site_fract_y
_atom_site_fract_z
Si Si1 0.347249 0.183457 0.667067
Si Si2 0.551547 0.187750 0.330987
Si Si3 0.760505 0.157248 0.821541
Si Si4 0.750163 0.949223 0.175826
Si Si5 0.550282 0.933131 0.169169
Si Si6 0.648644 0.064104 0.833986
O O1 0.347925 0.204191 0.500000
O O2 0.395866 0.201924 0.754685
O O3 0.290650 0.185152 0.728160
O O4 0.353035 0.123842 0.656329
O O5 0.500000 0.202397 0.250000
O O6 0.550613 0.205331 0.500000
O O7 0.551340 0.127364 0.334592
O O8 0.806841 0.193160 0.795324
O O9 0.767383 0.103480 0.745641
O O10 0.755105 0.149389 0.000000
O O11 0.691976 0.948689 0.220145
O O12 0.770828 0.000000 0.250000
O O13 0.757241 0.949961 0.000000
O O14 0.500000 0.946833 0.250000
O O15 0.595986 0.949467 0.268750
O O16 0.553264 0.950558 0.000000
O O17 0.658794 0.045077 0.000000
#
# Coordination Sequence:
#
# PCOD9567497 Si02
#       6
#    16  16  16  16  16  16
#     4   8  14  24  38  56  79 106 135 167 205 249
#     4   9  15  21  31  48  72 101 134 172 211 249
#     4   9  18  33  51  70  93 119 144 172 210 255
#     4  11  21  33  49  68  89 112 139 169 202 243
#     4   9  15  22  33  51  73  99 131 168 209 250
#     4   9  16  27  41  57  77 102 133 169 208 248
#
# _framework density 14.660435
#
# number of rings (size 3 to 8) (size 9 to 14) (size 15 to 20)
#    0.000    2.833    0.000    4.000    0.000    8.333 
#    0.000    0.000    0.000    0.500    0.000    3.500 
#    0.000    0.333    0.000    3.500    0.000    1.500 
#
# Total GULP energy -534581.617789 kJ/mol
# GULP energy per Si atom -5568.558519 kJ/mol
# Density = 1.462707 g / cm^3
# Si number density = 14.660435 Si / 1000 Ang^3
#
#
#
# Elastic Constant Matrix: (Units=GPa)
#
#
# Indices 1 2 3 4 5 6 
#
# 1 66.0001 35.2063 32.6307 0.0000 0.0000 0.0000
# 2 35.2063 66.0001 32.6307 0.0000 0.0000 0.0000
# 3 32.6307 32.6307 84.8518 0.0000 0.0000 0.0000
# 4 0.0000 0.0000 0.0000 12.7841 0.0000 0.0000
# 5 0.0000 0.0000 0.0000 0.0000 12.7841 0.0000
# 6 0.0000 0.0000 0.0000 0.0000 0.0000 -0.9501
#
#
#
# Elastic Compliance Matrix: (Units=1/GPa)
#
#
# Indices 1 2 3 4 5 6 
#
# 1 0.022806 -0.009668 -0.005053 0.000000 0.000000 0.000000
# 2 -0.009668 0.022806 -0.005053 0.000000 0.000000 0.000000
# 3 -0.005053 -0.005053 0.015671 0.000000 0.000000 0.000000
# 4 0.000000 0.000000 0.000000 0.078222 0.000000 0.000000
# 5 0.000000 0.000000 0.000000 0.000000 0.078222 0.000000
# 6 0.000000 0.000000 0.000000 0.000000 0.000000 -1.052531
#
#
# Mechanical properties :
#
#
# Convention : Reuss Voigt Hill
#
# Bulk Modulus (GPa) = 46.00148 46.42082 46.21115
# Shear Modulus (GPa) = -6.34510 12.68256 3.16873
#
# Velocity S-wave (km/s) = -2.08265 2.94443 1.47177
# Velocity P-wave (km/s) = 5.06585 6.57969 5.87176
#
# Compressibility (1/GPa) = 0.02173843
#
# Stress axis : x y z
#
# Youngs Moduli (GPa) = 43.84717 43.84717 63.81043
#
# Poissons Ratio (x) = 0.42389 0.32242
# Poissons Ratio (y) = 0.42389 0.32242
# Poissons Ratio (z) = 0.22155 0.22155
#
# Static dielectric constant tensor:
#      x y z
#    x 1.489910 0.000000 0.000000 
#    y 0.000000 1.489910 0.000000 
#    z 0.000000 0.000000 1.508150 
# 
# From -- ./inp_files/1904.got.cif
#   From: 2010.05.17/outbox.cif.g08.bks.cpg/sg132_1_cif.got.tgz:1904.got - 2010.05.20 12:30:18.
