data_PCOD9567563
_publ_section_title
;
Structure prediction by ZEFSAII (Michael W. Deem and Ramdas Pophale) SiO2 
 PCOD9567563
Probable space group: P 42/N B C
;
_chemical_formula_sum "Si O2"
_cell_formula_units_Z 64
_cell_length_a 23.749169
_cell_length_b 23.749169
_cell_length_c 5.013905
_cell_angle_alpha 90.000000
_cell_angle_beta 90.000000
_cell_angle_gamma 90.000000
_cell_volume 2827.957881
_symmetry_space_group_name_H-M "P 42/N B C"
_symmetry_group_IT_number 133
_space_group.IT_coordinate_system_code '2'
_symmetry_cell_setting 'tetragonal'
loop_
_space_group_symop_operation_xyz
x,y,z
1/2-y,x,1/2+z
1/2-x,1/2-y,z
y,1/2-x,1/2+z
x,1/2-y,-z
1/2-x,y,-z
y,x,1/2-z
1/2-y,1/2-x,1/2-z
-x,-y,-z
1/2+y,-x,1/2-z
1/2+x,1/2+y,-z
-y,1/2+x,1/2-z
-x,1/2+y,z
1/2+x,-y,z
-y,-x,1/2+z
1/2+y,1/2+x,1/2+z
loop_
_atom_site_type_symbol
_atom_site_label
_atom_site_fract_x
_atom_site_fract_y
_atom_site_fract_z
Si Si1 0.284696 0.993818 0.747092
Si Si2 0.560084 0.027715 0.913471
Si Si3 0.125996 0.683443 0.014637
Si Si4 0.576063 0.628959 0.484413
O O1 0.250000 0.019201 0.500000
O O2 0.314130 0.940491 0.599316
O O3 0.317096 0.046259 0.885202
O O4 0.250000 0.969366 0.000000
O O5 0.554067 0.074370 0.694051
O O6 0.500000 0.000000 0.000000
O O7 0.601279 0.978290 0.839443
O O8 0.158404 0.645572 0.232071
O O9 0.141971 0.750000 0.000000
O O10 0.594383 0.594383 0.750000
O O11 0.623354 0.623354 0.250000
#
# Coordination Sequence:
#
# PCOD9567563 Si02
#       4
#    16  16  16  16
#     4  11  25  45  62  87 134 178 211 264 342 424
#     4  10  16  29  44  75 121 144 179 245 299 356
#     4  11  23  41  63  89 118 159 222 283 346 405
#     4  12  22  36  61  89 118 164 213 264 304 387
#
# _framework density 22.631170000000001
#
# number of rings (size 3 to 8) (size 9 to 14) (size 15 to 20)
#    0.000    1.000    5.000    5.250    0.000    3.500 
#    0.000    0.000    0.000    0.000    0.000    0.000 
#    0.000   14.000    0.000    0.000    0.000    0.000 
#
# Total GULP energy -356384.281157 kJ/mol
# GULP energy per Si atom -5568.504393 kJ/mol
# Density = 2.257966 g / cm^3
# Si number density = 22.631170 Si / 1000 Ang^3
#
#
#
# Elastic Constant Matrix: (Units=GPa)
#
#
# Indices 1 2 3 4 5 6 
#
# 1 63.1540 34.0644 16.3875 0.0000 0.0000 0.0000
# 2 34.0644 63.1540 16.3875 0.0000 0.0000 0.0000
# 3 16.3875 16.3875 136.0021 0.0000 0.0000 0.0000
# 4 0.0000 0.0000 0.0000 38.5907 0.0000 0.0000
# 5 0.0000 0.0000 0.0000 0.0000 38.5907 0.0000
# 6 0.0000 0.0000 0.0000 0.0000 0.0000 17.0795
#
#
#
# Elastic Compliance Matrix: (Units=1/GPa)
#
#
# Indices 1 2 3 4 5 6 
#
# 1 0.022549 -0.011827 -0.001292 0.000000 0.000000 0.000000
# 2 -0.011827 0.022549 -0.001292 0.000000 0.000000 0.000000
# 3 -0.001292 -0.001292 0.007664 0.000000 0.000000 0.000000
# 4 0.000000 0.000000 0.000000 0.025913 0.000000 0.000000
# 5 0.000000 0.000000 0.000000 0.000000 0.025913 0.000000
# 6 0.000000 0.000000 0.000000 0.000000 0.000000 0.058550
#
#
# Mechanical properties :
#
#
# Convention : Reuss Voigt Hill
#
# Bulk Modulus (GPa) = 41.77130 43.99875 42.88503
# Shear Modulus (GPa) = 25.00743 31.88356 28.44549
#
# Velocity S-wave (km/s) = 3.32776 3.75752 3.54915
# Velocity P-wave (km/s) = 5.76739 6.18943 5.98214
#
# Compressibility (1/GPa) = 0.02393988
#
# Stress axis : x y z
#
# Youngs Moduli (GPa) = 44.34762 44.34762 130.47744
#
# Poissons Ratio (x) = 0.52452 0.16856
# Poissons Ratio (y) = 0.52452 0.16856
# Poissons Ratio (z) = 0.05729 0.05729
#
# Static dielectric constant tensor:
#      x y z
#    x 2.046510 0.000000 0.000000 
#    y 0.000000 2.046510 0.000000 
#    z 0.000000 0.000000 1.837420 
# 
# From -- ./inp_files/360.got.cif
#   From: 2010.05.17/outbox.cif.g08.bks.cpg/sg133_1_cif.got.tgz:360.got - 2010.05.20 12:37:36.
