data_PCOD9567717
_publ_section_title
;
Structure prediction by ZEFSAII (Michael W. Deem and Ramdas Pophale) SiO2 
 PCOD9567717
Probable space group: P 42/N B C
;
_chemical_formula_sum "Si O2"
_cell_formula_units_Z 60
_cell_length_a 17.366898
_cell_length_b 17.366898
_cell_length_c 7.452835
_cell_angle_alpha 90.000000
_cell_angle_beta 90.000000
_cell_angle_gamma 90.000000
_cell_volume 2247.843201
_symmetry_space_group_name_H-M "P 42/N B C"
_symmetry_group_IT_number 133
_space_group.IT_coordinate_system_code '2'
_symmetry_cell_setting 'tetragonal'
loop_
_space_group_symop_operation_xyz
x,y,z
1/2-y,x,1/2+z
1/2-x,1/2-y,z
y,1/2-x,1/2+z
x,1/2-y,-z
1/2-x,y,-z
y,x,1/2-z
1/2-y,1/2-x,1/2-z
-x,-y,-z
1/2+y,-x,1/2-z
1/2+x,1/2+y,-z
-y,1/2+x,1/2-z
-x,1/2+y,z
1/2+x,-y,z
-y,-x,1/2+z
1/2+y,1/2+x,1/2+z
loop_
_atom_site_type_symbol
_atom_site_label
_atom_site_fract_x
_atom_site_fract_y
_atom_site_fract_z
Si Si1 0.910505 0.490311 0.383791
Si Si2 0.250000 0.617291 0.500000
Si Si3 0.995131 0.145121 0.754506
Si Si4 0.750000 0.250000 0.750000
Si Si5 0.906057 0.778156 0.796287
O O1 0.942546 0.403578 0.380178
O O2 0.908645 0.526716 0.582337
O O3 0.829515 0.516132 0.298342
O O4 0.965112 0.534889 0.250000
O O5 0.192829 0.564929 0.383094
O O6 0.285523 0.679662 0.362635
O O7 0.063941 0.201633 0.691717
O O8 0.833226 0.833226 0.750000
O O9 0.891983 0.750000 0.000000
#
# Coordination Sequence:
#
# PCOD9567717 Si02
#       5
#    16   8  16   4  16
#     4  10  20  36  60  93 129 169 221 285 342 406
#     4  11  20  36  52  84 124 179 216 274 332 409
#     4  11  20  37  59  93 128 169 223 280 342 409
#     4  10  24  34  52  78 136 182 220 262 360 418
#     4   9  19  38  64  98 139 185 229 288 355 419
#
# _framework density 26.692253999999998
#
# number of rings (size 3 to 8) (size 9 to 14) (size 15 to 20)
#    0.000    1.867    4.000    2.400    0.000    0.000 
#    0.000    0.000    0.000    0.800    3.467    3.733 
#    0.000    0.000    0.000    0.000    0.000    0.000 
#
# Total GULP energy -334429.902459 kJ/mol
# GULP energy per Si atom -5573.831708 kJ/mol
# Density = 2.663150 g / cm^3
# Si number density = 26.692254 Si / 1000 Ang^3
#
#
#
# Elastic Constant Matrix: (Units=GPa)
#
#
# Indices 1 2 3 4 5 6 
#
# 1 148.0415 71.6167 28.9730 0.0000 0.0000 0.0000
# 2 71.6167 148.0431 28.9739 0.0000 0.0000 0.0000
# 3 28.9730 28.9739 43.9278 0.0000 0.0000 0.0000
# 4 0.0000 0.0000 0.0000 34.6577 0.0000 0.0000
# 5 0.0000 0.0000 0.0000 0.0000 34.6590 0.0000
# 6 0.0000 0.0000 0.0000 0.0000 0.0000 65.0919
#
#
#
# Elastic Compliance Matrix: (Units=1/GPa)
#
#
# Indices 1 2 3 4 5 6 
#
# 1 0.009298 -0.003787 -0.003635 0.000000 0.000000 0.000000
# 2 -0.003787 0.009298 -0.003635 0.000000 0.000000 0.000000
# 3 -0.003635 -0.003635 0.027560 0.000000 0.000000 0.000000
# 4 0.000000 0.000000 0.000000 0.028854 0.000000 0.000000
# 5 0.000000 0.000000 0.000000 0.000000 0.028853 0.000000
# 6 0.000000 0.000000 0.000000 0.000000 0.000000 0.015363
#
#
# Mechanical properties :
#
#
# Convention : Reuss Voigt Hill
#
# Bulk Modulus (GPa) = 41.59367 66.57106 54.08236
# Shear Modulus (GPa) = 33.47770 40.91164 37.19467
#
# Velocity S-wave (km/s) = 3.54533 3.91924 3.73696
# Velocity P-wave (km/s) = 5.68996 6.74351 6.23901
#
# Compressibility (1/GPa) = 0.02404212
#
# Stress axis : x y z
#
# Youngs Moduli (GPa) = 107.54914 107.54963 36.28447
#
# Poissons Ratio (x) = 0.40724 0.13190
# Poissons Ratio (y) = 0.40724 0.13191
# Poissons Ratio (z) = 0.39095 0.39098
#
# Static dielectric constant tensor:
#      x y z
#    x 2.297340 0.000000 0.000000 
#    y 0.000000 2.297330 0.000000 
#    z 0.000000 0.000000 2.151280 
# 
# From -- ./inp_files/1354.got.cif
#   From: 2010.05.17/outbox.cif.g08.bks.cpg/sg133_1_cif.got.tgz:1354.got - 2010.05.20 12:37:36.
