data_PCOD9567193
_publ_section_title
;
Structure prediction by ZEFSAII (Michael W. Deem and Ramdas Pophale) SiO2 
 PCOD9567193
Probable space group: P 42/M C M
;
_chemical_formula_sum "Si O2"
_cell_formula_units_Z 48
_cell_length_a 11.823396
_cell_length_b 11.823396
_cell_length_c 17.020766
_cell_angle_alpha 90.000000
_cell_angle_beta 90.000000
_cell_angle_gamma 90.000000
_cell_volume 2379.378716
_symmetry_space_group_name_H-M "P 42/M C M"
_symmetry_group_IT_number 132
_symmetry_cell_setting 'tetragonal'
loop_
_space_group_symop_operation_xyz
x,y,z
-y,x,1/2+z
-x,-y,z
y,-x,1/2+z
x,-y,1/2-z
-x,y,1/2-z
y,x,-z
-y,-x,-z
-x,-y,-z
y,-x,1/2-z
x,y,-z
-y,x,1/2-z
-x,y,1/2+z
x,-y,1/2+z
-y,-x,z
y,x,z
loop_
_atom_site_type_symbol
_atom_site_label
_atom_site_fract_x
_atom_site_fract_y
_atom_site_fract_z
Si Si1 0.672876 0.002705 0.343465
Si Si2 0.405162 0.594839 0.909253
Si Si3 0.174006 0.511453 0.406021
Si Si4 0.095299 0.904702 0.910363
O O1 0.628992 0.125707 0.371787
O O2 0.661897 0.000000 0.250000
O O3 0.585164 0.915728 0.383258
O O4 0.796075 0.959768 0.368663
O O5 0.500000 0.500000 0.911038
O O6 0.462763 0.707015 0.874901
O O7 0.374775 0.625226 0.000000
O O8 0.180516 0.524825 0.500000
O O9 0.127097 0.872904 0.000000
O O10 0.000000 0.000000 0.912958
#
# Coordination Sequence:
#
# PCOD9567193 Si02
#       4
#    16   8  16   8
#     4  11  23  38  63  87 127 158 209 261 321 371
#     4   9  19  35  59  91 123 157 204 257 305 358
#     4  10  19  37  64  91 121 164 215 259 306 376
#     4  11  25  43  63  89 121 165 212 255 313 386
#
# _framework density 20.173331999999998
#
# number of rings (size 3 to 8) (size 9 to 14) (size 15 to 20)
#    0.000    1.667    0.000    7.000    2.333    2.667 
#    0.000    3.333    3.667    0.000    0.000    0.000 
#    0.000    0.000    0.000    0.000    0.000    0.000 
#
# Total GULP energy -267838.965359 kJ/mol
# GULP energy per Si atom -5579.978445 kJ/mol
# Density = 2.012742 g / cm^3
# Si number density = 20.173332 Si / 1000 Ang^3
#
#
#
# Elastic Constant Matrix: (Units=GPa)
#
#
# Indices 1 2 3 4 5 6 
#
# 1 71.9857 115.8673 26.0622 0.0000 0.0000 0.0000
# 2 115.8673 71.9855 26.0618 0.0000 0.0000 0.0000
# 3 26.0622 26.0618 91.0755 0.0000 0.0000 0.0000
# 4 0.0000 0.0000 0.0000 138.9996 0.0000 0.0000
# 5 0.0000 0.0000 0.0000 0.0000 138.9997 0.0000
# 6 0.0000 0.0000 0.0000 0.0000 0.0000 38.4195
#
#
#
# Elastic Compliance Matrix: (Units=1/GPa)
#
#
# Indices 1 2 3 4 5 6 
#
# 1 -0.008503 0.014286 -0.001655 0.000000 0.000000 0.000000
# 2 0.014286 -0.008503 -0.001655 0.000000 0.000000 0.000000
# 3 -0.001655 -0.001655 0.011927 0.000000 0.000000 0.000000
# 4 0.000000 0.000000 0.000000 0.007194 0.000000 0.000000
# 5 0.000000 0.000000 0.000000 0.000000 0.007194 0.000000
# 6 0.000000 0.000000 0.000000 0.000000 0.000000 0.026028
#
#
# Mechanical properties :
#
#
# Convention : Reuss Voigt Hill
#
# Bulk Modulus (GPa) = 59.26620 63.44770 61.35695
# Shear Modulus (GPa) = 263.02112 67.75411 165.38761
#
# Velocity S-wave (km/s) = 11.43082 5.80163 9.06429
# Velocity P-wave (km/s) = 14.27097 8.74060 11.83340
#
# Compressibility (1/GPa) = 0.01687302
#
# Stress axis : x y z
#
# Youngs Moduli (GPa) = -117.60471 -117.60484 83.84396
#
# Poissons Ratio (x) = 1.68004 0.13873
# Poissons Ratio (y) = 1.68004 0.13874
# Poissons Ratio (z) = -0.19459 -0.19461
#
# Static dielectric constant tensor:
#      x y z
#    x 1.742010 0.000000 0.000000 
#    y 0.000000 1.742010 0.000000 
#    z 0.000000 0.000000 1.701430 
# 
# From -- ./inp_files/5716.got.cif
#   From: 2010.05.17/outbox.cif.g08.bks.cpg/sg132_3_cif.got.tgz:5716.got - 2010.05.20 12:30:18.
