data_PCOD9567345
_publ_section_title
;
Structure prediction by ZEFSAII (Michael W. Deem and Ramdas Pophale) SiO2 
 PCOD9567345
Probable space group: P 42/M C M
;
_chemical_formula_sum "Si O2"
_cell_formula_units_Z 112
_cell_length_a 14.215709
_cell_length_b 14.215709
_cell_length_c 26.299179
_cell_angle_alpha 90.000000
_cell_angle_beta 90.000000
_cell_angle_gamma 90.000000
_cell_volume 5314.705943
_symmetry_space_group_name_H-M "P 42/M C M"
_symmetry_group_IT_number 132
_symmetry_cell_setting 'tetragonal'
loop_
_space_group_symop_operation_xyz
x,y,z
-y,x,1/2+z
-x,-y,z
y,-x,1/2+z
x,-y,1/2-z
-x,y,1/2-z
y,x,-z
-y,-x,-z
-x,-y,-z
y,-x,1/2-z
x,y,-z
-y,x,1/2-z
-x,y,1/2+z
x,-y,1/2+z
-y,-x,z
y,x,z
loop_
_atom_site_type_symbol
_atom_site_label
_atom_site_fract_x
_atom_site_fract_y
_atom_site_fract_z
Si Si1 0.124321 0.352210 0.374137
Si Si2 0.140794 0.478807 0.805167
Si Si3 0.865145 0.712014 0.857429
Si Si4 0.495692 0.654261 0.342335
Si Si5 0.804664 0.960133 0.692301
Si Si6 0.391252 0.035681 0.057899
Si Si7 0.714468 0.439638 0.942390
O O1 0.096526 0.449312 0.345676
O O2 0.113804 0.273369 0.330528
O O3 0.216203 0.375998 0.407357
O O4 0.049714 0.332555 0.418254
O O5 0.104945 0.500000 0.750000
O O6 0.130352 0.369024 0.815222
O O7 0.251394 0.503885 0.810357
O O8 0.769312 0.769312 0.858582
O O9 0.880435 0.646717 0.907178
O O10 0.948838 0.785156 0.843471
O O11 0.409285 0.590716 0.325260
O O12 0.588287 0.588287 0.339567
O O13 0.481376 0.685916 0.401437
O O14 0.903774 0.903774 0.689598
O O15 0.792408 0.000000 0.750000
O O16 0.500000 0.000000 0.060031
O O17 0.370451 0.055187 0.000000
O O18 0.621387 0.378614 0.949633
O O19 0.750390 0.462747 0.000000
#
# Coordination Sequence:
#
# PCOD9567345 Si02
#       7
#    16  16  16  16  16  16  16
#     4  10  20  37  60  88 120 153 198 258 312 372
#     4  11  22  37  59  85 119 160 207 261 320 378
#     4  11  24  41  62  94 131 169 214 269 328 386
#     4   9  19  34  50  74 112 157 205 255 310 376
#     4  11  24  41  64  91 123 166 216 267 325 390
#     4  10  20  38  63  90 123 165 208 255 317 387
#     4   9  17  30  52  81 112 149 194 247 306 366
#
# _framework density 21.073602000000001
#
# number of rings (size 3 to 8) (size 9 to 14) (size 15 to 20)
#    0.000    1.857    1.429    2.571    0.000    3.286 
#    0.000    4.286    0.000    5.571    0.000    4.000 
#    0.000    0.000    0.000    0.000    0.000    0.000 
#
# Total GULP energy -623659.154372 kJ/mol
# GULP energy per Si atom -5568.385307 kJ/mol
# Density = 2.102564 g / cm^3
# Si number density = 21.073602 Si / 1000 Ang^3
#
#
#
# Elastic Constant Matrix: (Units=GPa)
#
#
# Indices 1 2 3 4 5 6 
#
# 1 79.2829 31.9152 28.3012 0.0000 0.0000 0.0000
# 2 31.9152 79.2829 28.3012 0.0000 0.0000 0.0000
# 3 28.3012 28.3012 131.2875 0.0000 0.0000 0.0000
# 4 0.0000 0.0000 0.0000 31.7183 0.0000 0.0000
# 5 0.0000 0.0000 0.0000 0.0000 31.7183 0.0000
# 6 0.0000 0.0000 0.0000 0.0000 0.0000 19.4467
#
#
#
# Elastic Compliance Matrix: (Units=1/GPa)
#
#
# Indices 1 2 3 4 5 6 
#
# 1 0.015606 -0.005505 -0.002178 0.000000 0.000000 0.000000
# 2 -0.005505 0.015606 -0.002178 0.000000 0.000000 0.000000
# 3 -0.002178 -0.002178 0.008556 0.000000 0.000000 0.000000
# 4 0.000000 0.000000 0.000000 0.031528 0.000000 0.000000
# 5 0.000000 0.000000 0.000000 0.000000 0.031528 0.000000
# 6 0.000000 0.000000 0.000000 0.000000 0.000000 0.051423
#
#
# Mechanical properties :
#
#
# Convention : Reuss Voigt Hill
#
# Bulk Modulus (GPa) = 49.87947 51.87651 50.87799
# Shear Modulus (GPa) = 27.67797 29.99904 28.83850
#
# Velocity S-wave (km/s) = 3.62801 3.77707 3.70329
# Velocity P-wave (km/s) = 6.42421 6.60999 6.51776
#
# Compressibility (1/GPa) = 0.02004833
#
# Stress axis : x y z
#
# Youngs Moduli (GPa) = 64.07629 64.07629 116.88155
#
# Poissons Ratio (x) = 0.35274 0.25451
# Poissons Ratio (y) = 0.35274 0.25451
# Poissons Ratio (z) = 0.13953 0.13953
#
# Static dielectric constant tensor:
#      x y z
#    x 1.941180 0.000000 0.000000 
#    y 0.000000 1.941180 0.000000 
#    z 0.000000 0.000000 1.805650 
# 
# From -- ./inp_files/9090.got.cif
#   From: 2010.05.17/outbox.cif.g08.bks.cpg/sg132_5_cif.got.tgz:9090.got - 2010.05.20 12:30:18.
