data_PCOD9567588
_publ_section_title
;
Structure prediction by ZEFSAII (Michael W. Deem and Ramdas Pophale) SiO2 
 PCOD9567588
Probable space group: P 42/N B C
;
_chemical_formula_sum "Si O2"
_cell_formula_units_Z 88
_cell_length_a 14.930130
_cell_length_b 14.930130
_cell_length_c 22.486868
_cell_angle_alpha 90.000000
_cell_angle_beta 90.000000
_cell_angle_gamma 90.000000
_cell_volume 5012.520353
_symmetry_space_group_name_H-M "P 42/N B C"
_symmetry_group_IT_number 133
_space_group.IT_coordinate_system_code '2'
_symmetry_cell_setting 'tetragonal'
loop_
_space_group_symop_operation_xyz
x,y,z
1/2-y,x,1/2+z
1/2-x,1/2-y,z
y,1/2-x,1/2+z
x,1/2-y,-z
1/2-x,y,-z
y,x,1/2-z
1/2-y,1/2-x,1/2-z
-x,-y,-z
1/2+y,-x,1/2-z
1/2+x,1/2+y,-z
-y,1/2+x,1/2-z
-x,1/2+y,z
1/2+x,-y,z
-y,-x,1/2+z
1/2+y,1/2+x,1/2+z
loop_
_atom_site_type_symbol
_atom_site_label
_atom_site_fract_x
_atom_site_fract_y
_atom_site_fract_z
Si Si1 0.578047 0.108086 0.362534
Si Si2 0.879165 0.174303 0.758623
Si Si3 0.212965 0.603611 0.388000
Si Si4 0.058810 0.447841 0.549940
Si Si5 0.521008 0.750000 0.000000
Si Si6 0.224520 0.558677 0.932319
O O1 0.569226 0.119845 0.292166
O O2 0.683480 0.125218 0.376220
O O3 0.528015 0.187973 0.396689
O O4 0.558780 0.013582 0.393040
O O5 0.777795 0.134666 0.762568
O O6 0.925306 0.176322 0.823140
O O7 0.213621 0.537677 0.444342
O O8 0.149988 0.685249 0.405746
O O9 0.160103 0.433232 0.525780
O O10 0.000000 0.500000 0.500000
O O11 0.012583 0.355222 0.566639
O O12 0.250000 0.576926 0.000000
#
# Coordination Sequence:
#
# PCOD9567588 Si02
#       6
#    16  16  16  16   8  16
#     4  10  20  33  52  78 112 144 179 222 281 329
#     4   9  16  28  48  77 110 139 170 216 278 345
#     4  10  18  31  54  82 104 139 176 220 296 343
#     4  11  21  36  53  79 109 143 182 229 277 327
#     4  10  20  36  54  72 110 142 178 234 270 326
#     4  12  20  32  55  78 108 140 179 225 274 329
#
# _framework density 17.556038999999998
#
# number of rings (size 3 to 8) (size 9 to 14) (size 15 to 20)
#    0.000    1.636    5.455    1.636    0.000    0.727 
#    0.000    1.364    0.000    0.000    0.000    0.000 
#    0.000    0.000    4.364    0.000    0.000    0.000 
#
# Total GULP energy -490469.469907 kJ/mol
# GULP energy per Si atom -5573.516703 kJ/mol
# Density = 1.751608 g / cm^3
# Si number density = 17.556039 Si / 1000 Ang^3
#
#
#
# Elastic Constant Matrix: (Units=GPa)
#
#
# Indices 1 2 3 4 5 6 
#
# 1 28.4032 6.0232 21.3503 0.0000 0.0000 0.0000
# 2 6.0232 28.4032 21.3503 0.0000 0.0000 0.0000
# 3 21.3503 21.3503 144.2446 0.0000 0.0000 0.0000
# 4 0.0000 0.0000 0.0000 3.8493 0.0000 0.0000
# 5 0.0000 0.0000 0.0000 0.0000 3.8493 0.0000
# 6 0.0000 0.0000 0.0000 0.0000 0.0000 16.9539
#
#
#
# Elastic Compliance Matrix: (Units=1/GPa)
#
#
# Indices 1 2 3 4 5 6 
#
# 1 0.040131 -0.004552 -0.005266 0.000000 0.000000 0.000000
# 2 -0.004552 0.040131 -0.005266 0.000000 0.000000 0.000000
# 3 -0.005266 -0.005266 0.008492 0.000000 0.000000 0.000000
# 4 0.000000 0.000000 0.000000 0.259785 0.000000 0.000000
# 5 0.000000 0.000000 0.000000 0.000000 0.259785 0.000000
# 6 0.000000 0.000000 0.000000 0.000000 0.000000 0.058983
#
#
# Mechanical properties :
#
#
# Convention : Reuss Voigt Hill
#
# Bulk Modulus (GPa) = 17.06910 33.16652 25.11781
# Shear Modulus (GPa) = 6.97345 15.08566 11.02956
#
# Velocity S-wave (km/s) = 1.99518 2.93454 2.50921
# Velocity P-wave (km/s) = 3.87961 5.51496 4.76793
#
# Compressibility (1/GPa) = 0.05858541
#
# Stress axis : x y z
#
# Youngs Moduli (GPa) = 24.91833 24.91833 117.76285
#
# Poissons Ratio (x) = 0.11342 0.62017
# Poissons Ratio (y) = 0.11342 0.62017
# Poissons Ratio (z) = 0.13123 0.13123
#
# Static dielectric constant tensor:
#      x y z
#    x 1.593510 0.000000 0.000000 
#    y 0.000000 1.593510 0.000000 
#    z 0.000000 0.000000 1.654600 
# 
# From -- ./inp_files/6444.got.cif
#   From: 2010.05.17/outbox.cif.g08.bks.cpg/sg133_4_cif.got.tgz:6444.got - 2010.05.20 12:37:36.
