data_PCOD9567203
_publ_section_title
;
Structure prediction by ZEFSAII (Michael W. Deem and Ramdas Pophale) SiO2 
 PCOD9567203
Probable space group: P 42/M C M
;
_chemical_formula_sum "Si O2"
_cell_formula_units_Z 72
_cell_length_a 18.376123
_cell_length_b 18.376123
_cell_length_c 14.267197
_cell_angle_alpha 90.000000
_cell_angle_beta 90.000000
_cell_angle_gamma 90.000000
_cell_volume 4817.774141
_symmetry_space_group_name_H-M "P 42/M C M"
_symmetry_group_IT_number 132
_symmetry_cell_setting 'tetragonal'
loop_
_space_group_symop_operation_xyz
x,y,z
-y,x,1/2+z
-x,-y,z
y,-x,1/2+z
x,-y,1/2-z
-x,y,1/2-z
y,x,-z
-y,-x,-z
-x,-y,-z
y,-x,1/2-z
x,y,-z
-y,x,1/2-z
-x,y,1/2+z
x,-y,1/2+z
-y,-x,z
y,x,z
loop_
_atom_site_type_symbol
_atom_site_label
_atom_site_fract_x
_atom_site_fract_y
_atom_site_fract_z
Si Si1 0.768925 0.352434 0.000000
Si Si2 0.202728 0.678325 0.205603
Si Si3 0.758859 0.488220 0.500000
Si Si4 0.581205 0.081738 0.711848
Si Si5 0.541668 0.923297 0.000000
Si Si6 0.429133 0.312049 0.188449
O O1 0.810547 0.338861 0.096442
O O2 0.730166 0.430179 0.000000
O O3 0.706546 0.293455 0.000000
O O4 0.241963 0.758038 0.216315
O O5 0.130180 0.649528 0.255999
O O6 0.262367 0.622457 0.246807
O O7 0.846150 0.500529 0.500000
O O8 0.732071 0.448495 0.593874
O O9 0.500000 0.108549 0.750000
O O10 0.581711 0.079592 0.599413
O O11 0.586930 0.000000 0.750000
O O12 0.500000 0.000000 0.000000
O O13 0.500000 0.328006 0.250000
O O14 0.384299 0.384299 0.163848
#
# Coordination Sequence:
#
# PCOD9567203 Si02
#       6
#     8  16   8  16   8  16
#     4  10  20  31  51  71  88 122 165 207 250 298
#     4  10  20  35  51  71  98 132 167 204 254 312
#     4  12  21  34  54  67  98 120 172 207 264 315
#     4  11  21  33  52  75 104 131 168 209 263 308
#     4  12  22  33  49  78  97 131 164 210 258 326
#     4  11  22  35  50  68  92 126 169 217 265 309
#
# _framework density 14.944661999999999
#
# number of rings (size 3 to 8) (size 9 to 14) (size 15 to 20)
#    0.000    1.111    6.667    2.333    0.000    0.222 
#    0.000    0.556    0.000    2.000    0.000    0.000 
#    0.000    0.444    0.000    0.000    0.000    9.111 
#
# Total GULP energy -400907.941901 kJ/mol
# GULP energy per Si atom -5568.165860 kJ/mol
# Density = 1.491065 g / cm^3
# Si number density = 14.944662 Si / 1000 Ang^3
#
#
#
# Elastic Constant Matrix: (Units=GPa)
#
#
# Indices 1 2 3 4 5 6 
#
# 1 59.7355 24.3021 32.1979 0.0000 0.0000 0.0000
# 2 24.3021 59.7393 32.1973 0.0000 0.0000 0.0000
# 3 32.1979 32.1973 137.9836 0.0000 0.0000 0.0000
# 4 0.0000 0.0000 0.0000 17.6895 0.0000 0.0000
# 5 0.0000 0.0000 0.0000 0.0000 17.6961 0.0000
# 6 0.0000 0.0000 0.0000 0.0000 0.0000 17.1490
#
#
#
# Elastic Compliance Matrix: (Units=1/GPa)
#
#
# Indices 1 2 3 4 5 6 
#
# 1 0.021356 -0.006865 -0.003381 0.000000 0.000000 0.000000
# 2 -0.006865 0.021354 -0.003381 0.000000 0.000000 0.000000
# 3 -0.003381 -0.003381 0.008825 0.000000 0.000000 0.000000
# 4 0.000000 0.000000 0.000000 0.056531 0.000000 0.000000
# 5 0.000000 0.000000 0.000000 0.000000 0.056510 0.000000
# 6 0.000000 0.000000 0.000000 0.000000 0.000000 0.058312
#
#
# Mechanical properties :
#
#
# Convention : Reuss Voigt Hill
#
# Bulk Modulus (GPa) = 41.18525 48.31699 44.75112
# Shear Modulus (GPa) = 19.36206 21.75766 20.55986
#
# Velocity S-wave (km/s) = 3.60333 3.81974 3.71311
# Velocity P-wave (km/s) = 6.70301 7.20102 6.95647
#
# Compressibility (1/GPa) = 0.02428054
#
# Stress axis : x y z
#
# Youngs Moduli (GPa) = 46.82511 46.82881 113.31223
#
# Poissons Ratio (x) = 0.32149 0.38315
# Poissons Ratio (y) = 0.32147 0.38309
# Poissons Ratio (z) = 0.15833 0.15832
#
# Static dielectric constant tensor:
#      x y z
#    x 1.513170 0.000000 0.000000 
#    y 0.000000 1.513170 0.000000 
#    z 0.000000 0.000000 0.836930 
# 
# From -- ./inp_files/3209.got.cif
#   From: 2010.05.17/outbox.cif.g08.bks.cpg/sg132_2_cif.got.tgz:3209.got - 2010.05.20 12:30:18.
