data_PCOD9567361
_publ_section_title
;
Structure prediction by ZEFSAII (Michael W. Deem and Ramdas Pophale) SiO2 
 PCOD9567361
Probable space group: P 42/M C M
;
_chemical_formula_sum "Si O2"
_cell_formula_units_Z 58
_cell_length_a 17.764523
_cell_length_b 17.764523
_cell_length_c 9.712594
_cell_angle_alpha 90.000000
_cell_angle_beta 90.000000
_cell_angle_gamma 90.000000
_cell_volume 3065.083684
_symmetry_space_group_name_H-M "P 42/M C M"
_symmetry_group_IT_number 132
_symmetry_cell_setting 'tetragonal'
loop_
_space_group_symop_operation_xyz
x,y,z
-y,x,1/2+z
-x,-y,z
y,-x,1/2+z
x,-y,1/2-z
-x,y,1/2-z
y,x,-z
-y,-x,-z
-x,-y,-z
y,-x,1/2-z
x,y,-z
-y,x,1/2-z
-x,y,1/2+z
x,-y,1/2+z
-y,-x,z
y,x,z
loop_
_atom_site_type_symbol
_atom_site_label
_atom_site_fract_x
_atom_site_fract_y
_atom_site_fract_z
Si Si1 0.500000 0.500000 0.750000
Si Si2 0.431926 0.765338 0.339481
Si Si3 0.766991 0.104799 0.000000
Si Si4 0.814403 0.935360 0.000000
Si Si5 0.619832 0.380169 0.838103
Si Si6 0.155370 0.280942 0.218230
O O1 0.555527 0.444474 0.833162
O O2 0.500000 0.798702 0.250000
O O3 0.450421 0.746763 0.500000
O O4 0.408958 0.691732 0.249382
O O5 0.361308 0.821558 0.339130
O O6 0.716360 0.118944 0.132583
O O7 0.831871 0.168130 0.000000
O O8 0.807737 0.024453 0.000000
O O9 0.768448 0.901157 0.872306
O O10 0.896990 0.896990 0.000000
O O11 0.636837 0.363164 0.000000
O O12 0.232292 0.232292 0.223936
#
# Coordination Sequence:
#
# PCOD9567361 Si02
#       6
#     2  16   8   8   8  16
#     4  12  26  44  56  86 142 172 194 240 354 400
#     4  12  25  40  62  90 123 165 216 272 321 365
#     4  10  22  37  63 101 129 163 205 257 307 377
#     4  10  20  39  65  95 129 171 201 245 315 385
#     4  12  26  39  62  87 125 168 211 259 313 388
#     4  10  21  38  63  88 126 166 216 255 308 376
#
# _framework density 18.922812
#
# number of rings (size 3 to 8) (size 9 to 14) (size 15 to 20)
#    0.000    1.103    4.138    2.276    3.862    1.379 
#    0.000    0.000    0.000    9.931    0.000    0.000 
#    0.000    0.000    0.000    0.000    0.000    0.000 
#
# Total GULP energy -323689.422312 kJ/mol
# GULP energy per Si atom -5580.852109 kJ/mol
# Density = 1.887974 g / cm^3
# Si number density = 18.922812 Si / 1000 Ang^3
#
#
#
# Elastic Constant Matrix: (Units=GPa)
#
#
# Indices 1 2 3 4 5 6 
#
# 1 63.2810 4.8282 18.7309 0.0000 0.0000 0.0000
# 2 4.8282 63.2818 18.7311 0.0000 0.0000 0.0000
# 3 18.7309 18.7311 172.0535 0.0000 0.0000 0.0000
# 4 0.0000 0.0000 0.0000 17.6094 0.0000 0.0000
# 5 0.0000 0.0000 0.0000 0.0000 17.6089 0.0000
# 6 0.0000 0.0000 0.0000 0.0000 0.0000 17.4919
#
#
#
# Elastic Compliance Matrix: (Units=1/GPa)
#
#
# Indices 1 2 3 4 5 6 
#
# 1 0.016363 -0.000745 -0.001700 0.000000 0.000000 0.000000
# 2 -0.000745 0.016362 -0.001700 0.000000 0.000000 0.000000
# 3 -0.001700 -0.001700 0.006182 0.000000 0.000000 0.000000
# 4 0.000000 0.000000 0.000000 0.056788 0.000000 0.000000
# 5 0.000000 0.000000 0.000000 0.000000 0.056789 0.000000
# 6 0.000000 0.000000 0.000000 0.000000 0.000000 0.057169
#
#
# Mechanical properties :
#
#
# Convention : Reuss Voigt Hill
#
# Bulk Modulus (GPa) = 32.66243 42.57741 37.61992
# Shear Modulus (GPa) = 21.91535 27.63046 24.77291
#
# Velocity S-wave (km/s) = 3.40684 3.82536 3.62215
# Velocity P-wave (km/s) = 5.72484 6.48541 6.11696
#
# Compressibility (1/GPa) = 0.03061621
#
# Stress axis : x y z
#
# Youngs Moduli (GPa) = 61.11482 61.11562 161.75106
#
# Poissons Ratio (x) = 0.04554 0.27501
# Poissons Ratio (y) = 0.04554 0.27501
# Poissons Ratio (z) = 0.10391 0.10391
#
# Static dielectric constant tensor:
#      x y z
#    x 1.654620 0.000000 0.000000 
#    y 0.000000 1.654620 0.000000 
#    z 0.000000 0.000000 0.789170 
# 
# From -- ./inp_files/1049.got.cif
#   From: 2010.05.17/outbox.cif.g08.bks.cpg/sg132_1_cif.got.tgz:1049.got - 2010.05.20 12:30:18.
