data_PCOD9567755
_publ_section_title
;
Structure prediction by ZEFSAII (Michael W. Deem and Ramdas Pophale) SiO2 
 PCOD9567755
Probable space group: P 42/N B C
;
_chemical_formula_sum "Si O2"
_cell_formula_units_Z 96
_cell_length_a 15.428703
_cell_length_b 15.428703
_cell_length_c 20.424117
_cell_angle_alpha 90.000000
_cell_angle_beta 90.000000
_cell_angle_gamma 90.000000
_cell_volume 4861.856404
_symmetry_space_group_name_H-M "P 42/N B C"
_symmetry_group_IT_number 133
_space_group.IT_coordinate_system_code '2'
_symmetry_cell_setting 'tetragonal'
loop_
_space_group_symop_operation_xyz
x,y,z
1/2-y,x,1/2+z
1/2-x,1/2-y,z
y,1/2-x,1/2+z
x,1/2-y,-z
1/2-x,y,-z
y,x,1/2-z
1/2-y,1/2-x,1/2-z
-x,-y,-z
1/2+y,-x,1/2-z
1/2+x,1/2+y,-z
-y,1/2+x,1/2-z
-x,1/2+y,z
1/2+x,-y,z
-y,-x,1/2+z
1/2+y,1/2+x,1/2+z
loop_
_atom_site_type_symbol
_atom_site_label
_atom_site_fract_x
_atom_site_fract_y
_atom_site_fract_z
Si Si1 0.146149 0.850464 0.500793
Si Si2 0.834191 0.564110 0.697213
Si Si3 0.658257 0.512435 0.747322
Si Si4 0.508285 0.107893 0.889431
Si Si5 0.428791 0.585327 0.636220
Si Si6 0.245553 0.354743 0.578409
O O1 0.116427 0.750000 0.500000
O O2 0.250000 0.850905 0.500000
O O3 0.117231 0.917306 0.443843
O O4 0.113130 0.885858 0.569507
O O5 0.901203 0.598798 0.750000
O O6 0.743161 0.567903 0.734378
O O7 0.860319 0.467430 0.679063
O O8 0.821200 0.611048 0.627078
O O9 0.576435 0.576435 0.750000
O O10 0.642264 0.458148 0.681032
O O11 0.660191 0.463582 0.815930
O O12 0.419658 0.164652 0.903144
O O13 0.477555 0.009179 0.881516
O O14 0.250000 0.250000 0.588798
O O15 0.250000 0.367123 0.500000
#
# Coordination Sequence:
#
# PCOD9567755 Si02
#       6
#    16  16  16  16  16  16
#     4  11  24  42  65  88 119 169 221 264 322 387
#     4  11  23  35  64  93 126 169 214 261 322 402
#     4   9  21  38  61  87 125 163 203 262 320 380
#     4  10  20  41  64  88 131 166 203 272 323 382
#     4  11  23  41  61  92 125 165 210 265 329 378
#     4  10  22  39  61  95 132 171 211 261 329 395
#
# _framework density 19.745545
#
# number of rings (size 3 to 8) (size 9 to 14) (size 15 to 20)
#    0.000    1.667    0.000    5.500    7.000    2.667 
#    3.000    0.000    0.000    2.000    0.000    0.000 
#    0.000    0.000    0.000    0.000    0.000    0.000 
#
# Total GULP energy -534828.352167 kJ/mol
# GULP energy per Si atom -5571.128668 kJ/mol
# Density = 1.970060 g / cm^3
# Si number density = 19.745545 Si / 1000 Ang^3
#
#
#
# Elastic Constant Matrix: (Units=GPa)
#
#
# Indices 1 2 3 4 5 6 
#
# 1 53.4114 9.1488 26.3708 0.0000 0.0000 0.0000
# 2 9.1488 53.4119 26.3714 0.0000 0.0000 0.0000
# 3 26.3708 26.3714 104.7356 0.0000 0.0000 0.0000
# 4 0.0000 0.0000 0.0000 18.0659 0.0000 0.0000
# 5 0.0000 0.0000 0.0000 0.0000 18.0642 0.0000
# 6 0.0000 0.0000 0.0000 0.0000 0.0000 33.5670
#
#
#
# Elastic Compliance Matrix: (Units=1/GPa)
#
#
# Indices 1 2 3 4 5 6 
#
# 1 0.021442 -0.001150 -0.005109 0.000000 0.000000 0.000000
# 2 -0.001150 0.021442 -0.005109 0.000000 0.000000 0.000000
# 3 -0.005109 -0.005109 0.012121 0.000000 0.000000 0.000000
# 4 0.000000 0.000000 0.000000 0.055353 0.000000 0.000000
# 5 0.000000 0.000000 0.000000 0.000000 0.055358 0.000000
# 6 0.000000 0.000000 0.000000 0.000000 0.000000 0.029791
#
#
# Mechanical properties :
#
#
# Convention : Reuss Voigt Hill
#
# Bulk Modulus (GPa) = 30.99083 37.26011 34.12547
# Shear Modulus (GPa) = 21.83402 23.91728 22.87565
#
# Velocity S-wave (km/s) = 3.32892 3.48411 3.40740
# Velocity P-wave (km/s) = 5.52311 5.92423 5.72718
#
# Compressibility (1/GPa) = 0.03226761
#
# Stress axis : x y z
#
# Youngs Moduli (GPa) = 46.63707 46.63726 82.50320
#
# Poissons Ratio (x) = 0.05364 0.42153
# Poissons Ratio (y) = 0.05364 0.42153
# Poissons Ratio (z) = 0.23828 0.23828
#
# Static dielectric constant tensor:
#      x y z
#    x 1.724550 0.000000 0.000000 
#    y 0.000000 1.724550 0.000000 
#    z 0.000000 0.000000 1.704980 
# 
# From -- ./inp_files/6513.got.cif
#   From: 2010.05.17/outbox.cif.g08.bks.cpg/sg133_4_cif.got.tgz:6513.got - 2010.05.20 12:37:36.
