data_PCOD9567107
_publ_section_title
;
Structure prediction by ZEFSAII (Michael W. Deem and Ramdas Pophale) SiO2 
 PCOD9567107
Probable space group: P 42/M C M
;
_chemical_formula_sum "Si O2"
_cell_formula_units_Z 68
_cell_length_a 12.539374
_cell_length_b 12.539374
_cell_length_c 23.637056
_cell_angle_alpha 90.000000
_cell_angle_beta 90.000000
_cell_angle_gamma 90.000000
_cell_volume 3716.593781
_symmetry_space_group_name_H-M "P 42/M C M"
_symmetry_group_IT_number 132
_symmetry_cell_setting 'tetragonal'
loop_
_space_group_symop_operation_xyz
x,y,z
-y,x,1/2+z
-x,-y,z
y,-x,1/2+z
x,-y,1/2-z
-x,y,1/2-z
y,x,-z
-y,-x,-z
-x,-y,-z
y,-x,1/2-z
x,y,-z
-y,x,1/2-z
-x,y,1/2+z
x,-y,1/2+z
-y,-x,z
y,x,z
loop_
_atom_site_type_symbol
_atom_site_label
_atom_site_fract_x
_atom_site_fract_y
_atom_site_fract_z
Si Si1 0.798471 0.201530 0.500000
Si Si2 0.086560 0.086560 0.105213
Si Si3 0.194641 0.632647 0.807411
Si Si4 0.990185 0.691627 0.875876
Si Si5 0.030320 0.373605 0.000000
Si Si6 0.221399 0.604100 0.674327
O O1 0.853813 0.146188 0.553926
O O2 0.676474 0.153687 0.500000
O O3 0.029166 0.183631 0.137187
O O4 0.000000 0.000000 0.086968
O O5 0.269238 0.730763 0.823898
O O6 0.080344 0.644572 0.835875
O O7 0.188294 0.629159 0.739310
O O8 0.245241 0.520874 0.826963
O O9 0.878949 0.632199 0.864351
O O10 0.017574 0.673853 0.941850
O O11 0.000000 0.500000 0.000000
O O12 0.320514 0.679487 0.659881
#
# Coordination Sequence:
#
# PCOD9567107 Si02
#       6
#     4   8  16  16   8  16
#     4   8  19  32  48  74 104 140 179 220 271 328
#     4  10  19  32  52  74 107 141 172 218 269 323
#     4  10  21  35  56  80 108 144 181 226 277 328
#     4  11  20  36  54  80 111 142 184 227 274 330
#     4  10  20  33  53  80 109 144 186 231 277 329
#     4  10  20  36  56  80 108 142 183 227 275 328
#
# _framework density 18.296322
#
# number of rings (size 3 to 8) (size 9 to 14) (size 15 to 20)
#    0.000    1.882    1.176    3.706    0.000    2.353 
#    0.000    4.118    0.000    0.000    0.000    0.000 
#    0.000    5.647    0.000    0.000    0.000    0.000 
#
# Total GULP energy -379037.277152 kJ/mol
# GULP energy per Si atom -5574.077605 kJ/mol
# Density = 1.825468 g / cm^3
# Si number density = 18.296322 Si / 1000 Ang^3
#
#
#
# Elastic Constant Matrix: (Units=GPa)
#
#
# Indices 1 2 3 4 5 6 
#
# 1 51.3403 8.2135 -2.8572 0.0000 0.0000 0.0000
# 2 8.2135 51.3405 -2.8572 0.0000 0.0000 0.0000
# 3 -2.8572 -2.8572 13.6848 0.0000 0.0000 0.0000
# 4 0.0000 0.0000 0.0000 10.9596 0.0000 0.0000
# 5 0.0000 0.0000 0.0000 0.0000 10.9594 0.0000
# 6 0.0000 0.0000 0.0000 0.0000 0.0000 16.8316
#
#
#
# Elastic Compliance Matrix: (Units=1/GPa)
#
#
# Indices 1 2 3 4 5 6 
#
# 1 0.020161 -0.003026 0.003578 0.000000 0.000000 0.000000
# 2 -0.003026 0.020161 0.003577 0.000000 0.000000 0.000000
# 3 0.003578 0.003577 0.074568 0.000000 0.000000 0.000000
# 4 0.000000 0.000000 0.000000 0.091244 0.000000 0.000000
# 5 0.000000 0.000000 0.000000 0.000000 0.091246 0.000000
# 6 0.000000 0.000000 0.000000 0.000000 0.000000 0.059412
#
#
# Mechanical properties :
#
#
# Convention : Reuss Voigt Hill
#
# Bulk Modulus (GPa) = 8.12035 13.48486 10.80260
# Shear Modulus (GPa) = 12.83423 15.34123 14.08773
#
# Velocity S-wave (km/s) = 2.65139 2.89881 2.77785
# Velocity P-wave (km/s) = 3.71767 4.31165 4.02563
#
# Compressibility (1/GPa) = 0.12314743
#
# Stress axis : x y z
#
# Youngs Moduli (GPa) = 49.60038 49.60062 13.41062
#
# Poissons Ratio (x) = 0.15011 -0.04798
# Poissons Ratio (y) = 0.15011 -0.04798
# Poissons Ratio (z) = -0.17745 -0.17744
#
# Static dielectric constant tensor:
#      x y z
#    x 1.638400 0.000000 0.000000 
#    y 0.000000 1.638400 0.000000 
#    z 0.000000 0.000000 1.659920 
# 
# From -- ./inp_files/9821.got.cif
#   From: 2010.05.17/outbox.cif.g08.bks.cpg/sg132_5_cif.got.tgz:9821.got - 2010.05.20 12:30:18.
