data_PCOD9567893
_publ_section_title
;
Structure prediction by ZEFSAII (Michael W. Deem and Ramdas Pophale) SiO2 
 PCOD9567893
Probable space group: P 42/N B C
;
_chemical_formula_sum "Si O2"
_cell_formula_units_Z 80
_cell_length_a 14.154134
_cell_length_b 14.154134
_cell_length_c 18.529874
_cell_angle_alpha 90.000000
_cell_angle_beta 90.000000
_cell_angle_gamma 90.000000
_cell_volume 3712.265864
_symmetry_space_group_name_H-M "P 42/N B C"
_symmetry_group_IT_number 133
_space_group.IT_coordinate_system_code '2'
_symmetry_cell_setting 'tetragonal'
loop_
_space_group_symop_operation_xyz
x,y,z
1/2-y,x,1/2+z
1/2-x,1/2-y,z
y,1/2-x,1/2+z
x,1/2-y,-z
1/2-x,y,-z
y,x,1/2-z
1/2-y,1/2-x,1/2-z
-x,-y,-z
1/2+y,-x,1/2-z
1/2+x,1/2+y,-z
-y,1/2+x,1/2-z
-x,1/2+y,z
1/2+x,-y,z
-y,-x,1/2+z
1/2+y,1/2+x,1/2+z
loop_
_atom_site_type_symbol
_atom_site_label
_atom_site_fract_x
_atom_site_fract_y
_atom_site_fract_z
Si Si1 0.301124 0.345439 0.831210
Si Si2 0.555248 0.432866 0.194257
Si Si3 0.468995 0.721316 0.694052
Si Si4 0.578094 0.641632 0.027496
Si Si5 0.917016 0.484279 0.076950
O O1 0.250000 0.250000 0.850299
O O2 0.340904 0.340904 0.750000
O O3 0.218722 0.421174 0.825472
O O4 0.376899 0.364521 0.892763
O O5 0.506954 0.506954 0.250000
O O6 0.668283 0.445073 0.189403
O O7 0.543149 0.328868 0.229125
O O8 0.495347 0.455881 0.123007
O O9 0.430366 0.654131 0.631155
O O10 0.473462 0.597221 0.034527
O O11 0.582265 0.750000 0.000000
O O12 0.627620 0.563312 0.975903
#
# Coordination Sequence:
#
# PCOD9567893 Si02
#       5
#    16  16  16  16  16
#     4  11  25  40  69 105 131 168 225 299 358 410
#     4  10  23  42  67  99 137 185 229 291 337 409
#     4  11  23  41  68  95 141 178 235 278 344 411
#     4  11  24  44  68 100 139 180 226 285 350 416
#     4  10  24  42  66  99 133 191 221 282 343 409
#
# _framework density 21.550180000000001
#
# number of rings (size 3 to 8) (size 9 to 14) (size 15 to 20)
#    0.000    1.400    2.000    1.800   14.000    3.200 
#    0.000    0.000    0.000    1.200    0.000    0.000 
#    0.000    0.000    0.000    0.000    0.000    0.000 
#
# Total GULP energy -446282.893278 kJ/mol
# GULP energy per Si atom -5578.536166 kJ/mol
# Density = 2.150113 g / cm^3
# Si number density = 21.550180 Si / 1000 Ang^3
#
#
#
# Elastic Constant Matrix: (Units=GPa)
#
#
# Indices 1 2 3 4 5 6 
#
# 1 93.7113 15.1991 26.6671 0.0000 0.0000 0.0000
# 2 15.1991 93.7113 26.6671 0.0000 0.0000 0.0000
# 3 26.6671 26.6671 115.8625 0.0000 0.0000 0.0000
# 4 0.0000 0.0000 0.0000 26.5352 0.0000 0.0000
# 5 0.0000 0.0000 0.0000 0.0000 26.5352 0.0000
# 6 0.0000 0.0000 0.0000 0.0000 0.0000 22.1800
#
#
#
# Elastic Compliance Matrix: (Units=1/GPa)
#
#
# Indices 1 2 3 4 5 6 
#
# 1 0.011543 -0.001194 -0.002382 0.000000 0.000000 0.000000
# 2 -0.001194 0.011543 -0.002382 0.000000 0.000000 0.000000
# 3 -0.002382 -0.002382 0.009727 0.000000 0.000000 0.000000
# 4 0.000000 0.000000 0.000000 0.037686 0.000000 0.000000
# 5 0.000000 0.000000 0.000000 0.000000 0.037686 0.000000
# 6 0.000000 0.000000 0.000000 0.000000 0.000000 0.045086
#
#
# Mechanical properties :
#
#
# Convention : Reuss Voigt Hill
#
# Bulk Modulus (GPa) = 47.85447 48.92799 48.39123
# Shear Modulus (GPa) = 29.04428 30.70019 29.87223
#
# Velocity S-wave (km/s) = 3.67516 3.77847 3.72717
# Velocity P-wave (km/s) = 6.34534 6.46446 6.40518
#
# Compressibility (1/GPa) = 0.02089669
#
# Stress axis : x y z
#
# Youngs Moduli (GPa) = 86.63591 86.63591 102.80342
#
# Poissons Ratio (x) = 0.10347 0.24485
# Poissons Ratio (y) = 0.10347 0.24485
# Poissons Ratio (z) = 0.20635 0.20635
#
# Static dielectric constant tensor:
#      x y z
#    x 1.882360 0.000000 0.000000 
#    y 0.000000 1.882360 0.000000 
#    z 0.000000 0.000000 2.227600 
# 
# From -- ./inp_files/6314.got.cif
#   From: 2010.05.17/outbox.cif.g08.bks.cpg/sg133_4_cif.got.tgz:6314.got - 2010.05.20 12:37:36.
