data_PCOD9567633
_publ_section_title
;
Structure prediction by ZEFSAII (Michael W. Deem and Ramdas Pophale) SiO2 
 PCOD9567633
Probable space group: P 42/N B C
;
_chemical_formula_sum "Si O2"
_cell_formula_units_Z 100
_cell_length_a 14.459021
_cell_length_b 14.459021
_cell_length_c 26.034143
_cell_angle_alpha 90.000000
_cell_angle_beta 90.000000
_cell_angle_gamma 90.000000
_cell_volume 5442.783543
_symmetry_space_group_name_H-M "P 42/N B C"
_symmetry_group_IT_number 133
_space_group.IT_coordinate_system_code '2'
_symmetry_cell_setting 'tetragonal'
loop_
_space_group_symop_operation_xyz
x,y,z
1/2-y,x,1/2+z
1/2-x,1/2-y,z
y,1/2-x,1/2+z
x,1/2-y,-z
1/2-x,y,-z
y,x,1/2-z
1/2-y,1/2-x,1/2-z
-x,-y,-z
1/2+y,-x,1/2-z
1/2+x,1/2+y,-z
-y,1/2+x,1/2-z
-x,1/2+y,z
1/2+x,-y,z
-y,-x,1/2+z
1/2+y,1/2+x,1/2+z
loop_
_atom_site_type_symbol
_atom_site_label
_atom_site_fract_x
_atom_site_fract_y
_atom_site_fract_z
Si Si1 0.638201 0.999006 0.555270
Si Si2 0.662128 0.066385 0.218596
Si Si3 0.648912 0.002872 0.432097
Si Si4 0.512835 0.647254 0.273913
Si Si5 0.645844 0.500887 0.103168
Si Si6 0.250000 0.750000 0.250000
Si Si7 0.139614 0.001388 0.103757
O O1 0.577860 0.086374 0.572668
O O2 0.639076 0.995785 0.493694
O O3 0.741703 0.004751 0.577395
O O4 0.583438 0.910740 0.576839
O O5 0.572810 0.086055 0.252870
O O6 0.710977 0.167299 0.215112
O O7 0.745410 0.004057 0.240809
O O8 0.634145 0.026022 0.163733
O O9 0.595846 0.915693 0.407192
O O10 0.593405 0.093224 0.412718
O O11 0.604640 0.604640 0.250000
O O12 0.512093 0.641233 0.335346
O O13 0.753227 0.503884 0.088713
#
# Coordination Sequence:
#
# PCOD9567633 Si02
#       7
#    16  16  16  16  16   4  16
#     4  10  22  38  55  78 110 144 178 224 275 322
#     4   9  19  33  52  79 107 138 173 215 262 313
#     4  10  22  38  55  79 109 142 181 223 273 326
#     4  10  19  33  54  78 106 140 175 212 260 312
#     4  10  21  35  57  84 107 142 184 223 267 316
#     4   8  16  32  52  76 108 138 172 212 260 316
#     4  10  20  36  57  81 109 139 181 226 266 319
#
# _framework density 18.372952000000002
#
# number of rings (size 3 to 8) (size 9 to 14) (size 15 to 20)
#    0.000    2.240    0.000    3.840    0.000   10.240 
#    0.000    3.200    0.000    2.400    0.000    0.000 
#    0.000    0.000    0.000    0.000    0.000    0.000 
#
# Total GULP energy -558039.129522 kJ/mol
# GULP energy per Si atom -5580.391295 kJ/mol
# Density = 1.833113 g / cm^3
# Si number density = 18.372952 Si / 1000 Ang^3
#
#
#
# Elastic Constant Matrix: (Units=GPa)
#
#
# Indices 1 2 3 4 5 6 
#
# 1 77.8452 43.3574 14.6111 0.0000 0.0000 0.0000
# 2 43.3574 77.8452 14.6111 0.0000 0.0000 0.0000
# 3 14.6111 14.6111 41.2590 0.0000 0.0000 0.0000
# 4 0.0000 0.0000 0.0000 29.0123 0.0000 0.0000
# 5 0.0000 0.0000 0.0000 0.0000 29.0123 0.0000
# 6 0.0000 0.0000 0.0000 0.0000 0.0000 11.9588
#
#
#
# Elastic Compliance Matrix: (Units=1/GPa)
#
#
# Indices 1 2 3 4 5 6 
#
# 1 0.019008 -0.009987 -0.003195 0.000000 0.000000 0.000000
# 2 -0.009987 0.019008 -0.003195 0.000000 0.000000 0.000000
# 3 -0.003195 -0.003195 0.026500 0.000000 0.000000 0.000000
# 4 0.000000 0.000000 0.000000 0.034468 0.000000 0.000000
# 5 0.000000 0.000000 0.000000 0.000000 0.034468 0.000000
# 6 0.000000 0.000000 0.000000 0.000000 0.000000 0.083621
#
#
# Mechanical properties :
#
#
# Convention : Reuss Voigt Hill
#
# Bulk Modulus (GPa) = 31.48300 38.01207 34.74753
# Shear Modulus (GPa) = 19.20019 22.28801 20.74410
#
# Velocity S-wave (km/s) = 3.23619 3.48672 3.36379
# Velocity P-wave (km/s) = 5.58002 6.07813 5.83439
#
# Compressibility (1/GPa) = 0.03176317
#
# Stress axis : x y z
#
# Youngs Moduli (GPa) = 52.60853 52.60853 37.73628
#
# Poissons Ratio (x) = 0.52543 0.12055
# Poissons Ratio (y) = 0.52543 0.12055
# Poissons Ratio (z) = 0.16806 0.16806
#
# Static dielectric constant tensor:
#      x y z
#    x 1.633490 0.000000 0.000000 
#    y 0.000000 1.633490 0.000000 
#    z 0.000000 0.000000 1.615150 
# 
# From -- ./inp_files/7177.got.cif
#   From: 2010.05.17/outbox.cif.g08.bks.cpg/sg133_4_cif.got.tgz:7177.got - 2010.05.20 12:37:36.
