data_PCOD9567097
_publ_section_title
;
Structure prediction by ZEFSAII (Michael W. Deem and Ramdas Pophale) SiO2 
 PCOD9567097
Probable space group: P 42/M C M
;
_chemical_formula_sum "Si O2"
_cell_formula_units_Z 80
_cell_length_a 19.350700
_cell_length_b 19.350700
_cell_length_c 15.042098
_cell_angle_alpha 90.000000
_cell_angle_beta 90.000000
_cell_angle_gamma 90.000000
_cell_volume 5632.507436
_symmetry_space_group_name_H-M "P 42/M C M"
_symmetry_group_IT_number 132
_symmetry_cell_setting 'tetragonal'
loop_
_space_group_symop_operation_xyz
x,y,z
-y,x,1/2+z
-x,-y,z
y,-x,1/2+z
x,-y,1/2-z
-x,y,1/2-z
y,x,-z
-y,-x,-z
-x,-y,-z
y,-x,1/2-z
x,y,-z
-y,x,1/2-z
-x,y,1/2+z
x,-y,1/2+z
-y,-x,z
y,x,z
loop_
_atom_site_type_symbol
_atom_site_label
_atom_site_fract_x
_atom_site_fract_y
_atom_site_fract_z
Si Si1 0.504173 0.920219 0.356617
Si Si2 0.750336 0.133844 0.254998
Si Si3 0.000000 0.839680 0.250000
Si Si4 0.092157 0.352600 0.898176
Si Si5 0.342307 0.928280 0.896977
Si Si6 0.058123 0.941878 0.898282
O O1 0.500000 0.918498 0.250000
O O2 0.433451 0.887799 0.391740
O O3 0.580315 0.897610 0.385480
O O4 0.500000 0.000000 0.387060
O O5 0.800167 0.199834 0.247143
O O6 0.796209 0.066635 0.277802
O O7 0.693190 0.137242 0.332159
O O8 0.710386 0.112584 0.165099
O O9 0.974828 0.882947 0.335696
O O10 0.010279 0.346327 0.870743
O O11 0.097180 0.329758 0.000000
O O12 0.322586 0.925747 0.000000
O O13 0.078313 0.921688 0.000000
O O14 0.000000 0.000000 0.906219
#
# Coordination Sequence:
#
# PCOD9567097 Si02
#       6
#    16  16   8  16  16   8
#     4   9  15  27  51  73  93 113 137 179 235 282
#     4  12  23  34  48  63  90 125 155 192 237 280
#     4  12  21  38  50  63  88 110 150 204 244 287
#     4  10  19  32  50  71  92 115 147 188 235 284
#     4  10  19  32  50  72  92 114 148 190 237 284
#     4  11  22  38  58  68  72  96 146 210 268 300
#
# _framework density 14.203265999999999
#
# number of rings (size 3 to 8) (size 9 to 14) (size 15 to 20)
#    0.000    1.500    6.000    0.600    0.000    4.800 
#    0.000    0.000    0.000    0.000    0.000    0.000 
#    0.000    0.000    0.000    0.000    0.000    8.000 
#
# Total GULP energy -445869.618217 kJ/mol
# GULP energy per Si atom -5573.370228 kJ/mol
# Density = 1.417094 g / cm^3
# Si number density = 14.203266 Si / 1000 Ang^3
#
#
#
# Elastic Constant Matrix: (Units=GPa)
#
#
# Indices 1 2 3 4 5 6 
#
# 1 69.4675 33.5660 28.5423 0.0000 0.0000 0.0000
# 2 33.5660 69.4675 28.5423 0.0000 0.0000 0.0000
# 3 28.5423 28.5423 85.5378 0.0000 0.0000 0.0000
# 4 0.0000 0.0000 0.0000 -3.6008 0.0000 0.0000
# 5 0.0000 0.0000 0.0000 0.0000 -3.6010 0.0000
# 6 0.0000 0.0000 0.0000 0.0000 0.0000 13.9081
#
#
#
# Elastic Compliance Matrix: (Units=1/GPa)
#
#
# Indices 1 2 3 4 5 6 
#
# 1 0.019880 -0.007974 -0.003973 0.000000 0.000000 0.000000
# 2 -0.007974 0.019880 -0.003973 0.000000 0.000000 0.000000
# 3 -0.003973 -0.003973 0.014342 0.000000 0.000000 0.000000
# 4 0.000000 0.000000 0.000000 -0.277716 0.000000 0.000000
# 5 0.000000 0.000000 0.000000 0.000000 -0.277698 0.000000
# 6 0.000000 0.000000 0.000000 0.000000 0.000000 0.071901
#
#
# Mechanical properties :
#
#
# Convention : Reuss Voigt Hill
#
# Bulk Modulus (GPa) = 44.91645 45.08599 45.00122
# Shear Modulus (GPa) = -12.81559 10.26273 -1.27643
#
# Velocity S-wave (km/s) = -3.00709 2.69097 -0.94902
# Velocity P-wave (km/s) = 4.43124 6.43952 5.52735
#
# Compressibility (1/GPa) = 0.02226356
#
# Stress axis : x y z
#
# Youngs Moduli (GPa) = 50.30081 50.30081 69.72420
#
# Poissons Ratio (x) = 0.40108 0.27702
# Poissons Ratio (y) = 0.40108 0.27702
# Poissons Ratio (z) = 0.19985 0.19985
#
# Static dielectric constant tensor:
#      x y z
#    x 1.472420 0.000000 0.000000 
#    y 0.000000 1.472420 0.000000 
#    z 0.000000 0.000000 1.509570 
# 
# From -- ./inp_files/4721.got.cif
#   From: 2010.05.17/outbox.cif.g08.bks.cpg/sg132_3_cif.got.tgz:4721.got - 2010.05.20 12:30:18.
