data_PCOD9567998
_publ_section_title
;
Structure prediction by ZEFSAII (Michael W. Deem and Ramdas Pophale) SiO2 
 PCOD9567998
Probable space group: P 42/N B C
;
_chemical_formula_sum "Si O2"
_cell_formula_units_Z 72
_cell_length_a 13.460027
_cell_length_b 13.460027
_cell_length_c 17.919100
_cell_angle_alpha 90.000000
_cell_angle_beta 90.000000
_cell_angle_gamma 90.000000
_cell_volume 3246.445042
_symmetry_space_group_name_H-M "P 42/N B C"
_symmetry_group_IT_number 133
_space_group.IT_coordinate_system_code '2'
_symmetry_cell_setting 'tetragonal'
loop_
_space_group_symop_operation_xyz
x,y,z
1/2-y,x,1/2+z
1/2-x,1/2-y,z
y,1/2-x,1/2+z
x,1/2-y,-z
1/2-x,y,-z
y,x,1/2-z
1/2-y,1/2-x,1/2-z
-x,-y,-z
1/2+y,-x,1/2-z
1/2+x,1/2+y,-z
-y,1/2+x,1/2-z
-x,1/2+y,z
1/2+x,-y,z
-y,-x,1/2+z
1/2+y,1/2+x,1/2+z
loop_
_atom_site_type_symbol
_atom_site_label
_atom_site_fract_x
_atom_site_fract_y
_atom_site_fract_z
Si Si1 0.467102 0.750000 0.000000
Si Si2 0.250000 0.091391 0.000000
Si Si3 0.205698 0.596104 0.231337
Si Si4 0.750000 0.750000 0.120601
Si Si5 0.379018 0.943161 0.082531
Si Si6 0.860991 0.555370 0.644699
O O1 0.411388 0.659616 0.955522
O O2 0.522889 0.806779 0.932510
O O3 0.211695 0.163321 0.065230
O O4 0.338229 0.018743 0.021558
O O5 0.131017 0.688043 0.240278
O O6 0.207378 0.574688 0.143491
O O7 0.167118 0.511134 0.285326
O O8 0.837221 0.810376 0.160654
O O9 0.449253 0.019872 0.129237
#
# Coordination Sequence:
#
# PCOD9567998 Si02
#       6
#     8   8  16   8  16  16
#     4  12  24  42  72 106 136 186 234 296 360 434
#     4   9  20  39  68  98 140 175 230 303 348 426
#     4  11  25  47  68  98 143 185 230 291 355 429
#     4   9  20  44  69 100 141 177 234 301 360 406
#     4  11  24  42  69 102 137 184 234 286 361 435
#     4  11  23  46  71 103 140 185 238 296 359 429
#
# _framework density 22.178107000000001
#
# number of rings (size 3 to 8) (size 9 to 14) (size 15 to 20)
#    0.000    1.333    2.222    4.000    3.111    0.444 
#    4.000   10.000    0.000    0.000    0.000    0.000 
#    0.000    0.000    0.000    0.000    0.000    0.000 
#
# Total GULP energy -401452.037615 kJ/mol
# GULP energy per Si atom -5575.722745 kJ/mol
# Density = 2.212763 g / cm^3
# Si number density = 22.178107 Si / 1000 Ang^3
#
#
#
# Elastic Constant Matrix: (Units=GPa)
#
#
# Indices 1 2 3 4 5 6 
#
# 1 178.7152 -33.1115 34.8372 0.0000 0.0000 0.0000
# 2 -33.1115 178.7152 34.8372 0.0000 0.0000 0.0000
# 3 34.8372 34.8372 96.9952 0.0000 0.0000 0.0000
# 4 0.0000 0.0000 0.0000 10.0482 0.0000 0.0000
# 5 0.0000 0.0000 0.0000 0.0000 10.0482 0.0000
# 6 0.0000 0.0000 0.0000 0.0000 0.0000 -0.5357
#
#
#
# Elastic Compliance Matrix: (Units=1/GPa)
#
#
# Indices 1 2 3 4 5 6 
#
# 1 0.006507 0.001786 -0.002979 0.000000 0.000000 0.000000
# 2 0.001786 0.006507 -0.002979 0.000000 0.000000 0.000000
# 3 -0.002979 -0.002979 0.012449 0.000000 0.000000 0.000000
# 4 0.000000 0.000000 0.000000 0.099520 0.000000 0.000000
# 5 0.000000 0.000000 0.000000 0.000000 0.099520 0.000000
# 6 0.000000 0.000000 0.000000 0.000000 0.000000 -1.866716
#
#
# Mechanical properties :
#
#
# Convention : Reuss Voigt Hill
#
# Bulk Modulus (GPa) = 58.40636 58.61683 58.51160
# Shear Modulus (GPa) = -3.07095 31.76965 14.34935
#
# Velocity S-wave (km/s) = -1.17800 3.78892 2.54639
# Velocity P-wave (km/s) = 4.95400 6.75489 5.92329
#
# Compressibility (1/GPa) = 0.01712142
#
# Stress axis : x y z
#
# Youngs Moduli (GPa) = 153.67887 153.67887 80.32486
#
# Poissons Ratio (x) = -0.27451 0.23926
# Poissons Ratio (y) = -0.27451 0.23926
# Poissons Ratio (z) = 0.45776 0.45776
#
# Static dielectric constant tensor:
#      x y z
#    x 1.858760 0.000000 0.000000 
#    y 0.000000 1.858760 0.000000 
#    z 0.000000 0.000000 1.830550 
# 
# From -- ./inp_files/5385.got.cif
#   From: 2010.05.17/outbox.cif.g08.bks.cpg/sg133_3_cif.got.tgz:5385.got - 2010.05.20 12:37:36.
