data_PCOD9567136
_publ_section_title
;
Structure prediction by ZEFSAII (Michael W. Deem and Ramdas Pophale) SiO2 
 PCOD9567136
Probable space group: P 42/M C M
;
_chemical_formula_sum "Si O2"
_cell_formula_units_Z 96
_cell_length_a 16.030353
_cell_length_b 16.030353
_cell_length_c 20.200156
_cell_angle_alpha 90.000000
_cell_angle_beta 90.000000
_cell_angle_gamma 90.000000
_cell_volume 5190.878877
_symmetry_space_group_name_H-M "P 42/M C M"
_symmetry_group_IT_number 132
_symmetry_cell_setting 'tetragonal'
loop_
_space_group_symop_operation_xyz
x,y,z
-y,x,1/2+z
-x,-y,z
y,-x,1/2+z
x,-y,1/2-z
-x,y,1/2-z
y,x,-z
-y,-x,-z
-x,-y,-z
y,-x,1/2-z
x,y,-z
-y,x,1/2-z
-x,y,1/2+z
x,-y,1/2+z
-y,-x,z
y,x,z
loop_
_atom_site_type_symbol
_atom_site_label
_atom_site_fract_x
_atom_site_fract_y
_atom_site_fract_z
Si Si1 0.579878 0.279231 0.295254
Si Si2 0.956860 0.177760 0.816470
Si Si3 0.594623 0.110522 0.074073
Si Si4 0.952830 0.283123 0.576444
Si Si5 0.820681 0.418397 0.423487
Si Si6 0.822177 0.316996 0.198933
O O1 0.500000 0.298920 0.250000
O O2 0.644554 0.355446 0.294715
O O3 0.563128 0.250547 0.370164
O O4 0.623465 0.199472 0.259724
O O5 0.891588 0.108413 0.842166
O O6 0.902596 0.258294 0.793537
O O7 0.000000 0.145702 0.750000
O O8 0.019795 0.211714 0.872345
O O9 0.494759 0.112796 0.080576
O O10 0.630545 0.166408 0.132532
O O11 0.644127 0.023577 0.079697
O O12 0.613337 0.142675 0.000000
O O13 0.951132 0.253651 0.500000
O O14 0.866697 0.330864 0.591046
O O15 0.792090 0.415968 0.500000
O O16 0.744900 0.255101 0.191291
#
# Coordination Sequence:
#
# PCOD9567136 Si02
#       6
#    16  16  16  16  16  16
#     4  11  22  37  56  76 103 140 185 230 274 326
#     4  10  20  34  53  77 108 145 184 227 272 317
#     4   9  16  28  49  78 110 143 174 213 268 326
#     4   9  18  32  53  82 114 144 177 218 268 326
#     4  10  19  33  54  80 111 143 176 218 270 328
#     4   9  18  32  50  74 104 139 180 225 269 318
#
# _framework density 18.493977999999998
#
# number of rings (size 3 to 8) (size 9 to 14) (size 15 to 20)
#    0.000    2.333    1.667    1.500    0.000    3.333 
#    0.000    3.333    0.000    2.000    0.000    2.333 
#    0.000    0.000    0.000    0.000    0.000    0.000 
#
# Total GULP energy -534959.810130 kJ/mol
# GULP energy per Si atom -5572.498022 kJ/mol
# Density = 1.845188 g / cm^3
# Si number density = 18.493978 Si / 1000 Ang^3
#
#
#
# Elastic Constant Matrix: (Units=GPa)
#
#
# Indices 1 2 3 4 5 6 
#
# 1 37.5034 7.7061 32.3126 0.0000 0.0000 0.0000
# 2 7.7061 37.5034 32.3126 0.0000 0.0000 0.0000
# 3 32.3126 32.3126 113.8563 0.0000 0.0000 0.0000
# 4 0.0000 0.0000 0.0000 20.9097 0.0000 0.0000
# 5 0.0000 0.0000 0.0000 0.0000 20.9097 0.0000
# 6 0.0000 0.0000 0.0000 0.0000 0.0000 -6.3963
#
#
#
# Elastic Compliance Matrix: (Units=1/GPa)
#
#
# Indices 1 2 3 4 5 6 
#
# 1 0.035389 0.001829 -0.010563 0.000000 0.000000 0.000000
# 2 0.001829 0.035389 -0.010563 0.000000 0.000000 0.000000
# 3 -0.010563 -0.010563 0.014778 0.000000 0.000000 0.000000
# 4 0.000000 0.000000 0.000000 0.047825 0.000000 0.000000
# 5 0.000000 0.000000 0.000000 0.000000 0.047825 0.000000
# 6 0.000000 0.000000 0.000000 0.000000 0.000000 -0.156341
#
#
# Mechanical properties :
#
#
# Convention : Reuss Voigt Hill
#
# Bulk Modulus (GPa) = 21.29282 37.05843 29.17562
# Shear Modulus (GPa) = 63.20188 14.85341 39.02764
#
# Velocity S-wave (km/s) = 5.85222 2.83706 4.59877
# Velocity P-wave (km/s) = 7.56327 5.55099 6.63387
#
# Compressibility (1/GPa) = 0.04696418
#
# Stress axis : x y z
#
# Youngs Moduli (GPa) = 28.25735 28.25735 67.66660
#
# Poissons Ratio (x) = -0.05168 0.71473
# Poissons Ratio (y) = -0.05168 0.71473
# Poissons Ratio (z) = 0.29847 0.29847
#
# Static dielectric constant tensor:
#      x y z
#    x 1.645850 0.000000 0.000000 
#    y 0.000000 1.645850 0.000000 
#    z 0.000000 0.000000 1.632890 
# 
# From -- ./inp_files/7880.got.cif
#   From: 2010.05.17/outbox.cif.g08.bks.cpg/sg132_4_cif.got.tgz:7880.got - 2010.05.20 12:30:18.
