data_PCOD9567885
_publ_section_title
;
Structure prediction by ZEFSAII (Michael W. Deem and Ramdas Pophale) SiO2 
 PCOD9567885
Probable space group: P 42/N B C
;
_chemical_formula_sum "Si O2"
_cell_formula_units_Z 96
_cell_length_a 13.960156
_cell_length_b 13.960156
_cell_length_c 20.823257
_cell_angle_alpha 90.000000
_cell_angle_beta 90.000000
_cell_angle_gamma 90.000000
_cell_volume 4058.160338
_symmetry_space_group_name_H-M "P 42/N B C"
_symmetry_group_IT_number 133
_space_group.IT_coordinate_system_code '2'
_symmetry_cell_setting 'tetragonal'
loop_
_space_group_symop_operation_xyz
x,y,z
1/2-y,x,1/2+z
1/2-x,1/2-y,z
y,1/2-x,1/2+z
x,1/2-y,-z
1/2-x,y,-z
y,x,1/2-z
1/2-y,1/2-x,1/2-z
-x,-y,-z
1/2+y,-x,1/2-z
1/2+x,1/2+y,-z
-y,1/2+x,1/2-z
-x,1/2+y,z
1/2+x,-y,z
-y,-x,1/2+z
1/2+y,1/2+x,1/2+z
loop_
_atom_site_type_symbol
_atom_site_label
_atom_site_fract_x
_atom_site_fract_y
_atom_site_fract_z
Si Si1 0.016333 0.073109 0.636091
Si Si2 0.526947 0.206096 0.847749
Si Si3 0.472599 0.242170 0.701106
Si Si4 0.884764 0.991165 0.997252
Si Si5 0.675810 0.666340 0.600421
Si Si6 0.117803 0.631854 0.384459
O O1 0.044129 0.145203 0.691988
O O2 0.026238 0.136907 0.571364
O O3 0.904928 0.047786 0.641481
O O4 0.071713 0.972743 0.633626
O O5 0.496370 0.220086 0.774230
O O6 0.433589 0.230800 0.890021
O O7 0.615373 0.271511 0.869627
O O8 0.383660 0.189197 0.666098
O O9 0.565795 0.208208 0.660731
O O10 0.851145 0.902032 0.954858
O O11 0.850839 0.084664 0.957886
O O12 0.000000 0.000000 0.000000
O O13 0.750000 0.750000 0.587200
#
# Coordination Sequence:
#
# PCOD9567885 Si02
#       6
#    16  16  16  16  16  16
#     4  11  23  44  68  92 137 187 223 300 360 423
#     4  12  23  40  68  96 133 188 233 286 367 433
#     4  11  24  41  64  95 140 180 232 293 361 438
#     4   9  19  45  66  91 135 181 225 279 353 436
#     4  11  23  40  67 106 136 181 237 302 365 429
#     4  10  23  41  63  99 127 177 238 285 357 433
#
# _framework density 23.656037000000001
#
# number of rings (size 3 to 8) (size 9 to 14) (size 15 to 20)
#    0.000    1.333    5.000    2.500    0.000    8.667 
#    0.000   10.000    0.000    4.000    0.000    0.000 
#    0.000    0.000    0.000    0.000    0.000    0.000 
#
# Total GULP energy -537403.144685 kJ/mol
# GULP energy per Si atom -5597.949424 kJ/mol
# Density = 2.360220 g / cm^3
# Si number density = 23.656037 Si / 1000 Ang^3
#
#
#
# Elastic Constant Matrix: (Units=GPa)
#
#
# Indices 1 2 3 4 5 6 
#
# 1 73.9728 -8.8308 8.2544 0.0000 0.0000 0.0000
# 2 -8.8308 73.9728 8.2544 0.0000 0.0000 0.0000
# 3 8.2544 8.2544 117.6694 0.0000 0.0000 0.0000
# 4 0.0000 0.0000 0.0000 18.9266 0.0000 0.0000
# 5 0.0000 0.0000 0.0000 0.0000 18.9266 0.0000
# 6 0.0000 0.0000 0.0000 0.0000 0.0000 41.0256
#
#
#
# Elastic Compliance Matrix: (Units=1/GPa)
#
#
# Indices 1 2 3 4 5 6 
#
# 1 0.013853 0.001776 -0.001096 0.000000 0.000000 0.000000
# 2 0.001776 0.013853 -0.001096 0.000000 0.000000 0.000000
# 3 -0.001096 -0.001096 0.008652 0.000000 0.000000 0.000000
# 4 0.000000 0.000000 0.000000 0.052836 0.000000 0.000000
# 5 0.000000 0.000000 0.000000 0.000000 0.052836 0.000000
# 6 0.000000 0.000000 0.000000 0.000000 0.000000 0.024375
#
#
# Mechanical properties :
#
#
# Convention : Reuss Voigt Hill
#
# Bulk Modulus (GPa) = 28.14950 31.21901 29.68425
# Shear Modulus (GPa) = 27.92059 32.97155 30.44607
#
# Velocity S-wave (km/s) = 3.43924 3.73740 3.59141
# Velocity P-wave (km/s) = 5.26274 5.64357 5.45648
#
# Compressibility (1/GPa) = 0.03552461
#
# Stress axis : x y z
#
# Youngs Moduli (GPa) = 72.18738 72.18738 115.57754
#
# Poissons Ratio (x) = -0.12821 0.12671
# Poissons Ratio (y) = -0.12821 0.12671
# Poissons Ratio (z) = 0.07914 0.07914
#
# Static dielectric constant tensor:
#      x y z
#    x 1.900420 0.000000 0.000000 
#    y 0.000000 1.900420 0.000000 
#    z 0.000000 0.000000 1.927480 
# 
# From -- ./inp_files/6515.got.cif
#   From: 2010.05.17/outbox.cif.g08.bks.cpg/sg133_4_cif.got.tgz:6515.got - 2010.05.20 12:37:36.
