data_PCOD9567780
_publ_section_title
;
Structure prediction by ZEFSAII (Michael W. Deem and Ramdas Pophale) SiO2 
 PCOD9567780
Probable space group: P 42/N B C
;
_chemical_formula_sum "Si O2"
_cell_formula_units_Z 72
_cell_length_a 17.605005
_cell_length_b 17.605005
_cell_length_c 11.383143
_cell_angle_alpha 90.000000
_cell_angle_beta 90.000000
_cell_angle_gamma 90.000000
_cell_volume 3528.048097
_symmetry_space_group_name_H-M "P 42/N B C"
_symmetry_group_IT_number 133
_space_group.IT_coordinate_system_code '2'
_symmetry_cell_setting 'tetragonal'
loop_
_space_group_symop_operation_xyz
x,y,z
1/2-y,x,1/2+z
1/2-x,1/2-y,z
y,1/2-x,1/2+z
x,1/2-y,-z
1/2-x,y,-z
y,x,1/2-z
1/2-y,1/2-x,1/2-z
-x,-y,-z
1/2+y,-x,1/2-z
1/2+x,1/2+y,-z
-y,1/2+x,1/2-z
-x,1/2+y,z
1/2+x,-y,z
-y,-x,1/2+z
1/2+y,1/2+x,1/2+z
loop_
_atom_site_type_symbol
_atom_site_label
_atom_site_fract_x
_atom_site_fract_y
_atom_site_fract_z
Si Si1 0.913154 0.045451 0.859193
Si Si2 0.572508 0.035806 0.887789
Si Si3 0.089346 0.250000 0.000000
Si Si4 0.567259 0.696037 0.758732
Si Si5 0.681375 0.606694 0.089645
O O1 0.932873 0.093558 0.741834
O O2 0.837819 0.000275 0.820205
O O3 0.910814 0.080568 0.990425
O O4 0.983163 0.985131 0.875250
O O5 0.617537 0.957576 0.907305
O O6 0.044204 0.288470 0.893047
O O7 0.143603 0.184526 0.949446
O O8 0.634011 0.634011 0.750000
O O9 0.601262 0.774369 0.711402
O O10 0.750000 0.590470 0.000000
#
# Coordination Sequence:
#
# PCOD9567780 Si02
#       5
#    16  16   8  16  16
#     4  10  21  37  60  79 110 153 215 256 312 342
#     4  10  21  37  59  80 109 159 203 258 308 351
#     4  12  27  36  56  84 128 172 209 240 293 362
#     4  12  23  39  57  83 119 167 213 257 288 366
#     4  12  24  39  54  83 124 167 204 241 304 362
#
# _framework density 20.407885
#
# number of rings (size 3 to 8) (size 9 to 14) (size 15 to 20)
#    0.000    0.889    6.667    1.000    9.333    0.889 
#    0.000    0.000    0.000    0.000    0.000    0.000 
#    0.000    0.889    1.333    0.111    0.000    0.000 
#
# Total GULP energy -401494.666967 kJ/mol
# GULP energy per Si atom -5576.314819 kJ/mol
# Density = 2.036144 g / cm^3
# Si number density = 20.407885 Si / 1000 Ang^3
#
#
#
# Elastic Constant Matrix: (Units=GPa)
#
#
# Indices 1 2 3 4 5 6 
#
# 1 31.5482 38.8948 29.1715 0.0000 0.0000 0.0000
# 2 38.8948 31.5482 29.1715 0.0000 0.0000 0.0000
# 3 29.1715 29.1715 220.3804 0.0000 0.0000 0.0000
# 4 0.0000 0.0000 0.0000 26.4479 0.0000 0.0000
# 5 0.0000 0.0000 0.0000 0.0000 26.4479 0.0000
# 6 0.0000 0.0000 0.0000 0.0000 0.0000 18.4616
#
#
#
# Elastic Compliance Matrix: (Units=1/GPa)
#
#
# Indices 1 2 3 4 5 6 
#
# 1 -0.060087 0.076031 -0.002110 0.000000 0.000000 0.000000
# 2 0.076031 -0.060087 -0.002110 0.000000 0.000000 0.000000
# 3 -0.002110 -0.002110 0.005096 0.000000 0.000000 0.000000
# 4 0.000000 0.000000 0.000000 0.037810 0.000000 0.000000
# 5 0.000000 0.000000 0.000000 0.000000 0.037810 0.000000
# 6 0.000000 0.000000 0.000000 0.000000 0.000000 0.054167
#
#
# Mechanical properties :
#
#
# Convention : Reuss Voigt Hill
#
# Bulk Modulus (GPa) = 35.03595 53.10581 44.07088
# Shear Modulus (GPa) = -41.87718 26.68742 -7.59488
#
# Velocity S-wave (km/s) = -4.53483 3.62014 -1.93122
# Velocity P-wave (km/s) = 3.19600 6.59944 4.08278
#
# Compressibility (1/GPa) = 0.02854211
#
# Stress axis : x y z
#
# Youngs Moduli (GPa) = -16.64252 -16.64252 196.21971
#
# Poissons Ratio (x) = 1.26535 0.41411
# Poissons Ratio (y) = 1.26535 0.41411
# Poissons Ratio (z) = -0.03512 -0.03512
#
# Static dielectric constant tensor:
#      x y z
#    x 1.696510 0.000000 0.000000 
#    y 0.000000 1.696510 0.000000 
#    z 0.000000 0.000000 1.918980 
# 
# From -- ./inp_files/3090.got.cif
#   From: 2010.05.17/outbox.cif.g08.bks.cpg/sg133_2_cif.got.tgz:3090.got - 2010.05.20 12:37:36.
