data_PCOD9567564
_publ_section_title
;
Structure prediction by ZEFSAII (Michael W. Deem and Ramdas Pophale) SiO2 
 PCOD9567564
Probable space group: P 42/N B C
;
_chemical_formula_sum "Si O2"
_cell_formula_units_Z 104
_cell_length_a 19.328291
_cell_length_b 19.328291
_cell_length_c 16.959152
_cell_angle_alpha 90.000000
_cell_angle_beta 90.000000
_cell_angle_gamma 90.000000
_cell_volume 6335.648049
_symmetry_space_group_name_H-M "P 42/N B C"
_symmetry_group_IT_number 133
_space_group.IT_coordinate_system_code '2'
_symmetry_cell_setting 'tetragonal'
loop_
_space_group_symop_operation_xyz
x,y,z
1/2-y,x,1/2+z
1/2-x,1/2-y,z
y,1/2-x,1/2+z
x,1/2-y,-z
1/2-x,y,-z
y,x,1/2-z
1/2-y,1/2-x,1/2-z
-x,-y,-z
1/2+y,-x,1/2-z
1/2+x,1/2+y,-z
-y,1/2+x,1/2-z
-x,1/2+y,z
1/2+x,-y,z
-y,-x,1/2+z
1/2+y,1/2+x,1/2+z
loop_
_atom_site_type_symbol
_atom_site_label
_atom_site_fract_x
_atom_site_fract_y
_atom_site_fract_z
Si Si1 0.572281 0.084847 0.459550
Si Si2 0.518975 0.981026 0.250000
Si Si3 0.849951 0.316617 0.051021
Si Si4 0.213522 0.848037 0.217279
Si Si5 0.968556 0.936738 0.097188
Si Si6 0.012745 0.216603 0.915749
Si Si7 0.474810 0.837562 0.184629
O O1 0.612907 0.147171 0.500444
O O2 0.565508 0.025250 0.526553
O O3 0.625813 0.061446 0.391350
O O4 0.494515 0.088978 0.425568
O O5 0.467377 0.998159 0.322722
O O6 0.510782 0.902396 0.224188
O O7 0.806111 0.331813 0.128064
O O8 0.929536 0.299577 0.078348
O O9 0.828798 0.250000 0.000000
O O10 0.293045 0.830316 0.231539
O O11 0.193888 0.921569 0.252505
O O12 0.950069 0.855826 0.103740
O O13 0.020173 0.275496 0.850124
O O14 0.032248 0.250000 0.000000
#
# Coordination Sequence:
#
# PCOD9567564 Si02
#       7
#    16   8  16  16  16  16  16
#     4   9  16  28  48  64  91 125 167 211 249 303
#     4  10  22  28  48  74  98 128 168 214 266 294
#     4  10  16  31  47  61  87 130 176 213 248 292
#     4  11  22  32  44  67  97 139 181 210 244 297
#     4   9  17  29  44  72  93 124 166 209 254 302
#     4  10  16  29  49  66  93 130 165 205 251 302
#     4  11  18  32  47  69  97 130 168 211 257 298
#
# _framework density 16.415053
#
# number of rings (size 3 to 8) (size 9 to 14) (size 15 to 20)
#    0.000    2.000    6.154    1.846    0.000    0.000 
#    0.000    6.154    0.000    0.000    0.000    0.000 
#    0.000    0.615    0.000    2.308    0.000    0.000 
#
# Total GULP energy -579204.144273 kJ/mol
# GULP energy per Si atom -5569.270618 kJ/mol
# Density = 1.637769 g / cm^3
# Si number density = 16.415053 Si / 1000 Ang^3
#
#
#
# Elastic Constant Matrix: (Units=GPa)
#
#
# Indices 1 2 3 4 5 6 
#
# 1 73.6817 20.1918 26.2364 0.0000 0.0000 0.0000
# 2 20.1918 73.6809 26.2368 0.0000 0.0000 0.0000
# 3 26.2364 26.2368 80.4777 0.0000 0.0000 0.0000
# 4 0.0000 0.0000 0.0000 18.2225 0.0000 0.0000
# 5 0.0000 0.0000 0.0000 0.0000 18.2219 0.0000
# 6 0.0000 0.0000 0.0000 0.0000 0.0000 -1.8573
#
#
#
# Elastic Compliance Matrix: (Units=1/GPa)
#
#
# Indices 1 2 3 4 5 6 
#
# 1 0.015861 -0.002834 -0.004247 0.000000 0.000000 0.000000
# 2 -0.002834 0.015861 -0.004247 0.000000 0.000000 0.000000
# 3 -0.004247 -0.004247 0.015195 0.000000 0.000000 0.000000
# 4 0.000000 0.000000 0.000000 0.054877 0.000000 0.000000
# 5 0.000000 0.000000 0.000000 0.000000 0.054879 0.000000
# 6 0.000000 0.000000 0.000000 0.000000 0.000000 -0.538423
#
#
# Mechanical properties :
#
#
# Convention : Reuss Voigt Hill
#
# Bulk Modulus (GPa) = 41.21887 41.46335 41.34111
# Shear Modulus (GPa) = -14.24470 17.26244 1.50887
#
# Velocity S-wave (km/s) = -2.94901 3.24639 0.95979
# Velocity P-wave (km/s) = 3.68366 6.27425 5.14469
#
# Compressibility (1/GPa) = 0.02426073
#
# Stress axis : x y z
#
# Youngs Moduli (GPa) = 63.04864 63.04756 65.81194
#
# Poissons Ratio (x) = 0.17870 0.27948
# Poissons Ratio (y) = 0.17870 0.27950
# Poissons Ratio (z) = 0.26775 0.26776
#
# Static dielectric constant tensor:
#      x y z
#    x 1.574800 0.000000 0.000000 
#    y 0.000000 1.574800 0.000000 
#    z 0.000000 0.000000 1.598990 
# 
# From -- ./inp_files/4664.got.cif
#   From: 2010.05.17/outbox.cif.g08.bks.cpg/sg133_3_cif.got.tgz:4664.got - 2010.05.20 12:37:36.
