data_PCOD9567921
_publ_section_title
;
Structure prediction by ZEFSAII (Michael W. Deem and Ramdas Pophale) SiO2 
 PCOD9567921
Probable space group: P 42/N B C
;
_chemical_formula_sum "Si O2"
_cell_formula_units_Z 48
_cell_length_a 9.460199
_cell_length_b 9.460199
_cell_length_c 23.650086
_cell_angle_alpha 90.000000
_cell_angle_beta 90.000000
_cell_angle_gamma 90.000000
_cell_volume 2116.573082
_symmetry_space_group_name_H-M "P 42/N B C"
_symmetry_group_IT_number 133
_space_group.IT_coordinate_system_code '2'
_symmetry_cell_setting 'tetragonal'
loop_
_space_group_symop_operation_xyz
x,y,z
1/2-y,x,1/2+z
1/2-x,1/2-y,z
y,1/2-x,1/2+z
x,1/2-y,-z
1/2-x,y,-z
y,x,1/2-z
1/2-y,1/2-x,1/2-z
-x,-y,-z
1/2+y,-x,1/2-z
1/2+x,1/2+y,-z
-y,1/2+x,1/2-z
-x,1/2+y,z
1/2+x,-y,z
-y,-x,1/2+z
1/2+y,1/2+x,1/2+z
loop_
_atom_site_type_symbol
_atom_site_label
_atom_site_fract_x
_atom_site_fract_y
_atom_site_fract_z
Si Si1 0.750000 0.553857 0.500000
Si Si2 0.846039 0.466061 0.052385
Si Si3 0.795952 0.085705 0.820488
Si Si4 0.429896 0.429896 0.750000
O O1 0.631472 0.624366 0.540366
O O2 0.642305 0.475471 0.456544
O O3 0.779598 0.444861 0.113346
O O4 0.750000 0.420656 0.000000
O O5 0.750000 0.250000 0.811228
O O6 0.711613 0.973565 0.782264
O O7 0.955145 0.063522 0.800039
#
# Coordination Sequence:
#
# PCOD9567921 Si02
#       4
#     8  16  16   8
#     4  10  24  44  70 114 144 186 252 292 400 440
#     4  11  25  46  73 109 144 195 241 317 378 450
#     4  12  27  51  77 109 157 195 261 316 379 454
#     4  12  26  52  72 112 146 210 248 318 374 448
#
# _framework density 22.678167999999999
#
# number of rings (size 3 to 8) (size 9 to 14) (size 15 to 20)
#    0.000    0.667    3.333    3.000   14.000    0.667 
#    6.000    0.000    0.000    0.000    0.000    0.000 
#    0.000    0.000    0.000    0.000    0.000    0.000 
#
# Total GULP energy -267859.714056 kJ/mol
# GULP energy per Si atom -5580.410710 kJ/mol
# Density = 2.262655 g / cm^3
# Si number density = 22.678168 Si / 1000 Ang^3
#
#
#
# Elastic Constant Matrix: (Units=GPa)
#
#
# Indices 1 2 3 4 5 6 
#
# 1 59.7324 27.8569 11.4414 0.0000 0.0000 0.0000
# 2 27.8569 59.7324 11.4414 0.0000 0.0000 0.0000
# 3 11.4414 11.4414 170.5684 0.0000 0.0000 0.0000
# 4 0.0000 0.0000 0.0000 100.6411 0.0000 0.0000
# 5 0.0000 0.0000 0.0000 0.0000 100.6411 0.0000
# 6 0.0000 0.0000 0.0000 0.0000 0.0000 27.8448
#
#
#
# Elastic Compliance Matrix: (Units=1/GPa)
#
#
# Indices 1 2 3 4 5 6 
#
# 1 0.021496 -0.009876 -0.000779 0.000000 0.000000 0.000000
# 2 -0.009876 0.021496 -0.000779 0.000000 0.000000 0.000000
# 3 -0.000779 -0.000779 0.005967 0.000000 0.000000 0.000000
# 4 0.000000 0.000000 0.000000 0.009936 0.000000 0.000000
# 5 0.000000 0.000000 0.000000 0.000000 0.009936 0.000000
# 6 0.000000 0.000000 0.000000 0.000000 0.000000 0.035913
#
#
# Mechanical properties :
#
#
# Convention : Reuss Voigt Hill
#
# Bulk Modulus (GPa) = 38.32811 43.50139 40.91475
# Shear Modulus (GPa) = 36.68048 61.77831 49.22939
#
# Velocity S-wave (km/s) = 4.02610 5.22498 4.66422
# Velocity P-wave (km/s) = 6.20888 7.45817 6.86202
#
# Compressibility (1/GPa) = 0.02609051
#
# Stress axis : x y z
#
# Youngs Moduli (GPa) = 46.51952 46.51952 167.57929
#
# Poissons Ratio (x) = 0.45942 0.13063
# Poissons Ratio (y) = 0.45942 0.13063
# Poissons Ratio (z) = 0.03626 0.03626
#
# Static dielectric constant tensor:
#      x y z
#    x 1.884250 0.000000 0.000000 
#    y 0.000000 1.884250 0.000000 
#    z 0.000000 0.000000 1.825910 
# 
# From -- ./inp_files/7761.got.cif
#   From: 2010.05.17/outbox.cif.g08.bks.cpg/sg133_4_cif.got.tgz:7761.got - 2010.05.20 12:37:36.
