data_PCOD9567317
_publ_section_title
;
Structure prediction by ZEFSAII (Michael W. Deem and Ramdas Pophale) SiO2 
 PCOD9567317
Probable space group: P 42/M C M
;
_chemical_formula_sum "Si O2"
_cell_formula_units_Z 104
_cell_length_a 26.515650
_cell_length_b 26.515650
_cell_length_c 8.975218
_cell_angle_alpha 90.000000
_cell_angle_beta 90.000000
_cell_angle_gamma 90.000000
_cell_volume 6310.293533
_symmetry_space_group_name_H-M "P 42/M C M"
_symmetry_group_IT_number 132
_symmetry_cell_setting 'tetragonal'
loop_
_space_group_symop_operation_xyz
x,y,z
-y,x,1/2+z
-x,-y,z
y,-x,1/2+z
x,-y,1/2-z
-x,y,1/2-z
y,x,-z
-y,-x,-z
-x,-y,-z
y,-x,1/2-z
x,y,-z
-y,x,1/2-z
-x,y,1/2+z
x,-y,1/2+z
-y,-x,z
y,x,z
loop_
_atom_site_type_symbol
_atom_site_label
_atom_site_fract_x
_atom_site_fract_y
_atom_site_fract_z
Si Si1 0.083531 0.297134 0.337056
Si Si2 0.846445 0.153556 0.179110
Si Si3 0.077869 0.547829 0.667786
Si Si4 0.334834 0.196490 0.675898
Si Si5 0.447074 0.814588 0.821117
Si Si6 0.000000 0.370925 0.250000
Si Si7 0.766675 0.233326 0.677437
Si Si8 0.199047 0.054802 0.176493
O O1 0.087519 0.271367 0.500000
O O2 0.136114 0.325477 0.310800
O O3 0.037291 0.335455 0.341101
O O4 0.071240 0.256637 0.211212
O O5 0.805533 0.194468 0.241500
O O6 0.832343 0.098776 0.243387
O O7 0.845378 0.154623 0.000000
O O8 0.054567 0.500000 0.750000
O O9 0.092942 0.534862 0.500000
O O10 0.128128 0.558507 0.761940
O O11 0.038513 0.592892 0.665049
O O12 0.328257 0.208613 0.500000
O O13 0.392584 0.209552 0.718738
O O14 0.290098 0.220835 0.770542
O O15 0.500000 0.795595 0.750000
O O16 0.450926 0.813647 0.000000
O O17 0.772396 0.227605 0.500000
O O18 0.191072 0.000000 0.250000
O O19 0.190016 0.053207 0.000000
#
# Coordination Sequence:
#
# PCOD9567317 Si02
#       8
#    16   8  16  16  16   8   8  16
#     4  11  22  36  53  74 104 139 173 215 267 320
#     4  12  24  42  64  85 115 148 176 214 267 321
#     4  11  23  35  49  66  90 128 173 224 269 316
#     4  10  21  38  57  76 107 143 178 218 273 329
#     4  10  20  36  55  74  99 135 178 225 270 322
#     4  12  23  34  50  70  98 128 179 220 270 316
#     4  12  24  36  58  88 115 141 180 227 275 330
#     4  12  25  41  61  87 114 141 175 211 258 320
#
# _framework density 16.481007999999999
#
# number of rings (size 3 to 8) (size 9 to 14) (size 15 to 20)
#    0.000    0.923    3.846    5.308    0.000    4.308 
#    0.000    0.000    0.000    0.231    0.000    1.615 
#    0.000    0.000    0.000    0.000    0.000    0.385 
#
# Total GULP energy -580423.581620 kJ/mol
# GULP energy per Si atom -5580.995977 kJ/mol
# Density = 1.644350 g / cm^3
# Si number density = 16.481008 Si / 1000 Ang^3
#
#
#
# Elastic Constant Matrix: (Units=GPa)
#
#
# Indices 1 2 3 4 5 6 
#
# 1 79.5028 34.1453 46.7994 0.0000 0.0000 0.0000
# 2 34.1453 79.5031 46.7995 0.0000 0.0000 0.0000
# 3 46.7994 46.7995 123.1689 0.0000 0.0000 0.0000
# 4 0.0000 0.0000 0.0000 15.6199 0.0000 0.0000
# 5 0.0000 0.0000 0.0000 0.0000 15.6201 0.0000
# 6 0.0000 0.0000 0.0000 0.0000 0.0000 20.2837
#
#
#
# Elastic Compliance Matrix: (Units=1/GPa)
#
#
# Indices 1 2 3 4 5 6 
#
# 1 0.017427 -0.004620 -0.004866 0.000000 0.000000 0.000000
# 2 -0.004620 0.017427 -0.004866 0.000000 0.000000 0.000000
# 3 -0.004866 -0.004866 0.011817 0.000000 0.000000 0.000000
# 4 0.000000 0.000000 0.000000 0.064021 0.000000 0.000000
# 5 0.000000 0.000000 0.000000 0.000000 0.064020 0.000000
# 6 0.000000 0.000000 0.000000 0.000000 0.000000 0.049301
#
#
# Mechanical properties :
#
#
# Convention : Reuss Voigt Hill
#
# Bulk Modulus (GPa) = 55.66095 59.74038 57.70066
# Shear Modulus (GPa) = 19.32701 20.60011 19.96356
#
# Velocity S-wave (km/s) = 3.42816 3.53927 3.48416
# Velocity P-wave (km/s) = 7.03675 7.28208 7.16046
#
# Compressibility (1/GPa) = 0.01796592
#
# Stress axis : x y z
#
# Youngs Moduli (GPa) = 57.38263 57.38288 84.62565
#
# Poissons Ratio (x) = 0.26512 0.41179
# Poissons Ratio (y) = 0.26512 0.41179
# Poissons Ratio (z) = 0.27923 0.27923
#
# Static dielectric constant tensor:
#      x y z
#    x 1.562810 0.000000 0.000000 
#    y 0.000000 1.562810 0.000000 
#    z 0.000000 0.000000 1.575080 
# 
# From -- ./inp_files/2049.got.cif
#   From: 2010.05.17/outbox.cif.g08.bks.cpg/sg132_2_cif.got.tgz:2049.got - 2010.05.20 12:30:18.
