data_PCOD9567608
_publ_section_title
;
Structure prediction by ZEFSAII (Michael W. Deem and Ramdas Pophale) SiO2 
 PCOD9567608
Probable space group: P 42/N B C
;
_chemical_formula_sum "Si O2"
_cell_formula_units_Z 112
_cell_length_a 15.595973
_cell_length_b 15.595973
_cell_length_c 26.037817
_cell_angle_alpha 90.000000
_cell_angle_beta 90.000000
_cell_angle_gamma 90.000000
_cell_volume 6333.292114
_symmetry_space_group_name_H-M "P 42/N B C"
_symmetry_group_IT_number 133
_space_group.IT_coordinate_system_code '2'
_symmetry_cell_setting 'tetragonal'
loop_
_space_group_symop_operation_xyz
x,y,z
1/2-y,x,1/2+z
1/2-x,1/2-y,z
y,1/2-x,1/2+z
x,1/2-y,-z
1/2-x,y,-z
y,x,1/2-z
1/2-y,1/2-x,1/2-z
-x,-y,-z
1/2+y,-x,1/2-z
1/2+x,1/2+y,-z
-y,1/2+x,1/2-z
-x,1/2+y,z
1/2+x,-y,z
-y,-x,1/2+z
1/2+y,1/2+x,1/2+z
loop_
_atom_site_type_symbol
_atom_site_label
_atom_site_fract_x
_atom_site_fract_y
_atom_site_fract_z
Si Si1 0.488442 0.002552 0.868929
Si Si2 0.442386 0.850433 0.059338
Si Si3 0.343032 0.935921 0.439407
Si Si4 0.912119 0.250395 0.557715
Si Si5 0.513265 0.303411 0.339349
Si Si6 0.976370 0.634851 0.715624
Si Si7 0.333812 0.655607 0.731727
O O1 0.470858 0.915972 0.901653
O O2 0.509243 0.079176 0.907606
O O3 0.399399 0.022503 0.839666
O O4 0.567346 0.989383 0.830487
O O5 0.461985 0.752988 0.075110
O O6 0.340752 0.867805 0.066090
O O7 0.462139 0.859508 0.998590
O O8 0.349152 0.832145 0.440084
O O9 0.949521 0.250000 0.500000
O O10 0.979392 0.268717 0.602760
O O11 0.467729 0.231016 0.305753
O O12 0.609950 0.313689 0.316251
O O13 0.064038 0.634393 0.748924
O O14 0.898888 0.601113 0.750000
O O15 0.231037 0.651836 0.725895
#
# Coordination Sequence:
#
# PCOD9567608 Si02
#       7
#    16  16  16  16  16  16  16
#     4  11  21  35  56  86 110 149 189 234 285 340
#     4  10  18  35  55  82 117 155 183 228 285 341
#     4   9  20  33  54  85 118 148 190 228 278 349
#     4   9  17  31  53  86 121 145 173 224 295 361
#     4  10  20  36  54  83 116 145 193 231 282 348
#     4  11  21  37  55  80 112 149 189 239 288 337
#     4   9  19  35  55  84 110 141 180 231 290 349
#
# _framework density 17.684325999999999
#
# number of rings (size 3 to 8) (size 9 to 14) (size 15 to 20)
#    0.000    2.143    2.857    0.857    0.000    4.000 
#   10.286    0.000    0.000    0.857    3.714    2.000 
#    0.000    0.000    0.000    0.000    0.000    0.000 
#
# Total GULP energy -624422.147522 kJ/mol
# GULP energy per Si atom -5575.197746 kJ/mol
# Density = 1.764408 g / cm^3
# Si number density = 17.684326 Si / 1000 Ang^3
#
#
#
# Elastic Constant Matrix: (Units=GPa)
#
#
# Indices 1 2 3 4 5 6 
#
# 1 73.7546 39.4533 27.5033 0.0000 0.0000 0.0000
# 2 39.4533 73.7539 27.5036 0.0000 0.0000 0.0000
# 3 27.5033 27.5036 49.6959 0.0000 0.0000 0.0000
# 4 0.0000 0.0000 0.0000 20.6909 0.0000 0.0000
# 5 0.0000 0.0000 0.0000 0.0000 20.6909 0.0000
# 6 0.0000 0.0000 0.0000 0.0000 0.0000 19.3130
#
#
#
# Elastic Compliance Matrix: (Units=1/GPa)
#
#
# Indices 1 2 3 4 5 6 
#
# 1 0.020618 -0.008536 -0.006687 0.000000 0.000000 0.000000
# 2 -0.008536 0.020618 -0.006687 0.000000 0.000000 0.000000
# 3 -0.006687 -0.006687 0.027524 0.000000 0.000000 0.000000
# 4 0.000000 0.000000 0.000000 0.048330 0.000000 0.000000
# 5 0.000000 0.000000 0.000000 0.000000 0.048330 0.000000
# 6 0.000000 0.000000 0.000000 0.000000 0.000000 0.051778
#
#
# Mechanical properties :
#
#
# Convention : Reuss Voigt Hill
#
# Bulk Modulus (GPa) = 40.09406 42.90276 41.49841
# Shear Modulus (GPa) = 18.56447 18.98859 18.77653
#
# Velocity S-wave (km/s) = 3.24353 3.28037 3.26200
# Velocity P-wave (km/s) = 6.06206 6.21778 6.14042
#
# Compressibility (1/GPa) = 0.02494135
#
# Stress axis : x y z
#
# Youngs Moduli (GPa) = 48.50151 48.50064 36.33215
#
# Poissons Ratio (x) = 0.41399 0.24294
# Poissons Ratio (y) = 0.41399 0.24295
# Poissons Ratio (z) = 0.32431 0.32432
#
# Static dielectric constant tensor:
#      x y z
#    x 1.594220 0.000000 0.000000 
#    y 0.000000 1.594220 0.000000 
#    z 0.000000 0.000000 1.644120 
# 
# From -- ./inp_files/7669.got.cif
#   From: 2010.05.17/outbox.cif.g08.bks.cpg/sg133_4_cif.got.tgz:7669.got - 2010.05.20 12:37:36.
