data_PCOD9567987
_publ_section_title
;
Structure prediction by ZEFSAII (Michael W. Deem and Ramdas Pophale) SiO2 
 PCOD9567987
Probable space group: P 42/N B C
;
_chemical_formula_sum "Si O2"
_cell_formula_units_Z 96
_cell_length_a 14.160940
_cell_length_b 14.160940
_cell_length_c 20.790496
_cell_angle_alpha 90.000000
_cell_angle_beta 90.000000
_cell_angle_gamma 90.000000
_cell_volume 4169.164353
_symmetry_space_group_name_H-M "P 42/N B C"
_symmetry_group_IT_number 133
_space_group.IT_coordinate_system_code '2'
_symmetry_cell_setting 'tetragonal'
loop_
_space_group_symop_operation_xyz
x,y,z
1/2-y,x,1/2+z
1/2-x,1/2-y,z
y,1/2-x,1/2+z
x,1/2-y,-z
1/2-x,y,-z
y,x,1/2-z
1/2-y,1/2-x,1/2-z
-x,-y,-z
1/2+y,-x,1/2-z
1/2+x,1/2+y,-z
-y,1/2+x,1/2-z
-x,1/2+y,z
1/2+x,-y,z
-y,-x,1/2+z
1/2+y,1/2+x,1/2+z
loop_
_atom_site_type_symbol
_atom_site_label
_atom_site_fract_x
_atom_site_fract_y
_atom_site_fract_z
Si Si1 0.649683 0.517176 0.345621
Si Si2 0.909354 0.048151 0.115624
Si Si3 0.698317 0.948551 0.429473
Si Si4 0.343802 0.021558 0.979355
Si Si5 0.898875 0.208706 0.731790
Si Si6 0.810885 0.334850 0.566520
O O1 0.538841 0.539375 0.348018
O O2 0.721273 0.589661 0.380975
O O3 0.686233 0.488648 0.276107
O O4 0.670305 0.426554 0.391049
O O5 0.898429 0.005060 0.044313
O O6 0.818986 0.071996 0.159672
O O7 0.958793 0.148744 0.102996
O O8 0.750000 0.954186 0.500000
O O9 0.598956 0.894610 0.437115
O O10 0.250000 0.073730 0.000000
O O11 0.314284 0.920124 0.950713
O O12 0.813982 0.139614 0.755958
O O13 0.750000 0.250000 0.597968
O O14 0.750000 0.349641 0.500000
#
# Coordination Sequence:
#
# PCOD9567987 Si02
#       6
#    16  16  16  16  16  16
#     4  12  24  44  71  97 143 185 241 296 363 441
#     4  12  25  46  69 101 141 191 241 296 368 450
#     4  12  24  44  69 102 142 186 236 304 370 448
#     4  12  25  41  66 102 139 181 233 296 375 438
#     4  11  27  43  69 104 142 189 240 304 365 429
#     4  11  23  36  66 103 135 174 224 294 372 427
#
# _framework density 23.026198000000001
#
# number of rings (size 3 to 8) (size 9 to 14) (size 15 to 20)
#    0.000    0.333    6.667    3.500    4.667    0.333 
#    0.000    0.000    0.000    0.000    0.000    2.333 
#    0.000    0.000    0.000    0.000    0.000    0.000 
#
# Total GULP energy -535331.499016 kJ/mol
# GULP energy per Si atom -5576.369781 kJ/mol
# Density = 2.297379 g / cm^3
# Si number density = 23.026198 Si / 1000 Ang^3
#
#
#
# Elastic Constant Matrix: (Units=GPa)
#
#
# Indices 1 2 3 4 5 6 
#
# 1 89.7462 22.2329 22.3286 0.0000 0.0000 0.0000
# 2 22.2329 89.7462 22.3286 0.0000 0.0000 0.0000
# 3 22.3286 22.3286 86.1908 0.0000 0.0000 0.0000
# 4 0.0000 0.0000 0.0000 24.3635 0.0000 0.0000
# 5 0.0000 0.0000 0.0000 0.0000 24.3635 0.0000
# 6 0.0000 0.0000 0.0000 0.0000 0.0000 37.9839
#
#
#
# Elastic Compliance Matrix: (Units=1/GPa)
#
#
# Indices 1 2 3 4 5 6 
#
# 1 0.012386 -0.002426 -0.002580 0.000000 0.000000 0.000000
# 2 -0.002426 0.012386 -0.002580 0.000000 0.000000 0.000000
# 3 -0.002580 -0.002580 0.012939 0.000000 0.000000 0.000000
# 4 0.000000 0.000000 0.000000 0.041045 0.000000 0.000000
# 5 0.000000 0.000000 0.000000 0.000000 0.041045 0.000000
# 6 0.000000 0.000000 0.000000 0.000000 0.000000 0.026327
#
#
# Mechanical properties :
#
#
# Convention : Reuss Voigt Hill
#
# Bulk Modulus (GPa) = 44.37119 44.38483 44.37801
# Shear Modulus (GPa) = 29.61870 30.59503 30.10686
#
# Velocity S-wave (km/s) = 3.59040 3.64910 3.61987
# Velocity P-wave (km/s) = 6.04150 6.08869 6.06514
#
# Compressibility (1/GPa) = 0.02253714
#
# Stress axis : x y z
#
# Youngs Moduli (GPa) = 80.73940 80.73940 77.28618
#
# Poissons Ratio (x) = 0.19590 0.19940
# Poissons Ratio (y) = 0.19590 0.19940
# Poissons Ratio (z) = 0.20831 0.20831
#
# Static dielectric constant tensor:
#      x y z
#    x 1.961320 0.000000 0.000000 
#    y 0.000000 1.961320 0.000000 
#    z 0.000000 0.000000 2.052510 
# 
# From -- ./inp_files/6533.got.cif
#   From: 2010.05.17/outbox.cif.g08.bks.cpg/sg133_4_cif.got.tgz:6533.got - 2010.05.20 12:37:36.
