data_PCOD9567127
_publ_section_title
;
Structure prediction by ZEFSAII (Michael W. Deem and Ramdas Pophale) SiO2 
 PCOD9567127
Probable space group: P 42/M C M
;
_chemical_formula_sum "Si O2"
_cell_formula_units_Z 96
_cell_length_a 26.145602
_cell_length_b 26.145602
_cell_length_c 8.895327
_cell_angle_alpha 90.000000
_cell_angle_beta 90.000000
_cell_angle_gamma 90.000000
_cell_volume 6080.778857
_symmetry_space_group_name_H-M "P 42/M C M"
_symmetry_group_IT_number 132
_symmetry_cell_setting 'tetragonal'
loop_
_space_group_symop_operation_xyz
x,y,z
-y,x,1/2+z
-x,-y,z
y,-x,1/2+z
x,-y,1/2-z
-x,y,1/2-z
y,x,-z
-y,-x,-z
-x,-y,-z
y,-x,1/2-z
x,y,-z
-y,x,1/2-z
-x,y,1/2+z
x,-y,1/2+z
-y,-x,z
y,x,z
loop_
_atom_site_type_symbol
_atom_site_label
_atom_site_fract_x
_atom_site_fract_y
_atom_site_fract_z
Si Si1 0.841934 0.305348 0.825226
Si Si2 0.182011 0.574721 0.827904
Si Si3 0.551467 0.079313 0.676007
Si Si4 0.743891 0.256110 0.680180
Si Si5 0.947141 0.334054 0.681086
Si Si6 0.553580 0.699356 0.320753
Si Si7 0.658401 0.341600 0.680961
O O1 0.821601 0.363868 0.820351
O O2 0.798693 0.272304 0.744685
O O3 0.896784 0.306117 0.743674
O O4 0.847558 0.291136 0.000000
O O5 0.139704 0.554290 0.714133
O O6 0.239462 0.558042 0.795020
O O7 0.168498 0.559603 0.000000
O O8 0.500000 0.058845 0.750000
O O9 0.548771 0.070710 0.500000
O O10 0.606151 0.058303 0.731156
O O11 0.745128 0.254873 0.500000
O O12 0.701132 0.298869 0.724569
O O13 0.947732 0.332569 0.500000
O O14 0.000000 0.314213 0.750000
O O15 0.500000 0.681585 0.250000
O O16 0.554250 0.690918 0.500000
O O17 0.603413 0.674463 0.245911
O O18 0.656691 0.343310 0.500000
#
# Coordination Sequence:
#
# PCOD9567127 Si02
#       7
#    16  16  16   8  16  16   8
#     4  10  19  33  53  76 102 133 167 205 252 302
#     4   9  18  31  48  70  96 126 158 195 242 294
#     4  10  20  31  45  64  89 120 160 207 252 295
#     4  11  21  33  53  81 110 136 165 206 254 307
#     4  10  21  36  51  69  93 127 169 213 255 300
#     4  11  22  36  53  75 101 129 160 195 238 296
#     4  11  23  37  55  78 104 133 161 197 244 296
#
# _framework density 15.787451000000001
#
# number of rings (size 3 to 8) (size 9 to 14) (size 15 to 20)
#    0.000    1.833    1.667    3.000    0.000    6.333 
#    0.000    1.667    0.000    0.250    0.000    1.750 
#    0.000    0.000    0.000    0.000    0.000    0.417 
#
# Total GULP energy -536053.822625 kJ/mol
# GULP energy per Si atom -5583.893986 kJ/mol
# Density = 1.575152 g / cm^3
# Si number density = 15.787451 Si / 1000 Ang^3
#
#
#
# Elastic Constant Matrix: (Units=GPa)
#
#
# Indices 1 2 3 4 5 6 
#
# 1 95.5318 48.3479 45.3031 0.0000 0.0000 0.0000
# 2 48.3479 95.5317 45.3031 0.0000 0.0000 0.0000
# 3 45.3031 45.3031 63.1552 0.0000 0.0000 0.0000
# 4 0.0000 0.0000 0.0000 21.3491 0.0000 0.0000
# 5 0.0000 0.0000 0.0000 0.0000 21.3491 0.0000
# 6 0.0000 0.0000 0.0000 0.0000 0.0000 0.2565
#
#
#
# Elastic Compliance Matrix: (Units=1/GPa)
#
#
# Indices 1 2 3 4 5 6 
#
# 1 0.016935 -0.004259 -0.009093 0.000000 0.000000 0.000000
# 2 -0.004259 0.016935 -0.009093 0.000000 0.000000 0.000000
# 3 -0.009093 -0.009093 0.028880 0.000000 0.000000 0.000000
# 4 0.000000 0.000000 0.000000 0.046840 0.000000 0.000000
# 5 0.000000 0.000000 0.000000 0.000000 0.046840 0.000000
# 6 0.000000 0.000000 0.000000 0.000000 0.000000 3.898366
#
#
# Mechanical properties :
#
#
# Convention : Reuss Voigt Hill
#
# Bulk Modulus (GPa) = 55.99164 59.12521 57.55842
# Shear Modulus (GPa) = 1.21784 16.27525 8.74655
#
# Velocity S-wave (km/s) = 0.87924 3.21424 2.35631
# Velocity P-wave (km/s) = 6.04762 7.16291 6.62876
#
# Compressibility (1/GPa) = 0.01785981
#
# Stress axis : x y z
#
# Youngs Moduli (GPa) = 59.04872 59.04863 34.62622
#
# Poissons Ratio (x) = 0.25146 0.31487
# Poissons Ratio (y) = 0.25146 0.31487
# Poissons Ratio (z) = 0.53695 0.53695
#
# Static dielectric constant tensor:
#      x y z
#    x 1.521660 0.000000 0.000000 
#    y 0.000000 1.521660 0.000000 
#    z 0.000000 0.000000 1.532640 
# 
# From -- ./inp_files/1842.got.cif
#   From: 2010.05.17/outbox.cif.g08.bks.cpg/sg132_1_cif.got.tgz:1842.got - 2010.05.20 12:30:18.
