data_PCOD9567087
_publ_section_title
;
Structure prediction by ZEFSAII (Michael W. Deem and Ramdas Pophale) SiO2 
 PCOD9567087
Probable space group: P 42/M C M
;
_chemical_formula_sum "Si O2"
_cell_formula_units_Z 88
_cell_length_a 18.214005
_cell_length_b 18.214005
_cell_length_c 15.415705
_cell_angle_alpha 90.000000
_cell_angle_beta 90.000000
_cell_angle_gamma 90.000000
_cell_volume 5114.159797
_symmetry_space_group_name_H-M "P 42/M C M"
_symmetry_group_IT_number 132
_symmetry_cell_setting 'tetragonal'
loop_
_space_group_symop_operation_xyz
x,y,z
-y,x,1/2+z
-x,-y,z
y,-x,1/2+z
x,-y,1/2-z
-x,y,1/2-z
y,x,-z
-y,-x,-z
-x,-y,-z
y,-x,1/2-z
x,y,-z
-y,x,1/2-z
-x,y,1/2+z
x,-y,1/2+z
-y,-x,z
y,x,z
loop_
_atom_site_type_symbol
_atom_site_label
_atom_site_fract_x
_atom_site_fract_y
_atom_site_fract_z
Si Si1 0.419029 0.088897 0.104803
Si Si2 0.061009 0.938992 0.598638
Si Si3 0.276381 0.841673 0.648488
Si Si4 0.734144 0.850812 0.644394
Si Si5 0.078345 0.414495 0.396040
Si Si6 0.214903 0.007300 0.849875
O O1 0.363557 0.152135 0.135351
O O2 0.503454 0.098268 0.133715
O O3 0.397112 0.005517 0.134356
O O4 0.417676 0.089262 0.000000
O O5 0.082367 0.917634 0.500000
O O6 0.027195 0.870097 0.647135
O O7 0.000000 0.000000 0.592869
O O8 0.227066 0.772935 0.616451
O O9 0.260991 0.846973 0.751178
O O10 0.250654 0.919980 0.609128
O O11 0.780865 0.780865 0.611531
O O12 0.648319 0.863272 0.625606
O O13 0.769669 0.927412 0.611045
O O14 0.073326 0.417620 0.500000
O O15 0.239442 0.000000 0.750000
#
# Coordination Sequence:
#
# PCOD9567087 Si02
#       6
#    16   8  16  16  16  16
#     4   9  18  32  49  69  93 121 155 195 240 287
#     4  11  24  34  42  62  82 108 162 212 239 275
#     4  10  19  32  47  69  93 120 161 196 231 281
#     4  10  20  32  47  68  93 121 159 198 232 278
#     4   9  18  32  49  69  92 121 156 194 241 288
#     4  10  20  33  47  61  85 125 159 191 237 278
#
# _framework density 17.207128000000001
#
# number of rings (size 3 to 8) (size 9 to 14) (size 15 to 20)
#    0.000    2.273    2.727    1.636    2.545    2.909 
#    0.000    1.818    0.000    0.000    0.000    0.000 
#    0.000    0.727    0.000    8.000    0.000    5.818 
#
# Total GULP energy -490099.592978 kJ/mol
# GULP energy per Si atom -5569.313557 kJ/mol
# Density = 1.716796 g / cm^3
# Si number density = 17.207128 Si / 1000 Ang^3
#
#
#
# Elastic Constant Matrix: (Units=GPa)
#
#
# Indices 1 2 3 4 5 6 
#
# 1 108.6935 76.8611 6.1860 0.0000 0.0000 0.0000
# 2 76.8611 108.6935 6.1861 0.0000 0.0000 0.0000
# 3 6.1860 6.1861 30.9468 0.0000 0.0000 0.0000
# 4 0.0000 0.0000 0.0000 99.5684 0.0000 0.0000
# 5 0.0000 0.0000 0.0000 0.0000 99.6105 0.0000
# 6 0.0000 0.0000 0.0000 0.0000 0.0000 21.6152
#
#
#
# Elastic Compliance Matrix: (Units=1/GPa)
#
#
# Indices 1 2 3 4 5 6 
#
# 1 0.018438 -0.012976 -0.001092 0.000000 0.000000 0.000000
# 2 -0.012976 0.018438 -0.001092 0.000000 0.000000 0.000000
# 3 -0.001092 -0.001092 0.032750 0.000000 0.000000 0.000000
# 4 0.000000 0.000000 0.000000 0.010043 0.000000 0.000000
# 5 0.000000 0.000000 0.000000 0.000000 0.010039 0.000000
# 6 0.000000 0.000000 0.000000 0.000000 0.000000 0.046264
#
#
# Mechanical properties :
#
#
# Convention : Reuss Voigt Hill
#
# Bulk Modulus (GPa) = 25.44092 47.42226 36.43159
# Shear Modulus (GPa) = 27.87146 54.76551 41.31848
#
# Velocity S-wave (km/s) = 4.02899 5.64768 4.90556
# Velocity P-wave (km/s) = 6.03829 8.37543 7.30099
#
# Compressibility (1/GPa) = 0.03930675
#
# Stress axis : x y z
#
# Youngs Moduli (GPa) = 54.23486 54.23485 30.53438
#
# Poissons Ratio (x) = 0.70377 0.03334
# Poissons Ratio (y) = 0.70377 0.03334
# Poissons Ratio (z) = 0.05921 0.05922
#
# Static dielectric constant tensor:
#      x y z
#    x 1.607940 0.000000 0.000000 
#    y 0.000000 1.607940 0.000000 
#    z 0.000000 0.000000 1.653370 
# 
# From -- ./inp_files/4763.got.cif
#   From: 2010.05.17/outbox.cif.g08.bks.cpg/sg132_3_cif.got.tgz:4763.got - 2010.05.20 12:30:18.
