data_PCOD9567661
_publ_section_title
;
Structure prediction by ZEFSAII (Michael W. Deem and Ramdas Pophale) SiO2 
 PCOD9567661
Probable space group: P 42/N B C
;
_chemical_formula_sum "Si O2"
_cell_formula_units_Z 112
_cell_length_a 13.739002
_cell_length_b 13.739002
_cell_length_c 28.450445
_cell_angle_alpha 90.000000
_cell_angle_beta 90.000000
_cell_angle_gamma 90.000000
_cell_volume 5370.311004
_symmetry_space_group_name_H-M "P 42/N B C"
_symmetry_group_IT_number 133
_space_group.IT_coordinate_system_code '2'
_symmetry_cell_setting 'tetragonal'
loop_
_space_group_symop_operation_xyz
x,y,z
1/2-y,x,1/2+z
1/2-x,1/2-y,z
y,1/2-x,1/2+z
x,1/2-y,-z
1/2-x,y,-z
y,x,1/2-z
1/2-y,1/2-x,1/2-z
-x,-y,-z
1/2+y,-x,1/2-z
1/2+x,1/2+y,-z
-y,1/2+x,1/2-z
-x,1/2+y,z
1/2+x,-y,z
-y,-x,1/2+z
1/2+y,1/2+x,1/2+z
loop_
_atom_site_type_symbol
_atom_site_label
_atom_site_fract_x
_atom_site_fract_y
_atom_site_fract_z
Si Si1 0.986119 0.156583 0.088554
Si Si2 0.250000 0.250000 0.857495
Si Si3 0.275556 0.413012 0.782282
Si Si4 0.555645 0.485079 0.166243
Si Si5 0.567894 0.932107 0.250000
Si Si6 0.929058 0.849548 0.088971
Si Si7 0.926028 0.866085 0.512309
Si Si8 0.359527 0.864038 0.506234
O O1 0.984894 0.272237 0.090942
O O2 0.895414 0.116352 0.059047
O O3 0.081350 0.126090 0.056799
O O4 0.972146 0.113951 0.139821
O O5 0.230955 0.341100 0.822474
O O6 0.163248 0.210305 0.890020
O O7 0.347433 0.347433 0.750000
O O8 0.341010 0.494790 0.807995
O O9 0.184418 0.447900 0.751529
O O10 0.474769 0.490589 0.206103
O O11 0.551023 0.564248 0.124969
O O12 0.911594 0.883731 0.035756
O O13 0.916352 0.750000 0.500000
O O14 0.040464 0.889330 0.520371
O O15 0.351138 0.750000 0.500000
O O16 0.250000 0.905136 0.500000
#
# Coordination Sequence:
#
# PCOD9567661 Si02
#       8
#    16   8  16  16   8  16  16  16
#     4  12  24  41  65  94 134 179 220 278 336 400
#     4  10  19  36  67 100 130 166 210 280 340 400
#     4  11  21  43  69 100 133 165 221 279 342 412
#     4  11  27  41  65 105 130 171 220 277 344 421
#     4  12  23  44  72  95 130 174 208 280 356 387
#     4  11  23  40  64 102 137 170 226 277 340 401
#     4  11  23  41  66  97 137 175 228 284 341 400
#     4  10  22  40  60  85 125 186 227 262 319 394
#
# _framework density 20.855402000000002
#
# number of rings (size 3 to 8) (size 9 to 14) (size 15 to 20)
#    0.000    1.000    3.571    3.429    4.000    1.714 
#    0.000    0.000    0.000    2.143    0.000    0.000 
#    0.000    0.000    0.000    0.000    0.000    0.000 
#
# Total GULP energy -624232.893890 kJ/mol
# GULP energy per Si atom -5573.507981 kJ/mol
# Density = 2.080793 g / cm^3
# Si number density = 20.855402 Si / 1000 Ang^3
#
#
#
# Elastic Constant Matrix: (Units=GPa)
#
#
# Indices 1 2 3 4 5 6 
#
# 1 93.4291 22.2270 28.6591 0.0000 0.0000 0.0000
# 2 22.2270 93.4287 28.6591 0.0000 0.0000 0.0000
# 3 28.6591 28.6591 74.3621 0.0000 0.0000 0.0000
# 4 0.0000 0.0000 0.0000 19.9665 0.0000 0.0000
# 5 0.0000 0.0000 0.0000 0.0000 19.9668 0.0000
# 6 0.0000 0.0000 0.0000 0.0000 0.0000 20.4694
#
#
#
# Elastic Compliance Matrix: (Units=1/GPa)
#
#
# Indices 1 2 3 4 5 6 
#
# 1 0.012366 -0.001678 -0.004119 0.000000 0.000000 0.000000
# 2 -0.001678 0.012366 -0.004119 0.000000 0.000000 0.000000
# 3 -0.004119 -0.004119 0.016623 0.000000 0.000000 0.000000
# 4 0.000000 0.000000 0.000000 0.050084 0.000000 0.000000
# 5 0.000000 0.000000 0.000000 0.000000 0.050083 0.000000
# 6 0.000000 0.000000 0.000000 0.000000 0.000000 0.048853
#
#
# Mechanical properties :
#
#
# Convention : Reuss Voigt Hill
#
# Bulk Modulus (GPa) = 46.46425 46.70115 46.58270
# Shear Modulus (GPa) = 23.00096 24.19220 23.59658
#
# Velocity S-wave (km/s) = 3.32456 3.40957 3.36733
# Velocity P-wave (km/s) = 6.08807 6.15968 6.12398
#
# Compressibility (1/GPa) = 0.02152192
#
# Stress axis : x y z
#
# Youngs Moduli (GPa) = 80.86628 80.86580 60.15889
#
# Poissons Ratio (x) = 0.13573 0.24780
# Poissons Ratio (y) = 0.13573 0.24780
# Poissons Ratio (z) = 0.33309 0.33309
#
# Static dielectric constant tensor:
#      x y z
#    x 1.787820 0.000000 0.000000 
#    y 0.000000 1.787820 0.000000 
#    z 0.000000 0.000000 1.763700 
# 
# From -- ./inp_files/7706.got.cif
#   From: 2010.05.17/outbox.cif.g08.bks.cpg/sg133_4_cif.got.tgz:7706.got - 2010.05.20 12:37:36.
