data_PCOD9567286
_publ_section_title
;
Structure prediction by ZEFSAII (Michael W. Deem and Ramdas Pophale) SiO2 
 PCOD9567286
Probable space group: P 42/M C M
;
_chemical_formula_sum "Si O2"
_cell_formula_units_Z 64
_cell_length_a 19.775466
_cell_length_b 19.775466
_cell_length_c 8.966316
_cell_angle_alpha 90.000000
_cell_angle_beta 90.000000
_cell_angle_gamma 90.000000
_cell_volume 3506.448730
_symmetry_space_group_name_H-M "P 42/M C M"
_symmetry_group_IT_number 132
_symmetry_cell_setting 'tetragonal'
loop_
_space_group_symop_operation_xyz
x,y,z
-y,x,1/2+z
-x,-y,z
y,-x,1/2+z
x,-y,1/2-z
-x,y,1/2-z
y,x,-z
-y,-x,-z
-x,-y,-z
y,-x,1/2-z
x,y,-z
-y,x,1/2-z
-x,y,1/2+z
x,-y,1/2+z
-y,-x,z
y,x,z
loop_
_atom_site_type_symbol
_atom_site_label
_atom_site_fract_x
_atom_site_fract_y
_atom_site_fract_z
Si Si1 0.425905 0.318287 0.179717
Si Si2 0.074104 0.925897 0.181450
Si Si3 0.668457 0.192852 0.323772
Si Si4 0.187167 0.187167 0.678212
Si Si5 0.065956 0.427547 0.174503
O O1 0.500000 0.310980 0.250000
O O2 0.389318 0.389318 0.215919
O O3 0.372958 0.259410 0.226503
O O4 0.432098 0.313225 0.000000
O O5 0.130792 0.869209 0.220622
O O6 0.000000 0.908535 0.250000
O O7 0.069597 0.930404 0.000000
O O8 0.683477 0.201918 0.500000
O O9 0.737452 0.174851 0.240529
O O10 0.617815 0.130976 0.305882
O O11 0.188466 0.188466 0.500000
O O12 0.076564 0.500000 0.250000
O O13 0.000000 0.395948 0.250000
O O14 0.053501 0.436976 0.000000
#
# Coordination Sequence:
#
# PCOD9567286 Si02
#       5
#    16   8  16   8  16
#     4  10  21  38  59  82 111 146 190 238 288 351
#     4  10  22  41  64  92 122 157 199 241 288 339
#     4  10  21  39  59  80 113 155 192 233 288 346
#     4  11  24  38  59  90 119 147 190 241 282 334
#     4  10  20  34  55  81 112 150 189 234 282 337
#
# _framework density 18.252085000000001
#
# number of rings (size 3 to 8) (size 9 to 14) (size 15 to 20)
#    0.000    1.875    1.250    3.375    0.000    6.750 
#    0.000    6.250    0.000    0.000    0.000    0.000 
#    0.000    0.000    0.000    0.000    0.000    0.000 
#
# Total GULP energy -357065.299343 kJ/mol
# GULP energy per Si atom -5579.145302 kJ/mol
# Density = 1.821054 g / cm^3
# Si number density = 18.252085 Si / 1000 Ang^3
#
#
#
# Elastic Constant Matrix: (Units=GPa)
#
#
# Indices 1 2 3 4 5 6 
#
# 1 132.0468 83.7769 52.3811 0.0000 0.0000 0.0000
# 2 83.7769 132.0469 52.3811 0.0000 0.0000 0.0000
# 3 52.3811 52.3811 70.5405 0.0000 0.0000 0.0000
# 4 0.0000 0.0000 0.0000 54.5879 0.0000 0.0000
# 5 0.0000 0.0000 0.0000 0.0000 54.5879 0.0000
# 6 0.0000 0.0000 0.0000 0.0000 0.0000 41.8645
#
#
#
# Elastic Compliance Matrix: (Units=1/GPa)
#
#
# Indices 1 2 3 4 5 6 
#
# 1 0.013981 -0.006736 -0.005380 0.000000 0.000000 0.000000
# 2 -0.006736 0.013981 -0.005380 0.000000 0.000000 0.000000
# 3 -0.005380 -0.005380 0.022166 0.000000 0.000000 0.000000
# 4 0.000000 0.000000 0.000000 0.018319 0.000000 0.000000
# 5 0.000000 0.000000 0.000000 0.000000 0.018319 0.000000
# 6 0.000000 0.000000 0.000000 0.000000 0.000000 0.023887
#
#
# Mechanical properties :
#
#
# Convention : Reuss Voigt Hill
#
# Bulk Modulus (GPa) = 66.06551 79.07916 72.57234
# Shear Modulus (GPa) = 33.18100 39.94773 36.56437
#
# Velocity S-wave (km/s) = 4.26834 4.68339 4.48068
# Velocity P-wave (km/s) = 7.78244 8.52442 8.16187
#
# Compressibility (1/GPa) = 0.01513649
#
# Stress axis : x y z
#
# Youngs Moduli (GPa) = 71.52668 71.52673 45.11445
#
# Poissons Ratio (x) = 0.48181 0.24270
# Poissons Ratio (y) = 0.48181 0.24270
# Poissons Ratio (z) = 0.38479 0.38479
#
# Static dielectric constant tensor:
#      x y z
#    x 1.628180 0.000000 0.000000 
#    y 0.000000 1.628180 0.000000 
#    z 0.000000 0.000000 1.619530 
# 
# From -- ./inp_files/1285.got.cif
#   From: 2010.05.17/outbox.cif.g08.bks.cpg/sg132_1_cif.got.tgz:1285.got - 2010.05.20 12:30:18.
