data_PCOD9567184
_publ_section_title
;
Structure prediction by ZEFSAII (Michael W. Deem and Ramdas Pophale) SiO2 
 PCOD9567184
Probable space group: P 42/M C M
;
_chemical_formula_sum "Si O2"
_cell_formula_units_Z 112
_cell_length_a 14.933182
_cell_length_b 14.933182
_cell_length_c 25.973071
_cell_angle_alpha 90.000000
_cell_angle_beta 90.000000
_cell_angle_gamma 90.000000
_cell_volume 5791.992876
_symmetry_space_group_name_H-M "P 42/M C M"
_symmetry_group_IT_number 132
_symmetry_cell_setting 'tetragonal'
loop_
_space_group_symop_operation_xyz
x,y,z
-y,x,1/2+z
-x,-y,z
y,-x,1/2+z
x,-y,1/2-z
-x,y,1/2-z
y,x,-z
-y,-x,-z
-x,-y,-z
y,-x,1/2-z
x,y,-z
-y,x,1/2-z
-x,y,1/2+z
x,-y,1/2+z
-y,-x,z
y,x,z
loop_
_atom_site_type_symbol
_atom_site_label
_atom_site_fract_x
_atom_site_fract_y
_atom_site_fract_z
Si Si1 0.213662 0.061394 0.639713
Si Si2 0.277096 0.871733 0.639561
Si Si3 0.446210 0.771462 0.199331
Si Si4 0.352694 0.352694 0.442074
Si Si5 0.860757 0.642881 0.558136
Si Si6 0.865043 0.277310 0.242341
Si Si7 0.096268 0.475878 0.884429
Si Si8 0.425702 0.574299 0.161707
O O1 0.124513 0.124513 0.637433
O O2 0.286822 0.103264 0.600369
O O3 0.252887 0.064205 0.698201
O O4 0.211308 0.955578 0.628080
O O5 0.220945 0.779056 0.632552
O O6 0.310033 0.879722 0.699481
O O7 0.370172 0.886237 0.608303
O O8 0.500000 0.795198 0.250000
O O9 0.345527 0.800206 0.212340
O O10 0.486039 0.827532 0.152770
O O11 0.454001 0.667467 0.187183
O O12 0.378778 0.378778 0.500000
O O13 0.365557 0.246239 0.436134
O O14 0.404659 0.404659 0.397934
O O15 0.879639 0.674342 0.500000
O O16 0.900271 0.543893 0.567441
O O17 0.815697 0.184304 0.252116
O O18 0.000000 0.500000 0.859741
O O19 0.500000 0.500000 0.168149
#
# Coordination Sequence:
#
# PCOD9567184 Si02
#       8
#    16  16  16   8  16  16  16   8
#     4  11  21  38  64  91 124 159 200 254 313 370
#     4  11  24  40  58  90 129 168 206 244 301 379
#     4  12  23  36  57  85 125 163 204 253 302 358
#     4  10  20  41  66  90 117 152 206 269 323 364
#     4  11  22  38  66  96 120 151 202 265 320 367
#     4  10  19  35  59  85 121 163 203 247 301 358
#     4  12  23  39  62  91 120 158 207 258 308 368
#     4  12  26  39  58  86 126 171 217 254 300 376
#
# _framework density 19.337040999999999
#
# number of rings (size 3 to 8) (size 9 to 14) (size 15 to 20)
#    0.000    0.857    7.143    0.429    1.000    1.571 
#    0.000    0.000    0.000    4.286    0.000    1.000 
#    0.000    0.000    0.000    0.000    0.000    0.000 
#
# Total GULP energy -624264.354888 kJ/mol
# GULP energy per Si atom -5573.788883 kJ/mol
# Density = 1.929303 g / cm^3
# Si number density = 19.337041 Si / 1000 Ang^3
#
#
#
# Elastic Constant Matrix: (Units=GPa)
#
#
# Indices 1 2 3 4 5 6 
#
# 1 72.1885 33.1016 -5.1959 0.0000 0.0000 0.0000
# 2 33.1016 72.1885 -5.1959 0.0000 0.0000 0.0000
# 3 -5.1959 -5.1959 40.8879 0.0000 0.0000 0.0000
# 4 0.0000 0.0000 0.0000 16.5012 0.0000 0.0000
# 5 0.0000 0.0000 0.0000 0.0000 16.5012 0.0000
# 6 0.0000 0.0000 0.0000 0.0000 0.0000 25.8652
#
#
#
# Elastic Compliance Matrix: (Units=1/GPa)
#
#
# Indices 1 2 3 4 5 6 
#
# 1 0.017601 -0.007983 0.001222 0.000000 0.000000 0.000000
# 2 -0.007983 0.017601 0.001222 0.000000 0.000000 0.000000
# 3 0.001222 0.001222 0.024768 0.000000 0.000000 0.000000
# 4 0.000000 0.000000 0.000000 0.060602 0.000000 0.000000
# 5 0.000000 0.000000 0.000000 0.000000 0.060602 0.000000
# 6 0.000000 0.000000 0.000000 0.000000 0.000000 0.038662
#
#
# Mechanical properties :
#
#
# Convention : Reuss Voigt Hill
#
# Bulk Modulus (GPa) = 20.45276 25.63161 23.04218
# Shear Modulus (GPa) = 20.22571 22.61051 21.41811
#
# Velocity S-wave (km/s) = 3.23763 3.42319 3.33170
# Velocity P-wave (km/s) = 4.95745 5.37664 5.17130
#
# Compressibility (1/GPa) = 0.04889316
#
# Stress axis : x y z
#
# Youngs Moduli (GPa) = 56.81458 56.81458 40.37507
#
# Poissons Ratio (x) = 0.45355 -0.04935
# Poissons Ratio (y) = 0.45355 -0.04935
# Poissons Ratio (z) = -0.06944 -0.06944
#
# Static dielectric constant tensor:
#      x y z
#    x 1.318090 0.000000 0.000000 
#    y 0.000000 1.318090 0.000000 
#    z 0.000000 0.000000 1.696210 
# 
# From -- ./inp_files/10097.got.cif
#   From: 2010.05.17/outbox.cif.g08.bks.cpg/sg132_6_cif.got.tgz:10097.got - 2010.05.20 12:30:18.
