data_PCOD9567066
_publ_section_title
;
Structure prediction by ZEFSAII (Michael W. Deem and Ramdas Pophale) SiO2 
 PCOD9567066
Probable space group: P 42/M C M
;
_chemical_formula_sum "Si O2"
_cell_formula_units_Z 120
_cell_length_a 20.239792
_cell_length_b 20.239792
_cell_length_c 15.130952
_cell_angle_alpha 90.000000
_cell_angle_beta 90.000000
_cell_angle_gamma 90.000000
_cell_volume 6198.382082
_symmetry_space_group_name_H-M "P 42/M C M"
_symmetry_group_IT_number 132
_symmetry_cell_setting 'tetragonal'
loop_
_space_group_symop_operation_xyz
x,y,z
-y,x,1/2+z
-x,-y,z
y,-x,1/2+z
x,-y,1/2-z
-x,y,1/2-z
y,x,-z
-y,-x,-z
-x,-y,-z
y,-x,1/2-z
x,y,-z
-y,x,1/2-z
-x,y,1/2+z
x,-y,1/2+z
-y,-x,z
y,x,z
loop_
_atom_site_type_symbol
_atom_site_label
_atom_site_fract_x
_atom_site_fract_y
_atom_site_fract_z
Si Si1 0.252655 0.359465 0.893961
Si Si2 0.990621 0.796584 0.145116
Si Si3 0.606079 0.497212 0.356063
Si Si4 0.506905 0.752056 0.400864
Si Si5 0.053363 0.053363 0.894259
Si Si6 0.145349 0.748684 0.648507
Si Si7 0.241530 0.865046 0.138432
Si Si8 0.758548 0.348387 0.896642
O O1 0.316204 0.316204 0.861237
O O2 0.239934 0.433764 0.859165
O O3 0.188921 0.314411 0.875209
O O4 0.261142 0.365696 0.000000
O O5 0.060778 0.772963 0.107834
O O6 0.000000 0.787723 0.250000
O O7 0.969679 0.873142 0.132761
O O8 0.928513 0.753811 0.112686
O O9 0.616734 0.500000 0.250000
O O10 0.572479 0.427522 0.378074
O O11 0.553066 0.553066 0.377238
O O12 0.673020 0.510087 0.404637
O O13 0.504885 0.781666 0.500000
O O14 0.578055 0.769017 0.358224
O O15 0.052490 0.052490 0.000000
O O16 0.000000 0.000000 0.860995
O O17 0.188147 0.811854 0.617977
O O18 0.138818 0.754038 0.754688
O O19 0.179587 0.820414 0.110847
O O20 0.306135 0.825641 0.107700
O O21 0.699164 0.300837 0.859900
O O22 0.742504 0.358711 0.000000
#
# Coordination Sequence:
#
# PCOD9567066 Si02
#       8
#    16  16  16  16   8  16  16  16
#     4   9  18  31  48  70  98 129 159 205 261 303
#     4  10  20  34  55  76 101 140 173 201 244 296
#     4   9  18  30  42  61  93 127 156 191 244 306
#     4  10  19  31  48  70  93 122 167 209 251 307
#     4  11  24  34  46  80 116 140 170 204 241 291
#     4   9  17  32  50  74  98 126 168 202 239 298
#     4   9  18  32  51  74  98 127 168 205 239 292
#     4   9  18  32  49  69  95 128 163 206 256 298
#
# _framework density 19.359891999999999
#
# number of rings (size 3 to 8) (size 9 to 14) (size 15 to 20)
#    0.000    2.600    0.667    1.600    1.867    3.733 
#    0.000    4.667    0.000    0.800    0.000    5.600 
#    0.000    0.000    0.000    0.000    0.000    0.000 
#
# Total GULP energy -668748.335090 kJ/mol
# GULP energy per Si atom -5572.902792 kJ/mol
# Density = 1.931583 g / cm^3
# Si number density = 19.359892 Si / 1000 Ang^3
#
#
#
# Elastic Constant Matrix: (Units=GPa)
#
#
# Indices 1 2 3 4 5 6 
#
# 1 138.8856 95.0608 4.1737 0.0000 0.0000 0.0000
# 2 95.0608 138.8856 4.1737 0.0000 0.0000 0.0000
# 3 4.1737 4.1737 38.1233 0.0000 0.0000 0.0000
# 4 0.0000 0.0000 0.0000 9.5166 0.0000 0.0000
# 5 0.0000 0.0000 0.0000 0.0000 9.5166 0.0000
# 6 0.0000 0.0000 0.0000 0.0000 0.0000 21.7480
#
#
#
# Elastic Compliance Matrix: (Units=1/GPa)
#
#
# Indices 1 2 3 4 5 6 
#
# 1 0.013555 -0.009263 -0.000470 0.000000 0.000000 0.000000
# 2 -0.009263 0.013555 -0.000470 0.000000 0.000000 0.000000
# 3 -0.000470 -0.000470 0.026334 0.000000 0.000000 0.000000
# 4 0.000000 0.000000 0.000000 0.105079 0.000000 0.000000
# 5 0.000000 0.000000 0.000000 0.000000 0.105079 0.000000
# 6 0.000000 0.000000 0.000000 0.000000 0.000000 0.045981
#
#
# Mechanical properties :
#
#
# Convention : Reuss Voigt Hill
#
# Bulk Modulus (GPa) = 30.26925 58.07901 44.17413
# Shear Modulus (GPa) = 14.66273 22.32201 18.49237
#
# Velocity S-wave (km/s) = 2.75503 3.39927 3.09397
# Velocity P-wave (km/s) = 5.07831 6.74326 5.96912
#
# Compressibility (1/GPa) = 0.03303682
#
# Stress axis : x y z
#
# Youngs Moduli (GPa) = 73.77520 73.77520 37.97436
#
# Poissons Ratio (x) = 0.68341 0.01784
# Poissons Ratio (y) = 0.68341 0.01784
# Poissons Ratio (z) = 0.03466 0.03466
#
# Static dielectric constant tensor:
#      x y z
#    x 1.695820 0.000000 0.000000 
#    y 0.000000 1.695820 0.000000 
#    z 0.000000 0.000000 1.741190 
# 
# From -- ./inp_files/8211.got.cif
#   From: 2010.05.17/outbox.cif.g08.bks.cpg/sg132_5_cif.got.tgz:8211.got - 2010.05.20 12:30:18.
