data_PCOD9567859
_publ_section_title
;
Structure prediction by ZEFSAII (Michael W. Deem and Ramdas Pophale) SiO2 
 PCOD9567859
Probable space group: P 42/N B C
;
_chemical_formula_sum "Si O2"
_cell_formula_units_Z 52
_cell_length_a 15.697688
_cell_length_b 15.697688
_cell_length_c 8.906947
_cell_angle_alpha 90.000000
_cell_angle_beta 90.000000
_cell_angle_gamma 90.000000
_cell_volume 2194.826798
_symmetry_space_group_name_H-M "P 42/N B C"
_symmetry_group_IT_number 133
_space_group.IT_coordinate_system_code '2'
_symmetry_cell_setting 'tetragonal'
loop_
_space_group_symop_operation_xyz
x,y,z
1/2-y,x,1/2+z
1/2-x,1/2-y,z
y,1/2-x,1/2+z
x,1/2-y,-z
1/2-x,y,-z
y,x,1/2-z
1/2-y,1/2-x,1/2-z
-x,-y,-z
1/2+y,-x,1/2-z
1/2+x,1/2+y,-z
-y,1/2+x,1/2-z
-x,1/2+y,z
1/2+x,-y,z
-y,-x,1/2+z
1/2+y,1/2+x,1/2+z
loop_
_atom_site_type_symbol
_atom_site_label
_atom_site_fract_x
_atom_site_fract_y
_atom_site_fract_z
Si Si1 0.168537 0.906913 0.905130
Si Si2 0.916880 0.486757 0.636228
Si Si3 0.250000 0.750000 0.250000
Si Si4 0.841230 0.837909 0.427015
O O1 0.188501 0.810853 0.847638
O O2 0.156277 0.962371 0.755778
O O3 0.250000 0.932702 0.000000
O O4 0.087549 0.915857 0.014439
O O5 0.996779 0.503222 0.750000
O O6 0.897482 0.577150 0.558754
O O7 0.873605 0.750000 0.500000
O O8 0.750000 0.854903 0.500000
O O9 0.827041 0.827041 0.250000
#
# Coordination Sequence:
#
# PCOD9567859 Si02
#       4
#    16  16   4  16
#     4  12  26  46  78 117 160 208 258 328 401 494
#     4  11  27  47  71 110 159 207 259 320 395 476
#     4  12  26  44  82 120 162 208 270 312 430 468
#     4  10  22  42  71 103 139 194 257 316 383 456
#
# _framework density 23.692074999999999
#
# number of rings (size 3 to 8) (size 9 to 14) (size 15 to 20)
#    0.000    0.923    3.077    3.231    4.308    4.923 
#    0.000    9.231    0.000    0.000    0.000    0.000 
#    0.000    0.000    0.000    0.000    0.000    0.000 
#
# Total GULP energy -290847.436273 kJ/mol
# GULP energy per Si atom -5593.219928 kJ/mol
# Density = 2.363815 g / cm^3
# Si number density = 23.692075 Si / 1000 Ang^3
#
#
#
# Elastic Constant Matrix: (Units=GPa)
#
#
# Indices 1 2 3 4 5 6 
#
# 1 181.7778 54.3386 82.9402 0.0000 0.0000 0.0000
# 2 54.3386 181.7794 82.9400 0.0000 0.0000 0.0000
# 3 82.9402 82.9400 142.9602 0.0000 0.0000 0.0000
# 4 0.0000 0.0000 0.0000 341.2253 0.0000 0.0000
# 5 0.0000 0.0000 0.0000 0.0000 341.3782 0.0000
# 6 0.0000 0.0000 0.0000 0.0000 0.0000 11.9246
#
#
#
# Elastic Compliance Matrix: (Units=1/GPa)
#
#
# Indices 1 2 3 4 5 6 
#
# 1 0.007498 -0.000349 -0.004148 0.000000 0.000000 0.000000
# 2 -0.000349 0.007498 -0.004148 0.000000 0.000000 0.000000
# 3 -0.004148 -0.004148 0.011807 0.000000 0.000000 0.000000
# 4 0.000000 0.000000 0.000000 0.002931 0.000000 0.000000
# 5 0.000000 0.000000 0.000000 0.000000 0.002929 0.000000
# 6 0.000000 0.000000 0.000000 0.000000 0.000000 0.083860
#
#
# Mechanical properties :
#
#
# Convention : Reuss Voigt Hill
#
# Bulk Modulus (GPa) = 105.09531 105.21723 105.15627
# Shear Modulus (GPa) = 36.50083 157.99219 97.24651
#
# Velocity S-wave (km/s) = 3.92935 8.17499 6.41367
# Velocity P-wave (km/s) = 8.06483 11.55915 9.96633
#
# Compressibility (1/GPa) = 0.00951517
#
# Stress axis : x y z
#
# Youngs Moduli (GPa) = 133.36953 133.37143 84.69202
#
# Poissons Ratio (x) = 0.04654 0.35127
# Poissons Ratio (y) = 0.04654 0.35126
# Poissons Ratio (z) = 0.55317 0.55316
#
# Static dielectric constant tensor:
#      x y z
#    x 1.934110 0.000000 0.000000 
#    y 0.000000 1.934110 0.000000 
#    z 0.000000 0.000000 1.909160 
# 
# From -- ./inp_files/1200.got.cif
#   From: 2010.05.17/outbox.cif.g08.bks.cpg/sg133_1_cif.got.tgz:1200.got - 2010.05.20 12:37:36.
