data_PCOD9567878
_publ_section_title
;
Structure prediction by ZEFSAII (Michael W. Deem and Ramdas Pophale) SiO2 
 PCOD9567878
Probable space group: P 42/N B C
;
_chemical_formula_sum "Si O2"
_cell_formula_units_Z 88
_cell_length_a 11.565331
_cell_length_b 11.565331
_cell_length_c 30.105707
_cell_angle_alpha 90.000000
_cell_angle_beta 90.000000
_cell_angle_gamma 90.000000
_cell_volume 4026.845473
_symmetry_space_group_name_H-M "P 42/N B C"
_symmetry_group_IT_number 133
_space_group.IT_coordinate_system_code '2'
_symmetry_cell_setting 'tetragonal'
loop_
_space_group_symop_operation_xyz
x,y,z
1/2-y,x,1/2+z
1/2-x,1/2-y,z
y,1/2-x,1/2+z
x,1/2-y,-z
1/2-x,y,-z
y,x,1/2-z
1/2-y,1/2-x,1/2-z
-x,-y,-z
1/2+y,-x,1/2-z
1/2+x,1/2+y,-z
-y,1/2+x,1/2-z
-x,1/2+y,z
1/2+x,-y,z
-y,-x,1/2+z
1/2+y,1/2+x,1/2+z
loop_
_atom_site_type_symbol
_atom_site_label
_atom_site_fract_x
_atom_site_fract_y
_atom_site_fract_z
Si Si1 0.250000 0.750000 0.099738
Si Si2 0.649279 0.434202 0.530988
Si Si3 0.383109 0.875679 0.251283
Si Si4 0.044811 0.329091 0.534486
Si Si5 0.994606 0.248713 0.368929
Si Si6 0.504100 0.988290 0.174849
O O1 0.147403 0.707210 0.067537
O O2 0.221724 0.857989 0.130021
O O3 0.750000 0.481100 0.500000
O O4 0.563880 0.367007 0.497156
O O5 0.589291 0.546688 0.550464
O O6 0.394196 0.744846 0.267352
O O7 0.469461 0.890546 0.210314
O O8 0.407831 0.962855 0.291401
O O9 0.115201 0.250000 0.500000
O O10 0.025960 0.255316 0.578702
O O11 0.012846 0.381918 0.351439
O O12 0.043683 0.127977 0.347966
#
# Coordination Sequence:
#
# PCOD9567878 Si02
#       6
#     8  16  16  16  16  16
#     4  12  23  40  70  93 130 188 254 289 340 442
#     4  11  21  40  64  93 124 192 243 291 353 415
#     4  10  22  48  80 102 134 185 237 281 367 462
#     4  11  23  40  64  93 141 186 233 298 360 413
#     4  12  25  42  68 104 142 184 245 292 358 425
#     4  11  25  43  71 107 142 177 231 307 362 436
#
# _framework density 21.853335000000001
#
# number of rings (size 3 to 8) (size 9 to 14) (size 15 to 20)
#    0.000    0.909    5.455    1.364    5.091    0.364 
#    0.000    0.909    0.000    0.000    0.000    0.000 
#    0.000    0.000    0.000    0.000    0.000    0.000 
#
# Total GULP energy -489909.810959 kJ/mol
# GULP energy per Si atom -5567.156943 kJ/mol
# Density = 2.180360 g / cm^3
# Si number density = 21.853335 Si / 1000 Ang^3
#
#
#
# Elastic Constant Matrix: (Units=GPa)
#
#
# Indices 1 2 3 4 5 6 
#
# 1 88.3401 20.0273 29.9288 0.0000 0.0000 0.0000
# 2 20.0273 88.3401 29.9288 0.0000 0.0000 0.0000
# 3 29.9288 29.9288 114.2340 0.0000 0.0000 0.0000
# 4 0.0000 0.0000 0.0000 25.5293 0.0000 0.0000
# 5 0.0000 0.0000 0.0000 0.0000 25.5293 0.0000
# 6 0.0000 0.0000 0.0000 0.0000 0.0000 16.5481
#
#
#
# Elastic Compliance Matrix: (Units=1/GPa)
#
#
# Indices 1 2 3 4 5 6 
#
# 1 0.012714 -0.001925 -0.002827 0.000000 0.000000 0.000000
# 2 -0.001925 0.012714 -0.002827 0.000000 0.000000 0.000000
# 3 -0.002827 -0.002827 0.010235 0.000000 0.000000 0.000000
# 4 0.000000 0.000000 0.000000 0.039171 0.000000 0.000000
# 5 0.000000 0.000000 0.000000 0.000000 0.039171 0.000000
# 6 0.000000 0.000000 0.000000 0.000000 0.000000 0.060430
#
#
# Mechanical properties :
#
#
# Convention : Reuss Voigt Hill
#
# Bulk Modulus (GPa) = 48.76458 50.07600 49.42029
# Shear Modulus (GPa) = 25.45486 27.58994 26.52240
#
# Velocity S-wave (km/s) = 3.41663 3.55703 3.48753
# Velocity P-wave (km/s) = 6.15852 6.31144 6.23545
#
# Compressibility (1/GPa) = 0.02050669
#
# Stress axis : x y z
#
# Youngs Moduli (GPa) = 78.65413 78.65413 97.70257
#
# Poissons Ratio (x) = 0.15138 0.27618
# Poissons Ratio (y) = 0.15138 0.27618
# Poissons Ratio (z) = 0.22233 0.22233
#
# Static dielectric constant tensor:
#      x y z
#    x 1.881010 0.000000 0.000000 
#    y 0.000000 1.881010 0.000000 
#    z 0.000000 0.000000 1.883990 
# 
# From -- ./inp_files/7972.got.cif
#   From: 2010.05.17/outbox.cif.g08.bks.cpg/sg133_4_cif.got.tgz:7972.got - 2010.05.20 12:37:36.
