data_PCOD9567473
_publ_section_title
;
Structure prediction by ZEFSAII (Michael W. Deem and Ramdas Pophale) SiO2 
 PCOD9567473
Probable space group: P 42/M C M
;
_chemical_formula_sum "Si O2"
_cell_formula_units_Z 96
_cell_length_a 23.439605
_cell_length_b 23.439605
_cell_length_c 10.176042
_cell_angle_alpha 90.000000
_cell_angle_beta 90.000000
_cell_angle_gamma 90.000000
_cell_volume 5590.870956
_symmetry_space_group_name_H-M "P 42/M C M"
_symmetry_group_IT_number 132
_symmetry_cell_setting 'tetragonal'
loop_
_space_group_symop_operation_xyz
x,y,z
-y,x,1/2+z
-x,-y,z
y,-x,1/2+z
x,-y,1/2-z
-x,y,1/2-z
y,x,-z
-y,-x,-z
-x,-y,-z
y,-x,1/2-z
x,y,-z
-y,x,1/2-z
-x,y,1/2+z
x,-y,1/2+z
-y,-x,z
y,x,z
loop_
_atom_site_type_symbol
_atom_site_label
_atom_site_fract_x
_atom_site_fract_y
_atom_site_fract_z
Si Si1 0.049633 0.642117 0.349685
Si Si2 0.777764 0.947300 0.844552
Si Si3 0.450354 0.854045 0.347172
Si Si4 0.556920 0.647861 0.000000
Si Si5 0.267724 0.400680 0.225908
Si Si6 0.269543 0.269543 0.159153
Si Si7 0.823917 0.823917 0.840780
Si Si8 0.424417 0.672495 0.000000
O O1 0.030371 0.633410 0.500000
O O2 0.061507 0.709399 0.333426
O O3 0.105814 0.604637 0.330017
O O4 0.000000 0.625424 0.250000
O O5 0.807234 0.888144 0.803424
O O6 0.793193 0.000000 0.750000
O O7 0.789818 0.958463 0.000000
O O8 0.500000 0.873449 0.250000
O O9 0.467796 0.856679 0.500000
O O10 0.433827 0.789506 0.311683
O O11 0.580234 0.682831 0.874558
O O12 0.488801 0.648957 0.000000
O O13 0.586044 0.586044 0.000000
O O14 0.256345 0.333380 0.207631
O O15 0.289274 0.414595 0.371149
O O16 0.222900 0.222900 0.202848
O O17 0.270482 0.270482 0.000000
O O18 0.822150 0.822150 0.000000
O O19 0.378562 0.621439 0.000000
#
# Coordination Sequence:
#
# PCOD9567473 Si02
#       8
#    16  16  16   8  16   8   8   8
#     4   9  19  36  56  79 110 148 188 230 280 332
#     4   9  17  33  56  82 114 150 188 232 279 329
#     4  11  23  37  56  82 109 143 187 234 280 339
#     4  12  22  41  64  84 103 145 189 227 273 343
#     4  12  22  39  59  83 111 144 182 229 290 346
#     4  11  18  35  63  87 111 141 188 237 281 333
#     4   9  18  30  58  93 113 147 198 242 272 322
#     4  12  26  41  58  82 117 145 175 231 289 343
#
# _framework density 17.170849
#
# number of rings (size 3 to 8) (size 9 to 14) (size 15 to 20)
#    0.000    1.500    3.333    2.500    1.167    3.833 
#    0.000    2.083    7.333    2.250    0.000    1.750 
#    0.000    0.000    0.000    0.000    0.000    0.000 
#
# Total GULP energy -536060.070218 kJ/mol
# GULP energy per Si atom -5583.959065 kJ/mol
# Density = 1.713177 g / cm^3
# Si number density = 17.170849 Si / 1000 Ang^3
#
#
#
# Elastic Constant Matrix: (Units=GPa)
#
#
# Indices 1 2 3 4 5 6 
#
# 1 61.7392 79.2455 54.3859 0.0000 0.0000 0.0000
# 2 79.2455 61.7125 54.3822 0.0000 0.0000 0.0000
# 3 54.3859 54.3822 113.0822 0.0000 0.0000 0.0000
# 4 0.0000 0.0000 0.0000 23.5619 0.0000 0.0000
# 5 0.0000 0.0000 0.0000 0.0000 23.5619 0.0000
# 6 0.0000 0.0000 0.0000 0.0000 0.0000 17.6986
#
#
#
# Elastic Compliance Matrix: (Units=1/GPa)
#
#
# Indices 1 2 3 4 5 6 
#
# 1 -0.022893 0.034179 -0.005427 0.000000 0.000000 0.000000
# 2 0.034179 -0.022907 -0.005422 0.000000 0.000000 0.000000
# 3 -0.005427 -0.005422 0.014060 0.000000 0.000000 0.000000
# 4 0.000000 0.000000 0.000000 0.042441 0.000000 0.000000
# 5 0.000000 0.000000 0.000000 0.000000 0.042441 0.000000
# 6 0.000000 0.000000 0.000000 0.000000 0.000000 0.056502
#
#
# Mechanical properties :
#
#
# Convention : Reuss Voigt Hill
#
# Bulk Modulus (GPa) = 67.01958 68.06233 67.54095
# Shear Modulus (GPa) = 73.57498 16.19918 44.88708
#
# Velocity S-wave (km/s) = 6.55300 3.07483 5.11842
# Velocity P-wave (km/s) = 9.81690 7.23398 8.62270
#
# Compressibility (1/GPa) = 0.01492101
#
# Stress axis : x y z
#
# Youngs Moduli (GPa) = -43.68233 -43.65395 71.12155
#
# Poissons Ratio (x) = 1.49204 0.38597
# Poissons Ratio (y) = 1.49301 0.38559
# Poissons Ratio (z) = -0.23706 -0.23667
#
# Static dielectric constant tensor:
#      x y z
#    x 1.571610 0.000000 0.000000 
#    y 0.000000 1.571610 0.000000 
#    z 0.000000 0.000000 1.575070 
# 
# From -- ./inp_files/1865.got.cif
#   From: 2010.05.17/outbox.cif.g08.bks.cpg/sg132_1_cif.got.tgz:1865.got - 2010.05.20 12:30:18.
