data_PCOD9567254
_publ_section_title
;
Structure prediction by ZEFSAII (Michael W. Deem and Ramdas Pophale) SiO2 
 PCOD9567254
Probable space group: P 42/M C M
;
_chemical_formula_sum "Si O2"
_cell_formula_units_Z 112
_cell_length_a 14.777423
_cell_length_b 14.777423
_cell_length_c 28.194264
_cell_angle_alpha 90.000000
_cell_angle_beta 90.000000
_cell_angle_gamma 90.000000
_cell_volume 6156.844318
_symmetry_space_group_name_H-M "P 42/M C M"
_symmetry_group_IT_number 132
_symmetry_cell_setting 'tetragonal'
loop_
_space_group_symop_operation_xyz
x,y,z
-y,x,1/2+z
-x,-y,z
y,-x,1/2+z
x,-y,1/2-z
-x,y,1/2-z
y,x,-z
-y,-x,-z
-x,-y,-z
y,-x,1/2-z
x,y,-z
-y,x,1/2-z
-x,y,1/2+z
x,-y,1/2+z
-y,-x,z
y,x,z
loop_
_atom_site_type_symbol
_atom_site_label
_atom_site_fract_x
_atom_site_fract_y
_atom_site_fract_z
Si Si1 0.103213 0.529778 0.443128
Si Si2 0.103170 0.493217 0.306718
Si Si3 0.787538 0.930877 0.394839
Si Si4 0.291585 0.856071 0.803959
Si Si5 0.314639 0.826890 0.303792
Si Si6 0.648089 0.790978 0.557319
Si Si7 0.875604 0.732435 0.906200
O O1 0.106578 0.535609 0.500000
O O2 0.175721 0.452504 0.428218
O O3 0.123397 0.628938 0.423029
O O4 0.000000 0.500000 0.431030
O O5 0.095024 0.500000 0.250000
O O6 0.144493 0.396371 0.318620
O O7 0.163951 0.580147 0.316812
O O8 0.000000 0.500000 0.325438
O O9 0.885033 0.885033 0.399240
O O10 0.758196 0.925322 0.339191
O O11 0.716202 0.864846 0.420884
O O12 0.778024 0.028827 0.417258
O O13 0.237720 0.762281 0.811096
O O14 0.293135 0.873339 0.747087
O O15 0.274105 0.725896 0.299633
O O16 0.267358 0.870635 0.348943
O O17 0.650425 0.796648 0.500000
O O18 0.693197 0.693197 0.570124
O O19 0.790924 0.790924 0.924123
#
# Coordination Sequence:
#
# PCOD9567254 Si02
#       7
#    16  16  16  16  16  16  16
#     4  10  20  36  59  84 107 138 179 223 269 321
#     4   9  16  26  45  70  91 119 163 213 265 313
#     4  10  20  33  52  77 105 141 182 225 271 319
#     4   9  18  32  49  73 101 132 177 231 273 311
#     4   9  19  33  47  68 104 141 175 220 272 319
#     4   9  18  34  57  84 109 132 168 221 274 318
#     4  11  23  35  51  77 110 148 181 217 268 324
#
# _framework density 18.191137999999999
#
# number of rings (size 3 to 8) (size 9 to 14) (size 15 to 20)
#    0.000    2.429    1.429    0.857    2.000    2.857 
#    0.000    0.000    0.000    0.857    0.000   14.000 
#    0.000    0.000    0.000    0.000    0.000    0.000 
#
# Total GULP energy -623643.779088 kJ/mol
# GULP energy per Si atom -5568.248028 kJ/mol
# Density = 1.814973 g / cm^3
# Si number density = 18.191138 Si / 1000 Ang^3
#
#
#
# Elastic Constant Matrix: (Units=GPa)
#
#
# Indices 1 2 3 4 5 6 
#
# 1 121.6017 84.1408 16.2068 0.0000 0.0000 0.0000
# 2 84.1408 121.6017 16.2068 0.0000 0.0000 0.0000
# 3 16.2068 16.2068 50.1148 0.0000 0.0000 0.0000
# 4 0.0000 0.0000 0.0000 0.3491 0.0000 0.0000
# 5 0.0000 0.0000 0.0000 0.0000 0.3491 0.0000
# 6 0.0000 0.0000 0.0000 0.0000 0.0000 23.1606
#
#
#
# Elastic Compliance Matrix: (Units=1/GPa)
#
#
# Indices 1 2 3 4 5 6 
#
# 1 0.015908 -0.010787 -0.001656 0.000000 0.000000 0.000000
# 2 -0.010787 0.015908 -0.001656 0.000000 0.000000 0.000000
# 3 -0.001656 -0.001656 0.021025 0.000000 0.000000 0.000000
# 4 0.000000 0.000000 0.000000 2.864746 0.000000 0.000000
# 5 0.000000 0.000000 0.000000 0.000000 2.864746 0.000000
# 6 0.000000 0.000000 0.000000 0.000000 0.000000 0.043177
#
#
# Mechanical properties :
#
#
# Convention : Reuss Voigt Hill
#
# Bulk Modulus (GPa) = 40.57903 58.49187 49.53545
# Shear Modulus (GPa) = 0.85296 16.55601 8.70449
#
# Velocity S-wave (km/s) = 0.68550 3.02008 2.18984
# Velocity P-wave (km/s) = 4.79395 6.66221 5.80375
#
# Compressibility (1/GPa) = 0.02464327
#
# Stress axis : x y z
#
# Youngs Moduli (GPa) = 62.86166 62.86166 47.56156
#
# Poissons Ratio (x) = 0.67806 0.07877
# Poissons Ratio (y) = 0.67806 0.07877
# Poissons Ratio (z) = 0.10411 0.10411
#
# Static dielectric constant tensor:
#      x y z
#    x 1.628570 0.000000 0.000000 
#    y 0.000000 1.628570 0.000000 
#    z 0.000000 0.000000 1.684300 
# 
# From -- ./inp_files/11021.got.cif
#   From: 2010.05.17/outbox.cif.g08.bks.cpg/sg132_6_cif.got.tgz:11021.got - 2010.05.20 12:30:18.
