data_PCOD9567722
_publ_section_title
;
Structure prediction by ZEFSAII (Michael W. Deem and Ramdas Pophale) SiO2 
 PCOD9567722
Probable space group: P 42/N B C
;
_chemical_formula_sum "Si O2"
_cell_formula_units_Z 120
_cell_length_a 16.329571
_cell_length_b 16.329571
_cell_length_c 20.949820
_cell_angle_alpha 90.000000
_cell_angle_beta 90.000000
_cell_angle_gamma 90.000000
_cell_volume 5586.371928
_symmetry_space_group_name_H-M "P 42/N B C"
_symmetry_group_IT_number 133
_space_group.IT_coordinate_system_code '2'
_symmetry_cell_setting 'tetragonal'
loop_
_space_group_symop_operation_xyz
x,y,z
1/2-y,x,1/2+z
1/2-x,1/2-y,z
y,1/2-x,1/2+z
x,1/2-y,-z
1/2-x,y,-z
y,x,1/2-z
1/2-y,1/2-x,1/2-z
-x,-y,-z
1/2+y,-x,1/2-z
1/2+x,1/2+y,-z
-y,1/2+x,1/2-z
-x,1/2+y,z
1/2+x,-y,z
-y,-x,1/2+z
1/2+y,1/2+x,1/2+z
loop_
_atom_site_type_symbol
_atom_site_label
_atom_site_fract_x
_atom_site_fract_y
_atom_site_fract_z
Si Si1 0.856754 0.495836 0.892456
Si Si2 0.549536 0.614602 0.182844
Si Si3 0.930035 0.792649 0.685777
Si Si4 0.212882 0.398011 0.663699
Si Si5 0.361782 0.902934 0.786208
Si Si6 0.317345 0.683572 0.593933
Si Si7 0.422391 0.821876 0.138717
Si Si8 0.452326 0.750000 0.500000
O O1 0.937608 0.541473 0.867600
O O2 0.786946 0.528247 0.843969
O O3 0.875845 0.399578 0.889645
O O4 0.814021 0.506700 0.960517
O O5 0.591272 0.591272 0.250000
O O6 0.594217 0.691306 0.148810
O O7 0.454890 0.627562 0.203352
O O8 0.906047 0.781089 0.759339
O O9 0.847977 0.823144 0.650642
O O10 0.002583 0.859632 0.690304
O O11 0.171109 0.480052 0.637230
O O12 0.305550 0.852437 0.834668
O O13 0.327061 0.900036 0.714544
O O14 0.250000 0.750000 0.577168
O O15 0.260842 0.602972 0.601540
O O16 0.392977 0.696545 0.546472
#
# Coordination Sequence:
#
# PCOD9567722 Si02
#       8
#    16  16  16  16  16  16  16   8
#     4  12  24  42  65  88 130 179 226 269 331 396
#     4  12  22  39  63 100 136 170 214 273 341 413
#     4  10  20  37  60  96 129 174 203 267 334 403
#     4  10  21  36  62  95 135 157 212 263 343 405
#     4  11  22  38  62 100 139 162 209 275 347 412
#     4  12  24  38  66  91 131 168 218 270 327 401
#     4  11  22  36  64 101 129 171 199 274 353 402
#     4  12  27  46  60  93 130 188 236 275 310 404
#
# _framework density 21.480847000000001
#
# number of rings (size 3 to 8) (size 9 to 14) (size 15 to 20)
#    0.000    0.800    6.667    1.000    5.600    0.533 
#    0.000    0.667    0.000    1.600    0.000    0.000 
#    0.000    0.000    0.000    0.000    0.000    0.000 
#
# Total GULP energy -669166.832260 kJ/mol
# GULP energy per Si atom -5576.390269 kJ/mol
# Density = 2.143196 g / cm^3
# Si number density = 21.480847 Si / 1000 Ang^3
#
#
#
# Elastic Constant Matrix: (Units=GPa)
#
#
# Indices 1 2 3 4 5 6 
#
# 1 49.8464 8.8834 2.3927 0.0000 0.0000 0.0000
# 2 8.8834 49.8464 2.3927 0.0000 0.0000 0.0000
# 3 2.3927 2.3927 47.3190 0.0000 0.0000 0.0000
# 4 0.0000 0.0000 0.0000 22.6592 0.0000 0.0000
# 5 0.0000 0.0000 0.0000 0.0000 22.6592 0.0000
# 6 0.0000 0.0000 0.0000 0.0000 0.0000 27.8800
#
#
#
# Elastic Compliance Matrix: (Units=1/GPa)
#
#
# Indices 1 2 3 4 5 6 
#
# 1 0.020755 -0.003657 -0.000865 0.000000 0.000000 0.000000
# 2 -0.003657 0.020755 -0.000865 0.000000 0.000000 0.000000
# 3 -0.000865 -0.000865 0.021221 0.000000 0.000000 0.000000
# 4 0.000000 0.000000 0.000000 0.044132 0.000000 0.000000
# 5 0.000000 0.000000 0.000000 0.000000 0.044132 0.000000
# 6 0.000000 0.000000 0.000000 0.000000 0.000000 0.035868
#
#
# Mechanical properties :
#
#
# Convention : Reuss Voigt Hill
#
# Bulk Modulus (GPa) = 19.24647 19.37215 19.30931
# Shear Modulus (GPa) = 23.26068 23.52919 23.39494
#
# Velocity S-wave (km/s) = 3.29425 3.31321 3.30374
# Velocity P-wave (km/s) = 4.84239 4.86563 4.85402
#
# Compressibility (1/GPa) = 0.05195757
#
# Stress axis : x y z
#
# Youngs Moduli (GPa) = 48.18134 48.18134 47.12402
#
# Poissons Ratio (x) = 0.17622 0.04074
# Poissons Ratio (y) = 0.17622 0.04074
# Poissons Ratio (z) = 0.04166 0.04166
#
# Static dielectric constant tensor:
#      x y z
#    x 1.863080 0.000000 0.000000 
#    y 0.000000 1.863080 0.000000 
#    z 0.000000 0.000000 1.770580 
# 
# From -- ./inp_files/6768.got.cif
#   From: 2010.05.17/outbox.cif.g08.bks.cpg/sg133_4_cif.got.tgz:6768.got - 2010.05.20 12:37:36.
