data_PCOD9567006
_publ_section_title
;
Structure prediction by ZEFSAII (Michael W. Deem and Ramdas Pophale) SiO2 
 PCOD9567006
Probable space group: P 42/M C M
;
_chemical_formula_sum "Si O2"
_cell_formula_units_Z 96
_cell_length_a 24.836747
_cell_length_b 24.836747
_cell_length_c 7.958159
_cell_angle_alpha 90.000000
_cell_angle_beta 90.000000
_cell_angle_gamma 90.000000
_cell_volume 4909.101806
_symmetry_space_group_name_H-M "P 42/M C M"
_symmetry_group_IT_number 132
_symmetry_cell_setting 'tetragonal'
loop_
_space_group_symop_operation_xyz
x,y,z
-y,x,1/2+z
-x,-y,z
y,-x,1/2+z
x,-y,1/2-z
-x,y,1/2-z
y,x,-z
-y,-x,-z
-x,-y,-z
y,-x,1/2-z
x,y,-z
-y,x,1/2-z
-x,y,1/2+z
x,-y,1/2+z
-y,-x,z
y,x,z
loop_
_atom_site_type_symbol
_atom_site_label
_atom_site_fract_x
_atom_site_fract_y
_atom_site_fract_z
Si Si1 0.213876 0.559788 0.192870
Si Si2 0.320760 0.237096 0.295027
Si Si3 0.943302 0.328133 0.698505
Si Si4 0.936391 0.850042 0.702571
Si Si5 0.908539 0.444225 0.698961
Si Si6 0.140171 0.752219 0.191604
O O1 0.232286 0.500000 0.250000
O O2 0.230284 0.618028 0.269814
O O3 0.149175 0.558761 0.211284
O O4 0.229833 0.562855 0.000000
O O5 0.322048 0.229745 0.500000
O O6 0.295111 0.295111 0.260267
O O7 0.276417 0.193204 0.232165
O O8 0.933402 0.321310 0.500000
O O9 0.940835 0.390944 0.740341
O O10 0.899399 0.298028 0.804424
O O11 0.000000 0.304445 0.750000
O O12 0.935695 0.846559 0.500000
O O13 0.905925 0.905925 0.751244
O O14 0.895832 0.801706 0.764351
O O15 0.000000 0.846319 0.750000
O O16 0.935167 0.500000 0.750000
O O17 0.898221 0.444666 0.500000
O O18 0.152713 0.767491 0.000000
#
# Coordination Sequence:
#
# PCOD9567006 Si02
#       6
#    16  16  16  16  16  16
#     4  10  18  30  51  75 103 139 175 213 255 302
#     4   9  17  30  52  81 107 136 176 214 249 299
#     4  11  23  35  49  70  98 131 170 215 258 305
#     4  10  22  39  59  82 105 131 164 206 256 312
#     4  10  20  33  49  68  94 128 169 215 258 303
#     4  10  19  35  57  78 103 133 166 206 254 306
#
# _framework density 19.555512
#
# number of rings (size 3 to 8) (size 9 to 14) (size 15 to 20)
#    0.000    2.000    1.667    3.500    0.000    6.833 
#    0.000    2.500    0.000    5.500    0.000    0.000 
#    0.000    0.333    0.000    4.167    0.000    0.000 
#
# Total GULP energy -534702.188831 kJ/mol
# GULP energy per Si atom -5569.814467 kJ/mol
# Density = 1.951100 g / cm^3
# Si number density = 19.555512 Si / 1000 Ang^3
#
#
#
# Elastic Constant Matrix: (Units=GPa)
#
#
# Indices 1 2 3 4 5 6 
#
# 1 112.4085 79.2634 17.2835 0.0000 0.0000 0.0000
# 2 79.2634 112.4085 17.2835 0.0000 0.0000 0.0000
# 3 17.2835 17.2835 15.8911 0.0000 0.0000 0.0000
# 4 0.0000 0.0000 0.0000 419.2539 0.0000 0.0000
# 5 0.0000 0.0000 0.0000 0.0000 419.2539 0.0000
# 6 0.0000 0.0000 0.0000 0.0000 0.0000 22.1831
#
#
#
# Elastic Compliance Matrix: (Units=1/GPa)
#
#
# Indices 1 2 3 4 5 6 
#
# 1 0.018330 -0.011840 -0.007059 0.000000 0.000000 0.000000
# 2 -0.011840 0.018330 -0.007059 0.000000 0.000000 0.000000
# 3 -0.007059 -0.007059 0.078283 0.000000 0.000000 0.000000
# 4 0.000000 0.000000 0.000000 0.002385 0.000000 0.000000
# 5 0.000000 0.000000 0.000000 0.000000 0.002385 0.000000
# 6 0.000000 0.000000 0.000000 0.000000 0.000000 0.045079
#
#
# Mechanical properties :
#
#
# Convention : Reuss Voigt Hill
#
# Bulk Modulus (GPa) = 15.86596 52.04101 33.95348
# Shear Modulus (GPa) = 21.03321 180.59670 100.81495
#
# Velocity S-wave (km/s) = 3.28314 9.62036 7.18785
# Velocity P-wave (km/s) = 4.74372 12.25036 9.28909
#
# Compressibility (1/GPa) = 0.06302803
#
# Stress axis : x y z
#
# Youngs Moduli (GPa) = 54.55438 54.55438 12.77409
#
# Poissons Ratio (x) = 0.64593 0.09017
# Poissons Ratio (y) = 0.64593 0.09017
# Poissons Ratio (z) = 0.38510 0.38510
#
# Static dielectric constant tensor:
#      x y z
#    x 1.598510 0.000000 0.000000 
#    y 0.000000 1.598510 0.000000 
#    z 0.000000 0.000000 1.733780 
# 
# From -- ./inp_files/1737.got.cif
#   From: 2010.05.17/outbox.cif.g08.bks.cpg/sg132_1_cif.got.tgz:1737.got - 2010.05.20 12:30:18.
