data_PCOD9567044
_publ_section_title
;
Structure prediction by ZEFSAII (Michael W. Deem and Ramdas Pophale) SiO2 
 PCOD9567044
Probable space group: P 42/M C M
;
_chemical_formula_sum "Si O2"
_cell_formula_units_Z 84
_cell_length_a 16.866259
_cell_length_b 16.866259
_cell_length_c 18.890739
_cell_angle_alpha 90.000000
_cell_angle_beta 90.000000
_cell_angle_gamma 90.000000
_cell_volume 5373.861608
_symmetry_space_group_name_H-M "P 42/M C M"
_symmetry_group_IT_number 132
_symmetry_cell_setting 'tetragonal'
loop_
_space_group_symop_operation_xyz
x,y,z
-y,x,1/2+z
-x,-y,z
y,-x,1/2+z
x,-y,1/2-z
-x,y,1/2-z
y,x,-z
-y,-x,-z
-x,-y,-z
y,-x,1/2-z
x,y,-z
-y,x,1/2-z
-x,y,1/2+z
x,-y,1/2+z
-y,-x,z
y,x,z
loop_
_atom_site_type_symbol
_atom_site_label
_atom_site_fract_x
_atom_site_fract_y
_atom_site_fract_z
Si Si1 0.297769 0.428897 0.804241
Si Si2 0.086858 0.372950 0.653956
Si Si3 0.500000 0.000000 0.250000
Si Si4 0.077517 0.646748 0.418503
Si Si5 0.504925 0.188985 0.081337
Si Si6 0.166114 0.703550 0.720409
O O1 0.312994 0.500000 0.750000
O O2 0.374438 0.374438 0.816540
O O3 0.260175 0.467529 0.874121
O O4 0.228658 0.369793 0.776118
O O5 0.053913 0.443535 0.703255
O O6 0.159844 0.411730 0.612513
O O7 0.111363 0.306084 0.710389
O O8 0.015266 0.353193 0.600919
O O9 0.090916 0.673539 0.500000
O O10 0.115573 0.558183 0.414262
O O11 0.120257 0.693249 0.354198
O O12 0.512650 0.210464 0.000000
O O13 0.216766 0.783235 0.720889
#
# Coordination Sequence:
#
# PCOD9567044 Si02
#       6
#    16  16   4  16  16  16
#     4  10  19  33  50  67  91 129 178 224 262 295
#     4  12  17  29  49  72 101 132 164 204 249 305
#     4  12  16  24  50  72  96 128 162 208 252 276
#     4  10  19  29  46  75 103 128 160 200 251 303
#     4  10  19  30  47  74 103 126 154 205 266 314
#     4  10  20  32  48  69 100 141 172 201 248 304
#
# _framework density 15.631216999999999
#
# number of rings (size 3 to 8) (size 9 to 14) (size 15 to 20)
#    0.000    1.524    5.714    1.714    0.000    2.476 
#    0.000    3.810    0.000    4.000    0.000    1.333 
#    0.000    6.095    0.000    6.857    0.000    0.381 
#
# Total GULP energy -468270.597428 kJ/mol
# GULP energy per Si atom -5574.649969 kJ/mol
# Density = 1.559564 g / cm^3
# Si number density = 15.631217 Si / 1000 Ang^3
#
#
#
# Elastic Constant Matrix: (Units=GPa)
#
#
# Indices 1 2 3 4 5 6 
#
# 1 54.5085 30.7861 43.2120 0.0000 0.0000 0.0000
# 2 30.7861 54.5085 43.2120 0.0000 0.0000 0.0000
# 3 43.2120 43.2120 126.9905 0.0000 0.0000 0.0000
# 4 0.0000 0.0000 0.0000 4.4003 0.0000 0.0000
# 5 0.0000 0.0000 0.0000 0.0000 4.4003 0.0000
# 6 0.0000 0.0000 0.0000 0.0000 0.0000 28.6540
#
#
#
# Elastic Compliance Matrix: (Units=1/GPa)
#
#
# Indices 1 2 3 4 5 6 
#
# 1 0.030024 -0.012130 -0.006089 0.000000 0.000000 0.000000
# 2 -0.012130 0.030024 -0.006089 0.000000 0.000000 0.000000
# 3 -0.006089 -0.006089 0.012018 0.000000 0.000000 0.000000
# 4 0.000000 0.000000 0.000000 0.227255 0.000000 0.000000
# 5 0.000000 0.000000 0.000000 0.000000 0.227255 0.000000
# 6 0.000000 0.000000 0.000000 0.000000 0.000000 0.034899
#
#
# Mechanical properties :
#
#
# Convention : Reuss Voigt Hill
#
# Bulk Modulus (GPa) = 42.64348 52.26973 47.45661
# Shear Modulus (GPa) = 8.09182 15.41078 11.75130
#
# Velocity S-wave (km/s) = 2.27771 3.14331 2.74484
# Velocity P-wave (km/s) = 5.85299 6.83270 6.36173
#
# Compressibility (1/GPa) = 0.02345024
#
# Stress axis : x y z
#
# Youngs Moduli (GPa) = 33.30694 33.30694 83.20646
#
# Poissons Ratio (x) = 0.40403 0.50662
# Poissons Ratio (y) = 0.40403 0.50662
# Poissons Ratio (z) = 0.20280 0.20280
#
# Static dielectric constant tensor:
#      x y z
#    x 1.522650 0.000000 0.000000 
#    y 0.000000 1.522650 0.000000 
#    z 0.000000 0.000000 1.541930 
# 
# From -- ./inp_files/7782.got.cif
#   From: 2010.05.17/outbox.cif.g08.bks.cpg/sg132_4_cif.got.tgz:7782.got - 2010.05.20 12:30:18.
