data_PCOD9567011
_publ_section_title
;
Structure prediction by ZEFSAII (Michael W. Deem and Ramdas Pophale) SiO2 
 PCOD9567011
Probable space group: P 42/M C M
;
_chemical_formula_sum "Si O2"
_cell_formula_units_Z 104
_cell_length_a 19.800288
_cell_length_b 19.800288
_cell_length_c 15.985938
_cell_angle_alpha 90.000000
_cell_angle_beta 90.000000
_cell_angle_gamma 90.000000
_cell_volume 6267.309451
_symmetry_space_group_name_H-M "P 42/M C M"
_symmetry_group_IT_number 132
_symmetry_cell_setting 'tetragonal'
loop_
_space_group_symop_operation_xyz
x,y,z
-y,x,1/2+z
-x,-y,z
y,-x,1/2+z
x,-y,1/2-z
-x,y,1/2-z
y,x,-z
-y,-x,-z
-x,-y,-z
y,-x,1/2-z
x,y,-z
-y,x,1/2-z
-x,y,1/2+z
x,-y,1/2+z
-y,-x,z
y,x,z
loop_
_atom_site_type_symbol
_atom_site_label
_atom_site_fract_x
_atom_site_fract_y
_atom_site_fract_z
Si Si1 0.634202 0.749989 0.409503
Si Si2 0.307981 0.576873 0.255347
Si Si3 0.647304 0.763423 0.094923
Si Si4 0.200472 0.003320 0.403099
Si Si5 0.944304 0.944304 0.601535
Si Si6 0.863040 0.248029 0.667751
Si Si7 0.854971 0.743973 0.632383
O O1 0.599368 0.748081 0.500000
O O2 0.690641 0.690641 0.409003
O O3 0.590592 0.735805 0.327981
O O4 0.677482 0.817926 0.400014
O O5 0.331577 0.500000 0.250000
O O6 0.370363 0.629638 0.256266
O O7 0.262141 0.594013 0.336286
O O8 0.705896 0.705896 0.096007
O O9 0.686440 0.831315 0.122810
O O10 0.621616 0.768666 0.000000
O O11 0.190714 0.983003 0.500000
O O12 0.128373 0.029783 0.368170
O O13 0.246919 0.069384 0.398689
O O14 0.230649 0.939558 0.355287
O O15 0.938585 0.938585 0.500000
O O16 0.000000 0.000000 0.621158
O O17 0.815876 0.184125 0.643556
O O18 0.855227 0.257799 0.766990
O O19 0.808561 0.808561 0.606851
#
# Coordination Sequence:
#
# PCOD9567011 Si02
#       7
#    16  16  16  16   8  16  16
#     4   9  17  31  53  77 102 135 174 218 260 297
#     4  10  20  35  55  83 116 146 173 202 238 291
#     4   9  17  32  53  76 102 136 177 221 262 297
#     4  11  20  29  43  66  94 130 174 219 273 326
#     4   9  18  30  40  54  88 134 177 217 262 328
#     4  10  19  31  48  68  96 130 175 227 273 316
#     4  10  18  31  48  67  96 128 169 223 275 317
#
# _framework density 16.594042999999999
#
# number of rings (size 3 to 8) (size 9 to 14) (size 15 to 20)
#    0.000    2.231    2.308    1.846    0.000    2.923 
#    0.000    0.000    0.000    0.000    0.000    6.462 
#    0.000    3.692    0.000    0.000    0.000    0.000 
#
# Total GULP energy -579903.666337 kJ/mol
# GULP energy per Si atom -5575.996792 kJ/mol
# Density = 1.655627 g / cm^3
# Si number density = 16.594043 Si / 1000 Ang^3
#
#
#
# Elastic Constant Matrix: (Units=GPa)
#
#
# Indices 1 2 3 4 5 6 
#
# 1 56.6704 31.7127 29.5667 0.0000 0.0000 0.0000
# 2 31.7127 56.6704 29.5667 0.0000 0.0000 0.0000
# 3 29.5667 29.5667 106.5730 0.0000 0.0000 0.0000
# 4 0.0000 0.0000 0.0000 8.6123 0.0000 0.0000
# 5 0.0000 0.0000 0.0000 0.0000 8.6123 0.0000
# 6 0.0000 0.0000 0.0000 0.0000 0.0000 12.3586
#
#
#
# Elastic Compliance Matrix: (Units=1/GPa)
#
#
# Indices 1 2 3 4 5 6 
#
# 1 0.026981 -0.013087 -0.003854 0.000000 0.000000 0.000000
# 2 -0.013087 0.026981 -0.003854 0.000000 0.000000 0.000000
# 3 -0.003854 -0.003854 0.011522 0.000000 0.000000 0.000000
# 4 0.000000 0.000000 0.000000 0.116112 0.000000 0.000000
# 5 0.000000 0.000000 0.000000 0.000000 0.116112 0.000000
# 6 0.000000 0.000000 0.000000 0.000000 0.000000 0.080915
#
#
# Mechanical properties :
#
#
# Convention : Reuss Voigt Hill
#
# Bulk Modulus (GPa) = 41.85732 44.62287 43.24010
# Shear Modulus (GPa) = 11.67737 14.52118 13.09927
#
# Velocity S-wave (km/s) = 2.65563 2.96139 2.81267
# Velocity P-wave (km/s) = 5.88916 6.21630 6.05494
#
# Compressibility (1/GPa) = 0.02389068
#
# Stress axis : x y z
#
# Youngs Moduli (GPa) = 37.06378 37.06378 86.79120
#
# Poissons Ratio (x) = 0.48507 0.33453
# Poissons Ratio (y) = 0.48507 0.33453
# Poissons Ratio (z) = 0.14286 0.14286
#
# Static dielectric constant tensor:
#      x y z
#    x 1.539150 0.000000 0.000000 
#    y 0.000000 1.539150 0.000000 
#    z 0.000000 0.000000 1.598490 
# 
# From -- ./inp_files/6596.got.cif
#   From: 2010.05.17/outbox.cif.g08.bks.cpg/sg132_4_cif.got.tgz:6596.got - 2010.05.20 12:30:18.
