data_PCOD9567177
_publ_section_title
;
Structure prediction by ZEFSAII (Michael W. Deem and Ramdas Pophale) SiO2 
 PCOD9567177
Probable space group: P 42/M C M
;
_chemical_formula_sum "Si O2"
_cell_formula_units_Z 72
_cell_length_a 11.415826
_cell_length_b 11.415826
_cell_length_c 26.690992
_cell_angle_alpha 90.000000
_cell_angle_beta 90.000000
_cell_angle_gamma 90.000000
_cell_volume 3478.398991
_symmetry_space_group_name_H-M "P 42/M C M"
_symmetry_group_IT_number 132
_symmetry_cell_setting 'tetragonal'
loop_
_space_group_symop_operation_xyz
x,y,z
-y,x,1/2+z
-x,-y,z
y,-x,1/2+z
x,-y,1/2-z
-x,y,1/2-z
y,x,-z
-y,-x,-z
-x,-y,-z
y,-x,1/2-z
x,y,-z
-y,x,1/2-z
-x,y,1/2+z
x,-y,1/2+z
-y,-x,z
y,x,z
loop_
_atom_site_type_symbol
_atom_site_label
_atom_site_fract_x
_atom_site_fract_y
_atom_site_fract_z
Si Si1 0.238684 0.046226 0.806333
Si Si2 0.934966 0.638684 0.059179
Si Si3 0.228357 0.583167 0.648062
Si Si4 0.662203 0.848330 0.377174
Si Si5 0.910898 0.910898 0.059531
O O1 0.122382 0.122382 0.818593
O O2 0.346745 0.136409 0.816577
O O3 0.231376 0.000000 0.750000
O O4 0.267533 0.933486 0.839836
O O5 0.822153 0.605656 0.092032
O O6 0.939596 0.777907 0.069027
O O7 0.062372 0.605171 0.081937
O O8 0.924825 0.615839 0.000000
O O9 0.353375 0.646626 0.653802
O O10 0.215341 0.443762 0.652489
O O11 0.751532 0.751532 0.398395
O O12 0.920968 0.920968 0.000000
O O13 0.000000 0.000000 0.084204
#
# Coordination Sequence:
#
# PCOD9567177 Si02
#       5
#    16  16  16  16   8
#     4  10  21  39  63  89 118 150 183 226 288 358
#     4  10  19  35  56  80 112 148 188 236 290 349
#     4  10  22  40  59  81 111 154 205 243 280 337
#     4  11  24  37  55  86 118 151 194 242 290 342
#     4   9  16  26  46  76 107 137 167 211 276 336
#
# _framework density 20.699179999999998
#
# number of rings (size 3 to 8) (size 9 to 14) (size 15 to 20)
#    0.000    1.889    1.111    4.000    1.556    6.889 
#    0.000    0.000    0.000    0.000    0.000    6.222 
#    0.000    0.000    0.000    0.000    0.000    0.000 
#
# Total GULP energy -401519.980812 kJ/mol
# GULP energy per Si atom -5576.666400 kJ/mol
# Density = 2.065207 g / cm^3
# Si number density = 20.699180 Si / 1000 Ang^3
#
#
#
# Elastic Constant Matrix: (Units=GPa)
#
#
# Indices 1 2 3 4 5 6 
#
# 1 45.7177 62.9516 14.9781 0.0000 0.0000 0.0000
# 2 62.9516 45.7177 14.9781 0.0000 0.0000 0.0000
# 3 14.9781 14.9781 78.3721 0.0000 0.0000 0.0000
# 4 0.0000 0.0000 0.0000 14.5501 0.0000 0.0000
# 5 0.0000 0.0000 0.0000 0.0000 14.5501 0.0000
# 6 0.0000 0.0000 0.0000 0.0000 0.0000 34.7924
#
#
#
# Elastic Compliance Matrix: (Units=1/GPa)
#
#
# Indices 1 2 3 4 5 6 
#
# 1 -0.024155 0.033869 -0.001856 0.000000 0.000000 0.000000
# 2 0.033869 -0.024155 -0.001856 0.000000 0.000000 0.000000
# 3 -0.001856 -0.001856 0.013469 0.000000 0.000000 0.000000
# 4 0.000000 0.000000 0.000000 0.068728 0.000000 0.000000
# 5 0.000000 0.000000 0.000000 0.000000 0.068728 0.000000
# 6 0.000000 0.000000 0.000000 0.000000 0.000000 0.028742
#
#
# Mechanical properties :
#
#
# Convention : Reuss Voigt Hill
#
# Bulk Modulus (GPa) = 39.25990 39.51366 39.38678
# Shear Modulus (GPa) = 62.86627 17.90516 40.38571
#
# Velocity S-wave (km/s) = 5.51700 2.94431 4.42189
# Velocity P-wave (km/s) = 7.71953 5.53981 6.71866
#
# Compressibility (1/GPa) = 0.02547129
#
# Stress axis : x y z
#
# Youngs Moduli (GPa) = -41.39853 -41.39853 74.24323
#
# Poissons Ratio (x) = 1.40215 0.13783
# Poissons Ratio (y) = 1.40215 0.13783
# Poissons Ratio (z) = -0.07686 -0.07686
#
# Static dielectric constant tensor:
#      x y z
#    x 1.795940 0.000000 0.000000 
#    y 0.000000 1.795940 0.000000 
#    z 0.000000 0.000000 1.753130 
# 
# From -- ./inp_files/9804.got.cif
#   From: 2010.05.17/outbox.cif.g08.bks.cpg/sg132_5_cif.got.tgz:9804.got - 2010.05.20 12:30:18.
