data_PCOD9567785
_publ_section_title
;
Structure prediction by ZEFSAII (Michael W. Deem and Ramdas Pophale) SiO2 
 PCOD9567785
Probable space group: P 42/N B C
;
_chemical_formula_sum "Si O2"
_cell_formula_units_Z 116
_cell_length_a 19.529399
_cell_length_b 19.529399
_cell_length_c 16.571112
_cell_angle_alpha 90.000000
_cell_angle_beta 90.000000
_cell_angle_gamma 90.000000
_cell_volume 6320.179451
_symmetry_space_group_name_H-M "P 42/N B C"
_symmetry_group_IT_number 133
_space_group.IT_coordinate_system_code '2'
_symmetry_cell_setting 'tetragonal'
loop_
_space_group_symop_operation_xyz
x,y,z
1/2-y,x,1/2+z
1/2-x,1/2-y,z
y,1/2-x,1/2+z
x,1/2-y,-z
1/2-x,y,-z
y,x,1/2-z
1/2-y,1/2-x,1/2-z
-x,-y,-z
1/2+y,-x,1/2-z
1/2+x,1/2+y,-z
-y,1/2+x,1/2-z
-x,1/2+y,z
1/2+x,-y,z
-y,-x,1/2+z
1/2+y,1/2+x,1/2+z
loop_
_atom_site_type_symbol
_atom_site_label
_atom_site_fract_x
_atom_site_fract_y
_atom_site_fract_z
Si Si1 0.143374 0.031856 0.724225
Si Si2 0.011453 0.687967 0.949527
Si Si3 0.750000 0.250000 0.250000
Si Si4 0.769225 0.027840 0.787619
Si Si5 0.132248 0.753502 0.858847
Si Si6 0.446523 0.560106 0.513975
Si Si7 0.968575 0.427332 0.706217
Si Si8 0.393184 0.805287 0.568134
O O1 0.091671 0.091671 0.750000
O O2 0.163245 0.029587 0.629348
O O3 0.214615 0.032064 0.771331
O O4 0.102627 0.959724 0.741577
O O5 0.088747 0.709247 0.921572
O O6 0.023728 0.624863 0.007685
O O7 0.980906 0.750000 0.000000
O O8 0.782069 0.194198 0.310211
O O9 0.765768 0.077235 0.710508
O O10 0.848727 0.010311 0.787202
O O11 0.739163 0.067092 0.864883
O O12 0.161405 0.823968 0.895256
O O13 0.500000 0.500000 0.500000
O O14 0.453850 0.568294 0.610387
O O15 0.441235 0.633367 0.468609
O O16 0.025445 0.474556 0.750000
O O17 0.373474 0.750000 0.500000
#
# Coordination Sequence:
#
# PCOD9567785 Si02
#       8
#    16  16   4  16  16  16  16  16
#     4   9  21  37  61  85 118 159 205 253 303 366
#     4  10  21  38  55  84 118 159 209 250 300 373
#     4  12  24  32  50  76 112 168 198 220 280 360
#     4  11  22  38  58  85 118 155 207 244 303 372
#     4  11  24  35  55  78 119 164 198 235 289 372
#     4  11  25  39  57  84 120 163 205 254 313 357
#     4  10  22  39  59  85 119 158 202 249 303 370
#     4  12  24  39  58  89 126 158 207 261 312 364
#
# _framework density 18.353909000000002
#
# number of rings (size 3 to 8) (size 9 to 14) (size 15 to 20)
#    0.000    1.379    4.138    0.828   13.517    0.000 
#    0.000    0.000    0.000    0.414    0.000    0.000 
#    0.000    0.552    0.000    0.000    0.000    0.000 
#
# Total GULP energy -646175.817894 kJ/mol
# GULP energy per Si atom -5570.481189 kJ/mol
# Density = 1.831214 g / cm^3
# Si number density = 18.353909 Si / 1000 Ang^3
#
#
#
# Elastic Constant Matrix: (Units=GPa)
#
#
# Indices 1 2 3 4 5 6 
#
# 1 89.2922 46.8565 26.8590 0.0000 0.0000 0.0000
# 2 46.8565 89.2906 26.8576 0.0000 0.0000 0.0000
# 3 26.8590 26.8576 56.3108 0.0000 0.0000 0.0000
# 4 0.0000 0.0000 0.0000 27.7066 0.0000 0.0000
# 5 0.0000 0.0000 0.0000 0.0000 27.7066 0.0000
# 6 0.0000 0.0000 0.0000 0.0000 0.0000 27.8524
#
#
#
# Elastic Compliance Matrix: (Units=1/GPa)
#
#
# Indices 1 2 3 4 5 6 
#
# 1 0.016307 -0.007259 -0.004316 0.000000 0.000000 0.000000
# 2 -0.007259 0.016307 -0.004315 0.000000 0.000000 0.000000
# 3 -0.004316 -0.004315 0.021875 0.000000 0.000000 0.000000
# 4 0.000000 0.000000 0.000000 0.036093 0.000000 0.000000
# 5 0.000000 0.000000 0.000000 0.000000 0.036093 0.000000
# 6 0.000000 0.000000 0.000000 0.000000 0.000000 0.035904
#
#
# Mechanical properties :
#
#
# Convention : Reuss Voigt Hill
#
# Bulk Modulus (GPa) = 44.03583 48.44888 46.24235
# Shear Modulus (GPa) = 24.76156 25.60780 25.18468
#
# Velocity S-wave (km/s) = 3.67702 3.73932 3.70830
# Velocity P-wave (km/s) = 6.48629 6.71548 6.60188
#
# Compressibility (1/GPa) = 0.02270878
#
# Stress axis : x y z
#
# Youngs Moduli (GPa) = 61.32519 61.32505 45.71398
#
# Poissons Ratio (x) = 0.44516 0.19729
# Poissons Ratio (y) = 0.44516 0.19726
# Poissons Ratio (z) = 0.26466 0.26462
#
# Static dielectric constant tensor:
#      x y z
#    x 1.371070 0.000000 0.000000 
#    y 0.000000 1.388170 0.000000 
#    z 0.000000 0.000000 1.721940 
# 
# From -- ./inp_files/5633.got.cif
#   From: 2010.05.17/outbox.cif.g08.bks.cpg/sg133_3_cif.got.tgz:5633.got - 2010.05.20 12:37:36.
