data_PCOD9567453
_publ_section_title
;
Structure prediction by ZEFSAII (Michael W. Deem and Ramdas Pophale) SiO2 
 PCOD9567453
Probable space group: P 42/M C M
;
_chemical_formula_sum "Si O2"
_cell_formula_units_Z 52
_cell_length_a 17.528845
_cell_length_b 17.528845
_cell_length_c 7.717043
_cell_angle_alpha 90.000000
_cell_angle_beta 90.000000
_cell_angle_gamma 90.000000
_cell_volume 2371.141773
_symmetry_space_group_name_H-M "P 42/M C M"
_symmetry_group_IT_number 132
_symmetry_cell_setting 'tetragonal'
loop_
_space_group_symop_operation_xyz
x,y,z
-y,x,1/2+z
-x,-y,z
y,-x,1/2+z
x,-y,1/2-z
-x,y,1/2-z
y,x,-z
-y,-x,-z
-x,-y,-z
y,-x,1/2-z
x,y,-z
-y,x,1/2-z
-x,y,1/2+z
x,-y,1/2+z
-y,-x,z
y,x,z
loop_
_atom_site_type_symbol
_atom_site_label
_atom_site_fract_x
_atom_site_fract_y
_atom_site_fract_z
Si Si1 0.290501 0.586049 0.706963
Si Si2 0.086416 0.791904 0.207870
Si Si3 0.000000 0.500000 0.250000
Si Si4 0.380558 0.116948 0.705108
O O1 0.314978 0.500000 0.750000
O O2 0.285098 0.592905 0.500000
O O3 0.350820 0.649181 0.770348
O O4 0.205855 0.599930 0.779397
O O5 0.147839 0.852162 0.276498
O O6 0.102780 0.705664 0.266239
O O7 0.000000 0.813582 0.250000
O O8 0.093958 0.790019 0.000000
O O9 0.063246 0.561949 0.310464
O O10 0.388133 0.095683 0.500000
#
# Coordination Sequence:
#
# PCOD9567453 Si02
#       4
#    16  16   4  16
#     4  11  25  43  65  94 127 165 210 259 310 367
#     4  10  22  40  61  87 121 162 205 251 307 365
#     4  12  22  36  68 102 126 156 202 248 314 368
#     4  11  23  40  64  94 130 163 201 253 313 376
#
# _framework density 21.930364000000001
#
# number of rings (size 3 to 8) (size 9 to 14) (size 15 to 20)
#    0.000    1.231    3.077    2.308    0.000    7.385 
#    0.000    3.077    0.000    0.000    0.000    0.000 
#    0.000    0.000    0.000    0.000    0.000    0.000 
#
# Total GULP energy -290357.195788 kJ/mol
# GULP energy per Si atom -5583.792227 kJ/mol
# Density = 2.188045 g / cm^3
# Si number density = 21.930364 Si / 1000 Ang^3
#
#
#
# Elastic Constant Matrix: (Units=GPa)
#
#
# Indices 1 2 3 4 5 6 
#
# 1 172.5459 136.0098 14.8399 0.0000 0.0000 0.0000
# 2 136.0098 172.5459 14.8399 0.0000 0.0000 0.0000
# 3 14.8399 14.8399 70.0959 0.0000 0.0000 0.0000
# 4 0.0000 0.0000 0.0000 28.6618 0.0000 0.0000
# 5 0.0000 0.0000 0.0000 0.0000 28.6618 0.0000
# 6 0.0000 0.0000 0.0000 0.0000 0.0000 53.4080
#
#
#
# Elastic Compliance Matrix: (Units=1/GPa)
#
#
# Indices 1 2 3 4 5 6 
#
# 1 0.015339 -0.012031 -0.000700 0.000000 0.000000 0.000000
# 2 -0.012031 0.015339 -0.000700 0.000000 0.000000 0.000000
# 3 -0.000700 -0.000700 0.014563 0.000000 0.000000 0.000000
# 4 0.000000 0.000000 0.000000 0.034890 0.000000 0.000000
# 5 0.000000 0.000000 0.000000 0.000000 0.034890 0.000000
# 6 0.000000 0.000000 0.000000 0.000000 0.000000 0.018724
#
#
# Mechanical properties :
#
#
# Convention : Reuss Voigt Hill
#
# Bulk Modulus (GPa) = 54.41373 82.95188 68.68280
# Shear Modulus (GPa) = 29.98791 38.77949 34.38370
#
# Velocity S-wave (km/s) = 3.70187 4.20968 3.96391
# Velocity P-wave (km/s) = 6.56793 7.84447 7.23441
#
# Compressibility (1/GPa) = 0.01837772
#
# Stress axis : x y z
#
# Youngs Moduli (GPa) = 65.19223 65.19223 68.66845
#
# Poissons Ratio (x) = 0.78433 0.04809
# Poissons Ratio (y) = 0.78433 0.04809
# Poissons Ratio (z) = 0.04566 0.04566
#
# Static dielectric constant tensor:
#      x y z
#    x 1.770350 0.000000 0.000000 
#    y 0.000000 1.770350 0.000000 
#    z 0.000000 0.000000 1.901700 
# 
# From -- ./inp_files/874.got.cif
#   From: 2010.05.17/outbox.cif.g08.bks.cpg/sg132_1_cif.got.tgz:874.got - 2010.05.20 12:30:18.
