data_PCOD9567402
_publ_section_title
;
Structure prediction by ZEFSAII (Michael W. Deem and Ramdas Pophale) SiO2 
 PCOD9567402
Probable space group: P 42/M C M
;
_chemical_formula_sum "Si O2"
_cell_formula_units_Z 58
_cell_length_a 14.771877
_cell_length_b 14.771877
_cell_length_c 15.245663
_cell_angle_alpha 90.000000
_cell_angle_beta 90.000000
_cell_angle_gamma 90.000000
_cell_volume 3326.730969
_symmetry_space_group_name_H-M "P 42/M C M"
_symmetry_group_IT_number 132
_symmetry_cell_setting 'tetragonal'
loop_
_space_group_symop_operation_xyz
x,y,z
-y,x,1/2+z
-x,-y,z
y,-x,1/2+z
x,-y,1/2-z
-x,y,1/2-z
y,x,-z
-y,-x,-z
-x,-y,-z
y,-x,1/2-z
x,y,-z
-y,x,1/2-z
-x,y,1/2+z
x,-y,1/2+z
-y,-x,z
y,x,z
loop_
_atom_site_type_symbol
_atom_site_label
_atom_site_fract_x
_atom_site_fract_y
_atom_site_fract_z
Si Si1 0.611654 0.388347 0.397138
Si Si2 0.091884 0.243472 0.194333
Si Si3 0.254335 0.889203 0.500000
Si Si4 0.808866 0.563812 0.832499
Si Si5 0.101634 0.470483 0.000000
Si Si6 0.500000 0.500000 0.750000
O O1 0.589776 0.410225 0.500000
O O2 0.593963 0.283533 0.378258
O O3 0.558672 0.441329 0.319467
O O4 0.169343 0.169343 0.219390
O O5 0.135410 0.345237 0.194345
O O6 0.000000 0.239195 0.250000
O O7 0.068180 0.224868 0.091837
O O8 0.211278 0.788722 0.500000
O O9 0.361958 0.888009 0.500000
O O10 0.792235 0.500000 0.750000
O O11 0.856965 0.503114 0.907071
O O12 0.000000 0.500000 0.000000
#
# Coordination Sequence:
#
# PCOD9567402 Si02
#       6
#     8  16   8  16   8   2
#     4  12  23  43  65  88 120 169 214 249 298 377
#     4  10  21  37  60  86 115 152 199 248 301 363
#     4   8  18  36  57  79 110 157 195 233 286 367
#     4  11  23  37  60  88 121 157 203 252 309 364
#     4  10  22  34  56  88 121 151 198 251 306 366
#     4  12  26  44  60  98 128 160 218 264 300 346
#
# _framework density 17.434532000000001
#
# number of rings (size 3 to 8) (size 9 to 14) (size 15 to 20)
#    0.000    1.655    4.138    0.207    9.655    0.276 
#    0.000    0.690    0.000    2.483    0.000    0.000 
#    0.000    0.000    0.000    0.000    0.000    0.000 
#
# Total GULP energy -322948.315212 kJ/mol
# GULP energy per Si atom -5568.074400 kJ/mol
# Density = 1.739485 g / cm^3
# Si number density = 17.434532 Si / 1000 Ang^3
#
#
#
# Elastic Constant Matrix: (Units=GPa)
#
#
# Indices 1 2 3 4 5 6 
#
# 1 77.1800 22.0351 47.8916 0.0000 0.0000 0.0000
# 2 22.0351 77.1793 47.8921 0.0000 0.0000 0.0000
# 3 47.8916 47.8921 141.4251 0.0000 0.0000 0.0000
# 4 0.0000 0.0000 0.0000 33.1456 0.0000 0.0000
# 5 0.0000 0.0000 0.0000 0.0000 33.1454 0.0000
# 6 0.0000 0.0000 0.0000 0.0000 0.0000 15.3026
#
#
#
# Elastic Compliance Matrix: (Units=1/GPa)
#
#
# Indices 1 2 3 4 5 6 
#
# 1 0.016554 -0.001580 -0.005071 0.000000 0.000000 0.000000
# 2 -0.001580 0.016555 -0.005071 0.000000 0.000000 0.000000
# 3 -0.005071 -0.005071 0.010505 0.000000 0.000000 0.000000
# 4 0.000000 0.000000 0.000000 0.030170 0.000000 0.000000
# 5 0.000000 0.000000 0.000000 0.000000 0.030170 0.000000
# 6 0.000000 0.000000 0.000000 0.000000 0.000000 0.065348
#
#
# Mechanical properties :
#
#
# Convention : Reuss Voigt Hill
#
# Bulk Modulus (GPa) = 49.57648 59.04688 54.31168
# Shear Modulus (GPa) = 25.06647 28.18311 26.62479
#
# Velocity S-wave (km/s) = 3.79588 4.02495 3.91209
# Velocity P-wave (km/s) = 6.90718 7.45262 7.18508
#
# Compressibility (1/GPa) = 0.02017085
#
# Stress axis : x y z
#
# Youngs Moduli (GPa) = 60.40707 60.40610 95.18947
#
# Poissons Ratio (x) = 0.09542 0.48270
# Poissons Ratio (y) = 0.09542 0.48272
# Poissons Ratio (z) = 0.30632 0.30633
#
# Static dielectric constant tensor:
#      x y z
#    x 1.591810 0.000000 0.000000 
#    y 0.000000 1.591800 0.000000 
#    z 0.000000 0.000000 1.646200 
# 
# From -- ./inp_files/4499.got.cif
#   From: 2010.05.17/outbox.cif.g08.bks.cpg/sg132_3_cif.got.tgz:4499.got - 2010.05.20 12:30:18.
