data_PCOD9567953
_publ_section_title
;
Structure prediction by ZEFSAII (Michael W. Deem and Ramdas Pophale) SiO2 
 PCOD9567953
Probable space group: P 42/N B C
;
_chemical_formula_sum "Si O2"
_cell_formula_units_Z 88
_cell_length_a 16.986279
_cell_length_b 16.986279
_cell_length_c 14.757760
_cell_angle_alpha 90.000000
_cell_angle_beta 90.000000
_cell_angle_gamma 90.000000
_cell_volume 4258.110717
_symmetry_space_group_name_H-M "P 42/N B C"
_symmetry_group_IT_number 133
_space_group.IT_coordinate_system_code '2'
_symmetry_cell_setting 'tetragonal'
loop_
_space_group_symop_operation_xyz
x,y,z
1/2-y,x,1/2+z
1/2-x,1/2-y,z
y,1/2-x,1/2+z
x,1/2-y,-z
1/2-x,y,-z
y,x,1/2-z
1/2-y,1/2-x,1/2-z
-x,-y,-z
1/2+y,-x,1/2-z
1/2+x,1/2+y,-z
-y,1/2+x,1/2-z
-x,1/2+y,z
1/2+x,-y,z
-y,-x,1/2+z
1/2+y,1/2+x,1/2+z
loop_
_atom_site_type_symbol
_atom_site_label
_atom_site_fract_x
_atom_site_fract_y
_atom_site_fract_z
Si Si1 0.356679 0.550035 0.581569
Si Si2 0.147505 0.829253 0.731611
Si Si3 0.618454 0.620258 0.359863
Si Si4 0.527925 0.168875 0.882313
Si Si5 0.107616 0.250000 0.500000
Si Si6 0.148228 0.196483 0.149149
O O1 0.373056 0.628808 0.637554
O O2 0.398195 0.469242 0.610799
O O3 0.369173 0.555687 0.475273
O O4 0.263257 0.536747 0.601559
O O5 0.234484 0.852900 0.766798
O O6 0.083522 0.857532 0.802447
O O7 0.615783 0.615783 0.250000
O O8 0.573780 0.684255 0.425391
O O9 0.711380 0.639795 0.373566
O O10 0.437699 0.157670 0.856691
O O11 0.156482 0.302112 0.570502
O O12 0.183155 0.183155 0.250000
#
# Coordination Sequence:
#
# PCOD9567953 Si02
#       6
#    16  16  16  16   8  16
#     4   9  18  33  54  80 111 144 178 231 291 332
#     4   9  18  34  59  84 104 134 185 236 286 357
#     4  11  20  31  52  80 114 152 189 232 269 320
#     4   9  18  33  54  80 111 144 178 231 291 332
#     4  12  21  32  52  84 116 154 211 228 257 330
#     4  11  20  31  52  80 114 152 189 232 269 320
#
# _framework density 20.666443000000001
#
# number of rings (size 3 to 8) (size 9 to 14) (size 15 to 20)
#    0.000    2.000    3.636    1.636    0.000    0.727 
#    0.000    4.545    4.000    2.182    0.000    0.000 
#    0.000    0.000    0.000    0.000    0.000    0.000 
#
# Total GULP energy -490215.896804 kJ/mol
# GULP energy per Si atom -5570.635191 kJ/mol
# Density = 2.061941 g / cm^3
# Si number density = 20.666443 Si / 1000 Ang^3
#
#
#
# Elastic Constant Matrix: (Units=GPa)
#
#
# Indices 1 2 3 4 5 6 
#
# 1 39.7163 29.9436 31.7237 0.0000 0.0000 0.0000
# 2 29.9436 39.7163 31.7237 0.0000 0.0000 0.0000
# 3 31.7237 31.7237 120.9905 0.0000 0.0000 0.0000
# 4 0.0000 0.0000 0.0000 17.3640 0.0000 0.0000
# 5 0.0000 0.0000 0.0000 0.0000 17.3640 0.0000
# 6 0.0000 0.0000 0.0000 0.0000 0.0000 1.0725
#
#
#
# Elastic Compliance Matrix: (Units=1/GPa)
#
#
# Indices 1 2 3 4 5 6 
#
# 1 0.060593 -0.041734 -0.004945 0.000000 0.000000 0.000000
# 2 -0.041734 0.060593 -0.004945 0.000000 0.000000 0.000000
# 3 -0.004945 -0.004945 0.010858 0.000000 0.000000 0.000000
# 4 0.000000 0.000000 0.000000 0.057590 0.000000 0.000000
# 5 0.000000 0.000000 0.000000 0.000000 0.057590 0.000000
# 6 0.000000 0.000000 0.000000 0.000000 0.000000 0.932395
#
#
# Mechanical properties :
#
#
# Convention : Reuss Voigt Hill
#
# Bulk Modulus (GPa) = 34.72551 43.02278 38.87414
# Shear Modulus (GPa) = 3.86857 14.29559 9.08208
#
# Velocity S-wave (km/s) = 1.36966 2.63293 2.09860
# Velocity P-wave (km/s) = 4.39780 5.48689 4.97225
#
# Compressibility (1/GPa) = 0.02879728
#
# Stress axis : x y z
#
# Youngs Moduli (GPa) = 16.50356 16.50356 92.09609
#
# Poissons Ratio (x) = 0.68875 0.45541
# Poissons Ratio (y) = 0.68875 0.45541
# Poissons Ratio (z) = 0.08161 0.08161
#
# Static dielectric constant tensor:
#      x y z
#    x 1.766660 0.000000 0.000000 
#    y 0.000000 1.766660 0.000000 
#    z 0.000000 0.000000 1.793300 
# 
# From -- ./inp_files/4473.got.cif
#   From: 2010.05.17/outbox.cif.g08.bks.cpg/sg133_3_cif.got.tgz:4473.got - 2010.05.20 12:37:36.
