data_PCOD9567464
_publ_section_title
;
Structure prediction by ZEFSAII (Michael W. Deem and Ramdas Pophale) SiO2 
 PCOD9567464
Probable space group: P 42/M C M
;
_chemical_formula_sum "Si O2"
_cell_formula_units_Z 92
_cell_length_a 15.363805
_cell_length_b 15.363805
_cell_length_c 21.322578
_cell_angle_alpha 90.000000
_cell_angle_beta 90.000000
_cell_angle_gamma 90.000000
_cell_volume 5033.119995
_symmetry_space_group_name_H-M "P 42/M C M"
_symmetry_group_IT_number 132
_symmetry_cell_setting 'tetragonal'
loop_
_space_group_symop_operation_xyz
x,y,z
-y,x,1/2+z
-x,-y,z
y,-x,1/2+z
x,-y,1/2-z
-x,y,1/2-z
y,x,-z
-y,-x,-z
-x,-y,-z
y,-x,1/2-z
x,y,-z
-y,x,1/2-z
-x,y,1/2+z
x,-y,1/2+z
-y,-x,z
y,x,z
loop_
_atom_site_type_symbol
_atom_site_label
_atom_site_fract_x
_atom_site_fract_y
_atom_site_fract_z
Si Si1 0.814677 0.814677 0.500000
Si Si2 0.363545 0.495746 0.609464
Si Si3 0.511036 0.829689 0.931890
Si Si4 0.500000 0.302821 0.750000
Si Si5 0.594297 0.046987 0.331731
Si Si6 0.114679 0.319268 0.395177
Si Si7 0.673874 0.186746 0.242525
O O1 0.866408 0.757208 0.444283
O O2 0.433273 0.566728 0.589521
O O3 0.401049 0.401049 0.592968
O O4 0.272492 0.515306 0.578627
O O5 0.354397 0.500457 0.684927
O O6 0.564007 0.876912 0.878097
O O7 0.410022 0.854469 0.925633
O O8 0.543544 0.856395 0.000000
O O9 0.586799 0.244636 0.752208
O O10 0.646392 0.096188 0.276321
O O11 0.500000 0.000000 0.316671
O O12 0.657394 0.982031 0.369757
O O13 0.167522 0.308574 0.330321
O O14 0.755393 0.244608 0.267527
#
# Coordination Sequence:
#
# PCOD9567464 Si02
#       7
#     4  16  16   8  16  16  16
#     4  12  24  40  62 100 126 160 200 248 324 410
#     4  11  23  36  51  75 112 167 221 266 307 358
#     4  11  23  36  56  80 115 164 217 264 321 376
#     4  12  20  33  57  80 118 158 212 262 311 361
#     4  10  23  41  63  91 129 166 212 268 331 388
#     4  11  23  38  62  87 124 160 197 261 321 388
#     4  12  22  38  63  95 125 167 214 262 321 372
#
# _framework density 18.278919999999999
#
# number of rings (size 3 to 8) (size 9 to 14) (size 15 to 20)
#    0.000    0.870    5.217    3.130    2.435    4.522 
#    0.000    0.870    0.000    0.000    0.000    1.217 
#    0.000    0.000    0.000    0.000    0.000    0.000 
#
# Total GULP energy -512448.293799 kJ/mol
# GULP energy per Si atom -5570.090150 kJ/mol
# Density = 1.823732 g / cm^3
# Si number density = 18.278920 Si / 1000 Ang^3
#
#
#
# Elastic Constant Matrix: (Units=GPa)
#
#
# Indices 1 2 3 4 5 6 
#
# 1 47.3085 72.5113 27.4895 0.0000 0.0000 0.0000
# 2 72.5113 47.3085 27.4895 0.0000 0.0000 0.0000
# 3 27.4895 27.4895 111.3741 0.0000 0.0000 0.0000
# 4 0.0000 0.0000 0.0000 -30.4889 0.0000 0.0000
# 5 0.0000 0.0000 0.0000 0.0000 -30.4889 0.0000
# 6 0.0000 0.0000 0.0000 0.0000 0.0000 23.9892
#
#
#
# Elastic Compliance Matrix: (Units=1/GPa)
#
#
# Indices 1 2 3 4 5 6 
#
# 1 -0.015133 0.024545 -0.002323 0.000000 0.000000 0.000000
# 2 0.024545 -0.015133 -0.002323 0.000000 0.000000 0.000000
# 3 -0.002323 -0.002323 0.010125 0.000000 0.000000 0.000000
# 4 0.000000 0.000000 0.000000 -0.032799 0.000000 0.000000
# 5 0.000000 0.000000 0.000000 0.000000 -0.032799 0.000000
# 6 0.000000 0.000000 0.000000 0.000000 0.000000 0.041685
#
#
# Mechanical properties :
#
#
# Convention : Reuss Voigt Hill
#
# Bulk Modulus (GPa) = 50.87261 51.21908 51.04584
# Shear Modulus (GPa) = -64.68422 -2.16433 -33.42427
#
# Velocity S-wave (km/s) = -5.95518 -1.08932 -4.28082
# Velocity P-wave (km/s) = 4.40384 5.14777 1.88490
#
# Compressibility (1/GPa) = 0.01965694
#
# Stress axis : x y z
#
# Youngs Moduli (GPa) = -66.07997 -66.07997 98.76064
#
# Poissons Ratio (x) = 1.62193 0.22942
# Poissons Ratio (y) = 1.62193 0.22942
# Poissons Ratio (z) = -0.15351 -0.15351
#
# Static dielectric constant tensor:
#      x y z
#    x 1.644490 0.000000 0.000000 
#    y 0.000000 1.644490 0.000000 
#    z 0.000000 0.000000 1.661870 
# 
# From -- ./inp_files/7942.got.cif
#   From: 2010.05.17/outbox.cif.g08.bks.cpg/sg132_4_cif.got.tgz:7942.got - 2010.05.20 12:30:18.
