data_PCOD9567942
_publ_section_title
;
Structure prediction by ZEFSAII (Michael W. Deem and Ramdas Pophale) SiO2 
 PCOD9567942
Probable space group: P 42/N B C
;
_chemical_formula_sum "Si O2"
_cell_formula_units_Z 44
_cell_length_a 9.217183
_cell_length_b 9.217183
_cell_length_c 19.359969
_cell_angle_alpha 90.000000
_cell_angle_beta 90.000000
_cell_angle_gamma 90.000000
_cell_volume 1644.754479
_symmetry_space_group_name_H-M "P 42/N B C"
_symmetry_group_IT_number 133
_space_group.IT_coordinate_system_code '2'
_symmetry_cell_setting 'tetragonal'
loop_
_space_group_symop_operation_xyz
x,y,z
1/2-y,x,1/2+z
1/2-x,1/2-y,z
y,1/2-x,1/2+z
x,1/2-y,-z
1/2-x,y,-z
y,x,1/2-z
1/2-y,1/2-x,1/2-z
-x,-y,-z
1/2+y,-x,1/2-z
1/2+x,1/2+y,-z
-y,1/2+x,1/2-z
-x,1/2+y,z
1/2+x,-y,z
-y,-x,1/2+z
1/2+y,1/2+x,1/2+z
loop_
_atom_site_type_symbol
_atom_site_label
_atom_site_fract_x
_atom_site_fract_y
_atom_site_fract_z
Si Si1 0.857753 0.516157 0.912116
Si Si2 0.109126 0.481032 0.818151
Si Si3 0.750000 0.250000 0.750000
Si Si4 0.964577 0.250000 0.000000
O O1 0.697881 0.558434 0.886977
O O2 0.943272 0.489620 0.840852
O O3 0.936162 0.645612 0.952536
O O4 0.874283 0.366757 0.954554
O O5 0.160317 0.640429 0.797288
O O6 0.118129 0.381872 0.750000
#
# Coordination Sequence:
#
# PCOD9567942 Si02
#       4
#    16  16   4   8
#     4  11  26  48  77 111 156 203 264 324 383 478
#     4  12  26  48  79 115 156 204 259 322 404 462
#     4  12  24  52  72 114 160 212 240 324 418 464
#     4  10  26  50  76 112 154 214 262 318 392 460
#
# _framework density 26.751712999999999
#
# number of rings (size 3 to 8) (size 9 to 14) (size 15 to 20)
#    0.000    0.727    3.636    2.182    0.000   10.182 
#    6.545    0.000    0.000    0.000    0.000    0.000 
#    0.000    0.000    0.000    0.000    0.000    0.000 
#
# Total GULP energy -246962.624681 kJ/mol
# GULP energy per Si atom -5612.786925 kJ/mol
# Density = 2.669083 g / cm^3
# Si number density = 26.751713 Si / 1000 Ang^3
#
#
#
# Elastic Constant Matrix: (Units=GPa)
#
#
# Indices 1 2 3 4 5 6 
#
# 1 110.8463 37.3503 43.9426 0.0000 0.0000 0.0000
# 2 37.3503 110.8467 43.9428 0.0000 0.0000 0.0000
# 3 43.9426 43.9428 121.4074 0.0000 0.0000 0.0000
# 4 0.0000 0.0000 0.0000 57.3317 0.0000 0.0000
# 5 0.0000 0.0000 0.0000 0.0000 57.3317 0.0000
# 6 0.0000 0.0000 0.0000 0.0000 0.0000 30.9962
#
#
#
# Elastic Compliance Matrix: (Units=1/GPa)
#
#
# Indices 1 2 3 4 5 6 
#
# 1 0.011099 -0.002507 -0.003110 0.000000 0.000000 0.000000
# 2 -0.002507 0.011099 -0.003110 0.000000 0.000000 0.000000
# 3 -0.003110 -0.003110 0.010488 0.000000 0.000000 0.000000
# 4 0.000000 0.000000 0.000000 0.017442 0.000000 0.000000
# 5 0.000000 0.000000 0.000000 0.000000 0.017442 0.000000
# 6 0.000000 0.000000 0.000000 0.000000 0.000000 0.032262
#
#
# Mechanical properties :
#
#
# Convention : Reuss Voigt Hill
#
# Bulk Modulus (GPa) = 65.64865 65.95244 65.80055
# Shear Modulus (GPa) = 40.86178 43.65625 42.25901
#
# Velocity S-wave (km/s) = 3.91249 4.04407 3.97882
# Velocity P-wave (km/s) = 6.70846 6.82005 6.76448
#
# Compressibility (1/GPa) = 0.01523260
#
# Stress axis : x y z
#
# Youngs Moduli (GPa) = 90.09742 90.09772 95.34797
#
# Poissons Ratio (x) = 0.22588 0.29652
# Poissons Ratio (y) = 0.22588 0.29652
# Poissons Ratio (z) = 0.28019 0.28019
#
# Static dielectric constant tensor:
#      x y z
#    x 2.033420 0.000000 0.000000 
#    y 0.000000 2.033420 0.000000 
#    z 0.000000 0.000000 2.065050 
# 
# From -- ./inp_files/7432.got.cif
#   From: 2010.05.17/outbox.cif.g08.bks.cpg/sg133_4_cif.got.tgz:7432.got - 2010.05.20 12:37:36.
