data_PCOD9567790
_publ_section_title
;
Structure prediction by ZEFSAII (Michael W. Deem and Ramdas Pophale) SiO2 
 PCOD9567790
Probable space group: P 42/N B C
;
_chemical_formula_sum "Si O2"
_cell_formula_units_Z 112
_cell_length_a 15.249928
_cell_length_b 15.249928
_cell_length_c 25.486079
_cell_angle_alpha 90.000000
_cell_angle_beta 90.000000
_cell_angle_gamma 90.000000
_cell_volume 5927.050280
_symmetry_space_group_name_H-M "P 42/N B C"
_symmetry_group_IT_number 133
_space_group.IT_coordinate_system_code '2'
_symmetry_cell_setting 'tetragonal'
loop_
_space_group_symop_operation_xyz
x,y,z
1/2-y,x,1/2+z
1/2-x,1/2-y,z
y,1/2-x,1/2+z
x,1/2-y,-z
1/2-x,y,-z
y,x,1/2-z
1/2-y,1/2-x,1/2-z
-x,-y,-z
1/2+y,-x,1/2-z
1/2+x,1/2+y,-z
-y,1/2+x,1/2-z
-x,1/2+y,z
1/2+x,-y,z
-y,-x,1/2+z
1/2+y,1/2+x,1/2+z
loop_
_atom_site_type_symbol
_atom_site_label
_atom_site_fract_x
_atom_site_fract_y
_atom_site_fract_z
Si Si1 0.173249 0.319074 0.833473
Si Si2 0.530805 0.324836 0.458743
Si Si3 0.377767 0.794685 0.729921
Si Si4 0.868985 0.826670 0.956562
Si Si5 0.649867 0.216001 0.390144
Si Si6 0.424407 0.225047 0.254258
Si Si7 0.343761 0.573714 0.477429
O O1 0.250000 0.250000 0.823357
O O2 0.152625 0.310311 0.895107
O O3 0.217030 0.405472 0.807076
O O4 0.094894 0.287864 0.795634
O O5 0.557851 0.250000 0.500000
O O6 0.426057 0.332682 0.463087
O O7 0.577886 0.289908 0.406210
O O8 0.580860 0.410876 0.479277
O O9 0.351235 0.693137 0.738658
O O10 0.364049 0.812772 0.669033
O O11 0.477181 0.808562 0.746158
O O12 0.973033 0.834479 0.962836
O O13 0.843741 0.750000 0.000000
O O14 0.750000 0.250000 0.396944
O O15 0.636248 0.132167 0.427050
O O16 0.355837 0.144164 0.250000
O O17 0.250000 0.604563 0.500000
#
# Coordination Sequence:
#
# PCOD9567790 Si02
#       7
#    16  16  16  16  16  16  16
#     4   9  20  39  68  84 114 165 198 243 296 363
#     4  10  22  37  61  83 116 162 203 240 285 364
#     4  11  23  38  59  91 128 152 186 261 326 355
#     4  11  24  37  57  92 129 153 190 255 309 356
#     4  11  20  38  64  84 115 163 208 244 295 371
#     4   9  20  44  65  87 115 156 215 246 289 373
#     4  10  21  38  60  84 117 160 204 245 288 355
#
# _framework density 18.896415000000001
#
# number of rings (size 3 to 8) (size 9 to 14) (size 15 to 20)
#    0.000    1.857    2.857    2.143    4.000    0.000 
#    5.143    1.429    0.000    0.000    0.000    0.000 
#    0.000    0.000    0.000    0.000    0.000    0.000 
#
# Total GULP energy -623713.643562 kJ/mol
# GULP energy per Si atom -5568.871818 kJ/mol
# Density = 1.885341 g / cm^3
# Si number density = 18.896415 Si / 1000 Ang^3
#
#
#
# Elastic Constant Matrix: (Units=GPa)
#
#
# Indices 1 2 3 4 5 6 
#
# 1 93.4643 13.8841 20.4189 0.0000 0.0000 0.0000
# 2 13.8841 93.4642 20.4189 0.0000 0.0000 0.0000
# 3 20.4189 20.4189 89.4244 0.0000 0.0000 0.0000
# 4 0.0000 0.0000 0.0000 45.8604 0.0000 0.0000
# 5 0.0000 0.0000 0.0000 0.0000 45.8606 0.0000
# 6 0.0000 0.0000 0.0000 0.0000 0.0000 16.8926
#
#
#
# Elastic Compliance Matrix: (Units=1/GPa)
#
#
# Indices 1 2 3 4 5 6 
#
# 1 0.011384 -0.001182 -0.002329 0.000000 0.000000 0.000000
# 2 -0.001182 0.011384 -0.002329 0.000000 0.000000 0.000000
# 3 -0.002329 -0.002329 0.012246 0.000000 0.000000 0.000000
# 4 0.000000 0.000000 0.000000 0.021805 0.000000 0.000000
# 5 0.000000 0.000000 0.000000 0.000000 0.021805 0.000000
# 6 0.000000 0.000000 0.000000 0.000000 0.000000 0.059198
#
#
# Mechanical properties :
#
#
# Convention : Reuss Voigt Hill
#
# Bulk Modulus (GPa) = 42.85955 42.86631 42.86293
# Shear Modulus (GPa) = 31.79013 36.49811 34.14412
#
# Velocity S-wave (km/s) = 4.10608 4.39963 4.25539
# Velocity P-wave (km/s) = 6.72387 6.96729 6.84666
#
# Compressibility (1/GPa) = 0.02333202
#
# Stress axis : x y z
#
# Youngs Moduli (GPa) = 87.84424 87.84414 81.65652
#
# Poissons Ratio (x) = 0.10385 0.19021
# Poissons Ratio (y) = 0.10385 0.19021
# Poissons Ratio (z) = 0.20463 0.20463
#
# Static dielectric constant tensor:
#      x y z
#    x 1.666720 0.000000 0.000000 
#    y 0.000000 1.666720 0.000000 
#    z 0.000000 0.000000 1.711580 
# 
# From -- ./inp_files/7229.got.cif
#   From: 2010.05.17/outbox.cif.g08.bks.cpg/sg133_4_cif.got.tgz:7229.got - 2010.05.20 12:37:36.
