data_PCOD9567781
_publ_section_title
;
Structure prediction by ZEFSAII (Michael W. Deem and Ramdas Pophale) SiO2 
 PCOD9567781
Probable space group: P 42/N B C
;
_chemical_formula_sum "Si O2"
_cell_formula_units_Z 96
_cell_length_a 25.449425
_cell_length_b 25.449425
_cell_length_c 8.086059
_cell_angle_alpha 90.000000
_cell_angle_beta 90.000000
_cell_angle_gamma 90.000000
_cell_volume 5237.123973
_symmetry_space_group_name_H-M "P 42/N B C"
_symmetry_group_IT_number 133
_space_group.IT_coordinate_system_code '2'
_symmetry_cell_setting 'tetragonal'
loop_
_space_group_symop_operation_xyz
x,y,z
1/2-y,x,1/2+z
1/2-x,1/2-y,z
y,1/2-x,1/2+z
x,1/2-y,-z
1/2-x,y,-z
y,x,1/2-z
1/2-y,1/2-x,1/2-z
-x,-y,-z
1/2+y,-x,1/2-z
1/2+x,1/2+y,-z
-y,1/2+x,1/2-z
-x,1/2+y,z
1/2+x,-y,z
-y,-x,1/2+z
1/2+y,1/2+x,1/2+z
loop_
_atom_site_type_symbol
_atom_site_label
_atom_site_fract_x
_atom_site_fract_y
_atom_site_fract_z
Si Si1 0.750000 0.907998 0.500000
Si Si2 0.951805 0.964884 0.439941
Si Si3 0.250685 0.663975 0.799253
Si Si4 0.561693 0.862983 0.360526
Si Si5 0.004523 0.162972 0.056771
Si Si6 0.750000 0.081816 0.500000
Si Si7 0.143771 0.276579 0.665355
O O1 0.698372 0.944435 0.487278
O O2 0.744939 0.877069 0.673852
O O3 0.959308 0.959308 0.250000
O O4 0.954206 0.905411 0.506557
O O5 0.895222 0.990314 0.482542
O O6 0.000000 0.000000 0.500000
O O7 0.200238 0.699232 0.748049
O O8 0.251500 0.615806 0.669277
O O9 0.250000 0.653831 0.000000
O O10 0.602121 0.897880 0.250000
O O11 0.511782 0.845749 0.252984
O O12 0.595139 0.811783 0.404189
O O13 0.955075 0.198200 0.008313
O O14 0.165634 0.250000 0.500000
O O15 0.186213 0.313788 0.750000
#
# Coordination Sequence:
#
# PCOD9567781 Si02
#       7
#     8  16  16  16  16   8  16
#     4   9  20  40  63  87 121 161 202 254 313 368
#     4  11  22  39  62  89 121 162 203 249 310 378
#     4  11  20  40  64  86 118 165 210 255 315 384
#     4   8  17  38  60  81 113 154 198 244 299 368
#     4   9  20  41  61  87 126 160 200 262 310 365
#     4  11  22  41  62  95 131 160 213 272 309 374
#     4  10  21  37  60  88 116 156 204 252 302 362
#
# _framework density 18.330673000000001
#
# number of rings (size 3 to 8) (size 9 to 14) (size 15 to 20)
#    0.000    2.167    1.667    3.000    2.333    0.667 
#    9.000    2.917    0.000    0.000    0.000    0.000 
#    0.000    0.000    0.000    0.000    0.000    0.000 
#
# Total GULP energy -534508.908112 kJ/mol
# GULP energy per Si atom -5567.801126 kJ/mol
# Density = 1.828895 g / cm^3
# Si number density = 18.330673 Si / 1000 Ang^3
#
#
#
# Elastic Constant Matrix: (Units=GPa)
#
#
# Indices 1 2 3 4 5 6 
#
# 1 94.6981 43.3193 64.5163 0.0000 0.0000 0.0000
# 2 43.3193 94.6967 64.5157 0.0000 0.0000 0.0000
# 3 64.5163 64.5157 164.2631 0.0000 0.0000 0.0000
# 4 0.0000 0.0000 0.0000 29.4250 0.0000 0.0000
# 5 0.0000 0.0000 0.0000 0.0000 29.4246 0.0000
# 6 0.0000 0.0000 0.0000 0.0000 0.0000 6.7288
#
#
#
# Elastic Compliance Matrix: (Units=1/GPa)
#
#
# Indices 1 2 3 4 5 6 
#
# 1 0.015457 -0.004007 -0.004497 0.000000 0.000000 0.000000
# 2 -0.004007 0.015457 -0.004497 0.000000 0.000000 0.000000
# 3 -0.004497 -0.004497 0.009620 0.000000 0.000000 0.000000
# 4 0.000000 0.000000 0.000000 0.033985 0.000000 0.000000
# 5 0.000000 0.000000 0.000000 0.000000 0.033985 0.000000
# 6 0.000000 0.000000 0.000000 0.000000 0.000000 0.148614
#
#
# Mechanical properties :
#
#
# Convention : Reuss Voigt Hill
#
# Bulk Modulus (GPa) = 68.81475 77.59562 73.20519
# Shear Modulus (GPa) = 17.36331 25.20280 21.28305
#
# Velocity S-wave (km/s) = 3.08104 3.71198 3.41113
# Velocity P-wave (km/s) = 7.09080 7.79709 7.45232
#
# Compressibility (1/GPa) = 0.01453177
#
# Stress axis : x y z
#
# Youngs Moduli (GPa) = 64.69755 64.69669 103.94697
#
# Poissons Ratio (x) = 0.25923 0.46745
# Poissons Ratio (y) = 0.25924 0.46745
# Poissons Ratio (z) = 0.29095 0.29094
#
# Static dielectric constant tensor:
#      x y z
#    x 1.536810 0.000000 0.000000 
#    y 0.000000 1.536670 0.000000 
#    z 0.000000 0.000000 1.618280 
# 
# From -- ./inp_files/1947.got.cif
#   From: 2010.05.17/outbox.cif.g08.bks.cpg/sg133_1_cif.got.tgz:1947.got - 2010.05.20 12:37:36.
