data_PCOD9567132
_publ_section_title
;
Structure prediction by ZEFSAII (Michael W. Deem and Ramdas Pophale) SiO2 
 PCOD9567132
Probable space group: P 42/M C M
;
_chemical_formula_sum "Si O2"
_cell_formula_units_Z 88
_cell_length_a 12.263728
_cell_length_b 12.263728
_cell_length_c 29.267633
_cell_angle_alpha 90.000000
_cell_angle_beta 90.000000
_cell_angle_gamma 90.000000
_cell_volume 4401.823451
_symmetry_space_group_name_H-M "P 42/M C M"
_symmetry_group_IT_number 132
_symmetry_cell_setting 'tetragonal'
loop_
_space_group_symop_operation_xyz
x,y,z
-y,x,1/2+z
-x,-y,z
y,-x,1/2+z
x,-y,1/2-z
-x,y,1/2-z
y,x,-z
-y,-x,-z
-x,-y,-z
y,-x,1/2-z
x,y,-z
-y,x,1/2-z
-x,y,1/2+z
x,-y,1/2+z
-y,-x,z
y,x,z
loop_
_atom_site_type_symbol
_atom_site_label
_atom_site_fract_x
_atom_site_fract_y
_atom_site_fract_z
Si Si1 0.898005 0.289762 0.948029
Si Si2 0.744600 0.438724 0.894966
Si Si3 0.997389 0.181896 0.631623
Si Si4 0.594357 0.594357 0.053287
Si Si5 0.274591 0.451329 0.800903
Si Si6 0.037655 0.622493 0.698007
O O1 0.800161 0.199840 0.949870
O O2 0.851981 0.391594 0.918948
O O3 0.992479 0.232397 0.918995
O O4 0.925231 0.318674 0.000000
O O5 0.654137 0.345864 0.901986
O O6 0.698386 0.545082 0.920694
O O7 0.746852 0.462080 0.841042
O O8 0.098510 0.098510 0.637711
O O9 0.006119 0.281769 0.666447
O O10 0.888508 0.111493 0.637927
O O11 0.500000 0.500000 0.055024
O O12 0.615565 0.615565 0.000000
O O13 0.281250 0.500000 0.750000
O O14 0.383975 0.383975 0.810703
O O15 0.168485 0.375419 0.802642
O O16 0.000000 0.500000 0.684195
O O17 0.000000 0.636900 0.750000
#
# Coordination Sequence:
#
# PCOD9567132 Si02
#       6
#    16  16  16   8  16  16
#     4   9  18  33  58  91 124 161 207 260 315 370
#     4  10  19  33  53  84 126 168 212 258 305 364
#     4  10  22  40  65  96 126 161 208 268 326 375
#     4   9  16  28  50  78 116 166 219 265 305 353
#     4  12  24  38  59  88 123 166 205 250 310 374
#     4  11  23  44  63  88 119 162 211 255 314 385
#
# _framework density 19.991714999999999
#
# number of rings (size 3 to 8) (size 9 to 14) (size 15 to 20)
#    0.000    1.727    2.727    2.727    0.000    4.909 
#    0.000    2.727    0.000    6.000    0.000    0.000 
#    0.000    0.000    0.000    0.000    0.000    0.000 
#
# Total GULP energy -491231.231799 kJ/mol
# GULP energy per Si atom -5582.173089 kJ/mol
# Density = 1.994621 g / cm^3
# Si number density = 19.991715 Si / 1000 Ang^3
#
#
#
# Elastic Constant Matrix: (Units=GPa)
#
#
# Indices 1 2 3 4 5 6 
#
# 1 73.7133 22.0991 45.5834 0.0000 0.0000 0.0000
# 2 22.0991 73.7133 45.5834 0.0000 0.0000 0.0000
# 3 45.5834 45.5834 134.4944 0.0000 0.0000 0.0000
# 4 0.0000 0.0000 0.0000 15.8531 0.0000 0.0000
# 5 0.0000 0.0000 0.0000 0.0000 15.8531 0.0000
# 6 0.0000 0.0000 0.0000 0.0000 0.0000 25.0187
#
#
#
# Elastic Compliance Matrix: (Units=1/GPa)
#
#
# Indices 1 2 3 4 5 6 
#
# 1 0.017390 -0.001985 -0.005221 0.000000 0.000000 0.000000
# 2 -0.001985 0.017390 -0.005221 0.000000 0.000000 0.000000
# 3 -0.005221 -0.005221 0.010974 0.000000 0.000000 0.000000
# 4 0.000000 0.000000 0.000000 0.063079 0.000000 0.000000
# 5 0.000000 0.000000 0.000000 0.000000 0.063079 0.000000
# 6 0.000000 0.000000 0.000000 0.000000 0.000000 0.039970
#
#
# Mechanical properties :
#
#
# Convention : Reuss Voigt Hill
#
# Bulk Modulus (GPa) = 47.84705 56.49475 52.17090
# Shear Modulus (GPa) = 20.51674 22.58863 21.55268
#
# Velocity S-wave (km/s) = 3.20701 3.36504 3.28698
# Velocity P-wave (km/s) = 6.13992 6.58927 6.36856
#
# Compressibility (1/GPa) = 0.02089993
#
# Stress axis : x y z
#
# Youngs Moduli (GPa) = 57.50500 57.50500 91.12114
#
# Poissons Ratio (x) = 0.11413 0.47576
# Poissons Ratio (y) = 0.11413 0.47576
# Poissons Ratio (z) = 0.30024 0.30024
#
# Static dielectric constant tensor:
#      x y z
#    x 1.715190 0.000000 0.000000 
#    y 0.000000 1.715190 0.000000 
#    z 0.000000 0.000000 1.701620 
# 
# From -- ./inp_files/10790.got.cif
#   From: 2010.05.17/outbox.cif.g08.bks.cpg/sg132_6_cif.got.tgz:10790.got - 2010.05.20 12:30:18.
