data_PCOD9567940
_publ_section_title
;
Structure prediction by ZEFSAII (Michael W. Deem and Ramdas Pophale) SiO2 
 PCOD9567940
Probable space group: P 42/N B C
;
_chemical_formula_sum "Si O2"
_cell_formula_units_Z 56
_cell_length_a 10.457977
_cell_length_b 10.457977
_cell_length_c 23.501985
_cell_angle_alpha 90.000000
_cell_angle_beta 90.000000
_cell_angle_gamma 90.000000
_cell_volume 2570.395247
_symmetry_space_group_name_H-M "P 42/N B C"
_symmetry_group_IT_number 133
_space_group.IT_coordinate_system_code '2'
_symmetry_cell_setting 'tetragonal'
loop_
_space_group_symop_operation_xyz
x,y,z
1/2-y,x,1/2+z
1/2-x,1/2-y,z
y,1/2-x,1/2+z
x,1/2-y,-z
1/2-x,y,-z
y,x,1/2-z
1/2-y,1/2-x,1/2-z
-x,-y,-z
1/2+y,-x,1/2-z
1/2+x,1/2+y,-z
-y,1/2+x,1/2-z
-x,1/2+y,z
1/2+x,-y,z
-y,-x,1/2+z
1/2+y,1/2+x,1/2+z
loop_
_atom_site_type_symbol
_atom_site_label
_atom_site_fract_x
_atom_site_fract_y
_atom_site_fract_z
Si Si1 0.503134 0.644009 0.297018
Si Si2 0.469673 0.250000 0.000000
Si Si3 0.250000 0.250000 0.250000
Si Si4 0.250000 0.750000 0.250000
Si Si5 0.750000 0.956455 0.000000
Si Si6 0.161429 0.863806 0.906723
O O1 0.535209 0.535209 0.250000
O O2 0.629414 0.731845 0.291909
O O3 0.386721 0.731797 0.278583
O O4 0.455645 0.599642 0.358897
O O5 0.558376 0.296005 0.052159
O O6 0.373825 0.131404 0.009808
O O7 0.746813 0.048461 0.054399
O O8 0.250000 0.750000 0.882773
#
# Coordination Sequence:
#
# PCOD9567940 Si02
#       6
#    16   8   4   4   8  16
#     4  10  26  46  76 108 155 204 271 328 400 481
#     4  11  25  44  72 112 155 197 260 324 402 487
#     4   8  24  52  68 110 152 208 272 324 390 500
#     4  12  24  44  72 110 144 200 256 328 388 474
#     4  11  25  44  70 112 155 201 254 320 406 482
#     4  12  23  45  75 111 155 205 259 328 399 484
#
# _framework density 21.786535000000001
#
# number of rings (size 3 to 8) (size 9 to 14) (size 15 to 20)
#    0.857    0.286    4.286    0.857    2.000    6.857 
#    0.000    0.000    0.000    0.000    0.000    0.000 
#    0.000    0.000    0.000    0.000    0.000    0.000 
#
# Total GULP energy -311906.839099 kJ/mol
# GULP energy per Si atom -5569.764984 kJ/mol
# Density = 2.173695 g / cm^3
# Si number density = 21.786535 Si / 1000 Ang^3
#
#
#
# Elastic Constant Matrix: (Units=GPa)
#
#
# Indices 1 2 3 4 5 6 
#
# 1 138.5235 55.5045 65.8470 0.0000 0.0000 0.0000
# 2 55.5045 138.5235 65.8470 0.0000 0.0000 0.0000
# 3 65.8470 65.8470 136.6552 0.0000 0.0000 0.0000
# 4 0.0000 0.0000 0.0000 67.8143 0.0000 0.0000
# 5 0.0000 0.0000 0.0000 0.0000 67.8143 0.0000
# 6 0.0000 0.0000 0.0000 0.0000 0.0000 36.3009
#
#
#
# Elastic Compliance Matrix: (Units=1/GPa)
#
#
# Indices 1 2 3 4 5 6 
#
# 1 0.009852 -0.002193 -0.003690 0.000000 0.000000 0.000000
# 2 -0.002193 0.009852 -0.003690 0.000000 0.000000 0.000000
# 3 -0.003690 -0.003690 0.010874 0.000000 0.000000 0.000000
# 4 0.000000 0.000000 0.000000 0.014746 0.000000 0.000000
# 5 0.000000 0.000000 0.000000 0.000000 0.014746 0.000000
# 6 0.000000 0.000000 0.000000 0.000000 0.000000 0.027548
#
#
# Mechanical properties :
#
#
# Convention : Reuss Voigt Hill
#
# Bulk Modulus (GPa) = 87.48836 87.56661 87.52748
# Shear Modulus (GPa) = 45.21780 49.48614 47.35197
#
# Velocity S-wave (km/s) = 4.56070 4.77110 4.66709
# Velocity P-wave (km/s) = 8.24485 8.40425 8.32493
#
# Compressibility (1/GPa) = 0.01143009
#
# Stress axis : x y z
#
# Youngs Moduli (GPa) = 101.50188 101.50188 91.96240
#
# Poissons Ratio (x) = 0.22263 0.33937
# Poissons Ratio (y) = 0.22263 0.33937
# Poissons Ratio (z) = 0.37457 0.37457
#
# Static dielectric constant tensor:
#      x y z
#    x 1.790670 0.000000 0.000000 
#    y 0.000000 1.790670 0.000000 
#    z 0.000000 0.000000 1.890030 
# 
# From -- ./inp_files/6955.got.cif
#   From: 2010.05.17/outbox.cif.g08.bks.cpg/sg133_4_cif.got.tgz:6955.got - 2010.05.20 12:37:36.
