data_PCOD9567789
_publ_section_title
;
Structure prediction by ZEFSAII (Michael W. Deem and Ramdas Pophale) SiO2 
 PCOD9567789
Probable space group: P 42/N B C
;
_chemical_formula_sum "Si O2"
_cell_formula_units_Z 80
_cell_length_a 14.260141
_cell_length_b 14.260141
_cell_length_c 15.792228
_cell_angle_alpha 90.000000
_cell_angle_beta 90.000000
_cell_angle_gamma 90.000000
_cell_volume 3211.375168
_symmetry_space_group_name_H-M "P 42/N B C"
_symmetry_group_IT_number 133
_space_group.IT_coordinate_system_code '2'
_symmetry_cell_setting 'tetragonal'
loop_
_space_group_symop_operation_xyz
x,y,z
1/2-y,x,1/2+z
1/2-x,1/2-y,z
y,1/2-x,1/2+z
x,1/2-y,-z
1/2-x,y,-z
y,x,1/2-z
1/2-y,1/2-x,1/2-z
-x,-y,-z
1/2+y,-x,1/2-z
1/2+x,1/2+y,-z
-y,1/2+x,1/2-z
-x,1/2+y,z
1/2+x,-y,z
-y,-x,1/2+z
1/2+y,1/2+x,1/2+z
loop_
_atom_site_type_symbol
_atom_site_label
_atom_site_fract_x
_atom_site_fract_y
_atom_site_fract_z
Si Si1 0.009254 0.571008 0.833358
Si Si2 0.283645 0.965504 0.802860
Si Si3 0.009951 0.235650 0.106178
Si Si4 0.567395 0.615139 0.565125
Si Si5 0.107793 0.838914 0.443096
O O1 0.979270 0.652095 0.897021
O O2 0.118447 0.591509 0.810308
O O3 0.024522 0.473858 0.883057
O O4 0.947801 0.552200 0.750000
O O5 0.273990 0.000918 0.708249
O O6 0.301152 0.051093 0.867984
O O7 0.200608 0.911399 0.849018
O O8 0.917473 0.187151 0.066880
O O9 0.093869 0.176528 0.065416
O O10 0.490605 0.632261 0.491264
O O11 0.139230 0.750000 0.500000
#
# Coordination Sequence:
#
# PCOD9567789 Si02
#       5
#    16  16  16  16  16
#     4  10  21  38  59  95 134 181 236 287 345 439
#     4   9  19  37  62  91 136 173 226 297 353 435
#     4  12  20  36  68  89 135 190 228 290 369 427
#     4   9  20  41  58  93 134 177 230 293 358 431
#     4  10  22  39  62 100 134 181 235 303 375 440
#
# _framework density 24.911446999999999
#
# number of rings (size 3 to 8) (size 9 to 14) (size 15 to 20)
#    1.200    0.800    2.000    2.400    0.000    1.600 
#    3.600    2.000    0.000    2.400    0.000    1.400 
#    0.000    0.000    0.000    0.000    0.000    0.000 
#
# Total GULP energy -446093.423351 kJ/mol
# GULP energy per Si atom -5576.167792 kJ/mol
# Density = 2.485475 g / cm^3
# Si number density = 24.911447 Si / 1000 Ang^3
#
#
#
# Elastic Constant Matrix: (Units=GPa)
#
#
# Indices 1 2 3 4 5 6 
#
# 1 105.9263 19.8596 24.1605 0.0000 0.0000 0.0000
# 2 19.8596 105.9259 24.1604 0.0000 0.0000 0.0000
# 3 24.1605 24.1604 163.4411 0.0000 0.0000 0.0000
# 4 0.0000 0.0000 0.0000 44.9053 0.0000 0.0000
# 5 0.0000 0.0000 0.0000 0.0000 44.9055 0.0000
# 6 0.0000 0.0000 0.0000 0.0000 0.0000 2.1830
#
#
#
# Elastic Compliance Matrix: (Units=1/GPa)
#
#
# Indices 1 2 3 4 5 6 
#
# 1 0.010024 -0.001595 -0.001246 0.000000 0.000000 0.000000
# 2 -0.001595 0.010024 -0.001246 0.000000 0.000000 0.000000
# 3 -0.001246 -0.001246 0.006487 0.000000 0.000000 0.000000
# 4 0.000000 0.000000 0.000000 0.022269 0.000000 0.000000
# 5 0.000000 0.000000 0.000000 0.000000 0.022269 0.000000
# 6 0.000000 0.000000 0.000000 0.000000 0.000000 0.458084
#
#
# Mechanical properties :
#
#
# Convention : Reuss Voigt Hill
#
# Bulk Modulus (GPa) = 54.46538 56.85049 55.65793
# Shear Modulus (GPa) = 9.20047 38.87297 24.03672
#
# Velocity S-wave (km/s) = 1.92387 3.95453 3.10963
# Velocity P-wave (km/s) = 5.18132 6.61224 5.94003
#
# Compressibility (1/GPa) = 0.01836029
#
# Stress axis : x y z
#
# Youngs Moduli (GPa) = 99.76281 99.76247 154.15982
#
# Poissons Ratio (x) = 0.15913 0.19208
# Poissons Ratio (y) = 0.15913 0.19208
# Poissons Ratio (z) = 0.12430 0.12430
#
# Static dielectric constant tensor:
#      x y z
#    x 2.048330 0.000000 0.000000 
#    y 0.000000 2.048330 0.000000 
#    z 0.000000 0.000000 2.041870 
# 
# From -- ./inp_files/4351.got.cif
#   From: 2010.05.17/outbox.cif.g08.bks.cpg/sg133_3_cif.got.tgz:4351.got - 2010.05.20 12:37:36.
