data_PCOD9567680
_publ_section_title
;
Structure prediction by ZEFSAII (Michael W. Deem and Ramdas Pophale) SiO2 
 PCOD9567680
Probable space group: P 42/N B C
;
_chemical_formula_sum "Si O2"
_cell_formula_units_Z 64
_cell_length_a 24.918982
_cell_length_b 24.918982
_cell_length_c 5.295793
_cell_angle_alpha 90.000000
_cell_angle_beta 90.000000
_cell_angle_gamma 90.000000
_cell_volume 3288.452658
_symmetry_space_group_name_H-M "P 42/N B C"
_symmetry_group_IT_number 133
_space_group.IT_coordinate_system_code '2'
_symmetry_cell_setting 'tetragonal'
loop_
_space_group_symop_operation_xyz
x,y,z
1/2-y,x,1/2+z
1/2-x,1/2-y,z
y,1/2-x,1/2+z
x,1/2-y,-z
1/2-x,y,-z
y,x,1/2-z
1/2-y,1/2-x,1/2-z
-x,-y,-z
1/2+y,-x,1/2-z
1/2+x,1/2+y,-z
-y,1/2+x,1/2-z
-x,1/2+y,z
1/2+x,-y,z
-y,-x,1/2+z
1/2+y,1/2+x,1/2+z
loop_
_atom_site_type_symbol
_atom_site_label
_atom_site_fract_x
_atom_site_fract_y
_atom_site_fract_z
Si Si1 0.628095 0.783902 0.254953
Si Si2 0.785120 0.999685 0.753806
Si Si3 0.569735 0.109323 0.837013
Si Si4 0.660602 0.303223 0.093087
O O1 0.645126 0.750000 0.500000
O O2 0.661676 0.838325 0.250000
O O3 0.564311 0.793349 0.277609
O O4 0.637536 0.750000 0.000000
O O5 0.750000 0.008399 0.500000
O O6 0.843876 0.026825 0.727920
O O7 0.750000 0.017963 0.000000
O O8 0.578480 0.068157 0.605169
O O9 0.622613 0.145826 0.878384
O O10 0.686279 0.298834 0.365754
O O11 0.630360 0.250000 0.000000
#
# Coordination Sequence:
#
# PCOD9567680 Si02
#       4
#    16  16  16  16
#     4  10  21  36  57  87 119 152 184 215 260 317
#     4  10  20  35  56  79 107 144 184 227 274 327
#     4  10  20  33  50  72  97 129 175 230 276 316
#     4  10  20  30  41  58  81 113 153 198 252 312
#
# _framework density 19.462040999999999
#
# number of rings (size 3 to 8) (size 9 to 14) (size 15 to 20)
#    0.000    2.000    0.000    3.750    0.000    7.000 
#    0.000    0.000    0.000    1.500    0.000    0.000 
#    0.000    0.000    0.000    0.000    0.000    0.000 
#
# Total GULP energy -356543.152142 kJ/mol
# GULP energy per Si atom -5570.986752 kJ/mol
# Density = 1.941774 g / cm^3
# Si number density = 19.462041 Si / 1000 Ang^3
#
#
#
# Elastic Constant Matrix: (Units=GPa)
#
#
# Indices 1 2 3 4 5 6 
#
# 1 52.1886 29.6534 42.4179 0.0000 0.0000 0.0000
# 2 29.6534 52.1778 42.4128 0.0000 0.0000 0.0000
# 3 42.4179 42.4128 159.0866 0.0000 0.0000 0.0000
# 4 0.0000 0.0000 0.0000 6.2935 0.0000 0.0000
# 5 0.0000 0.0000 0.0000 0.0000 6.3203 0.0000
# 6 0.0000 0.0000 0.0000 0.0000 0.0000 17.5652
#
#
#
# Elastic Compliance Matrix: (Units=1/GPa)
#
#
# Indices 1 2 3 4 5 6 
#
# 1 0.030633 -0.013750 -0.004502 0.000000 0.000000 0.000000
# 2 -0.013750 0.030639 -0.004502 0.000000 0.000000 0.000000
# 3 -0.004502 -0.004502 0.008687 0.000000 0.000000 0.000000
# 4 0.000000 0.000000 0.000000 0.158895 0.000000 0.000000
# 5 0.000000 0.000000 0.000000 0.000000 0.158219 0.000000
# 6 0.000000 0.000000 0.000000 0.000000 0.000000 0.056931
#
#
# Mechanical properties :
#
#
# Convention : Reuss Voigt Hill
#
# Bulk Modulus (GPa) = 40.89883 54.71346 47.80614
# Shear Modulus (GPa) = 10.04698 15.96707 13.00703
#
# Velocity S-wave (km/s) = 2.27454 2.86741 2.58801
# Velocity P-wave (km/s) = 5.28757 6.25593 5.79202
#
# Compressibility (1/GPa) = 0.02445058
#
# Stress axis : x y z
#
# Youngs Moduli (GPa) = 32.64459 32.63813 115.11949
#
# Poissons Ratio (x) = 0.44876 0.51828
# Poissons Ratio (y) = 0.44885 0.51831
# Poissons Ratio (z) = 0.14697 0.14695
#
# Static dielectric constant tensor:
#      x y z
#    x 1.676250 0.000000 0.000000 
#    y 0.000000 1.676250 0.000000 
#    z 0.000000 0.000000 1.636130 
# 
# From -- ./inp_files/362.got.cif
#   From: 2010.05.17/outbox.cif.g08.bks.cpg/sg133_1_cif.got.tgz:362.got - 2010.05.20 12:37:36.
