data_PCOD9567971
_publ_section_title
;
Structure prediction by ZEFSAII (Michael W. Deem and Ramdas Pophale) SiO2 
 PCOD9567971
Probable space group: P 42/N B C
;
_chemical_formula_sum "Si O2"
_cell_formula_units_Z 48
_cell_length_a 11.959325
_cell_length_b 11.959325
_cell_length_c 14.043997
_cell_angle_alpha 90.000000
_cell_angle_beta 90.000000
_cell_angle_gamma 90.000000
_cell_volume 2008.649053
_symmetry_space_group_name_H-M "P 42/N B C"
_symmetry_group_IT_number 133
_space_group.IT_coordinate_system_code '2'
_symmetry_cell_setting 'tetragonal'
loop_
_space_group_symop_operation_xyz
x,y,z
1/2-y,x,1/2+z
1/2-x,1/2-y,z
y,1/2-x,1/2+z
x,1/2-y,-z
1/2-x,y,-z
y,x,1/2-z
1/2-y,1/2-x,1/2-z
-x,-y,-z
1/2+y,-x,1/2-z
1/2+x,1/2+y,-z
-y,1/2+x,1/2-z
-x,1/2+y,z
1/2+x,-y,z
-y,-x,1/2+z
1/2+y,1/2+x,1/2+z
loop_
_atom_site_type_symbol
_atom_site_label
_atom_site_fract_x
_atom_site_fract_y
_atom_site_fract_z
Si Si1 0.510220 0.174948 0.224641
Si Si2 0.196745 0.929492 0.097301
Si Si3 0.688085 0.867224 0.403757
O O1 0.570184 0.208456 0.321723
O O2 0.593524 0.134661 0.143144
O O3 0.447926 0.284103 0.183256
O O4 0.419206 0.080794 0.250000
O O5 0.156210 0.057926 0.080874
O O6 0.250000 0.887156 0.000000
O O7 0.750000 0.750000 0.382708
O O8 0.750000 0.908296 0.500000
#
# Coordination Sequence:
#
# PCOD9567971 Si02
#       3
#    16  16  16
#     4  12  25  43  76 106 146 196 244 299 364 430
#     4  12  27  48  71 108 148 191 248 299 367 439
#     4  11  21  44  77 108 142 189 243 301 353 426
#
# _framework density 23.896660000000001
#
# number of rings (size 3 to 8) (size 9 to 14) (size 15 to 20)
#    0.000    0.333    6.667    3.000    0.000    8.667 
#    0.000    1.667    0.000    0.000    0.000    0.000 
#    0.000    0.000    0.000    0.000    0.000    0.000 
#
# Total GULP energy -269189.887671 kJ/mol
# GULP energy per Si atom -5608.122660 kJ/mol
# Density = 2.384227 g / cm^3
# Si number density = 23.896660 Si / 1000 Ang^3
#
#
#
# Elastic Constant Matrix: (Units=GPa)
#
#
# Indices 1 2 3 4 5 6 
#
# 1 61.2521 50.5031 42.5672 0.0000 0.0000 0.0000
# 2 50.5031 61.2512 42.5670 0.0000 0.0000 0.0000
# 3 42.5672 42.5670 177.4253 0.0000 0.0000 0.0000
# 4 0.0000 0.0000 0.0000 37.5797 0.0000 0.0000
# 5 0.0000 0.0000 0.0000 0.0000 37.5803 0.0000
# 6 0.0000 0.0000 0.0000 0.0000 0.0000 37.4058
#
#
#
# Elastic Compliance Matrix: (Units=1/GPa)
#
#
# Indices 1 2 3 4 5 6 
#
# 1 0.051992 -0.041043 -0.002627 0.000000 0.000000 0.000000
# 2 -0.041043 0.051993 -0.002627 0.000000 0.000000 0.000000
# 3 -0.002627 -0.002627 0.006897 0.000000 0.000000 0.000000
# 4 0.000000 0.000000 0.000000 0.026610 0.000000 0.000000
# 5 0.000000 0.000000 0.000000 0.000000 0.026610 0.000000
# 6 0.000000 0.000000 0.000000 0.000000 0.000000 0.026734
#
#
# Mechanical properties :
#
#
# Convention : Reuss Voigt Hill
#
# Bulk Modulus (GPa) = 54.68168 63.46701 59.07435
# Shear Modulus (GPa) = 17.26965 33.46590 25.36778
#
# Velocity S-wave (km/s) = 2.69119 3.74631 3.26170
# Velocity P-wave (km/s) = 5.70867 6.73273 6.24174
#
# Compressibility (1/GPa) = 0.01828766
#
# Stress axis : x y z
#
# Youngs Moduli (GPa) = 19.23367 19.23339 144.99786
#
# Poissons Ratio (x) = 0.78940 0.38089
# Poissons Ratio (y) = 0.78941 0.38090
# Poissons Ratio (z) = 0.05052 0.05053
#
# Static dielectric constant tensor:
#      x y z
#    x 1.901340 0.000000 0.000000 
#    y 0.000000 1.901340 0.000000 
#    z 0.000000 0.000000 1.912400 
# 
# From -- ./inp_files/2637.got.cif
#   From: 2010.05.17/outbox.cif.g08.bks.cpg/sg133_2_cif.got.tgz:2637.got - 2010.05.20 12:37:36.
