data_PCOD9567124
_publ_section_title
;
Structure prediction by ZEFSAII (Michael W. Deem and Ramdas Pophale) SiO2 
 PCOD9567124
Probable space group: P 42/M C M
;
_chemical_formula_sum "Si O2"
_cell_formula_units_Z 96
_cell_length_a 25.365057
_cell_length_b 25.365057
_cell_length_c 8.691939
_cell_angle_alpha 90.000000
_cell_angle_beta 90.000000
_cell_angle_gamma 90.000000
_cell_volume 5592.272879
_symmetry_space_group_name_H-M "P 42/M C M"
_symmetry_group_IT_number 132
_symmetry_cell_setting 'tetragonal'
loop_
_space_group_symop_operation_xyz
x,y,z
-y,x,1/2+z
-x,-y,z
y,-x,1/2+z
x,-y,1/2-z
-x,y,1/2-z
y,x,-z
-y,-x,-z
-x,-y,-z
y,-x,1/2-z
x,y,-z
-y,x,1/2-z
-x,y,1/2+z
x,-y,1/2+z
-y,-x,z
y,x,z
loop_
_atom_site_type_symbol
_atom_site_label
_atom_site_fract_x
_atom_site_fract_y
_atom_site_fract_z
Si Si1 0.558936 0.558936 0.814452
Si Si2 0.054706 0.589734 0.315523
Si Si3 0.833077 0.446519 0.316366
Si Si4 0.356616 0.356616 0.313658
Si Si5 0.286555 0.056233 0.184215
Si Si6 0.765469 0.647763 0.685484
Si Si7 0.249741 0.166821 0.685676
O O1 0.571737 0.500000 0.750000
O O2 0.602195 0.602195 0.759963
O O3 0.557163 0.557163 0.000000
O O4 0.052733 0.587638 0.500000
O O5 0.106675 0.560158 0.261002
O O6 0.060272 0.651430 0.270710
O O7 0.000000 0.569240 0.250000
O O8 0.810050 0.500000 0.250000
O O9 0.832773 0.447437 0.500000
O O10 0.801391 0.397102 0.255719
O O11 0.361144 0.361144 0.500000
O O12 0.363825 0.295002 0.270195
O O13 0.258973 0.109069 0.245349
O O14 0.267185 0.000000 0.250000
O O15 0.283633 0.054877 0.000000
O O16 0.766558 0.646857 0.500000
O O17 0.792490 0.703262 0.731153
O O18 0.251480 0.162638 0.500000
O O19 0.195164 0.195164 0.729537
#
# Coordination Sequence:
#
# PCOD9567124 Si02
#       7
#     8  16  16   8  16  16  16
#     4  11  23  42  67  92 114 140 172 216 272 333
#     4   9  19  33  50  71  96 129 174 225 273 320
#     4  11  23  38  52  72 101 136 178 225 273 324
#     4  10  21  39  62  88 115 142 176 216 263 323
#     4  10  19  33  52  78 109 145 185 229 276 323
#     4  10  20  36  57  80 107 141 177 218 266 322
#     4  10  19  33  55  83 112 145 183 223 272 327
#
# _framework density 17.166543999999998
#
# number of rings (size 3 to 8) (size 9 to 14) (size 15 to 20)
#    0.000    1.917    2.500    2.000    0.000    4.000 
#    0.000    1.667    0.000    0.000    0.000    0.000 
#    0.000    0.333    0.000    3.500    0.000    1.500 
#
# Total GULP energy -535603.224989 kJ/mol
# GULP energy per Si atom -5579.200260 kJ/mol
# Density = 1.712747 g / cm^3
# Si number density = 17.166544 Si / 1000 Ang^3
#
#
#
# Elastic Constant Matrix: (Units=GPa)
#
#
# Indices 1 2 3 4 5 6 
#
# 1 114.2090 63.3105 36.6230 0.0000 0.0000 0.0000
# 2 63.3105 114.2090 36.6230 0.0000 0.0000 0.0000
# 3 36.6230 36.6230 24.8954 0.0000 0.0000 0.0000
# 4 0.0000 0.0000 0.0000 10.1108 0.0000 0.0000
# 5 0.0000 0.0000 0.0000 0.0000 10.1108 0.0000
# 6 0.0000 0.0000 0.0000 0.0000 0.0000 25.5496
#
#
#
# Elastic Compliance Matrix: (Units=1/GPa)
#
#
# Indices 1 2 3 4 5 6 
#
# 1 0.016990 -0.002657 -0.021085 0.000000 0.000000 0.000000
# 2 -0.002657 0.016990 -0.021085 0.000000 0.000000 0.000000
# 3 -0.021085 -0.021085 0.102203 0.000000 0.000000 0.000000
# 4 0.000000 0.000000 0.000000 0.098904 0.000000 0.000000
# 5 0.000000 0.000000 0.000000 0.000000 0.098904 0.000000
# 6 0.000000 0.000000 0.000000 0.000000 0.000000 0.039140
#
#
# Mechanical properties :
#
#
# Convention : Reuss Voigt Hill
#
# Bulk Modulus (GPa) = 21.49181 58.49180 39.99181
# Shear Modulus (GPa) = 10.45384 16.93805 13.69594
#
# Velocity S-wave (km/s) = 2.47040 3.14457 2.82765
# Velocity P-wave (km/s) = 4.54796 6.87979 5.83161
#
# Compressibility (1/GPa) = 0.04652935
#
# Stress axis : x y z
#
# Youngs Moduli (GPa) = 58.85830 58.85830 9.78447
#
# Poissons Ratio (x) = 0.15639 0.20630
# Poissons Ratio (y) = 0.15639 0.20630
# Poissons Ratio (z) = 1.24102 1.24102
#
# Static dielectric constant tensor:
#      x y z
#    x 1.579090 0.000000 0.000000 
#    y 0.000000 1.579090 0.000000 
#    z 0.000000 0.000000 1.574950 
# 
# From -- ./inp_files/1833.got.cif
#   From: 2010.05.17/outbox.cif.g08.bks.cpg/sg132_1_cif.got.tgz:1833.got - 2010.05.20 12:30:18.
