data_PCOD9567456
_publ_section_title
;
Structure prediction by ZEFSAII (Michael W. Deem and Ramdas Pophale) SiO2 
 PCOD9567456
Probable space group: P 42/M C M
;
_chemical_formula_sum "Si O2"
_cell_formula_units_Z 80
_cell_length_a 11.829672
_cell_length_b 11.829672
_cell_length_c 28.434506
_cell_angle_alpha 90.000000
_cell_angle_beta 90.000000
_cell_angle_gamma 90.000000
_cell_volume 3979.157174
_symmetry_space_group_name_H-M "P 42/M C M"
_symmetry_group_IT_number 132
_symmetry_cell_setting 'tetragonal'
loop_
_space_group_symop_operation_xyz
x,y,z
-y,x,1/2+z
-x,-y,z
y,-x,1/2+z
x,-y,1/2-z
-x,y,1/2-z
y,x,-z
-y,-x,-z
-x,-y,-z
y,-x,1/2-z
x,y,-z
-y,x,1/2-z
-x,y,1/2+z
x,-y,1/2+z
-y,-x,z
y,x,z
loop_
_atom_site_type_symbol
_atom_site_label
_atom_site_fract_x
_atom_site_fract_y
_atom_site_fract_z
Si Si1 0.911932 0.088069 0.852505
Si Si2 0.008941 0.636381 0.445412
Si Si3 0.272978 0.543115 0.196596
Si Si4 0.651418 0.832517 0.142317
Si Si5 0.317176 0.957784 0.199011
Si Si6 0.162535 0.837466 0.945370
O O1 0.940510 0.210248 0.833627
O O2 0.909129 0.090872 0.908599
O O3 0.000000 0.000000 0.833517
O O4 0.038756 0.659475 0.500000
O O5 0.891189 0.709209 0.436875
O O6 0.000000 0.500000 0.440389
O O7 0.109395 0.664965 0.408761
O O8 0.294558 0.500000 0.250000
O O9 0.373986 0.626015 0.183130
O O10 0.254253 0.447884 0.156702
O O11 0.157486 0.614679 0.200787
O O12 0.768043 0.768043 0.154179
O O13 0.620219 0.936909 0.175953
O O14 0.281476 0.000000 0.250000
O O15 0.141727 0.858274 0.000000
#
# Coordination Sequence:
#
# PCOD9567456 Si02
#       6
#     8  16  16  16  16   8
#     4  12  26  39  62  96 138 174 210 268 335 407
#     4  10  22  43  70  99 132 173 224 280 339 405
#     4  12  26  45  68  94 126 177 232 286 330 395
#     4  12  26  43  66  96 136 177 222 274 339 405
#     4  12  25  41  63  93 131 176 221 263 333 407
#     4  10  22  41  68  98 132 173 224 280 336 400
#
# _framework density 20.104759999999999
#
# number of rings (size 3 to 8) (size 9 to 14) (size 15 to 20)
#    0.000    0.600    5.000    3.000    2.800    2.000 
#    0.000    2.000    0.000    0.000    0.000    1.400 
#    0.000    0.000    0.000    0.000    0.000    0.000 
#
# Total GULP energy -445888.667972 kJ/mol
# GULP energy per Si atom -5573.608350 kJ/mol
# Density = 2.005900 g / cm^3
# Si number density = 20.104760 Si / 1000 Ang^3
#
#
#
# Elastic Constant Matrix: (Units=GPa)
#
#
# Indices 1 2 3 4 5 6 
#
# 1 91.8438 64.3847 31.1959 0.0000 0.0000 0.0000
# 2 64.3847 91.8435 31.1960 0.0000 0.0000 0.0000
# 3 31.1959 31.1960 93.1772 0.0000 0.0000 0.0000
# 4 0.0000 0.0000 0.0000 28.5074 0.0000 0.0000
# 5 0.0000 0.0000 0.0000 0.0000 28.5075 0.0000
# 6 0.0000 0.0000 0.0000 0.0000 0.0000 51.0216
#
#
#
# Elastic Compliance Matrix: (Units=1/GPa)
#
#
# Indices 1 2 3 4 5 6 
#
# 1 0.021903 -0.014515 -0.002474 0.000000 0.000000 0.000000
# 2 -0.014515 0.021904 -0.002474 0.000000 0.000000 0.000000
# 3 -0.002474 -0.002474 0.012389 0.000000 0.000000 0.000000
# 4 0.000000 0.000000 0.000000 0.035079 0.000000 0.000000
# 5 0.000000 0.000000 0.000000 0.000000 0.035079 0.000000
# 6 0.000000 0.000000 0.000000 0.000000 0.000000 0.019600
#
#
# Mechanical properties :
#
#
# Convention : Reuss Voigt Hill
#
# Bulk Modulus (GPa) = 57.89994 58.93530 58.41762
# Shear Modulus (GPa) = 26.22831 31.61316 28.92074
#
# Velocity S-wave (km/s) = 3.61582 3.96968 3.79687
# Velocity P-wave (km/s) = 6.80396 7.09851 6.95279
#
# Compressibility (1/GPa) = 0.01727117
#
# Stress axis : x y z
#
# Youngs Moduli (GPa) = 45.65500 45.65480 80.71867
#
# Poissons Ratio (x) = 0.66266 0.19968
# Poissons Ratio (y) = 0.66267 0.19968
# Poissons Ratio (z) = 0.11294 0.11294
#
# Static dielectric constant tensor:
#      x y z
#    x 1.846080 0.000000 0.000000 
#    y 0.000000 1.846080 0.000000 
#    z 0.000000 0.000000 1.722230 
# 
# From -- ./inp_files/10670.got.cif
#   From: 2010.05.17/outbox.cif.g08.bks.cpg/sg132_6_cif.got.tgz:10670.got - 2010.05.20 12:30:18.
