data_PCOD9567408
_publ_section_title
;
Structure prediction by ZEFSAII (Michael W. Deem and Ramdas Pophale) SiO2 
 PCOD9567408
Probable space group: P 42/M C M
;
_chemical_formula_sum "Si O2"
_cell_formula_units_Z 80
_cell_length_a 11.863126
_cell_length_b 11.863126
_cell_length_c 26.988979
_cell_angle_alpha 90.000000
_cell_angle_beta 90.000000
_cell_angle_gamma 90.000000
_cell_volume 3798.260453
_symmetry_space_group_name_H-M "P 42/M C M"
_symmetry_group_IT_number 132
_symmetry_cell_setting 'tetragonal'
loop_
_space_group_symop_operation_xyz
x,y,z
-y,x,1/2+z
-x,-y,z
y,-x,1/2+z
x,-y,1/2-z
-x,y,1/2-z
y,x,-z
-y,-x,-z
-x,-y,-z
y,-x,1/2-z
x,y,-z
-y,x,1/2-z
-x,y,1/2+z
x,-y,1/2+z
-y,-x,z
y,x,z
loop_
_atom_site_type_symbol
_atom_site_label
_atom_site_fract_x
_atom_site_fract_y
_atom_site_fract_z
Si Si1 0.290648 0.533037 0.942808
Si Si2 0.713890 0.892073 0.413103
Si Si3 0.190632 0.368538 0.197527
Si Si4 0.182751 0.363361 0.307081
Si Si5 0.143835 0.680830 0.589851
O O1 0.404301 0.595700 0.922461
O O2 0.195107 0.628551 0.938479
O O3 0.228985 0.423771 0.920064
O O4 0.313359 0.506630 0.000000
O O5 0.838864 0.838864 0.420423
O O6 0.684587 0.882523 0.354290
O O7 0.683384 0.017507 0.430443
O O8 0.316258 0.316258 0.197604
O O9 0.140243 0.338230 0.251342
O O10 0.189020 0.502260 0.190789
O O11 0.132759 0.316479 0.149559
O O12 0.305066 0.305066 0.310840
O O13 0.209414 0.790586 0.572192
#
# Coordination Sequence:
#
# PCOD9567408 Si02
#       5
#    16  16  16  16  16
#     4  10  22  41  64  88 113 144 184 231 288 353
#     4  10  21  38  59  83 113 152 197 238 277 329
#     4   9  18  30  48  80 117 149 186 232 283 339
#     4   9  17  31  51  77 112 154 194 230 275 334
#     4  11  23  37  56  85 118 151 189 234 285 338
#
# _framework density 21.062273999999999
#
# number of rings (size 3 to 8) (size 9 to 14) (size 15 to 20)
#    0.000    2.200    2.000    0.600    0.000    4.000 
#    0.000    7.000    0.000    0.000    0.000    9.800 
#    0.000    0.000    0.000    0.000    0.000    0.000 
#
# Total GULP energy -445589.375916 kJ/mol
# GULP energy per Si atom -5569.867199 kJ/mol
# Density = 2.101434 g / cm^3
# Si number density = 21.062274 Si / 1000 Ang^3
#
#
#
# Elastic Constant Matrix: (Units=GPa)
#
#
# Indices 1 2 3 4 5 6 
#
# 1 18.4238 121.2131 2.0857 0.0000 0.0000 0.0000
# 2 121.2131 18.4238 2.0857 0.0000 0.0000 0.0000
# 3 2.0857 2.0857 60.3612 0.0000 0.0000 0.0000
# 4 0.0000 0.0000 0.0000 153.5533 0.0000 0.0000
# 5 0.0000 0.0000 0.0000 0.0000 153.5533 0.0000
# 6 0.0000 0.0000 0.0000 0.0000 0.0000 10.8572
#
#
#
# Elastic Compliance Matrix: (Units=1/GPa)
#
#
# Indices 1 2 3 4 5 6 
#
# 1 -0.001280 0.008449 -0.000248 0.000000 0.000000 0.000000
# 2 0.008449 -0.001280 -0.000248 0.000000 0.000000 0.000000
# 3 -0.000248 -0.000248 0.016584 0.000000 0.000000 0.000000
# 4 0.000000 0.000000 0.000000 0.006512 0.000000 0.000000
# 5 0.000000 0.000000 0.000000 0.000000 0.006512 0.000000
# 6 0.000000 0.000000 0.000000 0.000000 0.000000 0.092105
#
#
# Mechanical properties :
#
#
# Convention : Reuss Voigt Hill
#
# Bulk Modulus (GPa) = 33.41033 38.66420 36.03726
# Shear Modulus (GPa) = 44.16004 61.71435 52.93719
#
# Velocity S-wave (km/s) = 4.58388 5.41890 5.01879
# Velocity P-wave (km/s) = 6.62669 7.58615 7.12259
#
# Compressibility (1/GPa) = 0.02993087
#
# Stress axis : x y z
#
# Youngs Moduli (GPa) = -781.30990 -781.30990 60.29889
#
# Poissons Ratio (x) = 6.60108 0.01494
# Poissons Ratio (y) = 6.60108 0.01494
# Poissons Ratio (z) = -0.19354 -0.19354
#
# Static dielectric constant tensor:
#      x y z
#    x 1.763700 0.000000 0.000000 
#    y 0.000000 1.763700 0.000000 
#    z 0.000000 0.000000 1.823700 
# 
# From -- ./inp_files/10565.got.cif
#   From: 2010.05.17/outbox.cif.g08.bks.cpg/sg132_6_cif.got.tgz:10565.got - 2010.05.20 12:30:18.
