data_PCOD9567406
_publ_section_title
;
Structure prediction by ZEFSAII (Michael W. Deem and Ramdas Pophale) SiO2 
 PCOD9567406
Probable space group: P 42/M C M
;
_chemical_formula_sum "Si O2"
_cell_formula_units_Z 40
_cell_length_a 14.163037
_cell_length_b 14.163037
_cell_length_c 9.853814
_cell_angle_alpha 90.000000
_cell_angle_beta 90.000000
_cell_angle_gamma 90.000000
_cell_volume 1976.592485
_symmetry_space_group_name_H-M "P 42/M C M"
_symmetry_group_IT_number 132
_symmetry_cell_setting 'tetragonal'
loop_
_space_group_symop_operation_xyz
x,y,z
-y,x,1/2+z
-x,-y,z
y,-x,1/2+z
x,-y,1/2-z
-x,y,1/2-z
y,x,-z
-y,-x,-z
-x,-y,-z
y,-x,1/2-z
x,y,-z
-y,x,1/2-z
-x,y,1/2+z
x,-y,1/2+z
-y,-x,z
y,x,z
loop_
_atom_site_type_symbol
_atom_site_label
_atom_site_fract_x
_atom_site_fract_y
_atom_site_fract_z
Si Si1 0.000000 0.146901 0.750000
Si Si2 0.810266 0.340292 0.500000
Si Si3 0.540224 0.106612 0.000000
Si Si4 0.143517 0.292609 0.301420
O O1 0.936924 0.217144 0.838865
O O2 0.076764 0.076764 0.817284
O O3 0.705771 0.294230 0.500000
O O4 0.821933 0.452549 0.500000
O O5 0.858037 0.304453 0.361374
O O6 0.608727 0.124359 0.127542
O O7 0.500000 0.000000 0.000000
O O8 0.243409 0.243409 0.336018
#
# Coordination Sequence:
#
# PCOD9567406 Si02
#       4
#     8   8   8  16
#     4   9  18  34  55  80 114 156 197 234 278 339
#     4  10  22  39  59  83 114 149 193 249 301 350
#     4  12  23  37  60  89 119 152 195 239 290 356
#     4  10  21  38  58  84 118 154 192 240 296 349
#
# _framework density 20.236846
#
# number of rings (size 3 to 8) (size 9 to 14) (size 15 to 20)
#    0.000    1.800    0.000    4.200    0.000    1.600 
#    0.000    4.000    0.000   18.000    0.000   11.200 
#    0.000    0.000    0.000    0.000    0.000    0.000 
#
# Total GULP energy -223163.309767 kJ/mol
# GULP energy per Si atom -5579.082744 kJ/mol
# Density = 2.019079 g / cm^3
# Si number density = 20.236846 Si / 1000 Ang^3
#
#
#
# Elastic Constant Matrix: (Units=GPa)
#
#
# Indices 1 2 3 4 5 6 
#
# 1 159.7309 87.6211 45.5078 0.0000 0.0000 0.0000
# 2 87.6211 159.7303 45.5069 0.0000 0.0000 0.0000
# 3 45.5078 45.5069 129.7702 0.0000 0.0000 0.0000
# 4 0.0000 0.0000 0.0000 67.0302 0.0000 0.0000
# 5 0.0000 0.0000 0.0000 0.0000 67.0811 0.0000
# 6 0.0000 0.0000 0.0000 0.0000 0.0000 33.8117
#
#
#
# Elastic Compliance Matrix: (Units=1/GPa)
#
#
# Indices 1 2 3 4 5 6 
#
# 1 0.009255 -0.004613 -0.001628 0.000000 0.000000 0.000000
# 2 -0.004613 0.009255 -0.001628 0.000000 0.000000 0.000000
# 3 -0.001628 -0.001628 0.008848 0.000000 0.000000 0.000000
# 4 0.000000 0.000000 0.000000 0.014919 0.000000 0.000000
# 5 0.000000 0.000000 0.000000 0.000000 0.014907 0.000000
# 6 0.000000 0.000000 0.000000 0.000000 0.000000 0.029576
#
#
# Mechanical properties :
#
#
# Convention : Reuss Voigt Hill
#
# Bulk Modulus (GPa) = 86.05800 89.61142 87.83471
# Shear Modulus (GPa) = 47.00614 51.62431 49.31522
#
# Velocity S-wave (km/s) = 4.82477 5.05623 4.94185
# Velocity P-wave (km/s) = 8.58229 8.85803 8.72125
#
# Compressibility (1/GPa) = 0.01162007
#
# Stress axis : x y z
#
# Youngs Moduli (GPa) = 108.05219 108.05225 113.02543
#
# Poissons Ratio (x) = 0.49845 0.18398
# Poissons Ratio (y) = 0.49845 0.18397
# Poissons Ratio (z) = 0.17589 0.17588
#
# Static dielectric constant tensor:
#      x y z
#    x 1.720080 0.000000 0.000000 
#    y 0.000000 1.720080 0.000000 
#    z 0.000000 0.000000 1.784530 
# 
# From -- ./inp_files/564.got.cif
#   From: 2010.05.17/outbox.cif.g08.bks.cpg/sg132_1_cif.got.tgz:564.got - 2010.05.20 12:30:18.
