data_PCOD9567997
_publ_section_title
;
Structure prediction by ZEFSAII (Michael W. Deem and Ramdas Pophale) SiO2 
 PCOD9567997
Probable space group: P 42/N B C
;
_chemical_formula_sum "Si O2"
_cell_formula_units_Z 32
_cell_length_a 8.894272
_cell_length_b 8.894272
_cell_length_c 14.800247
_cell_angle_alpha 90.000000
_cell_angle_beta 90.000000
_cell_angle_gamma 90.000000
_cell_volume 1170.819041
_symmetry_space_group_name_H-M "P 42/N B C"
_symmetry_group_IT_number 133
_space_group.IT_coordinate_system_code '2'
_symmetry_cell_setting 'tetragonal'
loop_
_space_group_symop_operation_xyz
x,y,z
1/2-y,x,1/2+z
1/2-x,1/2-y,z
y,1/2-x,1/2+z
x,1/2-y,-z
1/2-x,y,-z
y,x,1/2-z
1/2-y,1/2-x,1/2-z
-x,-y,-z
1/2+y,-x,1/2-z
1/2+x,1/2+y,-z
-y,1/2+x,1/2-z
-x,1/2+y,z
1/2+x,-y,z
-y,-x,1/2+z
1/2+y,1/2+x,1/2+z
loop_
_atom_site_type_symbol
_atom_site_label
_atom_site_fract_x
_atom_site_fract_y
_atom_site_fract_z
Si Si1 0.009474 0.655335 0.333677
Si Si2 0.060168 0.685652 0.097277
O O1 0.067510 0.830409 0.163365
O O2 0.067258 0.820376 0.360731
O O3 0.905615 0.594386 0.250000
O O4 0.901820 0.594933 0.412508
O O5 0.099813 0.750000 0.000000
#
# Coordination Sequence:
#
# PCOD9567997 Si02
#       2
#    16  16
#     4  11  23  44  73 106 145 194 249 308 366 436
#     4  11  25  46  71 108 151 194 245 306 368 442
#
# _framework density 27.331292000000001
#
# number of rings (size 3 to 8) (size 9 to 14) (size 15 to 20)
#    0.000    1.000    0.000    7.500    0.000    6.000 
#    0.000   10.000    0.000    0.000    0.000    0.000 
#    0.000    0.000    0.000    0.000    0.000    0.000 
#
# Total GULP energy -178584.694127 kJ/mol
# GULP energy per Si atom -5580.771691 kJ/mol
# Density = 2.726909 g / cm^3
# Si number density = 27.331292 Si / 1000 Ang^3
#
#
#
# Elastic Constant Matrix: (Units=GPa)
#
#
# Indices 1 2 3 4 5 6 
#
# 1 65.4223 70.5744 41.1727 0.0000 0.0000 0.0000
# 2 70.5744 65.4198 41.1724 0.0000 0.0000 0.0000
# 3 41.1727 41.1724 187.6089 0.0000 0.0000 0.0000
# 4 0.0000 0.0000 0.0000 32.5614 0.0000 0.0000
# 5 0.0000 0.0000 0.0000 0.0000 32.5616 0.0000
# 6 0.0000 0.0000 0.0000 0.0000 0.0000 88.3964
#
#
#
# Elastic Compliance Matrix: (Units=1/GPa)
#
#
# Indices 1 2 3 4 5 6 
#
# 1 -0.092782 0.101264 -0.001861 0.000000 0.000000 0.000000
# 2 0.101264 -0.092786 -0.001861 0.000000 0.000000 0.000000
# 3 -0.001861 -0.001861 0.006147 0.000000 0.000000 0.000000
# 4 0.000000 0.000000 0.000000 0.030711 0.000000 0.000000
# 5 0.000000 0.000000 0.000000 0.000000 0.030711 0.000000
# 6 0.000000 0.000000 0.000000 0.000000 0.000000 0.011313
#
#
# Mechanical properties :
#
#
# Convention : Reuss Voigt Hill
#
# Bulk Modulus (GPa) = 63.84452 69.36556 66.60504
# Shear Modulus (GPa) = -16.86059 41.73932 12.43937
#
# Velocity S-wave (km/s) = -2.48644 3.91213 2.13570
# Velocity P-wave (km/s) = 3.89449 6.77060 5.52305
#
# Compressibility (1/GPa) = 0.01566305
#
# Stress axis : x y z
#
# Youngs Moduli (GPa) = -10.77793 -10.77748 162.67898
#
# Poissons Ratio (x) = 1.09137 0.30280
# Poissons Ratio (y) = 1.09142 0.30270
# Poissons Ratio (z) = -0.02006 -0.02005
#
# Static dielectric constant tensor:
#      x y z
#    x 2.183860 0.000000 0.000000 
#    y 0.000000 2.183860 0.000000 
#    z 0.000000 0.000000 2.506960 
# 
# From -- ./inp_files/2238.got.cif
#   From: 2010.05.17/outbox.cif.g08.bks.cpg/sg133_2_cif.got.tgz:2238.got - 2010.05.20 12:37:36.
