data_PCOD9567906
_publ_section_title
;
Structure prediction by ZEFSAII (Michael W. Deem and Ramdas Pophale) SiO2 
 PCOD9567906
Probable space group: P 42/N B C
;
_chemical_formula_sum "Si O2"
_cell_formula_units_Z 112
_cell_length_a 14.291551
_cell_length_b 14.291551
_cell_length_c 25.200458
_cell_angle_alpha 90.000000
_cell_angle_beta 90.000000
_cell_angle_gamma 90.000000
_cell_volume 5147.153981
_symmetry_space_group_name_H-M "P 42/N B C"
_symmetry_group_IT_number 133
_space_group.IT_coordinate_system_code '2'
_symmetry_cell_setting 'tetragonal'
loop_
_space_group_symop_operation_xyz
x,y,z
1/2-y,x,1/2+z
1/2-x,1/2-y,z
y,1/2-x,1/2+z
x,1/2-y,-z
1/2-x,y,-z
y,x,1/2-z
1/2-y,1/2-x,1/2-z
-x,-y,-z
1/2+y,-x,1/2-z
1/2+x,1/2+y,-z
-y,1/2+x,1/2-z
-x,1/2+y,z
1/2+x,-y,z
-y,-x,1/2+z
1/2+y,1/2+x,1/2+z
loop_
_atom_site_type_symbol
_atom_site_label
_atom_site_fract_x
_atom_site_fract_y
_atom_site_fract_z
Si Si1 0.264486 0.520192 0.884762
Si Si2 0.601430 0.954621 0.491750
Si Si3 0.462496 0.622531 0.875281
Si Si4 0.750000 0.524950 0.000000
Si Si5 0.999410 0.811568 0.099253
Si Si6 0.186046 0.333503 0.157282
Si Si7 0.466836 0.923628 0.328813
Si Si8 0.427651 0.072350 0.250000
O O1 0.366423 0.563922 0.874674
O O2 0.264734 0.407417 0.880998
O O3 0.185184 0.545363 0.841765
O O4 0.242417 0.538033 0.946696
O O5 0.586758 0.844107 0.500563
O O6 0.670914 0.993576 0.536788
O O7 0.500000 0.000000 0.500000
O O8 0.624772 0.984952 0.432200
O O9 0.437587 0.732449 0.872714
O O10 0.534880 0.572390 0.834845
O O11 0.897798 0.790247 0.123473
O O12 0.027669 0.911892 0.122812
O O13 0.250000 0.250000 0.177521
O O14 0.143223 0.398527 0.203556
O O15 0.422912 0.969119 0.276018
#
# Coordination Sequence:
#
# PCOD9567906 Si02
#       8
#    16  16  16   8  16  16  16   8
#     4  12  23  42  69  98 141 187 238 296 369 441
#     4  12  20  39  62  93 143 186 228 292 360 431
#     4  12  23  41  65  95 138 187 232 291 362 432
#     4  12  20  36  69  95 136 194 224 292 375 437
#     4  11  23  41  65  95 141 184 230 292 356 438
#     4  11  22  43  69 106 137 175 242 308 366 443
#     4  11  23  46  67  94 134 177 232 298 358 440
#     4  10  23  48  68  96 135 178 222 306 384 425
#
# _framework density 21.759595999999998
#
# number of rings (size 3 to 8) (size 9 to 14) (size 15 to 20)
#    0.000    0.571    8.571    1.500    0.000    0.571 
#    7.714    1.071    0.000    0.000    0.000    0.000 
#    0.000    0.000    0.000    0.000    0.000    0.000 
#
# Total GULP energy -624566.626527 kJ/mol
# GULP energy per Si atom -5576.487737 kJ/mol
# Density = 2.171007 g / cm^3
# Si number density = 21.759596 Si / 1000 Ang^3
#
#
#
# Elastic Constant Matrix: (Units=GPa)
#
#
# Indices 1 2 3 4 5 6 
#
# 1 105.7883 29.7893 21.2045 0.0000 0.0000 0.0000
# 2 29.7893 105.7879 21.2043 0.0000 0.0000 0.0000
# 3 21.2045 21.2043 89.5123 0.0000 0.0000 0.0000
# 4 0.0000 0.0000 0.0000 29.7647 0.0000 0.0000
# 5 0.0000 0.0000 0.0000 0.0000 29.7650 0.0000
# 6 0.0000 0.0000 0.0000 0.0000 0.0000 29.4078
#
#
#
# Elastic Compliance Matrix: (Units=1/GPa)
#
#
# Indices 1 2 3 4 5 6 
#
# 1 0.010562 -0.002596 -0.001887 0.000000 0.000000 0.000000
# 2 -0.002596 0.010562 -0.001887 0.000000 0.000000 0.000000
# 3 -0.001887 -0.001887 0.012066 0.000000 0.000000 0.000000
# 4 0.000000 0.000000 0.000000 0.033597 0.000000 0.000000
# 5 0.000000 0.000000 0.000000 0.000000 0.033596 0.000000
# 6 0.000000 0.000000 0.000000 0.000000 0.000000 0.034005
#
#
# Mechanical properties :
#
#
# Convention : Reuss Voigt Hill
#
# Bulk Modulus (GPa) = 48.90058 49.49830 49.19944
# Shear Modulus (GPa) = 32.47921 33.04687 32.76304
#
# Velocity S-wave (km/s) = 3.86766 3.90131 3.88452
# Velocity P-wave (km/s) = 6.51667 6.56436 6.54056
#
# Compressibility (1/GPa) = 0.02044965
#
# Stress axis : x y z
#
# Youngs Moduli (GPa) = 94.67803 94.67774 82.87952
#
# Poissons Ratio (x) = 0.24578 0.15640
# Poissons Ratio (y) = 0.24578 0.15640
# Poissons Ratio (z) = 0.17867 0.17866
#
# Static dielectric constant tensor:
#      x y z
#    x 1.881950 0.000000 0.000000 
#    y 0.000000 1.881950 0.000000 
#    z 0.000000 0.000000 1.860400 
# 
# From -- ./inp_files/7698.got.cif
#   From: 2010.05.17/outbox.cif.g08.bks.cpg/sg133_4_cif.got.tgz:7698.got - 2010.05.20 12:37:36.
