data_PCOD9567116
_publ_section_title
;
Structure prediction by ZEFSAII (Michael W. Deem and Ramdas Pophale) SiO2 
 PCOD9567116
Probable space group: P 42/M C M
;
_chemical_formula_sum "Si O2"
_cell_formula_units_Z 96
_cell_length_a 15.918791
_cell_length_b 15.918791
_cell_length_c 19.544982
_cell_angle_alpha 90.000000
_cell_angle_beta 90.000000
_cell_angle_gamma 90.000000
_cell_volume 4952.852979
_symmetry_space_group_name_H-M "P 42/M C M"
_symmetry_group_IT_number 132
_symmetry_cell_setting 'tetragonal'
loop_
_space_group_symop_operation_xyz
x,y,z
-y,x,1/2+z
-x,-y,z
y,-x,1/2+z
x,-y,1/2-z
-x,y,1/2-z
y,x,-z
-y,-x,-z
-x,-y,-z
y,-x,1/2-z
x,y,-z
-y,x,1/2-z
-x,y,1/2+z
x,-y,1/2+z
-y,-x,z
y,x,z
loop_
_atom_site_type_symbol
_atom_site_label
_atom_site_fract_x
_atom_site_fract_y
_atom_site_fract_z
Si Si1 0.824779 0.954414 0.316136
Si Si2 0.763240 0.094757 0.420801
Si Si3 0.556252 0.083365 0.074630
Si Si4 0.407300 0.270548 0.223059
Si Si5 0.400508 0.204806 0.077265
Si Si6 0.354600 0.091067 0.717221
O O1 0.892308 0.892308 0.348102
O O2 0.745949 0.904434 0.284237
O O3 0.862825 0.000000 0.250000
O O4 0.787770 0.021209 0.369381
O O5 0.766554 0.067195 0.500000
O O6 0.829916 0.170085 0.412031
O O7 0.671647 0.134928 0.408656
O O8 0.490075 0.159030 0.076479
O O9 0.615441 0.089568 0.139142
O O10 0.500000 0.000000 0.080018
O O11 0.598838 0.081514 0.000000
O O12 0.500000 0.294086 0.250000
O O13 0.334872 0.334872 0.247643
O O14 0.402580 0.267517 0.140566
O O15 0.391021 0.173813 0.246727
O O16 0.383602 0.236922 0.000000
O O17 0.377984 0.000000 0.750000
#
# Coordination Sequence:
#
# PCOD9567116 Si02
#       6
#    16  16  16  16  16  16
#     4  11  23  38  56  79 112 158 209 256 303 355
#     4  10  21  37  57  84 119 159 204 253 299 348
#     4  10  19  32  55  88 123 155 189 233 297 374
#     4  12  25  42  65  93 126 163 209 259 310 369
#     4  10  20  37  62  92 122 154 194 246 307 367
#     4  11  23  38  61  89 127 159 195 250 316 379
#
# _framework density 19.382767000000001
#
# number of rings (size 3 to 8) (size 9 to 14) (size 15 to 20)
#    0.000    1.333    1.667    5.500    0.000    4.667 
#    0.000    0.833    0.000    3.000    0.000    1.167 
#    0.000    0.000    0.000    0.000    0.000    0.000 
#
# Total GULP energy -536309.168137 kJ/mol
# GULP energy per Si atom -5586.553835 kJ/mol
# Density = 1.933865 g / cm^3
# Si number density = 19.382767 Si / 1000 Ang^3
#
#
#
# Elastic Constant Matrix: (Units=GPa)
#
#
# Indices 1 2 3 4 5 6 
#
# 1 61.3302 59.5979 39.4747 0.0000 0.0000 0.0000
# 2 59.5979 61.3302 39.4747 0.0000 0.0000 0.0000
# 3 39.4747 39.4747 123.3288 0.0000 0.0000 0.0000
# 4 0.0000 0.0000 0.0000 8.5099 0.0000 0.0000
# 5 0.0000 0.0000 0.0000 0.0000 8.5099 0.0000
# 6 0.0000 0.0000 0.0000 0.0000 0.0000 23.4573
#
#
#
# Elastic Compliance Matrix: (Units=1/GPa)
#
#
# Indices 1 2 3 4 5 6 
#
# 1 0.293866 -0.283412 -0.003346 0.000000 0.000000 0.000000
# 2 -0.283412 0.293866 -0.003346 0.000000 0.000000 0.000000
# 3 -0.003346 -0.003346 0.010250 0.000000 0.000000 0.000000
# 4 0.000000 0.000000 0.000000 0.117511 0.000000 0.000000
# 5 0.000000 0.000000 0.000000 0.000000 0.117511 0.000000
# 6 0.000000 0.000000 0.000000 0.000000 0.000000 0.042631
#
#
# Mechanical properties :
#
#
# Convention : Reuss Voigt Hill
#
# Bulk Modulus (GPa) = 56.26205 58.12042 57.19124
# Shear Modulus (GPa) = 3.42052 15.25820 9.33936
#
# Velocity S-wave (km/s) = 1.32987 2.80876 2.19746
# Velocity P-wave (km/s) = 5.60784 6.36942 6.00073
#
# Compressibility (1/GPa) = 0.01777397
#
# Stress axis : x y z
#
# Youngs Moduli (GPa) = 3.40291 3.40291 97.55729
#
# Poissons Ratio (x) = 0.96443 0.32643
# Poissons Ratio (y) = 0.96443 0.32643
# Poissons Ratio (z) = 0.01139 0.01139
#
# Static dielectric constant tensor:
#      x y z
#    x 1.683010 0.000000 0.000000 
#    y 0.000000 1.683010 0.000000 
#    z 0.000000 0.000000 1.708060 
# 
# From -- ./inp_files/7887.got.cif
#   From: 2010.05.17/outbox.cif.g08.bks.cpg/sg132_4_cif.got.tgz:7887.got - 2010.05.20 12:30:18.
