data_PCOD9567810
_publ_section_title
;
Structure prediction by ZEFSAII (Michael W. Deem and Ramdas Pophale) SiO2 
 PCOD9567810
Probable space group: P 42/N B C
;
_chemical_formula_sum "Si O2"
_cell_formula_units_Z 72
_cell_length_a 17.634620
_cell_length_b 17.634620
_cell_length_c 11.465147
_cell_angle_alpha 90.000000
_cell_angle_beta 90.000000
_cell_angle_gamma 90.000000
_cell_volume 3565.429380
_symmetry_space_group_name_H-M "P 42/N B C"
_symmetry_group_IT_number 133
_space_group.IT_coordinate_system_code '2'
_symmetry_cell_setting 'tetragonal'
loop_
_space_group_symop_operation_xyz
x,y,z
1/2-y,x,1/2+z
1/2-x,1/2-y,z
y,1/2-x,1/2+z
x,1/2-y,-z
1/2-x,y,-z
y,x,1/2-z
1/2-y,1/2-x,1/2-z
-x,-y,-z
1/2+y,-x,1/2-z
1/2+x,1/2+y,-z
-y,1/2+x,1/2-z
-x,1/2+y,z
1/2+x,-y,z
-y,-x,1/2+z
1/2+y,1/2+x,1/2+z
loop_
_atom_site_type_symbol
_atom_site_label
_atom_site_fract_x
_atom_site_fract_y
_atom_site_fract_z
Si Si1 0.128064 0.615974 0.382991
Si Si2 0.770191 0.438577 0.297312
Si Si3 0.250000 0.445802 0.500000
Si Si4 0.065121 0.398394 0.117298
Si Si5 0.678733 0.021633 0.932804
O O1 0.088261 0.656454 0.272307
O O2 0.218037 0.622570 0.363394
O O3 0.106444 0.526511 0.390248
O O4 0.098287 0.657699 0.498405
O O5 0.783661 0.502201 0.394900
O O6 0.711316 0.466201 0.196393
O O7 0.321059 0.404974 0.558551
O O8 0.092056 0.407945 0.250000
O O9 0.104586 0.470113 0.057974
O O10 0.750000 0.985454 0.000000
#
# Coordination Sequence:
#
# PCOD9567810 Si02
#       5
#    16  16   8  16  16
#     4  10  22  36  64  89 131 172 216 267 320 390
#     4  10  22  38  59  92 133 172 218 265 332 381
#     4  10  22  38  63  95 134 162 210 284 326 382
#     4  11  21  40  68  94 128 169 222 268 332 399
#     4  10  21  41  61  94 132 169 214 278 323 391
#
# _framework density 20.193922000000001
#
# number of rings (size 3 to 8) (size 9 to 14) (size 15 to 20)
#    0.000    1.778    4.444    0.667    6.222    2.222 
#    0.000    3.889    0.000    1.333    0.000    0.000 
#    0.000    0.000    0.000    0.000    0.000    0.000 
#
# Total GULP energy -401262.614788 kJ/mol
# GULP energy per Si atom -5573.091872 kJ/mol
# Density = 2.014796 g / cm^3
# Si number density = 20.193922 Si / 1000 Ang^3
#
#
#
# Elastic Constant Matrix: (Units=GPa)
#
#
# Indices 1 2 3 4 5 6 
#
# 1 79.4396 24.4767 24.4300 0.0000 0.0000 0.0000
# 2 24.4767 79.4389 24.4292 0.0000 0.0000 0.0000
# 3 24.4300 24.4292 111.9786 0.0000 0.0000 0.0000
# 4 0.0000 0.0000 0.0000 34.0466 0.0000 0.0000
# 5 0.0000 0.0000 0.0000 0.0000 34.0465 0.0000
# 6 0.0000 0.0000 0.0000 0.0000 0.0000 2.9915
#
#
#
# Elastic Compliance Matrix: (Units=1/GPa)
#
#
# Indices 1 2 3 4 5 6 
#
# 1 0.014459 -0.003736 -0.002339 0.000000 0.000000 0.000000
# 2 -0.003736 0.014459 -0.002339 0.000000 0.000000 0.000000
# 3 -0.002339 -0.002339 0.009951 0.000000 0.000000 0.000000
# 4 0.000000 0.000000 0.000000 0.029371 0.000000 0.000000
# 5 0.000000 0.000000 0.000000 0.000000 0.029372 0.000000
# 6 0.000000 0.000000 0.000000 0.000000 0.000000 0.334284
#
#
# Mechanical properties :
#
#
# Convention : Reuss Voigt Hill
#
# Bulk Modulus (GPa) = 45.37274 46.39210 45.88242
# Shear Modulus (GPa) = 10.96322 27.38501 19.17412
#
# Velocity S-wave (km/s) = 2.33254 3.68652 3.08474
# Velocity P-wave (km/s) = 5.45634 6.41434 5.95464
#
# Compressibility (1/GPa) = 0.02203966
#
# Stress axis : x y z
#
# Youngs Moduli (GPa) = 69.16292 69.16261 100.49231
#
# Poissons Ratio (x) = 0.25836 0.23510
# Poissons Ratio (y) = 0.25836 0.23508
# Poissons Ratio (z) = 0.16180 0.16179
#
# Static dielectric constant tensor:
#      x y z
#    x 1.753750 0.000000 0.000000 
#    y 0.000000 1.753750 0.000000 
#    z 0.000000 0.000000 1.783340 
# 
# From -- ./inp_files/3107.got.cif
#   From: 2010.05.17/outbox.cif.g08.bks.cpg/sg133_2_cif.got.tgz:3107.got - 2010.05.20 12:37:36.
