data_PCOD9567674
_publ_section_title
;
Structure prediction by ZEFSAII (Michael W. Deem and Ramdas Pophale) SiO2 
 PCOD9567674
Probable space group: P 42/N B C
;
_chemical_formula_sum "Si O2"
_cell_formula_units_Z 56
_cell_length_a 16.021386
_cell_length_b 16.021386
_cell_length_c 10.721373
_cell_angle_alpha 90.000000
_cell_angle_beta 90.000000
_cell_angle_gamma 90.000000
_cell_volume 2752.013585
_symmetry_space_group_name_H-M "P 42/N B C"
_symmetry_group_IT_number 133
_space_group.IT_coordinate_system_code '2'
_symmetry_cell_setting 'tetragonal'
loop_
_space_group_symop_operation_xyz
x,y,z
1/2-y,x,1/2+z
1/2-x,1/2-y,z
y,1/2-x,1/2+z
x,1/2-y,-z
1/2-x,y,-z
y,x,1/2-z
1/2-y,1/2-x,1/2-z
-x,-y,-z
1/2+y,-x,1/2-z
1/2+x,1/2+y,-z
-y,1/2+x,1/2-z
-x,1/2+y,z
1/2+x,-y,z
-y,-x,1/2+z
1/2+y,1/2+x,1/2+z
loop_
_atom_site_type_symbol
_atom_site_label
_atom_site_fract_x
_atom_site_fract_y
_atom_site_fract_z
Si Si1 0.019241 0.103150 0.864077
Si Si2 0.203375 0.881032 0.767211
Si Si3 0.560639 0.598612 0.613973
Si Si4 0.250000 0.970552 0.000000
O O1 0.082786 0.082786 0.750000
O O2 0.955085 0.175069 0.823449
O O3 0.064430 0.113746 0.996809
O O4 0.962381 0.019784 0.876022
O O5 0.299092 0.852876 0.751063
O O6 0.194973 0.914159 0.908005
O O7 0.600490 0.600490 0.750000
O O8 0.526549 0.689218 0.580719
#
# Coordination Sequence:
#
# PCOD9567674 Si02
#       4
#    16  16  16   8
#     4  10  19  39  65  85 125 178 224 260 302 385
#     4  11  24  39  59  96 142 179 207 257 339 406
#     4  10  22  38  64  92 123 168 227 270 313 377
#     4  12  22  43  62  96 139 170 214 278 328 393
#
# _framework density 20.348737
#
# number of rings (size 3 to 8) (size 9 to 14) (size 15 to 20)
#    0.000    1.429    5.714    0.000    0.000    2.286 
#    5.143    0.000    0.000    0.000    0.000   14.000 
#    0.000    0.000    0.000    0.000    0.000    0.000 
#
# Total GULP energy -312893.711818 kJ/mol
# GULP energy per Si atom -5587.387711 kJ/mol
# Density = 2.030242 g / cm^3
# Si number density = 20.348737 Si / 1000 Ang^3
#
#
#
# Elastic Constant Matrix: (Units=GPa)
#
#
# Indices 1 2 3 4 5 6 
#
# 1 52.8719 40.4379 50.2980 0.0000 0.0000 0.0000
# 2 40.4379 52.8719 50.2980 0.0000 0.0000 0.0000
# 3 50.2980 50.2980 170.7497 0.0000 0.0000 0.0000
# 4 0.0000 0.0000 0.0000 28.5687 0.0000 0.0000
# 5 0.0000 0.0000 0.0000 0.0000 28.5687 0.0000
# 6 0.0000 0.0000 0.0000 0.0000 0.0000 28.7338
#
#
#
# Elastic Compliance Matrix: (Units=1/GPa)
#
#
# Indices 1 2 3 4 5 6 
#
# 1 0.048064 -0.032360 -0.004626 0.000000 0.000000 0.000000
# 2 -0.032360 0.048064 -0.004626 0.000000 0.000000 0.000000
# 3 -0.004626 -0.004626 0.008582 0.000000 0.000000 0.000000
# 4 0.000000 0.000000 0.000000 0.035003 0.000000 0.000000
# 5 0.000000 0.000000 0.000000 0.000000 0.035003 0.000000
# 6 0.000000 0.000000 0.000000 0.000000 0.000000 0.034802
#
#
# Mechanical properties :
#
#
# Convention : Reuss Voigt Hill
#
# Bulk Modulus (GPa) = 46.54130 62.06239 54.30184
# Shear Modulus (GPa) = 16.67190 26.20488 21.43839
#
# Velocity S-wave (km/s) = 2.86546 3.59247 3.24936
# Velocity P-wave (km/s) = 5.81974 6.91183 6.38916
#
# Compressibility (1/GPa) = 0.02148629
#
# Stress axis : x y z
#
# Youngs Moduli (GPa) = 20.80545 20.80545 116.52407
#
# Poissons Ratio (x) = 0.67327 0.53904
# Poissons Ratio (y) = 0.67327 0.53904
# Poissons Ratio (z) = 0.09625 0.09625
#
# Static dielectric constant tensor:
#      x y z
#    x 1.713080 0.000000 0.000000 
#    y 0.000000 1.713080 0.000000 
#    z 0.000000 0.000000 1.792100 
# 
# From -- ./inp_files/1263.got.cif
#   From: 2010.05.17/outbox.cif.g08.bks.cpg/sg133_1_cif.got.tgz:1263.got - 2010.05.20 12:37:36.
