data_PCOD9567354
_publ_section_title
;
Structure prediction by ZEFSAII (Michael W. Deem and Ramdas Pophale) SiO2 
 PCOD9567354
Probable space group: P 42/M C M
;
_chemical_formula_sum "Si O2"
_cell_formula_units_Z 92
_cell_length_a 14.039036
_cell_length_b 14.039036
_cell_length_c 22.001702
_cell_angle_alpha 90.000000
_cell_angle_beta 90.000000
_cell_angle_gamma 90.000000
_cell_volume 4336.415155
_symmetry_space_group_name_H-M "P 42/M C M"
_symmetry_group_IT_number 132
_symmetry_cell_setting 'tetragonal'
loop_
_space_group_symop_operation_xyz
x,y,z
-y,x,1/2+z
-x,-y,z
y,-x,1/2+z
x,-y,1/2-z
-x,y,1/2-z
y,x,-z
-y,-x,-z
-x,-y,-z
y,-x,1/2-z
x,y,-z
-y,x,1/2-z
-x,y,1/2+z
x,-y,1/2+z
-y,-x,z
y,x,z
loop_
_atom_site_type_symbol
_atom_site_label
_atom_site_fract_x
_atom_site_fract_y
_atom_site_fract_z
Si Si1 0.272377 0.727624 0.070306
Si Si2 0.891539 0.891539 0.430874
Si Si3 0.971785 0.748475 0.127119
Si Si4 0.670574 0.329427 0.500000
Si Si5 0.865080 0.408592 0.135611
Si Si6 0.155509 0.000000 0.750000
Si Si7 0.612724 0.813638 0.104961
Si Si8 0.754434 0.602534 0.754854
O O1 0.190417 0.809584 0.072723
O O2 0.227442 0.637508 0.103637
O O3 0.292473 0.707528 0.000000
O O4 0.912272 0.912272 0.500000
O O5 0.983304 0.842881 0.401794
O O6 0.048361 0.662845 0.124326
O O7 0.958769 0.778765 0.196973
O O8 0.879281 0.705600 0.095816
O O9 0.733058 0.384595 0.554078
O O10 0.873231 0.513936 0.107876
O O11 0.842322 0.408181 0.207873
O O12 0.085452 0.914549 0.771485
O O13 0.618707 0.778323 0.174793
O O14 0.703534 0.500000 0.750000
O O15 0.688995 0.688995 0.734039
#
# Coordination Sequence:
#
# PCOD9567354 Si02
#       8
#     8   8  16   4  16   8  16  16
#     4   9  18  33  59  87 124 154 193 246 318 389
#     4   9  20  38  56  86 120 161 204 252 306 366
#     4  11  22  40  66  92 128 165 218 275 326 385
#     4  12  28  46  62  90 138 190 218 260 340 410
#     4  10  21  39  66  98 123 163 212 276 334 387
#     4  11  24  40  63  98 140 176 213 266 342 407
#     4  11  25  41  63  92 129 170 221 268 328 393
#     4  10  20  38  62  92 126 164 212 265 323 392
#
# _framework density 21.215682000000001
#
# number of rings (size 3 to 8) (size 9 to 14) (size 15 to 20)
#    0.000    1.652    2.609    1.565    3.652    1.565 
#    0.000    4.348    0.000    2.087    0.000    0.000 
#    0.000    0.000    0.000    0.000    0.000    0.000 
#
# Total GULP energy -512475.520295 kJ/mol
# GULP energy per Si atom -5570.386090 kJ/mol
# Density = 2.116739 g / cm^3
# Si number density = 21.215682 Si / 1000 Ang^3
#
#
#
# Elastic Constant Matrix: (Units=GPa)
#
#
# Indices 1 2 3 4 5 6 
#
# 1 48.2325 32.2260 5.4398 0.0000 0.0000 0.0000
# 2 32.2260 48.2321 5.4395 0.0000 0.0000 0.0000
# 3 5.4398 5.4395 107.6910 0.0000 0.0000 0.0000
# 4 0.0000 0.0000 0.0000 9.2466 0.0000 0.0000
# 5 0.0000 0.0000 0.0000 0.0000 9.2460 0.0000
# 6 0.0000 0.0000 0.0000 0.0000 0.0000 57.2193
#
#
#
# Elastic Compliance Matrix: (Units=1/GPa)
#
#
# Indices 1 2 3 4 5 6 
#
# 1 0.037495 -0.024981 -0.000632 0.000000 0.000000 0.000000
# 2 -0.024981 0.037495 -0.000632 0.000000 0.000000 0.000000
# 3 -0.000632 -0.000632 0.009350 0.000000 0.000000 0.000000
# 4 0.000000 0.000000 0.000000 0.108148 0.000000 0.000000
# 5 0.000000 0.000000 0.000000 0.000000 0.108155 0.000000
# 6 0.000000 0.000000 0.000000 0.000000 0.000000 0.017477
#
#
# Mechanical properties :
#
#
# Convention : Reuss Voigt Hill
#
# Bulk Modulus (GPa) = 31.39741 32.26291 31.83016
# Shear Modulus (GPa) = 13.11560 25.87905 19.49732
#
# Velocity S-wave (km/s) = 2.48907 3.49636 3.03480
# Velocity P-wave (km/s) = 4.80540 5.61601 5.22644
#
# Compressibility (1/GPa) = 0.03184976
#
# Stress axis : x y z
#
# Youngs Moduli (GPa) = 26.67040 26.67021 106.95547
#
# Poissons Ratio (x) = 0.66624 0.06762
# Poissons Ratio (y) = 0.66624 0.06760
# Poissons Ratio (z) = 0.01686 0.01686
#
# Static dielectric constant tensor:
#      x y z
#    x 1.786630 0.000000 0.000000 
#    y 0.000000 1.786630 0.000000 
#    z 0.000000 0.000000 1.756680 
# 
# From -- ./inp_files/7982.got.cif
#   From: 2010.05.17/outbox.cif.g08.bks.cpg/sg132_4_cif.got.tgz:7982.got - 2010.05.20 12:30:18.
