data_PCOD9567495
_publ_section_title
;
Structure prediction by ZEFSAII (Michael W. Deem and Ramdas Pophale) SiO2 
 PCOD9567495
Probable space group: P 42/M C M
;
_chemical_formula_sum "Si O2"
_cell_formula_units_Z 60
_cell_length_a 14.324886
_cell_length_b 14.324886
_cell_length_c 15.274814
_cell_angle_alpha 90.000000
_cell_angle_beta 90.000000
_cell_angle_gamma 90.000000
_cell_volume 3134.427865
_symmetry_space_group_name_H-M "P 42/M C M"
_symmetry_group_IT_number 132
_symmetry_cell_setting 'tetragonal'
loop_
_space_group_symop_operation_xyz
x,y,z
-y,x,1/2+z
-x,-y,z
y,-x,1/2+z
x,-y,1/2-z
-x,y,1/2-z
y,x,-z
-y,-x,-z
-x,-y,-z
y,-x,1/2-z
x,y,-z
-y,x,1/2-z
-x,y,1/2+z
x,-y,1/2+z
-y,-x,z
y,x,z
loop_
_atom_site_type_symbol
_atom_site_label
_atom_site_fract_x
_atom_site_fract_y
_atom_site_fract_z
Si Si1 0.635125 0.364876 0.898150
Si Si2 0.548378 0.902837 0.500000
Si Si3 0.948454 0.238934 0.000000
Si Si4 0.792831 0.207170 0.860761
Si Si5 0.228644 0.521088 0.654946
Si Si6 0.256348 0.743653 0.661001
Si Si7 0.155126 0.844874 0.500000
O O1 0.715921 0.284080 0.893585
O O2 0.677507 0.458062 0.854879
O O3 0.616604 0.383397 0.000000
O O4 0.651500 0.941812 0.500000
O O5 0.519437 0.839600 0.418094
O O6 0.500000 0.000000 0.500000
O O7 0.892131 0.223225 0.091650
O O8 0.045446 0.183113 0.000000
O O9 0.780630 0.219371 0.756115
O O10 0.188341 0.500000 0.750000
O O11 0.241664 0.632180 0.649784
O O12 0.202127 0.797874 0.585053
#
# Coordination Sequence:
#
# PCOD9567495 Si02
#       7
#     8   8   8   8  16   8   4
#     4  12  20  41  67  98 127 186 239 281 325 415
#     4  12  23  38  62  92 130 185 230 282 349 430
#     4  11  22  46  71  96 125 173 240 281 341 406
#     4  11  20  42  76  91 126 175 229 290 328 403
#     4  12  22  40  66  95 138 180 235 283 348 423
#     4  12  25  43  60 102 149 176 207 295 358 399
#     4  12  30  45  62  99 146 168 218 306 370 406
#
# _framework density 19.142250000000001
#
# number of rings (size 3 to 8) (size 9 to 14) (size 15 to 20)
#    0.000    0.267    8.000    2.400    0.000    3.200 
#    0.000    7.333    0.000    3.200    0.000    0.000 
#    0.000    0.000    0.000    0.000    0.000    0.000 
#
# Total GULP energy -334267.647057 kJ/mol
# GULP energy per Si atom -5571.127451 kJ/mol
# Density = 1.909868 g / cm^3
# Si number density = 19.142250 Si / 1000 Ang^3
#
#
#
# Elastic Constant Matrix: (Units=GPa)
#
#
# Indices 1 2 3 4 5 6 
#
# 1 155.6808 61.6409 47.9048 0.0000 0.0000 0.0000
# 2 61.6409 155.6823 47.9050 0.0000 0.0000 0.0000
# 3 47.9048 47.9050 135.1661 0.0000 0.0000 0.0000
# 4 0.0000 0.0000 0.0000 188.8566 0.0000 0.0000
# 5 0.0000 0.0000 0.0000 0.0000 188.8935 0.0000
# 6 0.0000 0.0000 0.0000 0.0000 0.0000 31.6972
#
#
#
# Elastic Compliance Matrix: (Units=1/GPa)
#
#
# Indices 1 2 3 4 5 6 
#
# 1 0.008044 -0.002590 -0.001933 0.000000 0.000000 0.000000
# 2 -0.002590 0.008044 -0.001933 0.000000 0.000000 0.000000
# 3 -0.001933 -0.001933 0.008768 0.000000 0.000000 0.000000
# 4 0.000000 0.000000 0.000000 0.005295 0.000000 0.000000
# 5 0.000000 0.000000 0.000000 0.000000 0.005294 0.000000
# 6 0.000000 0.000000 0.000000 0.000000 0.000000 0.031549
#
#
# Mechanical properties :
#
#
# Convention : Reuss Voigt Hill
#
# Bulk Modulus (GPa) = 83.72276 84.60341 84.16308
# Shear Modulus (GPa) = 59.60467 101.16134 80.38300
#
# Velocity S-wave (km/s) = 5.58618 7.27749 6.48719
# Velocity P-wave (km/s) = 9.24333 10.71956 10.00870
#
# Compressibility (1/GPa) = 0.01194418
#
# Stress axis : x y z
#
# Youngs Moduli (GPa) = 124.32127 124.32244 114.04646
#
# Poissons Ratio (x) = 0.32200 0.22043
# Poissons Ratio (y) = 0.32200 0.22043
# Poissons Ratio (z) = 0.24029 0.24029
#
# Static dielectric constant tensor:
#      x y z
#    x 1.656320 0.000000 0.000000 
#    y 0.000000 1.656320 0.000000 
#    z 0.000000 0.000000 1.674750 
# 
# From -- ./inp_files/4522.got.cif
#   From: 2010.05.17/outbox.cif.g08.bks.cpg/sg132_3_cif.got.tgz:4522.got - 2010.05.20 12:30:18.
