data_PCOD9567727
_publ_section_title
;
Structure prediction by ZEFSAII (Michael W. Deem and Ramdas Pophale) SiO2 
 PCOD9567727
Probable space group: P 42/N B C
;
_chemical_formula_sum "Si O2"
_cell_formula_units_Z 112
_cell_length_a 32.408334
_cell_length_b 32.408334
_cell_length_c 5.198536
_cell_angle_alpha 90.000000
_cell_angle_beta 90.000000
_cell_angle_gamma 90.000000
_cell_volume 5460.022946
_symmetry_space_group_name_H-M "P 42/N B C"
_symmetry_group_IT_number 133
_space_group.IT_coordinate_system_code '2'
_symmetry_cell_setting 'tetragonal'
loop_
_space_group_symop_operation_xyz
x,y,z
1/2-y,x,1/2+z
1/2-x,1/2-y,z
y,1/2-x,1/2+z
x,1/2-y,-z
1/2-x,y,-z
y,x,1/2-z
1/2-y,1/2-x,1/2-z
-x,-y,-z
1/2+y,-x,1/2-z
1/2+x,1/2+y,-z
-y,1/2+x,1/2-z
-x,1/2+y,z
1/2+x,-y,z
-y,-x,1/2+z
1/2+y,1/2+x,1/2+z
loop_
_atom_site_type_symbol
_atom_site_label
_atom_site_fract_x
_atom_site_fract_y
_atom_site_fract_z
Si Si1 0.988463 0.822871 0.531789
Si Si2 0.022953 0.939198 0.080027
Si Si3 0.431839 0.295544 0.085076
Si Si4 0.883559 0.949086 0.303866
Si Si5 0.834940 0.703523 0.000608
Si Si6 0.040193 0.702054 0.967163
Si Si7 0.094748 0.629312 0.870693
O O1 0.016947 0.816305 0.781758
O O2 0.012845 0.804655 0.289716
O O3 0.946316 0.800300 0.619087
O O4 0.974336 0.868759 0.450860
O O5 0.032923 0.964909 0.337140
O O6 0.054486 0.900101 0.096745
O O7 0.978116 0.918158 0.066793
O O8 0.383885 0.294110 0.028348
O O9 0.448755 0.250000 0.000000
O O10 0.444227 0.340060 0.955947
O O11 0.905454 0.905454 0.250000
O O12 0.818923 0.681078 0.250000
O O13 0.818280 0.750000 0.000000
O O14 0.820466 0.679535 0.750000
O O15 0.080779 0.675170 0.931030
O O16 0.047848 0.750000 0.000000
O O17 0.111663 0.625396 0.584228
#
# Coordination Sequence:
#
# PCOD9567727 Si02
#       7
#    16  16  16  16  16  16  16
#     4  12  25  43  65  94 129 172 213 270 337 393
#     4  10  23  42  65  89 127 169 217 271 320 378
#     4  11  27  46  70  98 133 167 212 270 339 401
#     4  12  28  45  68  97 129 173 225 272 327 395
#     4  11  26  47  72  99 129 164 208 264 332 407
#     4  12  25  41  68 102 136 172 225 281 332 398
#     4  10  20  37  64  92 132 178 221 268 335 395
#
# _framework density 20.512733999999998
#
# number of rings (size 3 to 8) (size 9 to 14) (size 15 to 20)
#    0.000    0.857    2.857    2.571   12.000    1.429 
#    0.000    0.000    0.000    0.000    0.000    0.000 
#    0.000    1.714    0.000    0.000    0.000    0.000 
#
# Total GULP energy -625928.777193 kJ/mol
# GULP energy per Si atom -5588.649796 kJ/mol
# Density = 2.046605 g / cm^3
# Si number density = 20.512734 Si / 1000 Ang^3
#
#
#
# Elastic Constant Matrix: (Units=GPa)
#
#
# Indices 1 2 3 4 5 6 
#
# 1 78.9075 44.3667 20.4633 0.0000 0.0000 0.0000
# 2 44.3667 78.9082 20.4635 0.0000 0.0000 0.0000
# 3 20.4633 20.4635 108.5632 0.0000 0.0000 0.0000
# 4 0.0000 0.0000 0.0000 21.8681 0.0000 0.0000
# 5 0.0000 0.0000 0.0000 0.0000 21.8680 0.0000
# 6 0.0000 0.0000 0.0000 0.0000 0.0000 24.4738
#
#
#
# Elastic Compliance Matrix: (Units=1/GPa)
#
#
# Indices 1 2 3 4 5 6 
#
# 1 0.018802 -0.010149 -0.001631 0.000000 0.000000 0.000000
# 2 -0.010149 0.018802 -0.001631 0.000000 0.000000 0.000000
# 3 -0.001631 -0.001631 0.009826 0.000000 0.000000 0.000000
# 4 0.000000 0.000000 0.000000 0.045729 0.000000 0.000000
# 5 0.000000 0.000000 0.000000 0.000000 0.045729 0.000000
# 6 0.000000 0.000000 0.000000 0.000000 0.000000 0.040860
#
#
# Mechanical properties :
#
#
# Convention : Reuss Voigt Hill
#
# Bulk Modulus (GPa) = 48.52332 48.55176 48.53754
# Shear Modulus (GPa) = 23.42581 25.71434 24.57007
#
# Velocity S-wave (km/s) = 3.38303 3.54443 3.46467
# Velocity P-wave (km/s) = 6.24231 6.36169 6.30229
#
# Compressibility (1/GPa) = 0.02060865
#
# Stress axis : x y z
#
# Youngs Moduli (GPa) = 53.18488 53.18530 101.76944
#
# Poissons Ratio (x) = 0.53976 0.16600
# Poissons Ratio (y) = 0.53976 0.16600
# Poissons Ratio (z) = 0.08675 0.08675
#
# Static dielectric constant tensor:
#      x y z
#    x 1.744340 0.000000 0.000000 
#    y 0.000000 1.744340 0.000000 
#    z 0.000000 0.000000 1.788110 
# 
# From -- ./inp_files/614.got.cif
#   From: 2010.05.17/outbox.cif.g08.bks.cpg/sg133_1_cif.got.tgz:614.got - 2010.05.20 12:37:36.
