data_PCOD9567930
_publ_section_title
;
Structure prediction by ZEFSAII (Michael W. Deem and Ramdas Pophale) SiO2 
 PCOD9567930
Probable space group: P 42/N B C
;
_chemical_formula_sum "Si O2"
_cell_formula_units_Z 40
_cell_length_a 9.092247
_cell_length_b 9.092247
_cell_length_c 19.245482
_cell_angle_alpha 90.000000
_cell_angle_beta 90.000000
_cell_angle_gamma 90.000000
_cell_volume 1591.003895
_symmetry_space_group_name_H-M "P 42/N B C"
_symmetry_group_IT_number 133
_space_group.IT_coordinate_system_code '2'
_symmetry_cell_setting 'tetragonal'
loop_
_space_group_symop_operation_xyz
x,y,z
1/2-y,x,1/2+z
1/2-x,1/2-y,z
y,1/2-x,1/2+z
x,1/2-y,-z
1/2-x,y,-z
y,x,1/2-z
1/2-y,1/2-x,1/2-z
-x,-y,-z
1/2+y,-x,1/2-z
1/2+x,1/2+y,-z
-y,1/2+x,1/2-z
-x,1/2+y,z
1/2+x,-y,z
-y,-x,1/2+z
1/2+y,1/2+x,1/2+z
loop_
_atom_site_type_symbol
_atom_site_label
_atom_site_fract_x
_atom_site_fract_y
_atom_site_fract_z
Si Si1 0.325054 0.088907 0.676617
Si Si2 0.250000 0.750000 0.500000
Si Si3 0.250000 0.250000 0.000000
Si Si4 0.509065 0.402782 0.909638
O O1 0.250000 0.250000 0.671159
O O2 0.405857 0.094144 0.750000
O O3 0.185195 0.987329 0.663420
O O4 0.430975 0.035187 0.614241
O O5 0.149104 0.854289 0.545865
O O6 0.362969 0.147668 0.046491
#
# Coordination Sequence:
#
# PCOD9567930 Si02
#       4
#    16   4   4  16
#     4  11  28  49  77 109 154 200 255 312 375 448
#     4  10  28  44  76 118 154 206 246 308 390 450
#     4  10  24  48  82 116 154 194 250 316 386 450
#     4  11  26  47  76 112 157 195 253 312 380 454
#
# _framework density 25.141356999999999
#
# number of rings (size 3 to 8) (size 9 to 14) (size 15 to 20)
#    0.000    1.200    2.000    0.000   11.200    9.600 
#    0.000    0.000    0.000    0.000    0.000    0.000 
#    0.000    0.000    0.000    0.000    0.000    0.000 
#
# Total GULP energy -223373.478482 kJ/mol
# GULP energy per Si atom -5584.336962 kJ/mol
# Density = 2.508413 g / cm^3
# Si number density = 25.141357 Si / 1000 Ang^3
#
#
#
# Elastic Constant Matrix: (Units=GPa)
#
#
# Indices 1 2 3 4 5 6 
#
# 1 147.9415 53.1611 53.8614 0.0000 0.0000 0.0000
# 2 53.1611 147.9413 53.8614 0.0000 0.0000 0.0000
# 3 53.8614 53.8614 138.0235 0.0000 0.0000 0.0000
# 4 0.0000 0.0000 0.0000 7.7701 0.0000 0.0000
# 5 0.0000 0.0000 0.0000 0.0000 7.7708 0.0000
# 6 0.0000 0.0000 0.0000 0.0000 0.0000 35.8805
#
#
#
# Elastic Compliance Matrix: (Units=1/GPa)
#
#
# Indices 1 2 3 4 5 6 
#
# 1 0.008419 -0.002132 -0.002453 0.000000 0.000000 0.000000
# 2 -0.002132 0.008419 -0.002453 0.000000 0.000000 0.000000
# 3 -0.002453 -0.002453 0.009160 0.000000 0.000000 0.000000
# 4 0.000000 0.000000 0.000000 0.128699 0.000000 0.000000
# 5 0.000000 0.000000 0.000000 0.000000 0.128686 0.000000
# 6 0.000000 0.000000 0.000000 0.000000 0.000000 0.027870
#
#
# Mechanical properties :
#
#
# Convention : Reuss Voigt Hill
#
# Bulk Modulus (GPa) = 83.89163 83.96377 83.92770
# Shear Modulus (GPa) = 15.18356 28.48578 21.83467
#
# Velocity S-wave (km/s) = 2.46016 3.36969 2.95019
# Velocity P-wave (km/s) = 6.44285 6.97201 6.71265
#
# Compressibility (1/GPa) = 0.01192014
#
# Stress axis : x y z
#
# Youngs Moduli (GPa) = 118.78299 118.78288 109.17201
#
# Poissons Ratio (x) = 0.25324 0.26783
# Poissons Ratio (y) = 0.25324 0.26783
# Poissons Ratio (z) = 0.29141 0.29141
#
# Static dielectric constant tensor:
#      x y z
#    x 2.241120 0.000000 0.000000 
#    y 0.000000 2.241090 0.000000 
#    z 0.000000 0.000000 2.100060 
# 
# From -- ./inp_files/6870.got.cif
#   From: 2010.05.17/outbox.cif.g08.bks.cpg/sg133_4_cif.got.tgz:6870.got - 2010.05.20 12:37:36.
