data_PCOD9567581
_publ_section_title
;
Structure prediction by ZEFSAII (Michael W. Deem and Ramdas Pophale) SiO2 
 PCOD9567581
Probable space group: P 42/N B C
;
_chemical_formula_sum "Si O2"
_cell_formula_units_Z 112
_cell_length_a 34.559840
_cell_length_b 34.559840
_cell_length_c 5.409615
_cell_angle_alpha 90.000000
_cell_angle_beta 90.000000
_cell_angle_gamma 90.000000
_cell_volume 6461.149709
_symmetry_space_group_name_H-M "P 42/N B C"
_symmetry_group_IT_number 133
_space_group.IT_coordinate_system_code '2'
_symmetry_cell_setting 'tetragonal'
loop_
_space_group_symop_operation_xyz
x,y,z
1/2-y,x,1/2+z
1/2-x,1/2-y,z
y,1/2-x,1/2+z
x,1/2-y,-z
1/2-x,y,-z
y,x,1/2-z
1/2-y,1/2-x,1/2-z
-x,-y,-z
1/2+y,-x,1/2-z
1/2+x,1/2+y,-z
-y,1/2+x,1/2-z
-x,1/2+y,z
1/2+x,-y,z
-y,-x,1/2+z
1/2+y,1/2+x,1/2+z
loop_
_atom_site_type_symbol
_atom_site_label
_atom_site_fract_x
_atom_site_fract_y
_atom_site_fract_z
Si Si1 0.705875 0.325695 0.000014
Si Si2 0.703478 0.831905 1.000000
Si Si3 0.905318 0.338191 0.499994
Si Si4 0.034803 0.203312 0.000000
Si Si5 0.330678 0.949571 0.500006
Si Si6 0.932467 0.082359 0.000006
Si Si7 0.202967 0.077799 1.000000
O O1 0.698121 0.301876 0.750020
O O2 0.676068 0.361499 0.000010
O O3 0.750000 0.340034 0.000000
O O4 0.687531 0.812470 0.250000
O O5 0.692251 0.877181 0.999998
O O6 0.750000 0.829215 0.000000
O O7 0.687532 0.812469 0.750000
O O8 0.925804 0.322798 0.251238
O O9 0.908679 0.385362 0.499995
O O10 0.925804 0.322797 0.748751
O O11 0.056349 0.190027 0.750115
O O12 0.990558 0.189937 0.000005
O O13 0.035790 0.250000 0.000000
O O14 0.056350 0.190027 0.249883
O O15 0.377125 0.954377 0.500007
O O16 0.939994 0.060006 0.750006
O O17 0.250000 0.076570 0.000000
#
# Coordination Sequence:
#
# PCOD9567581 Si02
#       7
#    16  16  16  16  16  16  16
#     4  12  25  40  55  67  82 108 144 193 250 309
#     4  11  22  36  56  81 109 144 188 235 279 314
#     4  10  19  33  49  67  91 117 147 187 250 316
#     4  10  19  31  47  68  97 131 167 205 241 288
#     4  10  18  28  47  71  92 117 155 193 231 283
#     4   8  14  25  40  57  82 111 140 173 222 291
#     4   9  19  35  50  67  99 141 175 204 250 310
#
# _framework density 17.334377
#
# number of rings (size 3 to 8) (size 9 to 14) (size 15 to 20)
#    0.000    2.000    0.000    6.000    0.000    5.143 
#    0.000    0.000    0.000    0.000    0.000    0.000 
#    0.000    0.000    0.000    0.000    0.000  450.000 
#
# Total GULP energy -624688.340302 kJ/mol
# GULP energy per Si atom -5577.574467 kJ/mol
# Density = 1.729492 g / cm^3
# Si number density = 17.334377 Si / 1000 Ang^3
#
#
#
# Elastic Constant Matrix: (Units=GPa)
#
#
# Indices 1 2 3 4 5 6 
#
# 1 59.5011 8.8522 36.9114 0.0000 0.0000 0.0000
# 2 8.8522 59.5018 36.9130 0.0000 0.0000 0.0000
# 3 36.9114 36.9130 192.6788 0.0000 0.0000 0.0000
# 4 0.0000 0.0000 0.0000 19.2919 0.0000 0.0000
# 5 0.0000 0.0000 0.0000 0.0000 19.2929 0.0000
# 6 0.0000 0.0000 0.0000 0.0000 0.0000 -12.0243
#
#
#
# Elastic Compliance Matrix: (Units=1/GPa)
#
#
# Indices 1 2 3 4 5 6 
#
# 1 0.019095 -0.000649 -0.003534 0.000000 0.000000 0.000000
# 2 -0.000649 0.019095 -0.003534 0.000000 0.000000 0.000000
# 3 -0.003534 -0.003534 0.006544 0.000000 0.000000 0.000000
# 4 0.000000 0.000000 0.000000 0.051835 0.000000 0.000000
# 5 0.000000 0.000000 0.000000 0.000000 0.051833 0.000000
# 6 0.000000 0.000000 0.000000 0.000000 0.000000 -0.083165
#
#
# Mechanical properties :
#
#
# Convention : Reuss Voigt Hill
#
# Bulk Modulus (GPa) = 34.12797 53.00390 43.56593
# Shear Modulus (GPa) = 55.28721 20.57910 37.93315
#
# Velocity S-wave (km/s) = 5.65365 3.44929 4.68302
# Velocity P-wave (km/s) = 7.89615 6.81962 7.37755
#
# Compressibility (1/GPa) = 0.02930148
#
# Stress axis : x y z
#
# Youngs Moduli (GPa) = 52.36953 52.36963 152.81230
#
# Poissons Ratio (x) = 0.03397 0.54001
# Poissons Ratio (y) = 0.03397 0.54003
# Poissons Ratio (z) = 0.18506 0.18507
#
# Static dielectric constant tensor:
#      x y z
#    x 1.561090 0.000000 0.000000 
#    y 0.000000 1.561090 0.000000 
#    z 0.000000 0.000000 1.646900 
# 
# From -- ./inp_files/611.got.cif
#   From: 2010.05.17/outbox.cif.g08.bks.cpg/sg133_1_cif.got.tgz:611.got - 2010.05.20 12:37:36.
