data_PCOD9567584
_publ_section_title
;
Structure prediction by ZEFSAII (Michael W. Deem and Ramdas Pophale) SiO2 
 PCOD9567584
Probable space group: P 42/N B C
;
_chemical_formula_sum "Si O2"
_cell_formula_units_Z 96
_cell_length_a 26.648675
_cell_length_b 26.648675
_cell_length_c 8.162335
_cell_angle_alpha 90.000000
_cell_angle_beta 90.000000
_cell_angle_gamma 90.000000
_cell_volume 5796.497539
_symmetry_space_group_name_H-M "P 42/N B C"
_symmetry_group_IT_number 133
_space_group.IT_coordinate_system_code '2'
_symmetry_cell_setting 'tetragonal'
loop_
_space_group_symop_operation_xyz
x,y,z
1/2-y,x,1/2+z
1/2-x,1/2-y,z
y,1/2-x,1/2+z
x,1/2-y,-z
1/2-x,y,-z
y,x,1/2-z
1/2-y,1/2-x,1/2-z
-x,-y,-z
1/2+y,-x,1/2-z
1/2+x,1/2+y,-z
-y,1/2+x,1/2-z
-x,1/2+y,z
1/2+x,-y,z
-y,-x,1/2+z
1/2+y,1/2+x,1/2+z
loop_
_atom_site_type_symbol
_atom_site_label
_atom_site_fract_x
_atom_site_fract_y
_atom_site_fract_z
Si Si1 0.405938 0.489383 0.223412
Si Si2 0.321899 0.770813 0.317055
Si Si3 0.344634 0.570480 0.839109
Si Si4 0.240614 0.919498 0.308242
Si Si5 0.491246 0.200237 0.587825
Si Si6 0.063671 0.587615 0.969961
O O1 0.444335 0.444335 0.250000
O O2 0.350669 0.469089 0.169850
O O3 0.428502 0.529997 0.091663
O O4 0.404203 0.522176 0.390767
O O5 0.327196 0.750000 0.500000
O O6 0.306813 0.725693 0.194231
O O7 0.373380 0.793946 0.249414
O O8 0.293828 0.594182 0.774511
O O9 0.378108 0.553273 0.686117
O O10 0.324233 0.524291 0.944310
O O11 0.382221 0.601688 0.953074
O O12 0.250000 0.924349 0.500000
O O13 0.221018 0.970267 0.225441
O O14 0.466559 0.250000 0.500000
#
# Coordination Sequence:
#
# PCOD9567584 Si02
#       6
#    16  16  16  16  16  16
#     4  10  18  30  48  70  96 125 156 192 236 280
#     4  11  22  35  45  57  76 101 137 187 242 286
#     4   9  18  31  46  65  89 118 151 187 231 272
#     4  11  21  33  48  63  81 111 150 190 231 275
#     4   9  19  34  47  65  90 117 152 188 224 272
#     4   9  18  30  46  70  96 120 152 194 233 281
#
# _framework density 16.561726
#
# number of rings (size 3 to 8) (size 9 to 14) (size 15 to 20)
#    0.000    2.167    0.000    5.000    0.000    6.667 
#    0.000    0.000    0.000    0.000    0.000    0.000 
#    0.000    0.000    0.000    0.000    0.000   70.833 
#
# Total GULP energy -534806.250772 kJ/mol
# GULP energy per Si atom -5570.898446 kJ/mol
# Density = 1.652403 g / cm^3
# Si number density = 16.561726 Si / 1000 Ang^3
#
#
#
# Elastic Constant Matrix: (Units=GPa)
#
#
# Indices 1 2 3 4 5 6 
#
# 1 58.5493 25.0090 23.3603 0.0000 0.0000 0.0000
# 2 25.0090 58.5493 23.3603 0.0000 0.0000 0.0000
# 3 23.3603 23.3603 96.2815 0.0000 0.0000 0.0000
# 4 0.0000 0.0000 0.0000 13.0396 0.0000 0.0000
# 5 0.0000 0.0000 0.0000 0.0000 13.0396 0.0000
# 6 0.0000 0.0000 0.0000 0.0000 0.0000 6.8080
#
#
#
# Elastic Compliance Matrix: (Units=1/GPa)
#
#
# Indices 1 2 3 4 5 6 
#
# 1 0.021830 -0.007984 -0.003359 0.000000 0.000000 0.000000
# 2 -0.007984 0.021830 -0.003359 0.000000 0.000000 0.000000
# 3 -0.003359 -0.003359 0.012016 0.000000 0.000000 0.000000
# 4 0.000000 0.000000 0.000000 0.076690 0.000000 0.000000
# 5 0.000000 0.000000 0.000000 0.000000 0.076690 0.000000
# 6 0.000000 0.000000 0.000000 0.000000 0.000000 0.146885
#
#
# Mechanical properties :
#
#
# Convention : Reuss Voigt Hill
#
# Bulk Modulus (GPa) = 38.06498 39.64882 38.85690
# Shear Modulus (GPa) = 12.68697 16.02081 14.35389
#
# Velocity S-wave (km/s) = 2.77075 3.11358 2.94715
# Velocity P-wave (km/s) = 5.76799 6.07601 5.92400
#
# Compressibility (1/GPa) = 0.02627087
#
# Stress axis : x y z
#
# Youngs Moduli (GPa) = 45.80757 45.80757 83.21985
#
# Poissons Ratio (x) = 0.36575 0.27957
# Poissons Ratio (y) = 0.36575 0.27957
# Poissons Ratio (z) = 0.15389 0.15389
#
# Static dielectric constant tensor:
#      x y z
#    x 1.585620 0.000000 0.000000 
#    y 0.000000 1.585620 0.000000 
#    z 0.000000 0.000000 1.595050 
# 
# From -- ./inp_files/2022.got.cif
#   From: 2010.05.17/outbox.cif.g08.bks.cpg/sg133_2_cif.got.tgz:2022.got - 2010.05.20 12:37:36.
