data_PCOD9567466
_publ_section_title
;
Structure prediction by ZEFSAII (Michael W. Deem and Ramdas Pophale) SiO2 
 PCOD9567466
Probable space group: P 42/M C M
;
_chemical_formula_sum "Si O2"
_cell_formula_units_Z 88
_cell_length_a 12.560636
_cell_length_b 12.560636
_cell_length_c 27.788700
_cell_angle_alpha 90.000000
_cell_angle_beta 90.000000
_cell_angle_gamma 90.000000
_cell_volume 4384.211437
_symmetry_space_group_name_H-M "P 42/M C M"
_symmetry_group_IT_number 132
_symmetry_cell_setting 'tetragonal'
loop_
_space_group_symop_operation_xyz
x,y,z
-y,x,1/2+z
-x,-y,z
y,-x,1/2+z
x,-y,1/2-z
-x,y,1/2-z
y,x,-z
-y,-x,-z
-x,-y,-z
y,-x,1/2-z
x,y,-z
-y,x,1/2-z
-x,y,1/2+z
x,-y,1/2+z
-y,-x,z
y,x,z
loop_
_atom_site_type_symbol
_atom_site_label
_atom_site_fract_x
_atom_site_fract_y
_atom_site_fract_z
Si Si1 0.212472 0.392221 0.382796
Si Si2 0.017919 0.324759 0.553586
Si Si3 0.209779 0.386393 0.267925
Si Si4 0.598818 0.222439 0.556452
Si Si5 0.088955 0.088955 0.572621
Si Si6 0.910131 0.910131 0.314869
Si Si7 0.277751 0.000000 0.750000
O O1 0.298230 0.298230 0.393162
O O2 0.100141 0.370186 0.408218
O O3 0.195884 0.394833 0.325543
O O4 0.248024 0.502834 0.407243
O O5 0.041253 0.367470 0.500000
O O6 0.042986 0.199004 0.552744
O O7 0.896459 0.354897 0.564958
O O8 0.247559 0.500000 0.250000
O O9 0.295096 0.295096 0.258386
O O10 0.101085 0.352590 0.240995
O O11 0.564580 0.227499 0.500000
O O12 0.693497 0.306504 0.562655
O O13 0.108339 0.108339 0.629281
O O14 0.000000 0.000000 0.566722
O O15 0.803327 0.955425 0.290519
O O16 0.000000 0.000000 0.308818
#
# Coordination Sequence:
#
# PCOD9567466 Si02
#       7
#    16  16  16  16   8   8   8
#     4  11  24  43  66  93 127 166 215 269 320 385
#     4  11  22  39  63  92 130 172 209 256 318 387
#     4  11  26  45  66  93 128 168 216 272 327 388
#     4  10  23  42  65  95 131 169 213 265 320 381
#     4  11  23  34  55  92 131 170 212 256 311 384
#     4  11  20  35  60  91 127 169 206 262 327 384
#     4  12  20  40  66  92 122 163 211 266 326 388
#
# _framework density 20.072026000000001
#
# number of rings (size 3 to 8) (size 9 to 14) (size 15 to 20)
#    0.000    1.091    2.727    3.273    0.000    9.636 
#    0.000    2.727    0.000    0.000    0.000    0.000 
#    0.000    0.000    0.000    0.000    0.000    0.000 
#
# Total GULP energy -491873.988224 kJ/mol
# GULP energy per Si atom -5589.477139 kJ/mol
# Density = 2.002634 g / cm^3
# Si number density = 20.072026 Si / 1000 Ang^3
#
#
#
# Elastic Constant Matrix: (Units=GPa)
#
#
# Indices 1 2 3 4 5 6 
#
# 1 105.9017 34.7375 33.4618 0.0000 0.0000 0.0000
# 2 34.7375 105.9017 33.4618 0.0000 0.0000 0.0000
# 3 33.4618 33.4618 63.7487 0.0000 0.0000 0.0000
# 4 0.0000 0.0000 0.0000 32.0151 0.0000 0.0000
# 5 0.0000 0.0000 0.0000 0.0000 32.0151 0.0000
# 6 0.0000 0.0000 0.0000 0.0000 0.0000 6.3999
#
#
#
# Elastic Compliance Matrix: (Units=1/GPa)
#
#
# Indices 1 2 3 4 5 6 
#
# 1 0.011765 -0.002287 -0.004975 0.000000 0.000000 0.000000
# 2 -0.002287 0.011765 -0.004975 0.000000 0.000000 0.000000
# 3 -0.004975 -0.004975 0.020909 0.000000 0.000000 0.000000
# 4 0.000000 0.000000 0.000000 0.031235 0.000000 0.000000
# 5 0.000000 0.000000 0.000000 0.000000 0.031235 0.000000
# 6 0.000000 0.000000 0.000000 0.000000 0.000000 0.156252
#
#
# Mechanical properties :
#
#
# Convention : Reuss Voigt Hill
#
# Bulk Modulus (GPa) = 50.08719 53.20824 51.64771
# Shear Modulus (GPa) = 16.99006 25.67878 21.33442
#
# Velocity S-wave (km/s) = 2.91255 3.58066 3.26374
# Velocity P-wave (km/s) = 6.02648 6.60765 6.32374
#
# Compressibility (1/GPa) = 0.01996519
#
# Stress axis : x y z
#
# Youngs Moduli (GPa) = 84.99899 84.99899 47.82579
#
# Poissons Ratio (x) = 0.19441 0.23793
# Poissons Ratio (y) = 0.19441 0.23793
# Poissons Ratio (z) = 0.42286 0.42286
#
# Static dielectric constant tensor:
#      x y z
#    x 1.707700 0.000000 0.000000 
#    y 0.000000 1.707700 0.000000 
#    z 0.000000 0.000000 1.702100 
# 
# From -- ./inp_files/10816.got.cif
#   From: 2010.05.17/outbox.cif.g08.bks.cpg/sg132_6_cif.got.tgz:10816.got - 2010.05.20 12:30:18.
