data_PCOD9567799
_publ_section_title
;
Structure prediction by ZEFSAII (Michael W. Deem and Ramdas Pophale) SiO2 
 PCOD9567799
Probable space group: P 42/N B C
;
_chemical_formula_sum "Si O2"
_cell_formula_units_Z 112
_cell_length_a 33.184461
_cell_length_b 33.184461
_cell_length_c 4.998992
_cell_angle_alpha 90.000000
_cell_angle_beta 90.000000
_cell_angle_gamma 90.000000
_cell_volume 5504.932241
_symmetry_space_group_name_H-M "P 42/N B C"
_symmetry_group_IT_number 133
_space_group.IT_coordinate_system_code '2'
_symmetry_cell_setting 'tetragonal'
loop_
_space_group_symop_operation_xyz
x,y,z
1/2-y,x,1/2+z
1/2-x,1/2-y,z
y,1/2-x,1/2+z
x,1/2-y,-z
1/2-x,y,-z
y,x,1/2-z
1/2-y,1/2-x,1/2-z
-x,-y,-z
1/2+y,-x,1/2-z
1/2+x,1/2+y,-z
-y,1/2+x,1/2-z
-x,1/2+y,z
1/2+x,-y,z
-y,-x,1/2+z
1/2+y,1/2+x,1/2+z
loop_
_atom_site_type_symbol
_atom_site_label
_atom_site_fract_x
_atom_site_fract_y
_atom_site_fract_z
Si Si1 0.162469 0.201930 0.509186
Si Si2 0.089717 0.052770 0.478183
Si Si3 0.097309 0.861793 0.771860
Si Si4 0.528428 0.820868 0.111452
Si Si5 0.571389 0.465859 0.628566
Si Si6 0.072205 0.204665 0.612011
Si Si7 0.778387 0.444028 0.261201
O O1 0.160997 0.250000 0.500000
O O2 0.191075 0.191075 0.750000
O O3 0.117269 0.188397 0.580265
O O4 0.180011 0.180011 0.250000
O O5 0.069172 0.069172 0.750000
O O6 0.134773 0.035180 0.512583
O O7 0.069746 0.013285 0.342385
O O8 0.086938 0.086938 0.250000
O O9 0.125860 0.880897 0.546101
O O10 0.054628 0.886013 0.793020
O O11 0.086537 0.815538 0.715625
O O12 0.543815 0.820761 0.415390
O O13 0.484984 0.799679 0.129203
O O14 0.557022 0.795551 0.914235
O O15 0.558797 0.457983 0.323214
O O16 0.070494 0.250000 0.500000
O O17 0.750000 0.428988 0.500000
O O18 0.750000 0.450996 0.000000
#
# Coordination Sequence:
#
# PCOD9567799 Si02
#       7
#    16  16  16  16  16  16  16
#     4  11  24  41  62  88 112 141 184 240 307 391
#     4  12  26  40  57  86 120 160 217 269 312 366
#     4  10  21  40  65  93 133 178 215 261 326 388
#     4  12  24  42  60  87 125 162 205 261 322 365
#     4  10  21  39  62  83 116 165 213 262 315 364
#     4  11  24  41  63  83 112 151 196 239 297 382
#     4  12  24  40  67 101 133 169 219 270 324 391
#
# _framework density 20.345390999999999
#
# number of rings (size 3 to 8) (size 9 to 14) (size 15 to 20)
#    0.000    0.857    1.429    6.429    0.000    8.286 
#    0.000    0.000    0.000    0.000    0.000    0.000 
#    0.000   20.000    0.000    0.000    0.000    0.000 
#
# Total GULP energy -625429.827821 kJ/mol
# GULP energy per Si atom -5584.194891 kJ/mol
# Density = 2.029908 g / cm^3
# Si number density = 20.345391 Si / 1000 Ang^3
#
#
#
# Elastic Constant Matrix: (Units=GPa)
#
#
# Indices 1 2 3 4 5 6 
#
# 1 91.4675 24.3111 11.3341 0.0000 0.0000 0.0000
# 2 24.3111 91.4675 11.3341 0.0000 0.0000 0.0000
# 3 11.3341 11.3341 94.7946 0.0000 0.0000 0.0000
# 4 0.0000 0.0000 0.0000 22.1384 0.0000 0.0000
# 5 0.0000 0.0000 0.0000 0.0000 22.1384 0.0000
# 6 0.0000 0.0000 0.0000 0.0000 0.0000 12.9389
#
#
#
# Elastic Compliance Matrix: (Units=1/GPa)
#
#
# Indices 1 2 3 4 5 6 
#
# 1 0.011867 -0.003023 -0.001057 0.000000 0.000000 0.000000
# 2 -0.003023 0.011867 -0.001057 0.000000 0.000000 0.000000
# 3 -0.001057 -0.001057 0.010802 0.000000 0.000000 0.000000
# 4 0.000000 0.000000 0.000000 0.045170 0.000000 0.000000
# 5 0.000000 0.000000 0.000000 0.000000 0.045170 0.000000
# 6 0.000000 0.000000 0.000000 0.000000 0.000000 0.077287
#
#
# Mechanical properties :
#
#
# Convention : Reuss Voigt Hill
#
# Bulk Modulus (GPa) = 41.21910 41.29868 41.25889
# Shear Modulus (GPa) = 22.67294 26.82650 24.74972
#
# Velocity S-wave (km/s) = 3.34189 3.63513 3.49159
# Velocity P-wave (km/s) = 5.93250 6.16131 6.04799
#
# Compressibility (1/GPa) = 0.02426060
#
# Stress axis : x y z
#
# Youngs Moduli (GPa) = 84.26444 84.26444 92.57556
#
# Poissons Ratio (x) = 0.25475 0.09789
# Poissons Ratio (y) = 0.25475 0.09789
# Poissons Ratio (z) = 0.08911 0.08911
#
# Static dielectric constant tensor:
#      x y z
#    x 1.768760 0.000000 0.000000 
#    y 0.000000 1.768760 0.000000 
#    z 0.000000 0.000000 1.721430 
# 
# From -- ./inp_files/622.got.cif
#   From: 2010.05.17/outbox.cif.g08.bks.cpg/sg133_1_cif.got.tgz:622.got - 2010.05.20 12:37:36.
