data_PCOD9567390
_publ_section_title
;
Structure prediction by ZEFSAII (Michael W. Deem and Ramdas Pophale) SiO2 
 PCOD9567390
Probable space group: P 42/M C M
;
_chemical_formula_sum "Si O2"
_cell_formula_units_Z 96
_cell_length_a 24.756357
_cell_length_b 24.756357
_cell_length_c 8.536037
_cell_angle_alpha 90.000000
_cell_angle_beta 90.000000
_cell_angle_gamma 90.000000
_cell_volume 5231.542557
_symmetry_space_group_name_H-M "P 42/M C M"
_symmetry_group_IT_number 132
_symmetry_cell_setting 'tetragonal'
loop_
_space_group_symop_operation_xyz
x,y,z
-y,x,1/2+z
-x,-y,z
y,-x,1/2+z
x,-y,1/2-z
-x,y,1/2-z
y,x,-z
-y,-x,-z
-x,-y,-z
y,-x,1/2-z
x,y,-z
-y,x,1/2-z
-x,y,1/2+z
x,-y,1/2+z
-y,-x,z
y,x,z
loop_
_atom_site_type_symbol
_atom_site_label
_atom_site_fract_x
_atom_site_fract_y
_atom_site_fract_z
Si Si1 0.644155 0.148474 0.187538
Si Si2 0.147483 0.233064 0.309200
Si Si3 0.145055 0.059890 0.688604
Si Si4 0.439928 0.352793 0.314148
Si Si5 0.560566 0.940294 0.813062
Si Si6 0.354750 0.268051 0.813312
O O1 0.705881 0.139206 0.243490
O O2 0.602075 0.106085 0.259606
O O3 0.634751 0.210844 0.232636
O O4 0.641902 0.142591 0.000000
O O5 0.149024 0.234015 0.500000
O O6 0.202489 0.202489 0.258147
O O7 0.098036 0.194697 0.261820
O O8 0.145329 0.059069 0.500000
O O9 0.090611 0.090611 0.739858
O O10 0.149177 0.000000 0.750000
O O11 0.500000 0.353169 0.250000
O O12 0.439403 0.341906 0.500000
O O13 0.409580 0.409580 0.287731
O O14 0.403630 0.307981 0.228876
O O15 0.500000 0.929061 0.750000
O O16 0.576188 0.000000 0.750000
O O17 0.558660 0.942478 0.000000
O O18 0.300196 0.300196 0.761065
O O19 0.351405 0.260544 0.000000
#
# Coordination Sequence:
#
# PCOD9567390 Si02
#       6
#    16  16  16  16  16  16
#     4  11  21  35  59  88 113 143 183 222 268 330
#     4   8  16  32  53  77 107 142 178 219 266 316
#     4   9  18  33  51  72 101 137 177 220 265 311
#     4  10  21  37  57  81 110 146 187 230 278 330
#     4  11  23  42  63  84 112 144 180 223 273 325
#     4  10  21  37  56  81 115 150 185 230 280 326
#
# _framework density 18.350228000000001
#
# number of rings (size 3 to 8) (size 9 to 14) (size 15 to 20)
#    0.000    2.167    0.000    5.000    0.000    4.667 
#    0.000    8.333    0.000    2.000    0.000    0.000 
#    0.000    0.000    0.000    0.000    0.000    0.000 
#
# Total GULP energy -535790.221262 kJ/mol
# GULP energy per Si atom -5581.148138 kJ/mol
# Density = 1.830846 g / cm^3
# Si number density = 18.350228 Si / 1000 Ang^3
#
#
#
# Elastic Constant Matrix: (Units=GPa)
#
#
# Indices 1 2 3 4 5 6 
#
# 1 154.8710 70.2492 37.4980 0.0000 0.0000 0.0000
# 2 70.2492 154.8710 37.4980 0.0000 0.0000 0.0000
# 3 37.4980 37.4980 67.5765 0.0000 0.0000 0.0000
# 4 0.0000 0.0000 0.0000 26.3269 0.0000 0.0000
# 5 0.0000 0.0000 0.0000 0.0000 26.3269 0.0000
# 6 0.0000 0.0000 0.0000 0.0000 0.0000 24.0072
#
#
#
# Elastic Compliance Matrix: (Units=1/GPa)
#
#
# Indices 1 2 3 4 5 6 
#
# 1 0.008633 -0.003184 -0.003024 0.000000 0.000000 0.000000
# 2 -0.003184 0.008633 -0.003024 0.000000 0.000000 0.000000
# 3 -0.003024 -0.003024 0.018154 0.000000 0.000000 0.000000
# 4 0.000000 0.000000 0.000000 0.037984 0.000000 0.000000
# 5 0.000000 0.000000 0.000000 0.000000 0.037984 0.000000
# 6 0.000000 0.000000 0.000000 0.000000 0.000000 0.041654
#
#
# Mechanical properties :
#
#
# Convention : Reuss Voigt Hill
#
# Bulk Modulus (GPa) = 58.97167 74.20100 66.58633
# Shear Modulus (GPa) = 28.22332 30.80377 29.51354
#
# Velocity S-wave (km/s) = 3.92604 4.10159 4.01477
# Velocity P-wave (km/s) = 7.26348 7.93439 7.60634
#
# Compressibility (1/GPa) = 0.01695730
#
# Stress axis : x y z
#
# Youngs Moduli (GPa) = 115.82976 115.82976 55.08452
#
# Poissons Ratio (x) = 0.36879 0.16657
# Poissons Ratio (y) = 0.36879 0.16657
# Poissons Ratio (z) = 0.35025 0.35025
#
# Static dielectric constant tensor:
#      x y z
#    x 1.617840 0.000000 0.000000 
#    y 0.000000 1.617840 0.000000 
#    z 0.000000 0.000000 1.631350 
# 
# From -- ./inp_files/1762.got.cif
#   From: 2010.05.17/outbox.cif.g08.bks.cpg/sg132_1_cif.got.tgz:1762.got - 2010.05.20 12:30:18.
