data_PCOD9567420
_publ_section_title
;
Structure prediction by ZEFSAII (Michael W. Deem and Ramdas Pophale) SiO2 
 PCOD9567420
Probable space group: P 42/M C M
;
_chemical_formula_sum "Si O2"
_cell_formula_units_Z 48
_cell_length_a 14.049299
_cell_length_b 14.049299
_cell_length_c 14.272095
_cell_angle_alpha 90.000000
_cell_angle_beta 90.000000
_cell_angle_gamma 90.000000
_cell_volume 2817.066107
_symmetry_space_group_name_H-M "P 42/M C M"
_symmetry_group_IT_number 132
_symmetry_cell_setting 'tetragonal'
loop_
_space_group_symop_operation_xyz
x,y,z
-y,x,1/2+z
-x,-y,z
y,-x,1/2+z
x,-y,1/2-z
-x,y,1/2-z
y,x,-z
-y,-x,-z
-x,-y,-z
y,-x,1/2-z
x,y,-z
-y,x,1/2-z
-x,y,1/2+z
x,-y,1/2+z
-y,-x,z
y,x,z
loop_
_atom_site_type_symbol
_atom_site_label
_atom_site_fract_x
_atom_site_fract_y
_atom_site_fract_z
Si Si1 0.655612 0.816624 0.732033
Si Si2 0.485095 0.114510 0.111769
Si Si3 0.080297 0.919704 0.603546
Si Si4 0.225607 0.000000 0.250000
O O1 0.722758 0.722758 0.733222
O O2 0.604423 0.842850 0.830957
O O3 0.573105 0.824347 0.653681
O O4 0.718161 0.909601 0.713081
O O5 0.500000 0.000000 0.132920
O O6 0.476372 0.123022 0.000000
O O7 0.109715 0.890286 0.500000
O O8 0.037313 0.835802 0.664046
O O9 0.000000 0.000000 0.597705
#
# Coordination Sequence:
#
# PCOD9567420 Si02
#       4
#    16  16   8   8
#     4  11  21  36  60  85 116 152 192 239 291 345
#     4  10  21  39  60  84 116 155 198 242 291 345
#     4  11  22  34  48  70 112 164 201 232 275 331
#     4  12  19  35  52  80 118 150 190 238 280 340
#
# _framework density 17.039005
#
# number of rings (size 3 to 8) (size 9 to 14) (size 15 to 20)
#    0.000    1.167    6.667    1.000    0.000    4.000 
#    0.000    0.000    0.000    8.000    0.000    9.333 
#    0.000    0.000    0.000    0.000    0.000    0.000 
#
# Total GULP energy -267444.427366 kJ/mol
# GULP energy per Si atom -5571.758903 kJ/mol
# Density = 1.700022 g / cm^3
# Si number density = 17.039005 Si / 1000 Ang^3
#
#
#
# Elastic Constant Matrix: (Units=GPa)
#
#
# Indices 1 2 3 4 5 6 
#
# 1 96.0867 56.7795 37.0594 0.0000 0.0000 0.0000
# 2 56.7795 96.0867 37.0595 0.0000 0.0000 0.0000
# 3 37.0594 37.0595 126.1696 0.0000 0.0000 0.0000
# 4 0.0000 0.0000 0.0000 16.5083 0.0000 0.0000
# 5 0.0000 0.0000 0.0000 0.0000 16.5081 0.0000
# 6 0.0000 0.0000 0.0000 0.0000 0.0000 25.4965
#
#
#
# Elastic Compliance Matrix: (Units=1/GPa)
#
#
# Indices 1 2 3 4 5 6 
#
# 1 0.016534 -0.008906 -0.002241 0.000000 0.000000 0.000000
# 2 -0.008906 0.016534 -0.002241 0.000000 0.000000 0.000000
# 3 -0.002241 -0.002241 0.009242 0.000000 0.000000 0.000000
# 4 0.000000 0.000000 0.000000 0.060576 0.000000 0.000000
# 5 0.000000 0.000000 0.000000 0.000000 0.060576 0.000000
# 6 0.000000 0.000000 0.000000 0.000000 0.000000 0.039221
#
#
# Mechanical properties :
#
#
# Convention : Reuss Voigt Hill
#
# Bulk Modulus (GPa) = 64.36710 64.45997 64.41353
# Shear Modulus (GPa) = 21.30947 24.19887 22.75417
#
# Velocity S-wave (km/s) = 3.54026 3.77265 3.65830
# Velocity P-wave (km/s) = 7.38712 7.54255 7.46524
#
# Compressibility (1/GPa) = 0.01553589
#
# Stress axis : x y z
#
# Youngs Moduli (GPa) = 60.48018 60.48021 108.20093
#
# Poissons Ratio (x) = 0.53866 0.24243
# Poissons Ratio (y) = 0.53866 0.24243
# Poissons Ratio (z) = 0.13551 0.13551
#
# Static dielectric constant tensor:
#      x y z
#    x 1.540330 0.000000 0.000000 
#    y 0.000000 1.540330 0.000000 
#    z 0.000000 0.000000 1.602330 
# 
# From -- ./inp_files/4178.got.cif
#   From: 2010.05.17/outbox.cif.g08.bks.cpg/sg132_3_cif.got.tgz:4178.got - 2010.05.20 12:30:18.
