data_PCOD9567709
_publ_section_title
;
Structure prediction by ZEFSAII (Michael W. Deem and Ramdas Pophale) SiO2 
 PCOD9567709
Probable space group: P 42/N B C
;
_chemical_formula_sum "Si O2"
_cell_formula_units_Z 84
_cell_length_a 15.209544
_cell_length_b 15.209544
_cell_length_c 19.630944
_cell_angle_alpha 90.000000
_cell_angle_beta 90.000000
_cell_angle_gamma 90.000000
_cell_volume 4541.230765
_symmetry_space_group_name_H-M "P 42/N B C"
_symmetry_group_IT_number 133
_space_group.IT_coordinate_system_code '2'
_symmetry_cell_setting 'tetragonal'
loop_
_space_group_symop_operation_xyz
x,y,z
1/2-y,x,1/2+z
1/2-x,1/2-y,z
y,1/2-x,1/2+z
x,1/2-y,-z
1/2-x,y,-z
y,x,1/2-z
1/2-y,1/2-x,1/2-z
-x,-y,-z
1/2+y,-x,1/2-z
1/2+x,1/2+y,-z
-y,1/2+x,1/2-z
-x,1/2+y,z
1/2+x,-y,z
-y,-x,1/2+z
1/2+y,1/2+x,1/2+z
loop_
_atom_site_type_symbol
_atom_site_label
_atom_site_fract_x
_atom_site_fract_y
_atom_site_fract_z
Si Si1 0.343212 0.298191 0.367452
Si Si2 0.529341 0.970660 0.750000
Si Si3 0.250000 0.750000 0.000000
Si Si4 0.503371 0.867487 0.165258
Si Si5 0.098914 0.837530 0.414225
Si Si6 0.995930 0.271717 0.279486
Si Si7 0.750000 0.951401 0.000000
O O1 0.250000 0.250000 0.365175
O O2 0.332956 0.400840 0.352238
O O3 0.411514 0.258299 0.312595
O O4 0.390342 0.287031 0.440312
O O5 0.468954 0.006954 0.689332
O O6 0.510715 0.866951 0.755302
O O7 0.299966 0.816006 0.049628
O O8 0.436277 0.874644 0.103750
O O9 0.468485 0.803807 0.226043
O O10 0.070122 0.789796 0.343069
O O11 0.016348 0.821278 0.464675
#
# Coordination Sequence:
#
# PCOD9567709 Si02
#       7
#    16   8   4  16  16  16   8
#     4  11  21  37  61  88 126 164 201 254 307 377
#     4  10  20  36  56  86 126 154 198 242 314 382
#     4  10  20  44  56  80 116 156 206 258 300 366
#     4  11  21  38  60  94 120 160 206 257 324 378
#     4   9  22  39  60  82 117 159 206 255 310 368
#     4  10  20  36  59  88 123 154 196 257 316 368
#     4   9  21  43  57  80 122 168 203 257 301 357
#
# _framework density 18.497187
#
# number of rings (size 3 to 8) (size 9 to 14) (size 15 to 20)
#    0.000    1.905    1.905    1.429    0.000    4.571 
#    6.857    0.000    0.000    0.000    0.000    0.000 
#    0.000    0.000    0.000    0.000    0.000    0.000 
#
# Total GULP energy -468297.676044 kJ/mol
# GULP energy per Si atom -5574.972334 kJ/mol
# Density = 1.845509 g / cm^3
# Si number density = 18.497187 Si / 1000 Ang^3
#
#
#
# Elastic Constant Matrix: (Units=GPa)
#
#
# Indices 1 2 3 4 5 6 
#
# 1 112.1432 58.7982 45.3166 0.0000 0.0000 0.0000
# 2 58.7982 112.1417 45.3157 0.0000 0.0000 0.0000
# 3 45.3166 45.3157 63.2276 0.0000 0.0000 0.0000
# 4 0.0000 0.0000 0.0000 18.4562 0.0000 0.0000
# 5 0.0000 0.0000 0.0000 0.0000 18.4547 0.0000
# 6 0.0000 0.0000 0.0000 0.0000 0.0000 12.1469
#
#
#
# Elastic Compliance Matrix: (Units=1/GPa)
#
#
# Indices 1 2 3 4 5 6 
#
# 1 0.014091 -0.004655 -0.006763 0.000000 0.000000 0.000000
# 2 -0.004655 0.014091 -0.006762 0.000000 0.000000 0.000000
# 3 -0.006763 -0.006762 0.025510 0.000000 0.000000 0.000000
# 4 0.000000 0.000000 0.000000 0.054182 0.000000 0.000000
# 5 0.000000 0.000000 0.000000 0.000000 0.054187 0.000000
# 6 0.000000 0.000000 0.000000 0.000000 0.000000 0.082325
#
#
# Mechanical properties :
#
#
# Convention : Reuss Voigt Hill
#
# Bulk Modulus (GPa) = 57.70247 65.15263 61.42755
# Shear Modulus (GPa) = 17.45059 19.01702 18.23381
#
# Velocity S-wave (km/s) = 3.07484 3.20988 3.14309
# Velocity P-wave (km/s) = 6.62338 7.00266 6.81566
#
# Compressibility (1/GPa) = 0.01733028
#
# Stress axis : x y z
#
# Youngs Moduli (GPa) = 70.96825 70.96815 39.20104
#
# Poissons Ratio (x) = 0.33038 0.26510
# Poissons Ratio (y) = 0.33038 0.26509
# Poissons Ratio (z) = 0.47994 0.47992
#
# Static dielectric constant tensor:
#      x y z
#    x 1.554090 0.000000 0.000000 
#    y 0.000000 1.554140 0.000000 
#    z 0.000000 0.000000 1.362560 
# 
# From -- ./inp_files/6453.got.cif
#   From: 2010.05.17/outbox.cif.g08.bks.cpg/sg133_4_cif.got.tgz:6453.got - 2010.05.20 12:37:36.
