data_PCOD9567522
_publ_section_title
;
Structure prediction by ZEFSAII (Michael W. Deem and Ramdas Pophale) SiO2 
 PCOD9567522
Probable space group: P 42/M C M
;
_chemical_formula_sum "Si O2"
_cell_formula_units_Z 96
_cell_length_a 15.321990
_cell_length_b 15.321990
_cell_length_c 22.103032
_cell_angle_alpha 90.000000
_cell_angle_beta 90.000000
_cell_angle_gamma 90.000000
_cell_volume 5188.982447
_symmetry_space_group_name_H-M "P 42/M C M"
_symmetry_group_IT_number 132
_symmetry_cell_setting 'tetragonal'
loop_
_space_group_symop_operation_xyz
x,y,z
-y,x,1/2+z
-x,-y,z
y,-x,1/2+z
x,-y,1/2-z
-x,y,1/2-z
y,x,-z
-y,-x,-z
-x,-y,-z
y,-x,1/2-z
x,y,-z
-y,x,1/2-z
-x,y,1/2+z
x,-y,1/2+z
-y,-x,z
y,x,z
loop_
_atom_site_type_symbol
_atom_site_label
_atom_site_fract_x
_atom_site_fract_y
_atom_site_fract_z
Si Si1 0.895101 0.604898 0.743013
Si Si2 0.571944 0.428057 0.068088
Si Si3 0.173696 0.326307 0.386623
Si Si4 0.752989 0.995486 0.929127
Si Si5 0.071944 0.071944 0.568089
Si Si6 0.747009 0.495481 0.570873
Si Si7 0.323947 0.823950 0.633646
O O1 0.881105 0.500000 0.750000
O O2 0.856443 0.643556 0.680649
O O3 0.846759 0.653242 0.797556
O O4 0.000000 0.618895 0.750000
O O5 0.500000 0.500000 0.060670
O O6 0.523883 0.346692 0.097838
O O7 0.601463 0.398538 0.000000
O O8 0.250003 0.250003 0.386921
O O9 0.085885 0.297289 0.420382
O O10 0.202710 0.414121 0.420381
O O11 0.846690 0.023884 0.902161
O O12 0.709347 0.913295 0.897169
O O13 0.763042 0.973114 0.000000
O O14 0.101461 0.101461 0.500000
O O15 0.000000 0.000000 0.560671
O O16 0.736956 0.473111 0.500000
O O17 0.790648 0.413289 0.602831
O O18 0.249996 0.750005 0.628011
#
# Coordination Sequence:
#
# PCOD9567522 Si02
#       7
#    16   8  16  16   8  16  16
#     4  11  23  44  68  88 117 165 216 263 317 366
#     4   9  18  35  57  85 125 168 205 241 295 372
#     4  12  23  41  67  93 126 163 210 265 311 367
#     4  11  23  38  62  95 129 166 205 253 316 379
#     4   9  18  35  57  85 125 168 205 241 295 372
#     4  11  23  38  62  95 129 166 205 253 316 379
#     4  12  25  43  65  91 128 168 212 262 312 373
#
# _framework density 18.500737000000001
#
# number of rings (size 3 to 8) (size 9 to 14) (size 15 to 20)
#    0.000    1.000    5.000    2.500    0.000    4.000 
#    0.000    1.667    0.000    0.000    0.000    2.333 
#    0.000    0.000    0.000    0.000    0.000    0.000 
#
# Total GULP energy -535189.830065 kJ/mol
# GULP energy per Si atom -5574.894063 kJ/mol
# Density = 1.845863 g / cm^3
# Si number density = 18.500737 Si / 1000 Ang^3
#
#
#
# Elastic Constant Matrix: (Units=GPa)
#
#
# Indices 1 2 3 4 5 6 
#
# 1 130.8544 46.9065 -2.9930 0.0000 0.0000 0.0000
# 2 46.9065 130.8543 -2.9933 0.0000 0.0000 0.0000
# 3 -2.9930 -2.9933 40.8035 0.0000 0.0000 0.0000
# 4 0.0000 0.0000 0.0000 -62.5461 0.0000 0.0000
# 5 0.0000 0.0000 0.0000 0.0000 -62.5542 0.0000
# 6 0.0000 0.0000 0.0000 0.0000 0.0000 40.6597
#
#
#
# Elastic Compliance Matrix: (Units=1/GPa)
#
#
# Indices 1 2 3 4 5 6 
#
# 1 0.008776 -0.003136 0.000414 0.000000 0.000000 0.000000
# 2 -0.003136 0.008776 0.000414 0.000000 0.000000 0.000000
# 3 0.000414 0.000414 0.024568 0.000000 0.000000 0.000000
# 4 0.000000 0.000000 0.000000 -0.015988 0.000000 0.000000
# 5 0.000000 0.000000 0.000000 0.000000 -0.015986 0.000000
# 6 0.000000 0.000000 0.000000 0.000000 0.000000 0.024594
#
#
# Mechanical properties :
#
#
# Convention : Reuss Voigt Hill
#
# Bulk Modulus (GPa) = 26.66518 42.70584 34.68551
# Shear Modulus (GPa) = 96.41587 0.55136 48.48361
#
# Velocity S-wave (km/s) = 7.22688 0.54650 5.12476
# Velocity P-wave (km/s) = 9.16959 4.85094 7.33529
#
# Compressibility (1/GPa) = 0.03750209
#
# Stress axis : x y z
#
# Youngs Moduli (GPa) = 113.94970 113.94953 40.70266
#
# Poissons Ratio (x) = 0.35738 -0.01684
# Poissons Ratio (y) = 0.35739 -0.01684
# Poissons Ratio (z) = -0.04713 -0.04714
#
# Static dielectric constant tensor:
#      x y z
#    x 1.786490 0.000000 0.000000 
#    y 0.000000 1.786490 0.000000 
#    z 0.000000 0.000000 1.625560 
# 
# From -- ./inp_files/7951.got.cif
#   From: 2010.05.17/outbox.cif.g08.bks.cpg/sg132_4_cif.got.tgz:7951.got - 2010.05.20 12:30:18.
