data_PCOD9567321
_publ_section_title
;
Structure prediction by ZEFSAII (Michael W. Deem and Ramdas Pophale) SiO2 
 PCOD9567321
Probable space group: P 42/M C M
;
_chemical_formula_sum "Si O2"
_cell_formula_units_Z 84
_cell_length_a 15.892757
_cell_length_b 15.892757
_cell_length_c 19.990112
_cell_angle_alpha 90.000000
_cell_angle_beta 90.000000
_cell_angle_gamma 90.000000
_cell_volume 5049.096993
_symmetry_space_group_name_H-M "P 42/M C M"
_symmetry_group_IT_number 132
_symmetry_cell_setting 'tetragonal'
loop_
_space_group_symop_operation_xyz
x,y,z
-y,x,1/2+z
-x,-y,z
y,-x,1/2+z
x,-y,1/2-z
-x,y,1/2-z
y,x,-z
-y,-x,-z
-x,-y,-z
y,-x,1/2-z
x,y,-z
-y,x,1/2-z
-x,y,1/2+z
x,-y,1/2+z
-y,-x,z
y,x,z
loop_
_atom_site_type_symbol
_atom_site_label
_atom_site_fract_x
_atom_site_fract_y
_atom_site_fract_z
Si Si1 0.914008 0.618951 0.869151
Si Si2 0.431650 0.568351 0.849037
Si Si3 0.705012 0.500000 0.250000
Si Si4 0.393108 0.393108 0.500000
Si Si5 0.193810 0.335771 0.753235
Si Si6 0.799116 0.652331 0.000000
Si Si7 0.459493 0.211627 0.500000
Si Si8 0.895577 0.421725 0.130205
O O1 0.880238 0.673771 0.807392
O O2 0.904144 0.519911 0.847733
O O3 0.013643 0.620148 0.882641
O O4 0.859142 0.647454 0.933815
O O5 0.500000 0.500000 0.830387
O O6 0.462806 0.652201 0.812062
O O7 0.426499 0.573502 0.928842
O O8 0.754267 0.581361 0.223645
O O9 0.408169 0.295326 0.500000
O O10 0.257157 0.257157 0.748940
O O11 0.153916 0.365604 0.683501
O O12 0.728298 0.728298 0.000000
O O13 0.760750 0.557843 0.000000
O O14 0.434907 0.156529 0.563276
#
# Coordination Sequence:
#
# PCOD9567321 Si02
#       8
#    16   8   8   4  16   8   8  16
#     4  10  20  36  57  79 103 144 185 226 279 336
#     4  12  23  40  50  70  98 160 206 241 263 306
#     4  12  21  36  53  70 108 150 194 228 279 311
#     4  12  27  36  56  78 116 146 199 240 274 314
#     4  12  22  33  53  81 110 142 181 229 272 324
#     4  10  21  37  55  79 112 142 182 231 281 327
#     4  10  23  38  53  78 110 152 186 229 280 323
#     4  10  20  37  57  76 106 143 187 227 278 334
#
# _framework density 16.636638000000001
#
# number of rings (size 3 to 8) (size 9 to 14) (size 15 to 20)
#    0.000    1.143    3.810    3.000    4.000    4.571 
#    0.000    0.000    0.000    0.000    0.000    0.000 
#    0.000   13.714    0.000    0.000    0.000    0.000 
#
# Total GULP energy -468127.723526 kJ/mol
# GULP energy per Si atom -5572.949090 kJ/mol
# Density = 1.659877 g / cm^3
# Si number density = 16.636638 Si / 1000 Ang^3
#
#
#
# Elastic Constant Matrix: (Units=GPa)
#
#
# Indices 1 2 3 4 5 6 
#
# 1 89.0971 61.5359 32.0822 0.0000 0.0000 0.0000
# 2 61.5359 89.0971 32.0822 0.0000 0.0000 0.0000
# 3 32.0822 32.0822 89.0368 0.0000 0.0000 0.0000
# 4 0.0000 0.0000 0.0000 7.9705 0.0000 0.0000
# 5 0.0000 0.0000 0.0000 0.0000 7.9705 0.0000
# 6 0.0000 0.0000 0.0000 0.0000 0.0000 23.7896
#
#
#
# Elastic Compliance Matrix: (Units=1/GPa)
#
#
# Indices 1 2 3 4 5 6 
#
# 1 0.022063 -0.014220 -0.002826 0.000000 0.000000 0.000000
# 2 -0.014220 0.022063 -0.002826 0.000000 0.000000 0.000000
# 3 -0.002826 -0.002826 0.013268 0.000000 0.000000 0.000000
# 4 0.000000 0.000000 0.000000 0.125462 0.000000 0.000000
# 5 0.000000 0.000000 0.000000 0.000000 0.125462 0.000000
# 6 0.000000 0.000000 0.000000 0.000000 0.000000 0.042035
#
#
# Mechanical properties :
#
#
# Convention : Reuss Voigt Hill
#
# Bulk Modulus (GPa) = 56.65968 57.62571 57.14269
# Shear Modulus (GPa) = 12.62694 17.38151 15.00423
#
# Velocity S-wave (km/s) = 2.75795 3.23580 3.00639
# Velocity P-wave (km/s) = 6.65379 6.97665 6.81713
#
# Compressibility (1/GPa) = 0.01764924
#
# Stress axis : x y z
#
# Youngs Moduli (GPa) = 45.32554 45.32554 75.37089
#
# Poissons Ratio (x) = 0.64454 0.21298
# Poissons Ratio (y) = 0.64454 0.21298
# Poissons Ratio (z) = 0.12808 0.12808
#
# Static dielectric constant tensor:
#      x y z
#    x 1.530840 0.000000 0.000000 
#    y 0.000000 1.530840 0.000000 
#    z 0.000000 0.000000 1.502280 
# 
# From -- ./inp_files/7851.got.cif
#   From: 2010.05.17/outbox.cif.g08.bks.cpg/sg132_4_cif.got.tgz:7851.got - 2010.05.20 12:30:18.
