data_PCOD9567313
_publ_section_title
;
Structure prediction by ZEFSAII (Michael W. Deem and Ramdas Pophale) SiO2 
 PCOD9567313
Probable space group: P 42/M C M
;
_chemical_formula_sum "Si O2"
_cell_formula_units_Z 34
_cell_length_a 10.627444
_cell_length_b 10.627444
_cell_length_c 14.174932
_cell_angle_alpha 90.000000
_cell_angle_beta 90.000000
_cell_angle_gamma 90.000000
_cell_volume 1600.953193
_symmetry_space_group_name_H-M "P 42/M C M"
_symmetry_group_IT_number 132
_symmetry_cell_setting 'tetragonal'
loop_
_space_group_symop_operation_xyz
x,y,z
-y,x,1/2+z
-x,-y,z
y,-x,1/2+z
x,-y,1/2-z
-x,y,1/2-z
y,x,-z
-y,-x,-z
-x,-y,-z
y,-x,1/2-z
x,y,-z
-y,x,1/2-z
-x,y,1/2+z
x,-y,1/2+z
-y,-x,z
y,x,z
loop_
_atom_site_type_symbol
_atom_site_label
_atom_site_fract_x
_atom_site_fract_y
_atom_site_fract_z
Si Si1 0.473239 0.861370 0.638712
Si Si2 0.803192 0.196809 0.313623
Si Si3 0.000000 0.000000 0.250000
Si Si4 0.719964 0.280037 0.897989
O O1 0.500000 0.865124 0.750000
O O2 0.325203 0.840510 0.634822
O O3 0.572007 0.756745 0.603685
O O4 0.500000 0.000000 0.600554
O O5 0.775565 0.224436 0.200661
O O6 0.909489 0.090512 0.311201
O O7 0.768949 0.231052 0.000000
#
# Coordination Sequence:
#
# PCOD9567313 Si02
#       4
#    16   8   2   8
#     4   9  18  34  54  79 111 151 195 235 280 341
#     4  10  20  35  59  85 111 146 193 242 286 346
#     4  12  20  36  66  88 108 148 204 246 284 352
#     4  10  20  35  57  84 117 154 189 237 301 353
#
# _framework density 21.237348999999998
#
# number of rings (size 3 to 8) (size 9 to 14) (size 15 to 20)
#    0.000    2.353    0.000    5.647    0.000    1.882 
#    0.000    7.647    0.000    2.824    0.000    0.000 
#    0.000    0.000    0.000    0.000    0.000    0.000 
#
# Total GULP energy -189330.114984 kJ/mol
# GULP energy per Si atom -5568.532794 kJ/mol
# Density = 2.118901 g / cm^3
# Si number density = 21.237349 Si / 1000 Ang^3
#
#
#
# Elastic Constant Matrix: (Units=GPa)
#
#
# Indices 1 2 3 4 5 6 
#
# 1 184.7707 135.0062 14.5770 0.0000 0.0000 0.0000
# 2 135.0062 184.7712 14.5773 0.0000 0.0000 0.0000
# 3 14.5770 14.5773 105.7889 0.0000 0.0000 0.0000
# 4 0.0000 0.0000 0.0000 6.6180 0.0000 0.0000
# 5 0.0000 0.0000 0.0000 0.0000 6.6180 0.0000
# 6 0.0000 0.0000 0.0000 0.0000 0.0000 47.7173
#
#
#
# Elastic Compliance Matrix: (Units=1/GPa)
#
#
# Indices 1 2 3 4 5 6 
#
# 1 0.011631 -0.008464 -0.000436 0.000000 0.000000 0.000000
# 2 -0.008464 0.011631 -0.000436 0.000000 0.000000 0.000000
# 3 -0.000436 -0.000436 0.009573 0.000000 0.000000 0.000000
# 4 0.000000 0.000000 0.000000 0.151102 0.000000 0.000000
# 5 0.000000 0.000000 0.000000 0.000000 0.151103 0.000000
# 6 0.000000 0.000000 0.000000 0.000000 0.000000 0.020957
#
#
# Mechanical properties :
#
#
# Convention : Reuss Voigt Hill
#
# Bulk Modulus (GPa) = 70.61441 89.29465 79.95453
# Shear Modulus (GPa) = 13.17905 32.93535 23.05720
#
# Velocity S-wave (km/s) = 2.49381 3.94232 3.29856
# Velocity P-wave (km/s) = 6.45092 7.92842 7.22752
#
# Compressibility (1/GPa) = 0.01416142
#
# Stress axis : x y z
#
# Youngs Moduli (GPa) = 85.97892 85.97911 104.45989
#
# Poissons Ratio (x) = 0.72771 0.04558
# Poissons Ratio (y) = 0.72771 0.04559
# Poissons Ratio (z) = 0.03752 0.03752
#
# Static dielectric constant tensor:
#      x y z
#    x 1.788820 0.000000 0.000000 
#    y 0.000000 1.788820 0.000000 
#    z 0.000000 0.000000 1.774370 
# 
# From -- ./inp_files/5413.got.cif
#   From: 2010.05.17/outbox.cif.g08.bks.cpg/sg132_3_cif.got.tgz:5413.got - 2010.05.20 12:30:18.
