data_PCOD9567249
_publ_section_title
;
Structure prediction by ZEFSAII (Michael W. Deem and Ramdas Pophale) SiO2 
 PCOD9567249
Probable space group: P 42/M C M
;
_chemical_formula_sum "Si O2"
_cell_formula_units_Z 128
_cell_length_a 21.115432
_cell_length_b 21.115432
_cell_length_c 17.582189
_cell_angle_alpha 90.000000
_cell_angle_beta 90.000000
_cell_angle_gamma 90.000000
_cell_volume 7839.220608
_symmetry_space_group_name_H-M "P 42/M C M"
_symmetry_group_IT_number 132
_symmetry_cell_setting 'tetragonal'
loop_
_space_group_symop_operation_xyz
x,y,z
-y,x,1/2+z
-x,-y,z
y,-x,1/2+z
x,-y,1/2-z
-x,y,1/2-z
y,x,-z
-y,-x,-z
-x,-y,-z
y,-x,1/2-z
x,y,-z
-y,x,1/2-z
-x,y,1/2+z
x,-y,1/2+z
-y,-x,z
y,x,z
loop_
_atom_site_type_symbol
_atom_site_label
_atom_site_fract_x
_atom_site_fract_y
_atom_site_fract_z
Si Si1 0.689183 0.207424 0.409715
Si Si2 0.998465 0.391446 0.911993
Si Si3 0.776661 0.880410 0.803244
Si Si4 0.571180 0.135436 0.346768
Si Si5 0.015394 0.759780 0.582498
Si Si6 0.223442 0.324080 0.412797
Si Si7 0.423992 0.863503 0.165961
Si Si8 0.776717 0.879138 0.370265
O O1 0.696312 0.194000 0.500000
O O2 0.722942 0.277059 0.397859
O O3 0.729419 0.160427 0.355953
O O4 0.617562 0.187134 0.386390
O O5 0.932896 0.406898 0.868682
O O6 0.063890 0.419091 0.878556
O O7 0.009379 0.315998 0.910416
O O8 0.991377 0.411294 0.000000
O O9 0.840869 0.840869 0.800159
O O10 0.785012 0.945280 0.847147
O O11 0.753371 0.888479 0.716922
O O12 0.584839 0.133489 0.256640
O O13 0.496980 0.150147 0.354317
O O14 0.044322 0.774585 0.500000
O O15 0.944587 0.783998 0.588127
O O16 0.235575 0.342514 0.500000
O O17 0.285200 0.285200 0.383414
O O18 0.193645 0.381359 0.366068
O O19 0.166623 0.273058 0.410736
O O20 0.841914 0.841914 0.367561
#
# Coordination Sequence:
#
# PCOD9567249 Si02
#       8
#    16  16  16  16  16  16  16  16
#     4  10  20  34  52  74  99 128 165 207 248 291
#     4  11  22  34  49  72 100 137 175 208 247 290
#     4  10  20  33  51  73  95 123 159 202 252 299
#     4  11  23  36  51  73 102 137 174 209 247 293
#     4  11  21  32  50  74  98 126 162 203 249 297
#     4  10  20  34  52  74  99 128 165 207 248 291
#     4  11  23  36  51  73 102 137 174 209 247 293
#     4  10  20  33  51  73  95 123 159 202 252 299
#
# _framework density 16.328153
#
# number of rings (size 3 to 8) (size 9 to 14) (size 15 to 20)
#    0.000    1.500    2.500    3.375    0.000    7.500 
#    0.000    0.000    0.000    0.375    0.000    2.625 
#    0.000    0.500    0.000    5.500    0.000    4.000 
#
# Total GULP energy -713765.661088 kJ/mol
# GULP energy per Si atom -5576.294227 kJ/mol
# Density = 1.629099 g / cm^3
# Si number density = 16.328153 Si / 1000 Ang^3
#
#
#
# Elastic Constant Matrix: (Units=GPa)
#
#
# Indices 1 2 3 4 5 6 
#
# 1 68.9588 33.5432 33.1055 0.0000 0.0000 0.0000
# 2 33.5432 68.9588 33.1055 0.0000 0.0000 0.0000
# 3 33.1055 33.1055 93.3153 0.0000 0.0000 0.0000
# 4 0.0000 0.0000 0.0000 6.0197 0.0000 0.0000
# 5 0.0000 0.0000 0.0000 0.0000 6.0197 0.0000
# 6 0.0000 0.0000 0.0000 0.0000 0.0000 8.5322
#
#
#
# Elastic Compliance Matrix: (Units=1/GPa)
#
#
# Indices 1 2 3 4 5 6 
#
# 1 0.020446 -0.007790 -0.004490 0.000000 0.000000 0.000000
# 2 -0.007790 0.020446 -0.004490 0.000000 0.000000 0.000000
# 3 -0.004490 -0.004490 0.013902 0.000000 0.000000 0.000000
# 4 0.000000 0.000000 0.000000 0.166120 0.000000 0.000000
# 5 0.000000 0.000000 0.000000 0.000000 0.166120 0.000000
# 6 0.000000 0.000000 0.000000 0.000000 0.000000 0.117203
#
#
# Mechanical properties :
#
#
# Convention : Reuss Voigt Hill
#
# Bulk Modulus (GPa) = 47.04888 47.86015 47.45452
# Shear Modulus (GPa) = 9.17663 12.87960 11.02811
#
# Velocity S-wave (km/s) = 2.37325 2.81160 2.60167
# Velocity P-wave (km/s) = 6.03216 6.31785 6.17665
#
# Compressibility (1/GPa) = 0.02125449
#
# Stress axis : x y z
#
# Youngs Moduli (GPa) = 48.90890 48.90890 71.93088
#
# Poissons Ratio (x) = 0.38100 0.32297
# Poissons Ratio (y) = 0.38100 0.32297
# Poissons Ratio (z) = 0.21960 0.21960
#
# Static dielectric constant tensor:
#      x y z
#    x 1.554840 0.000000 0.000000 
#    y 0.000000 1.554840 0.000000 
#    z 0.000000 0.000000 1.584860 
# 
# From -- ./inp_files/6846.got.cif
#   From: 2010.05.17/outbox.cif.g08.bks.cpg/sg132_4_cif.got.tgz:6846.got - 2010.05.20 12:30:18.
