data_PCOD9567561
_publ_section_title
;
Structure prediction by ZEFSAII (Michael W. Deem and Ramdas Pophale) SiO2 
 PCOD9567561
Probable space group: P 42/N B C
;
_chemical_formula_sum "Si O2"
_cell_formula_units_Z 92
_cell_length_a 26.042544
_cell_length_b 26.042544
_cell_length_c 9.214830
_cell_angle_alpha 90.000000
_cell_angle_beta 90.000000
_cell_angle_gamma 90.000000
_cell_volume 6249.627617
_symmetry_space_group_name_H-M "P 42/N B C"
_symmetry_group_IT_number 133
_space_group.IT_coordinate_system_code '2'
_symmetry_cell_setting 'tetragonal'
loop_
_space_group_symop_operation_xyz
x,y,z
1/2-y,x,1/2+z
1/2-x,1/2-y,z
y,1/2-x,1/2+z
x,1/2-y,-z
1/2-x,y,-z
y,x,1/2-z
1/2-y,1/2-x,1/2-z
-x,-y,-z
1/2+y,-x,1/2-z
1/2+x,1/2+y,-z
-y,1/2+x,1/2-z
-x,1/2+y,z
1/2+x,-y,z
-y,-x,1/2+z
1/2+y,1/2+x,1/2+z
loop_
_atom_site_type_symbol
_atom_site_label
_atom_site_fract_x
_atom_site_fract_y
_atom_site_fract_z
Si Si1 0.428372 0.340605 0.253840
Si Si2 0.250000 0.250000 0.750000
Si Si3 0.895530 0.545128 0.517886
Si Si4 0.522291 0.434166 0.747384
Si Si5 0.497337 0.408963 0.427941
Si Si6 0.128233 0.128233 0.750000
Si Si7 0.367774 0.244292 0.168953
O O1 0.383207 0.383207 0.250000
O O2 0.468527 0.357316 0.377156
O O3 0.398921 0.287118 0.257631
O O4 0.455779 0.350809 0.099536
O O5 0.249405 0.305700 0.672497
O O6 0.894894 0.498930 0.631517
O O7 0.950814 0.548796 0.437971
O O8 0.893061 0.597920 0.610989
O O9 0.477427 0.477427 0.750000
O O10 0.522669 0.410610 0.587010
O O11 0.572558 0.462033 0.808159
O O12 0.189084 0.120237 0.738078
O O13 0.382712 0.250000 0.000000
#
# Coordination Sequence:
#
# PCOD9567561 Si02
#       7
#    16   4  16  16  16   8  16
#     4  10  19  32  45  61  81 104 132 178 223 276
#     4  10  22  36  44  64  68  96 138 206 242 292
#     4  10  17  30  44  61  87 104 132 168 212 263
#     4  10  16  26  44  66  87 108 122 150 200 277
#     4  10  18  27  44  67  87 105 127 152 208 279
#     4  11  20  31  46  59  78 112 146 187 224 273
#     4  11  21  33  48  58  78 105 145 187 244 277
#
# _framework density 14.720878000000001
#
# number of rings (size 3 to 8) (size 9 to 14) (size 15 to 20)
#    0.000    1.739    5.217    4.957    0.000    0.000 
#    0.000    3.478    0.000    0.000    0.000    0.000 
#    0.000    0.000    0.000    0.000    0.000    0.000 
#
# Total GULP energy -512336.838561 kJ/mol
# GULP energy per Si atom -5568.878680 kJ/mol
# Density = 1.468737 g / cm^3
# Si number density = 14.720878 Si / 1000 Ang^3
#
#
#
# Elastic Constant Matrix: (Units=GPa)
#
#
# Indices 1 2 3 4 5 6 
#
# 1 51.9556 42.1679 31.9989 0.0000 0.0000 0.0000
# 2 42.1679 51.9556 31.9989 0.0000 0.0000 0.0000
# 3 31.9989 31.9989 79.4566 0.0000 0.0000 0.0000
# 4 0.0000 0.0000 0.0000 13.3984 0.0000 0.0000
# 5 0.0000 0.0000 0.0000 0.0000 13.3984 0.0000
# 6 0.0000 0.0000 0.0000 0.0000 0.0000 28.1541
#
#
#
# Elastic Compliance Matrix: (Units=1/GPa)
#
#
# Indices 1 2 3 4 5 6 
#
# 1 0.058399 -0.043769 -0.005892 0.000000 0.000000 0.000000
# 2 -0.043769 0.058399 -0.005892 0.000000 0.000000 0.000000
# 3 -0.005892 -0.005892 0.017331 0.000000 0.000000 0.000000
# 4 0.000000 0.000000 0.000000 0.074636 0.000000 0.000000
# 5 0.000000 0.000000 0.000000 0.000000 0.074636 0.000000
# 6 0.000000 0.000000 0.000000 0.000000 0.000000 0.035519
#
#
# Mechanical properties :
#
#
# Convention : Reuss Voigt Hill
#
# Bulk Modulus (GPa) = 43.43271 43.96658 43.69965
# Shear Modulus (GPa) = 11.42332 16.13699 13.78015
#
# Velocity S-wave (km/s) = 2.78869 3.31448 3.06289
# Velocity P-wave (km/s) = 6.31959 6.67678 6.50064
#
# Compressibility (1/GPa) = 0.02302412
#
# Stress axis : x y z
#
# Youngs Moduli (GPa) = 17.12345 17.12345 57.69949
#
# Poissons Ratio (x) = 0.74948 0.33997
# Poissons Ratio (y) = 0.74948 0.33997
# Poissons Ratio (z) = 0.10089 0.10089
#
# Static dielectric constant tensor:
#      x y z
#    x 1.501540 0.000000 0.000000 
#    y 0.000000 1.501540 0.000000 
#    z 0.000000 0.000000 1.574770 
# 
# From -- ./inp_files/2044.got.cif
#   From: 2010.05.17/outbox.cif.g08.bks.cpg/sg133_2_cif.got.tgz:2044.got - 2010.05.20 12:37:36.
