data_PCOD9567729
_publ_section_title
;
Structure prediction by ZEFSAII (Michael W. Deem and Ramdas Pophale) SiO2 
 PCOD9567729
Probable space group: P 42/N B C
;
_chemical_formula_sum "Si O2"
_cell_formula_units_Z 96
_cell_length_a 25.069404
_cell_length_b 25.069404
_cell_length_c 8.869878
_cell_angle_alpha 90.000000
_cell_angle_beta 90.000000
_cell_angle_gamma 90.000000
_cell_volume 5574.496726
_symmetry_space_group_name_H-M "P 42/N B C"
_symmetry_group_IT_number 133
_space_group.IT_coordinate_system_code '2'
_symmetry_cell_setting 'tetragonal'
loop_
_space_group_symop_operation_xyz
x,y,z
1/2-y,x,1/2+z
1/2-x,1/2-y,z
y,1/2-x,1/2+z
x,1/2-y,-z
1/2-x,y,-z
y,x,1/2-z
1/2-y,1/2-x,1/2-z
-x,-y,-z
1/2+y,-x,1/2-z
1/2+x,1/2+y,-z
-y,1/2+x,1/2-z
-x,1/2+y,z
1/2+x,-y,z
-y,-x,1/2+z
1/2+y,1/2+x,1/2+z
loop_
_atom_site_type_symbol
_atom_site_label
_atom_site_fract_x
_atom_site_fract_y
_atom_site_fract_z
Si Si1 0.614809 0.220496 0.141175
Si Si2 0.138983 0.795225 0.624028
Si Si3 0.802893 0.007715 0.198243
Si Si4 0.986967 0.315788 0.650097
Si Si5 0.925819 0.009354 0.679667
Si Si6 0.086644 0.004631 0.676870
O O1 0.652489 0.172624 0.094130
O O2 0.651419 0.265367 0.219417
O O3 0.570619 0.199971 0.258182
O O4 0.587703 0.250000 0.000000
O O5 0.146801 0.750000 0.500000
O O6 0.077007 0.809998 0.639844
O O7 0.740807 0.991016 0.212865
O O8 0.850566 0.986022 0.300123
O O9 0.819530 0.996938 0.025420
O O10 0.998358 0.367303 0.749965
O O11 0.964913 0.964913 0.750000
O O12 0.952157 0.065376 0.733279
O O13 0.925533 0.004133 0.499319
O O14 0.052604 0.052604 0.750000
#
# Coordination Sequence:
#
# PCOD9567729 Si02
#       6
#    16  16  16  16  16  16
#     4  11  23  31  51  66  93 128 180 226 273 324
#     4  11  21  37  45  66  93 133 173 227 277 314
#     4  10  21  37  53  75 104 137 176 221 270 325
#     4  10  20  38  55  72 105 139 174 220 273 325
#     4  11  22  36  58  81 109 141 180 224 278 332
#     4  11  22  36  57  82 110 140 179 226 275 333
#
# _framework density 17.221285000000002
#
# number of rings (size 3 to 8) (size 9 to 14) (size 15 to 20)
#    0.000    1.333    3.333    6.000    4.667    2.000 
#    0.000    0.000    0.000    0.000    0.000    0.000 
#    0.000    0.667    0.000    7.000    0.000    3.000 
#
# Total GULP energy -535472.462562 kJ/mol
# GULP energy per Si atom -5577.838152 kJ/mol
# Density = 1.718209 g / cm^3
# Si number density = 17.221285 Si / 1000 Ang^3
#
#
#
# Elastic Constant Matrix: (Units=GPa)
#
#
# Indices 1 2 3 4 5 6 
#
# 1 57.1913 2.6576 19.1078 0.0000 0.0000 0.0000
# 2 2.6576 57.1913 19.1078 0.0000 0.0000 0.0000
# 3 19.1078 19.1078 98.8494 0.0000 0.0000 0.0000
# 4 0.0000 0.0000 0.0000 24.8509 0.0000 0.0000
# 5 0.0000 0.0000 0.0000 0.0000 24.8509 0.0000
# 6 0.0000 0.0000 0.0000 0.0000 0.0000 18.1872
#
#
#
# Elastic Compliance Matrix: (Units=1/GPa)
#
#
# Indices 1 2 3 4 5 6 
#
# 1 0.018699 0.000362 -0.003685 0.000000 0.000000 0.000000
# 2 0.000362 0.018699 -0.003685 0.000000 0.000000 0.000000
# 3 -0.003685 -0.003685 0.011541 0.000000 0.000000 0.000000
# 4 0.000000 0.000000 0.000000 0.040240 0.000000 0.000000
# 5 0.000000 0.000000 0.000000 0.000000 0.040240 0.000000
# 6 0.000000 0.000000 0.000000 0.000000 0.000000 0.054984
#
#
# Mechanical properties :
#
#
# Convention : Reuss Voigt Hill
#
# Bulk Modulus (GPa) = 28.63245 32.77539 30.70392
# Shear Modulus (GPa) = 23.80275 25.06836 24.43556
#
# Velocity S-wave (km/s) = 3.72179 3.81945 3.77094
# Velocity P-wave (km/s) = 5.92716 6.20678 6.06858
#
# Compressibility (1/GPa) = 0.03492541
#
# Stress axis : x y z
#
# Youngs Moduli (GPa) = 53.47761 53.47761 86.64836
#
# Poissons Ratio (x) = -0.01937 0.31927
# Poissons Ratio (y) = -0.01937 0.31927
# Poissons Ratio (z) = 0.19705 0.19705
#
# Static dielectric constant tensor:
#      x y z
#    x 1.600970 0.000000 0.000000 
#    y 0.000000 1.600970 0.000000 
#    z 0.000000 0.000000 1.703100 
# 
# From -- ./inp_files/2031.got.cif
#   From: 2010.05.17/outbox.cif.g08.bks.cpg/sg133_2_cif.got.tgz:2031.got - 2010.05.20 12:37:36.
