data_PCOD9567804
_publ_section_title
;
Structure prediction by ZEFSAII (Michael W. Deem and Ramdas Pophale) SiO2 
 PCOD9567804
Probable space group: P 42/N B C
;
_chemical_formula_sum "Si O2"
_cell_formula_units_Z 48
_cell_length_a 16.424417
_cell_length_b 16.424417
_cell_length_c 8.352893
_cell_angle_alpha 90.000000
_cell_angle_beta 90.000000
_cell_angle_gamma 90.000000
_cell_volume 2253.288726
_symmetry_space_group_name_H-M "P 42/N B C"
_symmetry_group_IT_number 133
_space_group.IT_coordinate_system_code '2'
_symmetry_cell_setting 'tetragonal'
loop_
_space_group_symop_operation_xyz
x,y,z
1/2-y,x,1/2+z
1/2-x,1/2-y,z
y,1/2-x,1/2+z
x,1/2-y,-z
1/2-x,y,-z
y,x,1/2-z
1/2-y,1/2-x,1/2-z
-x,-y,-z
1/2+y,-x,1/2-z
1/2+x,1/2+y,-z
-y,1/2+x,1/2-z
-x,1/2+y,z
1/2+x,-y,z
-y,-x,1/2+z
1/2+y,1/2+x,1/2+z
loop_
_atom_site_type_symbol
_atom_site_label
_atom_site_fract_x
_atom_site_fract_y
_atom_site_fract_z
Si Si1 0.335894 0.952737 0.935268
Si Si2 0.138359 0.160374 0.441643
Si Si3 0.835232 0.026243 0.554481
O O1 0.416696 0.905210 0.984708
O O2 0.337114 0.965071 0.745141
O O3 0.339423 0.044696 0.997620
O O4 0.250000 0.916712 0.000000
O O5 0.167705 0.250000 0.500000
O O6 0.155076 0.155076 0.250000
O O7 0.163876 0.069075 0.497616
O O8 0.750000 0.062394 0.500000
#
# Coordination Sequence:
#
# PCOD9567804 Si02
#       3
#    16  16  16
#     4  10  21  40  62  90 123 160 207 255 307 371
#     4   9  20  40  64  91 124 162 207 255 309 371
#     4  11  22  38  62  91 124 164 204 255 313 368
#
# _framework density 21.302197
#
# number of rings (size 3 to 8) (size 9 to 14) (size 15 to 20)
#    0.000    2.000    0.000    3.000    0.000    1.333 
#    0.000   33.333    0.000    0.000    0.000    0.000 
#    0.000    0.000    0.000    0.000    0.000    0.000 
#
# Total GULP energy -267278.846690 kJ/mol
# GULP energy per Si atom -5568.309306 kJ/mol
# Density = 2.125371 g / cm^3
# Si number density = 21.302197 Si / 1000 Ang^3
#
#
#
# Elastic Constant Matrix: (Units=GPa)
#
#
# Indices 1 2 3 4 5 6 
#
# 1 153.1269 85.6544 26.1100 0.0000 0.0000 0.0000
# 2 85.6544 153.1269 26.1100 0.0000 0.0000 0.0000
# 3 26.1100 26.1100 27.1104 0.0000 0.0000 0.0000
# 4 0.0000 0.0000 0.0000 30.0201 0.0000 0.0000
# 5 0.0000 0.0000 0.0000 0.0000 30.0201 0.0000
# 6 0.0000 0.0000 0.0000 0.0000 0.0000 173.8768
#
#
#
# Elastic Compliance Matrix: (Units=1/GPa)
#
#
# Indices 1 2 3 4 5 6 
#
# 1 0.010063 -0.004758 -0.005110 0.000000 0.000000 0.000000
# 2 -0.004758 0.010063 -0.005110 0.000000 0.000000 0.000000
# 3 -0.005110 -0.005110 0.046728 0.000000 0.000000 0.000000
# 4 0.000000 0.000000 0.000000 0.033311 0.000000 0.000000
# 5 0.000000 0.000000 0.000000 0.000000 0.033311 0.000000
# 6 0.000000 0.000000 0.000000 0.000000 0.000000 0.005751
#
#
# Mechanical properties :
#
#
# Convention : Reuss Voigt Hill
#
# Bulk Modulus (GPa) = 27.09978 67.67923 47.38950
# Shear Modulus (GPa) = 27.55093 59.81604 43.68349
#
# Velocity S-wave (km/s) = 3.60020 5.30478 4.53333
# Velocity P-wave (km/s) = 5.48007 8.32832 7.04954
#
# Compressibility (1/GPa) = 0.03690067
#
# Stress axis : x y z
#
# Youngs Moduli (GPa) = 99.37281 99.37281 21.40028
#
# Poissons Ratio (x) = 0.47279 0.10935
# Poissons Ratio (y) = 0.47279 0.10935
# Poissons Ratio (z) = 0.50776 0.50776
#
# Static dielectric constant tensor:
#      x y z
#    x 1.774160 0.000000 0.000000 
#    y 0.000000 1.774160 0.000000 
#    z 0.000000 0.000000 1.740950 
# 
# From -- ./inp_files/2632.got.cif
#   From: 2010.05.17/outbox.cif.g08.bks.cpg/sg133_2_cif.got.tgz:2632.got - 2010.05.20 12:37:36.
