data_PCOD9567118
_publ_section_title
;
Structure prediction by ZEFSAII (Michael W. Deem and Ramdas Pophale) SiO2 
 PCOD9567118
Probable space group: P 42/M C M
;
_chemical_formula_sum "Si O2"
_cell_formula_units_Z 112
_cell_length_a 17.428339
_cell_length_b 17.428339
_cell_length_c 23.903765
_cell_angle_alpha 90.000000
_cell_angle_beta 90.000000
_cell_angle_gamma 90.000000
_cell_volume 7260.696915
_symmetry_space_group_name_H-M "P 42/M C M"
_symmetry_group_IT_number 132
_symmetry_cell_setting 'tetragonal'
loop_
_space_group_symop_operation_xyz
x,y,z
-y,x,1/2+z
-x,-y,z
y,-x,1/2+z
x,-y,1/2-z
-x,y,1/2-z
y,x,-z
-y,-x,-z
-x,-y,-z
y,-x,1/2-z
x,y,-z
-y,x,1/2-z
-x,y,1/2+z
x,-y,1/2+z
-y,-x,z
y,x,z
loop_
_atom_site_type_symbol
_atom_site_label
_atom_site_fract_x
_atom_site_fract_y
_atom_site_fract_z
Si Si1 0.885375 0.234862 0.655759
Si Si2 0.150047 0.030507 0.687609
Si Si3 0.383417 0.089595 0.766012
Si Si4 0.356596 0.893692 0.932833
Si Si5 0.339022 0.077124 0.935393
Si Si6 0.091349 0.511740 0.634200
Si Si7 0.718696 0.158453 0.174312
O O1 0.810576 0.189425 0.675159
O O2 0.906030 0.307092 0.695014
O O3 0.879915 0.270126 0.594672
O O4 0.956413 0.176955 0.654838
O O5 0.076292 0.076292 0.666676
O O6 0.220103 0.091169 0.688563
O O7 0.135630 0.000000 0.750000
O O8 0.455141 0.116443 0.804761
O O9 0.356727 0.137867 0.711471
O O10 0.394626 0.000000 0.750000
O O11 0.437798 0.881500 0.900762
O O12 0.299055 0.848380 0.891881
O O13 0.335680 0.984424 0.926897
O O14 0.358183 0.877021 0.000000
O O15 0.417082 0.103512 0.906778
O O16 0.341001 0.091805 0.000000
O O17 0.000000 0.500000 0.640920
O O18 0.761587 0.238414 0.187119
#
# Coordination Sequence:
#
# PCOD9567118 Si02
#       7
#    16  16  16  16  16  16  16
#     4  11  19  29  43  59  83 115 151 194 241 288
#     4  11  20  30  43  60  80 107 149 202 253 287
#     4  11  18  30  45  66  91 115 143 183 239 286
#     4  10  19  33  49  65  86 115 150 188 225 264
#     4   9  17  30  44  62  85 110 144 187 235 283
#     4   9  18  28  47  71  88 108 137 183 232 281
#     4  11  20  31  46  64  90 120 152 189 228 274
#
# _framework density 15.425516999999999
#
# number of rings (size 3 to 8) (size 9 to 14) (size 15 to 20)
#    0.000    1.714    4.286    3.000    0.000    5.286 
#    0.000    0.000    0.000    0.429    0.000    1.000 
#    0.000    0.000    0.000    0.000    0.000   40.000 
#
# Total GULP energy -623786.427458 kJ/mol
# GULP energy per Si atom -5569.521674 kJ/mol
# Density = 1.539041 g / cm^3
# Si number density = 15.425517 Si / 1000 Ang^3
#
#
#
# Elastic Constant Matrix: (Units=GPa)
#
#
# Indices 1 2 3 4 5 6 
#
# 1 33.5190 12.9463 17.4702 0.0000 0.0000 0.0000
# 2 12.9463 33.5190 17.4702 0.0000 0.0000 0.0000
# 3 17.4702 17.4702 99.7225 0.0000 0.0000 0.0000
# 4 0.0000 0.0000 0.0000 15.5783 0.0000 0.0000
# 5 0.0000 0.0000 0.0000 0.0000 15.5783 0.0000
# 6 0.0000 0.0000 0.0000 0.0000 0.0000 8.0548
#
#
#
# Elastic Compliance Matrix: (Units=1/GPa)
#
#
# Indices 1 2 3 4 5 6 
#
# 1 0.036697 -0.011911 -0.004342 0.000000 0.000000 0.000000
# 2 -0.011911 0.036697 -0.004342 0.000000 0.000000 0.000000
# 3 -0.004342 -0.004342 0.011549 0.000000 0.000000 0.000000
# 4 0.000000 0.000000 0.000000 0.064192 0.000000 0.000000
# 5 0.000000 0.000000 0.000000 0.000000 0.064192 0.000000
# 6 0.000000 0.000000 0.000000 0.000000 0.000000 0.124150
#
#
# Mechanical properties :
#
#
# Convention : Reuss Voigt Hill
#
# Bulk Modulus (GPa) = 22.85540 29.17046 26.01293
# Shear Modulus (GPa) = 12.71445 15.76719 14.24082
#
# Velocity S-wave (km/s) = 2.87409 3.20058 3.04172
# Velocity P-wave (km/s) = 5.08553 5.71050 5.40705
#
# Compressibility (1/GPa) = 0.04375334
#
# Stress axis : x y z
#
# Youngs Moduli (GPa) = 27.24987 27.24987 86.58550
#
# Poissons Ratio (x) = 0.32457 0.37598
# Poissons Ratio (y) = 0.32457 0.37598
# Poissons Ratio (z) = 0.11833 0.11833
#
# Static dielectric constant tensor:
#      x y z
#    x 1.531900 0.000000 0.000000 
#    y 0.000000 1.531900 0.000000 
#    z 0.000000 0.000000 1.562350 
# 
# From -- ./inp_files/9304.got.cif
#   From: 2010.05.17/outbox.cif.g08.bks.cpg/sg132_5_cif.got.tgz:9304.got - 2010.05.20 12:30:18.
