data_PCOD9567010
_publ_section_title
;
Structure prediction by ZEFSAII (Michael W. Deem and Ramdas Pophale) SiO2 
 PCOD9567010
Probable space group: P 42/M C M
;
_chemical_formula_sum "Si O2"
_cell_formula_units_Z 64
_cell_length_a 22.487537
_cell_length_b 22.487537
_cell_length_c 8.517075
_cell_angle_alpha 90.000000
_cell_angle_beta 90.000000
_cell_angle_gamma 90.000000
_cell_volume 4306.993868
_symmetry_space_group_name_H-M "P 42/M C M"
_symmetry_group_IT_number 132
_symmetry_cell_setting 'tetragonal'
loop_
_space_group_symop_operation_xyz
x,y,z
-y,x,1/2+z
-x,-y,z
y,-x,1/2+z
x,-y,1/2-z
-x,y,1/2-z
y,x,-z
-y,-x,-z
-x,-y,-z
y,-x,1/2-z
x,y,-z
-y,x,1/2-z
-x,y,1/2+z
x,-y,1/2+z
-y,-x,z
y,x,z
loop_
_atom_site_type_symbol
_atom_site_label
_atom_site_fract_x
_atom_site_fract_y
_atom_site_fract_z
Si Si1 0.565664 0.259815 0.813975
Si Si2 0.649139 0.350862 0.314486
Si Si3 0.067224 0.563993 0.186956
Si Si4 0.838867 0.345521 0.312937
Si Si5 0.249117 0.249117 0.813581
O O1 0.500000 0.253576 0.750000
O O2 0.591816 0.323999 0.768753
O O3 0.606894 0.212481 0.725324
O O4 0.569000 0.249594 0.000000
O O5 0.640191 0.359810 0.500000
O O6 0.700163 0.299838 0.296372
O O7 0.091619 0.500000 0.250000
O O8 0.103874 0.622206 0.239782
O O9 0.000000 0.568370 0.250000
O O10 0.067259 0.560485 0.000000
O O11 0.847112 0.340696 0.500000
O O12 0.811156 0.281988 0.253978
O O13 0.240105 0.240105 0.000000
#
# Coordination Sequence:
#
# PCOD9567010 Si02
#       5
#    16   8  16  16   8
#     4  11  20  30  44  63  82 104 131 163 202 248
#     4   9  17  31  45  60  80 101 125 161 204 248
#     4  11  21  33  46  63  86 117 152 188 224 264
#     4  10  18  31  47  65  87 112 141 177 215 255
#     4   7  14  27  45  63  82 106 133 166 210 253
#
# _framework density 14.859552000000001
#
# number of rings (size 3 to 8) (size 9 to 14) (size 15 to 20)
#    0.000    2.000    0.000    8.625    0.000    0.000 
#    0.000    1.875    0.000    0.375    0.000    2.625 
#    0.000    0.000    0.000    0.000    0.000    0.625 
#
# Total GULP energy -356422.148019 kJ/mol
# GULP energy per Si atom -5569.096063 kJ/mol
# Density = 1.482573 g / cm^3
# Si number density = 14.859552 Si / 1000 Ang^3
#
#
#
# Elastic Constant Matrix: (Units=GPa)
#
#
# Indices 1 2 3 4 5 6 
#
# 1 54.2642 34.0136 13.1438 0.0000 0.0000 0.0000
# 2 34.0136 54.2643 13.1444 0.0000 0.0000 0.0000
# 3 13.1438 13.1444 70.7792 0.0000 0.0000 0.0000
# 4 0.0000 0.0000 0.0000 17.4274 0.0000 0.0000
# 5 0.0000 0.0000 0.0000 0.0000 17.4273 0.0000
# 6 0.0000 0.0000 0.0000 0.0000 0.0000 16.3237
#
#
#
# Elastic Compliance Matrix: (Units=1/GPa)
#
#
# Indices 1 2 3 4 5 6 
#
# 1 0.030686 -0.018695 -0.002227 0.000000 0.000000 0.000000
# 2 -0.018695 0.030686 -0.002227 0.000000 0.000000 0.000000
# 3 -0.002227 -0.002227 0.014956 0.000000 0.000000 0.000000
# 4 0.000000 0.000000 0.000000 0.057381 0.000000 0.000000
# 5 0.000000 0.000000 0.000000 0.000000 0.057381 0.000000
# 6 0.000000 0.000000 0.000000 0.000000 0.000000 0.061261
#
#
# Mechanical properties :
#
#
# Convention : Reuss Voigt Hill
#
# Bulk Modulus (GPa) = 33.29969 33.32346 33.31158
# Shear Modulus (GPa) = 16.19917 18.16941 17.18429
#
# Velocity S-wave (km/s) = 3.30533 3.50057 3.40435
# Velocity P-wave (km/s) = 6.08483 6.23000 6.15785
#
# Compressibility (1/GPa) = 0.03003031
#
# Stress axis : x y z
#
# Youngs Moduli (GPa) = 32.58814 32.58811 66.86503
#
# Poissons Ratio (x) = 0.60924 0.14888
# Poissons Ratio (y) = 0.60924 0.14891
# Poissons Ratio (z) = 0.07256 0.07257
#
# Static dielectric constant tensor:
#      x y z
#    x 1.523130 0.000000 0.000000 
#    y 0.000000 1.523130 0.000000 
#    z 0.000000 0.000000 1.718260 
# 
# From -- ./inp_files/1304.got.cif
#   From: 2010.05.17/outbox.cif.g08.bks.cpg/sg132_1_cif.got.tgz:1304.got - 2010.05.20 12:30:18.
