data_PCOD9567611
_publ_section_title
;
Structure prediction by ZEFSAII (Michael W. Deem and Ramdas Pophale) SiO2 
 PCOD9567611
Probable space group: P 42/N B C
;
_chemical_formula_sum "Si O2"
_cell_formula_units_Z 112
_cell_length_a 31.020597
_cell_length_b 31.020597
_cell_length_c 5.288296
_cell_angle_alpha 90.000000
_cell_angle_beta 90.000000
_cell_angle_gamma 90.000000
_cell_volume 5088.807928
_symmetry_space_group_name_H-M "P 42/N B C"
_symmetry_group_IT_number 133
_space_group.IT_coordinate_system_code '2'
_symmetry_cell_setting 'tetragonal'
loop_
_space_group_symop_operation_xyz
x,y,z
1/2-y,x,1/2+z
1/2-x,1/2-y,z
y,1/2-x,1/2+z
x,1/2-y,-z
1/2-x,y,-z
y,x,1/2-z
1/2-y,1/2-x,1/2-z
-x,-y,-z
1/2+y,-x,1/2-z
1/2+x,1/2+y,-z
-y,1/2+x,1/2-z
-x,1/2+y,z
1/2+x,-y,z
-y,-x,1/2+z
1/2+y,1/2+x,1/2+z
loop_
_atom_site_type_symbol
_atom_site_label
_atom_site_fract_x
_atom_site_fract_y
_atom_site_fract_z
Si Si1 0.579455 0.155891 0.056306
Si Si2 0.921564 0.511345 0.266048
Si Si3 0.841804 0.774646 0.250026
Si Si4 0.876430 0.436878 0.064953
Si Si5 0.445497 0.276033 0.750839
Si Si6 0.949418 0.620836 0.732726
Si Si7 0.297544 0.663642 0.591637
O O1 0.609903 0.112897 0.034009
O O2 0.551469 0.145576 0.301244
O O3 0.612592 0.194502 0.076553
O O4 0.555902 0.157322 0.790239
O O5 0.969081 0.530920 0.250000
O O6 0.917572 0.462318 0.173500
O O7 0.902077 0.523422 0.539506
O O8 0.893541 0.534393 0.045300
O O9 0.826945 0.750000 0.500000
O O10 0.822068 0.822068 0.250000
O O11 0.893353 0.774246 0.250135
O O12 0.826979 0.750000 0.000000
O O13 0.460366 0.250000 0.500000
O O14 0.453305 0.327600 0.756712
O O15 0.460701 0.250000 0.000000
O O16 0.901661 0.598340 0.750000
O O17 0.250000 0.674545 0.500000
O O18 0.325056 0.688704 0.377225
#
# Coordination Sequence:
#
# PCOD9567611 Si02
#       7
#    16  16  16  16  16  16  16
#     4  10  19  37  60  87 114 165 211 229 288 361
#     4  10  21  35  56  90 118 147 192 246 306 365
#     4  10  20  31  44  64  89 119 157 198 248 313
#     4  10  18  35  62  81 117 156 201 240 279 360
#     4  10  20  34  53  74  96 130 175 222 272 330
#     4  10  20  36  56  79 110 144 180 228 301 363
#     4  12  23  40  62  93 130 164 211 268 314 374
#
# _framework density 22.009083
#
# number of rings (size 3 to 8) (size 9 to 14) (size 15 to 20)
#    0.000    1.714    2.857    3.000    0.000    1.714 
#    0.000    7.143    0.000    8.571    0.000    0.000 
#    0.000    0.000    0.000    0.000    0.000    0.000 
#
# Total GULP energy -624577.784521 kJ/mol
# GULP energy per Si atom -5576.587362 kJ/mol
# Density = 2.195899 g / cm^3
# Si number density = 22.009083 Si / 1000 Ang^3
#
#
#
# Elastic Constant Matrix: (Units=GPa)
#
#
# Indices 1 2 3 4 5 6 
#
# 1 56.0320 -12.2857 9.8302 0.0000 0.0000 0.0000
# 2 -12.2857 56.0314 9.8287 0.0000 0.0000 0.0000
# 3 9.8302 9.8287 144.6676 0.0000 0.0000 0.0000
# 4 0.0000 0.0000 0.0000 36.2208 0.0000 0.0000
# 5 0.0000 0.0000 0.0000 0.0000 36.2226 0.0000
# 6 0.0000 0.0000 0.0000 0.0000 0.0000 1.1228
#
#
#
# Elastic Compliance Matrix: (Units=1/GPa)
#
#
# Indices 1 2 3 4 5 6 
#
# 1 0.019108 0.004471 -0.001602 0.000000 0.000000 0.000000
# 2 0.004471 0.019108 -0.001602 0.000000 0.000000 0.000000
# 3 -0.001602 -0.001602 0.007130 0.000000 0.000000 0.000000
# 4 0.000000 0.000000 0.000000 0.027608 0.000000 0.000000
# 5 0.000000 0.000000 0.000000 0.000000 0.027607 0.000000
# 6 0.000000 0.000000 0.000000 0.000000 0.000000 0.890610
#
#
# Mechanical properties :
#
#
# Convention : Reuss Voigt Hill
#
# Bulk Modulus (GPa) = 20.88547 30.16415 25.52481
# Shear Modulus (GPa) = 4.97711 31.33709 18.15710
#
# Velocity S-wave (km/s) = 1.50542 3.77745 2.87537
# Velocity P-wave (km/s) = 3.54003 5.72369 4.75880
#
# Compressibility (1/GPa) = 0.04788018
#
# Stress axis : x y z
#
# Youngs Moduli (GPa) = 52.33323 52.33282 140.25034
#
# Poissons Ratio (x) = -0.23397 0.22470
# Poissons Ratio (y) = -0.23397 0.22468
# Poissons Ratio (z) = 0.08385 0.08384
#
# Static dielectric constant tensor:
#      x y z
#    x 1.836100 0.000000 0.000000 
#    y 0.000000 1.836100 0.000000 
#    z 0.000000 0.000000 1.867130 
# 
# From -- ./inp_files/621.got.cif
#   From: 2010.05.17/outbox.cif.g08.bks.cpg/sg133_1_cif.got.tgz:621.got - 2010.05.20 12:37:36.
