data_PCOD9567422
_publ_section_title
;
Structure prediction by ZEFSAII (Michael W. Deem and Ramdas Pophale) SiO2 
 PCOD9567422
Probable space group: P 42/M C M
;
_chemical_formula_sum "Si O2"
_cell_formula_units_Z 58
_cell_length_a 18.853944
_cell_length_b 18.853944
_cell_length_c 8.316852
_cell_angle_alpha 90.000000
_cell_angle_beta 90.000000
_cell_angle_gamma 90.000000
_cell_volume 2956.401397
_symmetry_space_group_name_H-M "P 42/M C M"
_symmetry_group_IT_number 132
_symmetry_cell_setting 'tetragonal'
loop_
_space_group_symop_operation_xyz
x,y,z
-y,x,1/2+z
-x,-y,z
y,-x,1/2+z
x,-y,1/2-z
-x,y,1/2-z
y,x,-z
-y,-x,-z
-x,-y,-z
y,-x,1/2-z
x,y,-z
-y,x,1/2-z
-x,y,1/2+z
x,-y,1/2+z
-y,-x,z
y,x,z
loop_
_atom_site_type_symbol
_atom_site_label
_atom_site_fract_x
_atom_site_fract_y
_atom_site_fract_z
Si Si1 0.813614 0.925510 0.306165
Si Si2 0.924222 0.348249 0.192055
Si Si3 0.579776 0.779551 0.191782
Si Si4 0.500000 0.500000 0.750000
Si Si5 0.381988 0.381988 0.197114
O O1 0.811963 0.924140 0.500000
O O2 0.860155 0.860155 0.248489
O O3 0.732962 0.922192 0.246656
O O4 0.845032 0.000000 0.250000
O O5 0.849863 0.381733 0.244174
O O6 0.000000 0.379846 0.250000
O O7 0.926648 0.348555 0.000000
O O8 0.500000 0.785901 0.250000
O O9 0.604062 0.700191 0.241271
O O10 0.584805 0.781067 0.000000
O O11 0.562283 0.437718 0.777039
O O12 0.390706 0.390706 0.000000
#
# Coordination Sequence:
#
# PCOD9567422 Si02
#       5
#    16  16  16   2   8
#     4   9  19  35  54  79 112 148 191 236 286 346
#     4  10  21  39  62  88 118 157 198 246 302 358
#     4  11  23  41  61  90 123 156 200 248 296 357
#     4  12  18  44  68  90 128 172 206 248 306 368
#     4  10  23  39  61  92 127 165 205 251 306 363
#
# _framework density 19.618447
#
# number of rings (size 3 to 8) (size 9 to 14) (size 15 to 20)
#    0.000    1.931    1.379    1.862    1.931    2.483 
#    0.000    6.207    0.000    0.000    0.000    0.000 
#    0.000    0.000    0.000    0.000    0.000    0.000 
#
# Total GULP energy -322963.508241 kJ/mol
# GULP energy per Si atom -5568.336349 kJ/mol
# Density = 1.957379 g / cm^3
# Si number density = 19.618447 Si / 1000 Ang^3
#
#
#
# Elastic Constant Matrix: (Units=GPa)
#
#
# Indices 1 2 3 4 5 6 
#
# 1 151.9108 84.1426 15.8939 0.0000 0.0000 0.0000
# 2 84.1426 151.9108 15.8939 0.0000 0.0000 0.0000
# 3 15.8939 15.8939 21.7351 0.0000 0.0000 0.0000
# 4 0.0000 0.0000 0.0000 16.7734 0.0000 0.0000
# 5 0.0000 0.0000 0.0000 0.0000 16.7734 0.0000
# 6 0.0000 0.0000 0.0000 0.0000 0.0000 41.5023
#
#
#
# Elastic Compliance Matrix: (Units=1/GPa)
#
#
# Indices 1 2 3 4 5 6 
#
# 1 0.009728 -0.005029 -0.003436 0.000000 0.000000 0.000000
# 2 -0.005029 0.009728 -0.003436 0.000000 0.000000 0.000000
# 3 -0.003436 -0.003436 0.051034 0.000000 0.000000 0.000000
# 4 0.000000 0.000000 0.000000 0.059618 0.000000 0.000000
# 5 0.000000 0.000000 0.000000 0.000000 0.059618 0.000000
# 6 0.000000 0.000000 0.000000 0.000000 0.000000 0.024095
#
#
# Mechanical properties :
#
#
# Convention : Reuss Voigt Hill
#
# Bulk Modulus (GPa) = 21.41910 61.93530 41.67720
# Shear Modulus (GPa) = 19.74837 28.98488 24.36662
#
# Velocity S-wave (km/s) = 3.17617 3.84790 3.52806
# Velocity P-wave (km/s) = 4.93886 7.16800 6.15518
#
# Compressibility (1/GPa) = 0.04668730
#
# Stress axis : x y z
#
# Youngs Moduli (GPa) = 102.79992 102.79992 19.59475
#
# Poissons Ratio (x) = 0.51694 0.06733
# Poissons Ratio (y) = 0.51694 0.06733
# Poissons Ratio (z) = 0.35324 0.35324
#
# Static dielectric constant tensor:
#      x y z
#    x 1.716360 0.000000 0.000000 
#    y 0.000000 1.716360 0.000000 
#    z 0.000000 0.000000 1.743090 
# 
# From -- ./inp_files/1006.got.cif
#   From: 2010.05.17/outbox.cif.g08.bks.cpg/sg132_1_cif.got.tgz:1006.got - 2010.05.20 12:30:18.
