data_PCOD9567404
_publ_section_title
;
Structure prediction by ZEFSAII (Michael W. Deem and Ramdas Pophale) SiO2 
 PCOD9567404
Probable space group: P 42/M C M
;
_chemical_formula_sum "Si O2"
_cell_formula_units_Z 56
_cell_length_a 11.004247
_cell_length_b 11.004247
_cell_length_c 20.876016
_cell_angle_alpha 90.000000
_cell_angle_beta 90.000000
_cell_angle_gamma 90.000000
_cell_volume 2527.948842
_symmetry_space_group_name_H-M "P 42/M C M"
_symmetry_group_IT_number 132
_symmetry_cell_setting 'tetragonal'
loop_
_space_group_symop_operation_xyz
x,y,z
-y,x,1/2+z
-x,-y,z
y,-x,1/2+z
x,-y,1/2-z
-x,y,1/2-z
y,x,-z
-y,-x,-z
-x,-y,-z
y,-x,1/2-z
x,y,-z
-y,x,1/2-z
-x,y,1/2+z
x,-y,1/2+z
-y,-x,z
y,x,z
loop_
_atom_site_type_symbol
_atom_site_label
_atom_site_fract_x
_atom_site_fract_y
_atom_site_fract_z
Si Si1 0.339475 0.146817 0.929722
Si Si2 0.225122 0.423442 0.376583
Si Si3 0.771001 0.966420 0.674469
Si Si4 0.500000 0.698606 0.750000
O O1 0.281483 0.281483 0.928182
O O2 0.485509 0.161333 0.925566
O O3 0.270686 0.072724 0.873708
O O4 0.308806 0.093193 0.000000
O O5 0.348494 0.348494 0.396014
O O6 0.136690 0.324565 0.346010
O O7 0.238288 0.516791 0.316875
O O8 0.902648 0.902648 0.665123
O O9 0.760101 0.000000 0.750000
O O10 0.615335 0.615335 0.738122
#
# Coordination Sequence:
#
# PCOD9567404 Si02
#       4
#    16  16  16   8
#     4  11  25  43  63  90 126 168 213 261 316 383
#     4  10  21  37  60  91 125 162 206 260 322 384
#     4  11  24  42  66  94 125 164 212 267 323 381
#     4   9  16  28  51  84 120 154 191 241 302 368
#
# _framework density 22.152349000000001
#
# number of rings (size 3 to 8) (size 9 to 14) (size 15 to 20)
#    0.000    1.571    0.000    4.286    0.000   10.571 
#    0.000    5.714    0.000    0.000    0.000    0.000 
#    0.000    0.000    0.000    0.000    0.000    0.000 
#
# Total GULP energy -311750.988567 kJ/mol
# GULP energy per Si atom -5566.981939 kJ/mol
# Density = 2.210193 g / cm^3
# Si number density = 22.152349 Si / 1000 Ang^3
#
#
#
# Elastic Constant Matrix: (Units=GPa)
#
#
# Indices 1 2 3 4 5 6 
#
# 1 89.1776 48.8962 49.1178 0.0000 0.0000 0.0000
# 2 48.8962 89.1776 49.1178 0.0000 0.0000 0.0000
# 3 49.1178 49.1178 146.4054 0.0000 0.0000 0.0000
# 4 0.0000 0.0000 0.0000 24.0776 0.0000 0.0000
# 5 0.0000 0.0000 0.0000 0.0000 24.0776 0.0000
# 6 0.0000 0.0000 0.0000 0.0000 0.0000 25.4469
#
#
#
# Elastic Compliance Matrix: (Units=1/GPa)
#
#
# Indices 1 2 3 4 5 6 
#
# 1 0.017169 -0.007656 -0.003192 0.000000 0.000000 0.000000
# 2 -0.007656 0.017169 -0.003192 0.000000 0.000000 0.000000
# 3 -0.003192 -0.003192 0.008972 0.000000 0.000000 0.000000
# 4 0.000000 0.000000 0.000000 0.041532 0.000000 0.000000
# 5 0.000000 0.000000 0.000000 0.000000 0.041532 0.000000
# 6 0.000000 0.000000 0.000000 0.000000 0.000000 0.039298
#
#
# Mechanical properties :
#
#
# Convention : Reuss Voigt Hill
#
# Bulk Modulus (GPa) = 65.65171 68.78049 67.21610
# Shear Modulus (GPa) = 25.14728 26.56234 25.85481
#
# Velocity S-wave (km/s) = 3.37292 3.46652 3.42004
# Velocity P-wave (km/s) = 6.69848 6.86576 6.78263
#
# Compressibility (1/GPa) = 0.01523190
#
# Stress axis : x y z
#
# Youngs Moduli (GPa) = 58.24351 58.24351 111.45951
#
# Poissons Ratio (x) = 0.44592 0.35574
# Poissons Ratio (y) = 0.44592 0.35574
# Poissons Ratio (z) = 0.18589 0.18589
#
# Static dielectric constant tensor:
#      x y z
#    x 1.916390 0.000000 0.000000 
#    y 0.000000 1.916390 0.000000 
#    z 0.000000 0.000000 1.899350 
# 
# From -- ./inp_files/8617.got.cif
#   From: 2010.05.17/outbox.cif.g08.bks.cpg/sg132_5_cif.got.tgz:8617.got - 2010.05.20 12:30:18.
