data_PCOD9567896
_publ_section_title
;
Structure prediction by ZEFSAII (Michael W. Deem and Ramdas Pophale) SiO2 
 PCOD9567896
Probable space group: P 42/N B C
;
_chemical_formula_sum "Si O2"
_cell_formula_units_Z 60
_cell_length_a 17.450260
_cell_length_b 17.450260
_cell_length_c 8.156313
_cell_angle_alpha 90.000000
_cell_angle_beta 90.000000
_cell_angle_gamma 90.000000
_cell_volume 2483.691710
_symmetry_space_group_name_H-M "P 42/N B C"
_symmetry_group_IT_number 133
_space_group.IT_coordinate_system_code '2'
_symmetry_cell_setting 'tetragonal'
loop_
_space_group_symop_operation_xyz
x,y,z
1/2-y,x,1/2+z
1/2-x,1/2-y,z
y,1/2-x,1/2+z
x,1/2-y,-z
1/2-x,y,-z
y,x,1/2-z
1/2-y,1/2-x,1/2-z
-x,-y,-z
1/2+y,-x,1/2-z
1/2+x,1/2+y,-z
-y,1/2+x,1/2-z
-x,1/2+y,z
1/2+x,-y,z
-y,-x,1/2+z
1/2+y,1/2+x,1/2+z
loop_
_atom_site_type_symbol
_atom_site_label
_atom_site_fract_x
_atom_site_fract_y
_atom_site_fract_z
Si Si1 0.393149 0.343942 0.593910
Si Si2 0.927697 0.572304 0.250000
Si Si3 0.046549 0.707832 0.705580
Si Si4 0.250000 0.250000 0.500000
Si Si5 0.587870 0.373204 0.372150
O O1 0.399905 0.399905 0.750000
O O2 0.398208 0.388169 0.419884
O O3 0.457416 0.281678 0.655463
O O4 0.310389 0.305058 0.588288
O O5 0.912078 0.482810 0.222154
O O6 0.071785 0.660720 0.863124
O O7 0.091988 0.787262 0.702525
O O8 0.070485 0.650093 0.558911
#
# Coordination Sequence:
#
# PCOD9567896 Si02
#       5
#    16   8  16   4  16
#     4  11  26  42  68 100 139 183 233 281 358 431
#     4  10  24  45  68  98 140 183 224 296 348 430
#     4  10  24  45  66 101 136 179 237 295 354 423
#     4  12  26  44  66 106 144 184 232 296 350 430
#     4  10  23  43  69  96 141 177 234 296 353 425
#
# _framework density 24.157589000000002
#
# number of rings (size 3 to 8) (size 9 to 14) (size 15 to 20)
#    0.000    1.600    0.000    3.600   13.067    3.733 
#    0.000    2.667    0.000    0.000    0.000    0.000 
#    0.000    0.000    0.000    0.000    0.000    0.000 
#
# Total GULP energy -334119.666671 kJ/mol
# GULP energy per Si atom -5568.661111 kJ/mol
# Density = 2.410261 g / cm^3
# Si number density = 24.157589 Si / 1000 Ang^3
#
#
#
# Elastic Constant Matrix: (Units=GPa)
#
#
# Indices 1 2 3 4 5 6 
#
# 1 82.3917 38.5318 19.3386 0.0000 0.0000 0.0000
# 2 38.5318 82.3912 19.3385 0.0000 0.0000 0.0000
# 3 19.3386 19.3385 100.8703 0.0000 0.0000 0.0000
# 4 0.0000 0.0000 0.0000 25.9039 0.0000 0.0000
# 5 0.0000 0.0000 0.0000 0.0000 25.9004 0.0000
# 6 0.0000 0.0000 0.0000 0.0000 0.0000 -158.3526
#
#
#
# Elastic Compliance Matrix: (Units=1/GPa)
#
#
# Indices 1 2 3 4 5 6 
#
# 1 0.015805 -0.006995 -0.001689 0.000000 0.000000 0.000000
# 2 -0.006995 0.015805 -0.001689 0.000000 0.000000 0.000000
# 3 -0.001689 -0.001689 0.010561 0.000000 0.000000 0.000000
# 4 0.000000 0.000000 0.000000 0.038604 0.000000 0.000000
# 5 0.000000 0.000000 0.000000 0.000000 0.038609 0.000000
# 6 0.000000 0.000000 0.000000 0.000000 0.000000 -0.006315
#
#
# Mechanical properties :
#
#
# Convention : Reuss Voigt Hill
#
# Bulk Modulus (GPa) = 46.67408 46.67454 46.67431
# Shear Modulus (GPa) = 35.47162 -8.74671 13.36246
#
# Velocity S-wave (km/s) = 3.83605 -1.90487 2.35444
# Velocity P-wave (km/s) = 6.24364 3.81113 5.17242
#
# Compressibility (1/GPa) = 0.02142517
#
# Stress axis : x y z
#
# Youngs Moduli (GPa) = 63.27143 63.27103 94.68489
#
# Poissons Ratio (x) = 0.44258 0.15992
# Poissons Ratio (y) = 0.44259 0.15992
# Poissons Ratio (z) = 0.10687 0.10687
#
# Static dielectric constant tensor:
#      x y z
#    x 1.936970 0.000000 0.000000 
#    y 0.000000 1.936970 0.000000 
#    z 0.000000 0.000000 2.127970 
# 
# From -- ./inp_files/1357.got.cif
#   From: 2010.05.17/outbox.cif.g08.bks.cpg/sg133_1_cif.got.tgz:1357.got - 2010.05.20 12:37:36.
