data_PCOD9567553
_publ_section_title
;
Structure prediction by ZEFSAII (Michael W. Deem and Ramdas Pophale) SiO2 
 PCOD9567553
Probable space group: P 42/M C M
;
_chemical_formula_sum "Si O2"
_cell_formula_units_Z 96
_cell_length_a 24.000000
_cell_length_b 24.000000
_cell_length_c 9.000000
_cell_angle_alpha 90.000000
_cell_angle_beta 90.000000
_cell_angle_gamma 90.000000
_cell_volume 5184.000000
_symmetry_space_group_name_H-M "P 42/M C M"
_symmetry_group_IT_number 132
_symmetry_cell_setting 'tetragonal'
loop_
_space_group_symop_operation_xyz
x,y,z
-y,x,1/2+z
-x,-y,z
y,-x,1/2+z
x,-y,1/2-z
-x,y,1/2-z
y,x,-z
-y,-x,-z
-x,-y,-z
y,-x,1/2-z
x,y,-z
-y,x,1/2-z
-x,y,1/2+z
x,-y,1/2+z
-y,-x,z
y,x,z
loop_
_atom_site_type_symbol
_atom_site_label
_atom_site_fract_x
_atom_site_fract_y
_atom_site_fract_z
Si Si1 0.444661 0.350780 0.168623
Si Si2 0.152438 0.649996 0.674935
Si Si3 0.638195 0.728944 0.323078
Si Si4 0.056862 0.858137 0.173510
Si Si5 0.058992 0.440525 0.178351
Si Si6 0.148850 0.237775 0.673094
O O1 0.500000 0.368997 0.250000
O O2 0.400724 0.400724 0.167448
O O3 0.415752 0.301138 0.257474
O O4 0.456192 0.333703 0.000000
O O5 0.163093 0.647045 0.500000
O O6 0.209395 0.640917 0.762015
O O7 0.105894 0.604696 0.712379
O O8 0.134117 0.711420 0.722677
O O9 0.636575 0.728674 0.500000
O O10 0.691521 0.691521 0.275823
O O11 0.086958 0.913043 0.237100
O O12 0.101414 0.808725 0.183520
O O13 0.000000 0.843743 0.250000
O O14 0.046522 0.867681 0.000000
O O15 0.073693 0.500000 0.250000
O O16 0.000000 0.423997 0.250000
O O17 0.053400 0.445820 0.000000
O O18 0.153108 0.255517 0.500000
O O19 0.206892 0.206892 0.711528
#
# Coordination Sequence:
#
# PCOD9567553 Si02
#       6
#    16  16  16  16  16  16
#     4  10  21  37  57  81 111 147 186 230 277 323
#     4  11  23  36  55  85 113 139 176 219 265 321
#     4  10  21  37  57  81 111 147 184 224 272 322
#     4   9  19  35  53  75 105 140 179 224 270 317
#     4  10  22  40  60  81 107 139 174 215 264 314
#     4   9  19  36  55  76 106 143 180 219 265 315
#
# _framework density 18.518519000000001
#
# number of rings (size 3 to 8) (size 9 to 14) (size 15 to 20)
#    0.000    2.167    0.000    4.000    0.000    9.667 
#    0.000    8.333    0.000    0.000    0.000    0.000 
#    0.000    0.000    0.000    0.000    0.000    0.000 
#
# Total GULP energy -535578.600718 kJ/mol
# GULP energy per Si atom -5578.943757 kJ/mol
# Density = 1.847637 g / cm^3
# Si number density = 18.518519 Si / 1000 Ang^3
#
#
#
# Elastic Constant Matrix: (Units=GPa)
#
#
# Indices 1 2 3 4 5 6 
#
# 1 39.5650 36.9690 47.1485 0.0000 0.0000 0.0000
# 2 36.9690 39.5650 47.1485 0.0000 0.0000 0.0000
# 3 47.1485 47.1485 59.6330 0.0000 0.0000 0.0000
# 4 0.0000 0.0000 0.0000 28.1942 0.0000 0.0000
# 5 0.0000 0.0000 0.0000 0.0000 28.1942 0.0000
# 6 0.0000 0.0000 0.0000 0.0000 0.0000 23.9982
#
#
#
# Elastic Compliance Matrix: (Units=1/GPa)
#
#
# Indices 1 2 3 4 5 6 
#
# 1 0.445303 0.060100 -0.399594 0.000000 0.000000 0.000000
# 2 0.060100 0.445303 -0.399594 0.000000 0.000000 0.000000
# 3 -0.399594 -0.399594 0.648642 0.000000 0.000000 0.000000
# 4 0.000000 0.000000 0.000000 0.035468 0.000000 0.000000
# 5 0.000000 0.000000 0.000000 0.000000 0.035468 0.000000
# 6 0.000000 0.000000 0.000000 0.000000 0.000000 0.041670
#
#
# Mechanical properties :
#
#
# Convention : Reuss Voigt Hill
#
# Bulk Modulus (GPa) = 16.37391 44.58834 30.48112
# Shear Modulus (GPa) = 1.58711 16.57714 9.08212
#
# Velocity S-wave (km/s) = 0.92677 2.99518 2.21698
# Velocity P-wave (km/s) = 3.16327 6.00761 4.80092
#
# Compressibility (1/GPa) = 0.06107279
#
# Stress axis : x y z
#
# Youngs Moduli (GPa) = 2.24566 2.24566 1.54168
#
# Poissons Ratio (x) = -0.13496 0.61605
# Poissons Ratio (y) = -0.13496 0.61605
# Poissons Ratio (z) = 0.89735 0.89735
#
# Static dielectric constant tensor:
#      x y z
#    x 1.618680 0.000000 0.000000 
#    y 0.000000 1.618680 0.000000 
#    z 0.000000 0.000000 1.620820 
# 
# From -- ./inp_files/1769.got.cif
#   From: 2010.05.17/outbox.ucp.g08.bks.cvg/sg132_1_cif.got.tgz:1769.got - 2010.06.11 11:39:14.
