data_PCOD9567454
_publ_section_title
;
Structure prediction by ZEFSAII (Michael W. Deem and Ramdas Pophale) SiO2 
 PCOD9567454
Probable space group: P 42/M C M
;
_chemical_formula_sum "Si O2"
_cell_formula_units_Z 32
_cell_length_a 9.126342
_cell_length_b 9.126342
_cell_length_c 15.519157
_cell_angle_alpha 90.000000
_cell_angle_beta 90.000000
_cell_angle_gamma 90.000000
_cell_volume 1292.592422
_symmetry_space_group_name_H-M "P 42/M C M"
_symmetry_group_IT_number 132
_symmetry_cell_setting 'tetragonal'
loop_
_space_group_symop_operation_xyz
x,y,z
-y,x,1/2+z
-x,-y,z
y,-x,1/2+z
x,-y,1/2-z
-x,y,1/2-z
y,x,-z
-y,-x,-z
-x,-y,-z
y,-x,1/2-z
x,y,-z
-y,x,1/2-z
-x,y,1/2+z
x,-y,1/2+z
-y,-x,z
y,x,z
loop_
_atom_site_type_symbol
_atom_site_label
_atom_site_fract_x
_atom_site_fract_y
_atom_site_fract_z
Si Si1 0.547085 0.224419 0.400297
Si Si2 0.950372 0.274440 0.152444
O O1 0.503462 0.245070 0.500000
O O2 0.630910 0.369091 0.369655
O O3 0.407564 0.166844 0.348749
O O4 0.663779 0.090933 0.396661
O O5 0.868033 0.131968 0.117772
O O6 0.000000 0.247444 0.250000
#
# Coordination Sequence:
#
# PCOD9567454 Si02
#       2
#    16  16
#     4  10  22  40  63  92 123 156 198 248 302 359
#     4  11  23  39  60  87 122 162 202 246 296 353
#
# _framework density 24.756449
#
# number of rings (size 3 to 8) (size 9 to 14) (size 15 to 20)
#    0.000    1.500    0.000    7.500    0.000    8.500 
#    0.000    5.000    0.000   12.000    0.000    0.000 
#    0.000    0.000    0.000    0.000    0.000    0.000 
#
# Total GULP energy -179179.717081 kJ/mol
# GULP energy per Si atom -5599.366159 kJ/mol
# Density = 2.470010 g / cm^3
# Si number density = 24.756449 Si / 1000 Ang^3
#
#
#
# Elastic Constant Matrix: (Units=GPa)
#
#
# Indices 1 2 3 4 5 6 
#
# 1 72.4867 102.0972 6.8335 0.0000 0.0000 0.0000
# 2 102.0972 72.4867 6.8335 0.0000 0.0000 0.0000
# 3 6.8335 6.8335 44.1791 0.0000 0.0000 0.0000
# 4 0.0000 0.0000 0.0000 1.4037 0.0000 0.0000
# 5 0.0000 0.0000 0.0000 0.0000 1.4037 0.0000
# 6 0.0000 0.0000 0.0000 0.0000 0.0000 84.0802
#
#
#
# Elastic Compliance Matrix: (Units=1/GPa)
#
#
# Indices 1 2 3 4 5 6 
#
# 1 -0.013987 0.019785 -0.000897 0.000000 0.000000 0.000000
# 2 0.019785 -0.013987 -0.000897 0.000000 0.000000 0.000000
# 3 -0.000897 -0.000897 0.022913 0.000000 0.000000 0.000000
# 4 0.000000 0.000000 0.000000 0.712428 0.000000 0.000000
# 5 0.000000 0.000000 0.000000 0.000000 0.712428 0.000000
# 6 0.000000 0.000000 0.000000 0.000000 0.000000 0.011893
#
#
# Mechanical properties :
#
#
# Convention : Reuss Voigt Hill
#
# Bulk Modulus (GPa) = 32.34001 46.74234 39.54117
# Shear Modulus (GPa) = 3.55616 22.27005 12.91310
#
# Velocity S-wave (km/s) = 1.19982 3.00253 2.28635
# Velocity P-wave (km/s) = 3.87441 5.56256 4.79339
#
# Compressibility (1/GPa) = 0.03092145
#
# Stress axis : x y z
#
# Youngs Moduli (GPa) = -71.49576 -71.49576 43.64417
#
# Poissons Ratio (x) = 1.41454 0.03914
# Poissons Ratio (y) = 1.41454 0.03914
# Poissons Ratio (z) = -0.06412 -0.06412
#
# Static dielectric constant tensor:
#      x y z
#    x 1.974510 0.000000 0.000000 
#    y 0.000000 1.974510 0.000000 
#    z 0.000000 0.000000 1.870090 
# 
# From -- ./inp_files/6953.got.cif
#   From: 2010.05.17/outbox.cif.g08.bks.cpg/sg132_4_cif.got.tgz:6953.got - 2010.05.20 12:30:18.
