data_PCOD9567715
_publ_section_title
;
Structure prediction by ZEFSAII (Michael W. Deem and Ramdas Pophale) SiO2 
 PCOD9567715
Probable space group: P 42/N B C
;
_chemical_formula_sum "Si O2"
_cell_formula_units_Z 48
_cell_length_a 16.699195
_cell_length_b 16.699195
_cell_length_c 8.958714
_cell_angle_alpha 90.000000
_cell_angle_beta 90.000000
_cell_angle_gamma 90.000000
_cell_volume 2498.254880
_symmetry_space_group_name_H-M "P 42/N B C"
_symmetry_group_IT_number 133
_space_group.IT_coordinate_system_code '2'
_symmetry_cell_setting 'tetragonal'
loop_
_space_group_symop_operation_xyz
x,y,z
1/2-y,x,1/2+z
1/2-x,1/2-y,z
y,1/2-x,1/2+z
x,1/2-y,-z
1/2-x,y,-z
y,x,1/2-z
1/2-y,1/2-x,1/2-z
-x,-y,-z
1/2+y,-x,1/2-z
1/2+x,1/2+y,-z
-y,1/2+x,1/2-z
-x,1/2+y,z
1/2+x,-y,z
-y,-x,1/2+z
1/2+y,1/2+x,1/2+z
loop_
_atom_site_type_symbol
_atom_site_label
_atom_site_fract_x
_atom_site_fract_y
_atom_site_fract_z
Si Si1 0.211594 0.856695 0.832807
Si Si2 0.750000 0.887271 0.500000
Si Si3 0.864314 0.750000 0.500000
Si Si4 0.655765 0.969367 0.759551
O O1 0.282930 0.845988 0.710934
O O2 0.165624 0.939003 0.803861
O O3 0.250000 0.853198 0.000000
O O4 0.810963 0.821606 0.570644
O O5 0.700177 0.944030 0.608126
O O6 0.918104 0.795441 0.381077
O O7 0.566223 0.933778 0.750000
#
# Coordination Sequence:
#
# PCOD9567715 Si02
#       4
#    16   8   8  16
#     4  11  24  43  67  88 117 161 210 249 298 370
#     4   9  18  28  58  83 124 166 208 231 306 362
#     4   9  16  34  50  87 122 168 202 249 286 370
#     4  10  20  36  59  90 125 155 200 258 307 355
#
# _framework density 19.213411000000001
#
# number of rings (size 3 to 8) (size 9 to 14) (size 15 to 20)
#    0.000    2.000    1.667    3.000    4.667    4.000 
#    0.000    5.000    0.000    0.000    0.000    0.000 
#    0.000    0.000    0.000    0.000    0.000    0.000 
#
# Total GULP energy -267380.430210 kJ/mol
# GULP energy per Si atom -5570.425629 kJ/mol
# Density = 1.916968 g / cm^3
# Si number density = 19.213411 Si / 1000 Ang^3
#
#
#
# Elastic Constant Matrix: (Units=GPa)
#
#
# Indices 1 2 3 4 5 6 
#
# 1 101.5409 27.1876 23.1011 0.0000 0.0000 0.0000
# 2 27.1876 101.5398 23.1011 0.0000 0.0000 0.0000
# 3 23.1011 23.1011 80.1934 0.0000 0.0000 0.0000
# 4 0.0000 0.0000 0.0000 19.7812 0.0000 0.0000
# 5 0.0000 0.0000 0.0000 0.0000 19.7829 0.0000
# 6 0.0000 0.0000 0.0000 0.0000 0.0000 22.2615
#
#
#
# Elastic Compliance Matrix: (Units=1/GPa)
#
#
# Indices 1 2 3 4 5 6 
#
# 1 0.011057 -0.002393 -0.002496 0.000000 0.000000 0.000000
# 2 -0.002393 0.011057 -0.002496 0.000000 0.000000 0.000000
# 3 -0.002496 -0.002496 0.013908 0.000000 0.000000 0.000000
# 4 0.000000 0.000000 0.000000 0.050553 0.000000 0.000000
# 5 0.000000 0.000000 0.000000 0.000000 0.050549 0.000000
# 6 0.000000 0.000000 0.000000 0.000000 0.000000 0.044921
#
#
# Mechanical properties :
#
#
# Convention : Reuss Voigt Hill
#
# Bulk Modulus (GPa) = 47.05297 47.78372 47.41835
# Shear Modulus (GPa) = 24.52226 26.35742 25.43984
#
# Velocity S-wave (km/s) = 3.57642 3.70783 3.64272
# Velocity P-wave (km/s) = 6.44959 6.57683 6.51352
#
# Compressibility (1/GPa) = 0.02125264
#
# Stress axis : x y z
#
# Youngs Moduli (GPa) = 90.44299 90.44194 71.90207
#
# Poissons Ratio (x) = 0.21639 0.17946
# Poissons Ratio (y) = 0.21640 0.17946
# Poissons Ratio (z) = 0.22573 0.22573
#
# Static dielectric constant tensor:
#      x y z
#    x 1.681420 0.000000 0.000000 
#    y 0.000000 1.681420 0.000000 
#    z 0.000000 0.000000 1.706540 
# 
# From -- ./inp_files/1106.got.cif
#   From: 2010.05.17/outbox.cif.g08.bks.cpg/sg133_1_cif.got.tgz:1106.got - 2010.05.20 12:37:36.
