data_PCOD9567955
_publ_section_title
;
Structure prediction by ZEFSAII (Michael W. Deem and Ramdas Pophale) SiO2 
 PCOD9567955
Probable space group: P 42/N B C
;
_chemical_formula_sum "Si O2"
_cell_formula_units_Z 96
_cell_length_a 22.297098
_cell_length_b 22.297098
_cell_length_c 9.500281
_cell_angle_alpha 90.000000
_cell_angle_beta 90.000000
_cell_angle_gamma 90.000000
_cell_volume 4723.165205
_symmetry_space_group_name_H-M "P 42/N B C"
_symmetry_group_IT_number 133
_space_group.IT_coordinate_system_code '2'
_symmetry_cell_setting 'tetragonal'
loop_
_space_group_symop_operation_xyz
x,y,z
1/2-y,x,1/2+z
1/2-x,1/2-y,z
y,1/2-x,1/2+z
x,1/2-y,-z
1/2-x,y,-z
y,x,1/2-z
1/2-y,1/2-x,1/2-z
-x,-y,-z
1/2+y,-x,1/2-z
1/2+x,1/2+y,-z
-y,1/2+x,1/2-z
-x,1/2+y,z
1/2+x,-y,z
-y,-x,1/2+z
1/2+y,1/2+x,1/2+z
loop_
_atom_site_type_symbol
_atom_site_label
_atom_site_fract_x
_atom_site_fract_y
_atom_site_fract_z
Si Si1 0.906633 0.043483 0.198746
Si Si2 0.598243 0.969187 0.368201
Si Si3 0.394100 0.750000 0.000000
Si Si4 0.534583 0.213657 0.741837
Si Si5 0.634700 0.381462 0.942881
Si Si6 0.126044 0.090042 0.888500
Si Si7 0.054277 0.250000 0.500000
O O1 0.896129 0.074104 0.351050
O O2 0.975410 0.051452 0.145327
O O3 0.886396 0.975891 0.176795
O O4 0.869076 0.082483 0.087630
O O5 0.577548 0.922453 0.250000
O O6 0.602375 0.930943 0.510491
O O7 0.659665 0.000648 0.321826
O O8 0.436304 0.747741 0.136602
O O9 0.358806 0.687718 0.014325
O O10 0.589203 0.186194 0.651284
O O11 0.488162 0.243148 0.636046
O O12 0.130857 0.130857 0.750000
O O13 0.187713 0.089201 0.976440
#
# Coordination Sequence:
#
# PCOD9567955 Si02
#       7
#    16  16   8  16  16  16   8
#     4  11  20  38  61  94 136 167 214 269 339 400
#     4  11  20  39  57  95 135 169 216 270 330 402
#     4  12  24  40  68  91 132 179 228 266 338 398
#     4  11  25  41  65  93 130 173 221 278 339 393
#     4  11  21  40  60  96 126 175 223 268 324 399
#     4  12  24  37  64 100 133 174 217 268 344 411
#     4  12  24  44  64  97 139 176 216 282 338 408
#
# _framework density 20.325354000000001
#
# number of rings (size 3 to 8) (size 9 to 14) (size 15 to 20)
#    0.000    0.667    6.667    4.000    2.333    0.000 
#    0.000    0.000    0.000    4.000    0.000    7.000 
#    0.000    0.000    0.000    0.000    0.000    0.000 
#
# Total GULP energy -536435.485128 kJ/mol
# GULP energy per Si atom -5587.869637 kJ/mol
# Density = 2.027909 g / cm^3
# Si number density = 20.325354 Si / 1000 Ang^3
#
#
#
# Elastic Constant Matrix: (Units=GPa)
#
#
# Indices 1 2 3 4 5 6 
#
# 1 62.7721 13.7960 16.3040 0.0000 0.0000 0.0000
# 2 13.7960 62.7732 16.3029 0.0000 0.0000 0.0000
# 3 16.3040 16.3029 92.0517 0.0000 0.0000 0.0000
# 4 0.0000 0.0000 0.0000 20.1078 0.0000 0.0000
# 5 0.0000 0.0000 0.0000 0.0000 20.1066 0.0000
# 6 0.0000 0.0000 0.0000 0.0000 0.0000 6.0718
#
#
#
# Elastic Compliance Matrix: (Units=1/GPa)
#
#
# Indices 1 2 3 4 5 6 
#
# 1 0.017272 -0.003146 -0.002502 0.000000 0.000000 0.000000
# 2 -0.003146 0.017272 -0.002502 0.000000 0.000000 0.000000
# 3 -0.002502 -0.002502 0.011750 0.000000 0.000000 0.000000
# 4 0.000000 0.000000 0.000000 0.049732 0.000000 0.000000
# 5 0.000000 0.000000 0.000000 0.000000 0.049735 0.000000
# 6 0.000000 0.000000 0.000000 0.000000 0.000000 0.164697
#
#
# Mechanical properties :
#
#
# Convention : Reuss Voigt Hill
#
# Bulk Modulus (GPa) = 33.34047 34.48920 33.91484
# Shear Modulus (GPa) = 14.84762 20.67017 17.75890
#
# Velocity S-wave (km/s) = 2.70570 3.19245 2.95910
# Velocity P-wave (km/s) = 5.11860 5.53122 5.32891
#
# Compressibility (1/GPa) = 0.02999358
#
# Stress axis : x y z
#
# Youngs Moduli (GPa) = 57.89739 57.89877 85.10885
#
# Poissons Ratio (x) = 0.18216 0.21294
# Poissons Ratio (y) = 0.18215 0.21291
# Poissons Ratio (z) = 0.14486 0.14484
#
# Static dielectric constant tensor:
#      x y z
#    x 1.751300 0.000000 0.000000 
#    y 0.000000 1.751300 0.000000 
#    z 0.000000 0.000000 1.608470 
# 
# From -- ./inp_files/1965.got.cif
#   From: 2010.05.17/outbox.cif.g08.bks.cpg/sg133_1_cif.got.tgz:1965.got - 2010.05.20 12:37:36.
