data_PCOD9567925
_publ_section_title
;
Structure prediction by ZEFSAII (Michael W. Deem and Ramdas Pophale) SiO2 
 PCOD9567925
Probable space group: P 42/N B C
;
_chemical_formula_sum "Si O2"
_cell_formula_units_Z 24
_cell_length_a 9.758846
_cell_length_b 9.758846
_cell_length_c 10.540985
_cell_angle_alpha 90.000000
_cell_angle_beta 90.000000
_cell_angle_gamma 90.000000
_cell_volume 1003.871500
_symmetry_space_group_name_H-M "P 42/N B C"
_symmetry_group_IT_number 133
_space_group.IT_coordinate_system_code '2'
_symmetry_cell_setting 'tetragonal'
loop_
_space_group_symop_operation_xyz
x,y,z
1/2-y,x,1/2+z
1/2-x,1/2-y,z
y,1/2-x,1/2+z
x,1/2-y,-z
1/2-x,y,-z
y,x,1/2-z
1/2-y,1/2-x,1/2-z
-x,-y,-z
1/2+y,-x,1/2-z
1/2+x,1/2+y,-z
-y,1/2+x,1/2-z
-x,1/2+y,z
1/2+x,-y,z
-y,-x,1/2+z
1/2+y,1/2+x,1/2+z
loop_
_atom_site_type_symbol
_atom_site_label
_atom_site_fract_x
_atom_site_fract_y
_atom_site_fract_z
Si Si1 0.097369 0.499964 0.619726
Si Si2 0.750000 0.250000 0.500000
Si Si3 0.250000 0.250000 0.000000
O O1 0.015227 0.484774 0.750000
O O2 0.175876 0.642920 0.596158
O O3 0.178123 0.358309 0.595050
O O4 0.000000 0.500000 0.500000
#
# Coordination Sequence:
#
# PCOD9567925 Si02
#       3
#    16   4   4
#     4  11  25  45  72 106 146 194 247 310 381 455
#     4  10  26  44  72 110 152 196 254 320 388 458
#     4  10  24  46  72 102 142 190 250 310 366 438
#
# _framework density 23.907443000000001
#
# number of rings (size 3 to 8) (size 9 to 14) (size 15 to 20)
#    0.000    1.333    0.000    3.000    0.000   24.000 
#    0.000    0.000    0.000    0.000    0.000    0.000 
#    0.000    0.000    0.000    0.000    0.000    0.000 
#
# Total GULP energy -133826.573465 kJ/mol
# GULP energy per Si atom -5576.107228 kJ/mol
# Density = 2.385303 g / cm^3
# Si number density = 23.907443 Si / 1000 Ang^3
#
#
#
# Elastic Constant Matrix: (Units=GPa)
#
#
# Indices 1 2 3 4 5 6 
#
# 1 180.3967 106.4921 80.3947 0.0000 0.0000 0.0000
# 2 106.4921 180.3961 80.3944 0.0000 0.0000 0.0000
# 3 80.3947 80.3944 243.3524 0.0000 0.0000 0.0000
# 4 0.0000 0.0000 0.0000 49.1932 0.0000 0.0000
# 5 0.0000 0.0000 0.0000 0.0000 49.1882 0.0000
# 6 0.0000 0.0000 0.0000 0.0000 0.0000 -26.9853
#
#
#
# Elastic Compliance Matrix: (Units=1/GPa)
#
#
# Indices 1 2 3 4 5 6 
#
# 1 0.008904 -0.004627 -0.001413 0.000000 0.000000 0.000000
# 2 -0.004627 0.008904 -0.001413 0.000000 0.000000 0.000000
# 3 -0.001413 -0.001413 0.005043 0.000000 0.000000 0.000000
# 4 0.000000 0.000000 0.000000 0.020328 0.000000 0.000000
# 5 0.000000 0.000000 0.000000 0.000000 0.020330 0.000000
# 6 0.000000 0.000000 0.000000 0.000000 0.000000 -0.037057
#
#
# Mechanical properties :
#
#
# Convention : Reuss Voigt Hill
#
# Bulk Modulus (GPa) = 125.85517 126.52307 126.18912
# Shear Modulus (GPa) = 113.61753 36.73681 75.17717
#
# Velocity S-wave (km/s) = 6.90124 3.92424 5.61368
# Velocity P-wave (km/s) = 10.78238 8.57728 9.74242
#
# Compressibility (1/GPa) = 0.00794564
#
# Stress axis : x y z
#
# Youngs Moduli (GPa) = 112.30459 112.30432 198.29458
#
# Poissons Ratio (x) = 0.51959 0.28023
# Poissons Ratio (y) = 0.51959 0.28023
# Poissons Ratio (z) = 0.15871 0.15871
#
# Static dielectric constant tensor:
#      x y z
#    x 1.766550 0.000000 0.000000 
#    y 0.000000 1.766580 0.000000 
#    z 0.000000 0.000000 1.847190 
# 
# From -- ./inp_files/637.got.cif
#   From: 2010.05.17/outbox.cif.g08.bks.cpg/sg133_1_cif.got.tgz:637.got - 2010.05.20 12:37:36.
