data_PCOD9567002
_publ_section_title
;
Structure prediction by ZEFSAII (Michael W. Deem and Ramdas Pophale) SiO2 
 PCOD9567002
Probable space group: P 42/M C M
;
_chemical_formula_sum "Si O2"
_cell_formula_units_Z 80
_cell_length_a 17.340709
_cell_length_b 17.340709
_cell_length_c 15.277788
_cell_angle_alpha 90.000000
_cell_angle_beta 90.000000
_cell_angle_gamma 90.000000
_cell_volume 4594.033733
_symmetry_space_group_name_H-M "P 42/M C M"
_symmetry_group_IT_number 132
_symmetry_cell_setting 'tetragonal'
loop_
_space_group_symop_operation_xyz
x,y,z
-y,x,1/2+z
-x,-y,z
y,-x,1/2+z
x,-y,1/2-z
-x,y,1/2-z
y,x,-z
-y,-x,-z
-x,-y,-z
y,-x,1/2-z
x,y,-z
-y,x,1/2-z
-x,y,1/2+z
x,-y,1/2+z
-y,-x,z
y,x,z
loop_
_atom_site_type_symbol
_atom_site_label
_atom_site_fract_x
_atom_site_fract_y
_atom_site_fract_z
Si Si1 0.821458 0.698051 0.394208
Si Si2 0.107802 0.454819 0.660322
Si Si3 0.394500 0.947590 0.598579
Si Si4 0.052586 0.173968 0.606738
Si Si5 0.887741 0.767272 0.892938
O O1 0.823537 0.693309 0.500000
O O2 0.744297 0.744297 0.369319
O O3 0.832272 0.612692 0.357563
O O4 0.893138 0.753688 0.368421
O O5 0.118727 0.500000 0.750000
O O6 0.101571 0.527290 0.595075
O O7 0.024128 0.413860 0.652715
O O8 0.375022 0.974633 0.500000
O O9 0.321494 0.900244 0.633203
O O10 0.051492 0.172558 0.500000
O O11 0.096567 0.096567 0.635486
O O12 0.965157 0.187580 0.634948
O O13 0.812470 0.812470 0.861112
O O14 0.885004 0.767933 0.000000
#
# Coordination Sequence:
#
# PCOD9567002 Si02
#       5
#    16  16  16  16  16
#     4   9  16  29  50  73  98 130 167 201 239 293
#     4  11  20  30  46  71  97 122 157 206 254 304
#     4  10  18  30  47  65  93 132 169 203 246 296
#     4   8  13  22  38  61  90 124 163 204 237 268
#     4   9  16  25  39  62  92 125 164 206 242 277
#
# _framework density 17.413889000000001
#
# number of rings (size 3 to 8) (size 9 to 14) (size 15 to 20)
#    0.000    2.600    2.000    4.800    0.000    0.400 
#    0.000    3.000    0.000    0.000    0.000    0.000 
#    0.000    2.800    0.000   14.200    0.000    0.000 
#
# Total GULP energy -446006.663032 kJ/mol
# GULP energy per Si atom -5575.083288 kJ/mol
# Density = 1.737425 g / cm^3
# Si number density = 17.413889 Si / 1000 Ang^3
#
#
#
# Elastic Constant Matrix: (Units=GPa)
#
#
# Indices 1 2 3 4 5 6 
#
# 1 120.4526 71.5579 12.4927 0.0000 0.0000 0.0000
# 2 71.5579 120.4526 12.4927 0.0000 0.0000 0.0000
# 3 12.4927 12.4927 33.8090 0.0000 0.0000 0.0000
# 4 0.0000 0.0000 0.0000 5.3954 0.0000 0.0000
# 5 0.0000 0.0000 0.0000 0.0000 5.3954 0.0000
# 6 0.0000 0.0000 0.0000 0.0000 0.0000 25.1054
#
#
#
# Elastic Compliance Matrix: (Units=1/GPa)
#
#
# Indices 1 2 3 4 5 6 
#
# 1 0.012962 -0.007491 -0.002022 0.000000 0.000000 0.000000
# 2 -0.007491 0.012962 -0.002022 0.000000 0.000000 0.000000
# 3 -0.002022 -0.002022 0.031072 0.000000 0.000000 0.000000
# 4 0.000000 0.000000 0.000000 0.185343 0.000000 0.000000
# 5 0.000000 0.000000 0.000000 0.000000 0.185343 0.000000
# 6 0.000000 0.000000 0.000000 0.000000 0.000000 0.039832
#
#
# Mechanical properties :
#
#
# Convention : Reuss Voigt Hill
#
# Bulk Modulus (GPa) = 29.47448 51.97786 40.72617
# Shear Modulus (GPa) = 9.96234 19.05730 14.50982
#
# Velocity S-wave (km/s) = 2.39444 3.31172 2.88971
# Velocity P-wave (km/s) = 4.96055 6.67358 5.87978
#
# Compressibility (1/GPa) = 0.03392765
#
# Stress axis : x y z
#
# Youngs Moduli (GPa) = 77.15087 77.15087 32.18343
#
# Poissons Ratio (x) = 0.57790 0.06506
# Poissons Ratio (y) = 0.57790 0.06506
# Poissons Ratio (z) = 0.15597 0.15597
#
# Static dielectric constant tensor:
#      x y z
#    x 1.598210 0.000000 0.000000 
#    y 0.000000 1.598210 0.000000 
#    z 0.000000 0.000000 1.740100 
# 
# From -- ./inp_files/4632.got.cif
#   From: 2010.05.17/outbox.cif.g08.bks.cpg/sg132_3_cif.got.tgz:4632.got - 2010.05.20 12:30:18.
