data_PCOD9567191
_publ_section_title
;
Structure prediction by ZEFSAII (Michael W. Deem and Ramdas Pophale) SiO2 
 PCOD9567191
Probable space group: P 42/M C M
;
_chemical_formula_sum "Si O2"
_cell_formula_units_Z 64
_cell_length_a 11.853162
_cell_length_b 11.853162
_cell_length_c 20.987958
_cell_angle_alpha 90.000000
_cell_angle_beta 90.000000
_cell_angle_gamma 90.000000
_cell_volume 2948.754567
_symmetry_space_group_name_H-M "P 42/M C M"
_symmetry_group_IT_number 132
_symmetry_cell_setting 'tetragonal'
loop_
_space_group_symop_operation_xyz
x,y,z
-y,x,1/2+z
-x,-y,z
y,-x,1/2+z
x,-y,1/2-z
-x,y,1/2-z
y,x,-z
-y,-x,-z
-x,-y,-z
y,-x,1/2-z
x,y,-z
-y,x,1/2-z
-x,y,1/2+z
x,-y,1/2+z
-y,-x,z
y,x,z
loop_
_atom_site_type_symbol
_atom_site_label
_atom_site_fract_x
_atom_site_fract_y
_atom_site_fract_z
Si Si1 0.210883 0.037704 0.679366
Si Si2 0.785944 0.608034 0.641103
Si Si3 0.679400 0.139296 0.000000
Si Si4 0.695336 0.129577 0.500000
Si Si5 0.354354 0.178241 0.861032
O O1 0.101210 0.101210 0.649899
O O2 0.307590 0.132475 0.679228
O O3 0.180434 0.000000 0.750000
O O4 0.273666 0.930133 0.649550
O O5 0.659820 0.659820 0.647529
O O6 0.820499 0.622921 0.566198
O O7 0.814618 0.481806 0.662681
O O8 0.802020 0.197981 0.000000
O O9 0.685804 0.004647 0.000000
O O10 0.823351 0.176650 0.500000
O O11 0.637989 0.179815 0.562475
O O12 0.284862 0.284862 0.836747
#
# Coordination Sequence:
#
# PCOD9567191 Si02
#       5
#    16  16   8   8  16
#     4  11  24  42  63  87 117 155 199 249 305 366
#     4  10  22  39  62  90 119 159 207 247 292 352
#     4  10  19  36  60  88 122 162 200 239 292 355
#     4  10  21  34  54  90 128 159 193 239 299 360
#     4  11  23  38  60  90 124 161 198 244 300 356
#
# _framework density 21.704077999999999
#
# number of rings (size 3 to 8) (size 9 to 14) (size 15 to 20)
#    0.000    1.500    2.500    2.250    0.000    5.500 
#    0.000    2.500    0.000    4.500    0.000    3.500 
#    0.000    0.000    0.000    0.000    0.000    0.000 
#
# Total GULP energy -357014.378357 kJ/mol
# GULP energy per Si atom -5578.349662 kJ/mol
# Density = 2.165468 g / cm^3
# Si number density = 21.704078 Si / 1000 Ang^3
#
#
#
# Elastic Constant Matrix: (Units=GPa)
#
#
# Indices 1 2 3 4 5 6 
#
# 1 73.5251 123.6012 8.2199 0.0000 0.0000 0.0000
# 2 123.6012 73.5308 8.2201 0.0000 0.0000 0.0000
# 3 8.2199 8.2201 34.0238 0.0000 0.0000 0.0000
# 4 0.0000 0.0000 0.0000 -35.4025 0.0000 0.0000
# 5 0.0000 0.0000 0.0000 0.0000 -35.3977 0.0000
# 6 0.0000 0.0000 0.0000 0.0000 0.0000 16.6301
#
#
#
# Elastic Compliance Matrix: (Units=1/GPa)
#
#
# Indices 1 2 3 4 5 6 
#
# 1 -0.007397 0.012574 -0.001251 0.000000 0.000000 0.000000
# 2 0.012574 -0.007397 -0.001251 0.000000 0.000000 0.000000
# 3 -0.001251 -0.001251 0.029996 0.000000 0.000000 0.000000
# 4 0.000000 0.000000 0.000000 -0.028247 0.000000 0.000000
# 5 0.000000 0.000000 0.000000 0.000000 -0.028250 0.000000
# 6 0.000000 0.000000 0.000000 0.000000 0.000000 0.060132
#
#
# Mechanical properties :
#
#
# Convention : Reuss Voigt Hill
#
# Bulk Modulus (GPa) = 28.29117 51.24026 39.76571
# Shear Modulus (GPa) = 477.35739 -8.09812 234.62963
#
# Velocity S-wave (km/s) = 14.84643 -1.93371 10.40858
# Velocity P-wave (km/s) = 17.52004 4.32136 12.75982
#
# Compressibility (1/GPa) = 0.03534671
#
# Stress axis : x y z
#
# Youngs Moduli (GPa) = -135.18816 -135.19871 33.33827
#
# Poissons Ratio (x) = 1.69998 0.04170
# Poissons Ratio (y) = 1.69985 0.04170
# Poissons Ratio (z) = -0.16909 -0.16910
#
# Static dielectric constant tensor:
#      x y z
#    x 1.809790 0.000000 0.000000 
#    y 0.000000 1.809790 0.000000 
#    z 0.000000 0.000000 1.836460 
# 
# From -- ./inp_files/8723.got.cif
#   From: 2010.05.17/outbox.cif.g08.bks.cpg/sg132_5_cif.got.tgz:8723.got - 2010.05.20 12:30:18.
