data_PCOD9567445
_publ_section_title
;
Structure prediction by ZEFSAII (Michael W. Deem and Ramdas Pophale) SiO2 
 PCOD9567445
Probable space group: P 42/M C M
;
_chemical_formula_sum "Si O2"
_cell_formula_units_Z 96
_cell_length_a 16.898753
_cell_length_b 16.898753
_cell_length_c 17.187353
_cell_angle_alpha 90.000000
_cell_angle_beta 90.000000
_cell_angle_gamma 90.000000
_cell_volume 4908.155494
_symmetry_space_group_name_H-M "P 42/M C M"
_symmetry_group_IT_number 132
_symmetry_cell_setting 'tetragonal'
loop_
_space_group_symop_operation_xyz
x,y,z
-y,x,1/2+z
-x,-y,z
y,-x,1/2+z
x,-y,1/2-z
-x,y,1/2-z
y,x,-z
-y,-x,-z
-x,-y,-z
y,-x,1/2-z
x,y,-z
-y,x,1/2-z
-x,y,1/2+z
x,-y,1/2+z
-y,-x,z
y,x,z
loop_
_atom_site_type_symbol
_atom_site_label
_atom_site_fract_x
_atom_site_fract_y
_atom_site_fract_z
Si Si1 0.191313 0.808688 0.913646
Si Si2 0.892492 0.338871 0.591669
Si Si3 0.679439 0.071453 0.093921
Si Si4 0.620204 0.620204 0.913370
Si Si5 0.300824 0.300824 0.654261
Si Si6 0.506593 0.120203 0.839447
Si Si7 0.484909 0.696640 0.835946
Si Si8 0.737422 0.262579 0.328142
O O1 0.120594 0.756442 0.877786
O O2 0.258602 0.741399 0.916016
O O3 0.165859 0.834142 0.000000
O O4 0.873639 0.331996 0.500000
O O5 0.909001 0.432114 0.610538
O O6 0.821528 0.295342 0.638767
O O7 0.979148 0.304051 0.608697
O O8 0.594964 0.100431 0.129869
O O9 0.672812 0.082473 0.000000
O O10 0.530127 0.642290 0.896550
O O11 0.672471 0.672471 0.854954
O O12 0.642827 0.642827 0.000000
O O13 0.393531 0.290832 0.651603
O O14 0.265915 0.265915 0.734674
O O15 0.500000 0.093042 0.750000
O O16 0.485060 0.213682 0.838602
O O17 0.500000 0.663122 0.750000
#
# Coordination Sequence:
#
# PCOD9567445 Si02
#       8
#     8  16  16   8   8  16  16   8
#     4  10  22  40  61  83 114 156 199 242 287 351
#     4  11  23  38  59  87 122 156 193 243 301 363
#     4  10  22  39  59  86 118 157 198 241 299 361
#     4  12  24  37  59  86 114 155 207 251 295 345
#     4  12  22  41  64  84 114 158 208 243 294 353
#     4  11  21  35  57  87 122 154 195 245 300 357
#     4  11  21  38  57  81 116 159 198 246 299 349
#     4  12  22  40  62  89 118 156 196 245 299 361
#
# _framework density 19.559283000000001
#
# number of rings (size 3 to 8) (size 9 to 14) (size 15 to 20)
#    0.000    1.000    5.000    2.750    0.000    4.333 
#    0.000    1.250    0.000    0.500    0.000    2.917 
#    0.000    1.333    0.000    0.083    0.000    0.000 
#
# Total GULP energy -535191.614447 kJ/mol
# GULP energy per Si atom -5574.912650 kJ/mol
# Density = 1.951477 g / cm^3
# Si number density = 19.559283 Si / 1000 Ang^3
#
#
#
# Elastic Constant Matrix: (Units=GPa)
#
#
# Indices 1 2 3 4 5 6 
#
# 1 325.3843 -179.2543 25.3588 0.0000 0.0000 0.0000
# 2 -179.2543 325.3827 25.3564 0.0000 0.0000 0.0000
# 3 25.3588 25.3564 65.6875 0.0000 0.0000 0.0000
# 4 0.0000 0.0000 0.0000 56.1527 0.0000 0.0000
# 5 0.0000 0.0000 0.0000 0.0000 56.1511 0.0000
# 6 0.0000 0.0000 0.0000 0.0000 0.0000 27.5595
#
#
#
# Elastic Compliance Matrix: (Units=1/GPa)
#
#
# Indices 1 2 3 4 5 6 
#
# 1 0.004942 0.002960 -0.003050 0.000000 0.000000 0.000000
# 2 0.002960 0.004942 -0.003050 0.000000 0.000000 0.000000
# 3 -0.003050 -0.003050 0.017579 0.000000 0.000000 0.000000
# 4 0.000000 0.000000 0.000000 0.017809 0.000000 0.000000
# 5 0.000000 0.000000 0.000000 0.000000 0.017809 0.000000
# 6 0.000000 0.000000 0.000000 0.000000 0.000000 0.036285
#
#
# Mechanical properties :
#
#
# Convention : Reuss Voigt Hill
#
# Bulk Modulus (GPa) = 47.21230 51.04182 49.12706
# Shear Modulus (GPa) = 44.36295 84.30557 64.33426
#
# Velocity S-wave (km/s) = 4.76765 6.57238 5.74137
# Velocity P-wave (km/s) = 7.38226 9.15137 8.31400
#
# Compressibility (1/GPa) = 0.02118092
#
# Stress axis : x y z
#
# Youngs Moduli (GPa) = 202.35641 202.35660 56.88697
#
# Poissons Ratio (x) = -0.59901 0.17353
# Poissons Ratio (y) = -0.59901 0.17353
# Poissons Ratio (z) = 0.61728 0.61726
#
# Static dielectric constant tensor:
#      x y z
#    x 1.760400 0.000000 0.000000 
#    y 0.000000 1.760400 0.000000 
#    z 0.000000 0.000000 1.714350 
# 
# From -- ./inp_files/6522.got.cif
#   From: 2010.05.17/outbox.cif.g08.bks.cpg/sg132_4_cif.got.tgz:6522.got - 2010.05.20 12:30:18.
