data_PCOD9567836
_publ_section_title
;
Structure prediction by ZEFSAII (Michael W. Deem and Ramdas Pophale) SiO2 
 PCOD9567836
Probable space group: P 42/N B C
;
_chemical_formula_sum "Si O2"
_cell_formula_units_Z 64
_cell_length_a 19.159420
_cell_length_b 19.159420
_cell_length_c 8.188288
_cell_angle_alpha 90.000000
_cell_angle_beta 90.000000
_cell_angle_gamma 90.000000
_cell_volume 3005.784392
_symmetry_space_group_name_H-M "P 42/N B C"
_symmetry_group_IT_number 133
_space_group.IT_coordinate_system_code '2'
_symmetry_cell_setting 'tetragonal'
loop_
_space_group_symop_operation_xyz
x,y,z
1/2-y,x,1/2+z
1/2-x,1/2-y,z
y,1/2-x,1/2+z
x,1/2-y,-z
1/2-x,y,-z
y,x,1/2-z
1/2-y,1/2-x,1/2-z
-x,-y,-z
1/2+y,-x,1/2-z
1/2+x,1/2+y,-z
-y,1/2+x,1/2-z
-x,1/2+y,z
1/2+x,-y,z
-y,-x,1/2+z
1/2+y,1/2+x,1/2+z
loop_
_atom_site_type_symbol
_atom_site_label
_atom_site_fract_x
_atom_site_fract_y
_atom_site_fract_z
Si Si1 0.062276 0.353088 0.611517
Si Si2 0.699099 0.598807 0.230436
Si Si3 0.971928 0.326867 0.056880
Si Si4 0.550892 0.432580 0.242051
O O1 0.102180 0.397821 0.750000
O O2 0.080132 0.351539 0.421040
O O3 0.077435 0.275369 0.673005
O O4 0.984663 0.382910 0.621584
O O5 0.680492 0.680492 0.250000
O O6 0.685824 0.551601 0.388371
O O7 0.940710 0.367795 0.213751
O O8 0.945273 0.250000 0.000000
O O9 0.964232 0.385708 0.917790
O O10 0.505531 0.505531 0.250000
#
# Coordination Sequence:
#
# PCOD9567836 Si02
#       4
#    16  16  16  16
#     4  10  22  39  61  95 134 178 227 276 331 409
#     4  11  22  37  62  94 135 178 221 278 343 404
#     4  12  24  42  67 103 134 172 229 287 345 409
#     4  11  22  41  68  97 135 175 229 280 342 406
#
# _framework density 21.292278
#
# number of rings (size 3 to 8) (size 9 to 14) (size 15 to 20)
#    0.000    1.000    2.500    6.000    0.000    0.500 
#    0.000    2.500    0.000    2.250    0.000    0.000 
#    0.000    0.000    0.000    0.000    0.000    0.000 
#
# Total GULP energy -356303.196834 kJ/mol
# GULP energy per Si atom -5567.237451 kJ/mol
# Density = 2.124382 g / cm^3
# Si number density = 21.292278 Si / 1000 Ang^3
#
#
#
# Elastic Constant Matrix: (Units=GPa)
#
#
# Indices 1 2 3 4 5 6 
#
# 1 104.4159 56.1491 29.2431 0.0000 0.0000 0.0000
# 2 56.1491 104.4158 29.2415 0.0000 0.0000 0.0000
# 3 29.2431 29.2415 100.0182 0.0000 0.0000 0.0000
# 4 0.0000 0.0000 0.0000 26.8240 0.0000 0.0000
# 5 0.0000 0.0000 0.0000 0.0000 26.8240 0.0000
# 6 0.0000 0.0000 0.0000 0.0000 0.0000 20.4358
#
#
#
# Elastic Compliance Matrix: (Units=1/GPa)
#
#
# Indices 1 2 3 4 5 6 
#
# 1 0.013844 -0.006874 -0.002038 0.000000 0.000000 0.000000
# 2 -0.006874 0.013844 -0.002038 0.000000 0.000000 0.000000
# 3 -0.002038 -0.002038 0.011190 0.000000 0.000000 0.000000
# 4 0.000000 0.000000 0.000000 0.037280 0.000000 0.000000
# 5 0.000000 0.000000 0.000000 0.000000 0.037280 0.000000
# 6 0.000000 0.000000 0.000000 0.000000 0.000000 0.048934
#
#
# Mechanical properties :
#
#
# Convention : Reuss Voigt Hill
#
# Bulk Modulus (GPa) = 58.89697 59.79082 59.34390
# Shear Modulus (GPa) = 26.32531 27.76451 27.04491
#
# Velocity S-wave (km/s) = 3.52003 3.61497 3.56782
# Velocity P-wave (km/s) = 6.65147 6.75026 6.70105
#
# Compressibility (1/GPa) = 0.01697880
#
# Stress axis : x y z
#
# Youngs Moduli (GPa) = 72.23181 72.23252 89.36686
#
# Poissons Ratio (x) = 0.49652 0.18214
# Poissons Ratio (y) = 0.49652 0.18210
# Poissons Ratio (z) = 0.14722 0.14719
#
# Static dielectric constant tensor:
#      x y z
#    x 1.833180 0.000000 0.000000 
#    y 0.000000 1.833180 0.000000 
#    z 0.000000 0.000000 2.095500 
# 
# From -- ./inp_files/1567.got.cif
#   From: 2010.05.17/outbox.cif.g08.bks.cpg/sg133_1_cif.got.tgz:1567.got - 2010.05.20 12:37:36.
