data_PCOD9567995
_publ_section_title
;
Structure prediction by ZEFSAII (Michael W. Deem and Ramdas Pophale) SiO2 
 PCOD9567995
Probable space group: P 42/N B C
;
_chemical_formula_sum "Si O2"
_cell_formula_units_Z 52
_cell_length_a 14.786559
_cell_length_b 14.786559
_cell_length_c 11.261662
_cell_angle_alpha 90.000000
_cell_angle_beta 90.000000
_cell_angle_gamma 90.000000
_cell_volume 2462.275986
_symmetry_space_group_name_H-M "P 42/N B C"
_symmetry_group_IT_number 133
_space_group.IT_coordinate_system_code '2'
_symmetry_cell_setting 'tetragonal'
loop_
_space_group_symop_operation_xyz
x,y,z
1/2-y,x,1/2+z
1/2-x,1/2-y,z
y,1/2-x,1/2+z
x,1/2-y,-z
1/2-x,y,-z
y,x,1/2-z
1/2-y,1/2-x,1/2-z
-x,-y,-z
1/2+y,-x,1/2-z
1/2+x,1/2+y,-z
-y,1/2+x,1/2-z
-x,1/2+y,z
1/2+x,-y,z
-y,-x,1/2+z
1/2+y,1/2+x,1/2+z
loop_
_atom_site_type_symbol
_atom_site_label
_atom_site_fract_x
_atom_site_fract_y
_atom_site_fract_z
Si Si1 0.750000 0.750000 0.750000
Si Si2 0.959790 0.470859 0.627970
Si Si3 0.271632 0.442583 0.636030
Si Si4 0.385455 0.702668 0.726067
O O1 0.842062 0.751208 0.824163
O O2 0.877001 0.538094 0.649639
O O3 0.915286 0.369854 0.626206
O O4 0.019495 0.480506 0.750000
O O5 0.000000 0.500000 0.500000
O O6 0.250000 0.453494 0.500000
O O7 0.220480 0.522308 0.704360
O O8 0.303276 0.654367 0.799412
#
# Coordination Sequence:
#
# PCOD9567995 Si02
#       4
#     4  16  16  16
#     4  12  26  44  64 102 144 180 244 290 374 440
#     4  11  23  43  70 108 144 187 240 296 364 430
#     4  11  24  44  68 100 143 188 239 293 363 436
#     4   9  21  44  71 101 141 187 240 299 358 432
#
# _framework density 21.118670999999999
#
# number of rings (size 3 to 8) (size 9 to 14) (size 15 to 20)
#    0.000    1.538    1.538    2.308    6.462    0.000 
#    0.000   33.846    0.000    0.000    0.000    0.000 
#    0.000    0.000    0.000    0.000    0.000    0.000 
#
# Total GULP energy -289806.772828 kJ/mol
# GULP energy per Si atom -5573.207170 kJ/mol
# Density = 2.107060 g / cm^3
# Si number density = 21.118671 Si / 1000 Ang^3
#
#
#
# Elastic Constant Matrix: (Units=GPa)
#
#
# Indices 1 2 3 4 5 6 
#
# 1 160.1161 44.1015 49.0299 0.0000 0.0000 0.0000
# 2 44.1015 160.1158 49.0305 0.0000 0.0000 0.0000
# 3 49.0299 49.0305 92.9097 0.0000 0.0000 0.0000
# 4 0.0000 0.0000 0.0000 33.9431 0.0000 0.0000
# 5 0.0000 0.0000 0.0000 0.0000 33.9384 0.0000
# 6 0.0000 0.0000 0.0000 0.0000 0.0000 -0.2269
#
#
#
# Elastic Compliance Matrix: (Units=1/GPa)
#
#
# Indices 1 2 3 4 5 6 
#
# 1 0.007589 -0.001030 -0.003461 0.000000 0.000000 0.000000
# 2 -0.001030 0.007589 -0.003461 0.000000 0.000000 0.000000
# 3 -0.003461 -0.003461 0.014416 0.000000 0.000000 0.000000
# 4 0.000000 0.000000 0.000000 0.029461 0.000000 0.000000
# 5 0.000000 0.000000 0.000000 0.000000 0.029465 0.000000
# 6 0.000000 0.000000 0.000000 0.000000 0.000000 -4.407290
#
#
# Mechanical properties :
#
#
# Convention : Reuss Voigt Hill
#
# Bulk Modulus (GPa) = 73.05151 77.49614 75.27383
# Shear Modulus (GPa) = -1.16325 31.59623 15.21649
#
# Velocity S-wave (km/s) = -0.74297 3.87218 2.68717
# Velocity P-wave (km/s) = 5.82495 7.53438 6.73413
#
# Compressibility (1/GPa) = 0.01368897
#
# Stress axis : x y z
#
# Youngs Moduli (GPa) = 131.76734 131.76646 69.36662
#
# Poissons Ratio (x) = 0.13578 0.24009
# Poissons Ratio (y) = 0.13578 0.24009
# Poissons Ratio (z) = 0.45606 0.45607
#
# Static dielectric constant tensor:
#      x y z
#    x 1.843450 0.000000 0.000000 
#    y 0.000000 1.843450 0.000000 
#    z 0.000000 0.000000 1.742660 
# 
# From -- ./inp_files/2768.got.cif
#   From: 2010.05.17/outbox.cif.g08.bks.cpg/sg133_2_cif.got.tgz:2768.got - 2010.05.20 12:37:36.
