data_PCOD9567137
_publ_section_title
;
Structure prediction by ZEFSAII (Michael W. Deem and Ramdas Pophale) SiO2 
 PCOD9567137
Probable space group: P 42/M C M
;
_chemical_formula_sum "Si O2"
_cell_formula_units_Z 96
_cell_length_a 15.379140
_cell_length_b 15.379140
_cell_length_c 20.990270
_cell_angle_alpha 90.000000
_cell_angle_beta 90.000000
_cell_angle_gamma 90.000000
_cell_volume 4964.575570
_symmetry_space_group_name_H-M "P 42/M C M"
_symmetry_group_IT_number 132
_symmetry_cell_setting 'tetragonal'
loop_
_space_group_symop_operation_xyz
x,y,z
-y,x,1/2+z
-x,-y,z
y,-x,1/2+z
x,-y,1/2-z
-x,y,1/2-z
y,x,-z
-y,-x,-z
-x,-y,-z
y,-x,1/2-z
x,y,-z
-y,x,1/2-z
-x,y,1/2+z
x,-y,1/2+z
-y,-x,z
y,x,z
loop_
_atom_site_type_symbol
_atom_site_label
_atom_site_fract_x
_atom_site_fract_y
_atom_site_fract_z
Si Si1 0.816504 0.321269 0.702227
Si Si2 0.918412 0.696436 0.430664
Si Si3 0.465326 0.669981 0.680901
Si Si4 0.778197 0.081104 0.797582
Si Si5 0.062319 0.427165 0.114147
Si Si6 0.450547 0.779972 0.927250
O O1 0.765081 0.234920 0.678555
O O2 0.746861 0.397996 0.699525
O O3 0.854053 0.296750 0.770908
O O4 0.895779 0.356789 0.660866
O O5 0.915172 0.738896 0.500000
O O6 0.935288 0.758150 0.371081
O O7 0.829573 0.641433 0.421049
O O8 0.996018 0.625240 0.430063
O O9 0.500000 0.642998 0.750000
O O10 0.409152 0.590849 0.652839
O O11 0.530295 0.710379 0.628472
O O12 0.868132 0.131869 0.791212
O O13 0.777576 0.000000 0.750000
O O14 0.142718 0.477546 0.081813
O O15 0.000000 0.500000 0.146584
O O16 0.457483 0.746344 0.000000
#
# Coordination Sequence:
#
# PCOD9567137 Si02
#       6
#    16  16  16  16  16  16
#     4   9  18  33  52  77 110 144 182 231 284 336
#     4  10  19  33  54  82 116 146 178 224 279 336
#     4  10  20  34  53  77 109 149 191 236 282 329
#     4  11  22  37  57  78 104 141 187 233 278 333
#     4   9  16  29  52  81 114 146 181 224 279 337
#     4   9  18  32  53  83 116 148 180 221 279 341
#
# _framework density 19.337001000000001
#
# number of rings (size 3 to 8) (size 9 to 14) (size 15 to 20)
#    0.000    2.333    1.667    1.500    0.000    3.000 
#    0.000    2.500    0.000    4.500    0.000    2.333 
#    0.000    0.000    0.000    0.000    0.000    0.000 
#
# Total GULP energy -534850.621100 kJ/mol
# GULP energy per Si atom -5571.360636 kJ/mol
# Density = 1.929299 g / cm^3
# Si number density = 19.337001 Si / 1000 Ang^3
#
#
#
# Elastic Constant Matrix: (Units=GPa)
#
#
# Indices 1 2 3 4 5 6 
#
# 1 43.5900 27.1134 41.3057 0.0000 0.0000 0.0000
# 2 27.1134 43.5900 41.3057 0.0000 0.0000 0.0000
# 3 41.3057 41.3057 142.4982 0.0000 0.0000 0.0000
# 4 0.0000 0.0000 0.0000 7.3921 0.0000 0.0000
# 5 0.0000 0.0000 0.0000 0.0000 7.3921 0.0000
# 6 0.0000 0.0000 0.0000 0.0000 0.0000 15.1027
#
#
#
# Elastic Compliance Matrix: (Units=1/GPa)
#
#
# Indices 1 2 3 4 5 6 
#
# 1 0.041040 -0.019653 -0.006199 0.000000 0.000000 0.000000
# 2 -0.019653 0.041040 -0.006199 0.000000 0.000000 0.000000
# 3 -0.006199 -0.006199 0.010612 0.000000 0.000000 0.000000
# 4 0.000000 0.000000 0.000000 0.135280 0.000000 0.000000
# 5 0.000000 0.000000 0.000000 0.000000 0.135280 0.000000
# 6 0.000000 0.000000 0.000000 0.000000 0.000000 0.066213
#
#
# Mechanical properties :
#
#
# Convention : Reuss Voigt Hill
#
# Bulk Modulus (GPa) = 34.97946 49.90311 42.44129
# Shear Modulus (GPa) = 9.93846 13.97426 11.95636
#
# Velocity S-wave (km/s) = 2.26953 2.69117 2.48929
# Velocity P-wave (km/s) = 4.99964 5.95983 5.50072
#
# Compressibility (1/GPa) = 0.02858820
#
# Stress axis : x y z
#
# Youngs Moduli (GPa) = 24.36659 24.36659 94.23562
#
# Poissons Ratio (x) = 0.47887 0.58421
# Poissons Ratio (y) = 0.47887 0.58421
# Poissons Ratio (z) = 0.15106 0.15106
#
# Static dielectric constant tensor:
#      x y z
#    x 1.695280 0.000000 0.000000 
#    y 0.000000 1.695280 0.000000 
#    z 0.000000 0.000000 1.664860 
# 
# From -- ./inp_files/7911.got.cif
#   From: 2010.05.17/outbox.cif.g08.bks.cpg/sg132_4_cif.got.tgz:7911.got - 2010.05.20 12:30:18.
