data_PCOD9567601
_publ_section_title
;
Structure prediction by ZEFSAII (Michael W. Deem and Ramdas Pophale) SiO2 
 PCOD9567601
Probable space group: P 42/N B C
;
_chemical_formula_sum "Si O2"
_cell_formula_units_Z 120
_cell_length_a 20.715074
_cell_length_b 20.715074
_cell_length_c 14.725764
_cell_angle_alpha 90.000000
_cell_angle_beta 90.000000
_cell_angle_gamma 90.000000
_cell_volume 6319.035776
_symmetry_space_group_name_H-M "P 42/N B C"
_symmetry_group_IT_number 133
_space_group.IT_coordinate_system_code '2'
_symmetry_cell_setting 'tetragonal'
loop_
_space_group_symop_operation_xyz
x,y,z
1/2-y,x,1/2+z
1/2-x,1/2-y,z
y,1/2-x,1/2+z
x,1/2-y,-z
1/2-x,y,-z
y,x,1/2-z
1/2-y,1/2-x,1/2-z
-x,-y,-z
1/2+y,-x,1/2-z
1/2+x,1/2+y,-z
-y,1/2+x,1/2-z
-x,1/2+y,z
1/2+x,-y,z
-y,-x,1/2+z
1/2+y,1/2+x,1/2+z
loop_
_atom_site_type_symbol
_atom_site_label
_atom_site_fract_x
_atom_site_fract_y
_atom_site_fract_z
Si Si1 0.558137 0.839805 0.250044
Si Si2 0.814953 0.350153 0.531621
Si Si3 0.502523 0.921461 0.591736
Si Si4 0.750000 0.425519 0.000000
Si Si5 0.649088 0.063862 0.372190
Si Si6 0.885424 0.348759 0.216752
Si Si7 0.211359 0.003969 0.826045
Si Si8 0.976509 0.432710 0.619468
O O1 0.630746 0.869255 0.250000
O O2 0.509342 0.839236 0.162306
O O3 0.550591 0.766445 0.286382
O O4 0.523794 0.893184 0.315010
O O5 0.750000 0.317663 0.500000
O O6 0.878752 0.310877 0.506558
O O7 0.820314 0.414714 0.467889
O O8 0.806760 0.352935 0.639615
O O9 0.427648 0.927374 0.618191
O O10 0.531379 0.857119 0.636978
O O11 0.500841 0.918283 0.482475
O O12 0.528849 0.989845 0.625465
O O13 0.755609 0.469156 0.911780
O O14 0.660050 0.116825 0.291689
O O15 0.909520 0.406894 0.151652
O O16 0.945754 0.310421 0.259246
#
# Coordination Sequence:
#
# PCOD9567601 Si02
#       8
#    16  16  16   8  16  16  16  16
#     4  11  21  33  53  80 110 150 190 239 293 356
#     4  12  23  36  52  71 106 149 196 238 283 340
#     4  10  18  34  56  86 110 144 184 244 302 356
#     4  12  21  40  50  74 104 152 199 246 272 336
#     4  10  19  36  51  76 104 139 189 240 289 352
#     4  10  20  36  56  78 106 145 183 240 297 345
#     4  11  22  35  56  77 115 147 188 233 305 353
#     4  10  19  33  60  84 111 140 189 245 301 349
#
# _framework density 18.990238999999999
#
# number of rings (size 3 to 8) (size 9 to 14) (size 15 to 20)
#    0.000    1.333    5.333    3.400    0.000    0.000 
#    0.000    0.000    2.933    0.000    0.000    1.867 
#    0.000    0.000    0.000   12.933    0.000    0.000 
#
# Total GULP energy -668561.929782 kJ/mol
# GULP energy per Si atom -5571.349415 kJ/mol
# Density = 1.894702 g / cm^3
# Si number density = 18.990239 Si / 1000 Ang^3
#
#
#
# Elastic Constant Matrix: (Units=GPa)
#
#
# Indices 1 2 3 4 5 6 
#
# 1 60.7946 14.8559 -6.8043 0.0000 0.0000 0.0000
# 2 14.8559 60.7955 -6.8048 0.0000 0.0000 0.0000
# 3 -6.8043 -6.8048 40.8860 0.0000 0.0000 0.0000
# 4 0.0000 0.0000 0.0000 13.3157 0.0000 0.0000
# 5 0.0000 0.0000 0.0000 0.0000 13.3164 0.0000
# 6 0.0000 0.0000 0.0000 0.0000 0.0000 27.3363
#
#
#
# Elastic Compliance Matrix: (Units=1/GPa)
#
#
# Indices 1 2 3 4 5 6 
#
# 1 0.017697 -0.004071 0.002268 0.000000 0.000000 0.000000
# 2 -0.004071 0.017697 0.002268 0.000000 0.000000 0.000000
# 3 0.002268 0.002268 0.025213 0.000000 0.000000 0.000000
# 4 0.000000 0.000000 0.000000 0.075099 0.000000 0.000000
# 5 0.000000 0.000000 0.000000 0.000000 0.075095 0.000000
# 6 0.000000 0.000000 0.000000 0.000000 0.000000 0.036581
#
#
# Mechanical properties :
#
#
# Convention : Reuss Voigt Hill
#
# Bulk Modulus (GPa) = 16.25022 18.32996 17.29009
# Shear Modulus (GPa) = 18.72898 21.54231 20.13564
#
# Velocity S-wave (km/s) = 3.14386 3.37172 3.25978
# Velocity P-wave (km/s) = 4.66414 4.98310 4.82625
#
# Compressibility (1/GPa) = 0.06153761
#
# Stress axis : x y z
#
# Youngs Moduli (GPa) = 56.50565 56.50636 39.66187
#
# Poissons Ratio (x) = 0.23002 -0.08994
# Poissons Ratio (y) = 0.23002 -0.08995
# Poissons Ratio (z) = -0.12814 -0.12815
#
# Static dielectric constant tensor:
#      x y z
#    x 1.728210 0.000000 0.000000 
#    y 0.000000 1.728200 0.000000 
#    z 0.000000 0.000000 1.731750 
# 
# From -- ./inp_files/4702.got.cif
#   From: 2010.05.17/outbox.cif.g08.bks.cpg/sg133_3_cif.got.tgz:4702.got - 2010.05.20 12:37:36.
