data_PCOD9567120
_publ_section_title
;
Structure prediction by ZEFSAII (Michael W. Deem and Ramdas Pophale) SiO2 
 PCOD9567120
Probable space group: P 42/M C M
;
_chemical_formula_sum "Si O2"
_cell_formula_units_Z 96
_cell_length_a 24.858012
_cell_length_b 24.858012
_cell_length_c 8.563801
_cell_angle_alpha 90.000000
_cell_angle_beta 90.000000
_cell_angle_gamma 90.000000
_cell_volume 5291.750427
_symmetry_space_group_name_H-M "P 42/M C M"
_symmetry_group_IT_number 132
_symmetry_cell_setting 'tetragonal'
loop_
_space_group_symop_operation_xyz
x,y,z
-y,x,1/2+z
-x,-y,z
y,-x,1/2+z
x,-y,1/2-z
-x,y,1/2-z
y,x,-z
-y,-x,-z
-x,-y,-z
y,-x,1/2-z
x,y,-z
-y,x,1/2-z
-x,y,1/2+z
x,-y,1/2+z
-y,-x,z
y,x,z
loop_
_atom_site_type_symbol
_atom_site_label
_atom_site_fract_x
_atom_site_fract_y
_atom_site_fract_z
Si Si1 0.942557 0.439694 0.187405
Si Si2 0.732542 0.355210 0.188943
Si Si3 0.264749 0.941892 0.187155
Si Si4 0.856166 0.352315 0.190206
Si Si5 0.057268 0.855295 0.687082
Si Si6 0.351707 0.439529 0.187182
O O1 0.936617 0.500000 0.250000
O O2 0.891954 0.403671 0.236613
O O3 0.000000 0.418759 0.250000
O O4 0.945137 0.440184 0.000000
O O5 0.697190 0.302811 0.234441
O O6 0.794389 0.352707 0.243421
O O7 0.700158 0.406785 0.251613
O O8 0.732541 0.357671 0.000000
O O9 0.301424 0.892116 0.239585
O O10 0.203962 0.934370 0.244166
O O11 0.283527 0.000000 0.250000
O O12 0.266076 0.944276 0.000000
O O13 0.854469 0.351698 0.000000
O O14 0.054929 0.851580 0.500000
O O15 0.104652 0.895349 0.732674
O O16 0.000000 0.875272 0.750000
O O17 0.353963 0.500000 0.250000
O O18 0.403549 0.403549 0.235481
O O19 0.350126 0.440741 0.000000
#
# Coordination Sequence:
#
# PCOD9567120 Si02
#       6
#    16  16  16  16  16  16
#     4  10  19  33  50  71 102 133 167 209 254 301
#     4   9  18  35  56  76 103 138 174 213 257 302
#     4  10  19  33  53  76 103 135 172 214 261 309
#     4   9  19  33  52  78 103 133 175 216 252 302
#     4  10  21  36  53  75 103 133 167 209 258 311
#     4  10  21  37  57  82 111 141 174 212 255 302
#
# _framework density 18.141445000000001
#
# number of rings (size 3 to 8) (size 9 to 14) (size 15 to 20)
#    0.000    2.333    0.000    4.000    0.000    4.000 
#    0.000   10.833    0.000    2.000    0.000    0.000 
#    0.000    0.000    0.000    0.000    0.000    0.000 
#
# Total GULP energy -535666.483531 kJ/mol
# GULP energy per Si atom -5579.859203 kJ/mol
# Density = 1.810015 g / cm^3
# Si number density = 18.141445 Si / 1000 Ang^3
#
#
#
# Elastic Constant Matrix: (Units=GPa)
#
#
# Indices 1 2 3 4 5 6 
#
# 1 166.6033 101.9514 32.8236 0.0000 0.0000 0.0000
# 2 101.9514 166.6033 32.8236 0.0000 0.0000 0.0000
# 3 32.8236 32.8236 36.5982 0.0000 0.0000 0.0000
# 4 0.0000 0.0000 0.0000 10.6223 0.0000 0.0000
# 5 0.0000 0.0000 0.0000 0.0000 10.6223 0.0000
# 6 0.0000 0.0000 0.0000 0.0000 0.0000 16.9855
#
#
#
# Elastic Compliance Matrix: (Units=1/GPa)
#
#
# Indices 1 2 3 4 5 6 
#
# 1 0.010118 -0.005349 -0.004277 0.000000 0.000000 0.000000
# 2 -0.005349 0.010118 -0.004277 0.000000 0.000000 0.000000
# 3 -0.004277 -0.004277 0.034996 0.000000 0.000000 0.000000
# 4 0.000000 0.000000 0.000000 0.094141 0.000000 0.000000
# 5 0.000000 0.000000 0.000000 0.000000 0.094141 0.000000
# 6 0.000000 0.000000 0.000000 0.000000 0.000000 0.058874
#
#
# Mechanical properties :
#
#
# Convention : Reuss Voigt Hill
#
# Bulk Modulus (GPa) = 36.46276 78.33355 57.39815
# Shear Modulus (GPa) = 14.73454 21.12643 17.93049
#
# Velocity S-wave (km/s) = 2.85301 3.41624 3.14725
# Velocity P-wave (km/s) = 5.56738 7.67033 6.70185
#
# Compressibility (1/GPa) = 0.02742524
#
# Stress axis : x y z
#
# Youngs Moduli (GPa) = 98.83042 98.83042 28.57455
#
# Poissons Ratio (x) = 0.52866 0.12222
# Poissons Ratio (y) = 0.52866 0.12222
# Poissons Ratio (z) = 0.42273 0.42273
#
# Static dielectric constant tensor:
#      x y z
#    x 1.611970 0.000000 0.000000 
#    y 0.000000 1.611970 0.000000 
#    z 0.000000 0.000000 1.613510 
# 
# From -- ./inp_files/1791.got.cif
#   From: 2010.05.17/outbox.cif.g08.bks.cpg/sg132_1_cif.got.tgz:1791.got - 2010.05.20 12:30:18.
