data_PCOD9567949
_publ_section_title
;
Structure prediction by ZEFSAII (Michael W. Deem and Ramdas Pophale) SiO2 
 PCOD9567949
Probable space group: P 42/N B C
;
_chemical_formula_sum "Si O2"
_cell_formula_units_Z 64
_cell_length_a 19.246265
_cell_length_b 19.246265
_cell_length_c 10.188395
_cell_angle_alpha 90.000000
_cell_angle_beta 90.000000
_cell_angle_gamma 90.000000
_cell_volume 3773.972199
_symmetry_space_group_name_H-M "P 42/N B C"
_symmetry_group_IT_number 133
_space_group.IT_coordinate_system_code '2'
_symmetry_cell_setting 'tetragonal'
loop_
_space_group_symop_operation_xyz
x,y,z
1/2-y,x,1/2+z
1/2-x,1/2-y,z
y,1/2-x,1/2+z
x,1/2-y,-z
1/2-x,y,-z
y,x,1/2-z
1/2-y,1/2-x,1/2-z
-x,-y,-z
1/2+y,-x,1/2-z
1/2+x,1/2+y,-z
-y,1/2+x,1/2-z
-x,1/2+y,z
1/2+x,-y,z
-y,-x,1/2+z
1/2+y,1/2+x,1/2+z
loop_
_atom_site_type_symbol
_atom_site_label
_atom_site_fract_x
_atom_site_fract_y
_atom_site_fract_z
Si Si1 0.182258 0.654137 0.069664
Si Si2 0.446433 0.890136 0.915320
Si Si3 0.399987 0.997976 0.702753
Si Si4 0.066507 0.748173 0.205124
O O1 0.134336 0.712073 0.138185
O O2 0.210550 0.597325 0.171424
O O3 0.250000 0.681220 0.000000
O O4 0.133063 0.617914 0.963481
O O5 0.442753 0.941820 0.791897
O O6 0.466634 0.810803 0.879132
O O7 0.486320 0.913067 0.047223
O O8 0.318126 0.982973 0.725634
O O9 0.428224 0.071777 0.750000
#
# Coordination Sequence:
#
# PCOD9567949 Si02
#       4
#    16  16  16  16
#     4  11  19  31  47  71 108 140 179 210 254 310
#     4  11  21  36  51  74 104 143 179 216 260 323
#     4  11  22  36  52  72 104 148 181 219 259 310
#     4  11  21  33  51  76 106 146 179 219 260 320
#
# _framework density 16.958259000000002
#
# number of rings (size 3 to 8) (size 9 to 14) (size 15 to 20)
#    0.000    1.000    7.500    3.750    0.000    6.500 
#    0.000    0.000    0.000    0.000    0.000    0.000 
#    0.000    1.000    2.000    0.500    0.000    0.000 
#
# Total GULP energy -356818.114640 kJ/mol
# GULP energy per Si atom -5575.283041 kJ/mol
# Density = 1.691966 g / cm^3
# Si number density = 16.958259 Si / 1000 Ang^3
#
#
#
# Elastic Constant Matrix: (Units=GPa)
#
#
# Indices 1 2 3 4 5 6 
#
# 1 61.9325 40.1770 31.4459 0.0000 0.0000 0.0000
# 2 40.1770 61.9268 31.4453 0.0000 0.0000 0.0000
# 3 31.4459 31.4453 80.2184 0.0000 0.0000 0.0000
# 4 0.0000 0.0000 0.0000 19.5873 0.0000 0.0000
# 5 0.0000 0.0000 0.0000 0.0000 19.5868 0.0000
# 6 0.0000 0.0000 0.0000 0.0000 0.0000 25.0286
#
#
#
# Elastic Compliance Matrix: (Units=1/GPa)
#
#
# Indices 1 2 3 4 5 6 
#
# 1 0.029440 -0.016530 -0.005061 0.000000 0.000000 0.000000
# 2 -0.016530 0.029443 -0.005062 0.000000 0.000000 0.000000
# 3 -0.005061 -0.005062 0.016434 0.000000 0.000000 0.000000
# 4 0.000000 0.000000 0.000000 0.051053 0.000000 0.000000
# 5 0.000000 0.000000 0.000000 0.000000 0.051055 0.000000
# 6 0.000000 0.000000 0.000000 0.000000 0.000000 0.039954
#
#
# Mechanical properties :
#
#
# Convention : Reuss Voigt Hill
#
# Bulk Modulus (GPa) = 45.43092 45.57935 45.50513
# Shear Modulus (GPa) = 17.98428 19.57452 18.77940
#
# Velocity S-wave (km/s) = 3.26007 3.40115 3.33136
# Velocity P-wave (km/s) = 6.40459 6.50842 6.45671
#
# Compressibility (1/GPa) = 0.02201144
#
# Stress axis : x y z
#
# Youngs Moduli (GPa) = 33.96786 33.96421 60.84993
#
# Poissons Ratio (x) = 0.56143 0.30794
# Poissons Ratio (y) = 0.56149 0.30800
# Poissons Ratio (z) = 0.17190 0.17191
#
# Static dielectric constant tensor:
#      x y z
#    x 1.576790 0.000000 0.000000 
#    y 0.000000 1.576790 0.000000 
#    z 0.000000 0.000000 1.696100 
# 
# From -- ./inp_files/2980.got.cif
#   From: 2010.05.17/outbox.cif.g08.bks.cpg/sg133_2_cif.got.tgz:2980.got - 2010.05.20 12:37:36.
