data_PCOD9567176
_publ_section_title
;
Structure prediction by ZEFSAII (Michael W. Deem and Ramdas Pophale) SiO2 
 PCOD9567176
Probable space group: P 42/M C M
;
_chemical_formula_sum "Si O2"
_cell_formula_units_Z 120
_cell_length_a 19.963007
_cell_length_b 19.963007
_cell_length_c 17.737831
_cell_angle_alpha 90.000000
_cell_angle_beta 90.000000
_cell_angle_gamma 90.000000
_cell_volume 7068.909651
_symmetry_space_group_name_H-M "P 42/M C M"
_symmetry_group_IT_number 132
_symmetry_cell_setting 'tetragonal'
loop_
_space_group_symop_operation_xyz
x,y,z
-y,x,1/2+z
-x,-y,z
y,-x,1/2+z
x,-y,1/2-z
-x,y,1/2-z
y,x,-z
-y,-x,-z
-x,-y,-z
y,-x,1/2-z
x,y,-z
-y,x,1/2-z
-x,y,1/2+z
x,-y,1/2+z
-y,-x,z
y,x,z
loop_
_atom_site_type_symbol
_atom_site_label
_atom_site_fract_x
_atom_site_fract_y
_atom_site_fract_z
Si Si1 0.118066 0.613313 0.089282
Si Si2 0.248749 0.140174 0.336391
Si Si3 0.530576 0.847994 0.091357
Si Si4 0.823382 0.002562 0.664824
Si Si5 0.001830 0.889822 0.000000
Si Si6 0.024627 0.595749 0.331958
Si Si7 0.342474 0.763267 0.410297
Si Si8 0.119839 0.276131 0.828117
O O1 0.146559 0.684102 0.115839
O O2 0.160484 0.547399 0.112435
O O3 0.042595 0.606333 0.120647
O O4 0.114207 0.612829 0.000000
O O5 0.187634 0.187634 0.360753
O O6 0.225501 0.062363 0.334197
O O7 0.268836 0.157214 0.250878
O O8 0.550371 0.919995 0.126837
O O9 0.584300 0.790979 0.116455
O O10 0.535838 0.852730 0.000000
O O11 0.856448 0.997880 0.582648
O O12 0.856686 0.000000 0.750000
O O13 0.788696 0.074934 0.660633
O O14 0.069609 0.930392 0.000000
O O15 0.939139 0.939139 0.000000
O O16 0.065233 0.664811 0.321361
O O17 0.000000 0.573023 0.250000
O O18 0.348321 0.755612 0.500000
O O19 0.303982 0.696019 0.381855
O O20 0.294538 0.826279 0.390969
#
# Coordination Sequence:
#
# PCOD9567176 Si02
#       8
#    16  16  16  16   8  16  16  16
#     4  11  22  35  51  73 105 139 173 212 261 314
#     4  11  22  37  55  75 100 134 177 223 268 316
#     4   9  20  34  49  74 107 141 170 210 259 307
#     4  10  22  40  59  77 100 132 172 219 276 333
#     4  11  26  42  56  76  96 121 168 228 287 344
#     4  11  18  33  51  75 102 135 173 206 247 310
#     4   9  18  32  52  77 106 138 172 208 251 307
#     4  10  19  35  53  76 105 130 166 215 263 310
#
# _framework density 16.975745
#
# number of rings (size 3 to 8) (size 9 to 14) (size 15 to 20)
#    0.000    1.800    2.667    2.000    1.867    6.133 
#    0.000    0.667    0.000    0.000    0.000    0.000 
#    0.000    0.533    0.000    5.200    0.000    6.400 
#
# Total GULP energy -668022.067226 kJ/mol
# GULP energy per Si atom -5566.850560 kJ/mol
# Density = 1.693711 g / cm^3
# Si number density = 16.975745 Si / 1000 Ang^3
#
#
#
# Elastic Constant Matrix: (Units=GPa)
#
#
# Indices 1 2 3 4 5 6 
#
# 1 63.4581 29.1126 23.1880 0.0000 0.0000 0.0000
# 2 29.1126 63.4585 23.1883 0.0000 0.0000 0.0000
# 3 23.1880 23.1883 70.9244 0.0000 0.0000 0.0000
# 4 0.0000 0.0000 0.0000 40.7963 0.0000 0.0000
# 5 0.0000 0.0000 0.0000 0.0000 40.7056 0.0000
# 6 0.0000 0.0000 0.0000 0.0000 0.0000 5.4628
#
#
#
# Elastic Compliance Matrix: (Units=1/GPa)
#
#
# Indices 1 2 3 4 5 6 
#
# 1 0.021017 -0.008099 -0.004224 0.000000 0.000000 0.000000
# 2 -0.008099 0.021017 -0.004224 0.000000 0.000000 0.000000
# 3 -0.004224 -0.004224 0.016861 0.000000 0.000000 0.000000
# 4 0.000000 0.000000 0.000000 0.024512 0.000000 0.000000
# 5 0.000000 0.000000 0.000000 0.000000 0.024567 0.000000
# 6 0.000000 0.000000 0.000000 0.000000 0.000000 0.183055
#
#
# Mechanical properties :
#
#
# Convention : Reuss Voigt Hill
#
# Bulk Modulus (GPa) = 38.75390 38.75763 38.75576
# Shear Modulus (GPa) = 15.02754 25.54974 20.28864
#
# Velocity S-wave (km/s) = 2.97852 3.88374 3.46085
# Velocity P-wave (km/s) = 5.89129 6.55683 6.23295
#
# Compressibility (1/GPa) = 0.02580385
#
# Stress axis : x y z
#
# Youngs Moduli (GPa) = 47.58025 47.58039 59.30762
#
# Poissons Ratio (x) = 0.38534 0.25049
# Poissons Ratio (y) = 0.38533 0.25049
# Poissons Ratio (z) = 0.20096 0.20096
#
# Static dielectric constant tensor:
#      x y z
#    x 1.632050 0.000000 0.000000 
#    y 0.000000 1.632050 0.000000 
#    z 0.000000 0.000000 1.959420 
# 
# From -- ./inp_files/5122.got.cif
#   From: 2010.05.17/outbox.cif.g08.bks.cpg/sg132_3_cif.got.tgz:5122.got - 2010.05.20 12:30:18.
