data_PCOD9567439
_publ_section_title
;
Structure prediction by ZEFSAII (Michael W. Deem and Ramdas Pophale) SiO2 
 PCOD9567439
Probable space group: P 42/M C M
;
_chemical_formula_sum "Si O2"
_cell_formula_units_Z 72
_cell_length_a 15.521379
_cell_length_b 15.521379
_cell_length_c 13.517587
_cell_angle_alpha 90.000000
_cell_angle_beta 90.000000
_cell_angle_gamma 90.000000
_cell_volume 3256.565222
_symmetry_space_group_name_H-M "P 42/M C M"
_symmetry_group_IT_number 132
_symmetry_cell_setting 'tetragonal'
loop_
_space_group_symop_operation_xyz
x,y,z
-y,x,1/2+z
-x,-y,z
y,-x,1/2+z
x,-y,1/2-z
-x,y,1/2-z
y,x,-z
-y,-x,-z
-x,-y,-z
y,-x,1/2-z
x,y,-z
-y,x,1/2-z
-x,y,1/2+z
x,-y,1/2+z
-y,-x,z
y,x,z
loop_
_atom_site_type_symbol
_atom_site_label
_atom_site_fract_x
_atom_site_fract_y
_atom_site_fract_z
Si Si1 0.410014 0.725909 0.715971
Si Si2 0.371629 0.140164 0.382440
Si Si3 0.737513 0.981511 0.117829
Si Si4 0.100382 0.439790 0.884749
Si Si5 0.071922 0.071922 0.120463
O O1 0.500000 0.685380 0.750000
O O2 0.341978 0.658023 0.679965
O O3 0.373331 0.778606 0.810711
O O4 0.431848 0.797751 0.634895
O O5 0.379381 0.159921 0.500000
O O6 0.459688 0.085676 0.354415
O O7 0.287221 0.081564 0.370133
O O8 0.651251 0.934175 0.157287
O O9 0.831175 0.952590 0.153878
O O10 0.739475 0.964732 0.000000
O O11 0.077639 0.437715 0.000000
O O12 0.072907 0.072907 0.000000
O O13 0.000000 0.000000 0.145924
#
# Coordination Sequence:
#
# PCOD9567439 Si02
#       5
#    16  16  16  16   8
#     4  10  22  37  54  80 109 141 181 224 275 334
#     4   9  18  34  55  82 111 139 177 229 280 328
#     4   9  17  30  52  78 107 145 181 220 275 324
#     4   9  18  33  56  83 109 135 176 232 284 330
#     4   9  18  30  44  72 110 146 188 222 252 319
#
# _framework density 22.109183999999999
#
# number of rings (size 3 to 8) (size 9 to 14) (size 15 to 20)
#    0.000    2.778    0.000    0.667    1.556    5.556 
#    0.000    5.556    0.000    0.000    0.000    6.222 
#    0.000    0.000    0.000    0.000    0.000    0.000 
#
# Total GULP energy -401471.689327 kJ/mol
# GULP energy per Si atom -5575.995685 kJ/mol
# Density = 2.205886 g / cm^3
# Si number density = 22.109184 Si / 1000 Ang^3
#
#
#
# Elastic Constant Matrix: (Units=GPa)
#
#
# Indices 1 2 3 4 5 6 
#
# 1 117.0090 77.0566 5.4805 0.0000 0.0000 0.0000
# 2 77.0566 117.0090 5.4805 0.0000 0.0000 0.0000
# 3 5.4805 5.4805 73.7493 0.0000 0.0000 0.0000
# 4 0.0000 0.0000 0.0000 17.2569 0.0000 0.0000
# 5 0.0000 0.0000 0.0000 0.0000 17.2569 0.0000
# 6 0.0000 0.0000 0.0000 0.0000 0.0000 42.7844
#
#
#
# Elastic Compliance Matrix: (Units=1/GPa)
#
#
# Indices 1 2 3 4 5 6 
#
# 1 0.015102 -0.009928 -0.000385 0.000000 0.000000 0.000000
# 2 -0.009928 0.015102 -0.000385 0.000000 0.000000 0.000000
# 3 -0.000385 -0.000385 0.013617 0.000000 0.000000 0.000000
# 4 0.000000 0.000000 0.000000 0.057948 0.000000 0.000000
# 5 0.000000 0.000000 0.000000 0.000000 0.057948 0.000000
# 6 0.000000 0.000000 0.000000 0.000000 0.000000 0.023373
#
#
# Mechanical properties :
#
#
# Convention : Reuss Voigt Hill
#
# Bulk Modulus (GPa) = 44.58777 53.75583 49.17180
# Shear Modulus (GPa) = 23.58951 30.10964 26.84958
#
# Velocity S-wave (km/s) = 3.26997 3.69434 3.48862
# Velocity P-wave (km/s) = 5.87093 6.52412 6.20612
#
# Compressibility (1/GPa) = 0.02242768
#
# Stress axis : x y z
#
# Youngs Moduli (GPa) = 66.21559 66.21559 73.43977
#
# Poissons Ratio (x) = 0.65736 0.02824
# Poissons Ratio (y) = 0.65736 0.02824
# Poissons Ratio (z) = 0.02546 0.02546
#
# Static dielectric constant tensor:
#      x y z
#    x 1.832300 0.000000 0.000000 
#    y 0.000000 1.832300 0.000000 
#    z 0.000000 0.000000 1.855640 
# 
# From -- ./inp_files/6089.got.cif
#   From: 2010.05.17/outbox.cif.g08.bks.cpg/sg132_4_cif.got.tgz:6089.got - 2010.05.20 12:30:18.
