data_PCOD9567706
_publ_section_title
;
Structure prediction by ZEFSAII (Michael W. Deem and Ramdas Pophale) SiO2 
 PCOD9567706
Probable space group: P 42/N B C
;
_chemical_formula_sum "Si O2"
_cell_formula_units_Z 100
_cell_length_a 15.455717
_cell_length_b 15.455717
_cell_length_c 22.679915
_cell_angle_alpha 90.000000
_cell_angle_beta 90.000000
_cell_angle_gamma 90.000000
_cell_volume 5417.759679
_symmetry_space_group_name_H-M "P 42/N B C"
_symmetry_group_IT_number 133
_space_group.IT_coordinate_system_code '2'
_symmetry_cell_setting 'tetragonal'
loop_
_space_group_symop_operation_xyz
x,y,z
1/2-y,x,1/2+z
1/2-x,1/2-y,z
y,1/2-x,1/2+z
x,1/2-y,-z
1/2-x,y,-z
y,x,1/2-z
1/2-y,1/2-x,1/2-z
-x,-y,-z
1/2+y,-x,1/2-z
1/2+x,1/2+y,-z
-y,1/2+x,1/2-z
-x,1/2+y,z
1/2+x,-y,z
-y,-x,1/2+z
1/2+y,1/2+x,1/2+z
loop_
_atom_site_type_symbol
_atom_site_label
_atom_site_fract_x
_atom_site_fract_y
_atom_site_fract_z
Si Si1 0.181032 0.937418 0.209092
Si Si2 0.497892 0.002109 0.250000
Si Si3 0.536594 0.750000 0.000000
Si Si4 0.852013 0.512195 0.853583
Si Si5 0.750000 0.250000 0.500000
Si Si6 0.853010 0.262307 0.174651
Si Si7 0.303597 0.167845 0.061237
Si Si8 0.348608 0.897099 0.569588
O O1 0.222410 0.885788 0.264293
O O2 0.136712 0.864148 0.168991
O O3 0.098057 0.990071 0.230267
O O4 0.263668 0.978971 0.177739
O O5 0.427168 0.019080 0.197100
O O6 0.602351 0.703824 0.044225
O O7 0.476321 0.824763 0.027473
O O8 0.821005 0.595194 0.890505
O O9 0.884704 0.442776 0.902519
O O10 0.687034 0.188914 0.462253
O O11 0.750000 0.250000 0.168090
O O12 0.906154 0.213386 0.125652
O O13 0.250000 0.250000 0.084968
O O14 0.250000 0.142575 0.000000
#
# Coordination Sequence:
#
# PCOD9567706 Si02
#       8
#    16   8   8  16   4  16  16  16
#     4  12  22  40  62  91 131 171 208 262 325 398
#     4  12  26  40  61 103 130 166 222 266 324 400
#     4   9  23  41  65  90 122 170 213 269 325 389
#     4  12  25  42  65  98 128 167 223 275 324 391
#     4  10  20  36  54 102 132 156 214 256 326 394
#     4  12  17  37  64  84 128 173 195 245 336 394
#     4   9  23  50  68  82 122 182 224 258 323 390
#     4  11  21  35  62  96 128 161 205 269 328 382
#
# _framework density 18.457813000000002
#
# number of rings (size 3 to 8) (size 9 to 14) (size 15 to 20)
#    0.000    1.120    7.200    0.000    3.360    3.200 
#    2.880    0.000    0.000    0.000    0.000    0.000 
#    0.000    0.000    0.000    0.000    0.000    0.000 
#
# Total GULP energy -557030.802858 kJ/mol
# GULP energy per Si atom -5570.308029 kJ/mol
# Density = 1.841580 g / cm^3
# Si number density = 18.457813 Si / 1000 Ang^3
#
#
#
# Elastic Constant Matrix: (Units=GPa)
#
#
# Indices 1 2 3 4 5 6 
#
# 1 123.7731 60.8112 47.4548 0.0000 0.0000 0.0000
# 2 60.8112 123.7727 47.4550 0.0000 0.0000 0.0000
# 3 47.4548 47.4550 69.3225 0.0000 0.0000 0.0000
# 4 0.0000 0.0000 0.0000 9.2645 0.0000 0.0000
# 5 0.0000 0.0000 0.0000 0.0000 9.2645 0.0000
# 6 0.0000 0.0000 0.0000 0.0000 0.0000 22.2010
#
#
#
# Elastic Compliance Matrix: (Units=1/GPa)
#
#
# Indices 1 2 3 4 5 6 
#
# 1 0.012121 -0.003761 -0.005723 0.000000 0.000000 0.000000
# 2 -0.003761 0.012122 -0.005723 0.000000 0.000000 0.000000
# 3 -0.005723 -0.005723 0.022261 0.000000 0.000000 0.000000
# 4 0.000000 0.000000 0.000000 0.107939 0.000000 0.000000
# 5 0.000000 0.000000 0.000000 0.000000 0.107939 0.000000
# 6 0.000000 0.000000 0.000000 0.000000 0.000000 0.045043
#
#
# Mechanical properties :
#
#
# Convention : Reuss Voigt Hill
#
# Bulk Modulus (GPa) = 62.15369 69.81223 65.98296
# Shear Modulus (GPa) = 14.56865 18.88913 16.72889
#
# Velocity S-wave (km/s) = 2.81249 3.20248 3.01380
# Velocity P-wave (km/s) = 6.65532 7.18187 6.92360
#
# Compressibility (1/GPa) = 0.01608915
#
# Stress axis : x y z
#
# Youngs Moduli (GPa) = 82.49855 82.49789 44.92203
#
# Poissons Ratio (x) = 0.31029 0.25709
# Poissons Ratio (y) = 0.31029 0.25709
# Poissons Ratio (z) = 0.47214 0.47214
#
# Static dielectric constant tensor:
#      x y z
#    x 1.698340 0.000000 0.000000 
#    y 0.000000 1.698340 0.000000 
#    z 0.000000 0.000000 1.835600 
# 
# From -- ./inp_files/7214.got.cif
#   From: 2010.05.17/outbox.cif.g08.bks.cpg/sg133_4_cif.got.tgz:7214.got - 2010.05.20 12:37:36.
