data_PCOD9567927
_publ_section_title
;
Structure prediction by ZEFSAII (Michael W. Deem and Ramdas Pophale) SiO2 
 PCOD9567927
Probable space group: P 42/N B C
;
_chemical_formula_sum "Si O2"
_cell_formula_units_Z 28
_cell_length_a 10.372648
_cell_length_b 10.372648
_cell_length_c 9.327785
_cell_angle_alpha 90.000000
_cell_angle_beta 90.000000
_cell_angle_gamma 90.000000
_cell_volume 1003.593426
_symmetry_space_group_name_H-M "P 42/N B C"
_symmetry_group_IT_number 133
_space_group.IT_coordinate_system_code '2'
_symmetry_cell_setting 'tetragonal'
loop_
_space_group_symop_operation_xyz
x,y,z
1/2-y,x,1/2+z
1/2-x,1/2-y,z
y,1/2-x,1/2+z
x,1/2-y,-z
1/2-x,y,-z
y,x,1/2-z
1/2-y,1/2-x,1/2-z
-x,-y,-z
1/2+y,-x,1/2-z
1/2+x,1/2+y,-z
-y,1/2+x,1/2-z
-x,1/2+y,z
1/2+x,-y,z
-y,-x,1/2+z
1/2+y,1/2+x,1/2+z
loop_
_atom_site_type_symbol
_atom_site_label
_atom_site_fract_x
_atom_site_fract_y
_atom_site_fract_z
Si Si1 0.250000 0.250000 0.750000
Si Si2 0.895849 0.394742 0.701706
Si Si3 0.540491 0.750000 0.500000
O O1 0.366608 0.256121 0.636831
O O2 0.917068 0.257095 0.784149
O O3 0.991172 0.508829 0.750000
O O4 0.942321 0.363929 0.539901
#
# Coordination Sequence:
#
# PCOD9567927 Si02
#       3
#     4  16   8
#     4  10  24  46  88 126 174 244 284 378 448 538
#     4  11  28  53  86 129 176 235 294 375 443 540
#     4  11  24  53  80 130 174 228 302 360 454 528
#
# _framework density 27.899743000000001
#
# number of rings (size 3 to 8) (size 9 to 14) (size 15 to 20)
#    0.000    1.143    2.857    0.000    4.000    8.000 
#   10.286    0.000    0.000    0.000    0.000    0.000 
#    0.000    0.000    0.000    0.000    0.000    0.000 
#
# Total GULP energy -156514.843410 kJ/mol
# GULP energy per Si atom -5589.815836 kJ/mol
# Density = 2.783624 g / cm^3
# Si number density = 27.899743 Si / 1000 Ang^3
#
#
#
# Elastic Constant Matrix: (Units=GPa)
#
#
# Indices 1 2 3 4 5 6 
#
# 1 235.5086 103.2857 97.8953 0.0000 0.0000 0.0000
# 2 103.2857 235.5067 97.8949 0.0000 0.0000 0.0000
# 3 97.8953 97.8949 187.9572 0.0000 0.0000 0.0000
# 4 0.0000 0.0000 0.0000 63.9453 0.0000 0.0000
# 5 0.0000 0.0000 0.0000 0.0000 63.9465 0.0000
# 6 0.0000 0.0000 0.0000 0.0000 0.0000 58.3655
#
#
#
# Elastic Compliance Matrix: (Units=1/GPa)
#
#
# Indices 1 2 3 4 5 6 
#
# 1 0.005893 -0.001670 -0.002199 0.000000 0.000000 0.000000
# 2 -0.001670 0.005893 -0.002199 0.000000 0.000000 0.000000
# 3 -0.002199 -0.002199 0.007611 0.000000 0.000000 0.000000
# 4 0.000000 0.000000 0.000000 0.015638 0.000000 0.000000
# 5 0.000000 0.000000 0.000000 0.000000 0.015638 0.000000
# 6 0.000000 0.000000 0.000000 0.000000 0.000000 0.017133
#
#
# Mechanical properties :
#
#
# Convention : Reuss Voigt Hill
#
# Bulk Modulus (GPa) = 137.75296 139.68048 138.71672
# Shear Modulus (GPa) = 60.70593 61.24457 60.97525
#
# Velocity S-wave (km/s) = 4.66967 4.69034 4.68002
# Velocity P-wave (km/s) = 8.86318 8.91663 8.88994
#
# Compressibility (1/GPa) = 0.00725937
#
# Stress axis : x y z
#
# Youngs Moduli (GPa) = 169.69805 169.69673 131.38322
#
# Poissons Ratio (x) = 0.28343 0.28895
# Poissons Ratio (y) = 0.28343 0.28895
# Poissons Ratio (z) = 0.37322 0.37322
#
# Static dielectric constant tensor:
#      x y z
#    x 2.207740 0.000000 0.000000 
#    y 0.000000 2.207740 0.000000 
#    z 0.000000 0.000000 2.373090 
# 
# From -- ./inp_files/690.got.cif
#   From: 2010.05.17/outbox.cif.g08.bks.cpg/sg133_1_cif.got.tgz:690.got - 2010.05.20 12:37:36.
