data_PCOD9567865
_publ_section_title
;
Structure prediction by ZEFSAII (Michael W. Deem and Ramdas Pophale) SiO2 
 PCOD9567865
Probable space group: P 42/N B C
;
_chemical_formula_sum "Si O2"
_cell_formula_units_Z 52
_cell_length_a 16.020095
_cell_length_b 16.020095
_cell_length_c 8.806927
_cell_angle_alpha 90.000000
_cell_angle_beta 90.000000
_cell_angle_gamma 90.000000
_cell_volume 2260.240075
_symmetry_space_group_name_H-M "P 42/N B C"
_symmetry_group_IT_number 133
_space_group.IT_coordinate_system_code '2'
_symmetry_cell_setting 'tetragonal'
loop_
_space_group_symop_operation_xyz
x,y,z
1/2-y,x,1/2+z
1/2-x,1/2-y,z
y,1/2-x,1/2+z
x,1/2-y,-z
1/2-x,y,-z
y,x,1/2-z
1/2-y,1/2-x,1/2-z
-x,-y,-z
1/2+y,-x,1/2-z
1/2+x,1/2+y,-z
-y,1/2+x,1/2-z
-x,1/2+y,z
1/2+x,-y,z
-y,-x,1/2+z
1/2+y,1/2+x,1/2+z
loop_
_atom_site_type_symbol
_atom_site_label
_atom_site_fract_x
_atom_site_fract_y
_atom_site_fract_z
Si Si1 0.483561 0.844910 0.065838
Si Si2 0.172898 0.587931 0.896916
Si Si3 0.750000 0.250000 0.750000
Si Si4 0.334132 0.342306 0.069860
O O1 0.466836 0.838719 0.246223
O O2 0.575707 0.880897 0.033247
O O3 0.478525 0.750000 0.000000
O O4 0.411135 0.899787 0.991602
O O5 0.199371 0.681204 0.843304
O O6 0.250000 0.559712 0.000000
O O7 0.330613 0.330613 0.250000
O O8 0.338253 0.250000 0.000000
O O9 0.250000 0.380255 0.000000
#
# Coordination Sequence:
#
# PCOD9567865 Si02
#       4
#    16  16   4  16
#     4  11  21  36  59  97 134 178 220 267 332 398
#     4  12  20  33  57  95 146 187 219 254 311 408
#     4  12  18  28  58  84 142 188 218 240 302 376
#     4  10  22  43  71  94 118 161 231 294 351 396
#
# _framework density 23.006406999999999
#
# number of rings (size 3 to 8) (size 9 to 14) (size 15 to 20)
#    0.000    0.923    6.154    2.308    0.000    1.231 
#    0.000    4.615    0.000    0.000    0.000    0.000 
#    0.000    0.000    0.000    0.000    0.000    0.000 
#
# Total GULP energy -291004.173186 kJ/mol
# GULP energy per Si atom -5596.234100 kJ/mol
# Density = 2.295404 g / cm^3
# Si number density = 23.006407 Si / 1000 Ang^3
#
#
#
# Elastic Constant Matrix: (Units=GPa)
#
#
# Indices 1 2 3 4 5 6 
#
# 1 187.4224 29.9565 59.9839 0.0000 0.0000 0.0000
# 2 29.9565 187.4224 59.9839 0.0000 0.0000 0.0000
# 3 59.9839 59.9839 139.4655 0.0000 0.0000 0.0000
# 4 0.0000 0.0000 0.0000 18.6009 0.0000 0.0000
# 5 0.0000 0.0000 0.0000 0.0000 18.6009 0.0000
# 6 0.0000 0.0000 0.0000 0.0000 0.0000 -28.3068
#
#
#
# Elastic Compliance Matrix: (Units=1/GPa)
#
#
# Indices 1 2 3 4 5 6 
#
# 1 0.006191 -0.000159 -0.002594 0.000000 0.000000 0.000000
# 2 -0.000159 0.006191 -0.002594 0.000000 0.000000 0.000000
# 3 -0.002594 -0.002594 0.009402 0.000000 0.000000 0.000000
# 4 0.000000 0.000000 0.000000 0.053761 0.000000 0.000000
# 5 0.000000 0.000000 0.000000 0.000000 0.053761 0.000000
# 6 0.000000 0.000000 0.000000 0.000000 0.000000 -0.035327
#
#
# Mechanical properties :
#
#
# Convention : Reuss Voigt Hill
#
# Bulk Modulus (GPa) = 90.18346 90.46210 90.32278
# Shear Modulus (GPa) = 46.13759 26.07139 36.10449
#
# Velocity S-wave (km/s) = 4.48305 3.36999 3.96577
# Velocity P-wave (km/s) = 8.12905 7.38568 7.76626
#
# Compressibility (1/GPa) = 0.01108851
#
# Stress axis : x y z
#
# Youngs Moduli (GPa) = 161.51651 161.51651 106.36143
#
# Poissons Ratio (x) = 0.02572 0.27594
# Poissons Ratio (y) = 0.02572 0.27594
# Poissons Ratio (z) = 0.41903 0.41903
#
# Static dielectric constant tensor:
#      x y z
#    x 1.878250 0.000000 0.000000 
#    y 0.000000 1.878250 0.000000 
#    z 0.000000 0.000000 2.240320 
# 
# From -- ./inp_files/1217.got.cif
#   From: 2010.05.17/outbox.cif.g08.bks.cpg/sg133_1_cif.got.tgz:1217.got - 2010.05.20 12:37:36.
