data_PCOD9567192
_publ_section_title
;
Structure prediction by ZEFSAII (Michael W. Deem and Ramdas Pophale) SiO2 
 PCOD9567192
Probable space group: P 42/M C M
;
_chemical_formula_sum "Si O2"
_cell_formula_units_Z 120
_cell_length_a 14.142959
_cell_length_b 14.142959
_cell_length_c 33.232966
_cell_angle_alpha 90.000000
_cell_angle_beta 90.000000
_cell_angle_gamma 90.000000
_cell_volume 6647.367172
_symmetry_space_group_name_H-M "P 42/M C M"
_symmetry_group_IT_number 132
_symmetry_cell_setting 'tetragonal'
loop_
_space_group_symop_operation_xyz
x,y,z
-y,x,1/2+z
-x,-y,z
y,-x,1/2+z
x,-y,1/2-z
-x,y,1/2-z
y,x,-z
-y,-x,-z
-x,-y,-z
y,-x,1/2-z
x,y,-z
-y,x,1/2-z
-x,y,1/2+z
x,-y,1/2+z
-y,-x,z
y,x,z
loop_
_atom_site_type_symbol
_atom_site_label
_atom_site_fract_x
_atom_site_fract_y
_atom_site_fract_z
Si Si1 0.618411 0.895380 0.826839
Si Si2 0.539895 0.690225 0.951770
Si Si3 0.972944 0.290913 0.046792
Si Si4 0.791905 0.360729 0.917847
Si Si5 0.077242 0.922759 0.951127
Si Si6 0.613573 0.770552 0.251381
Si Si7 0.686167 0.166064 0.588695
Si Si8 0.886307 0.608920 0.668180
O O1 0.637907 0.842079 0.785095
O O2 0.661882 0.838726 0.864254
O O3 0.505000 0.893814 0.831880
O O4 0.647005 0.006139 0.828315
O O5 0.588061 0.588061 0.943368
O O6 0.444963 0.720450 0.928987
O O7 0.615712 0.766276 0.935692
O O8 0.526794 0.696849 0.000000
O O9 0.883094 0.357856 0.053539
O O10 0.948177 0.184208 0.060676
O O11 0.061587 0.325095 0.071944
O O12 0.998210 0.287294 0.000000
O O13 0.735150 0.264851 0.924113
O O14 0.833416 0.364697 0.872904
O O15 0.076332 0.923669 0.000000
O O16 0.000000 0.000000 0.937469
O O17 0.500000 0.751968 0.250000
O O18 0.676238 0.676238 0.248045
O O19 0.635214 0.824095 0.293134
O O20 0.790242 0.209759 0.582615
#
# Coordination Sequence:
#
# PCOD9567192 Si02
#       8
#    16  16  16  16   8  16  16  16
#     4  10  19  36  61  86 113 147 188 234 291 352
#     4  10  23  41  59  82 114 155 203 254 303 350
#     4  11  22  35  54  81 111 150 197 244 297 351
#     4  12  23  38  59  83 115 154 200 247 292 352
#     4   9  18  34  52  74 109 149 189 239 296 354
#     4  10  21  37  59  88 120 154 189 229 282 345
#     4  11  21  36  58  85 116 149 193 245 297 352
#     4  10  20  37  59  86 116 146 185 240 293 343
#
# _framework density 18.052258999999999
#
# number of rings (size 3 to 8) (size 9 to 14) (size 15 to 20)
#    0.000    1.533    3.333    2.400    0.000    4.667 
#    0.000    2.000    0.000    1.600    0.000    0.000 
#    0.000    2.133    0.000    0.000    0.000    0.000 
#
# Total GULP energy -669622.202066 kJ/mol
# GULP energy per Si atom -5580.185017 kJ/mol
# Density = 1.801117 g / cm^3
# Si number density = 18.052259 Si / 1000 Ang^3
#
#
#
# Elastic Constant Matrix: (Units=GPa)
#
#
# Indices 1 2 3 4 5 6 
#
# 1 155.0184 -59.9188 20.1135 0.0000 0.0000 0.0000
# 2 -59.9188 155.0189 20.1155 0.0000 0.0000 0.0000
# 3 20.1135 20.1155 87.3922 0.0000 0.0000 0.0000
# 4 0.0000 0.0000 0.0000 13.1500 0.0000 0.0000
# 5 0.0000 0.0000 0.0000 0.0000 13.1500 0.0000
# 6 0.0000 0.0000 0.0000 0.0000 0.0000 20.3078
#
#
#
# Elastic Compliance Matrix: (Units=1/GPa)
#
#
# Indices 1 2 3 4 5 6 
#
# 1 0.008151 0.003498 -0.002681 0.000000 0.000000 0.000000
# 2 0.003498 0.008151 -0.002681 0.000000 0.000000 0.000000
# 3 -0.002681 -0.002681 0.012677 0.000000 0.000000 0.000000
# 4 0.000000 0.000000 0.000000 0.076046 0.000000 0.000000
# 5 0.000000 0.000000 0.000000 0.000000 0.076046 0.000000
# 6 0.000000 0.000000 0.000000 0.000000 0.000000 0.049242
#
#
# Mechanical properties :
#
#
# Convention : Reuss Voigt Hill
#
# Bulk Modulus (GPa) = 39.60273 39.78331 39.69302
# Shear Modulus (GPa) = 20.62213 37.12950 28.87582
#
# Velocity S-wave (km/s) = 3.38354 4.54009 4.00380
# Velocity P-wave (km/s) = 6.10327 7.04052 6.58858
#
# Compressibility (1/GPa) = 0.02525079
#
# Stress axis : x y z
#
# Youngs Moduli (GPa) = 122.68437 122.68398 78.88345
#
# Poissons Ratio (x) = -0.42921 0.21150
# Poissons Ratio (y) = -0.42921 0.21151
# Poissons Ratio (z) = 0.32895 0.32896
#
# Static dielectric constant tensor:
#      x y z
#    x 1.616020 0.000000 0.000000 
#    y 0.000000 1.616020 0.000000 
#    z 0.000000 0.000000 1.598910 
# 
# From -- ./inp_files/11090.got.cif
#   From: 2010.05.17/outbox.cif.g08.bks.cpg/sg132_6_cif.got.tgz:11090.got - 2010.05.20 12:30:18.
