data_PCOD9567645
_publ_section_title
;
Structure prediction by ZEFSAII (Michael W. Deem and Ramdas Pophale) SiO2 
 PCOD9567645
Probable space group: P 42/N B C
;
_chemical_formula_sum "Si O2"
_cell_formula_units_Z 88
_cell_length_a 15.080569
_cell_length_b 15.080569
_cell_length_c 21.482529
_cell_angle_alpha 90.000000
_cell_angle_beta 90.000000
_cell_angle_gamma 90.000000
_cell_volume 4885.633252
_symmetry_space_group_name_H-M "P 42/N B C"
_symmetry_group_IT_number 133
_space_group.IT_coordinate_system_code '2'
_symmetry_cell_setting 'tetragonal'
loop_
_space_group_symop_operation_xyz
x,y,z
1/2-y,x,1/2+z
1/2-x,1/2-y,z
y,1/2-x,1/2+z
x,1/2-y,-z
1/2-x,y,-z
y,x,1/2-z
1/2-y,1/2-x,1/2-z
-x,-y,-z
1/2+y,-x,1/2-z
1/2+x,1/2+y,-z
-y,1/2+x,1/2-z
-x,1/2+y,z
1/2+x,-y,z
-y,-x,1/2+z
1/2+y,1/2+x,1/2+z
loop_
_atom_site_type_symbol
_atom_site_label
_atom_site_fract_x
_atom_site_fract_y
_atom_site_fract_z
Si Si1 0.332634 0.848886 0.724518
Si Si2 0.994181 0.997102 0.100084
Si Si3 0.978407 0.200915 0.630863
Si Si4 0.852977 0.448872 0.500187
Si Si5 0.028896 0.136649 0.292083
Si Si6 0.250000 0.591113 0.000000
O O1 0.352557 0.773802 0.776925
O O2 0.382043 0.816230 0.662874
O O3 0.367137 0.942812 0.747427
O O4 0.022664 0.912345 0.059312
O O5 0.064330 0.015097 0.153993
O O6 0.895598 0.979570 0.125339
O O7 0.983886 0.085951 0.057205
O O8 0.028967 0.267894 0.675801
O O9 0.966642 0.244001 0.563030
O O10 0.750000 0.477957 0.500000
O O11 0.855580 0.341694 0.499458
O O12 0.112157 0.112157 0.250000
#
# Coordination Sequence:
#
# PCOD9567645 Si02
#       6
#    16  16  16  16  16   8
#     4   9  19  34  54  85 118 149 187 236 307 371
#     4  10  21  38  58  86 117 155 200 237 301 357
#     4  10  20  36  57  86 118 159 191 248 298 360
#     4  10  21  38  58  89 119 157 191 244 301 365
#     4  11  20  36  57  85 116 160 197 245 293 359
#     4  10  19  34  58  92 125 140 187 250 316 366
#
# _framework density 18.011994999999999
#
# number of rings (size 3 to 8) (size 9 to 14) (size 15 to 20)
#    0.000    2.000    3.636    0.273    0.000    2.909 
#   13.091    0.000    0.000    2.182    4.727    0.000 
#    0.000    0.000    0.000    0.000    0.000    0.000 
#
# Total GULP energy -490520.645693 kJ/mol
# GULP energy per Si atom -5574.098247 kJ/mol
# Density = 1.797100 g / cm^3
# Si number density = 18.011995 Si / 1000 Ang^3
#
#
#
# Elastic Constant Matrix: (Units=GPa)
#
#
# Indices 1 2 3 4 5 6 
#
# 1 75.8019 35.4506 23.5656 0.0000 0.0000 0.0000
# 2 35.4506 75.8019 23.5656 0.0000 0.0000 0.0000
# 3 23.5656 23.5656 64.2705 0.0000 0.0000 0.0000
# 4 0.0000 0.0000 0.0000 11.7906 0.0000 0.0000
# 5 0.0000 0.0000 0.0000 0.0000 11.7906 0.0000
# 6 0.0000 0.0000 0.0000 0.0000 0.0000 17.7972
#
#
#
# Elastic Compliance Matrix: (Units=1/GPa)
#
#
# Indices 1 2 3 4 5 6 
#
# 1 0.017712 -0.007070 -0.003902 0.000000 0.000000 0.000000
# 2 -0.007070 0.017712 -0.003902 0.000000 0.000000 0.000000
# 3 -0.003902 -0.003902 0.018421 0.000000 0.000000 0.000000
# 4 0.000000 0.000000 0.000000 0.084813 0.000000 0.000000
# 5 0.000000 0.000000 0.000000 0.000000 0.084813 0.000000
# 6 0.000000 0.000000 0.000000 0.000000 0.000000 0.056189
#
#
# Mechanical properties :
#
#
# Convention : Reuss Voigt Hill
#
# Bulk Modulus (GPa) = 41.50025 42.33753 41.91889
# Shear Modulus (GPa) = 15.75101 17.16185 16.45643
#
# Velocity S-wave (km/s) = 2.96036 3.09010 3.02592
# Velocity P-wave (km/s) = 5.89706 6.02394 5.96084
#
# Compressibility (1/GPa) = 0.02409624
#
# Stress axis : x y z
#
# Youngs Moduli (GPa) = 56.45905 56.45905 54.28712
#
# Poissons Ratio (x) = 0.39919 0.21182
# Poissons Ratio (y) = 0.39919 0.21182
# Poissons Ratio (z) = 0.22030 0.22030
#
# Static dielectric constant tensor:
#      x y z
#    x 1.614190 0.000000 0.000000 
#    y 0.000000 1.614190 0.000000 
#    z 0.000000 0.000000 1.648040 
# 
# From -- ./inp_files/7133.got.cif
#   From: 2010.05.17/outbox.cif.g08.bks.cpg/sg133_4_cif.got.tgz:7133.got - 2010.05.20 12:37:36.
