data_PCOD9567296
_publ_section_title
;
Structure prediction by ZEFSAII (Michael W. Deem and Ramdas Pophale) SiO2 
 PCOD9567296
Probable space group: P 42/M C M
;
_chemical_formula_sum "Si O2"
_cell_formula_units_Z 64
_cell_length_a 12.467591
_cell_length_b 12.467591
_cell_length_c 25.769959
_cell_angle_alpha 90.000000
_cell_angle_beta 90.000000
_cell_angle_gamma 90.000000
_cell_volume 4005.703696
_symmetry_space_group_name_H-M "P 42/M C M"
_symmetry_group_IT_number 132
_symmetry_cell_setting 'tetragonal'
loop_
_space_group_symop_operation_xyz
x,y,z
-y,x,1/2+z
-x,-y,z
y,-x,1/2+z
x,-y,1/2-z
-x,y,1/2-z
y,x,-z
-y,-x,-z
-x,-y,-z
y,-x,1/2-z
x,y,-z
-y,x,1/2-z
-x,y,1/2+z
x,-y,1/2+z
-y,-x,z
y,x,z
loop_
_atom_site_type_symbol
_atom_site_label
_atom_site_fract_x
_atom_site_fract_y
_atom_site_fract_z
Si Si1 0.486168 0.171864 0.063050
Si Si2 0.331320 0.977605 0.094863
Si Si3 0.826696 0.005540 0.500000
Si Si4 0.587838 0.412163 0.437065
Si Si5 0.178614 0.002805 0.189280
O O1 0.599126 0.129950 0.085738
O O2 0.447900 0.291439 0.077909
O O3 0.404315 0.081549 0.083192
O O4 0.491228 0.165768 0.000000
O O5 0.276589 0.986712 0.150629
O O6 0.241124 0.983586 0.051025
O O7 0.874742 0.125258 0.500000
O O8 0.923431 0.923431 0.500000
O O9 0.500000 0.500000 0.419847
O O10 0.587507 0.412494 0.500000
O O11 0.092514 0.907487 0.181010
O O12 0.208556 0.000000 0.250000
O O13 0.112831 0.112831 0.178863
#
# Coordination Sequence:
#
# PCOD9567296 Si02
#       5
#    16  16   8   8  16
#     4  10  20  35  50  75 107 140 178 220 266 314
#     4  11  19  33  52  76 105 141 176 211 266 322
#     4  11  22  29  44  79 111 138 167 206 262 326
#     4   9  20  34  50  70  98 144 188 216 256 313
#     4   9  19  35  53  76 108 142 176 214 259 318
#
# _framework density 15.977218000000001
#
# number of rings (size 3 to 8) (size 9 to 14) (size 15 to 20)
#    0.000    2.000    2.500    3.000    3.500    4.000 
#    0.000    2.500    0.000    0.000    0.000    0.000 
#    0.000    0.000    0.000    0.000    0.000    0.000 
#
# Total GULP energy -356813.864151 kJ/mol
# GULP energy per Si atom -5575.216627 kJ/mol
# Density = 1.594085 g / cm^3
# Si number density = 15.977218 Si / 1000 Ang^3
#
#
#
# Elastic Constant Matrix: (Units=GPa)
#
#
# Indices 1 2 3 4 5 6 
#
# 1 114.1527 58.4630 46.3376 0.0000 0.0000 0.0000
# 2 58.4630 114.1502 46.3375 0.0000 0.0000 0.0000
# 3 46.3376 46.3375 76.9763 0.0000 0.0000 0.0000
# 4 0.0000 0.0000 0.0000 26.6265 0.0000 0.0000
# 5 0.0000 0.0000 0.0000 0.0000 26.6271 0.0000
# 6 0.0000 0.0000 0.0000 0.0000 0.0000 22.9594
#
#
#
# Elastic Compliance Matrix: (Units=1/GPa)
#
#
# Indices 1 2 3 4 5 6 
#
# 1 0.013258 -0.004699 -0.005153 0.000000 0.000000 0.000000
# 2 -0.004699 0.013259 -0.005153 0.000000 0.000000 0.000000
# 3 -0.005153 -0.005153 0.019195 0.000000 0.000000 0.000000
# 4 0.000000 0.000000 0.000000 0.037557 0.000000 0.000000
# 5 0.000000 0.000000 0.000000 0.000000 0.037556 0.000000
# 6 0.000000 0.000000 0.000000 0.000000 0.000000 0.043555
#
#
# Mechanical properties :
#
#
# Convention : Reuss Voigt Hill
#
# Bulk Modulus (GPa) = 63.68136 67.50615 65.59375
# Shear Modulus (GPa) = 25.04743 25.51867 25.28305
#
# Velocity S-wave (km/s) = 3.96371 4.00082 3.98231
# Velocity P-wave (km/s) = 7.80334 7.98031 7.89232
#
# Compressibility (1/GPa) = 0.01570318
#
# Stress axis : x y z
#
# Youngs Moduli (GPa) = 75.42516 75.42304 52.09810
#
# Poissons Ratio (x) = 0.35439 0.26844
# Poissons Ratio (y) = 0.35440 0.26845
# Poissons Ratio (z) = 0.38863 0.38864
#
# Static dielectric constant tensor:
#      x y z
#    x 1.677150 0.000000 0.000000 
#    y 0.000000 1.677100 0.000000 
#    z 0.000000 0.000000 1.503690 
# 
# From -- ./inp_files/8740.got.cif
#   From: 2010.05.17/outbox.cif.g08.bks.cpg/sg132_5_cif.got.tgz:8740.got - 2010.05.20 12:30:18.
