data_PCOD9567730
_publ_section_title
;
Structure prediction by ZEFSAII (Michael W. Deem and Ramdas Pophale) SiO2 
 PCOD9567730
Probable space group: P 42/N B C
;
_chemical_formula_sum "Si O2"
_cell_formula_units_Z 96
_cell_length_a 23.044162
_cell_length_b 23.044162
_cell_length_c 9.706087
_cell_angle_alpha 90.000000
_cell_angle_beta 90.000000
_cell_angle_gamma 90.000000
_cell_volume 5154.256402
_symmetry_space_group_name_H-M "P 42/N B C"
_symmetry_group_IT_number 133
_space_group.IT_coordinate_system_code '2'
_symmetry_cell_setting 'tetragonal'
loop_
_space_group_symop_operation_xyz
x,y,z
1/2-y,x,1/2+z
1/2-x,1/2-y,z
y,1/2-x,1/2+z
x,1/2-y,-z
1/2-x,y,-z
y,x,1/2-z
1/2-y,1/2-x,1/2-z
-x,-y,-z
1/2+y,-x,1/2-z
1/2+x,1/2+y,-z
-y,1/2+x,1/2-z
-x,1/2+y,z
1/2+x,-y,z
-y,-x,1/2+z
1/2+y,1/2+x,1/2+z
loop_
_atom_site_type_symbol
_atom_site_label
_atom_site_fract_x
_atom_site_fract_y
_atom_site_fract_z
Si Si1 0.530608 0.128106 0.037914
Si Si2 0.907374 0.595986 0.086523
Si Si3 0.307706 0.191838 0.915742
Si Si4 0.468600 0.625824 0.542417
Si Si5 0.414011 0.816257 0.709406
Si Si6 0.410686 0.816618 0.208820
O O1 0.539599 0.152189 0.190720
O O2 0.466026 0.118026 0.985263
O O3 0.566838 0.068326 0.024663
O O4 0.564741 0.174410 0.943501
O O5 0.916148 0.583853 0.250000
O O6 0.857655 0.644181 0.074010
O O7 0.886399 0.535731 0.020207
O O8 0.297903 0.202098 0.750000
O O9 0.324986 0.250000 0.000000
O O10 0.250000 0.172575 0.000000
O O11 0.439422 0.672579 0.441516
O O12 0.456816 0.650463 0.694051
O O13 0.405734 0.749675 0.747840
O O14 0.353689 0.851625 0.723236
#
# Coordination Sequence:
#
# PCOD9567730 Si02
#       6
#    16  16  16  16  16  16
#     4  10  21  39  59  85 121 155 192 243 296 344
#     4  11  22  40  63  89 114 155 194 237 296 356
#     4  10  22  42  63  84 117 154 188 239 294 344
#     4  10  21  39  59  85 121 155 192 243 296 344
#     4  10  22  36  59  89 118 162 200 246 293 342
#     4  10  20  38  59  83 124 160 200 246 295 342
#
# _framework density 18.625384
#
# number of rings (size 3 to 8) (size 9 to 14) (size 15 to 20)
#    0.000    1.833    1.667    2.500    0.000    3.667 
#    6.000    0.000    0.000    6.000    0.000    0.000 
#    0.000    0.000    0.000    0.000    0.000    0.000 
#
# Total GULP energy -535644.807252 kJ/mol
# GULP energy per Si atom -5579.633409 kJ/mol
# Density = 1.858299 g / cm^3
# Si number density = 18.625384 Si / 1000 Ang^3
#
#
#
# Elastic Constant Matrix: (Units=GPa)
#
#
# Indices 1 2 3 4 5 6 
#
# 1 111.2908 43.3328 7.4103 0.0000 0.0000 0.0000
# 2 43.3328 111.2981 7.4107 0.0000 0.0000 0.0000
# 3 7.4103 7.4107 62.8689 0.0000 0.0000 0.0000
# 4 0.0000 0.0000 0.0000 20.7217 0.0000 0.0000
# 5 0.0000 0.0000 0.0000 0.0000 20.7218 0.0000
# 6 0.0000 0.0000 0.0000 0.0000 0.0000 12.5382
#
#
#
# Elastic Compliance Matrix: (Units=1/GPa)
#
#
# Indices 1 2 3 4 5 6 
#
# 1 0.010628 -0.004087 -0.000771 0.000000 0.000000 0.000000
# 2 -0.004087 0.010627 -0.000771 0.000000 0.000000 0.000000
# 3 -0.000771 -0.000771 0.016088 0.000000 0.000000 0.000000
# 4 0.000000 0.000000 0.000000 0.048259 0.000000 0.000000
# 5 0.000000 0.000000 0.000000 0.000000 0.048258 0.000000
# 6 0.000000 0.000000 0.000000 0.000000 0.000000 0.079756
#
#
# Mechanical properties :
#
#
# Convention : Reuss Voigt Hill
#
# Bulk Modulus (GPa) = 38.33479 44.64062 41.48770
# Shear Modulus (GPa) = 21.40697 25.94993 23.67845
#
# Velocity S-wave (km/s) = 3.39388 3.73668 3.56940
# Velocity P-wave (km/s) = 5.99871 6.52968 6.26982
#
# Compressibility (1/GPa) = 0.02608597
#
# Stress axis : x y z
#
# Youngs Moduli (GPa) = 94.09128 94.09746 62.15856
#
# Poissons Ratio (x) = 0.38454 0.04793
# Poissons Ratio (y) = 0.38451 0.04793
# Poissons Ratio (z) = 0.07255 0.07255
#
# Static dielectric constant tensor:
#      x y z
#    x 1.623320 0.000000 0.000000 
#    y 0.000000 1.623320 0.000000 
#    z 0.000000 0.000000 1.645250 
# 
# From -- ./inp_files/1920.got.cif
#   From: 2010.05.17/outbox.cif.g08.bks.cpg/sg133_1_cif.got.tgz:1920.got - 2010.05.20 12:37:36.
