data_PCOD9567080
_publ_section_title
;
Structure prediction by ZEFSAII (Michael W. Deem and Ramdas Pophale) SiO2 
 PCOD9567080
Probable space group: P 42/M C M
;
_chemical_formula_sum "Si O2"
_cell_formula_units_Z 40
_cell_length_a 10.408632
_cell_length_b 10.408632
_cell_length_c 15.958816
_cell_angle_alpha 90.000000
_cell_angle_beta 90.000000
_cell_angle_gamma 90.000000
_cell_volume 1728.972063
_symmetry_space_group_name_H-M "P 42/M C M"
_symmetry_group_IT_number 132
_symmetry_cell_setting 'tetragonal'
loop_
_space_group_symop_operation_xyz
x,y,z
-y,x,1/2+z
-x,-y,z
y,-x,1/2+z
x,-y,1/2-z
-x,y,1/2-z
y,x,-z
-y,-x,-z
-x,-y,-z
y,-x,1/2-z
x,y,-z
-y,x,1/2-z
-x,y,1/2+z
x,-y,1/2+z
-y,-x,z
y,x,z
loop_
_atom_site_type_symbol
_atom_site_label
_atom_site_fract_x
_atom_site_fract_y
_atom_site_fract_z
Si Si1 0.199047 0.006050 0.649336
Si Si2 0.408608 0.815436 0.668568
Si Si3 0.290262 0.489417 0.500000
O O1 0.099437 0.900564 0.613175
O O2 0.339334 0.948082 0.641092
O O3 0.185210 0.000000 0.750000
O O4 0.144986 0.144986 0.622908
O O5 0.500000 0.822546 0.750000
O O6 0.294170 0.705831 0.682271
O O7 0.488573 0.778419 0.587374
O O8 0.351223 0.351223 0.500000
O O9 0.402818 0.597183 0.500000
#
# Coordination Sequence:
#
# PCOD9567080 Si02
#       3
#    16  16   8
#     4   8  15  30  52  77 106 143 190 243 294 345
#     4  10  19  31  52  82 114 153 197 238 292 359
#     4   9  18  32  49  76 120 164 199 240 285 340
#
# _framework density 23.135131999999999
#
# number of rings (size 3 to 8) (size 9 to 14) (size 15 to 20)
#    0.000    3.000    0.000    2.400    0.000    2.800 
#    0.000    1.000    0.000   10.800    0.000   12.600 
#    0.000   21.600    0.000    0.000    0.000    0.800 
#
# Total GULP energy -222859.629260 kJ/mol
# GULP energy per Si atom -5571.490731 kJ/mol
# Density = 2.308248 g / cm^3
# Si number density = 23.135132 Si / 1000 Ang^3
#
#
#
# Elastic Constant Matrix: (Units=GPa)
#
#
# Indices 1 2 3 4 5 6 
#
# 1 118.7458 88.6145 63.3942 0.0000 0.0000 0.0000
# 2 88.6145 118.7458 63.3944 0.0000 0.0000 0.0000
# 3 63.3942 63.3944 129.5815 0.0000 0.0000 0.0000
# 4 0.0000 0.0000 0.0000 -13.0891 0.0000 0.0000
# 5 0.0000 0.0000 0.0000 0.0000 -13.0897 0.0000
# 6 0.0000 0.0000 0.0000 0.0000 0.0000 60.1133
#
#
#
# Elastic Compliance Matrix: (Units=1/GPa)
#
#
# Indices 1 2 3 4 5 6 
#
# 1 0.020034 -0.013154 -0.003366 0.000000 0.000000 0.000000
# 2 -0.013154 0.020034 -0.003366 0.000000 0.000000 0.000000
# 3 -0.003366 -0.003366 0.011011 0.000000 0.000000 0.000000
# 4 0.000000 0.000000 0.000000 -0.076399 0.000000 0.000000
# 5 0.000000 0.000000 0.000000 0.000000 -0.076396 0.000000
# 6 0.000000 0.000000 0.000000 0.000000 0.000000 0.016635
#
#
# Mechanical properties :
#
#
# Convention : Reuss Voigt Hill
#
# Bulk Modulus (GPa) = 88.43734 88.65326 88.54530
# Shear Modulus (GPa) = -120.36994 16.89822 -51.73586
#
# Velocity S-wave (km/s) = -7.22094 2.70555 -4.73403
# Velocity P-wave (km/s) = 5.58688 6.93995 2.91116
#
# Compressibility (1/GPa) = 0.01130744
#
# Stress axis : x y z
#
# Youngs Moduli (GPa) = 49.91415 49.91405 90.81957
#
# Poissons Ratio (x) = 0.65655 0.30572
# Poissons Ratio (y) = 0.65655 0.30572
# Poissons Ratio (z) = 0.16802 0.16802
#
# Static dielectric constant tensor:
#      x y z
#    x 1.948940 0.000000 0.000000 
#    y 0.000000 1.948940 0.000000 
#    z 0.000000 0.000000 1.783720 
# 
# From -- ./inp_files/4027.got.cif
#   From: 2010.05.17/outbox.cif.g08.bks.cpg/sg132_3_cif.got.tgz:4027.got - 2010.05.20 12:30:18.
