data_PCOD9567969
_publ_section_title
;
Structure prediction by ZEFSAII (Michael W. Deem and Ramdas Pophale) SiO2 
 PCOD9567969
Probable space group: P 42/N B C
;
_chemical_formula_sum "Si O2"
_cell_formula_units_Z 112
_cell_length_a 14.468397
_cell_length_b 14.468397
_cell_length_c 23.121260
_cell_angle_alpha 90.000000
_cell_angle_beta 90.000000
_cell_angle_gamma 90.000000
_cell_volume 4840.077673
_symmetry_space_group_name_H-M "P 42/N B C"
_symmetry_group_IT_number 133
_space_group.IT_coordinate_system_code '2'
_symmetry_cell_setting 'tetragonal'
loop_
_space_group_symop_operation_xyz
x,y,z
1/2-y,x,1/2+z
1/2-x,1/2-y,z
y,1/2-x,1/2+z
x,1/2-y,-z
1/2-x,y,-z
y,x,1/2-z
1/2-y,1/2-x,1/2-z
-x,-y,-z
1/2+y,-x,1/2-z
1/2+x,1/2+y,-z
-y,1/2+x,1/2-z
-x,1/2+y,z
1/2+x,-y,z
-y,-x,1/2+z
1/2+y,1/2+x,1/2+z
loop_
_atom_site_type_symbol
_atom_site_label
_atom_site_fract_x
_atom_site_fract_y
_atom_site_fract_z
Si Si1 0.117152 0.805850 0.940698
Si Si2 0.223411 0.343494 0.686776
Si Si3 0.235715 0.992793 0.937616
Si Si4 0.892154 0.000442 0.655908
Si Si5 0.878176 0.110039 0.382646
Si Si6 0.410711 0.083823 0.359063
Si Si7 0.877291 0.324024 0.744254
O O1 0.184369 0.893288 0.948465
O O2 0.034502 0.853913 0.905537
O O3 0.149155 0.722523 0.898700
O O4 0.100297 0.750000 0.000000
O O5 0.250000 0.250000 0.654168
O O6 0.186892 0.313109 0.750000
O O7 0.136266 0.394774 0.659674
O O8 0.177523 0.103117 0.682419
O O9 0.333270 0.959627 0.912167
O O10 0.172779 0.053161 0.894443
O O11 0.250000 0.038047 0.000000
O O12 0.833440 0.043542 0.708863
O O13 0.994247 0.040390 0.666581
O O14 0.891657 0.120779 0.314273
O O15 0.878361 0.002105 0.399094
O O16 0.861145 0.217514 0.727830
#
# Coordination Sequence:
#
# PCOD9567969 Si02
#       7
#    16  16  16  16  16  16  16
#     4  11  21  44  73 107 151 195 253 328 393 461
#     4  11  27  49  75 104 155 204 253 307 386 474
#     4  11  25  43  75 110 147 198 263 328 395 464
#     4  11  25  48  72 114 145 204 257 315 385 464
#     4  12  24  41  69 105 151 193 255 310 391 455
#     4  11  27  48  73 111 154 202 265 316 388 477
#     4  11  22  36  64 103 152 183 237 316 379 451
#
# _framework density 23.140122999999999
#
# number of rings (size 3 to 8) (size 9 to 14) (size 15 to 20)
#    0.000    0.857    4.286    2.143    6.000    6.286 
#    0.000    0.000    0.000    0.000    0.000    0.000 
#    0.000    0.000    0.000    0.000    0.000    0.000 
#
# Total GULP energy -625230.664562 kJ/mol
# GULP energy per Si atom -5582.416648 kJ/mol
# Density = 2.308746 g / cm^3
# Si number density = 23.140123 Si / 1000 Ang^3
#
#
#
# Elastic Constant Matrix: (Units=GPa)
#
#
# Indices 1 2 3 4 5 6 
#
# 1 114.1354 37.4828 32.2184 0.0000 0.0000 0.0000
# 2 37.4828 114.1353 32.2185 0.0000 0.0000 0.0000
# 3 32.2184 32.2185 80.2140 0.0000 0.0000 0.0000
# 4 0.0000 0.0000 0.0000 18.9105 0.0000 0.0000
# 5 0.0000 0.0000 0.0000 0.0000 18.9104 0.0000
# 6 0.0000 0.0000 0.0000 0.0000 0.0000 35.3009
#
#
#
# Elastic Compliance Matrix: (Units=1/GPa)
#
#
# Indices 1 2 3 4 5 6 
#
# 1 0.010499 -0.002546 -0.003194 0.000000 0.000000 0.000000
# 2 -0.002546 0.010500 -0.003194 0.000000 0.000000 0.000000
# 3 -0.003194 -0.003194 0.015033 0.000000 0.000000 0.000000
# 4 0.000000 0.000000 0.000000 0.052881 0.000000 0.000000
# 5 0.000000 0.000000 0.000000 0.000000 0.052881 0.000000
# 6 0.000000 0.000000 0.000000 0.000000 0.000000 0.028328
#
#
# Mechanical properties :
#
#
# Convention : Reuss Voigt Hill
#
# Bulk Modulus (GPa) = 55.06201 56.92487 55.99344
# Shear Modulus (GPa) = 25.76717 28.39537 27.08127
#
# Velocity S-wave (km/s) = 3.34058 3.50681 3.42470
# Velocity P-wave (km/s) = 6.22302 6.40706 6.31571
#
# Compressibility (1/GPa) = 0.01816134
#
# Stress axis : x y z
#
# Youngs Moduli (GPa) = 95.24272 95.24250 66.52136
#
# Poissons Ratio (x) = 0.24252 0.21250
# Poissons Ratio (y) = 0.24252 0.21250
# Poissons Ratio (z) = 0.30424 0.30425
#
# Static dielectric constant tensor:
#      x y z
#    x 1.985250 0.000000 0.000000 
#    y 0.000000 1.985250 0.000000 
#    z 0.000000 0.000000 1.876930 
# 
# From -- ./inp_files/7259.got.cif
#   From: 2010.05.17/outbox.cif.g08.bks.cpg/sg133_4_cif.got.tgz:7259.got - 2010.05.20 12:37:36.
