data_PCOD9567580
_publ_section_title
;
Structure prediction by ZEFSAII (Michael W. Deem and Ramdas Pophale) SiO2 
 PCOD9567580
Probable space group: P 42/N B C
;
_chemical_formula_sum "Si O2"
_cell_formula_units_Z 80
_cell_length_a 12.892257
_cell_length_b 12.892257
_cell_length_c 20.316122
_cell_angle_alpha 90.000000
_cell_angle_beta 90.000000
_cell_angle_gamma 90.000000
_cell_volume 3376.748541
_symmetry_space_group_name_H-M "P 42/N B C"
_symmetry_group_IT_number 133
_space_group.IT_coordinate_system_code '2'
_symmetry_cell_setting 'tetragonal'
loop_
_space_group_symop_operation_xyz
x,y,z
1/2-y,x,1/2+z
1/2-x,1/2-y,z
y,1/2-x,1/2+z
x,1/2-y,-z
1/2-x,y,-z
y,x,1/2-z
1/2-y,1/2-x,1/2-z
-x,-y,-z
1/2+y,-x,1/2-z
1/2+x,1/2+y,-z
-y,1/2+x,1/2-z
-x,1/2+y,z
1/2+x,-y,z
-y,-x,1/2+z
1/2+y,1/2+x,1/2+z
loop_
_atom_site_type_symbol
_atom_site_label
_atom_site_fract_x
_atom_site_fract_y
_atom_site_fract_z
Si Si1 0.567577 0.743722 0.648099
Si Si2 0.594584 0.966371 0.676933
Si Si3 0.087073 0.741675 0.239726
Si Si4 0.055399 0.427544 0.926863
Si Si5 0.924624 0.344508 0.462950
O O1 0.628254 0.848069 0.664131
O O2 0.505731 0.706862 0.713016
O O3 0.624095 0.648935 0.613043
O O4 0.479265 0.787996 0.598481
O O5 0.541848 0.958153 0.750000
O O6 0.694447 0.039050 0.680396
O O7 0.516397 0.010873 0.622697
O O8 0.153549 0.831344 0.277146
O O9 0.951120 0.366356 0.945549
O O10 0.109898 0.483156 0.989463
O O11 0.869984 0.250000 0.500000
#
# Coordination Sequence:
#
# PCOD9567580 Si02
#       5
#    16  16  16  16  16
#     4   9  16  27  43  66  93 127 172 214 269 332
#     4   9  17  27  42  66  91 125 172 213 266 329
#     4  10  18  28  43  64  92 130 171 213 281 348
#     4   9  14  26  42  65  98 126 166 221 260 324
#     4   8  15  24  42  67  94 130 165 214 268 317
#
# _framework density 23.691428999999999
#
# number of rings (size 3 to 8) (size 9 to 14) (size 15 to 20)
#    0.000    3.000    2.000    0.000    0.000    0.000 
#    0.000    0.000    0.000    1.200    0.000   16.800 
#    0.000    0.000    0.000  137.800    7.600    0.000 
#
# Total GULP energy -445843.443417 kJ/mol
# GULP energy per Si atom -5573.043043 kJ/mol
# Density = 2.363751 g / cm^3
# Si number density = 23.691429 Si / 1000 Ang^3
#
#
#
# Elastic Constant Matrix: (Units=GPa)
#
#
# Indices 1 2 3 4 5 6 
#
# 1 99.4697 8.3894 7.4346 0.0000 0.0000 0.0000
# 2 8.3894 99.4698 7.4347 0.0000 0.0000 0.0000
# 3 7.4346 7.4347 75.8807 0.0000 0.0000 0.0000
# 4 0.0000 0.0000 0.0000 11.0210 0.0000 0.0000
# 5 0.0000 0.0000 0.0000 0.0000 11.0210 0.0000
# 6 0.0000 0.0000 0.0000 0.0000 0.0000 6.7633
#
#
#
# Elastic Compliance Matrix: (Units=1/GPa)
#
#
# Indices 1 2 3 4 5 6 
#
# 1 0.010189 -0.000791 -0.000921 0.000000 0.000000 0.000000
# 2 -0.000791 0.010189 -0.000921 0.000000 0.000000 0.000000
# 3 -0.000921 -0.000921 0.013359 0.000000 0.000000 0.000000
# 4 0.000000 0.000000 0.000000 0.090735 0.000000 0.000000
# 5 0.000000 0.000000 0.000000 0.000000 0.090736 0.000000
# 6 0.000000 0.000000 0.000000 0.000000 0.000000 0.147857
#
#
# Mechanical properties :
#
#
# Convention : Reuss Voigt Hill
#
# Bulk Modulus (GPa) = 35.12184 35.70417 35.41301
# Shear Modulus (GPa) = 13.23382 22.53184 17.88283
#
# Velocity S-wave (km/s) = 2.36602 3.08726 2.75038
# Velocity P-wave (km/s) = 4.72450 5.27366 5.00662
#
# Compressibility (1/GPa) = 0.02847231
#
# Stress axis : x y z
#
# Youngs Moduli (GPa) = 98.14685 98.14700 74.85573
#
# Poissons Ratio (x) = 0.07759 0.06893
# Poissons Ratio (y) = 0.07759 0.06893
# Poissons Ratio (z) = 0.09038 0.09038
#
# Static dielectric constant tensor:
#      x y z
#    x 1.916950 0.000000 0.000000 
#    y 0.000000 1.916950 0.000000 
#    z 0.000000 0.000000 1.952810 
# 
# From -- ./inp_files/6337.got.cif
#   From: 2010.05.17/outbox.cif.g08.bks.cpg/sg133_4_cif.got.tgz:6337.got - 2010.05.20 12:37:36.
