data_PCOD9567357
_publ_section_title
;
Structure prediction by ZEFSAII (Michael W. Deem and Ramdas Pophale) SiO2 
 PCOD9567357
Probable space group: P 42/M C M
;
_chemical_formula_sum "Si O2"
_cell_formula_units_Z 56
_cell_length_a 12.309172
_cell_length_b 12.309172
_cell_length_c 14.436647
_cell_angle_alpha 90.000000
_cell_angle_beta 90.000000
_cell_angle_gamma 90.000000
_cell_volume 2187.378897
_symmetry_space_group_name_H-M "P 42/M C M"
_symmetry_group_IT_number 132
_symmetry_cell_setting 'tetragonal'
loop_
_space_group_symop_operation_xyz
x,y,z
-y,x,1/2+z
-x,-y,z
y,-x,1/2+z
x,-y,1/2-z
-x,y,1/2-z
y,x,-z
-y,-x,-z
-x,-y,-z
y,-x,1/2-z
x,y,-z
-y,x,1/2-z
-x,y,1/2+z
x,-y,1/2+z
-y,-x,z
y,x,z
loop_
_atom_site_type_symbol
_atom_site_label
_atom_site_fract_x
_atom_site_fract_y
_atom_site_fract_z
Si Si1 0.332586 0.166991 0.394646
Si Si2 0.068493 0.337981 0.112386
Si Si3 0.287076 0.458419 0.850598
Si Si4 0.086797 0.086797 0.111766
O O1 0.298535 0.139872 0.500000
O O2 0.230372 0.230372 0.350229
O O3 0.431913 0.250294 0.399857
O O4 0.376561 0.051817 0.358283
O O5 0.176149 0.388406 0.156223
O O6 0.062559 0.210690 0.135630
O O7 0.083042 0.354395 0.000000
O O8 0.320566 0.500000 0.750000
O O9 0.381289 0.381289 0.889447
O O10 0.082756 0.082756 0.000000
O O11 0.000000 0.000000 0.146492
#
# Coordination Sequence:
#
# PCOD9567357 Si02
#       4
#    16  16  16   8
#     4  10  22  40  64  96 131 166 207 263 324 388
#     4  10  20  38  65  98 131 164 209 261 322 394
#     4  12  26  43  62  87 121 170 224 275 320 377
#     4   9  16  30  60 100 137 167 196 245 315 393
#
# _framework density 25.601416
#
# number of rings (size 3 to 8) (size 9 to 14) (size 15 to 20)
#    0.000    1.571    1.429    3.429    0.000   11.714 
#    0.000    1.429    0.000    0.000    0.000    0.000 
#    0.000    0.000    0.000    0.000    0.000    0.000 
#
# Total GULP energy -313178.944667 kJ/mol
# GULP energy per Si atom -5592.481155 kJ/mol
# Density = 2.554315 g / cm^3
# Si number density = 25.601416 Si / 1000 Ang^3
#
#
#
# Elastic Constant Matrix: (Units=GPa)
#
#
# Indices 1 2 3 4 5 6 
#
# 1 121.3163 65.4033 5.0476 0.0000 0.0000 0.0000
# 2 65.4033 121.3163 5.0476 0.0000 0.0000 0.0000
# 3 5.0476 5.0476 57.8282 0.0000 0.0000 0.0000
# 4 0.0000 0.0000 0.0000 24.0726 0.0000 0.0000
# 5 0.0000 0.0000 0.0000 0.0000 24.0726 0.0000
# 6 0.0000 0.0000 0.0000 0.0000 0.0000 66.5048
#
#
#
# Elastic Compliance Matrix: (Units=1/GPa)
#
#
# Indices 1 2 3 4 5 6 
#
# 1 0.011633 -0.006252 -0.000470 0.000000 0.000000 0.000000
# 2 -0.006252 0.011633 -0.000470 0.000000 0.000000 0.000000
# 3 -0.000470 -0.000470 0.017375 0.000000 0.000000 0.000000
# 4 0.000000 0.000000 0.000000 0.041541 0.000000 0.000000
# 5 0.000000 0.000000 0.000000 0.000000 0.041541 0.000000
# 6 0.000000 0.000000 0.000000 0.000000 0.000000 0.015037
#
#
# Mechanical properties :
#
#
# Convention : Reuss Voigt Hill
#
# Bulk Modulus (GPa) = 38.08378 50.16196 44.12287
# Shear Modulus (GPa) = 30.88434 37.92749 34.40591
#
# Velocity S-wave (km/s) = 3.47703 3.85315 3.66991
# Velocity P-wave (km/s) = 5.57024 6.27946 5.93545
#
# Compressibility (1/GPa) = 0.02625790
#
# Stress axis : x y z
#
# Youngs Moduli (GPa) = 85.96259 85.96259 57.55528
#
# Poissons Ratio (x) = 0.53743 0.02703
# Poissons Ratio (y) = 0.53743 0.02703
# Poissons Ratio (z) = 0.04038 0.04038
#
# Static dielectric constant tensor:
#      x y z
#    x 2.024860 0.000000 0.000000 
#    y 0.000000 2.024860 0.000000 
#    z 0.000000 0.000000 2.082220 
# 
# From -- ./inp_files/7296.got.cif
#   From: 2010.05.17/outbox.cif.g08.bks.cpg/sg132_4_cif.got.tgz:7296.got - 2010.05.20 12:30:18.
