data_PCOD9567413
_publ_section_title
;
Structure prediction by ZEFSAII (Michael W. Deem and Ramdas Pophale) SiO2 
 PCOD9567413
Probable space group: P 42/M C M
;
_chemical_formula_sum "Si O2"
_cell_formula_units_Z 72
_cell_length_a 14.604636
_cell_length_b 14.604636
_cell_length_c 15.204876
_cell_angle_alpha 90.000000
_cell_angle_beta 90.000000
_cell_angle_gamma 90.000000
_cell_volume 3243.129997
_symmetry_space_group_name_H-M "P 42/M C M"
_symmetry_group_IT_number 132
_symmetry_cell_setting 'tetragonal'
loop_
_space_group_symop_operation_xyz
x,y,z
-y,x,1/2+z
-x,-y,z
y,-x,1/2+z
x,-y,1/2-z
-x,y,1/2-z
y,x,-z
-y,-x,-z
-x,-y,-z
y,-x,1/2-z
x,y,-z
-y,x,1/2-z
-x,y,1/2+z
x,-y,1/2+z
-y,-x,z
y,x,z
loop_
_atom_site_type_symbol
_atom_site_label
_atom_site_fract_x
_atom_site_fract_y
_atom_site_fract_z
Si Si1 0.335324 0.478211 0.400519
Si Si2 0.670734 0.188188 0.133759
Si Si3 0.001912 0.848759 0.000000
Si Si4 0.212513 0.645950 0.342101
Si Si5 0.694888 0.987310 0.143749
O O1 0.357998 0.505071 0.500000
O O2 0.424225 0.424225 0.361925
O O3 0.256959 0.401813 0.405644
O O4 0.283722 0.562985 0.355621
O O5 0.771291 0.228710 0.111693
O O6 0.658530 0.200254 0.238175
O O7 0.651060 0.083168 0.112973
O O8 0.986745 0.787321 0.086954
O O9 0.098810 0.901191 0.000000
O O10 0.925794 0.925794 0.000000
O O11 0.263667 0.736334 0.378158
O O12 0.107479 0.640928 0.374696
O O13 0.709308 0.000000 0.250000
#
# Coordination Sequence:
#
# PCOD9567413 Si02
#       5
#    16  16   8  16  16
#     4  10  22  38  58  87 121 159 205 260 320 384
#     4   9  19  38  62  87 118 160 209 259 318 382
#     4  11  24  38  58  91 127 171 222 267 323 389
#     4  10  21  38  61  87 121 165 209 259 315 375
#     4  10  22  40  63  92 126 167 214 266 325 386
#
# _framework density 22.200775
#
# number of rings (size 3 to 8) (size 9 to 14) (size 15 to 20)
#    0.000    2.111    0.000    2.000    3.111    4.444 
#    0.000    6.667    0.000    4.000    0.000    0.000 
#    0.000    0.000    0.000    0.000    0.000    0.000 
#
# Total GULP energy -401340.329184 kJ/mol
# GULP energy per Si atom -5574.171239 kJ/mol
# Density = 2.215024 g / cm^3
# Si number density = 22.200775 Si / 1000 Ang^3
#
#
#
# Elastic Constant Matrix: (Units=GPa)
#
#
# Indices 1 2 3 4 5 6 
#
# 1 142.9567 91.1807 18.0794 0.0000 0.0000 0.0000
# 2 91.1807 142.9577 18.0792 0.0000 0.0000 0.0000
# 3 18.0794 18.0792 37.6104 0.0000 0.0000 0.0000
# 4 0.0000 0.0000 0.0000 3570.5868 0.0000 0.0000
# 5 0.0000 0.0000 0.0000 0.0000 3566.4887 0.0000
# 6 0.0000 0.0000 0.0000 0.0000 0.0000 44.9218
#
#
#
# Elastic Compliance Matrix: (Units=1/GPa)
#
#
# Indices 1 2 3 4 5 6 
#
# 1 0.011964 -0.007350 -0.002218 0.000000 0.000000 0.000000
# 2 -0.007350 0.011964 -0.002218 0.000000 0.000000 0.000000
# 3 -0.002218 -0.002218 0.028720 0.000000 0.000000 0.000000
# 4 0.000000 0.000000 0.000000 0.000280 0.000000 0.000000
# 5 0.000000 0.000000 0.000000 0.000000 0.000280 0.000000
# 6 0.000000 0.000000 0.000000 0.000000 0.000000 0.022261
#
#
# Mechanical properties :
#
#
# Convention : Reuss Voigt Hill
#
# Bulk Modulus (GPa) = 34.39186 64.24481 49.31834
# Shear Modulus (GPa) = 45.98449 1449.47849 747.73149
#
# Velocity S-wave (km/s) = 4.55609 25.57954 18.37214
# Velocity P-wave (km/s) = 6.57284 30.02362 21.73270
#
# Compressibility (1/GPa) = 0.02907664
#
# Stress axis : x y z
#
# Youngs Moduli (GPa) = 83.58639 83.58708 34.81838
#
# Poissons Ratio (x) = 0.61438 0.07722
# Poissons Ratio (y) = 0.61437 0.07721
# Poissons Ratio (z) = 0.18537 0.18536
#
# Static dielectric constant tensor:
#      x y z
#    x 1.834240 0.000000 0.000000 
#    y 0.000000 1.834230 0.000000 
#    z 0.000000 0.000000 1.881520 
# 
# From -- ./inp_files/6096.got.cif
#   From: 2010.05.17/outbox.cif.g08.bks.cpg/sg132_4_cif.got.tgz:6096.got - 2010.05.20 12:30:18.
