data_PCOD9567619
_publ_section_title
;
Structure prediction by ZEFSAII (Michael W. Deem and Ramdas Pophale) SiO2 
 PCOD9567619
Probable space group: P 42/N B C
;
_chemical_formula_sum "Si O2"
_cell_formula_units_Z 116
_cell_length_a 16.838656
_cell_length_b 16.838656
_cell_length_c 19.720633
_cell_angle_alpha 90.000000
_cell_angle_beta 90.000000
_cell_angle_gamma 90.000000
_cell_volume 5591.594905
_symmetry_space_group_name_H-M "P 42/N B C"
_symmetry_group_IT_number 133
_space_group.IT_coordinate_system_code '2'
_symmetry_cell_setting 'tetragonal'
loop_
_space_group_symop_operation_xyz
x,y,z
1/2-y,x,1/2+z
1/2-x,1/2-y,z
y,1/2-x,1/2+z
x,1/2-y,-z
1/2-x,y,-z
y,x,1/2-z
1/2-y,1/2-x,1/2-z
-x,-y,-z
1/2+y,-x,1/2-z
1/2+x,1/2+y,-z
-y,1/2+x,1/2-z
-x,1/2+y,z
1/2+x,-y,z
-y,-x,1/2+z
1/2+y,1/2+x,1/2+z
loop_
_atom_site_type_symbol
_atom_site_label
_atom_site_fract_x
_atom_site_fract_y
_atom_site_fract_z
Si Si1 0.524665 0.043846 0.568513
Si Si2 0.388316 0.816954 0.907254
Si Si3 0.239993 0.043092 0.418784
Si Si4 0.662500 0.351110 0.257217
Si Si5 0.499320 0.417395 0.685414
Si Si6 0.655997 0.895531 0.067179
Si Si7 0.374955 0.168322 0.404379
Si Si8 0.750000 0.250000 0.000000
O O1 0.617832 0.056190 0.558359
O O2 0.485789 0.130451 0.578349
O O3 0.500000 0.000000 0.500000
O O4 0.500102 0.989511 0.631679
O O5 0.451378 0.745732 0.897378
O O6 0.368251 0.854654 0.835489
O O7 0.310815 0.796527 0.950538
O O8 0.250000 0.045601 0.500000
O O9 0.156227 0.083530 0.405022
O O10 0.306103 0.103932 0.388430
O O11 0.758704 0.357978 0.253802
O O12 0.618219 0.416505 0.210889
O O13 0.449705 0.449705 0.750000
O O14 0.448931 0.352215 0.643452
O O15 0.736957 0.862163 0.099023
O O16 0.658747 0.888962 0.985298
#
# Coordination Sequence:
#
# PCOD9567619 Si02
#       8
#    16  16  16  16  16  16  16   4
#     4  12  24  42  66 103 138 175 232 292 348 410
#     4  12  25  46  66 103 139 179 238 288 356 428
#     4  10  18  39  65  94 137 174 212 283 353 416
#     4  11  27  48  69  95 135 187 237 288 353 433
#     4  12  24  44  71  94 139 192 227 281 360 429
#     4  10  22  36  66 103 134 169 224 291 346 405
#     4  10  20  39  64 103 132 175 224 277 349 417
#     4  12  28  40  78 104 138 188 238 306 356 412
#
# _framework density 20.745422999999999
#
# number of rings (size 3 to 8) (size 9 to 14) (size 15 to 20)
#    0.000    0.966    4.828    2.069    3.862    3.862 
#    0.000    0.000    0.000    2.483    0.000    0.000 
#    0.000    0.000    0.000    0.000    0.000    0.000 
#
# Total GULP energy -646896.047676 kJ/mol
# GULP energy per Si atom -5576.690066 kJ/mol
# Density = 2.069821 g / cm^3
# Si number density = 20.745423 Si / 1000 Ang^3
#
#
#
# Elastic Constant Matrix: (Units=GPa)
#
#
# Indices 1 2 3 4 5 6 
#
# 1 107.1180 39.2674 31.2410 0.0000 0.0000 0.0000
# 2 39.2674 107.1180 31.2410 0.0000 0.0000 0.0000
# 3 31.2410 31.2410 82.8436 0.0000 0.0000 0.0000
# 4 0.0000 0.0000 0.0000 28.6902 0.0000 0.0000
# 5 0.0000 0.0000 0.0000 0.0000 28.6902 0.0000
# 6 0.0000 0.0000 0.0000 0.0000 0.0000 38.3922
#
#
#
# Elastic Compliance Matrix: (Units=1/GPa)
#
#
# Indices 1 2 3 4 5 6 
#
# 1 0.011440 -0.003298 -0.003070 0.000000 0.000000 0.000000
# 2 -0.003298 0.011440 -0.003070 0.000000 0.000000 0.000000
# 3 -0.003070 -0.003070 0.014387 0.000000 0.000000 0.000000
# 4 0.000000 0.000000 0.000000 0.034855 0.000000 0.000000
# 5 0.000000 0.000000 0.000000 0.000000 0.034855 0.000000
# 6 0.000000 0.000000 0.000000 0.000000 0.000000 0.026047
#
#
# Mechanical properties :
#
#
# Convention : Reuss Voigt Hill
#
# Bulk Modulus (GPa) = 54.38070 55.61984 55.00027
# Shear Modulus (GPa) = 31.63930 32.17654 31.90792
#
# Velocity S-wave (km/s) = 3.90952 3.94257 3.92608
# Velocity P-wave (km/s) = 6.83003 6.89884 6.86452
#
# Compressibility (1/GPa) = 0.01838888
#
# Stress axis : x y z
#
# Youngs Moduli (GPa) = 87.41236 87.41236 69.50890
#
# Poissons Ratio (x) = 0.28831 0.21342
# Poissons Ratio (y) = 0.28831 0.21342
# Poissons Ratio (z) = 0.26839 0.26839
#
# Static dielectric constant tensor:
#      x y z
#    x 1.818570 0.000000 0.000000 
#    y 0.000000 1.818570 0.000000 
#    z 0.000000 0.000000 1.746380 
# 
# From -- ./inp_files/5637.got.cif
#   From: 2010.05.17/outbox.cif.g08.bks.cpg/sg133_3_cif.got.tgz:5637.got - 2010.05.20 12:37:36.
