data_PCOD9567883
_publ_section_title
;
Structure prediction by ZEFSAII (Michael W. Deem and Ramdas Pophale) SiO2 
 PCOD9567883
Probable space group: P 42/N B C
;
_chemical_formula_sum "Si O2"
_cell_formula_units_Z 60
_cell_length_a 18.319252
_cell_length_b 18.319252
_cell_length_c 9.270762
_cell_angle_alpha 90.000000
_cell_angle_beta 90.000000
_cell_angle_gamma 90.000000
_cell_volume 3111.221316
_symmetry_space_group_name_H-M "P 42/N B C"
_symmetry_group_IT_number 133
_space_group.IT_coordinate_system_code '2'
_symmetry_cell_setting 'tetragonal'
loop_
_space_group_symop_operation_xyz
x,y,z
1/2-y,x,1/2+z
1/2-x,1/2-y,z
y,1/2-x,1/2+z
x,1/2-y,-z
1/2-x,y,-z
y,x,1/2-z
1/2-y,1/2-x,1/2-z
-x,-y,-z
1/2+y,-x,1/2-z
1/2+x,1/2+y,-z
-y,1/2+x,1/2-z
-x,1/2+y,z
1/2+x,-y,z
-y,-x,1/2+z
1/2+y,1/2+x,1/2+z
loop_
_atom_site_type_symbol
_atom_site_label
_atom_site_fract_x
_atom_site_fract_y
_atom_site_fract_z
Si Si1 0.578039 0.094414 0.570599
Si Si2 0.301454 0.596515 0.821580
Si Si3 0.750000 0.250000 0.250000
Si Si4 0.306468 0.503793 0.380168
Si Si5 0.935121 0.935121 0.750000
O O1 0.565319 0.166132 0.470961
O O2 0.631790 0.102872 0.706986
O O3 0.502688 0.061136 0.634377
O O4 0.629309 0.047523 0.463749
O O5 0.273690 0.679350 0.840591
O O6 0.240058 0.550132 0.736336
O O7 0.250000 0.478963 0.500000
O O8 0.353653 0.442075 0.307886
#
# Coordination Sequence:
#
# PCOD9567883 Si02
#       5
#    16  16   4  16   8
#     4  11  22  40  60  94 127 172 215 257 307 382
#     4  11  23  37  58  91 136 169 213 247 308 388
#     4  12  20  34  56  86 132 190 184 238 300 398
#     4  10  23  41  57  93 129 157 216 265 308 378
#     4  12  22  40  68  86 127 173 214 266 324 368
#
# _framework density 19.285029999999999
#
# number of rings (size 3 to 8) (size 9 to 14) (size 15 to 20)
#    0.000    1.067    5.333    0.800    0.000    5.333 
#    0.000    0.000    0.000    0.000    0.000   11.200 
#    0.000    0.000    0.000    0.000    0.000    0.000 
#
# Total GULP energy -334508.479447 kJ/mol
# GULP energy per Si atom -5575.141324 kJ/mol
# Density = 1.924114 g / cm^3
# Si number density = 19.285030 Si / 1000 Ang^3
#
#
#
# Elastic Constant Matrix: (Units=GPa)
#
#
# Indices 1 2 3 4 5 6 
#
# 1 117.7641 70.3086 62.8725 0.0000 0.0000 0.0000
# 2 70.3086 117.7641 62.8725 0.0000 0.0000 0.0000
# 3 62.8725 62.8725 141.5753 0.0000 0.0000 0.0000
# 4 0.0000 0.0000 0.0000 42.8089 0.0000 0.0000
# 5 0.0000 0.0000 0.0000 0.0000 42.8089 0.0000
# 6 0.0000 0.0000 0.0000 0.0000 0.0000 43.9393
#
#
#
# Elastic Compliance Matrix: (Units=1/GPa)
#
#
# Indices 1 2 3 4 5 6 
#
# 1 0.014317 -0.006755 -0.003358 0.000000 0.000000 0.000000
# 2 -0.006755 0.014317 -0.003358 0.000000 0.000000 0.000000
# 3 -0.003358 -0.003358 0.010046 0.000000 0.000000 0.000000
# 4 0.000000 0.000000 0.000000 0.023360 0.000000 0.000000
# 5 0.000000 0.000000 0.000000 0.000000 0.023360 0.000000
# 6 0.000000 0.000000 0.000000 0.000000 0.000000 0.022759
#
#
# Mechanical properties :
#
#
# Convention : Reuss Voigt Hill
#
# Bulk Modulus (GPa) = 85.19667 85.46785 85.33226
# Shear Modulus (GPa) = 35.96722 37.98140 36.97431
#
# Velocity S-wave (km/s) = 4.32329 4.44269 4.38340
# Velocity P-wave (km/s) = 8.31833 8.41018 8.36438
#
# Compressibility (1/GPa) = 0.01173755
#
# Stress axis : x y z
#
# Youngs Moduli (GPa) = 69.84472 69.84472 99.53882
#
# Poissons Ratio (x) = 0.47179 0.33430
# Poissons Ratio (y) = 0.47179 0.33430
# Poissons Ratio (z) = 0.23457 0.23457
#
# Static dielectric constant tensor:
#      x y z
#    x 1.701110 0.000000 0.000000 
#    y 0.000000 1.701110 0.000000 
#    z 0.000000 0.000000 1.788910 
# 
# From -- ./inp_files/1348.got.cif
#   From: 2010.05.17/outbox.cif.g08.bks.cpg/sg133_1_cif.got.tgz:1348.got - 2010.05.20 12:37:36.
