data_PCOD9567071
_publ_section_title
;
Structure prediction by ZEFSAII (Michael W. Deem and Ramdas Pophale) SiO2 
 PCOD9567071
Probable space group: P 42/M C M
;
_chemical_formula_sum "Si O2"
_cell_formula_units_Z 112
_cell_length_a 20.165855
_cell_length_b 20.165855
_cell_length_c 16.377439
_cell_angle_alpha 90.000000
_cell_angle_beta 90.000000
_cell_angle_gamma 90.000000
_cell_volume 6660.077314
_symmetry_space_group_name_H-M "P 42/M C M"
_symmetry_group_IT_number 132
_symmetry_cell_setting 'tetragonal'
loop_
_space_group_symop_operation_xyz
x,y,z
-y,x,1/2+z
-x,-y,z
y,-x,1/2+z
x,-y,1/2-z
-x,y,1/2-z
y,x,-z
-y,-x,-z
-x,-y,-z
y,-x,1/2-z
x,y,-z
-y,x,1/2-z
-x,y,1/2+z
x,-y,1/2+z
-y,-x,z
y,x,z
loop_
_atom_site_type_symbol
_atom_site_label
_atom_site_fract_x
_atom_site_fract_y
_atom_site_fract_z
Si Si1 0.258115 0.843695 0.649014
Si Si2 0.360422 0.744290 0.732737
Si Si3 0.630351 0.936006 0.092220
Si Si4 0.390785 0.201638 0.407313
Si Si5 0.696432 0.931564 0.403161
Si Si6 0.831428 0.470486 0.337644
Si Si7 0.179849 0.927576 0.217235
O O1 0.208034 0.791967 0.607044
O O2 0.306305 0.799547 0.706313
O O3 0.304534 0.889359 0.594373
O O4 0.215905 0.890518 0.707810
O O5 0.326241 0.673760 0.715313
O O6 0.374882 0.752055 0.829348
O O7 0.424456 0.766758 0.680389
O O8 0.574484 0.892538 0.134876
O O9 0.652260 0.006581 0.128356
O O10 0.608369 0.948368 0.000000
O O11 0.378743 0.226378 0.500000
O O12 0.345243 0.136166 0.395413
O O13 0.468187 0.182600 0.397057
O O14 0.708768 0.942180 0.500000
O O15 0.764912 0.930287 0.353827
O O16 0.848937 0.500000 0.250000
O O17 0.117056 0.882945 0.192750
O O18 0.161324 0.000000 0.250000
#
# Coordination Sequence:
#
# PCOD9567071 Si02
#       7
#    16  16  16  16  16  16  16
#     4   9  17  30  49  71  92 122 164 216 264 301
#     4   9  17  31  49  71  98 129 171 210 242 287
#     4  10  19  32  49  69  98 132 171 211 250 310
#     4  10  19  31  48  72 105 136 164 202 251 304
#     4  10  21  34  50  74 101 131 168 211 258 313
#     4   9  19  33  48  71 102 139 170 203 250 295
#     4  11  21  35  55  74  98 129 171 222 272 325
#
# _framework density 16.816621999999999
#
# number of rings (size 3 to 8) (size 9 to 14) (size 15 to 20)
#    0.000    2.286    2.857    0.429    0.000    1.571 
#    0.000    5.714    0.000    1.714    0.000    1.000 
#    0.000   23.143    0.000   11.571    0.000    0.429 
#
# Total GULP energy -623882.592995 kJ/mol
# GULP energy per Si atom -5570.380295 kJ/mol
# Density = 1.677835 g / cm^3
# Si number density = 16.816622 Si / 1000 Ang^3
#
#
#
# Elastic Constant Matrix: (Units=GPa)
#
#
# Indices 1 2 3 4 5 6 
#
# 1 69.8344 31.7282 18.6130 0.0000 0.0000 0.0000
# 2 31.7282 69.8344 18.6130 0.0000 0.0000 0.0000
# 3 18.6130 18.6130 47.3242 0.0000 0.0000 0.0000
# 4 0.0000 0.0000 0.0000 15.0068 0.0000 0.0000
# 5 0.0000 0.0000 0.0000 0.0000 15.0068 0.0000
# 6 0.0000 0.0000 0.0000 0.0000 0.0000 19.3812
#
#
#
# Elastic Compliance Matrix: (Units=1/GPa)
#
#
# Indices 1 2 3 4 5 6 
#
# 1 0.018874 -0.007369 -0.004525 0.000000 0.000000 0.000000
# 2 -0.007369 0.018874 -0.004525 0.000000 0.000000 0.000000
# 3 -0.004525 -0.004525 0.024690 0.000000 0.000000 0.000000
# 4 0.000000 0.000000 0.000000 0.066636 0.000000 0.000000
# 5 0.000000 0.000000 0.000000 0.000000 0.066636 0.000000
# 6 0.000000 0.000000 0.000000 0.000000 0.000000 0.051596
#
#
# Mechanical properties :
#
#
# Convention : Reuss Voigt Hill
#
# Bulk Modulus (GPa) = 33.78381 36.10018 34.94199
# Shear Modulus (GPa) = 17.24076 17.74822 17.49449
#
# Velocity S-wave (km/s) = 3.20538 3.25221 3.22888
# Velocity P-wave (km/s) = 5.81657 5.96792 5.89273
#
# Compressibility (1/GPa) = 0.02959998
#
# Stress axis : x y z
#
# Youngs Moduli (GPa) = 52.98420 52.98420 40.50195
#
# Poissons Ratio (x) = 0.39044 0.18327
# Poissons Ratio (y) = 0.39044 0.18327
# Poissons Ratio (z) = 0.23975 0.23975
#
# Static dielectric constant tensor:
#      x y z
#    x 1.577850 0.000000 0.000000 
#    y 0.000000 1.577850 0.000000 
#    z 0.000000 0.000000 1.582740 
# 
# From -- ./inp_files/6762.got.cif
#   From: 2010.05.17/outbox.cif.g08.bks.cpg/sg132_4_cif.got.tgz:6762.got - 2010.05.20 12:30:18.
