data_PCOD9567195
_publ_section_title
;
Structure prediction by ZEFSAII (Michael W. Deem and Ramdas Pophale) SiO2 
 PCOD9567195
Probable space group: P 42/M C M
;
_chemical_formula_sum "Si O2"
_cell_formula_units_Z 42
_cell_length_a 14.730270
_cell_length_b 14.730270
_cell_length_c 10.339332
_cell_angle_alpha 90.000000
_cell_angle_beta 90.000000
_cell_angle_gamma 90.000000
_cell_volume 2243.437090
_symmetry_space_group_name_H-M "P 42/M C M"
_symmetry_group_IT_number 132
_symmetry_cell_setting 'tetragonal'
loop_
_space_group_symop_operation_xyz
x,y,z
-y,x,1/2+z
-x,-y,z
y,-x,1/2+z
x,-y,1/2-z
-x,y,1/2-z
y,x,-z
-y,-x,-z
-x,-y,-z
y,-x,1/2-z
x,y,-z
-y,x,1/2-z
-x,y,1/2+z
x,-y,1/2+z
-y,-x,z
y,x,z
loop_
_atom_site_type_symbol
_atom_site_label
_atom_site_fract_x
_atom_site_fract_y
_atom_site_fract_z
Si Si1 0.649109 0.500000 0.750000
Si Si2 0.000000 0.000000 0.250000
Si Si3 0.586993 0.738208 0.000000
Si Si4 0.954557 0.401041 0.500000
Si Si5 0.000000 0.284085 0.750000
Si Si6 0.138868 0.138868 0.349718
O O1 0.582708 0.417293 0.789040
O O2 0.706532 0.466894 0.627895
O O3 0.938268 0.061733 0.159265
O O4 0.595335 0.845683 0.000000
O O5 0.682002 0.682002 0.000000
O O6 0.985066 0.345607 0.625542
O O7 0.000000 0.500000 0.500000
O O8 0.910515 0.222292 0.777503
O O9 0.159758 0.159758 0.500000
#
# Coordination Sequence:
#
# PCOD9567195 Si02
#       6
#     8   2   8   8   8   8
#     4   9  18  38  67  98 128 160 203 266 328 379
#     4   8  18  28  64  94 136 158 192 258 336 374
#     4  10  23  40  65  96 128 167 219 261 313 390
#     4  12  28  46  64  91 133 181 217 266 331 395
#     4  11  25  43  71  94 130 174 213 275 327 391
#     4  10  19  40  64 100 128 158 217 265 326 377
#
# _framework density 18.721273
#
# number of rings (size 3 to 8) (size 9 to 14) (size 15 to 20)
#    0.000    1.714    1.905    1.429    8.000    2.286 
#    0.000    0.000    4.190    0.000    0.000    0.000 
#    0.000    0.000    0.000    0.000    0.000    0.000 
#
# Total GULP energy -234501.818250 kJ/mol
# GULP energy per Si atom -5583.376625 kJ/mol
# Density = 1.867866 g / cm^3
# Si number density = 18.721273 Si / 1000 Ang^3
#
#
#
# Elastic Constant Matrix: (Units=GPa)
#
#
# Indices 1 2 3 4 5 6 
#
# 1 143.9923 76.2808 83.0813 0.0000 0.0000 0.0000
# 2 76.2808 143.9923 83.0813 0.0000 0.0000 0.0000
# 3 83.0813 83.0813 159.0753 0.0000 0.0000 0.0000
# 4 0.0000 0.0000 0.0000 28.1438 0.0000 0.0000
# 5 0.0000 0.0000 0.0000 0.0000 28.1438 0.0000
# 6 0.0000 0.0000 0.0000 0.0000 0.0000 10.7027
#
#
#
# Elastic Compliance Matrix: (Units=1/GPa)
#
#
# Indices 1 2 3 4 5 6 
#
# 1 0.011130 -0.003639 -0.003912 0.000000 0.000000 0.000000
# 2 -0.003639 0.011130 -0.003912 0.000000 0.000000 0.000000
# 3 -0.003912 -0.003912 0.010373 0.000000 0.000000 0.000000
# 4 0.000000 0.000000 0.000000 0.035532 0.000000 0.000000
# 5 0.000000 0.000000 0.000000 0.000000 0.035532 0.000000
# 6 0.000000 0.000000 0.000000 0.000000 0.000000 0.093434
#
#
# Mechanical properties :
#
#
# Convention : Reuss Voigt Hill
#
# Bulk Modulus (GPa) = 103.03328 103.54964 103.29146
# Shear Modulus (GPa) = 22.39212 27.03917 24.71565
#
# Velocity S-wave (km/s) = 3.46219 3.80452 3.63738
# Velocity P-wave (km/s) = 8.43429 8.64468 8.54013
#
# Compressibility (1/GPa) = 0.00970560
#
# Stress axis : x y z
#
# Youngs Moduli (GPa) = 89.84832 89.84832 96.40305
#
# Poissons Ratio (x) = 0.32693 0.37717
# Poissons Ratio (y) = 0.32693 0.37717
# Poissons Ratio (z) = 0.35153 0.35153
#
# Static dielectric constant tensor:
#      x y z
#    x 1.640390 0.000000 0.000000 
#    y 0.000000 1.640390 0.000000 
#    z 0.000000 0.000000 1.611670 
# 
# From -- ./inp_files/627.got.cif
#   From: 2010.05.17/outbox.cif.g08.bks.cpg/sg132_1_cif.got.tgz:627.got - 2010.05.20 12:30:18.
