data_PCOD9567227
_publ_section_title
;
Structure prediction by ZEFSAII (Michael W. Deem and Ramdas Pophale) SiO2 
 PCOD9567227
Probable space group: P 42/M C M
;
_chemical_formula_sum "Si O2"
_cell_formula_units_Z 64
_cell_length_a 17.310534
_cell_length_b 17.310534
_cell_length_c 11.062601
_cell_angle_alpha 90.000000
_cell_angle_beta 90.000000
_cell_angle_gamma 90.000000
_cell_volume 3314.959138
_symmetry_space_group_name_H-M "P 42/M C M"
_symmetry_group_IT_number 132
_symmetry_cell_setting 'tetragonal'
loop_
_space_group_symop_operation_xyz
x,y,z
-y,x,1/2+z
-x,-y,z
y,-x,1/2+z
x,-y,1/2-z
-x,y,1/2-z
y,x,-z
-y,-x,-z
-x,-y,-z
y,-x,1/2-z
x,y,-z
-y,x,1/2-z
-x,y,1/2+z
x,-y,1/2+z
-y,-x,z
y,x,z
loop_
_atom_site_type_symbol
_atom_site_label
_atom_site_fract_x
_atom_site_fract_y
_atom_site_fract_z
Si Si1 0.291445 0.708556 0.863309
Si Si2 0.206790 0.554527 0.134077
Si Si3 0.790179 0.209822 0.363990
Si Si4 0.973366 0.797825 0.130338
Si Si5 0.961654 0.374629 0.870574
O O1 0.381822 0.726623 0.856078
O O2 0.249579 0.750422 0.750775
O O3 0.265606 0.734395 0.000000
O O4 0.206940 0.500000 0.250000
O O5 0.127740 0.604279 0.135246
O O6 0.210457 0.516582 0.000000
O O7 0.764667 0.235334 0.500000
O O8 0.882687 0.222111 0.358834
O O9 0.000000 0.841537 0.250000
O O10 0.021346 0.717245 0.129302
O O11 0.984782 0.836012 0.000000
O O12 0.000000 0.406923 0.750000
O O13 0.993134 0.403652 0.000000
#
# Coordination Sequence:
#
# PCOD9567227 Si02
#       5
#     8  16   8  16  16
#     4  10  20  36  58  81 108 143 183 224 270 330
#     4  10  22  38  56  81 111 143 180 222 269 324
#     4  10  20  32  52  83 112 141 185 240 286 326
#     4   9  17  30  48  72 102 135 176 225 274 322
#     4   9  17  30  48  71 103 141 176 212 258 312
#
# _framework density 19.306422000000001
#
# number of rings (size 3 to 8) (size 9 to 14) (size 15 to 20)
#    0.000    2.500    0.000    3.000    0.000    5.500 
#    0.000    2.500    0.000    0.750    0.000    5.250 
#    0.000    0.000    0.000    0.000    0.000    0.000 
#
# Total GULP energy -356523.492836 kJ/mol
# GULP energy per Si atom -5570.679576 kJ/mol
# Density = 1.926248 g / cm^3
# Si number density = 19.306422 Si / 1000 Ang^3
#
#
#
# Elastic Constant Matrix: (Units=GPa)
#
#
# Indices 1 2 3 4 5 6 
#
# 1 37.4106 31.5006 37.1508 0.0000 0.0000 0.0000
# 2 31.5006 37.4098 37.1506 0.0000 0.0000 0.0000
# 3 37.1508 37.1506 214.2610 0.0000 0.0000 0.0000
# 4 0.0000 0.0000 0.0000 44.2155 0.0000 0.0000
# 5 0.0000 0.0000 0.0000 0.0000 44.2185 0.0000
# 6 0.0000 0.0000 0.0000 0.0000 0.0000 -43.9520
#
#
#
# Elastic Compliance Matrix: (Units=1/GPa)
#
#
# Indices 1 2 3 4 5 6 
#
# 1 0.093531 -0.075684 -0.003095 0.000000 0.000000 0.000000
# 2 -0.075684 0.093533 -0.003095 0.000000 0.000000 0.000000
# 3 -0.003095 -0.003095 0.005740 0.000000 0.000000 0.000000
# 4 0.000000 0.000000 0.000000 0.022616 0.000000 0.000000
# 5 0.000000 0.000000 0.000000 0.000000 0.022615 0.000000
# 6 0.000000 0.000000 0.000000 0.000000 0.000000 -0.022752
#
#
# Mechanical properties :
#
#
# Convention : Reuss Voigt Hill
#
# Bulk Modulus (GPa) = 34.41372 55.63170 45.02271
# Shear Modulus (GPa) = 12.86283 21.11504 16.98893
#
# Velocity S-wave (km/s) = 2.58397 3.31067 2.96964
# Velocity P-wave (km/s) = 5.17361 6.59483 5.92697
#
# Compressibility (1/GPa) = 0.02905817
#
# Stress axis : x y z
#
# Youngs Moduli (GPa) = 10.69162 10.69137 174.20406
#
# Poissons Ratio (x) = 0.80916 0.53910
# Poissons Ratio (y) = 0.80918 0.53913
# Poissons Ratio (z) = 0.03309 0.03309
#
# Static dielectric constant tensor:
#      x y z
#    x 1.682360 0.000000 0.000000 
#    y 0.000000 1.682360 0.000000 
#    z 0.000000 0.000000 1.786170 
# 
# From -- ./inp_files/3083.got.cif
#   From: 2010.05.17/outbox.cif.g08.bks.cpg/sg132_2_cif.got.tgz:3083.got - 2010.05.20 12:30:18.
