data_PCOD9567140
_publ_section_title
;
Structure prediction by ZEFSAII (Michael W. Deem and Ramdas Pophale) SiO2 
 PCOD9567140
Probable space group: P 42/M C M
;
_chemical_formula_sum "Si O2"
_cell_formula_units_Z 104
_cell_length_a 18.153796
_cell_length_b 18.153796
_cell_length_c 18.460027
_cell_angle_alpha 90.000000
_cell_angle_beta 90.000000
_cell_angle_gamma 90.000000
_cell_volume 6083.692206
_symmetry_space_group_name_H-M "P 42/M C M"
_symmetry_group_IT_number 132
_symmetry_cell_setting 'tetragonal'
loop_
_space_group_symop_operation_xyz
x,y,z
-y,x,1/2+z
-x,-y,z
y,-x,1/2+z
x,-y,1/2-z
-x,y,1/2-z
y,x,-z
-y,-x,-z
-x,-y,-z
y,-x,1/2-z
x,y,-z
-y,x,1/2-z
-x,y,1/2+z
x,-y,1/2+z
-y,-x,z
y,x,z
loop_
_atom_site_type_symbol
_atom_site_label
_atom_site_fract_x
_atom_site_fract_y
_atom_site_fract_z
Si Si1 0.343160 0.221677 0.286304
Si Si2 0.555242 0.674990 0.813132
Si Si3 0.326598 0.928767 0.297965
Si Si4 0.036828 0.839893 0.672265
Si Si5 0.063105 0.936896 0.916904
Si Si6 0.774030 0.543497 0.585231
Si Si7 0.926177 0.546570 0.084049
O O1 0.269305 0.269305 0.291252
O O2 0.396385 0.262929 0.228371
O O3 0.327964 0.141285 0.254990
O O4 0.385076 0.222366 0.363164
O O5 0.500000 0.647493 0.750000
O O6 0.610230 0.610230 0.836546
O O7 0.509707 0.712914 0.877768
O O8 0.244966 0.940391 0.330148
O O9 0.385818 0.919969 0.361265
O O10 0.344907 0.000000 0.250000
O O11 0.107300 0.892701 0.662445
O O12 0.000000 0.854479 0.750000
O O13 0.972681 0.864879 0.617959
O O14 0.076186 0.923815 0.000000
O O15 0.000000 0.000000 0.907815
O O16 0.759476 0.557404 0.500000
O O17 0.853339 0.503495 0.591083
O O18 0.000000 0.500000 0.100080
O O19 0.930915 0.570781 0.000000
#
# Coordination Sequence:
#
# PCOD9567140 Si02
#       7
#    16  16  16  16   8  16  16
#     4  10  20  36  56  81 115 149 189 242 288 343
#     4   9  18  33  55  80 112 150 191 238 294 349
#     4  11  22  34  56  86 110 147 192 242 280 336
#     4  10  19  33  55  80 108 145 189 230 280 332
#     4   9  18  32  54  80 106 142 184 224 276 340
#     4  10  20  35  57  83 113 153 195 233 288 358
#     4  10  21  37  56  79 112 149 186 234 291 342
#
# _framework density 17.094881999999998
#
# number of rings (size 3 to 8) (size 9 to 14) (size 15 to 20)
#    0.000    2.077    2.308    1.385    0.000    2.923 
#    0.000    0.000    0.000    2.308    0.000    4.308 
#    0.000    0.000    0.000    0.000    0.000    0.000 
#
# Total GULP energy -580117.930042 kJ/mol
# GULP energy per Si atom -5578.057020 kJ/mol
# Density = 1.705597 g / cm^3
# Si number density = 17.094882 Si / 1000 Ang^3
#
#
#
# Elastic Constant Matrix: (Units=GPa)
#
#
# Indices 1 2 3 4 5 6 
#
# 1 96.4179 48.6811 60.2098 0.0000 0.0000 0.0000
# 2 48.6811 96.4176 60.2091 0.0000 0.0000 0.0000
# 3 60.2098 60.2091 106.7853 0.0000 0.0000 0.0000
# 4 0.0000 0.0000 0.0000 109.2359 0.0000 0.0000
# 5 0.0000 0.0000 0.0000 0.0000 109.2336 0.0000
# 6 0.0000 0.0000 0.0000 0.0000 0.0000 29.2146
#
#
#
# Elastic Compliance Matrix: (Units=1/GPa)
#
#
# Indices 1 2 3 4 5 6 
#
# 1 0.016951 -0.003998 -0.007303 0.000000 0.000000 0.000000
# 2 -0.003998 0.016951 -0.007303 0.000000 0.000000 0.000000
# 3 -0.007303 -0.007303 0.017600 0.000000 0.000000 0.000000
# 4 0.000000 0.000000 0.000000 0.009154 0.000000 0.000000
# 5 0.000000 0.000000 0.000000 0.000000 0.009155 0.000000
# 6 0.000000 0.000000 0.000000 0.000000 0.000000 0.034229
#
#
# Mechanical properties :
#
#
# Convention : Reuss Voigt Hill
#
# Bulk Modulus (GPa) = 69.96481 70.86897 70.41689
# Shear Modulus (GPa) = 34.24346 58.23821 46.24083
#
# Velocity S-wave (km/s) = 4.48050 5.84308 5.20656
# Velocity P-wave (km/s) = 8.23303 9.33104 8.79918
#
# Compressibility (1/GPa) = 0.01429290
#
# Stress axis : x y z
#
# Youngs Moduli (GPa) = 58.99467 58.99507 56.81695
#
# Poissons Ratio (x) = 0.23584 0.41496
# Poissons Ratio (y) = 0.23584 0.41495
# Poissons Ratio (z) = 0.43086 0.43086
#
# Static dielectric constant tensor:
#      x y z
#    x 1.575170 0.000000 0.000000 
#    y 0.000000 1.575170 0.000000 
#    z 0.000000 0.000000 1.561260 
# 
# From -- ./inp_files/6557.got.cif
#   From: 2010.05.17/outbox.cif.g08.bks.cpg/sg132_4_cif.got.tgz:6557.got - 2010.05.20 12:30:18.
