data_PCOD9567562
_publ_section_title
;
Structure prediction by ZEFSAII (Michael W. Deem and Ramdas Pophale) SiO2 
 PCOD9567562
Probable space group: P 42/N B C
;
_chemical_formula_sum "Si O2"
_cell_formula_units_Z 108
_cell_length_a 16.658134
_cell_length_b 16.658134
_cell_length_c 19.992925
_cell_angle_alpha 90.000000
_cell_angle_beta 90.000000
_cell_angle_gamma 90.000000
_cell_volume 5547.905301
_symmetry_space_group_name_H-M "P 42/N B C"
_symmetry_group_IT_number 133
_space_group.IT_coordinate_system_code '2'
_symmetry_cell_setting 'tetragonal'
loop_
_space_group_symop_operation_xyz
x,y,z
1/2-y,x,1/2+z
1/2-x,1/2-y,z
y,1/2-x,1/2+z
x,1/2-y,-z
1/2-x,y,-z
y,x,1/2-z
1/2-y,1/2-x,1/2-z
-x,-y,-z
1/2+y,-x,1/2-z
1/2+x,1/2+y,-z
-y,1/2+x,1/2-z
-x,1/2+y,z
1/2+x,-y,z
-y,-x,1/2+z
1/2+y,1/2+x,1/2+z
loop_
_atom_site_type_symbol
_atom_site_label
_atom_site_fract_x
_atom_site_fract_y
_atom_site_fract_z
Si Si1 0.752510 0.840869 0.918142
Si Si2 0.295417 0.888913 0.591981
Si Si3 0.416278 0.609224 0.133806
Si Si4 0.602538 0.912444 0.577654
Si Si5 0.484097 0.334993 0.461245
Si Si6 0.750000 0.250000 0.500000
Si Si7 0.850405 0.337645 0.764006
Si Si8 0.750000 0.976835 0.500000
O O1 0.750000 0.750000 0.892485
O O2 0.674784 0.887230 0.889722
O O3 0.824685 0.904622 0.914001
O O4 0.750000 0.834639 0.000000
O O5 0.201909 0.899143 0.613548
O O6 0.300751 0.808836 0.547564
O O7 0.344108 0.880537 0.660053
O O8 0.307027 0.965167 0.544252
O O9 0.509194 0.588550 0.121087
O O10 0.363082 0.556158 0.084387
O O11 0.390812 0.602815 0.210576
O O12 0.538278 0.898884 0.518791
O O13 0.690862 0.925377 0.544830
O O14 0.499018 0.250000 0.500000
O O15 0.857143 0.244547 0.740539
#
# Coordination Sequence:
#
# PCOD9567562 Si02
#       8
#    16  16  16  16  16   4  16   8
#     4   8  14  27  48  72 103 138 175 225 278 339
#     4   9  18  27  43  70  97 128 172 212 257 320
#     4  10  18  28  46  70 102 142 175 217 276 332
#     4   9  16  28  45  73 105 133 170 228 282 331
#     4   9  18  29  45  74 105 134 177 224 289 341
#     4  10  16  28  46  72 102 124 166 232 262 300
#     4   9  17  32  47  64  96 143 186 211 246 328
#     4   9  16  27  45  72  93 120 162 216 279 314
#
# _framework density 19.466806999999999
#
# number of rings (size 3 to 8) (size 9 to 14) (size 15 to 20)
#    0.000    3.259    0.000    4.000    1.037    0.000 
#    2.667    0.000    0.000    0.889    7.704   12.444 
#    0.000   26.074    0.000    0.000    0.000    0.000 
#
# Total GULP energy -601600.385811 kJ/mol
# GULP energy per Si atom -5570.373943 kJ/mol
# Density = 1.942250 g / cm^3
# Si number density = 19.466807 Si / 1000 Ang^3
#
#
#
# Elastic Constant Matrix: (Units=GPa)
#
#
# Indices 1 2 3 4 5 6 
#
# 1 59.1829 16.4103 30.5617 0.0000 0.0000 0.0000
# 2 16.4103 59.1829 30.5617 0.0000 0.0000 0.0000
# 3 30.5617 30.5617 95.0860 0.0000 0.0000 0.0000
# 4 0.0000 0.0000 0.0000 8.5000 0.0000 0.0000
# 5 0.0000 0.0000 0.0000 0.0000 8.5000 0.0000
# 6 0.0000 0.0000 0.0000 0.0000 0.0000 11.6858
#
#
#
# Elastic Compliance Matrix: (Units=1/GPa)
#
#
# Indices 1 2 3 4 5 6 
#
# 1 0.020627 -0.002753 -0.005745 0.000000 0.000000 0.000000
# 2 -0.002753 0.020627 -0.005745 0.000000 0.000000 0.000000
# 3 -0.005745 -0.005745 0.014210 0.000000 0.000000 0.000000
# 4 0.000000 0.000000 0.000000 0.117648 0.000000 0.000000
# 5 0.000000 0.000000 0.000000 0.000000 0.117648 0.000000
# 6 0.000000 0.000000 0.000000 0.000000 0.000000 0.085574
#
#
# Mechanical properties :
#
#
# Convention : Reuss Voigt Hill
#
# Bulk Modulus (GPa) = 37.06716 40.94658 39.00687
# Shear Modulus (GPa) = 12.08285 14.79836 13.44060
#
# Velocity S-wave (km/s) = 2.49407 2.76014 2.63047
# Velocity P-wave (km/s) = 5.23224 5.58905 5.41359
#
# Compressibility (1/GPa) = 0.02697806
#
# Stress axis : x y z
#
# Youngs Moduli (GPa) = 48.48091 48.48091 70.37434
#
# Poissons Ratio (x) = 0.13346 0.40429
# Poissons Ratio (y) = 0.13346 0.40429
# Poissons Ratio (z) = 0.27852 0.27852
#
# Static dielectric constant tensor:
#      x y z
#    x 1.732030 0.000000 0.000000 
#    y 0.000000 1.732030 0.000000 
#    z 0.000000 0.000000 1.689960 
# 
# From -- ./inp_files/6728.got.cif
#   From: 2010.05.17/outbox.cif.g08.bks.cpg/sg133_4_cif.got.tgz:6728.got - 2010.05.20 12:37:36.
