data_PCOD9567757
_publ_section_title
;
Structure prediction by ZEFSAII (Michael W. Deem and Ramdas Pophale) SiO2 
 PCOD9567757
Probable space group: P 42/N B C
;
_chemical_formula_sum "Si O2"
_cell_formula_units_Z 104
_cell_length_a 16.738095
_cell_length_b 16.738095
_cell_length_c 18.186371
_cell_angle_alpha 90.000000
_cell_angle_beta 90.000000
_cell_angle_gamma 90.000000
_cell_volume 5095.163248
_symmetry_space_group_name_H-M "P 42/N B C"
_symmetry_group_IT_number 133
_space_group.IT_coordinate_system_code '2'
_symmetry_cell_setting 'tetragonal'
loop_
_space_group_symop_operation_xyz
x,y,z
1/2-y,x,1/2+z
1/2-x,1/2-y,z
y,1/2-x,1/2+z
x,1/2-y,-z
1/2-x,y,-z
y,x,1/2-z
1/2-y,1/2-x,1/2-z
-x,-y,-z
1/2+y,-x,1/2-z
1/2+x,1/2+y,-z
-y,1/2+x,1/2-z
-x,1/2+y,z
1/2+x,-y,z
-y,-x,1/2+z
1/2+y,1/2+x,1/2+z
loop_
_atom_site_type_symbol
_atom_site_label
_atom_site_fract_x
_atom_site_fract_y
_atom_site_fract_z
Si Si1 0.628429 0.615608 0.131570
Si Si2 0.868622 0.434595 0.832593
Si Si3 0.250000 0.250000 0.882453
Si Si4 0.701006 0.470844 0.314122
Si Si5 0.607582 0.831243 0.030908
Si Si6 0.539698 0.624572 0.815014
Si Si7 0.838259 0.272050 0.914339
O O1 0.653045 0.525658 0.148761
O O2 0.693138 0.683587 0.155620
O O3 0.542120 0.639846 0.165182
O O4 0.621446 0.620222 0.042949
O O5 0.824200 0.419580 0.756156
O O6 0.852609 0.365079 0.892187
O O7 0.962132 0.430557 0.814271
O O8 0.310934 0.200382 0.932692
O O9 0.784832 0.514292 0.299269
O O10 0.719846 0.408052 0.377901
O O11 0.567722 0.874590 0.099821
O O12 0.564963 0.750000 0.000000
O O13 0.598320 0.598320 0.750000
O O14 0.750000 0.250000 0.886099
O O15 0.839575 0.250000 0.000000
#
# Coordination Sequence:
#
# PCOD9567757 Si02
#       7
#    16  16   8  16  16  16  16
#     4  11  22  42  69 103 140 181 225 285 348 411
#     4  11  27  44  65 105 139 172 230 292 348 409
#     4  10  21  40  65 100 141 180 221 280 339 414
#     4  11  24  41  74  93 141 183 221 285 355 410
#     4  10  20  41  67  95 131 185 225 276 337 407
#     4  11  24  42  62  99 138 180 237 274 339 428
#     4  10  26  51  73  98 128 176 241 283 341 413
#
# _framework density 20.411514
#
# number of rings (size 3 to 8) (size 9 to 14) (size 15 to 20)
#    0.000    1.385    3.077    3.462   10.769    0.615 
#    8.308    1.154    0.000    0.000    0.000    0.000 
#    0.000    0.000    0.000    0.000    0.000    0.000 
#
# Total GULP energy -580161.709813 kJ/mol
# GULP energy per Si atom -5578.477979 kJ/mol
# Density = 2.036506 g / cm^3
# Si number density = 20.411514 Si / 1000 Ang^3
#
#
#
# Elastic Constant Matrix: (Units=GPa)
#
#
# Indices 1 2 3 4 5 6 
#
# 1 78.2054 33.4394 34.8178 0.0000 0.0000 0.0000
# 2 33.4394 78.2054 34.8178 0.0000 0.0000 0.0000
# 3 34.8178 34.8178 106.7189 0.0000 0.0000 0.0000
# 4 0.0000 0.0000 0.0000 18.2794 0.0000 0.0000
# 5 0.0000 0.0000 0.0000 0.0000 18.2794 0.0000
# 6 0.0000 0.0000 0.0000 0.0000 0.0000 3.6675
#
#
#
# Elastic Compliance Matrix: (Units=1/GPa)
#
#
# Indices 1 2 3 4 5 6 
#
# 1 0.016792 -0.005547 -0.003669 0.000000 0.000000 0.000000
# 2 -0.005547 0.016792 -0.003669 0.000000 0.000000 0.000000
# 3 -0.003669 -0.003669 0.011764 0.000000 0.000000 0.000000
# 4 0.000000 0.000000 0.000000 0.054706 0.000000 0.000000
# 5 0.000000 0.000000 0.000000 0.000000 0.054706 0.000000
# 6 0.000000 0.000000 0.000000 0.000000 0.000000 0.272663
#
#
# Mechanical properties :
#
#
# Convention : Reuss Voigt Hill
#
# Bulk Modulus (GPa) = 51.07358 52.14218 51.60788
# Shear Modulus (GPa) = 10.87620 18.71558 14.79589
#
# Velocity S-wave (km/s) = 2.31085 3.03134 2.69528
# Velocity P-wave (km/s) = 5.67418 6.15248 5.91816
#
# Compressibility (1/GPa) = 0.01957960
#
# Stress axis : x y z
#
# Youngs Moduli (GPa) = 59.55268 59.55268 85.00225
#
# Poissons Ratio (x) = 0.33031 0.31186
# Poissons Ratio (y) = 0.33031 0.31186
# Poissons Ratio (z) = 0.21849 0.21849
#
# Static dielectric constant tensor:
#      x y z
#    x 1.745570 0.000000 0.000000 
#    y 0.000000 1.745570 0.000000 
#    z 0.000000 0.000000 1.767600 
# 
# From -- ./inp_files/5608.got.cif
#   From: 2010.05.17/outbox.cif.g08.bks.cpg/sg133_3_cif.got.tgz:5608.got - 2010.05.20 12:37:36.
