data_PCOD9567616
_publ_section_title
;
Structure prediction by ZEFSAII (Michael W. Deem and Ramdas Pophale) SiO2 
 PCOD9567616
Probable space group: P 42/N B C
;
_chemical_formula_sum "Si O2"
_cell_formula_units_Z 116
_cell_length_a 18.469124
_cell_length_b 18.469124
_cell_length_c 17.010704
_cell_angle_alpha 90.000000
_cell_angle_beta 90.000000
_cell_angle_gamma 90.000000
_cell_volume 5802.496428
_symmetry_space_group_name_H-M "P 42/N B C"
_symmetry_group_IT_number 133
_space_group.IT_coordinate_system_code '2'
_symmetry_cell_setting 'tetragonal'
loop_
_space_group_symop_operation_xyz
x,y,z
1/2-y,x,1/2+z
1/2-x,1/2-y,z
y,1/2-x,1/2+z
x,1/2-y,-z
1/2-x,y,-z
y,x,1/2-z
1/2-y,1/2-x,1/2-z
-x,-y,-z
1/2+y,-x,1/2-z
1/2+x,1/2+y,-z
-y,1/2+x,1/2-z
-x,1/2+y,z
1/2+x,-y,z
-y,-x,1/2+z
1/2+y,1/2+x,1/2+z
loop_
_atom_site_type_symbol
_atom_site_label
_atom_site_fract_x
_atom_site_fract_y
_atom_site_fract_z
Si Si1 0.392473 0.781694 0.671792
Si Si2 0.149901 0.046767 0.426972
Si Si3 0.527790 0.624321 0.101168
Si Si4 0.076336 0.867348 0.593301
Si Si5 0.643951 0.929704 0.179359
Si Si6 0.740110 0.977631 0.713875
Si Si7 0.250000 0.750000 0.250000
Si Si8 0.586054 0.037803 0.920681
O O1 0.392365 0.712135 0.612628
O O2 0.443901 0.764272 0.746056
O O3 0.310470 0.790828 0.699337
O O4 0.427671 0.853841 0.635870
O O5 0.164028 0.050304 0.519905
O O6 0.121142 0.123254 0.393147
O O7 0.209878 0.021697 0.364302
O O8 0.085966 0.986742 0.421100
O O9 0.439532 0.624069 0.103154
O O10 0.550297 0.664682 0.180250
O O11 0.560420 0.543681 0.096665
O O12 0.043764 0.876714 0.506331
O O13 0.010535 0.872972 0.653757
O O14 0.591574 0.908427 0.250000
O O15 0.722949 0.928643 0.218496
#
# Coordination Sequence:
#
# PCOD9567616 Si02
#       8
#    16  16  16  16  16  16   4  16
#     4  11  24  39  58  84 130 168 213 252 308 376
#     4  10  18  37  59  85 118 164 204 254 315 379
#     4  11  20  35  60  91 125 151 205 270 310 366
#     4  10  19  38  57  85 120 162 204 249 311 370
#     4   9  17  32  55  81 113 154 199 236 305 377
#     4  10  22  34  53  90 122 155 200 256 316 379
#     4  12  24  44  54  80 132 184 208 250 300 376
#     4  11  21  36  61  90 120 161 213 264 310 365
#
# _framework density 19.991395000000001
#
# number of rings (size 3 to 8) (size 9 to 14) (size 15 to 20)
#    0.000    1.655    2.759    3.310    0.000    2.759 
#    0.000    2.759    0.000    0.000    0.000   47.310 
#    0.000    0.000    0.000    0.000    0.000    0.000 
#
# Total GULP energy -646743.520535 kJ/mol
# GULP energy per Si atom -5575.375177 kJ/mol
# Density = 1.994589 g / cm^3
# Si number density = 19.991395 Si / 1000 Ang^3
#
#
#
# Elastic Constant Matrix: (Units=GPa)
#
#
# Indices 1 2 3 4 5 6 
#
# 1 69.6100 26.3828 41.0514 0.0000 0.0000 0.0000
# 2 26.3828 69.6101 41.0537 0.0000 0.0000 0.0000
# 3 41.0514 41.0537 82.6350 0.0000 0.0000 0.0000
# 4 0.0000 0.0000 0.0000 20.3351 0.0000 0.0000
# 5 0.0000 0.0000 0.0000 0.0000 20.3305 0.0000
# 6 0.0000 0.0000 0.0000 0.0000 0.0000 7.0584
#
#
#
# Elastic Compliance Matrix: (Units=1/GPa)
#
#
# Indices 1 2 3 4 5 6 
#
# 1 0.020624 -0.002509 -0.008999 0.000000 0.000000 0.000000
# 2 -0.002509 0.020625 -0.009000 0.000000 0.000000 0.000000
# 3 -0.008999 -0.009000 0.021043 0.000000 0.000000 0.000000
# 4 0.000000 0.000000 0.000000 0.049176 0.000000 0.000000
# 5 0.000000 0.000000 0.000000 0.000000 0.049187 0.000000
# 6 0.000000 0.000000 0.000000 0.000000 0.000000 0.141676
#
#
# Mechanical properties :
#
#
# Convention : Reuss Voigt Hill
#
# Bulk Modulus (GPa) = 47.00280 48.75899 47.88089
# Shear Modulus (GPa) = 14.26785 17.10261 15.68523
#
# Velocity S-wave (km/s) = 2.67441 2.92806 2.80411
# Velocity P-wave (km/s) = 5.75319 5.98952 5.87254
#
# Compressibility (1/GPa) = 0.02127533
#
# Stress axis : x y z
#
# Youngs Moduli (GPa) = 48.48789 48.48581 47.52176
#
# Poissons Ratio (x) = 0.12167 0.42764
# Poissons Ratio (y) = 0.12168 0.42769
# Poissons Ratio (z) = 0.43633 0.43636
#
# Static dielectric constant tensor:
#      x y z
#    x 1.727560 0.000000 0.000000 
#    y 0.000000 1.727560 0.000000 
#    z 0.000000 0.000000 1.743060 
# 
# From -- ./inp_files/5641.got.cif
#   From: 2010.05.17/outbox.cif.g08.bks.cpg/sg133_3_cif.got.tgz:5641.got - 2010.05.20 12:37:36.
