data_PCOD9567256
_publ_section_title
;
Structure prediction by ZEFSAII (Michael W. Deem and Ramdas Pophale) SiO2 
 PCOD9567256
Probable space group: P 42/M C M
;
_chemical_formula_sum "Si O2"
_cell_formula_units_Z 56
_cell_length_a 13.696199
_cell_length_b 13.696199
_cell_length_c 18.128511
_cell_angle_alpha 90.000000
_cell_angle_beta 90.000000
_cell_angle_gamma 90.000000
_cell_volume 3400.652454
_symmetry_space_group_name_H-M "P 42/M C M"
_symmetry_group_IT_number 132
_symmetry_cell_setting 'tetragonal'
loop_
_space_group_symop_operation_xyz
x,y,z
-y,x,1/2+z
-x,-y,z
y,-x,1/2+z
x,-y,1/2-z
-x,y,1/2-z
y,x,-z
-y,-x,-z
-x,-y,-z
y,-x,1/2-z
x,y,-z
-y,x,1/2-z
-x,y,1/2+z
x,-y,1/2+z
-y,-x,z
y,x,z
loop_
_atom_site_type_symbol
_atom_site_label
_atom_site_fract_x
_atom_site_fract_y
_atom_site_fract_z
Si Si1 0.847957 0.313717 0.088355
Si Si2 0.417470 0.582531 0.585566
Si Si3 0.221435 0.483394 0.837634
Si Si4 0.027521 0.386171 0.835598
O O1 0.778501 0.221500 0.108581
O O2 0.807663 0.413249 0.125202
O O3 0.960298 0.314645 0.116395
O O4 0.845433 0.322649 0.000000
O O5 0.500000 0.500000 0.587818
O O6 0.396048 0.603953 0.500000
O O7 0.322746 0.545257 0.627208
O O8 0.225726 0.500000 0.750000
O O9 0.142879 0.395625 0.848966
O O10 0.000000 0.500000 0.850534
O O11 0.000000 0.368582 0.750000
#
# Coordination Sequence:
#
# PCOD9567256 Si02
#       4
#    16   8  16  16
#     4  10  20  33  53  79 108 141 177 225 289 344
#     4  11  26  40  50  76 119 159 199 235 273 340
#     4  11  21  33  56  77 108 150 196 235 279 335
#     4   9  16  33  51  76 105 134 180 234 282 330
#
# _framework density 16.467428000000002
#
# number of rings (size 3 to 8) (size 9 to 14) (size 15 to 20)
#    0.000    1.857    5.714    1.714    4.000    8.571 
#    0.000    0.000    0.000    0.000    0.000    1.000 
#    0.000    3.429    0.000    0.000    0.000    0.000 
#
# Total GULP energy -311786.727969 kJ/mol
# GULP energy per Si atom -5567.620142 kJ/mol
# Density = 1.642995 g / cm^3
# Si number density = 16.467428 Si / 1000 Ang^3
#
#
#
# Elastic Constant Matrix: (Units=GPa)
#
#
# Indices 1 2 3 4 5 6 
#
# 1 92.3664 34.0546 50.0840 0.0000 0.0000 0.0000
# 2 34.0546 92.3657 50.0839 0.0000 0.0000 0.0000
# 3 50.0840 50.0839 90.5210 0.0000 0.0000 0.0000
# 4 0.0000 0.0000 0.0000 56.0866 0.0000 0.0000
# 5 0.0000 0.0000 0.0000 0.0000 56.0861 0.0000
# 6 0.0000 0.0000 0.0000 0.0000 0.0000 24.1495
#
#
#
# Elastic Compliance Matrix: (Units=1/GPa)
#
#
# Indices 1 2 3 4 5 6 
#
# 1 0.015617 -0.001532 -0.007793 0.000000 0.000000 0.000000
# 2 -0.001532 0.015617 -0.007793 0.000000 0.000000 0.000000
# 3 -0.007793 -0.007793 0.019670 0.000000 0.000000 0.000000
# 4 0.000000 0.000000 0.000000 0.017830 0.000000 0.000000
# 5 0.000000 0.000000 0.000000 0.000000 0.017830 0.000000
# 6 0.000000 0.000000 0.000000 0.000000 0.000000 0.041409
#
#
# Mechanical properties :
#
#
# Convention : Reuss Voigt Hill
#
# Bulk Modulus (GPa) = 59.99357 60.41092 60.20224
# Shear Modulus (GPa) = 29.80366 36.66649 33.23508
#
# Velocity S-wave (km/s) = 4.25885 4.72381 4.49735
# Velocity P-wave (km/s) = 7.79067 8.15581 7.97533
#
# Compressibility (1/GPa) = 0.01666845
#
# Stress axis : x y z
#
# Youngs Moduli (GPa) = 64.03309 64.03261 50.83757
#
# Poissons Ratio (x) = 0.09812 0.39617
# Poissons Ratio (y) = 0.09812 0.39617
# Poissons Ratio (z) = 0.49900 0.49900
#
# Static dielectric constant tensor:
#      x y z
#    x 1.582820 0.000000 0.000000 
#    y 0.000000 1.582820 0.000000 
#    z 0.000000 0.000000 1.546810 
# 
# From -- ./inp_files/4288.got.cif
#   From: 2010.05.17/outbox.cif.g08.bks.cpg/sg132_3_cif.got.tgz:4288.got - 2010.05.20 12:30:18.
