data_PCOD9567954
_publ_section_title
;
Structure prediction by ZEFSAII (Michael W. Deem and Ramdas Pophale) SiO2 
 PCOD9567954
Probable space group: P 42/N B C
;
_chemical_formula_sum "Si O2"
_cell_formula_units_Z 128
_cell_length_a 20.729714
_cell_length_b 20.729714
_cell_length_c 16.914422
_cell_angle_alpha 90.000000
_cell_angle_beta 90.000000
_cell_angle_gamma 90.000000
_cell_volume 7268.483055
_symmetry_space_group_name_H-M "P 42/N B C"
_symmetry_group_IT_number 133
_space_group.IT_coordinate_system_code '2'
_symmetry_cell_setting 'tetragonal'
loop_
_space_group_symop_operation_xyz
x,y,z
1/2-y,x,1/2+z
1/2-x,1/2-y,z
y,1/2-x,1/2+z
x,1/2-y,-z
1/2-x,y,-z
y,x,1/2-z
1/2-y,1/2-x,1/2-z
-x,-y,-z
1/2+y,-x,1/2-z
1/2+x,1/2+y,-z
-y,1/2+x,1/2-z
-x,1/2+y,z
1/2+x,-y,z
-y,-x,1/2+z
1/2+y,1/2+x,1/2+z
loop_
_atom_site_type_symbol
_atom_site_label
_atom_site_fract_x
_atom_site_fract_y
_atom_site_fract_z
Si Si1 0.985795 0.847427 0.570298
Si Si2 0.919289 0.000669 0.207309
Si Si3 0.908790 0.397996 0.159624
Si Si4 0.811597 0.340135 0.949790
Si Si5 0.176770 0.549683 0.479515
Si Si6 0.945409 0.510950 0.432655
Si Si7 0.989179 0.202430 0.600901
Si Si8 0.329078 0.687755 0.775369
O O1 0.943824 0.912155 0.587447
O O2 0.055796 0.873449 0.597553
O O3 0.980694 0.831853 0.476961
O O4 0.982650 0.775212 0.608932
O O5 0.936206 0.043734 0.283559
O O6 0.846378 0.004576 0.174232
O O7 0.963499 0.030414 0.137193
O O8 0.932241 0.932241 0.250000
O O9 0.950598 0.344997 0.112230
O O10 0.859018 0.372016 0.224016
O O11 0.795478 0.413313 0.922415
O O12 0.833143 0.305571 0.869009
O O13 0.750000 0.318524 0.000000
O O14 0.874574 0.331143 0.001846
O O15 0.250000 0.530178 0.500000
O O16 0.122930 0.512627 0.531615
O O17 0.000000 0.500000 0.500000
O O18 0.257059 0.663549 0.762066
#
# Coordination Sequence:
#
# PCOD9567954 Si02
#       8
#    16  16  16  16  16  16  16  16
#     4  11  21  36  63  82 116 156 204 242 300 355
#     4  12  22  35  59  88 118 154 195 248 317 351
#     4  12  21  35  54  81 114 151 191 245 290 351
#     4  12  20  37  55  73 115 161 206 238 287 365
#     4  12  24  38  56  84 116 164 203 248 308 359
#     4  12  20  41  60  84 118 159 202 254 297 371
#     4  11  20  37  57  88 112 155 201 248 288 371
#     4  11  23  34  45  71 106 149 197 244 282 329
#
# _framework density 17.610277
#
# number of rings (size 3 to 8) (size 9 to 14) (size 15 to 20)
#    0.000    0.375    8.750    2.250    0.000    1.250 
#    0.000    0.000    0.000    0.000    0.000    1.750 
#    0.000    3.000    0.000    0.000    0.000    0.000 
#
# Total GULP energy -712809.462654 kJ/mol
# GULP energy per Si atom -5568.823927 kJ/mol
# Density = 1.757020 g / cm^3
# Si number density = 17.610277 Si / 1000 Ang^3
#
#
#
# Elastic Constant Matrix: (Units=GPa)
#
#
# Indices 1 2 3 4 5 6 
#
# 1 82.1644 32.7307 18.1550 0.0000 0.0000 0.0000
# 2 32.7307 82.1644 18.1550 0.0000 0.0000 0.0000
# 3 18.1550 18.1550 80.9104 0.0000 0.0000 0.0000
# 4 0.0000 0.0000 0.0000 19.3344 0.0000 0.0000
# 5 0.0000 0.0000 0.0000 0.0000 19.3344 0.0000
# 6 0.0000 0.0000 0.0000 0.0000 0.0000 11.6702
#
#
#
# Elastic Compliance Matrix: (Units=1/GPa)
#
#
# Indices 1 2 3 4 5 6 
#
# 1 0.014799 -0.005431 -0.002102 0.000000 0.000000 0.000000
# 2 -0.005431 0.014799 -0.002102 0.000000 0.000000 0.000000
# 3 -0.002102 -0.002102 0.013303 0.000000 0.000000 0.000000
# 4 0.000000 0.000000 0.000000 0.051721 0.000000 0.000000
# 5 0.000000 0.000000 0.000000 0.000000 0.051721 0.000000
# 6 0.000000 0.000000 0.000000 0.000000 0.000000 0.085688
#
#
# Mechanical properties :
#
#
# Convention : Reuss Voigt Hill
#
# Bulk Modulus (GPa) = 42.31836 42.59119 42.45477
# Shear Modulus (GPa) = 19.29186 21.81435 20.55311
#
# Velocity S-wave (km/s) = 3.31341 3.52338 3.42000
# Velocity P-wave (km/s) = 6.22261 6.38672 6.30520
#
# Compressibility (1/GPa) = 0.02363041
#
# Stress axis : x y z
#
# Youngs Moduli (GPa) = 67.57442 67.57442 75.17286
#
# Poissons Ratio (x) = 0.36697 0.15801
# Poissons Ratio (y) = 0.36697 0.15801
# Poissons Ratio (z) = 0.14204 0.14204
#
# Static dielectric constant tensor:
#      x y z
#    x 1.590130 0.000000 0.000000 
#    y 0.000000 1.590130 0.000000 
#    z 0.000000 0.000000 1.519020 
# 
# From -- ./inp_files/5749.got.cif
#   From: 2010.05.17/outbox.cif.g08.bks.cpg/sg133_3_cif.got.tgz:5749.got - 2010.05.20 12:37:36.
