data_PCOD9567602
_publ_section_title
;
Structure prediction by ZEFSAII (Michael W. Deem and Ramdas Pophale) SiO2 
 PCOD9567602
Probable space group: P 42/N B C
;
_chemical_formula_sum "Si O2"
_cell_formula_units_Z 120
_cell_length_a 17.568171
_cell_length_b 17.568171
_cell_length_c 20.166566
_cell_angle_alpha 90.000000
_cell_angle_beta 90.000000
_cell_angle_gamma 90.000000
_cell_volume 6224.221681
_symmetry_space_group_name_H-M "P 42/N B C"
_symmetry_group_IT_number 133
_space_group.IT_coordinate_system_code '2'
_symmetry_cell_setting 'tetragonal'
loop_
_space_group_symop_operation_xyz
x,y,z
1/2-y,x,1/2+z
1/2-x,1/2-y,z
y,1/2-x,1/2+z
x,1/2-y,-z
1/2-x,y,-z
y,x,1/2-z
1/2-y,1/2-x,1/2-z
-x,-y,-z
1/2+y,-x,1/2-z
1/2+x,1/2+y,-z
-y,1/2+x,1/2-z
-x,1/2+y,z
1/2+x,-y,z
-y,-x,1/2+z
1/2+y,1/2+x,1/2+z
loop_
_atom_site_type_symbol
_atom_site_label
_atom_site_fract_x
_atom_site_fract_y
_atom_site_fract_z
Si Si1 0.906990 0.906990 0.250000
Si Si2 0.938878 0.821008 0.837483
Si Si3 0.329092 0.462899 0.188655
Si Si4 0.551764 0.333014 0.974753
Si Si5 0.197988 0.119350 0.555724
Si Si6 0.562234 0.448005 0.593339
Si Si7 0.819445 0.946196 0.127713
Si Si8 0.455550 0.926913 0.852800
O O1 0.838960 0.907928 0.198484
O O2 0.980753 0.907235 0.201872
O O3 0.873961 0.885005 0.827189
O O4 0.960784 0.797212 0.763263
O O5 0.907164 0.752611 0.883168
O O6 0.010371 0.867508 0.868906
O O7 0.266527 0.471702 0.132166
O O8 0.387819 0.531914 0.184581
O O9 0.459717 0.329967 0.976885
O O10 0.568372 0.356746 0.899089
O O11 0.578632 0.250000 0.000000
O O12 0.574552 0.400894 0.023594
O O13 0.250000 0.158298 0.500000
O O14 0.121914 0.162844 0.576998
O O15 0.519351 0.373976 0.621593
O O16 0.492100 0.508019 0.598715
#
# Coordination Sequence:
#
# PCOD9567602 Si02
#       8
#     8  16  16  16  16  16  16  16
#     4  10  18  34  56  87 108 143 192 246 266 326
#     4  10  20  39  57  82 116 153 190 230 279 350
#     4  10  22  36  56  81 121 155 179 226 297 343
#     4  11  20  34  60  86 102 146 194 239 283 329
#     4  11  21  36  58  83 111 147 198 234 278 337
#     4  10  19  34  58  83 109 140 192 243 278 325
#     4  11  22  34  55  85 115 148 188 232 285 337
#     4  10  20  35  55  83 114 144 187 240 288 332
#
# _framework density 19.279520000000002
#
# number of rings (size 3 to 8) (size 9 to 14) (size 15 to 20)
#    0.000    1.600    5.333    3.600    0.000    0.533 
#    0.000    4.667    0.000    1.600    0.000    0.000 
#    0.000    0.000    0.000    0.000    0.000    0.000 
#
# Total GULP energy -668829.859049 kJ/mol
# GULP energy per Si atom -5573.582159 kJ/mol
# Density = 1.923564 g / cm^3
# Si number density = 19.279520 Si / 1000 Ang^3
#
#
#
# Elastic Constant Matrix: (Units=GPa)
#
#
# Indices 1 2 3 4 5 6 
#
# 1 35.9701 7.2485 8.2653 0.0000 0.0000 0.0000
# 2 7.2485 35.9701 8.2653 0.0000 0.0000 0.0000
# 3 8.2653 8.2653 65.8294 0.0000 0.0000 0.0000
# 4 0.0000 0.0000 0.0000 9.8111 0.0000 0.0000
# 5 0.0000 0.0000 0.0000 0.0000 9.8111 0.0000
# 6 0.0000 0.0000 0.0000 0.0000 0.0000 -1.0488
#
#
#
# Elastic Compliance Matrix: (Units=1/GPa)
#
#
# Indices 1 2 3 4 5 6 
#
# 1 0.029561 -0.005256 -0.003052 0.000000 0.000000 0.000000
# 2 -0.005256 0.029561 -0.003052 0.000000 0.000000 0.000000
# 3 -0.003052 -0.003052 0.015957 0.000000 0.000000 0.000000
# 4 0.000000 0.000000 0.000000 0.101925 0.000000 0.000000
# 5 0.000000 0.000000 0.000000 0.000000 0.101925 0.000000
# 6 0.000000 0.000000 0.000000 0.000000 0.000000 -0.953458
#
#
# Mechanical properties :
#
#
# Convention : Reuss Voigt Hill
#
# Bulk Modulus (GPa) = 19.09812 20.59198 19.84505
# Shear Modulus (GPa) = -7.88202 11.31404 1.71601
#
# Velocity S-wave (km/s) = -2.02414 2.42511 0.94446
# Velocity P-wave (km/s) = 2.11294 4.30645 3.39190
#
# Compressibility (1/GPa) = 0.05236117
#
# Stress axis : x y z
#
# Youngs Moduli (GPa) = 33.82811 33.82811 62.66796
#
# Poissons Ratio (x) = 0.17779 0.19124
# Poissons Ratio (y) = 0.17779 0.19124
# Poissons Ratio (z) = 0.10323 0.10323
#
# Static dielectric constant tensor:
#      x y z
#    x 1.676900 0.000000 0.000000 
#    y 0.000000 1.676900 0.000000 
#    z 0.000000 0.000000 1.750260 
# 
# From -- ./inp_files/6767.got.cif
#   From: 2010.05.17/outbox.cif.g08.bks.cpg/sg133_4_cif.got.tgz:6767.got - 2010.05.20 12:37:36.
