data_PCOD9567168
_publ_section_title
;
Structure prediction by ZEFSAII (Michael W. Deem and Ramdas Pophale) SiO2 
 PCOD9567168
Probable space group: P 42/M C M
;
_chemical_formula_sum "Si O2"
_cell_formula_units_Z 96
_cell_length_a 24.675692
_cell_length_b 24.675692
_cell_length_c 8.417028
_cell_angle_alpha 90.000000
_cell_angle_beta 90.000000
_cell_angle_gamma 90.000000
_cell_volume 5125.042291
_symmetry_space_group_name_H-M "P 42/M C M"
_symmetry_group_IT_number 132
_symmetry_cell_setting 'tetragonal'
loop_
_space_group_symop_operation_xyz
x,y,z
-y,x,1/2+z
-x,-y,z
y,-x,1/2+z
x,-y,1/2-z
-x,y,1/2-z
y,x,-z
-y,-x,-z
-x,-y,-z
y,-x,1/2-z
x,y,-z
-y,x,1/2-z
-x,y,1/2+z
x,-y,1/2+z
-y,-x,z
y,x,z
loop_
_atom_site_type_symbol
_atom_site_label
_atom_site_fract_x
_atom_site_fract_y
_atom_site_fract_z
Si Si1 0.251735 0.639829 0.316413
Si Si2 0.555343 0.826163 0.310237
Si Si3 0.738419 0.177274 0.309060
Si Si4 0.437035 0.349777 0.690366
Si Si5 0.710162 0.058090 0.809496
Si Si6 0.055246 0.585836 0.189028
O O1 0.265796 0.648728 0.500000
O O2 0.201407 0.600525 0.293444
O O3 0.222953 0.694660 0.250957
O O4 0.301664 0.605450 0.241119
O O5 0.500000 0.800972 0.250000
O O6 0.563396 0.818796 0.500000
O O7 0.556855 0.889403 0.270744
O O8 0.730844 0.174661 0.500000
O O9 0.796750 0.203251 0.275017
O O10 0.732911 0.116476 0.243595
O O11 0.500000 0.345116 0.750000
O O12 0.439869 0.347968 0.500000
O O13 0.405876 0.405876 0.738143
O O14 0.647649 0.058931 0.750352
O O15 0.733470 0.000000 0.750000
O O16 0.710721 0.056792 0.000000
O O17 0.000000 0.561135 0.250000
O O18 0.052301 0.588296 0.000000
#
# Coordination Sequence:
#
# PCOD9567168 Si02
#       6
#    16  16  16  16  16  16
#     4  11  22  38  60  84 113 149 184 225 276 332
#     4  11  22  36  51  73 103 139 185 233 280 332
#     4  10  21  36  56  85 118 151 189 233 280 331
#     4  11  25  44  66  90 115 144 178 221 276 339
#     4  10  19  34  55  80 110 149 191 233 281 333
#     4   9  19  33  50  70  98 134 178 228 276 327
#
# _framework density 18.731552000000001
#
# number of rings (size 3 to 8) (size 9 to 14) (size 15 to 20)
#    0.000    1.667    1.667    3.000    0.000    5.500 
#    0.000    2.500    0.000    0.000    0.000    0.000 
#    0.000    0.333    0.000    3.500    0.000    1.500 
#
# Total GULP energy -534735.509663 kJ/mol
# GULP energy per Si atom -5570.161559 kJ/mol
# Density = 1.868892 g / cm^3
# Si number density = 18.731552 Si / 1000 Ang^3
#
#
#
# Elastic Constant Matrix: (Units=GPa)
#
#
# Indices 1 2 3 4 5 6 
#
# 1 110.6502 73.4142 34.8580 0.0000 0.0000 0.0000
# 2 73.4142 110.6502 34.8580 0.0000 0.0000 0.0000
# 3 34.8580 34.8580 30.9933 0.0000 0.0000 0.0000
# 4 0.0000 0.0000 0.0000 13.2520 0.0000 0.0000
# 5 0.0000 0.0000 0.0000 0.0000 13.2520 0.0000
# 6 0.0000 0.0000 0.0000 0.0000 0.0000 7.4649
#
#
#
# Elastic Compliance Matrix: (Units=1/GPa)
#
#
# Indices 1 2 3 4 5 6 
#
# 1 0.018160 -0.008695 -0.010645 0.000000 0.000000 0.000000
# 2 -0.008695 0.018160 -0.010645 0.000000 0.000000 0.000000
# 3 -0.010645 -0.010645 0.056210 0.000000 0.000000 0.000000
# 4 0.000000 0.000000 0.000000 0.075461 0.000000 0.000000
# 5 0.000000 0.000000 0.000000 0.000000 0.075461 0.000000
# 6 0.000000 0.000000 0.000000 0.000000 0.000000 0.133961
#
#
# Mechanical properties :
#
#
# Convention : Reuss Voigt Hill
#
# Bulk Modulus (GPa) = 30.71308 59.83935 45.27621
# Shear Modulus (GPa) = 11.15483 14.07132 12.61307
#
# Velocity S-wave (km/s) = 2.44296 2.74379 2.59773
# Velocity P-wave (km/s) = 4.93856 6.48483 5.76378
#
# Compressibility (1/GPa) = 0.03255942
#
# Stress axis : x y z
#
# Youngs Moduli (GPa) = 55.06532 55.06532 17.79045
#
# Poissons Ratio (x) = 0.47882 0.18938
# Poissons Ratio (y) = 0.47882 0.18938
# Poissons Ratio (z) = 0.58617 0.58617
#
# Static dielectric constant tensor:
#      x y z
#    x 1.619190 0.000000 0.000000 
#    y 0.000000 1.619190 0.000000 
#    z 0.000000 0.000000 1.650590 
# 
# From -- ./inp_files/1751.got.cif
#   From: 2010.05.17/outbox.cif.g08.bks.cpg/sg132_1_cif.got.tgz:1751.got - 2010.05.20 12:30:18.
