data_PCOD9567624
_publ_section_title
;
Structure prediction by ZEFSAII (Michael W. Deem and Ramdas Pophale) SiO2 
 PCOD9567624
Probable space group: P 42/N B C
;
_chemical_formula_sum "Si O2"
_cell_formula_units_Z 80
_cell_length_a 13.616573
_cell_length_b 13.616573
_cell_length_c 20.110761
_cell_angle_alpha 90.000000
_cell_angle_beta 90.000000
_cell_angle_gamma 90.000000
_cell_volume 3728.757520
_symmetry_space_group_name_H-M "P 42/N B C"
_symmetry_group_IT_number 133
_space_group.IT_coordinate_system_code '2'
_symmetry_cell_setting 'tetragonal'
loop_
_space_group_symop_operation_xyz
x,y,z
1/2-y,x,1/2+z
1/2-x,1/2-y,z
y,1/2-x,1/2+z
x,1/2-y,-z
1/2-x,y,-z
y,x,1/2-z
1/2-y,1/2-x,1/2-z
-x,-y,-z
1/2+y,-x,1/2-z
1/2+x,1/2+y,-z
-y,1/2+x,1/2-z
-x,1/2+y,z
1/2+x,-y,z
-y,-x,1/2+z
1/2+y,1/2+x,1/2+z
loop_
_atom_site_type_symbol
_atom_site_label
_atom_site_fract_x
_atom_site_fract_y
_atom_site_fract_z
Si Si1 0.511052 0.794825 0.611157
Si Si2 0.585670 0.976600 0.676417
Si Si3 0.229875 0.589252 0.250991
Si Si4 0.087610 0.459730 0.915434
Si Si5 0.863241 0.408267 0.480676
O O1 0.578752 0.889359 0.623251
O O2 0.473078 0.763835 0.684025
O O3 0.567241 0.701243 0.583064
O O4 0.416903 0.827982 0.567165
O O5 0.564052 0.935949 0.750000
O O6 0.689197 0.030435 0.685533
O O7 0.496317 0.047447 0.655572
O O8 0.146156 0.670331 0.236271
O O9 0.012978 0.380489 0.944516
O O10 0.084918 0.562542 0.956847
O O11 0.750000 0.389368 0.500000
#
# Coordination Sequence:
#
# PCOD9567624 Si02
#       5
#    16  16  16  16  16
#     4  10  20  35  58  84 120 163 200 249 311 364
#     4   9  19  35  53  84 118 159 192 243 303 363
#     4  10  19  30  53  89 120 152 199 256 306 362
#     4  10  20  39  58  85 124 157 199 254 305 360
#     4  10  23  37  60  91 117 161 206 251 307 363
#
# _framework density 21.454867
#
# number of rings (size 3 to 8) (size 9 to 14) (size 15 to 20)
#    0.000    2.200    2.000    0.600    2.800    1.600 
#    0.000    0.000    0.000   21.600    0.000    5.600 
#    0.000    0.000    0.000    0.000    0.000    0.000 
#
# Total GULP energy -446260.739700 kJ/mol
# GULP energy per Si atom -5578.259246 kJ/mol
# Density = 2.140603 g / cm^3
# Si number density = 21.454867 Si / 1000 Ang^3
#
#
#
# Elastic Constant Matrix: (Units=GPa)
#
#
# Indices 1 2 3 4 5 6 
#
# 1 81.5938 4.5944 0.8445 0.0000 0.0000 0.0000
# 2 4.5944 81.5940 0.8448 0.0000 0.0000 0.0000
# 3 0.8445 0.8448 36.9721 0.0000 0.0000 0.0000
# 4 0.0000 0.0000 0.0000 15.4144 0.0000 0.0000
# 5 0.0000 0.0000 0.0000 0.0000 15.4141 0.0000
# 6 0.0000 0.0000 0.0000 0.0000 0.0000 16.6560
#
#
#
# Elastic Compliance Matrix: (Units=1/GPa)
#
#
# Indices 1 2 3 4 5 6 
#
# 1 0.012297 -0.000690 -0.000265 0.000000 0.000000 0.000000
# 2 -0.000690 0.012297 -0.000265 0.000000 0.000000 0.000000
# 3 -0.000265 -0.000265 0.027060 0.000000 0.000000 0.000000
# 4 0.000000 0.000000 0.000000 0.064875 0.000000 0.000000
# 5 0.000000 0.000000 0.000000 0.000000 0.064876 0.000000
# 6 0.000000 0.000000 0.000000 0.000000 0.000000 0.060039
#
#
# Mechanical properties :
#
#
# Convention : Reuss Voigt Hill
#
# Bulk Modulus (GPa) = 20.31932 23.63635 21.97784
# Shear Modulus (GPa) = 19.20950 22.42197 20.81573
#
# Velocity S-wave (km/s) = 2.99548 3.23627 3.11820
# Velocity P-wave (km/s) = 4.63197 5.00053 4.81977
#
# Compressibility (1/GPa) = 0.04921425
#
# Stress axis : x y z
#
# Youngs Moduli (GPa) = 81.31789 81.31806 36.95550
#
# Poissons Ratio (x) = 0.05608 0.00980
# Poissons Ratio (y) = 0.05608 0.00980
# Poissons Ratio (z) = 0.02156 0.02157
#
# Static dielectric constant tensor:
#      x y z
#    x 1.805350 0.000000 0.000000 
#    y 0.000000 1.805350 0.000000 
#    z 0.000000 0.000000 1.839170 
# 
# From -- ./inp_files/6333.got.cif
#   From: 2010.05.17/outbox.cif.g08.bks.cpg/sg133_4_cif.got.tgz:6333.got - 2010.05.20 12:37:36.
