data_PCOD9567030
_publ_section_title
;
Structure prediction by ZEFSAII (Michael W. Deem and Ramdas Pophale) SiO2 
 PCOD9567030
Probable space group: P 42/M C M
;
_chemical_formula_sum "Si O2"
_cell_formula_units_Z 96
_cell_length_a 15.698961
_cell_length_b 15.698961
_cell_length_c 17.832394
_cell_angle_alpha 90.000000
_cell_angle_beta 90.000000
_cell_angle_gamma 90.000000
_cell_volume 4394.925042
_symmetry_space_group_name_H-M "P 42/M C M"
_symmetry_group_IT_number 132
_symmetry_cell_setting 'tetragonal'
loop_
_space_group_symop_operation_xyz
x,y,z
-y,x,1/2+z
-x,-y,z
y,-x,1/2+z
x,-y,1/2-z
-x,y,1/2-z
y,x,-z
-y,-x,-z
-x,-y,-z
y,-x,1/2-z
x,y,-z
-y,x,1/2-z
-x,y,1/2+z
x,-y,1/2+z
-y,-x,z
y,x,z
loop_
_atom_site_type_symbol
_atom_site_label
_atom_site_fract_x
_atom_site_fract_y
_atom_site_fract_z
Si Si1 0.876468 0.597761 0.723115
Si Si2 0.272145 0.134684 0.409233
Si Si3 0.306935 0.439274 0.310440
Si Si4 0.146318 0.281625 0.845564
Si Si5 0.980829 0.848148 0.087856
Si Si6 0.589126 0.276720 0.587816
O O1 0.900692 0.500000 0.750000
O O2 0.885081 0.643247 0.641141
O O3 0.773547 0.599225 0.732792
O O4 0.906956 0.665917 0.784403
O O5 0.287125 0.126153 0.500000
O O6 0.227798 0.227798 0.396919
O O7 0.197936 0.067143 0.385839
O O8 0.351501 0.500000 0.250000
O O9 0.369647 0.369647 0.340540
O O10 0.269020 0.498408 0.374341
O O11 0.214943 0.214943 0.811057
O O12 0.087734 0.225854 0.898829
O O13 0.198370 0.350113 0.893355
O O14 0.933335 0.933335 0.119306
O O15 0.993976 0.864470 0.000000
O O16 0.579098 0.284403 0.500000
O O17 0.639145 0.360856 0.615686
#
# Coordination Sequence:
#
# PCOD9567030 Si02
#       6
#    16  16  16  16  16  16
#     4  11  22  39  60  84 116 166 218 264 310 379
#     4  10  22  41  65  96 134 171 211 267 333 396
#     4  11  21  34  52  75 105 147 200 256 314 383
#     4  10  18  35  60  84 114 155 208 261 308 374
#     4   9  19  37  64  97 129 165 207 253 316 395
#     4  10  20  33  51  76 106 143 190 249 316 379
#
# _framework density 21.843375999999999
#
# number of rings (size 3 to 8) (size 9 to 14) (size 15 to 20)
#    0.000    1.833    3.333    2.500    0.000    5.167 
#    0.000    4.167    0.000    2.000    0.000    2.333 
#    0.000    0.000    0.000    0.000    0.000    0.000 
#
# Total GULP energy -534714.395330 kJ/mol
# GULP energy per Si atom -5569.941618 kJ/mol
# Density = 2.179366 g / cm^3
# Si number density = 21.843376 Si / 1000 Ang^3
#
#
#
# Elastic Constant Matrix: (Units=GPa)
#
#
# Indices 1 2 3 4 5 6 
#
# 1 84.8323 58.7077 27.2951 0.0000 0.0000 0.0000
# 2 58.7077 84.8323 27.2951 0.0000 0.0000 0.0000
# 3 27.2951 27.2951 63.1655 0.0000 0.0000 0.0000
# 4 0.0000 0.0000 0.0000 10.8087 0.0000 0.0000
# 5 0.0000 0.0000 0.0000 0.0000 10.8087 0.0000
# 6 0.0000 0.0000 0.0000 0.0000 0.0000 35.6033
#
#
#
# Elastic Compliance Matrix: (Units=1/GPa)
#
#
# Indices 1 2 3 4 5 6 
#
# 1 0.023307 -0.014971 -0.003602 0.000000 0.000000 0.000000
# 2 -0.014971 0.023307 -0.003602 0.000000 0.000000 0.000000
# 3 -0.003602 -0.003602 0.018945 0.000000 0.000000 0.000000
# 4 0.000000 0.000000 0.000000 0.092518 0.000000 0.000000
# 5 0.000000 0.000000 0.000000 0.000000 0.092518 0.000000
# 6 0.000000 0.000000 0.000000 0.000000 0.000000 0.028087
#
#
# Mechanical properties :
#
#
# Convention : Reuss Voigt Hill
#
# Bulk Modulus (GPa) = 47.15104 51.04732 49.09918
# Shear Modulus (GPa) = 15.14674 19.41295 17.27984
#
# Velocity S-wave (km/s) = 2.63615 2.98440 2.81566
# Velocity P-wave (km/s) = 5.55865 5.94104 5.75302
#
# Compressibility (1/GPa) = 0.02120844
#
# Stress axis : x y z
#
# Youngs Moduli (GPa) = 42.90484 42.90484 52.78478
#
# Poissons Ratio (x) = 0.64231 0.19016
# Poissons Ratio (y) = 0.64231 0.19016
# Poissons Ratio (z) = 0.15456 0.15456
#
# Static dielectric constant tensor:
#      x y z
#    x 1.886630 0.000000 0.000000 
#    y 0.000000 1.886630 0.000000 
#    z 0.000000 0.000000 1.804990 
# 
# From -- ./inp_files/7918.got.cif
#   From: 2010.05.17/outbox.cif.g08.bks.cpg/sg132_4_cif.got.tgz:7918.got - 2010.05.20 12:30:18.
