data_PCOD9567579
_publ_section_title
;
Structure prediction by ZEFSAII (Michael W. Deem and Ramdas Pophale) SiO2 
 PCOD9567579
Probable space group: P 42/N B C
;
_chemical_formula_sum "Si O2"
_cell_formula_units_Z 128
_cell_length_a 22.477569
_cell_length_b 22.477569
_cell_length_c 18.330639
_cell_angle_alpha 90.000000
_cell_angle_beta 90.000000
_cell_angle_gamma 90.000000
_cell_volume 9261.392361
_symmetry_space_group_name_H-M "P 42/N B C"
_symmetry_group_IT_number 133
_space_group.IT_coordinate_system_code '2'
_symmetry_cell_setting 'tetragonal'
loop_
_space_group_symop_operation_xyz
x,y,z
1/2-y,x,1/2+z
1/2-x,1/2-y,z
y,1/2-x,1/2+z
x,1/2-y,-z
1/2-x,y,-z
y,x,1/2-z
1/2-y,1/2-x,1/2-z
-x,-y,-z
1/2+y,-x,1/2-z
1/2+x,1/2+y,-z
-y,1/2+x,1/2-z
-x,1/2+y,z
1/2+x,-y,z
-y,-x,1/2+z
1/2+y,1/2+x,1/2+z
loop_
_atom_site_type_symbol
_atom_site_label
_atom_site_fract_x
_atom_site_fract_y
_atom_site_fract_z
Si Si1 0.998060 0.181771 0.292043
Si Si2 0.928529 0.428529 0.750000
Si Si3 0.498059 0.818229 0.707957
Si Si4 0.318680 0.113051 0.311108
Si Si5 0.615019 0.930886 0.083699
Si Si6 0.930887 0.884981 0.416302
Si Si7 0.500000 0.000000 0.870730
Si Si8 0.386948 0.318679 0.188892
O O1 0.980855 0.250000 0.299208
O O2 0.027970 0.157436 0.366298
O O3 0.050008 0.176507 0.231111
O O4 0.945045 0.138751 0.267881
O O5 0.861249 0.445044 0.767881
O O6 0.966887 0.452988 0.818052
O O7 0.952987 0.466886 0.681946
O O8 0.550007 0.823494 0.768889
O O9 0.527969 0.842564 0.633702
O O10 0.339006 0.160995 0.250000
O O11 0.366860 0.113455 0.375942
O O12 0.250001 0.121969 0.333043
O O13 0.550584 0.963272 0.087411
O O14 0.613456 0.866859 0.124058
O O15 0.633913 0.925824 0.000000
O O16 0.963273 0.949416 0.412590
O O17 0.339005 0.339005 0.250000
#
# Coordination Sequence:
#
# PCOD9567579 Si02
#       8
#    16  16  16  16  16  16  16  16
#     4   9  17  29  45  63  84 113 146 179 216 258
#     4   9  14  26  48  63  82 110 146 179 212 258
#     4   9  17  29  45  63  84 113 146 179 216 258
#     4   9  17  30  44  61  84 116 155 186 211 245
#     4  10  18  27  42  65  92 118 140 175 220 262
#     4  10  18  27  42  65  92 118 140 175 220 262
#     4   9  15  26  42  66  88 112 140 174 218 264
#     4   9  17  30  44  61  84 116 155 186 211 245
#
# _framework density 13.820816000000001
#
# number of rings (size 3 to 8) (size 9 to 14) (size 15 to 20)
#    0.000    2.750    2.500    0.375    0.000    1.250 
#    0.000    0.000    0.000    0.375    0.000    7.000 
#    0.000    0.000    0.000    6.500    0.000    0.000 
#
# Total GULP energy -712605.601411 kJ/mol
# GULP energy per Si atom -5567.231261 kJ/mol
# Density = 1.378936 g / cm^3
# Si number density = 13.820816 Si / 1000 Ang^3
#
#
#
# Elastic Constant Matrix: (Units=GPa)
#
#
# Indices 1 2 3 4 5 6 
#
# 1 102.2991 53.4955 38.0041 0.0000 0.0000 0.0000
# 2 53.4955 102.2985 38.0041 0.0000 0.0000 0.0000
# 3 38.0041 38.0041 91.5271 0.0000 0.0000 0.0000
# 4 0.0000 0.0000 0.0000 7.6102 0.0000 0.0000
# 5 0.0000 0.0000 0.0000 0.0000 7.6103 0.0000
# 6 0.0000 0.0000 0.0000 0.0000 0.0000 11.9906
#
#
#
# Elastic Compliance Matrix: (Units=1/GPa)
#
#
# Indices 1 2 3 4 5 6 
#
# 1 0.014270 -0.006221 -0.003342 0.000000 0.000000 0.000000
# 2 -0.006221 0.014270 -0.003342 0.000000 0.000000 0.000000
# 3 -0.003342 -0.003342 0.013701 0.000000 0.000000 0.000000
# 4 0.000000 0.000000 0.000000 0.131402 0.000000 0.000000
# 5 0.000000 0.000000 0.000000 0.000000 0.131401 0.000000
# 6 0.000000 0.000000 0.000000 0.000000 0.000000 0.083398
#
#
# Mechanical properties :
#
#
# Convention : Reuss Voigt Hill
#
# Bulk Modulus (GPa) = 60.86092 61.68133 61.27113
# Shear Modulus (GPa) = 11.91242 16.55029 14.23136
#
# Velocity S-wave (km/s) = 2.93903 3.46423 3.21238
# Velocity P-wave (km/s) = 7.45979 7.79278 7.62810
#
# Compressibility (1/GPa) = 0.01643090
#
# Stress axis : x y z
#
# Youngs Moduli (GPa) = 70.07796 70.07743 72.98578
#
# Poissons Ratio (x) = 0.43592 0.24394
# Poissons Ratio (y) = 0.43592 0.24394
# Poissons Ratio (z) = 0.23422 0.23422
#
# Static dielectric constant tensor:
#      x y z
#    x 1.445810 0.000000 0.000000 
#    y 0.000000 1.445810 0.000000 
#    z 0.000000 0.000000 1.444950 
# 
# From -- ./inp_files/5755.got.cif
#   From: 2010.05.17/outbox.cif.g08.bks.cpg/sg133_3_cif.got.tgz:5755.got - 2010.05.20 12:37:36.
