data_PCOD9567246
_publ_section_title
;
Structure prediction by ZEFSAII (Michael W. Deem and Ramdas Pophale) SiO2 
 PCOD9567246
Probable space group: P 42/M C M
;
_chemical_formula_sum "Si O2"
_cell_formula_units_Z 80
_cell_length_a 13.114120
_cell_length_b 13.114120
_cell_length_c 25.417952
_cell_angle_alpha 90.000000
_cell_angle_beta 90.000000
_cell_angle_gamma 90.000000
_cell_volume 4371.383029
_symmetry_space_group_name_H-M "P 42/M C M"
_symmetry_group_IT_number 132
_symmetry_cell_setting 'tetragonal'
loop_
_space_group_symop_operation_xyz
x,y,z
-y,x,1/2+z
-x,-y,z
y,-x,1/2+z
x,-y,1/2-z
-x,y,1/2-z
y,x,-z
-y,-x,-z
-x,-y,-z
y,-x,1/2-z
x,y,-z
-y,x,1/2-z
-x,y,1/2+z
x,-y,1/2+z
-y,-x,z
y,x,z
loop_
_atom_site_type_symbol
_atom_site_label
_atom_site_fract_x
_atom_site_fract_y
_atom_site_fract_z
Si Si1 0.726465 0.106929 0.437019
Si Si2 0.881326 0.507380 0.115584
Si Si3 0.423170 0.738181 0.292710
Si Si4 0.886986 0.726199 0.728724
Si Si5 0.117799 0.715613 0.102418
O O1 0.727778 0.106229 0.500000
O O2 0.807822 0.192179 0.418394
O O3 0.611778 0.128409 0.417072
O O4 0.751564 0.993373 0.416490
O O5 0.801562 0.518816 0.162820
O O6 0.864136 0.401364 0.084853
O O7 0.000000 0.500000 0.134227
O O8 0.500000 0.692200 0.250000
O O9 0.347841 0.652160 0.314706
O O10 0.354836 0.818358 0.259860
O O11 0.835565 0.835565 0.739077
O O12 0.883840 0.709610 0.666113
O O13 0.000000 0.719891 0.750000
O O14 0.205958 0.794042 0.086546
#
# Coordination Sequence:
#
# PCOD9567246 Si02
#       5
#    16  16  16  16  16
#     4  10  22  40  60  83 110 142 184 234 286 337
#     4  10  20  35  59  84 111 147 188 231 275 325
#     4  11  22  34  53  80 111 148 188 223 266 319
#     4  10  20  33  50  76 111 147 184 225 269 322
#     4  10  21  36  55  82 114 146 183 229 281 338
#
# _framework density 18.300844000000001
#
# number of rings (size 3 to 8) (size 9 to 14) (size 15 to 20)
#    0.000    1.800    2.000    3.000    0.000    7.200 
#    0.000    3.000    0.000    1.800    0.000    1.400 
#    0.000    0.000    0.000    0.000    0.000    0.000 
#
# Total GULP energy -446410.420726 kJ/mol
# GULP energy per Si atom -5580.130259 kJ/mol
# Density = 1.825919 g / cm^3
# Si number density = 18.300844 Si / 1000 Ang^3
#
#
#
# Elastic Constant Matrix: (Units=GPa)
#
#
# Indices 1 2 3 4 5 6 
#
# 1 112.4208 82.0406 14.8116 0.0000 0.0000 0.0000
# 2 82.0406 112.4208 14.8116 0.0000 0.0000 0.0000
# 3 14.8116 14.8116 25.5835 0.0000 0.0000 0.0000
# 4 0.0000 0.0000 0.0000 14.6126 0.0000 0.0000
# 5 0.0000 0.0000 0.0000 0.0000 14.6126 0.0000
# 6 0.0000 0.0000 0.0000 0.0000 0.0000 33.6998
#
#
#
# Elastic Compliance Matrix: (Units=1/GPa)
#
#
# Indices 1 2 3 4 5 6 
#
# 1 0.019278 -0.013638 -0.003265 0.000000 0.000000 0.000000
# 2 -0.013638 0.019278 -0.003265 0.000000 0.000000 0.000000
# 3 -0.003265 -0.003265 0.042868 0.000000 0.000000 0.000000
# 4 0.000000 0.000000 0.000000 0.068434 0.000000 0.000000
# 5 0.000000 0.000000 0.000000 0.000000 0.068434 0.000000
# 6 0.000000 0.000000 0.000000 0.000000 0.000000 0.029674
#
#
# Mechanical properties :
#
#
# Convention : Reuss Voigt Hill
#
# Bulk Modulus (GPa) = 24.33834 52.63916 38.48875
# Shear Modulus (GPa) = 16.55632 21.83574 19.19603
#
# Velocity S-wave (km/s) = 3.01104 3.45795 3.24221
# Velocity P-wave (km/s) = 5.04147 6.69096 5.92391
#
# Compressibility (1/GPa) = 0.04108743
#
# Stress axis : x y z
#
# Youngs Moduli (GPa) = 51.87256 51.87256 23.32716
#
# Poissons Ratio (x) = 0.70745 0.07617
# Poissons Ratio (y) = 0.70745 0.07617
# Poissons Ratio (z) = 0.16937 0.16937
#
# Static dielectric constant tensor:
#      x y z
#    x 1.641370 0.000000 0.000000 
#    y 0.000000 1.641370 0.000000 
#    z 0.000000 0.000000 1.622270 
# 
# From -- ./inp_files/10647.got.cif
#   From: 2010.05.17/outbox.cif.g08.bks.cpg/sg132_6_cif.got.tgz:10647.got - 2010.05.20 12:30:18.
