data_PCOD9567236
_publ_section_title
;
Structure prediction by ZEFSAII (Michael W. Deem and Ramdas Pophale) SiO2 
 PCOD9567236
Probable space group: P 42/M C M
;
_chemical_formula_sum "Si O2"
_cell_formula_units_Z 96
_cell_length_a 24.987134
_cell_length_b 24.987134
_cell_length_c 9.104087
_cell_angle_alpha 90.000000
_cell_angle_beta 90.000000
_cell_angle_gamma 90.000000
_cell_volume 5684.199223
_symmetry_space_group_name_H-M "P 42/M C M"
_symmetry_group_IT_number 132
_symmetry_cell_setting 'tetragonal'
loop_
_space_group_symop_operation_xyz
x,y,z
-y,x,1/2+z
-x,-y,z
y,-x,1/2+z
x,-y,1/2-z
-x,y,1/2-z
y,x,-z
-y,-x,-z
-x,-y,-z
y,-x,1/2-z
x,y,-z
-y,x,1/2-z
-x,y,1/2+z
x,-y,1/2+z
-y,-x,z
y,x,z
loop_
_atom_site_type_symbol
_atom_site_label
_atom_site_fract_x
_atom_site_fract_y
_atom_site_fract_z
Si Si1 0.258833 0.944088 0.825403
Si Si2 0.943347 0.853917 0.176022
Si Si3 0.840686 0.330420 0.824543
Si Si4 0.254916 0.254916 0.667068
Si Si5 0.654609 0.654609 0.665528
Si Si6 0.173581 0.445006 0.169342
Si Si7 0.697228 0.447394 0.333039
O O1 0.202809 0.928048 0.748942
O O2 0.302585 0.898040 0.805636
O O3 0.274735 0.000000 0.750000
O O4 0.250296 0.951610 0.000000
O O5 0.898548 0.898548 0.203730
O O6 0.000000 0.868979 0.250000
O O7 0.949647 0.847958 0.000000
O O8 0.796298 0.286889 0.768704
O O9 0.839171 0.388581 0.748679
O O10 0.830094 0.337831 0.000000
O O11 0.238844 0.238844 0.500000
O O12 0.300152 0.300152 0.660623
O O13 0.640070 0.640070 0.500000
O O14 0.604332 0.677938 0.748957
O O15 0.155258 0.500000 0.250000
O O16 0.238224 0.447638 0.167341
O O17 0.154956 0.444432 0.000000
O O18 0.678347 0.500000 0.250000
O O19 0.678686 0.446907 0.500000
#
# Coordination Sequence:
#
# PCOD9567236 Si02
#       7
#    16  16  16   8   8  16  16
#     4  10  21  36  58  80 107 144 184 224 266 320
#     4  10  21  36  54  77 106 139 179 226 273 322
#     4  10  20  35  55  80 108 143 180 218 264 318
#     4   9  18  31  49  77 110 138 172 212 259 315
#     4  11  19  31  53  74 104 141 169 214 264 311
#     4  10  20  33  52  77 108 142 175 216 261 314
#     4  10  20  33  49  72 102 137 178 216 258 312
#
# _framework density 16.888922999999998
#
# number of rings (size 3 to 8) (size 9 to 14) (size 15 to 20)
#    0.000    2.000    1.667    3.250    1.167    4.167 
#    0.000    1.250    0.000    0.750    0.000    5.250 
#    0.000    0.000    0.000    0.000    0.000    0.000 
#
# Total GULP energy -535195.885765 kJ/mol
# GULP energy per Si atom -5574.957143 kJ/mol
# Density = 1.685048 g / cm^3
# Si number density = 16.888923 Si / 1000 Ang^3
#
#
#
# Elastic Constant Matrix: (Units=GPa)
#
#
# Indices 1 2 3 4 5 6 
#
# 1 86.8624 49.1026 52.7798 0.0000 0.0000 0.0000
# 2 49.1026 86.8624 52.7798 0.0000 0.0000 0.0000
# 3 52.7798 52.7798 123.6355 0.0000 0.0000 0.0000
# 4 0.0000 0.0000 0.0000 15.1518 0.0000 0.0000
# 5 0.0000 0.0000 0.0000 0.0000 15.1518 0.0000
# 6 0.0000 0.0000 0.0000 0.0000 0.0000 24.0404
#
#
#
# Elastic Compliance Matrix: (Units=1/GPa)
#
#
# Indices 1 2 3 4 5 6 
#
# 1 0.018742 -0.007741 -0.004696 0.000000 0.000000 0.000000
# 2 -0.007741 0.018742 -0.004696 0.000000 0.000000 0.000000
# 3 -0.004696 -0.004696 0.012098 0.000000 0.000000 0.000000
# 4 0.000000 0.000000 0.000000 0.065999 0.000000 0.000000
# 5 0.000000 0.000000 0.000000 0.000000 0.065999 0.000000
# 6 0.000000 0.000000 0.000000 0.000000 0.000000 0.041597
#
#
# Mechanical properties :
#
#
# Convention : Reuss Voigt Hill
#
# Bulk Modulus (GPa) = 65.29683 67.40939 66.35311
# Shear Modulus (GPa) = 19.04413 20.38203 19.71308
#
# Velocity S-wave (km/s) = 3.36163 3.47771 3.42017
# Velocity P-wave (km/s) = 7.33580 7.49173 7.41417
#
# Compressibility (1/GPa) = 0.01531468
#
# Stress axis : x y z
#
# Youngs Moduli (GPa) = 53.35598 53.35598 82.65877
#
# Poissons Ratio (x) = 0.41304 0.38819
# Poissons Ratio (y) = 0.41304 0.38819
# Poissons Ratio (z) = 0.25057 0.25057
#
# Static dielectric constant tensor:
#      x y z
#    x 1.551740 0.000000 0.000000 
#    y 0.000000 1.551740 0.000000 
#    z 0.000000 0.000000 1.585330 
# 
# From -- ./inp_files/1861.got.cif
#   From: 2010.05.17/outbox.cif.g08.bks.cpg/sg132_1_cif.got.tgz:1861.got - 2010.05.20 12:30:18.
