data_PCOD9567881
_publ_section_title
;
Structure prediction by ZEFSAII (Michael W. Deem and Ramdas Pophale) SiO2 
 PCOD9567881
Probable space group: P 42/N B C
;
_chemical_formula_sum "Si O2"
_cell_formula_units_Z 56
_cell_length_a 16.699495
_cell_length_b 16.699495
_cell_length_c 9.268094
_cell_angle_alpha 90.000000
_cell_angle_beta 90.000000
_cell_angle_gamma 90.000000
_cell_volume 2584.622413
_symmetry_space_group_name_H-M "P 42/N B C"
_symmetry_group_IT_number 133
_space_group.IT_coordinate_system_code '2'
_symmetry_cell_setting 'tetragonal'
loop_
_space_group_symop_operation_xyz
x,y,z
1/2-y,x,1/2+z
1/2-x,1/2-y,z
y,1/2-x,1/2+z
x,1/2-y,-z
1/2-x,y,-z
y,x,1/2-z
1/2-y,1/2-x,1/2-z
-x,-y,-z
1/2+y,-x,1/2-z
1/2+x,1/2+y,-z
-y,1/2+x,1/2-z
-x,1/2+y,z
1/2+x,-y,z
-y,-x,1/2+z
1/2+y,1/2+x,1/2+z
loop_
_atom_site_type_symbol
_atom_site_label
_atom_site_fract_x
_atom_site_fract_y
_atom_site_fract_z
Si Si1 0.763452 0.878137 0.162999
Si Si2 0.044941 0.689361 0.773054
Si Si3 0.431283 0.866144 0.091376
Si Si4 0.916084 0.916084 0.750000
O O1 0.806735 0.806735 0.250000
O O2 0.674075 0.912850 0.189302
O O3 0.814978 0.955475 0.209307
O O4 0.750000 0.851060 0.000000
O O5 0.061615 0.778932 0.831921
O O6 0.098929 0.652371 0.647262
O O7 0.060327 0.639216 0.919303
O O8 0.507483 0.917191 0.146483
#
# Coordination Sequence:
#
# PCOD9567881 Si02
#       4
#    16  16  16   8
#     4  11  24  42  68 100 138 183 231 281 350 424
#     4  10  24  41  65  96 134 172 232 279 349 411
#     4  10  23  42  64  96 133 178 222 290 342 414
#     4  10  23  40  64  94 136 171 226 280 340 412
#
# _framework density 21.666608
#
# number of rings (size 3 to 8) (size 9 to 14) (size 15 to 20)
#    0.000    1.714    0.000    2.143   10.000    6.286 
#    0.000    2.857    0.000    0.000    0.000    0.000 
#    0.000    0.000    0.000    0.000    0.000    0.000 
#
# Total GULP energy -311742.837464 kJ/mol
# GULP energy per Si atom -5566.836383 kJ/mol
# Density = 2.161729 g / cm^3
# Si number density = 21.666608 Si / 1000 Ang^3
#
#
#
# Elastic Constant Matrix: (Units=GPa)
#
#
# Indices 1 2 3 4 5 6 
#
# 1 48.8237 23.4505 37.8951 0.0000 0.0000 0.0000
# 2 23.4505 48.8237 37.8951 0.0000 0.0000 0.0000
# 3 37.8951 37.8951 135.0770 0.0000 0.0000 0.0000
# 4 0.0000 0.0000 0.0000 17.0634 0.0000 0.0000
# 5 0.0000 0.0000 0.0000 0.0000 17.0634 0.0000
# 6 0.0000 0.0000 0.0000 0.0000 0.0000 24.8309
#
#
#
# Elastic Compliance Matrix: (Units=1/GPa)
#
#
# Indices 1 2 3 4 5 6 
#
# 1 0.029508 -0.009904 -0.005500 0.000000 0.000000 0.000000
# 2 -0.009904 0.029508 -0.005500 0.000000 0.000000 0.000000
# 3 -0.005500 -0.005500 0.010489 0.000000 0.000000 0.000000
# 4 0.000000 0.000000 0.000000 0.058605 0.000000 0.000000
# 5 0.000000 0.000000 0.000000 0.000000 0.058605 0.000000
# 6 0.000000 0.000000 0.000000 0.000000 0.000000 0.040272
#
#
# Mechanical properties :
#
#
# Convention : Reuss Voigt Hill
#
# Bulk Modulus (GPa) = 36.10469 47.91175 42.00822
# Shear Modulus (GPa) = 17.98399 20.69047 19.33723
#
# Velocity S-wave (km/s) = 2.88415 3.09357 2.99070
# Velocity P-wave (km/s) = 5.27172 5.90944 5.59967
#
# Compressibility (1/GPa) = 0.02769723
#
# Stress axis : x y z
#
# Youngs Moduli (GPa) = 33.88969 33.88969 95.33827
#
# Poissons Ratio (x) = 0.33565 0.52432
# Poissons Ratio (y) = 0.33565 0.52432
# Poissons Ratio (z) = 0.18638 0.18638
#
# Static dielectric constant tensor:
#      x y z
#    x 1.796460 0.000000 0.000000 
#    y 0.000000 1.796460 0.000000 
#    z 0.000000 0.000000 1.855670 
# 
# From -- ./inp_files/1269.got.cif
#   From: 2010.05.17/outbox.cif.g08.bks.cpg/sg133_1_cif.got.tgz:1269.got - 2010.05.20 12:37:36.
