data_PCOD9567364
_publ_section_title
;
Structure prediction by ZEFSAII (Michael W. Deem and Ramdas Pophale) SiO2 
 PCOD9567364
Probable space group: P 42/M C M
;
_chemical_formula_sum "Si O2"
_cell_formula_units_Z 42
_cell_length_a 15.366593
_cell_length_b 15.366593
_cell_length_c 8.825950
_cell_angle_alpha 90.000000
_cell_angle_beta 90.000000
_cell_angle_gamma 90.000000
_cell_volume 2084.090818
_symmetry_space_group_name_H-M "P 42/M C M"
_symmetry_group_IT_number 132
_symmetry_cell_setting 'tetragonal'
loop_
_space_group_symop_operation_xyz
x,y,z
-y,x,1/2+z
-x,-y,z
y,-x,1/2+z
x,-y,1/2-z
-x,y,1/2-z
y,x,-z
-y,-x,-z
-x,-y,-z
y,-x,1/2-z
x,y,-z
-y,x,1/2-z
-x,y,1/2+z
x,-y,1/2+z
-y,-x,z
y,x,z
loop_
_atom_site_type_symbol
_atom_site_label
_atom_site_fract_x
_atom_site_fract_y
_atom_site_fract_z
Si Si1 0.667754 0.908721 0.182419
Si Si2 0.000000 0.000000 0.750000
Si Si3 0.859003 0.140998 0.326691
Si Si4 0.590448 0.735579 0.319090
O O1 0.767866 0.892751 0.239202
O O2 0.613435 0.827282 0.241953
O O3 0.637252 0.000000 0.250000
O O4 0.665692 0.912933 0.000000
O O5 0.932837 0.932837 0.826937
O O6 0.837843 0.162158 0.500000
O O7 0.500000 0.703102 0.250000
O O8 0.583386 0.745978 0.500000
O O9 0.668121 0.668121 0.287032
#
# Coordination Sequence:
#
# PCOD9567364 Si02
#       4
#    16   2   8  16
#     4  11  22  40  63  93 130 173 219 266 323 383
#     4  12  18  36  52  90 128 168 226 264 326 372
#     4  10  21  33  53  84 124 170 212 261 315 371
#     4  11  25  45  70 100 131 169 214 268 331 396
#
# _framework density 20.152673
#
# number of rings (size 3 to 8) (size 9 to 14) (size 15 to 20)
#    0.000    1.143    3.810    2.571    0.000    3.429 
#    0.000    5.714    0.000    0.000    0.000    0.000 
#    0.000    0.000    0.000    0.000    0.000    0.000 
#
# Total GULP energy -234613.729695 kJ/mol
# GULP energy per Si atom -5586.041183 kJ/mol
# Density = 2.010681 g / cm^3
# Si number density = 20.152673 Si / 1000 Ang^3
#
#
#
# Elastic Constant Matrix: (Units=GPa)
#
#
# Indices 1 2 3 4 5 6 
#
# 1 98.1562 24.7322 47.2737 0.0000 0.0000 0.0000
# 2 24.7322 98.1562 47.2736 0.0000 0.0000 0.0000
# 3 47.2737 47.2736 86.9148 0.0000 0.0000 0.0000
# 4 0.0000 0.0000 0.0000 17.4599 0.0000 0.0000
# 5 0.0000 0.0000 0.0000 0.0000 17.4617 0.0000
# 6 0.0000 0.0000 0.0000 0.0000 0.0000 7.4336
#
#
#
# Elastic Compliance Matrix: (Units=1/GPa)
#
#
# Indices 1 2 3 4 5 6 
#
# 1 0.013806 0.000187 -0.007611 0.000000 0.000000 0.000000
# 2 0.000187 0.013806 -0.007611 0.000000 0.000000 0.000000
# 3 -0.007611 -0.007611 0.019785 0.000000 0.000000 0.000000
# 4 0.000000 0.000000 0.000000 0.057274 0.000000 0.000000
# 5 0.000000 0.000000 0.000000 0.000000 0.057268 0.000000
# 6 0.000000 0.000000 0.000000 0.000000 0.000000 0.134525
#
#
# Mechanical properties :
#
#
# Convention : Reuss Voigt Hill
#
# Bulk Modulus (GPa) = 57.71258 57.97624 57.84441
# Shear Modulus (GPa) = 15.04615 19.40089 17.22352
#
# Velocity S-wave (km/s) = 2.73538 3.10610 2.92661
# Velocity P-wave (km/s) = 6.21902 6.45715 6.33920
#
# Compressibility (1/GPa) = 0.01732725
#
# Stress axis : x y z
#
# Youngs Moduli (GPa) = 72.43038 72.43047 50.54360
#
# Poissons Ratio (x) = -0.01353 0.38469
# Poissons Ratio (y) = -0.01353 0.38469
# Poissons Ratio (z) = 0.55127 0.55127
#
# Static dielectric constant tensor:
#      x y z
#    x 1.709050 0.000000 0.000000 
#    y 0.000000 1.709050 0.000000 
#    z 0.000000 0.000000 1.694010 
# 
# From -- ./inp_files/580.got.cif
#   From: 2010.05.17/outbox.cif.g08.bks.cpg/sg132_1_cif.got.tgz:580.got - 2010.05.20 12:30:18.
