data_PCOD9567972
_publ_section_title
;
Structure prediction by ZEFSAII (Michael W. Deem and Ramdas Pophale) SiO2 
 PCOD9567972
Probable space group: P 42/N B C
;
_chemical_formula_sum "Si O2"
_cell_formula_units_Z 64
_cell_length_a 23.377716
_cell_length_b 23.377716
_cell_length_c 5.312114
_cell_angle_alpha 90.000000
_cell_angle_beta 90.000000
_cell_angle_gamma 90.000000
_cell_volume 2903.163823
_symmetry_space_group_name_H-M "P 42/N B C"
_symmetry_group_IT_number 133
_space_group.IT_coordinate_system_code '2'
_symmetry_cell_setting 'tetragonal'
loop_
_space_group_symop_operation_xyz
x,y,z
1/2-y,x,1/2+z
1/2-x,1/2-y,z
y,1/2-x,1/2+z
x,1/2-y,-z
1/2-x,y,-z
y,x,1/2-z
1/2-y,1/2-x,1/2-z
-x,-y,-z
1/2+y,-x,1/2-z
1/2+x,1/2+y,-z
-y,1/2+x,1/2-z
-x,1/2+y,z
1/2+x,-y,z
-y,-x,1/2+z
1/2+y,1/2+x,1/2+z
loop_
_atom_site_type_symbol
_atom_site_label
_atom_site_fract_x
_atom_site_fract_y
_atom_site_fract_z
Si Si1 0.108341 0.017696 0.289702
Si Si2 0.395802 0.310348 0.896548
Si Si3 0.196095 0.512847 0.141603
Si Si4 0.091718 0.636190 0.981651
O O1 0.050132 0.050132 0.250000
O O2 0.150335 0.067310 0.407369
O O3 0.095900 0.963898 0.471011
O O4 0.141143 0.992592 0.043725
O O5 0.349741 0.349741 0.750000
O O6 0.447950 0.291687 0.718284
O O7 0.371461 0.250000 0.000000
O O8 0.188249 0.553548 0.381368
O O9 0.250000 0.536842 0.000000
O O10 0.133363 0.622660 0.748880
#
# Coordination Sequence:
#
# PCOD9567972 Si02
#       4
#    16  16  16  16
#     4  11  22  38  62  88 122 169 214 267 325 389
#     4  11  22  36  62  90 121 164 222 287 339 391
#     4  11  22  40  66  90 122 168 218 261 320 393
#     4  11  24  42  60  93 132 167 208 263 319 385
#
# _framework density 22.044917000000002
#
# number of rings (size 3 to 8) (size 9 to 14) (size 15 to 20)
#    0.000    1.000    7.500    0.000    0.000    1.000 
#    0.000    0.000    0.000   13.500    0.000    0.000 
#    0.000    3.000    0.000    0.000    0.000    0.000 
#
# Total GULP energy -356413.922253 kJ/mol
# GULP energy per Si atom -5568.967535 kJ/mol
# Density = 2.199474 g / cm^3
# Si number density = 22.044917 Si / 1000 Ang^3
#
#
#
# Elastic Constant Matrix: (Units=GPa)
#
#
# Indices 1 2 3 4 5 6 
#
# 1 31.9949 22.3168 14.0242 0.0000 0.0000 0.0000
# 2 22.3168 31.9949 14.0242 0.0000 0.0000 0.0000
# 3 14.0242 14.0242 101.0107 0.0000 0.0000 0.0000
# 4 0.0000 0.0000 0.0000 30.8767 0.0000 0.0000
# 5 0.0000 0.0000 0.0000 0.0000 30.8767 0.0000
# 6 0.0000 0.0000 0.0000 0.0000 0.0000 1.1266
#
#
#
# Elastic Compliance Matrix: (Units=1/GPa)
#
#
# Indices 1 2 3 4 5 6 
#
# 1 0.061580 -0.041745 -0.002754 0.000000 0.000000 0.000000
# 2 -0.041745 0.061580 -0.002754 0.000000 0.000000 0.000000
# 3 -0.002754 -0.002754 0.010665 0.000000 0.000000 0.000000
# 4 0.000000 0.000000 0.000000 0.032387 0.000000 0.000000
# 5 0.000000 0.000000 0.000000 0.000000 0.032387 0.000000
# 6 0.000000 0.000000 0.000000 0.000000 0.000000 0.887635
#
#
# Mechanical properties :
#
#
# Convention : Reuss Voigt Hill
#
# Bulk Modulus (GPa) = 25.43348 29.52566 27.47957
# Shear Modulus (GPa) = 4.18815 20.21834 12.20325
#
# Velocity S-wave (km/s) = 1.37984 3.03172 2.35534
# Velocity P-wave (km/s) = 3.75510 5.06731 4.45973
#
# Compressibility (1/GPa) = 0.03931825
#
# Stress axis : x y z
#
# Youngs Moduli (GPa) = 16.23910 16.23910 93.76810
#
# Poissons Ratio (x) = 0.67791 0.25822
# Poissons Ratio (y) = 0.67791 0.25822
# Poissons Ratio (z) = 0.04472 0.04472
#
# Static dielectric constant tensor:
#      x y z
#    x 1.828070 0.000000 0.000000 
#    y 0.000000 1.828070 0.000000 
#    z 0.000000 0.000000 2.150540 
# 
# From -- ./inp_files/352.got.cif
#   From: 2010.05.17/outbox.cif.g08.bks.cpg/sg133_1_cif.got.tgz:352.got - 2010.05.20 12:37:36.
