data_PCOD9567314
_publ_section_title
;
Structure prediction by ZEFSAII (Michael W. Deem and Ramdas Pophale) SiO2 
 PCOD9567314
Probable space group: P 42/M C M
;
_chemical_formula_sum "Si O2"
_cell_formula_units_Z 96
_cell_length_a 17.412192
_cell_length_b 17.412192
_cell_length_c 18.222880
_cell_angle_alpha 90.000000
_cell_angle_beta 90.000000
_cell_angle_gamma 90.000000
_cell_volume 5524.893490
_symmetry_space_group_name_H-M "P 42/M C M"
_symmetry_group_IT_number 132
_symmetry_cell_setting 'tetragonal'
loop_
_space_group_symop_operation_xyz
x,y,z
-y,x,1/2+z
-x,-y,z
y,-x,1/2+z
x,-y,1/2-z
-x,y,1/2-z
y,x,-z
-y,-x,-z
-x,-y,-z
y,-x,1/2-z
x,y,-z
-y,x,1/2-z
-x,y,1/2+z
x,-y,1/2+z
-y,-x,z
y,x,z
loop_
_atom_site_type_symbol
_atom_site_label
_atom_site_fract_x
_atom_site_fract_y
_atom_site_fract_z
Si Si1 0.284529 0.018702 0.587494
Si Si2 0.216352 0.489295 0.336917
Si Si3 0.932399 0.560869 0.088147
Si Si4 0.196498 0.325806 0.587307
Si Si5 0.373530 0.496380 0.586102
Si Si6 0.875906 0.001330 0.161803
O O1 0.276333 0.010479 0.500000
O O2 0.356436 0.966069 0.610293
O O3 0.206674 0.995651 0.626681
O O4 0.300397 0.108839 0.601433
O O5 0.212442 0.500000 0.250000
O O6 0.145739 0.535262 0.373289
O O7 0.210967 0.401070 0.364327
O O8 0.299013 0.515087 0.367261
O O9 0.000000 0.500000 0.104290
O O10 0.920750 0.560171 0.000000
O O11 0.202091 0.345396 0.500000
O O12 0.257863 0.257863 0.601359
O O13 0.352796 0.488585 0.500000
O O14 0.436453 0.563548 0.591838
O O15 0.417589 0.417589 0.607885
O O16 0.931639 0.931639 0.139896
O O17 0.870454 0.000000 0.250000
O O18 0.920330 0.079671 0.140586
#
# Coordination Sequence:
#
# PCOD9567314 Si02
#       6
#    16  16  16  16  16  16
#     4  10  20  35  58  86 109 138 186 239 282 321
#     4  12  24  35  53  85 117 151 185 230 281 343
#     4  10  20  39  60  76 107 150 188 228 276 330
#     4  10  20  36  59  84 110 141 185 240 288 329
#     4   9  19  38  63  86 110 147 194 240 286 338
#     4   9  19  36  56  79 112 152 184 215 272 345
#
# _framework density 17.375900000000001
#
# number of rings (size 3 to 8) (size 9 to 14) (size 15 to 20)
#    0.000    2.000    1.667    3.500    0.000    5.667 
#    0.000    2.500    0.000    1.000    0.000    0.000 
#    0.000    0.000    0.000    0.000    0.000    0.000 
#
# Total GULP energy -535862.630082 kJ/mol
# GULP energy per Si atom -5581.902397 kJ/mol
# Density = 1.733635 g / cm^3
# Si number density = 17.375900 Si / 1000 Ang^3
#
#
#
# Elastic Constant Matrix: (Units=GPa)
#
#
# Indices 1 2 3 4 5 6 
#
# 1 139.6465 62.6396 56.0469 0.0000 0.0000 0.0000
# 2 62.6396 139.6465 56.0469 0.0000 0.0000 0.0000
# 3 56.0469 56.0469 54.1484 0.0000 0.0000 0.0000
# 4 0.0000 0.0000 0.0000 35.3293 0.0000 0.0000
# 5 0.0000 0.0000 0.0000 0.0000 35.3293 0.0000
# 6 0.0000 0.0000 0.0000 0.0000 0.0000 22.9486
#
#
#
# Elastic Compliance Matrix: (Units=1/GPa)
#
#
# Indices 1 2 3 4 5 6 
#
# 1 0.012289 -0.000697 -0.011999 0.000000 0.000000 0.000000
# 2 -0.000697 0.012289 -0.011999 0.000000 0.000000 0.000000
# 3 -0.011999 -0.011999 0.043307 0.000000 0.000000 0.000000
# 4 0.000000 0.000000 0.000000 0.028305 0.000000 0.000000
# 5 0.000000 0.000000 0.000000 0.000000 0.028305 0.000000
# 6 0.000000 0.000000 0.000000 0.000000 0.000000 0.043576
#
#
# Mechanical properties :
#
#
# Convention : Reuss Voigt Hill
#
# Bulk Modulus (GPa) = 54.06492 75.87869 64.97181
# Shear Modulus (GPa) = 22.35870 29.30197 25.83034
#
# Velocity S-wave (km/s) = 3.59104 4.11098 3.85978
# Velocity P-wave (km/s) = 6.95533 8.14232 7.57212
#
# Compressibility (1/GPa) = 0.01849628
#
# Stress axis : x y z
#
# Youngs Moduli (GPa) = 81.37215 81.37215 23.09078
#
# Poissons Ratio (x) = 0.05669 0.27707
# Poissons Ratio (y) = 0.05669 0.27707
# Poissons Ratio (z) = 0.97639 0.97639
#
# Static dielectric constant tensor:
#      x y z
#    x 1.585790 0.000000 0.000000 
#    y 0.000000 1.585790 0.000000 
#    z 0.000000 0.000000 1.570370 
# 
# From -- ./inp_files/6478.got.cif
#   From: 2010.05.17/outbox.cif.g08.bks.cpg/sg132_4_cif.got.tgz:6478.got - 2010.05.20 12:30:18.
