data_PCOD9567696
_publ_section_title
;
Structure prediction by ZEFSAII (Michael W. Deem and Ramdas Pophale) SiO2 
 PCOD9567696
Probable space group: P 42/N B C
;
_chemical_formula_sum "Si O2"
_cell_formula_units_Z 112
_cell_length_a 14.383758
_cell_length_b 14.383758
_cell_length_c 29.539741
_cell_angle_alpha 90.000000
_cell_angle_beta 90.000000
_cell_angle_gamma 90.000000
_cell_volume 6111.550694
_symmetry_space_group_name_H-M "P 42/N B C"
_symmetry_group_IT_number 133
_space_group.IT_coordinate_system_code '2'
_symmetry_cell_setting 'tetragonal'
loop_
_space_group_symop_operation_xyz
x,y,z
1/2-y,x,1/2+z
1/2-x,1/2-y,z
y,1/2-x,1/2+z
x,1/2-y,-z
1/2-x,y,-z
y,x,1/2-z
1/2-y,1/2-x,1/2-z
-x,-y,-z
1/2+y,-x,1/2-z
1/2+x,1/2+y,-z
-y,1/2+x,1/2-z
-x,1/2+y,z
1/2+x,-y,z
-y,-x,1/2+z
1/2+y,1/2+x,1/2+z
loop_
_atom_site_type_symbol
_atom_site_label
_atom_site_fract_x
_atom_site_fract_y
_atom_site_fract_z
Si Si1 0.036529 0.116059 0.295259
Si Si2 0.678559 0.613184 0.890469
Si Si3 0.386816 0.321441 0.890469
Si Si4 0.250000 0.604795 0.250000
Si Si5 0.383941 0.463471 0.704741
Si Si6 0.852203 0.995300 0.477968
Si Si7 0.147797 0.495300 0.977968
O O1 0.097584 0.097584 0.250000
O O2 0.089655 0.150884 0.339138
O O3 0.960796 0.194722 0.283793
O O4 0.979715 0.020285 0.303749
O O5 0.629705 0.712129 0.898883
O O6 0.787871 0.629705 0.898883
O O7 0.650710 0.532392 0.925081
O O8 0.410345 0.349116 0.839138
O O9 0.467608 0.349290 0.925081
O O10 0.172642 0.672642 0.228405
O O11 0.194722 0.539204 0.283793
O O12 0.402416 0.402416 0.750000
O O13 0.750000 0.999772 0.500000
O O14 0.911540 0.911540 0.500000
O O15 0.910628 0.089372 0.485048
O O16 0.250000 0.499772 0.000000
#
# Coordination Sequence:
#
# PCOD9567696 Si02
#       7
#    16  16  16  16  16  16  16
#     4  10  20  35  55  82 118 156 199 251 303 364
#     4  11  22  36  59  88 118 157 205 253 306 373
#     4  11  22  36  59  88 118 157 205 253 306 373
#     4   9  18  34  54  75 106 154 200 239 294 354
#     4  10  20  35  55  82 118 156 199 251 303 364
#     4  11  23  42  67  93 123 160 204 257 313 371
#     4  11  23  42  67  93 123 160 204 257 313 371
#
# _framework density 18.325953999999999
#
# number of rings (size 3 to 8) (size 9 to 14) (size 15 to 20)
#    0.000    1.571    2.857    2.571    0.000    0.571 
#    0.000    4.286    0.000    3.429    0.000    0.000 
#    0.000    0.000    0.000    0.000    0.000    0.000 
#
# Total GULP energy -624661.390423 kJ/mol
# GULP energy per Si atom -5577.333843 kJ/mol
# Density = 1.828424 g / cm^3
# Si number density = 18.325954 Si / 1000 Ang^3
#
#
#
# Elastic Constant Matrix: (Units=GPa)
#
#
# Indices 1 2 3 4 5 6 
#
# 1 90.2261 59.0998 35.2081 0.0000 0.0000 0.0000
# 2 59.0998 90.2261 35.2081 0.0000 0.0000 0.0000
# 3 35.2081 35.2081 90.3570 0.0000 0.0000 0.0000
# 4 0.0000 0.0000 0.0000 24.6907 0.0000 0.0000
# 5 0.0000 0.0000 0.0000 0.0000 24.6907 0.0000
# 6 0.0000 0.0000 0.0000 0.0000 0.0000 3.4436
#
#
#
# Elastic Compliance Matrix: (Units=1/GPa)
#
#
# Indices 1 2 3 4 5 6 
#
# 1 0.020166 -0.011961 -0.003197 0.000000 0.000000 0.000000
# 2 -0.011961 0.020166 -0.003197 0.000000 0.000000 0.000000
# 3 -0.003197 -0.003197 0.013559 0.000000 0.000000 0.000000
# 4 0.000000 0.000000 0.000000 0.040501 0.000000 0.000000
# 5 0.000000 0.000000 0.000000 0.000000 0.040501 0.000000
# 6 0.000000 0.000000 0.000000 0.000000 0.000000 0.290393
#
#
# Mechanical properties :
#
#
# Convention : Reuss Voigt Hill
#
# Bulk Modulus (GPa) = 58.20817 58.87126 58.53971
# Shear Modulus (GPa) = 10.69012 19.98453 15.33732
#
# Velocity S-wave (km/s) = 2.41785 3.30586 2.89609
# Velocity P-wave (km/s) = 6.29494 6.83856 6.57237
#
# Compressibility (1/GPa) = 0.01717972
#
# Stress axis : x y z
#
# Youngs Moduli (GPa) = 49.58900 49.58900 73.75420
#
# Poissons Ratio (x) = 0.59316 0.23578
# Poissons Ratio (y) = 0.59316 0.23578
# Poissons Ratio (z) = 0.15853 0.15853
#
# Static dielectric constant tensor:
#      x y z
#    x 1.639000 0.000000 0.000000 
#    y 0.000000 1.639000 0.000000 
#    z 0.000000 0.000000 1.639020 
# 
# From -- ./inp_files/7672.got.cif
#   From: 2010.05.17/outbox.cif.g08.bks.cpg/sg133_4_cif.got.tgz:7672.got - 2010.05.20 12:37:36.
