data_PCOD9567664
_publ_section_title
;
Structure prediction by ZEFSAII (Michael W. Deem and Ramdas Pophale) SiO2 
 PCOD9567664
Probable space group: P 42/N B C
;
_chemical_formula_sum "Si O2"
_cell_formula_units_Z 48
_cell_length_a 15.823754
_cell_length_b 15.823754
_cell_length_c 8.383205
_cell_angle_alpha 90.000000
_cell_angle_beta 90.000000
_cell_angle_gamma 90.000000
_cell_volume 2099.080681
_symmetry_space_group_name_H-M "P 42/N B C"
_symmetry_group_IT_number 133
_space_group.IT_coordinate_system_code '2'
_symmetry_cell_setting 'tetragonal'
loop_
_space_group_symop_operation_xyz
x,y,z
1/2-y,x,1/2+z
1/2-x,1/2-y,z
y,1/2-x,1/2+z
x,1/2-y,-z
1/2-x,y,-z
y,x,1/2-z
1/2-y,1/2-x,1/2-z
-x,-y,-z
1/2+y,-x,1/2-z
1/2+x,1/2+y,-z
-y,1/2+x,1/2-z
-x,1/2+y,z
1/2+x,-y,z
-y,-x,1/2+z
1/2+y,1/2+x,1/2+z
loop_
_atom_site_type_symbol
_atom_site_label
_atom_site_fract_x
_atom_site_fract_y
_atom_site_fract_z
Si Si1 0.338757 0.374623 0.431425
Si Si2 0.934836 0.163503 0.962077
Si Si3 0.384579 0.001239 0.139668
O O1 0.250000 0.344639 0.500000
O O2 0.349224 0.349224 0.250000
O O3 0.336766 0.476841 0.440736
O O4 0.416420 0.351106 0.547989
O O5 0.960101 0.170571 0.777537
O O6 0.886050 0.250000 0.000000
O O7 0.898325 0.072701 0.011116
O O8 0.464008 0.035993 0.250000
#
# Coordination Sequence:
#
# PCOD9567664 Si02
#       3
#    16  16  16
#     4  10  20  37  60  90 125 165 212 259 316 384
#     4  10  20  36  62  93 120 163 214 261 323 382
#     4  10  19  37  62  88 123 165 209 266 319 373
#
# _framework density 22.867152999999998
#
# number of rings (size 3 to 8) (size 9 to 14) (size 15 to 20)
#    0.000    2.000    0.000    7.000    0.000    0.000 
#    0.000   43.333    0.000   26.000    0.000    0.000 
#    0.000    0.000    0.000    0.000    0.000    0.000 
#
# Total GULP energy -267864.061322 kJ/mol
# GULP energy per Si atom -5580.501278 kJ/mol
# Density = 2.281511 g / cm^3
# Si number density = 22.867153 Si / 1000 Ang^3
#
#
#
# Elastic Constant Matrix: (Units=GPa)
#
#
# Indices 1 2 3 4 5 6 
#
# 1 87.6168 50.2067 61.0788 0.0000 0.0000 0.0000
# 2 50.2067 87.6187 61.0783 0.0000 0.0000 0.0000
# 3 61.0788 61.0783 203.3530 0.0000 0.0000 0.0000
# 4 0.0000 0.0000 0.0000 18.7885 0.0000 0.0000
# 5 0.0000 0.0000 0.0000 0.0000 18.7874 0.0000
# 6 0.0000 0.0000 0.0000 0.0000 0.0000 -12.9771
#
#
#
# Elastic Compliance Matrix: (Units=1/GPa)
#
#
# Indices 1 2 3 4 5 6 
#
# 1 0.018309 -0.008421 -0.002970 0.000000 0.000000 0.000000
# 2 -0.008421 0.018309 -0.002970 0.000000 0.000000 0.000000
# 3 -0.002970 -0.002970 0.006702 0.000000 0.000000 0.000000
# 4 0.000000 0.000000 0.000000 0.053224 0.000000 0.000000
# 5 0.000000 0.000000 0.000000 0.000000 0.053227 0.000000
# 6 0.000000 0.000000 0.000000 0.000000 0.000000 -0.077059
#
#
# Mechanical properties :
#
#
# Convention : Reuss Voigt Hill
#
# Bulk Modulus (GPa) = 68.50339 80.36846 74.43592
# Shear Modulus (GPa) = 47.03677 18.66806 32.85242
#
# Velocity S-wave (km/s) = 4.54029 2.86032 3.79445
# Velocity P-wave (km/s) = 7.58339 6.79196 7.19856
#
# Compressibility (1/GPa) = 0.01459782
#
# Stress axis : x y z
#
# Youngs Moduli (GPa) = 54.61710 54.61886 149.21757
#
# Poissons Ratio (x) = 0.45995 0.44318
# Poissons Ratio (y) = 0.45993 0.44314
# Poissons Ratio (z) = 0.16221 0.16221
#
# Static dielectric constant tensor:
#      x y z
#    x 1.924460 0.000000 0.000000 
#    y 0.000000 1.924460 0.000000 
#    z 0.000000 0.000000 1.827430 
# 
# From -- ./inp_files/1100.got.cif
#   From: 2010.05.17/outbox.cif.g08.bks.cpg/sg133_1_cif.got.tgz:1100.got - 2010.05.20 12:37:36.
