data_PCOD9567450
_publ_section_title
;
Structure prediction by ZEFSAII (Michael W. Deem and Ramdas Pophale) SiO2 
 PCOD9567450
Probable space group: P 42/M C M
;
_chemical_formula_sum "Si O2"
_cell_formula_units_Z 56
_cell_length_a 12.087802
_cell_length_b 12.087802
_cell_length_c 19.679084
_cell_angle_alpha 90.000000
_cell_angle_beta 90.000000
_cell_angle_gamma 90.000000
_cell_volume 2875.408516
_symmetry_space_group_name_H-M "P 42/M C M"
_symmetry_group_IT_number 132
_symmetry_cell_setting 'tetragonal'
loop_
_space_group_symop_operation_xyz
x,y,z
-y,x,1/2+z
-x,-y,z
y,-x,1/2+z
x,-y,1/2-z
-x,y,1/2-z
y,x,-z
-y,-x,-z
-x,-y,-z
y,-x,1/2-z
x,y,-z
-y,x,1/2-z
-x,y,1/2+z
x,-y,1/2+z
-y,-x,z
y,x,z
loop_
_atom_site_type_symbol
_atom_site_label
_atom_site_fract_x
_atom_site_fract_y
_atom_site_fract_z
Si Si1 0.982046 0.367778 0.418464
Si Si2 0.413665 0.586336 0.364754
Si Si3 0.109222 0.290620 0.294636
Si Si4 0.751221 0.751221 0.077601
Si Si5 0.500000 0.747890 0.750000
O O1 0.993023 0.354993 0.500000
O O2 0.864590 0.309169 0.396666
O O3 0.000000 0.500000 0.404449
O O4 0.074239 0.309724 0.372587
O O5 0.500000 0.500000 0.394981
O O6 0.342205 0.657796 0.416131
O O7 0.329405 0.523628 0.314532
O O8 0.183805 0.183805 0.286886
O O9 0.177788 0.395103 0.267369
O O10 0.000000 0.282066 0.250000
O O11 0.777485 0.777485 0.000000
#
# Coordination Sequence:
#
# PCOD9567450 Si02
#       5
#    16   8  16   8   8
#     4  10  22  42  66  93 124 168 219 266 323 393
#     4  12  20  35  60  91 131 162 202 261 318 387
#     4  12  25  40  63  92 127 168 214 268 320 378
#     4  10  22  39  63  88 122 169 214 265 324 388
#     4  12  22  40  60  92 126 167 207 256 326 384
#
# _framework density 19.475494000000001
#
# number of rings (size 3 to 8) (size 9 to 14) (size 15 to 20)
#    0.000    0.857    2.857    5.571    2.000    1.143 
#    0.000    0.000    0.000   11.143    0.000    0.000 
#    0.000    0.000    0.000    0.000    0.000    0.000 
#
# Total GULP energy -312618.213515 kJ/mol
# GULP energy per Si atom -5582.468098 kJ/mol
# Density = 1.943117 g / cm^3
# Si number density = 19.475494 Si / 1000 Ang^3
#
#
#
# Elastic Constant Matrix: (Units=GPa)
#
#
# Indices 1 2 3 4 5 6 
#
# 1 175.6875 -7.5922 11.5648 0.0000 0.0000 0.0000
# 2 -7.5922 175.6875 11.5648 0.0000 0.0000 0.0000
# 3 11.5648 11.5648 31.9851 0.0000 0.0000 0.0000
# 4 0.0000 0.0000 0.0000 -7.8399 0.0000 0.0000
# 5 0.0000 0.0000 0.0000 0.0000 -7.8399 0.0000
# 6 0.0000 0.0000 0.0000 0.0000 0.0000 230.0265
#
#
#
# Elastic Compliance Matrix: (Units=1/GPa)
#
#
# Indices 1 2 3 4 5 6 
#
# 1 0.005858 0.000402 -0.002264 0.000000 0.000000 0.000000
# 2 0.000402 0.005858 -0.002264 0.000000 0.000000 0.000000
# 3 -0.002264 -0.002264 0.032901 0.000000 0.000000 0.000000
# 4 0.000000 0.000000 0.000000 -0.127552 0.000000 0.000000
# 5 0.000000 0.000000 0.000000 0.000000 -0.127552 0.000000
# 6 0.000000 0.000000 0.000000 0.000000 0.000000 0.004347
#
#
# Mechanical properties :
#
#
# Convention : Reuss Voigt Hill
#
# Bulk Modulus (GPa) = 27.49667 46.04834 36.77251
# Shear Modulus (GPa) = -26.91562 67.39084 20.23761
#
# Velocity S-wave (km/s) = -3.72159 5.88880 3.22705
# Velocity P-wave (km/s) = 2.07792 8.36259 5.72779
#
# Compressibility (1/GPa) = 0.03636803
#
# Stress axis : x y z
#
# Youngs Moduli (GPa) = 170.69778 170.69778 30.39376
#
# Poissons Ratio (x) = -0.06865 0.06880
# Poissons Ratio (y) = -0.06865 0.06880
# Poissons Ratio (z) = 0.38639 0.38639
#
# Static dielectric constant tensor:
#      x y z
#    x 1.667130 0.000000 0.000000 
#    y 0.000000 1.667130 0.000000 
#    z 0.000000 0.000000 1.671160 
# 
# From -- ./inp_files/7390.got.cif
#   From: 2010.05.17/outbox.cif.g08.bks.cpg/sg132_4_cif.got.tgz:7390.got - 2010.05.20 12:30:18.
