data_PCOD9567133
_publ_section_title
;
Structure prediction by ZEFSAII (Michael W. Deem and Ramdas Pophale) SiO2 
 PCOD9567133
Probable space group: P 42/M C M
;
_chemical_formula_sum "Si O2"
_cell_formula_units_Z 84
_cell_length_a 12.063952
_cell_length_b 12.063952
_cell_length_c 29.550463
_cell_angle_alpha 90.000000
_cell_angle_beta 90.000000
_cell_angle_gamma 90.000000
_cell_volume 4300.742998
_symmetry_space_group_name_H-M "P 42/M C M"
_symmetry_group_IT_number 132
_symmetry_cell_setting 'tetragonal'
loop_
_space_group_symop_operation_xyz
x,y,z
-y,x,1/2+z
-x,-y,z
y,-x,1/2+z
x,-y,1/2-z
-x,y,1/2-z
y,x,-z
-y,-x,-z
-x,-y,-z
y,-x,1/2-z
x,y,-z
-y,x,1/2-z
-x,y,1/2+z
x,-y,1/2+z
-y,-x,z
y,x,z
loop_
_atom_site_type_symbol
_atom_site_label
_atom_site_fract_x
_atom_site_fract_y
_atom_site_fract_z
Si Si1 0.368866 0.971777 0.126144
Si Si2 0.527170 0.871443 0.000000
Si Si3 0.297795 0.297795 0.000000
Si Si4 0.817165 0.999441 0.304067
Si Si5 0.244449 0.421775 0.587693
Si Si6 0.997506 0.815157 0.552995
Si Si7 0.590987 0.590987 0.913214
O O1 0.368180 0.839563 0.122142
O O2 0.500000 0.000000 0.125051
O O3 0.297548 0.007671 0.169207
O O4 0.295060 0.010266 0.082925
O O5 0.470600 0.820235 0.044723
O O6 0.500000 0.000000 0.000000
O O7 0.655089 0.826977 0.000000
O O8 0.353677 0.353677 0.956539
O O9 0.897637 0.102364 0.316038
O O10 0.801658 0.000000 0.250000
O O11 0.889128 0.889128 0.315544
O O12 0.330454 0.330454 0.570871
O O13 0.313399 0.521545 0.610521
O O14 0.976761 0.791874 0.500000
O O15 0.105571 0.894429 0.556627
O O16 0.892876 0.892876 0.568212
O O17 0.500000 0.500000 0.927998
#
# Coordination Sequence:
#
# PCOD9567133 Si02
#       7
#    16   8   4  16  16  16   8
#     4  12  24  35  53  89 127 162 190 236 306 366
#     4  10  19  33  54  77 106 139 201 252 308 347
#     4   8  15  28  50  72  91 138 182 248 302 336
#     4   9  19  40  71  99 120 149 194 246 299 363
#     4  10  20  35  54  73 102 149 199 245 283 337
#     4   9  19  38  63  85 111 159 218 266 307 360
#     4   8  15  30  50  70  90 129 193 248 277 313
#
# _framework density 19.531510000000001
#
# number of rings (size 3 to 8) (size 9 to 14) (size 15 to 20)
#    0.000    2.286    0.000    4.429    1.333    4.571 
#    3.429    0.000    4.190    0.000    0.000    0.667 
#    0.000    0.000    0.000    0.000    0.000    0.000 
#
# Total GULP energy -468782.443449 kJ/mol
# GULP energy per Si atom -5580.743374 kJ/mol
# Density = 1.948706 g / cm^3
# Si number density = 19.531510 Si / 1000 Ang^3
#
#
#
# Elastic Constant Matrix: (Units=GPa)
#
#
# Indices 1 2 3 4 5 6 
#
# 1 123.8303 36.4553 42.5959 0.0000 0.0000 0.0000
# 2 36.4553 123.8303 42.5959 0.0000 0.0000 0.0000
# 3 42.5959 42.5959 67.8560 0.0000 0.0000 0.0000
# 4 0.0000 0.0000 0.0000 21.4032 0.0000 0.0000
# 5 0.0000 0.0000 0.0000 0.0000 21.4032 0.0000
# 6 0.0000 0.0000 0.0000 0.0000 0.0000 24.8504
#
#
#
# Elastic Compliance Matrix: (Units=1/GPa)
#
#
# Indices 1 2 3 4 5 6 
#
# 1 0.010404 -0.001041 -0.005877 0.000000 0.000000 0.000000
# 2 -0.001041 0.010404 -0.005877 0.000000 0.000000 0.000000
# 3 -0.005877 -0.005877 0.022116 0.000000 0.000000 0.000000
# 4 0.000000 0.000000 0.000000 0.046722 0.000000 0.000000
# 5 0.000000 0.000000 0.000000 0.000000 0.046722 0.000000
# 6 0.000000 0.000000 0.000000 0.000000 0.000000 0.040241
#
#
# Mechanical properties :
#
#
# Convention : Reuss Voigt Hill
#
# Bulk Modulus (GPa) = 57.69674 62.09008 59.89341
# Shear Modulus (GPa) = 24.04110 26.45599 25.24854
#
# Velocity S-wave (km/s) = 3.51221 3.68438 3.59933
# Velocity P-wave (km/s) = 6.78616 7.06812 6.92857
#
# Compressibility (1/GPa) = 0.01733200
#
# Stress axis : x y z
#
# Youngs Moduli (GPa) = 96.11886 96.11886 45.21634
#
# Poissons Ratio (x) = 0.10007 0.26575
# Poissons Ratio (y) = 0.10007 0.26575
# Poissons Ratio (z) = 0.56492 0.56492
#
# Static dielectric constant tensor:
#      x y z
#    x 1.749140 0.000000 0.000000 
#    y 0.000000 1.749140 0.000000 
#    z 0.000000 0.000000 1.671590 
# 
# From -- ./inp_files/10821.got.cif
#   From: 2010.05.17/outbox.cif.g08.bks.cpg/sg132_6_cif.got.tgz:10821.got - 2010.05.20 12:30:18.
