data_PCOD9567754
_publ_section_title
;
Structure prediction by ZEFSAII (Michael W. Deem and Ramdas Pophale) SiO2 
 PCOD9567754
Probable space group: P 42/N B C
;
_chemical_formula_sum "Si O2"
_cell_formula_units_Z 60
_cell_length_a 18.292016
_cell_length_b 18.292016
_cell_length_c 8.250242
_cell_angle_alpha 90.000000
_cell_angle_beta 90.000000
_cell_angle_gamma 90.000000
_cell_volume 2760.513230
_symmetry_space_group_name_H-M "P 42/N B C"
_symmetry_group_IT_number 133
_space_group.IT_coordinate_system_code '2'
_symmetry_cell_setting 'tetragonal'
loop_
_space_group_symop_operation_xyz
x,y,z
1/2-y,x,1/2+z
1/2-x,1/2-y,z
y,1/2-x,1/2+z
x,1/2-y,-z
1/2-x,y,-z
y,x,1/2-z
1/2-y,1/2-x,1/2-z
-x,-y,-z
1/2+y,-x,1/2-z
1/2+x,1/2+y,-z
-y,1/2+x,1/2-z
-x,1/2+y,z
1/2+x,-y,z
-y,-x,1/2+z
1/2+y,1/2+x,1/2+z
loop_
_atom_site_type_symbol
_atom_site_label
_atom_site_fract_x
_atom_site_fract_y
_atom_site_fract_z
Si Si1 0.230245 0.918020 0.818563
Si Si2 0.077564 0.523484 0.139698
Si Si3 0.250000 0.750000 0.750000
Si Si4 0.987217 0.750000 0.000000
Si Si5 0.602539 0.572198 0.573854
O O1 0.143113 0.928951 0.793437
O O2 0.251342 0.832500 0.821125
O O3 0.260335 0.962554 0.661686
O O4 0.250000 0.945076 0.000000
O O5 0.035044 0.464957 0.250000
O O6 0.012471 0.576017 0.085803
O O7 0.108970 0.468514 0.005450
O O8 0.935317 0.679018 0.983308
O O9 0.607849 0.607849 0.750000
#
# Coordination Sequence:
#
# PCOD9567754 Si02
#       5
#    16  16   4   8  16
#     4  12  27  43  64  97 141 190 228 280 359 442
#     4  10  20  41  63  87 128 182 237 284 334 407
#     4  12  30  44  62  98 152 190 230 284 354 454
#     4  12  24  41  70 102 137 180 236 290 366 430
#     4  10  21  37  65  96 128 173 235 300 339 416
#
# _framework density 21.735088999999999
#
# number of rings (size 3 to 8) (size 9 to 14) (size 15 to 20)
#    0.000    1.067    2.667    3.600    7.467    0.000 
#    0.000    0.000    0.000    0.000    0.000   19.600 
#    0.000    0.000    0.000    0.000    0.000    0.000 
#
# Total GULP energy -334166.783196 kJ/mol
# GULP energy per Si atom -5569.446387 kJ/mol
# Density = 2.168562 g / cm^3
# Si number density = 21.735089 Si / 1000 Ang^3
#
#
#
# Elastic Constant Matrix: (Units=GPa)
#
#
# Indices 1 2 3 4 5 6 
#
# 1 86.3874 19.6648 9.4694 0.0000 0.0000 0.0000
# 2 19.6648 86.3882 9.4693 0.0000 0.0000 0.0000
# 3 9.4694 9.4693 99.2359 0.0000 0.0000 0.0000
# 4 0.0000 0.0000 0.0000 13.2027 0.0000 0.0000
# 5 0.0000 0.0000 0.0000 0.0000 13.2025 0.0000
# 6 0.0000 0.0000 0.0000 0.0000 0.0000 32.2506
#
#
#
# Elastic Compliance Matrix: (Units=1/GPa)
#
#
# Indices 1 2 3 4 5 6 
#
# 1 0.012290 -0.002697 -0.000915 0.000000 0.000000 0.000000
# 2 -0.002697 0.012290 -0.000915 0.000000 0.000000 0.000000
# 3 -0.000915 -0.000915 0.010252 0.000000 0.000000 0.000000
# 4 0.000000 0.000000 0.000000 0.075742 0.000000 0.000000
# 5 0.000000 0.000000 0.000000 0.000000 0.075743 0.000000
# 6 0.000000 0.000000 0.000000 0.000000 0.000000 0.031007
#
#
# Mechanical properties :
#
#
# Convention : Reuss Voigt Hill
#
# Bulk Modulus (GPa) = 38.79620 38.80207 38.79913
# Shear Modulus (GPa) = 21.27914 27.29171 24.28542
#
# Velocity S-wave (km/s) = 3.13233 3.54736 3.34629
# Velocity P-wave (km/s) = 5.56510 5.88807 5.72886
#
# Compressibility (1/GPa) = 0.02577572
#
# Stress axis : x y z
#
# Youngs Moduli (GPa) = 81.36628 81.36703 97.54487
#
# Poissons Ratio (x) = 0.21947 0.08929
# Poissons Ratio (y) = 0.21947 0.08929
# Poissons Ratio (z) = 0.07448 0.07448
#
# Static dielectric constant tensor:
#      x y z
#    x 1.834740 0.000000 0.000000 
#    y 0.000000 1.834750 0.000000 
#    z 0.000000 0.000000 2.120810 
# 
# From -- ./inp_files/1331.got.cif
#   From: 2010.05.17/outbox.cif.g08.bks.cpg/sg133_1_cif.got.tgz:1331.got - 2010.05.20 12:37:36.
