data_PCOD9567653
_publ_section_title
;
Structure prediction by ZEFSAII (Michael W. Deem and Ramdas Pophale) SiO2 
 PCOD9567653
Probable space group: P 42/N B C
;
_chemical_formula_sum "Si O2"
_cell_formula_units_Z 104
_cell_length_a 17.452688
_cell_length_b 17.452688
_cell_length_c 18.177900
_cell_angle_alpha 90.000000
_cell_angle_beta 90.000000
_cell_angle_gamma 90.000000
_cell_volume 5536.921417
_symmetry_space_group_name_H-M "P 42/N B C"
_symmetry_group_IT_number 133
_space_group.IT_coordinate_system_code '2'
_symmetry_cell_setting 'tetragonal'
loop_
_space_group_symop_operation_xyz
x,y,z
1/2-y,x,1/2+z
1/2-x,1/2-y,z
y,1/2-x,1/2+z
x,1/2-y,-z
1/2-x,y,-z
y,x,1/2-z
1/2-y,1/2-x,1/2-z
-x,-y,-z
1/2+y,-x,1/2-z
1/2+x,1/2+y,-z
-y,1/2+x,1/2-z
-x,1/2+y,z
1/2+x,-y,z
-y,-x,1/2+z
1/2+y,1/2+x,1/2+z
loop_
_atom_site_type_symbol
_atom_site_label
_atom_site_fract_x
_atom_site_fract_y
_atom_site_fract_z
Si Si1 0.935190 0.530114 0.372236
Si Si2 0.628199 0.449734 0.777141
Si Si3 0.750000 0.929840 0.000000
Si Si4 0.357858 0.187452 0.933559
Si Si5 0.382437 0.027232 0.097754
Si Si6 0.803023 0.463327 0.755839
Si Si7 0.380665 0.187609 0.176129
O O1 0.897512 0.490219 0.299825
O O2 0.868704 0.569182 0.421070
O O3 0.994183 0.594047 0.340065
O O4 0.984708 0.463375 0.411815
O O5 0.718701 0.437411 0.777193
O O6 0.591432 0.365578 0.780736
O O7 0.712603 0.870746 0.057615
O O8 0.820375 0.977158 0.033001
O O9 0.345904 0.238897 0.862170
O O10 0.363997 0.250000 0.000000
O O11 0.389160 0.116846 0.119315
O O12 0.344084 0.991584 0.170097
O O13 0.792042 0.534401 0.701851
O O14 0.337992 0.162009 0.250000
#
# Coordination Sequence:
#
# PCOD9567653 Si02
#       7
#    16  16   8  16  16  16  16
#     4  10  21  38  61  85 116 159 207 240 293 365
#     4  10  19  35  61  90 119 147 196 253 297 352
#     4  12  25  40  56  82 133 154 196 244 309 364
#     4  12  24  40  57  89 125 159 195 253 303 369
#     4  10  21  39  60  85 118 160 196 245 298 368
#     4  10  19  36  60  90 119 147 195 253 299 358
#     4  10  20  39  62  85 122 158 193 243 307 357
#
# _framework density 18.783000000000001
#
# number of rings (size 3 to 8) (size 9 to 14) (size 15 to 20)
#    0.000    1.538    4.615    1.154    0.000    0.923 
#    0.000    3.846    0.000    0.000    0.000    0.000 
#    0.000    0.000    0.000    0.000    0.000    0.000 
#
# Total GULP energy -580299.382935 kJ/mol
# GULP energy per Si atom -5579.801759 kJ/mol
# Density = 1.874025 g / cm^3
# Si number density = 18.783000 Si / 1000 Ang^3
#
#
#
# Elastic Constant Matrix: (Units=GPa)
#
#
# Indices 1 2 3 4 5 6 
#
# 1 88.8792 33.4977 15.0469 0.0000 0.0000 0.0000
# 2 33.4977 88.8789 15.0477 0.0000 0.0000 0.0000
# 3 15.0469 15.0477 24.8668 0.0000 0.0000 0.0000
# 4 0.0000 0.0000 0.0000 14.8113 0.0000 0.0000
# 5 0.0000 0.0000 0.0000 0.0000 14.8120 0.0000
# 6 0.0000 0.0000 0.0000 0.0000 0.0000 15.7094
#
#
#
# Elastic Compliance Matrix: (Units=1/GPa)
#
#
# Indices 1 2 3 4 5 6 
#
# 1 0.013828 -0.004228 -0.005809 0.000000 0.000000 0.000000
# 2 -0.004228 0.013828 -0.005810 0.000000 0.000000 0.000000
# 3 -0.005809 -0.005810 0.047245 0.000000 0.000000 0.000000
# 4 0.000000 0.000000 0.000000 0.067516 0.000000 0.000000
# 5 0.000000 0.000000 0.000000 0.000000 0.067513 0.000000
# 6 0.000000 0.000000 0.000000 0.000000 0.000000 0.063656
#
#
# Mechanical properties :
#
#
# Convention : Reuss Voigt Hill
#
# Bulk Modulus (GPa) = 23.14376 36.64551 29.89464
# Shear Modulus (GPa) = 15.64053 18.33538 16.98796
#
# Velocity S-wave (km/s) = 2.88878 3.12776 3.01064
# Velocity P-wave (km/s) = 4.84511 5.70930 5.29487
#
# Compressibility (1/GPa) = 0.04320820
#
# Stress axis : x y z
#
# Youngs Moduli (GPa) = 72.31575 72.31458 21.16638
#
# Poissons Ratio (x) = 0.30577 0.12295
# Poissons Ratio (y) = 0.30577 0.12297
# Poissons Ratio (z) = 0.42007 0.42011
#
# Static dielectric constant tensor:
#      x y z
#    x 1.662770 0.000000 0.000000 
#    y 0.000000 1.662770 0.000000 
#    z 0.000000 0.000000 1.688250 
# 
# From -- ./inp_files/5606.got.cif
#   From: 2010.05.17/outbox.cif.g08.bks.cpg/sg133_3_cif.got.tgz:5606.got - 2010.05.20 12:37:36.
