data_PCOD9567791
_publ_section_title
;
Structure prediction by ZEFSAII (Michael W. Deem and Ramdas Pophale) SiO2 
 PCOD9567791
Probable space group: P 42/N B C
;
_chemical_formula_sum "Si O2"
_cell_formula_units_Z 48
_cell_length_a 16.713125
_cell_length_b 16.713125
_cell_length_c 8.060924
_cell_angle_alpha 90.000000
_cell_angle_beta 90.000000
_cell_angle_gamma 90.000000
_cell_volume 2251.646191
_symmetry_space_group_name_H-M "P 42/N B C"
_symmetry_group_IT_number 133
_space_group.IT_coordinate_system_code '2'
_symmetry_cell_setting 'tetragonal'
loop_
_space_group_symop_operation_xyz
x,y,z
1/2-y,x,1/2+z
1/2-x,1/2-y,z
y,1/2-x,1/2+z
x,1/2-y,-z
1/2-x,y,-z
y,x,1/2-z
1/2-y,1/2-x,1/2-z
-x,-y,-z
1/2+y,-x,1/2-z
1/2+x,1/2+y,-z
-y,1/2+x,1/2-z
-x,1/2+y,z
1/2+x,-y,z
-y,-x,1/2+z
1/2+y,1/2+x,1/2+z
loop_
_atom_site_type_symbol
_atom_site_label
_atom_site_fract_x
_atom_site_fract_y
_atom_site_fract_z
Si Si1 0.622969 0.841748 0.442119
Si Si2 0.412099 0.520542 0.878153
Si Si3 0.508240 0.166674 0.065066
O O1 0.635516 0.750000 0.500000
O O2 0.646514 0.853487 0.250000
O O3 0.531863 0.870416 0.478192
O O4 0.666415 0.910611 0.552967
O O5 0.469041 0.469041 0.750000
O O6 0.343161 0.540669 0.749597
O O7 0.460318 0.593693 0.952818
O O8 0.537345 0.250000 0.000000
#
# Coordination Sequence:
#
# PCOD9567791 Si02
#       3
#    16  16  16
#     4  11  22  39  63  92 125 161 201 248 303 367
#     4  10  21  38  61  87 119 164 209 245 293 371
#     4  11  22  39  63  90 119 158 204 255 309 364
#
# _framework density 21.317736
#
# number of rings (size 3 to 8) (size 9 to 14) (size 15 to 20)
#    0.000    1.333    0.000    9.000    0.000    0.667 
#    0.000    3.333    0.000    8.000    0.000    0.000 
#    0.000    0.000    0.000    0.000    0.000    0.000 
#
# Total GULP energy -267765.197587 kJ/mol
# GULP energy per Si atom -5578.441616 kJ/mol
# Density = 2.126922 g / cm^3
# Si number density = 21.317736 Si / 1000 Ang^3
#
#
#
# Elastic Constant Matrix: (Units=GPa)
#
#
# Indices 1 2 3 4 5 6 
#
# 1 101.3972 53.4420 64.1370 0.0000 0.0000 0.0000
# 2 53.4420 101.3969 64.1373 0.0000 0.0000 0.0000
# 3 64.1370 64.1373 148.9330 0.0000 0.0000 0.0000
# 4 0.0000 0.0000 0.0000 31.7608 0.0000 0.0000
# 5 0.0000 0.0000 0.0000 0.0000 31.7614 0.0000
# 6 0.0000 0.0000 0.0000 0.0000 0.0000 9.7148
#
#
#
# Elastic Compliance Matrix: (Units=1/GPa)
#
#
# Indices 1 2 3 4 5 6 
#
# 1 0.015447 -0.005406 -0.004324 0.000000 0.000000 0.000000
# 2 -0.005406 0.015447 -0.004324 0.000000 0.000000 0.000000
# 3 -0.004324 -0.004324 0.010438 0.000000 0.000000 0.000000
# 4 0.000000 0.000000 0.000000 0.031485 0.000000 0.000000
# 5 0.000000 0.000000 0.000000 0.000000 0.031485 0.000000
# 6 0.000000 0.000000 0.000000 0.000000 0.000000 0.102936
#
#
# Mechanical properties :
#
#
# Convention : Reuss Voigt Hill
#
# Bulk Modulus (GPa) = 75.62073 79.46219 77.54146
# Shear Modulus (GPa) = 20.85476 25.98145 23.41810
#
# Velocity S-wave (km/s) = 3.13114 3.49488 3.31800
# Velocity P-wave (km/s) = 6.97297 7.32405 7.15066
#
# Compressibility (1/GPa) = 0.01322389
#
# Stress axis : x y z
#
# Youngs Moduli (GPa) = 64.73942 64.73903 95.79939
#
# Poissons Ratio (x) = 0.35000 0.41421
# Poissons Ratio (y) = 0.35000 0.41422
# Poissons Ratio (z) = 0.27992 0.27992
#
# Static dielectric constant tensor:
#      x y z
#    x 1.818810 0.000000 0.000000 
#    y 0.000000 1.818810 0.000000 
#    z 0.000000 0.000000 1.867330 
# 
# From -- ./inp_files/1072.got.cif
#   From: 2010.05.17/outbox.cif.g08.bks.cpg/sg133_1_cif.got.tgz:1072.got - 2010.05.20 12:37:36.
