data_PCOD9567996
_publ_section_title
;
Structure prediction by ZEFSAII (Michael W. Deem and Ramdas Pophale) SiO2 
 PCOD9567996
Probable space group: P 42/N B C
;
_chemical_formula_sum "Si O2"
_cell_formula_units_Z 48
_cell_length_a 8.907093
_cell_length_b 8.907093
_cell_length_c 24.235116
_cell_angle_alpha 90.000000
_cell_angle_beta 90.000000
_cell_angle_gamma 90.000000
_cell_volume 1922.724572
_symmetry_space_group_name_H-M "P 42/N B C"
_symmetry_group_IT_number 133
_space_group.IT_coordinate_system_code '2'
_symmetry_cell_setting 'tetragonal'
loop_
_space_group_symop_operation_xyz
x,y,z
1/2-y,x,1/2+z
1/2-x,1/2-y,z
y,1/2-x,1/2+z
x,1/2-y,-z
1/2-x,y,-z
y,x,1/2-z
1/2-y,1/2-x,1/2-z
-x,-y,-z
1/2+y,-x,1/2-z
1/2+x,1/2+y,-z
-y,1/2+x,1/2-z
-x,1/2+y,z
1/2+x,-y,z
-y,-x,1/2+z
1/2+y,1/2+x,1/2+z
loop_
_atom_site_type_symbol
_atom_site_label
_atom_site_fract_x
_atom_site_fract_y
_atom_site_fract_z
Si Si1 0.523378 0.706607 0.895344
Si Si2 0.024979 0.201787 0.562928
Si Si3 0.707532 0.476848 0.729711
O O1 0.374589 0.624416 0.915224
O O2 0.576465 0.844069 0.932826
O O3 0.659956 0.586544 0.900625
O O4 0.501466 0.758765 0.832781
O O5 0.010144 0.250000 0.500000
O O6 0.625923 0.625923 0.750000
O O7 0.843644 0.416538 0.766845
#
# Coordination Sequence:
#
# PCOD9567996 Si02
#       3
#    16  16  16
#     4  11  23  44  68  98 138 179 227 284 340 407
#     4  11  25  45  70 104 139 182 229 282 347 412
#     4  11  24  42  65  98 132 176 229 279 336 401
#
# _framework density 24.964575
#
# number of rings (size 3 to 8) (size 9 to 14) (size 15 to 20)
#    0.000    1.000    0.000    7.000    0.000    7.333 
#    0.000    3.333    0.000    0.000    0.000    0.000 
#    0.000    0.000    0.000    0.000    0.000    0.000 
#
# Total GULP energy -269420.041728 kJ/mol
# GULP energy per Si atom -5612.917536 kJ/mol
# Density = 2.490775 g / cm^3
# Si number density = 24.964575 Si / 1000 Ang^3
#
#
#
# Elastic Constant Matrix: (Units=GPa)
#
#
# Indices 1 2 3 4 5 6 
#
# 1 62.6816 65.7512 8.4931 0.0000 0.0000 0.0000
# 2 65.7512 62.6816 8.4931 0.0000 0.0000 0.0000
# 3 8.4931 8.4931 108.8932 0.0000 0.0000 0.0000
# 4 0.0000 0.0000 0.0000 -35.7002 0.0000 0.0000
# 5 0.0000 0.0000 0.0000 0.0000 -35.7002 0.0000
# 6 0.0000 0.0000 0.0000 0.0000 0.0000 70.0440
#
#
#
# Elastic Compliance Matrix: (Units=1/GPa)
#
#
# Indices 1 2 3 4 5 6 
#
# 1 -0.158953 0.166820 -0.000614 0.000000 0.000000 0.000000
# 2 0.166820 -0.158953 -0.000614 0.000000 0.000000 0.000000
# 3 -0.000614 -0.000614 0.009279 0.000000 0.000000 0.000000
# 4 0.000000 0.000000 0.000000 -0.028011 0.000000 0.000000
# 5 0.000000 0.000000 0.000000 0.000000 -0.028011 0.000000
# 6 0.000000 0.000000 0.000000 0.000000 0.000000 0.014277
#
#
# Mechanical properties :
#
#
# Convention : Reuss Voigt Hill
#
# Bulk Modulus (GPa) = 44.32773 44.41457 44.37115
# Shear Modulus (GPa) = -7.41798 9.82997 1.20599
#
# Velocity S-wave (km/s) = -1.72565 1.98648 0.69579
# Velocity P-wave (km/s) = 3.71811 4.80532 4.29625
#
# Compressibility (1/GPa) = 0.02255924
#
# Stress axis : x y z
#
# Youngs Moduli (GPa) = -6.29118 -6.29118 107.76997
#
# Poissons Ratio (x) = 1.04949 0.06613
# Poissons Ratio (y) = 1.04949 0.06613
# Poissons Ratio (z) = -0.00386 -0.00386
#
# Static dielectric constant tensor:
#      x y z
#    x 1.995260 0.000000 0.000000 
#    y 0.000000 1.995260 0.000000 
#    z 0.000000 0.000000 1.846140 
# 
# From -- ./inp_files/7755.got.cif
#   From: 2010.05.17/outbox.cif.g08.bks.cpg/sg133_4_cif.got.tgz:7755.got - 2010.05.20 12:37:36.
