data_PCOD9567253
_publ_section_title
;
Structure prediction by ZEFSAII (Michael W. Deem and Ramdas Pophale) SiO2 
 PCOD9567253
Probable space group: P 42/M C M
;
_chemical_formula_sum "Si O2"
_cell_formula_units_Z 112
_cell_length_a 17.528447
_cell_length_b 17.528447
_cell_length_c 18.603082
_cell_angle_alpha 90.000000
_cell_angle_beta 90.000000
_cell_angle_gamma 90.000000
_cell_volume 5715.730982
_symmetry_space_group_name_H-M "P 42/M C M"
_symmetry_group_IT_number 132
_symmetry_cell_setting 'tetragonal'
loop_
_space_group_symop_operation_xyz
x,y,z
-y,x,1/2+z
-x,-y,z
y,-x,1/2+z
x,-y,1/2-z
-x,y,1/2-z
y,x,-z
-y,-x,-z
-x,-y,-z
y,-x,1/2-z
x,y,-z
-y,x,1/2-z
-x,y,1/2+z
x,-y,1/2+z
-y,-x,z
y,x,z
loop_
_atom_site_type_symbol
_atom_site_label
_atom_site_fract_x
_atom_site_fract_y
_atom_site_fract_z
Si Si1 0.077112 0.207317 0.291513
Si Si2 0.494401 0.623257 0.664677
Si Si3 0.443011 0.894971 0.919517
Si Si4 0.739735 0.610220 0.371734
Si Si5 0.013966 0.304938 0.583966
Si Si6 0.195942 0.676466 0.727848
Si Si7 0.142820 0.613853 0.416078
O O1 0.139398 0.139398 0.295920
O O2 0.048047 0.237376 0.368723
O O3 0.118376 0.279448 0.251632
O O4 0.000000 0.184689 0.250000
O O5 0.500000 0.638417 0.750000
O O6 0.411742 0.588259 0.647676
O O7 0.555521 0.555521 0.652119
O O8 0.530852 0.693849 0.624078
O O9 0.400144 0.813664 0.919992
O O10 0.383183 0.950911 0.883314
O O11 0.529253 0.886292 0.894408
O O12 0.451434 0.925233 0.000000
O O13 0.680920 0.680920 0.385396
O O14 0.774906 0.622029 0.291994
O O15 0.036046 0.295766 0.500000
O O16 0.924171 0.322597 0.584821
O O17 0.257357 0.742644 0.724764
O O18 0.195228 0.637433 0.650311
O O19 0.169961 0.609079 0.500000
#
# Coordination Sequence:
#
# PCOD9567253 Si02
#       7
#    16  16  16  16  16  16  16
#     4  11  22  40  63  91 125 156 191 238 294 352
#     4   8  15  28  45  66  94 132 178 226 276 324
#     4  10  21  35  54  81 113 149 190 239 296 353
#     4  10  20  33  51  79 113 147 188 242 293 343
#     4  10  20  38  61  85 116 153 193 237 289 354
#     4  10  21  36  56  83 114 149 192 241 292 350
#     4  10  21  37  57  80 111 152 193 235 290 351
#
# _framework density 19.595044999999999
#
# number of rings (size 3 to 8) (size 9 to 14) (size 15 to 20)
#    0.000    2.143    2.857    0.857    2.000    2.714 
#    0.000    1.429    0.000    1.714    0.000    3.000 
#    0.000    0.000    0.000    5.571    0.000    0.000 
#
# Total GULP energy -623599.158938 kJ/mol
# GULP energy per Si atom -5567.849633 kJ/mol
# Density = 1.955045 g / cm^3
# Si number density = 19.595045 Si / 1000 Ang^3
#
#
#
# Elastic Constant Matrix: (Units=GPa)
#
#
# Indices 1 2 3 4 5 6 
#
# 1 61.6834 7.8192 22.6097 0.0000 0.0000 0.0000
# 2 7.8192 61.6834 22.6097 0.0000 0.0000 0.0000
# 3 22.6097 22.6097 82.9602 0.0000 0.0000 0.0000
# 4 0.0000 0.0000 0.0000 20.0214 0.0000 0.0000
# 5 0.0000 0.0000 0.0000 0.0000 20.0214 0.0000
# 6 0.0000 0.0000 0.0000 0.0000 0.0000 12.7072
#
#
#
# Elastic Compliance Matrix: (Units=1/GPa)
#
#
# Indices 1 2 3 4 5 6 
#
# 1 0.018027 -0.000538 -0.004766 0.000000 0.000000 0.000000
# 2 -0.000538 0.018027 -0.004766 0.000000 0.000000 0.000000
# 3 -0.004766 -0.004766 0.014652 0.000000 0.000000 0.000000
# 4 0.000000 0.000000 0.000000 0.049947 0.000000 0.000000
# 5 0.000000 0.000000 0.000000 0.000000 0.049947 0.000000
# 6 0.000000 0.000000 0.000000 0.000000 0.000000 0.078696
#
#
# Mechanical properties :
#
#
# Convention : Reuss Voigt Hill
#
# Bulk Modulus (GPa) = 32.71775 34.71161 33.71468
# Shear Modulus (GPa) = 19.25852 20.76920 20.01386
#
# Velocity S-wave (km/s) = 3.13841 3.25917 3.19936
# Velocity P-wave (km/s) = 5.46498 5.64942 5.55796
#
# Compressibility (1/GPa) = 0.03056445
#
# Stress axis : x y z
#
# Youngs Moduli (GPa) = 55.47195 55.47195 68.24997
#
# Poissons Ratio (x) = 0.02985 0.32531
# Poissons Ratio (y) = 0.02985 0.32531
# Poissons Ratio (z) = 0.26440 0.26440
#
# Static dielectric constant tensor:
#      x y z
#    x 1.729220 0.000000 0.000000 
#    y 0.000000 1.729220 0.000000 
#    z 0.000000 0.000000 1.681400 
# 
# From -- ./inp_files/8148.got.cif
#   From: 2010.05.17/outbox.cif.g08.bks.cpg/sg132_5_cif.got.tgz:8148.got - 2010.05.20 12:30:18.
