data_PCOD9567540
_publ_section_title
;
Structure prediction by ZEFSAII (Michael W. Deem and Ramdas Pophale) SiO2 
 PCOD9567540
Probable space group: P 42/M C M
;
_chemical_formula_sum "Si O2"
_cell_formula_units_Z 38
_cell_length_a 13.647692
_cell_length_b 13.647692
_cell_length_c 9.236684
_cell_angle_alpha 90.000000
_cell_angle_beta 90.000000
_cell_angle_gamma 90.000000
_cell_volume 1720.420115
_symmetry_space_group_name_H-M "P 42/M C M"
_symmetry_group_IT_number 132
_symmetry_cell_setting 'tetragonal'
loop_
_space_group_symop_operation_xyz
x,y,z
-y,x,1/2+z
-x,-y,z
y,-x,1/2+z
x,-y,1/2-z
-x,y,1/2-z
y,x,-z
-y,-x,-z
-x,-y,-z
y,-x,1/2-z
x,y,-z
-y,x,1/2-z
-x,y,1/2+z
x,-y,1/2+z
-y,-x,z
y,x,z
loop_
_atom_site_type_symbol
_atom_site_label
_atom_site_fract_x
_atom_site_fract_y
_atom_site_fract_z
Si Si1 0.345123 0.345123 0.835696
Si Si2 0.108676 0.108676 0.000000
Si Si3 0.500000 0.500000 0.750000
Si Si4 0.149461 0.404742 0.669019
Si Si5 0.000000 0.764198 0.250000
O O1 0.428204 0.428204 0.836995
O O2 0.251364 0.383322 0.749482
O O3 0.317720 0.317720 0.000000
O O4 0.048189 0.169487 0.873428
O O5 0.107762 0.500000 0.750000
O O6 0.164564 0.426245 0.500000
O O7 0.082139 0.309568 0.687181
#
# Coordination Sequence:
#
# PCOD9567540 Si02
#       5
#     8   4   2  16   8
#     4  12  27  46  78 117 167 219 265 320 385 477
#     4  12  30  57  84 114 148 205 268 354 416 509
#     4  12  26  48  76 118 170 212 266 304 382 464
#     4  12  27  47  78 120 167 213 266 332 402 482
#     4  12  29  53  84 114 158 208 274 332 428 490
#
# _framework density 22.087627000000001
#
# number of rings (size 3 to 8) (size 9 to 14) (size 15 to 20)
#    0.000    0.000    4.211    4.105    8.842    5.474 
#    0.000    0.000    0.000    0.000    0.000    0.000 
#    0.000    0.000    0.000    0.000    0.000    0.000 
#
# Total GULP energy -211813.749859 kJ/mol
# GULP energy per Si atom -5574.046049 kJ/mol
# Density = 2.203736 g / cm^3
# Si number density = 22.087627 Si / 1000 Ang^3
#
#
#
# Elastic Constant Matrix: (Units=GPa)
#
#
# Indices 1 2 3 4 5 6 
#
# 1 143.6077 93.1242 89.9325 0.0000 0.0000 0.0000
# 2 93.1242 143.6077 89.9325 0.0000 0.0000 0.0000
# 3 89.9325 89.9325 276.1027 0.0000 0.0000 0.0000
# 4 0.0000 0.0000 0.0000 173.5140 0.0000 0.0000
# 5 0.0000 0.0000 0.0000 0.0000 173.5140 0.0000
# 6 0.0000 0.0000 0.0000 0.0000 0.0000 60.4997
#
#
#
# Elastic Compliance Matrix: (Units=1/GPa)
#
#
# Indices 1 2 3 4 5 6 
#
# 1 0.012711 -0.007098 -0.001828 0.000000 0.000000 0.000000
# 2 -0.007098 0.012711 -0.001828 0.000000 0.000000 0.000000
# 3 -0.001828 -0.001828 0.004813 0.000000 0.000000 0.000000
# 4 0.000000 0.000000 0.000000 0.005763 0.000000 0.000000
# 5 0.000000 0.000000 0.000000 0.000000 0.005763 0.000000
# 6 0.000000 0.000000 0.000000 0.000000 0.000000 0.016529
#
#
# Mechanical properties :
#
#
# Convention : Reuss Voigt Hill
#
# Bulk Modulus (GPa) = 114.59873 123.25518 118.92695
# Shear Modulus (GPa) = 60.45395 100.86078 80.65736
#
# Velocity S-wave (km/s) = 5.23731 6.76484 6.04948
# Velocity P-wave (km/s) = 9.41111 10.81394 10.13682
#
# Compressibility (1/GPa) = 0.00872610
#
# Stress axis : x y z
#
# Youngs Moduli (GPa) = 78.67256 78.67256 207.77341
#
# Poissons Ratio (x) = 0.55838 0.37989
# Poissons Ratio (y) = 0.55838 0.37989
# Poissons Ratio (z) = 0.14384 0.14384
#
# Static dielectric constant tensor:
#      x y z
#    x 1.863270 0.000000 0.000000 
#    y 0.000000 1.863270 0.000000 
#    z 0.000000 0.000000 1.757210 
# 
# From -- ./inp_files/486.got.cif
#   From: 2010.05.17/outbox.cif.g08.bks.cpg/sg132_1_cif.got.tgz:486.got - 2010.05.20 12:30:18.
