data_PCOD9567555
_publ_section_title
;
Structure prediction by ZEFSAII (Michael W. Deem and Ramdas Pophale) SiO2 
 PCOD9567555
Probable space group: P 42/M C M
;
_chemical_formula_sum "Si O2"
_cell_formula_units_Z 80
_cell_length_a 12.000000
_cell_length_b 12.000000
_cell_length_c 30.000000
_cell_angle_alpha 90.000000
_cell_angle_beta 90.000000
_cell_angle_gamma 90.000000
_cell_volume 4320.000000
_symmetry_space_group_name_H-M "P 42/M C M"
_symmetry_group_IT_number 132
_symmetry_cell_setting 'tetragonal'
loop_
_space_group_symop_operation_xyz
x,y,z
-y,x,1/2+z
-x,-y,z
y,-x,1/2+z
x,-y,1/2-z
-x,y,1/2-z
y,x,-z
-y,-x,-z
-x,-y,-z
y,-x,1/2-z
x,y,-z
-y,x,1/2-z
-x,y,1/2+z
x,-y,1/2+z
-y,-x,z
y,x,z
loop_
_atom_site_type_symbol
_atom_site_label
_atom_site_fract_x
_atom_site_fract_y
_atom_site_fract_z
Si Si1 0.235748 0.941427 0.297671
Si Si2 0.638487 0.176998 0.051527
Si Si3 0.255590 0.560574 0.390841
Si Si4 0.985757 0.370488 0.377851
Si Si5 0.752597 0.574384 0.791512
O O1 0.120218 0.879783 0.308444
O O2 0.284446 0.013168 0.338384
O O3 0.329924 0.845629 0.294483
O O4 0.227236 0.000000 0.250000
O O5 0.748989 0.251012 0.054425
O O6 0.537385 0.244938 0.074028
O O7 0.646942 0.065943 0.080614
O O8 0.614509 0.153308 0.000000
O O9 0.362035 0.637966 0.396832
O O10 0.143225 0.635461 0.392585
O O11 0.255455 0.516418 0.339692
O O12 0.000000 0.500000 0.362583
O O13 0.781849 0.500000 0.750000
O O14 0.635966 0.635966 0.783343
#
# Coordination Sequence:
#
# PCOD9567555 Si02
#       5
#    16  16  16  16  16
#     4  10  22  35  52  79 110 142 179 223 269 322
#     4  10  22  38  56  82 113 143 181 229 280 333
#     4   9  19  36  56  81 111 144 183 228 276 328
#     4   9  19  35  58  81 106 142 183 229 269 318
#     4   9  19  33  50  76 111 146 182 220 261 317
#
# _framework density 18.518519000000001
#
# number of rings (size 3 to 8) (size 9 to 14) (size 15 to 20)
#    0.000    2.600    0.000    1.800    8.400    6.400 
#    0.000    3.000    0.000    3.600    0.000    5.600 
#    0.000    0.000    0.000    0.000    0.000    0.000 
#
# Total GULP energy -445847.446799 kJ/mol
# GULP energy per Si atom -5573.093085 kJ/mol
# Density = 1.847637 g / cm^3
# Si number density = 18.518519 Si / 1000 Ang^3
#
#
#
# Elastic Constant Matrix: (Units=GPa)
#
#
# Indices 1 2 3 4 5 6 
#
# 1 32.6989 17.9156 51.5855 0.0000 0.0000 0.0000
# 2 17.9156 32.6989 51.5855 0.0000 0.0000 0.0000
# 3 51.5855 51.5855 138.7432 0.0000 0.0000 0.0000
# 4 0.0000 0.0000 0.0000 -83.1368 0.0000 0.0000
# 5 0.0000 0.0000 0.0000 0.0000 -83.1368 0.0000
# 6 0.0000 0.0000 0.0000 0.0000 0.0000 2.5938
#
#
#
# Elastic Compliance Matrix: (Units=1/GPa)
#
#
# Indices 1 2 3 4 5 6 
#
# 1 0.074622 0.006978 -0.030339 0.000000 0.000000 0.000000
# 2 0.006978 0.074622 -0.030339 0.000000 0.000000 0.000000
# 3 -0.030339 -0.030339 0.029768 0.000000 0.000000 0.000000
# 4 0.000000 0.000000 0.000000 -0.012028 0.000000 0.000000
# 5 0.000000 0.000000 0.000000 0.000000 -0.012028 0.000000
# 6 0.000000 0.000000 0.000000 0.000000 0.000000 0.385530
#
#
# Mechanical properties :
#
#
# Convention : Reuss Voigt Hill
#
# Bulk Modulus (GPa) = 13.96439 49.59046 31.77742
# Shear Modulus (GPa) = 7.44318 -27.19900 -9.87791
#
# Velocity S-wave (km/s) = 2.00700 -3.83658 -2.31207
# Velocity P-wave (km/s) = 3.59553 2.68537 3.17325
#
# Compressibility (1/GPa) = 0.07161071
#
# Stress axis : x y z
#
# Youngs Moduli (GPa) = 13.40092 13.40092 33.59296
#
# Poissons Ratio (x) = -0.09351 1.01918
# Poissons Ratio (y) = -0.09351 1.01918
# Poissons Ratio (z) = 0.40657 0.40657
#
# Static dielectric constant tensor:
#      x y z
#    x 1.665030 0.000000 0.000000 
#    y 0.000000 1.665030 0.000000 
#    z 0.000000 0.000000 1.640300 
# 
# From -- ./inp_files/10567.got.cif
#   From: 2010.05.17/outbox.ucp.g08.bks.cvg/sg132_6_cif.got.tgz:10567.got - 2010.06.11 11:39:14.
