data_PCOD9567207
_publ_section_title
;
Structure prediction by ZEFSAII (Michael W. Deem and Ramdas Pophale) SiO2 
 PCOD9567207
Probable space group: P 42/M C M
;
_chemical_formula_sum "Si O2"
_cell_formula_units_Z 64
_cell_length_a 20.146654
_cell_length_b 20.146654
_cell_length_c 8.718087
_cell_angle_alpha 90.000000
_cell_angle_beta 90.000000
_cell_angle_gamma 90.000000
_cell_volume 3538.563997
_symmetry_space_group_name_H-M "P 42/M C M"
_symmetry_group_IT_number 132
_symmetry_cell_setting 'tetragonal'
loop_
_space_group_symop_operation_xyz
x,y,z
-y,x,1/2+z
-x,-y,z
y,-x,1/2+z
x,-y,1/2-z
-x,y,1/2-z
y,x,-z
-y,-x,-z
-x,-y,-z
y,-x,1/2-z
x,y,-z
-y,x,1/2-z
-x,y,1/2+z
x,-y,1/2+z
-y,-x,z
y,x,z
loop_
_atom_site_type_symbol
_atom_site_label
_atom_site_fract_x
_atom_site_fract_y
_atom_site_fract_z
Si Si1 0.570201 0.816163 0.180708
Si Si2 0.285138 0.177756 0.683867
Si Si3 0.926612 0.819084 0.182659
Si Si4 0.327916 0.563199 0.178921
O O1 0.500000 0.842551 0.250000
O O2 0.641447 0.836059 0.250729
O O3 0.569617 0.738020 0.221427
O O4 0.569976 0.827698 0.000000
O O5 0.289728 0.179951 0.500000
O O6 0.246744 0.246744 0.731739
O O7 0.236722 0.119156 0.738729
O O8 0.888575 0.888575 0.209942
O O9 0.000000 0.819120 0.250000
O O10 0.928039 0.807406 0.000000
O O11 0.365105 0.500000 0.250000
O O12 0.372119 0.627882 0.188606
O O13 0.310513 0.552644 0.000000
#
# Coordination Sequence:
#
# PCOD9567207 Si02
#       4
#    16  16  16  16
#     4  11  21  33  51  74 101 133 172 220 273 326
#     4  10  20  35  56  81 110 144 183 228 277 328
#     4  10  21  37  58  86 119 154 191 227 266 314
#     4  10  20  32  45  62  86 118 158 205 259 319
#
# _framework density 18.086433
#
# number of rings (size 3 to 8) (size 9 to 14) (size 15 to 20)
#    0.000    1.750    0.000    6.750    0.000    8.500 
#    0.000    2.500    0.000    0.750    0.000    5.250 
#    0.000    0.000    0.000    0.000    0.000    0.000 
#
# Total GULP energy -356902.626619 kJ/mol
# GULP energy per Si atom -5576.603541 kJ/mol
# Density = 1.804527 g / cm^3
# Si number density = 18.086433 Si / 1000 Ang^3
#
#
#
# Elastic Constant Matrix: (Units=GPa)
#
#
# Indices 1 2 3 4 5 6 
#
# 1 105.9128 33.0822 42.3654 0.0000 0.0000 0.0000
# 2 33.0822 105.9128 42.3654 0.0000 0.0000 0.0000
# 3 42.3654 42.3654 102.2817 0.0000 0.0000 0.0000
# 4 0.0000 0.0000 0.0000 26.5676 0.0000 0.0000
# 5 0.0000 0.0000 0.0000 0.0000 26.5676 0.0000
# 6 0.0000 0.0000 0.0000 0.0000 0.0000 9.0267
#
#
#
# Elastic Compliance Matrix: (Units=1/GPa)
#
#
# Indices 1 2 3 4 5 6 
#
# 1 0.011678 -0.002053 -0.003987 0.000000 0.000000 0.000000
# 2 -0.002053 0.011678 -0.003987 0.000000 0.000000 0.000000
# 3 -0.003987 -0.003987 0.013079 0.000000 0.000000 0.000000
# 4 0.000000 0.000000 0.000000 0.037640 0.000000 0.000000
# 5 0.000000 0.000000 0.000000 0.000000 0.037640 0.000000
# 6 0.000000 0.000000 0.000000 0.000000 0.000000 0.110783
#
#
# Mechanical properties :
#
#
# Convention : Reuss Voigt Hill
#
# Bulk Modulus (GPa) = 61.04073 61.08151 61.06112
# Shear Modulus (GPa) = 20.16051 25.51868 22.83959
#
# Velocity S-wave (km/s) = 3.34230 3.76031 3.55745
# Velocity P-wave (km/s) = 6.97978 7.25938 7.12095
#
# Compressibility (1/GPa) = 0.01638250
#
# Stress axis : x y z
#
# Youngs Moduli (GPa) = 85.63401 85.63401 76.45589
#
# Poissons Ratio (x) = 0.17580 0.30480
# Poissons Ratio (y) = 0.17580 0.30480
# Poissons Ratio (z) = 0.34139 0.34139
#
# Static dielectric constant tensor:
#      x y z
#    x 1.646730 0.000000 0.000000 
#    y 0.000000 1.646730 0.000000 
#    z 0.000000 0.000000 1.620590 
# 
# From -- ./inp_files/1238.got.cif
#   From: 2010.05.17/outbox.cif.g08.bks.cpg/sg132_1_cif.got.tgz:1238.got - 2010.05.20 12:30:18.
