data_PCOD9567511
_publ_section_title
;
Structure prediction by ZEFSAII (Michael W. Deem and Ramdas Pophale) SiO2 
 PCOD9567511
Probable space group: P 42/M C M
;
_chemical_formula_sum "Si O2"
_cell_formula_units_Z 80
_cell_length_a 11.963095
_cell_length_b 11.963095
_cell_length_c 29.827485
_cell_angle_alpha 90.000000
_cell_angle_beta 90.000000
_cell_angle_gamma 90.000000
_cell_volume 4268.779664
_symmetry_space_group_name_H-M "P 42/M C M"
_symmetry_group_IT_number 132
_symmetry_cell_setting 'tetragonal'
loop_
_space_group_symop_operation_xyz
x,y,z
-y,x,1/2+z
-x,-y,z
y,-x,1/2+z
x,-y,1/2-z
-x,y,1/2-z
y,x,-z
-y,-x,-z
-x,-y,-z
y,-x,1/2-z
x,y,-z
-y,x,1/2-z
-x,y,1/2+z
x,-y,1/2+z
-y,-x,z
y,x,z
loop_
_atom_site_type_symbol
_atom_site_label
_atom_site_fract_x
_atom_site_fract_y
_atom_site_fract_z
Si Si1 0.151061 0.331912 0.640626
Si Si2 0.037344 0.221667 0.802594
Si Si3 0.406309 0.406309 0.920930
Si Si4 0.408473 0.408473 0.186401
Si Si5 0.158027 0.544035 0.297328
Si Si6 0.229462 0.579320 0.950155
O O1 0.272613 0.272613 0.647738
O O2 0.134988 0.446569 0.667469
O O3 0.149776 0.371366 0.588768
O O4 0.062907 0.245191 0.662366
O O5 0.113604 0.113604 0.812312
O O6 0.109785 0.334471 0.807009
O O7 0.000000 0.214012 0.750000
O O8 0.500000 0.500000 0.931777
O O9 0.397990 0.397990 0.867456
O O10 0.290343 0.460925 0.938287
O O11 0.500000 0.500000 0.196208
O O12 0.290114 0.443082 0.204823
O O13 0.116692 0.500000 0.250000
O O14 0.330419 0.669582 0.951537
O O15 0.179941 0.573005 0.000000
#
# Coordination Sequence:
#
# PCOD9567511 Si02
#       6
#    16  16   8   8  16  16
#     4  11  23  39  61  89 121 155 200 253 302 354
#     4  12  26  43  61  84 113 160 208 252 298 358
#     4   9  15  28  49  84 124 157 193 237 292 356
#     4  11  22  33  54  89 129 159 188 235 290 358
#     4  12  24  38  57  85 121 161 199 235 295 365
#     4   9  17  31  54  85 120 157 198 247 302 358
#
# _framework density 18.740718999999999
#
# number of rings (size 3 to 8) (size 9 to 14) (size 15 to 20)
#    0.000    1.200    5.000    2.100    2.800    2.600 
#    0.000    0.000    0.000    3.000    0.000    2.800 
#    0.000    0.000    0.000    0.000    0.000    0.000 
#
# Total GULP energy -446231.651904 kJ/mol
# GULP energy per Si atom -5577.895649 kJ/mol
# Density = 1.869806 g / cm^3
# Si number density = 18.740719 Si / 1000 Ang^3
#
#
#
# Elastic Constant Matrix: (Units=GPa)
#
#
# Indices 1 2 3 4 5 6 
#
# 1 95.8010 31.6478 46.9191 0.0000 0.0000 0.0000
# 2 31.6478 95.8010 46.9191 0.0000 0.0000 0.0000
# 3 46.9191 46.9191 148.7944 0.0000 0.0000 0.0000
# 4 0.0000 0.0000 0.0000 -8.7057 0.0000 0.0000
# 5 0.0000 0.0000 0.0000 0.0000 -8.7057 0.0000
# 6 0.0000 0.0000 0.0000 0.0000 0.0000 5.8201
#
#
#
# Elastic Compliance Matrix: (Units=1/GPa)
#
#
# Indices 1 2 3 4 5 6 
#
# 1 0.012903 -0.002684 -0.003222 0.000000 0.000000 0.000000
# 2 -0.002684 0.012903 -0.003222 0.000000 0.000000 0.000000
# 3 -0.003222 -0.003222 0.008753 0.000000 0.000000 0.000000
# 4 0.000000 0.000000 0.000000 -0.114868 0.000000 0.000000
# 5 0.000000 0.000000 0.000000 0.000000 -0.114868 0.000000
# 6 0.000000 0.000000 0.000000 0.000000 0.000000 0.171819
#
#
# Mechanical properties :
#
#
# Convention : Reuss Voigt Hill
#
# Bulk Modulus (GPa) = 61.34474 65.70759 63.52616
# Shear Modulus (GPa) = 14940.63192 12.00911 7476.32052
#
# Velocity S-wave (km/s) = 89.38451 2.53416 63.22979
# Velocity P-wave (km/s) = 103.37113 6.61061 73.24374
#
# Compressibility (1/GPa) = 0.01630132
#
# Stress axis : x y z
#
# Youngs Moduli (GPa) = 77.49995 77.49995 114.24873
#
# Poissons Ratio (x) = 0.20804 0.36814
# Poissons Ratio (y) = 0.20804 0.36814
# Poissons Ratio (z) = 0.24973 0.24973
#
# Static dielectric constant tensor:
#      x y z
#    x 1.665590 0.000000 0.000000 
#    y 0.000000 1.665590 0.000000 
#    z 0.000000 0.000000 1.696230 
# 
# From -- ./inp_files/10669.got.cif
#   From: 2010.05.17/outbox.cif.g08.bks.cpg/sg132_6_cif.got.tgz:10669.got - 2010.05.20 12:30:18.
