data_PCOD9567419
_publ_section_title
;
Structure prediction by ZEFSAII (Michael W. Deem and Ramdas Pophale) SiO2 
 PCOD9567419
Probable space group: P 42/M C M
;
_chemical_formula_sum "Si O2"
_cell_formula_units_Z 56
_cell_length_a 12.850774
_cell_length_b 12.850774
_cell_length_c 15.546605
_cell_angle_alpha 90.000000
_cell_angle_beta 90.000000
_cell_angle_gamma 90.000000
_cell_volume 2567.403543
_symmetry_space_group_name_H-M "P 42/M C M"
_symmetry_group_IT_number 132
_symmetry_cell_setting 'tetragonal'
loop_
_space_group_symop_operation_xyz
x,y,z
-y,x,1/2+z
-x,-y,z
y,-x,1/2+z
x,-y,1/2-z
-x,y,1/2-z
y,x,-z
-y,-x,-z
-x,-y,-z
y,-x,1/2-z
x,y,-z
-y,x,1/2-z
-x,y,1/2+z
x,-y,1/2+z
-y,-x,z
y,x,z
loop_
_atom_site_type_symbol
_atom_site_label
_atom_site_fract_x
_atom_site_fract_y
_atom_site_fract_z
Si Si1 0.986869 0.309398 0.098678
Si Si2 0.793306 0.628342 0.837377
Si Si3 0.233159 0.402107 0.367222
Si Si4 0.085342 0.914659 0.104735
O O1 0.881155 0.375000 0.098460
O O2 0.951769 0.197726 0.135980
O O3 0.083976 0.359021 0.147081
O O4 0.021675 0.294417 0.000000
O O5 0.730513 0.730513 0.865854
O O6 0.775149 0.614059 0.735678
O O7 0.749224 0.524220 0.881890
O O8 0.321804 0.321804 0.398251
O O9 0.093712 0.906289 0.000000
O O10 0.000000 0.000000 0.125651
#
# Coordination Sequence:
#
# PCOD9567419 Si02
#       4
#    16  16  16   8
#     4  11  21  36  58  84 116 152 191 233 284 344
#     4  10  22  38  59  85 114 151 192 239 287 336
#     4  10  21  39  60  83 115 151 192 238 286 341
#     4   9  18  32  52  78 109 145 182 226 275 326
#
# _framework density 21.811919
#
# number of rings (size 3 to 8) (size 9 to 14) (size 15 to 20)
#    0.000    1.857    1.429    2.571    0.000    6.857 
#    0.000    2.857    0.000    0.000    0.000    4.000 
#    0.000    0.000    0.000    0.000    0.000    0.000 
#
# Total GULP energy -312917.767405 kJ/mol
# GULP energy per Si atom -5587.817275 kJ/mol
# Density = 2.176227 g / cm^3
# Si number density = 21.811919 Si / 1000 Ang^3
#
#
#
# Elastic Constant Matrix: (Units=GPa)
#
#
# Indices 1 2 3 4 5 6 
#
# 1 97.4596 40.4512 14.8409 0.0000 0.0000 0.0000
# 2 40.4512 97.4600 14.8408 0.0000 0.0000 0.0000
# 3 14.8409 14.8408 31.7806 0.0000 0.0000 0.0000
# 4 0.0000 0.0000 0.0000 -4.5903 0.0000 0.0000
# 5 0.0000 0.0000 0.0000 0.0000 -4.5905 0.0000
# 6 0.0000 0.0000 0.0000 0.0000 0.0000 16.2355
#
#
#
# Elastic Compliance Matrix: (Units=1/GPa)
#
#
# Indices 1 2 3 4 5 6 
#
# 1 0.012801 -0.004740 -0.003764 0.000000 0.000000 0.000000
# 2 -0.004740 0.012801 -0.003764 0.000000 0.000000 0.000000
# 3 -0.003764 -0.003764 0.034982 0.000000 0.000000 0.000000
# 4 0.000000 0.000000 0.000000 -0.217848 0.000000 0.000000
# 5 0.000000 0.000000 0.000000 0.000000 -0.217843 0.000000
# 6 0.000000 0.000000 0.000000 0.000000 0.000000 0.061593
#
#
# Mechanical properties :
#
#
# Convention : Reuss Voigt Hill
#
# Bulk Modulus (GPa) = 27.74207 40.77399 34.25803
# Shear Modulus (GPa) = -18.05311 11.84876 -3.10218
#
# Velocity S-wave (km/s) = -2.88005 2.33324 -1.19387
# Velocity P-wave (km/s) = 1.29877 5.09831 3.72018
#
# Compressibility (1/GPa) = 0.03604634
#
# Stress axis : x y z
#
# Youngs Moduli (GPa) = 78.11733 78.11766 28.58648
#
# Poissons Ratio (x) = 0.37028 0.10761
# Poissons Ratio (y) = 0.37027 0.10761
# Poissons Ratio (z) = 0.29407 0.29407
#
# Static dielectric constant tensor:
#      x y z
#    x 1.777710 0.000000 0.000000 
#    y 0.000000 1.777710 0.000000 
#    z 0.000000 0.000000 1.845160 
# 
# From -- ./inp_files/7316.got.cif
#   From: 2010.05.17/outbox.cif.g08.bks.cpg/sg132_4_cif.got.tgz:7316.got - 2010.05.20 12:30:18.
