data_PCOD9567081
_publ_section_title
;
Structure prediction by ZEFSAII (Michael W. Deem and Ramdas Pophale) SiO2 
 PCOD9567081
Probable space group: P 42/M C M
;
_chemical_formula_sum "Si O2"
_cell_formula_units_Z 104
_cell_length_a 18.364659
_cell_length_b 18.364659
_cell_length_c 18.163907
_cell_angle_alpha 90.000000
_cell_angle_beta 90.000000
_cell_angle_gamma 90.000000
_cell_volume 6125.971993
_symmetry_space_group_name_H-M "P 42/M C M"
_symmetry_group_IT_number 132
_symmetry_cell_setting 'tetragonal'
loop_
_space_group_symop_operation_xyz
x,y,z
-y,x,1/2+z
-x,-y,z
y,-x,1/2+z
x,-y,1/2-z
-x,y,1/2-z
y,x,-z
-y,-x,-z
-x,-y,-z
y,-x,1/2-z
x,y,-z
-y,x,1/2-z
-x,y,1/2+z
x,-y,1/2+z
-y,-x,z
y,x,z
loop_
_atom_site_type_symbol
_atom_site_label
_atom_site_fract_x
_atom_site_fract_y
_atom_site_fract_z
Si Si1 0.340804 0.221219 0.291523
Si Si2 0.558965 0.679659 0.811234
Si Si3 0.319456 0.924842 0.292747
Si Si4 0.037692 0.839527 0.670577
Si Si5 0.060438 0.939563 0.086639
Si Si6 0.777363 0.540381 0.587441
Si Si7 0.917316 0.523331 0.163915
O O1 0.268938 0.268938 0.293898
O O2 0.393936 0.257616 0.230084
O O3 0.320349 0.140393 0.266221
O O4 0.383956 0.228420 0.367924
O O5 0.500000 0.654523 0.750000
O O6 0.614410 0.614410 0.830713
O O7 0.514722 0.717341 0.877541
O O8 0.242838 0.933706 0.333925
O O9 0.389826 0.912058 0.342326
O O10 0.332738 0.000000 0.250000
O O11 0.105383 0.894618 0.663238
O O12 0.000000 0.848011 0.750000
O O13 0.972955 0.864649 0.616549
O O14 0.063085 0.936916 0.000000
O O15 0.000000 0.000000 0.109969
O O16 0.770400 0.546495 0.500000
O O17 0.856775 0.511715 0.612397
O O18 0.902535 0.500000 0.250000
O O19 0.000000 0.500000 0.148024
#
# Coordination Sequence:
#
# PCOD9567081 Si02
#       7
#    16  16  16  16   8  16  16
#     4  10  19  35  57  80 109 146 191 240 281 333
#     4   9  18  34  57  81 109 145 194 242 290 343
#     4  11  19  31  56  85 104 133 183 241 285 316
#     4  10  19  31  52  83 109 139 190 234 265 323
#     4   9  18  34  56  78 112 154 180 216 280 336
#     4  11  21  34  54  82 118 153 187 226 289 367
#     4  11  18  35  57  78 104 139 188 243 284 330
#
# _framework density 16.976896
#
# number of rings (size 3 to 8) (size 9 to 14) (size 15 to 20)
#    0.000    1.769    5.385    0.923    0.000    1.077 
#    0.000    0.769    0.000    5.538    0.000    4.308 
#    0.000    0.000    0.000    0.000    0.000    0.000 
#
# Total GULP energy -579758.137103 kJ/mol
# GULP energy per Si atom -5574.597472 kJ/mol
# Density = 1.693826 g / cm^3
# Si number density = 16.976896 Si / 1000 Ang^3
#
#
#
# Elastic Constant Matrix: (Units=GPa)
#
#
# Indices 1 2 3 4 5 6 
#
# 1 101.0847 34.8384 32.4602 0.0000 0.0000 0.0000
# 2 34.8384 101.0845 32.4599 0.0000 0.0000 0.0000
# 3 32.4602 32.4599 71.6396 0.0000 0.0000 0.0000
# 4 0.0000 0.0000 0.0000 8.4846 0.0000 0.0000
# 5 0.0000 0.0000 0.0000 0.0000 8.4846 0.0000
# 6 0.0000 0.0000 0.0000 0.0000 0.0000 29.6885
#
#
#
# Elastic Compliance Matrix: (Units=1/GPa)
#
#
# Indices 1 2 3 4 5 6 
#
# 1 0.012242 -0.002853 -0.004254 0.000000 0.000000 0.000000
# 2 -0.002853 0.012242 -0.004254 0.000000 0.000000 0.000000
# 3 -0.004254 -0.004254 0.017814 0.000000 0.000000 0.000000
# 4 0.000000 0.000000 0.000000 0.117861 0.000000 0.000000
# 5 0.000000 0.000000 0.000000 0.000000 0.117860 0.000000
# 6 0.000000 0.000000 0.000000 0.000000 0.000000 0.033683
#
#
# Mechanical properties :
#
#
# Convention : Reuss Voigt Hill
#
# Bulk Modulus (GPa) = 51.08501 52.59176 51.83839
# Shear Modulus (GPa) = 14.66490 20.93489 17.79989
#
# Velocity S-wave (km/s) = 2.94226 3.51542 3.24153
# Velocity P-wave (km/s) = 6.45746 6.89371 6.67915
#
# Compressibility (1/GPa) = 0.01957521
#
# Stress axis : x y z
#
# Youngs Moduli (GPa) = 81.68527 81.68532 56.13584
#
# Poissons Ratio (x) = 0.23306 0.23881
# Poissons Ratio (y) = 0.23306 0.23881
# Poissons Ratio (z) = 0.34751 0.34750
#
# Static dielectric constant tensor:
#      x y z
#    x 1.599940 0.000000 0.000000 
#    y 0.000000 1.599940 0.000000 
#    z 0.000000 0.000000 1.555020 
# 
# From -- ./inp_files/6556.got.cif
#   From: 2010.05.17/outbox.cif.g08.bks.cpg/sg132_4_cif.got.tgz:6556.got - 2010.05.20 12:30:18.
