data_PCOD9567682
_publ_section_title
;
Structure prediction by ZEFSAII (Michael W. Deem and Ramdas Pophale) SiO2 
 PCOD9567682
Probable space group: P 42/N B C
;
_chemical_formula_sum "Si O2"
_cell_formula_units_Z 64
_cell_length_a 18.580982
_cell_length_b 18.580982
_cell_length_c 10.473462
_cell_angle_alpha 90.000000
_cell_angle_beta 90.000000
_cell_angle_gamma 90.000000
_cell_volume 3615.993046
_symmetry_space_group_name_H-M "P 42/N B C"
_symmetry_group_IT_number 133
_space_group.IT_coordinate_system_code '2'
_symmetry_cell_setting 'tetragonal'
loop_
_space_group_symop_operation_xyz
x,y,z
1/2-y,x,1/2+z
1/2-x,1/2-y,z
y,1/2-x,1/2+z
x,1/2-y,-z
1/2-x,y,-z
y,x,1/2-z
1/2-y,1/2-x,1/2-z
-x,-y,-z
1/2+y,-x,1/2-z
1/2+x,1/2+y,-z
-y,1/2+x,1/2-z
-x,1/2+y,z
1/2+x,-y,z
-y,-x,1/2+z
1/2+y,1/2+x,1/2+z
loop_
_atom_site_type_symbol
_atom_site_label
_atom_site_fract_x
_atom_site_fract_y
_atom_site_fract_z
Si Si1 0.509937 0.819364 0.434869
Si Si2 0.970589 0.460958 0.126470
Si Si3 0.863098 0.592461 0.559522
Si Si4 0.389267 0.280557 0.199742
O O1 0.474832 0.750000 0.500000
O O2 0.459262 0.884895 0.390229
O O3 0.569125 0.855097 0.532129
O O4 0.554381 0.790308 0.313707
O O5 0.992649 0.507352 0.250000
O O6 0.018177 0.388986 0.124371
O O7 0.000000 0.500000 0.000000
O O8 0.828617 0.582349 0.419317
O O9 0.798938 0.622088 0.645940
O O10 0.316271 0.316271 0.250000
#
# Coordination Sequence:
#
# PCOD9567682 Si02
#       4
#    16  16  16  16
#     4  10  20  32  49  76 109 135 179 231 269 317
#     4  10  20  34  55  76 103 141 190 230 270 322
#     4   9  19  34  55  74 103 150 181 219 271 334
#     4   9  18  35  50  75 112 138 179 219 267 331
#
# _framework density 17.699148999999998
#
# number of rings (size 3 to 8) (size 9 to 14) (size 15 to 20)
#    0.000    2.500    0.000    3.750    7.000    0.000 
#    0.000   15.000    0.000    0.000    0.000    3.500 
#    0.000    0.000    0.000    0.000    0.000    0.000 
#
# Total GULP energy -356784.996837 kJ/mol
# GULP energy per Si atom -5574.765576 kJ/mol
# Density = 1.765886 g / cm^3
# Si number density = 17.699149 Si / 1000 Ang^3
#
#
#
# Elastic Constant Matrix: (Units=GPa)
#
#
# Indices 1 2 3 4 5 6 
#
# 1 72.0917 38.2353 36.3360 0.0000 0.0000 0.0000
# 2 38.2353 72.0923 36.3358 0.0000 0.0000 0.0000
# 3 36.3360 36.3358 92.2443 0.0000 0.0000 0.0000
# 4 0.0000 0.0000 0.0000 16.7213 0.0000 0.0000
# 5 0.0000 0.0000 0.0000 0.0000 16.7208 0.0000
# 6 0.0000 0.0000 0.0000 0.0000 0.0000 22.3674
#
#
#
# Elastic Compliance Matrix: (Units=1/GPa)
#
#
# Indices 1 2 3 4 5 6 
#
# 1 0.020888 -0.008648 -0.004821 0.000000 0.000000 0.000000
# 2 -0.008648 0.020888 -0.004821 0.000000 0.000000 0.000000
# 3 -0.004821 -0.004821 0.014639 0.000000 0.000000 0.000000
# 4 0.000000 0.000000 0.000000 0.059804 0.000000 0.000000
# 5 0.000000 0.000000 0.000000 0.000000 0.059806 0.000000
# 6 0.000000 0.000000 0.000000 0.000000 0.000000 0.044708
#
#
# Mechanical properties :
#
#
# Convention : Reuss Voigt Hill
#
# Bulk Modulus (GPa) = 50.42050 50.91583 50.66817
# Shear Modulus (GPa) = 18.94473 19.52998 19.23736
#
# Velocity S-wave (km/s) = 3.27521 3.32541 3.30041
# Velocity P-wave (km/s) = 6.54615 6.60109 6.57367
#
# Compressibility (1/GPa) = 0.01983320
#
# Stress axis : x y z
#
# Youngs Moduli (GPa) = 47.87410 47.87473 68.31013
#
# Poissons Ratio (x) = 0.41403 0.32935
# Poissons Ratio (y) = 0.41403 0.32934
# Poissons Ratio (z) = 0.23082 0.23082
#
# Static dielectric constant tensor:
#      x y z
#    x 1.636890 0.000000 0.000000 
#    y 0.000000 1.636890 0.000000 
#    z 0.000000 0.000000 1.632630 
# 
# From -- ./inp_files/2974.got.cif
#   From: 2010.05.17/outbox.cif.g08.bks.cpg/sg133_2_cif.got.tgz:2974.got - 2010.05.20 12:37:36.
