data_PCOD9567516
_publ_section_title
;
Structure prediction by ZEFSAII (Michael W. Deem and Ramdas Pophale) SiO2 
 PCOD9567516
Probable space group: P 42/M C M
;
_chemical_formula_sum "Si O2"
_cell_formula_units_Z 48
_cell_length_a 11.373733
_cell_length_b 11.373733
_cell_length_c 17.994196
_cell_angle_alpha 90.000000
_cell_angle_beta 90.000000
_cell_angle_gamma 90.000000
_cell_volume 2327.761626
_symmetry_space_group_name_H-M "P 42/M C M"
_symmetry_group_IT_number 132
_symmetry_cell_setting 'tetragonal'
loop_
_space_group_symop_operation_xyz
x,y,z
-y,x,1/2+z
-x,-y,z
y,-x,1/2+z
x,-y,1/2-z
-x,y,1/2-z
y,x,-z
-y,-x,-z
-x,-y,-z
y,-x,1/2-z
x,y,-z
-y,x,1/2-z
-x,y,1/2+z
x,-y,1/2+z
-y,-x,z
y,x,z
loop_
_atom_site_type_symbol
_atom_site_label
_atom_site_fract_x
_atom_site_fract_y
_atom_site_fract_z
Si Si1 0.172903 0.827098 0.912713
Si Si2 0.429752 0.237448 0.822581
Si Si3 0.628254 0.628254 0.586451
Si Si4 0.928616 0.271844 0.586388
O O1 0.271733 0.728268 0.909602
O O2 0.051352 0.776146 0.881731
O O3 0.146527 0.853473 0.000000
O O4 0.500000 0.200034 0.750000
O O5 0.320723 0.320723 0.799561
O O6 0.484817 0.317803 0.627057
O O7 0.377949 0.129358 0.868801
O O8 0.603573 0.603573 0.500000
O O9 0.945750 0.307120 0.500000
O O10 0.834417 0.165584 0.587290
#
# Coordination Sequence:
#
# PCOD9567516 Si02
#       4
#     8  16   8  16
#     4   9  19  37  59  89 125 157 198 260 313 364
#     4  11  22  38  61  85 123 166 208 259 315 371
#     4  11  23  37  59  89 123 163 210 255 306 372
#     4   9  18  35  63  93 121 158 208 258 314 377
#
# _framework density 20.620668999999999
#
# number of rings (size 3 to 8) (size 9 to 14) (size 15 to 20)
#    0.000    2.000    1.667    2.000    0.000    6.000 
#    0.000    8.333    0.000    0.000    4.333    0.000 
#    0.000    0.000    0.000    0.167    0.000    0.000 
#
# Total GULP energy -268295.457552 kJ/mol
# GULP energy per Si atom -5589.488699 kJ/mol
# Density = 2.057374 g / cm^3
# Si number density = 20.620669 Si / 1000 Ang^3
#
#
#
# Elastic Constant Matrix: (Units=GPa)
#
#
# Indices 1 2 3 4 5 6 
#
# 1 184.2680 -14.8110 51.7262 0.0000 0.0000 0.0000
# 2 -14.8110 184.2683 51.7266 0.0000 0.0000 0.0000
# 3 51.7262 51.7266 81.3030 0.0000 0.0000 0.0000
# 4 0.0000 0.0000 0.0000 -11.3173 0.0000 0.0000
# 5 0.0000 0.0000 0.0000 0.0000 -11.3172 0.0000
# 6 0.0000 0.0000 0.0000 0.0000 0.0000 35.1974
#
#
#
# Elastic Compliance Matrix: (Units=1/GPa)
#
#
# Indices 1 2 3 4 5 6 
#
# 1 0.007336 0.002313 -0.006139 0.000000 0.000000 0.000000
# 2 0.002313 0.007336 -0.006139 0.000000 0.000000 0.000000
# 3 -0.006139 -0.006139 0.020111 0.000000 0.000000 0.000000
# 4 0.000000 0.000000 0.000000 -0.088361 0.000000 0.000000
# 5 0.000000 0.000000 0.000000 0.000000 -0.088361 0.000000
# 6 0.000000 0.000000 0.000000 0.000000 0.000000 0.028411
#
#
# Mechanical properties :
#
#
# Convention : Reuss Voigt Hill
#
# Bulk Modulus (GPa) = 67.32422 69.68033 68.50228
# Shear Modulus (GPa) = -56.40355 26.59242 -14.90556
#
# Velocity S-wave (km/s) = -5.23568 3.59500 -2.69150
# Velocity P-wave (km/s) = 1.95703 7.14821 4.86142
#
# Compressibility (1/GPa) = 0.01485349
#
# Stress axis : x y z
#
# Youngs Moduli (GPa) = 136.31372 136.31352 49.72420
#
# Poissons Ratio (x) = -0.31528 0.30525
# Poissons Ratio (y) = -0.31528 0.30525
# Poissons Ratio (z) = 0.83680 0.83681
#
# Static dielectric constant tensor:
#      x y z
#    x 1.719720 0.000000 0.000000 
#    y 0.000000 1.719720 0.000000 
#    z 0.000000 0.000000 1.730930 
# 
# From -- ./inp_files/4149.got.cif
#   From: 2010.05.17/outbox.cif.g08.bks.cpg/sg132_3_cif.got.tgz:4149.got - 2010.05.20 12:30:18.
