data_PCOD9567826
_publ_section_title
;
Structure prediction by ZEFSAII (Michael W. Deem and Ramdas Pophale) SiO2 
 PCOD9567826
Probable space group: P 42/N B C
;
_chemical_formula_sum "Si O2"
_cell_formula_units_Z 116
_cell_length_a 17.913748
_cell_length_b 17.913748
_cell_length_c 17.376128
_cell_angle_alpha 90.000000
_cell_angle_beta 90.000000
_cell_angle_gamma 90.000000
_cell_volume 5576.040612
_symmetry_space_group_name_H-M "P 42/N B C"
_symmetry_group_IT_number 133
_space_group.IT_coordinate_system_code '2'
_symmetry_cell_setting 'tetragonal'
loop_
_space_group_symop_operation_xyz
x,y,z
1/2-y,x,1/2+z
1/2-x,1/2-y,z
y,1/2-x,1/2+z
x,1/2-y,-z
1/2-x,y,-z
y,x,1/2-z
1/2-y,1/2-x,1/2-z
-x,-y,-z
1/2+y,-x,1/2-z
1/2+x,1/2+y,-z
-y,1/2+x,1/2-z
-x,1/2+y,z
1/2+x,-y,z
-y,-x,1/2+z
1/2+y,1/2+x,1/2+z
loop_
_atom_site_type_symbol
_atom_site_label
_atom_site_fract_x
_atom_site_fract_y
_atom_site_fract_z
Si Si1 0.912461 0.887852 0.399262
Si Si2 0.038969 0.531084 0.824002
Si Si3 0.250000 0.750000 0.250000
Si Si4 0.635062 0.158612 0.658075
Si Si5 0.390910 0.427705 0.428252
Si Si6 0.660835 0.410312 0.508686
Si Si7 0.291093 0.948697 0.081478
Si Si8 0.749838 0.663045 0.406162
O O1 0.911055 0.887609 0.491994
O O2 0.828262 0.868635 0.375398
O O3 0.979225 0.830609 0.381772
O O4 0.932121 0.969096 0.367748
O O5 0.100611 0.588494 0.792566
O O6 0.070029 0.466229 0.879369
O O7 0.007992 0.492008 0.750000
O O8 0.312333 0.710928 0.196178
O O9 0.638616 0.112011 0.578256
O O10 0.586625 0.230960 0.638247
O O11 0.362837 0.509406 0.457203
O O12 0.323462 0.384365 0.385914
O O13 0.750000 0.405618 0.500000
O O14 0.616858 0.350154 0.560587
O O15 0.250000 0.967273 0.000000
O O16 0.750000 0.750000 0.385507
O O17 0.750000 0.658332 0.500000
#
# Coordination Sequence:
#
# PCOD9567826 Si02
#       8
#    16  16   4  16  16  16  16  16
#     4  11  21  41  68  96 130 169 214 276 328 392
#     4  12  27  44  65  95 131 175 228 273 333 405
#     4  12  28  48  66  88 148 184 216 274 356 416
#     4  11  26  44  63  96 128 181 221 271 334 412
#     4  11  21  41  67  99 131 173 217 279 337 395
#     4  11  20  37  68  99 131 164 228 280 334 392
#     4  10  22  36  63  98 126 165 217 280 331 387
#     4   9  21  36  64 104 135 166 212 272 339 396
#
# _framework density 20.803291999999999
#
# number of rings (size 3 to 8) (size 9 to 14) (size 15 to 20)
#    0.000    1.241    2.759    4.138    7.724    3.034 
#    0.000    0.000    0.000    0.000    0.000    0.000 
#    0.000    0.000    0.000    0.000    0.000    0.000 
#
# Total GULP energy -647608.295969 kJ/mol
# GULP energy per Si atom -5582.830138 kJ/mol
# Density = 2.075594 g / cm^3
# Si number density = 20.803292 Si / 1000 Ang^3
#
#
#
# Elastic Constant Matrix: (Units=GPa)
#
#
# Indices 1 2 3 4 5 6 
#
# 1 109.6222 71.8796 -1.5674 0.0000 0.0000 0.0000
# 2 71.8796 109.6222 -1.5674 0.0000 0.0000 0.0000
# 3 -1.5674 -1.5674 15.0393 0.0000 0.0000 0.0000
# 4 0.0000 0.0000 0.0000 6.1991 0.0000 0.0000
# 5 0.0000 0.0000 0.0000 0.0000 6.1991 0.0000
# 6 0.0000 0.0000 0.0000 0.0000 0.0000 45.6540
#
#
#
# Elastic Compliance Matrix: (Units=1/GPa)
#
#
# Indices 1 2 3 4 5 6 
#
# 1 0.016007 -0.010488 0.000575 0.000000 0.000000 0.000000
# 2 -0.010488 0.016007 0.000575 0.000000 0.000000 0.000000
# 3 0.000575 0.000575 0.066612 0.000000 0.000000 0.000000
# 4 0.000000 0.000000 0.000000 0.161313 0.000000 0.000000
# 5 0.000000 0.000000 0.000000 0.000000 0.161313 0.000000
# 6 0.000000 0.000000 0.000000 0.000000 0.000000 0.021904
#
#
# Mechanical properties :
#
#
# Convention : Reuss Voigt Hill
#
# Bulk Modulus (GPa) = 12.50742 41.30813 26.90777
# Shear Modulus (GPa) = 10.23579 22.64638 16.44109
#
# Velocity S-wave (km/s) = 2.22058 3.30297 2.81430
# Velocity P-wave (km/s) = 3.54963 5.86905 4.85003
#
# Compressibility (1/GPa) = 0.07995257
#
# Stress axis : x y z
#
# Youngs Moduli (GPa) = 62.47105 62.47105 15.01220
#
# Poissons Ratio (x) = 0.65519 -0.00864
# Poissons Ratio (y) = 0.65519 -0.00864
# Poissons Ratio (z) = -0.03594 -0.03594
#
# Static dielectric constant tensor:
#      x y z
#    x 2.472870 0.000000 0.000000 
#    y 0.000000 2.472870 0.000000 
#    z 0.000000 0.000000 1.363440 
# 
# From -- ./inp_files/5649.got.cif
#   From: 2010.05.17/outbox.cif.g08.bks.cpg/sg133_3_cif.got.tgz:5649.got - 2010.05.20 12:37:36.
