data_PCOD9567411
_publ_section_title
;
Structure prediction by ZEFSAII (Michael W. Deem and Ramdas Pophale) SiO2 
 PCOD9567411
Probable space group: P 42/M C M
;
_chemical_formula_sum "Si O2"
_cell_formula_units_Z 40
_cell_length_a 15.441863
_cell_length_b 15.441863
_cell_length_c 9.287796
_cell_angle_alpha 90.000000
_cell_angle_beta 90.000000
_cell_angle_gamma 90.000000
_cell_volume 2214.685478
_symmetry_space_group_name_H-M "P 42/M C M"
_symmetry_group_IT_number 132
_symmetry_cell_setting 'tetragonal'
loop_
_space_group_symop_operation_xyz
x,y,z
-y,x,1/2+z
-x,-y,z
y,-x,1/2+z
x,-y,1/2-z
-x,y,1/2-z
y,x,-z
-y,-x,-z
-x,-y,-z
y,-x,1/2-z
x,y,-z
-y,x,1/2-z
-x,y,1/2+z
x,-y,1/2+z
-y,-x,z
y,x,z
loop_
_atom_site_type_symbol
_atom_site_label
_atom_site_fract_x
_atom_site_fract_y
_atom_site_fract_z
Si Si1 0.876877 0.733412 0.500000
Si Si2 0.077314 0.569186 0.500000
Si Si3 0.362067 0.500000 0.750000
Si Si4 0.318747 0.000000 0.250000
Si Si5 0.762594 0.442211 0.000000
O O1 0.814195 0.814195 0.500000
O O2 0.938105 0.731506 0.640255
O O3 0.818052 0.646056 0.500000
O O4 0.167605 0.519852 0.500000
O O5 0.000000 0.500000 0.500000
O O6 0.060847 0.624133 0.644599
O O7 0.426446 0.573555 0.686968
O O8 0.300125 0.453781 0.635708
#
# Coordination Sequence:
#
# PCOD9567411 Si02
#       5
#     8   8   8   8   8
#     4  11  23  39  61  90 119 146 190 245 297 354
#     4  11  20  33  59  89 119 153 185 235 300 367
#     4  11  24  40  53  74 116 168 209 240 276 323
#     4  10  21  38  60  87 122 154 186 229 304 358
#     4  12  22  34  61  85 113 149 202 243 288 343
#
# _framework density 18.061254999999999
#
# number of rings (size 3 to 8) (size 9 to 14) (size 15 to 20)
#    0.000    1.000    4.000    5.400    0.000    1.600 
#    0.000    6.000    0.000    1.800    0.000    0.000 
#    0.000    0.000    0.000    0.000    0.000    0.000 
#
# Total GULP energy -223406.127889 kJ/mol
# GULP energy per Si atom -5585.153197 kJ/mol
# Density = 1.802015 g / cm^3
# Si number density = 18.061255 Si / 1000 Ang^3
#
#
#
# Elastic Constant Matrix: (Units=GPa)
#
#
# Indices 1 2 3 4 5 6 
#
# 1 117.3896 64.3885 55.3395 0.0000 0.0000 0.0000
# 2 64.3885 117.3896 55.3395 0.0000 0.0000 0.0000
# 3 55.3395 55.3395 132.3495 0.0000 0.0000 0.0000
# 4 0.0000 0.0000 0.0000 35.1707 0.0000 0.0000
# 5 0.0000 0.0000 0.0000 0.0000 35.1707 0.0000
# 6 0.0000 0.0000 0.0000 0.0000 0.0000 48.9946
#
#
#
# Elastic Compliance Matrix: (Units=1/GPa)
#
#
# Indices 1 2 3 4 5 6 
#
# 1 0.013124 -0.005744 -0.003086 0.000000 0.000000 0.000000
# 2 -0.005744 0.013124 -0.003086 0.000000 0.000000 0.000000
# 3 -0.003086 -0.003086 0.010136 0.000000 0.000000 0.000000
# 4 0.000000 0.000000 0.000000 0.028433 0.000000 0.000000
# 5 0.000000 0.000000 0.000000 0.000000 0.028433 0.000000
# 6 0.000000 0.000000 0.000000 0.000000 0.000000 0.020410
#
#
# Mechanical properties :
#
#
# Convention : Reuss Voigt Hill
#
# Bulk Modulus (GPa) = 79.66145 79.69594 79.67870
# Shear Modulus (GPa) = 35.29202 36.67128 35.98165
#
# Velocity S-wave (km/s) = 4.42522 4.51087 4.46825
# Velocity P-wave (km/s) = 8.38523 8.44699 8.41617
#
# Compressibility (1/GPa) = 0.01255312
#
# Stress axis : x y z
#
# Youngs Moduli (GPa) = 76.19744 76.19744 98.65509
#
# Poissons Ratio (x) = 0.43766 0.30443
# Poissons Ratio (y) = 0.43766 0.30443
# Poissons Ratio (z) = 0.23513 0.23513
#
# Static dielectric constant tensor:
#      x y z
#    x 1.605340 0.000000 0.000000 
#    y 0.000000 1.605340 0.000000 
#    z 0.000000 0.000000 1.722970 
# 
# From -- ./inp_files/602.got.cif
#   From: 2010.05.17/outbox.cif.g08.bks.cpg/sg132_1_cif.got.tgz:602.got - 2010.05.20 12:30:18.
