data_PCOD9567643
_publ_section_title
;
Structure prediction by ZEFSAII (Michael W. Deem and Ramdas Pophale) SiO2 
 PCOD9567643
Probable space group: P 42/N B C
;
_chemical_formula_sum "Si O2"
_cell_formula_units_Z 80
_cell_length_a 28.600603
_cell_length_b 28.600603
_cell_length_c 5.116010
_cell_angle_alpha 90.000000
_cell_angle_beta 90.000000
_cell_angle_gamma 90.000000
_cell_volume 4184.868001
_symmetry_space_group_name_H-M "P 42/N B C"
_symmetry_group_IT_number 133
_space_group.IT_coordinate_system_code '2'
_symmetry_cell_setting 'tetragonal'
loop_
_space_group_symop_operation_xyz
x,y,z
1/2-y,x,1/2+z
1/2-x,1/2-y,z
y,1/2-x,1/2+z
x,1/2-y,-z
1/2-x,y,-z
y,x,1/2-z
1/2-y,1/2-x,1/2-z
-x,-y,-z
1/2+y,-x,1/2-z
1/2+x,1/2+y,-z
-y,1/2+x,1/2-z
-x,1/2+y,z
1/2+x,-y,z
-y,-x,1/2+z
1/2+y,1/2+x,1/2+z
loop_
_atom_site_type_symbol
_atom_site_label
_atom_site_fract_x
_atom_site_fract_y
_atom_site_fract_z
Si Si1 0.139898 0.281276 0.256604
Si Si2 0.695284 0.148782 0.430021
Si Si3 0.924303 0.383161 0.960633
Si Si4 0.933388 0.854272 0.228631
Si Si5 0.527407 0.893322 0.267621
O O1 0.151935 0.250000 0.500000
O O2 0.177477 0.322524 0.250000
O O3 0.089249 0.304989 0.293941
O O4 0.140871 0.250000 0.000000
O O5 0.750000 0.144698 0.500000
O O6 0.671792 0.181952 0.651800
O O7 0.668341 0.098586 0.427482
O O8 0.894298 0.416083 0.764763
O O9 0.976011 0.394231 0.856061
O O10 0.892730 0.892730 0.250000
O O11 0.970677 0.872947 0.439636
O O12 0.947418 0.856994 0.927135
O O13 0.558084 0.941917 0.250000
#
# Coordination Sequence:
#
# PCOD9567643 Si02
#       5
#    16  16  16  16  16
#     4  11  22  36  54  76 105 138 176 228 287 344
#     4  10  21  37  57  81 110 143 180 224 275 328
#     4  10  21  36  54  81 117 148 175 220 279 324
#     4   9  19  35  53  74 101 136 179 226 269 310
#     4  10  19  34  57  80 106 145 188 223 263 323
#
# _framework density 19.116492000000001
#
# number of rings (size 3 to 8) (size 9 to 14) (size 15 to 20)
#    0.000    2.000    0.000    3.600    0.000    6.400 
#    0.000    3.000    0.000    2.400    0.000    0.000 
#    0.000    0.000    0.000    0.000    0.000    0.000 
#
# Total GULP energy -445590.211711 kJ/mol
# GULP energy per Si atom -5569.877646 kJ/mol
# Density = 1.907298 g / cm^3
# Si number density = 19.116492 Si / 1000 Ang^3
#
#
#
# Elastic Constant Matrix: (Units=GPa)
#
#
# Indices 1 2 3 4 5 6 
#
# 1 25.1623 91.0940 5.9995 0.0000 0.0000 0.0000
# 2 91.0940 25.1702 6.0037 0.0000 0.0000 0.0000
# 3 5.9995 6.0037 88.2653 0.0000 0.0000 0.0000
# 4 0.0000 0.0000 0.0000 17.5307 0.0000 0.0000
# 5 0.0000 0.0000 0.0000 0.0000 17.5286 0.0000
# 6 0.0000 0.0000 0.0000 0.0000 0.0000 8.8238
#
#
#
# Elastic Compliance Matrix: (Units=1/GPa)
#
#
# Indices 1 2 3 4 5 6 
#
# 1 -0.003253 0.011915 -0.000589 0.000000 0.000000 0.000000
# 2 0.011915 -0.003252 -0.000589 0.000000 0.000000 0.000000
# 3 -0.000589 -0.000589 0.011410 0.000000 0.000000 0.000000
# 4 0.000000 0.000000 0.000000 0.057043 0.000000 0.000000
# 5 0.000000 0.000000 0.000000 0.000000 0.057049 0.000000
# 6 0.000000 0.000000 0.000000 0.000000 0.000000 0.113329
#
#
# Mechanical properties :
#
#
# Convention : Reuss Voigt Hill
#
# Bulk Modulus (GPa) = 37.91035 38.31027 38.11031
# Shear Modulus (GPa) = 22.76418 11.14335 16.95376
#
# Velocity S-wave (km/s) = 3.45456 2.41699 2.98126
# Velocity P-wave (km/s) = 5.98216 5.27949 5.64178
#
# Compressibility (1/GPa) = 0.02637802
#
# Stress axis : x y z
#
# Youngs Moduli (GPa) = -307.36725 -307.45772 87.64566
#
# Poissons Ratio (x) = 3.66341 0.05165
# Poissons Ratio (y) = 3.66233 0.05159
# Poissons Ratio (z) = -0.18114 -0.18099
#
# Static dielectric constant tensor:
#      x y z
#    x 1.675460 0.000000 0.000000 
#    y 0.000000 1.675460 0.000000 
#    z 0.000000 0.000000 1.694950 
# 
# From -- ./inp_files/488.got.cif
#   From: 2010.05.17/outbox.cif.g08.bks.cpg/sg133_1_cif.got.tgz:488.got - 2010.05.20 12:37:36.
