data_PCOD9567063
_publ_section_title
;
Structure prediction by ZEFSAII (Michael W. Deem and Ramdas Pophale) SiO2 
 PCOD9567063
Probable space group: P 42/M C M
;
_chemical_formula_sum "Si O2"
_cell_formula_units_Z 104
_cell_length_a 20.828224
_cell_length_b 20.828224
_cell_length_c 17.091963
_cell_angle_alpha 90.000000
_cell_angle_beta 90.000000
_cell_angle_gamma 90.000000
_cell_volume 7414.748476
_symmetry_space_group_name_H-M "P 42/M C M"
_symmetry_group_IT_number 132
_symmetry_cell_setting 'tetragonal'
loop_
_space_group_symop_operation_xyz
x,y,z
-y,x,1/2+z
-x,-y,z
y,-x,1/2+z
x,-y,1/2-z
-x,y,1/2-z
y,x,-z
-y,-x,-z
-x,-y,-z
y,-x,1/2-z
x,y,-z
-y,x,1/2-z
-x,y,1/2+z
x,-y,1/2+z
-y,-x,z
y,x,z
loop_
_atom_site_type_symbol
_atom_site_label
_atom_site_fract_x
_atom_site_fract_y
_atom_site_fract_z
Si Si1 0.135559 0.421425 0.406997
Si Si2 0.140820 0.572641 0.406154
Si Si3 0.265805 0.371354 0.835336
Si Si4 0.258827 0.364919 0.351909
Si Si5 0.997802 0.422496 0.660691
Si Si6 0.317579 0.497698 0.593162
Si Si7 0.447202 0.552799 0.088135
O O1 0.142357 0.422330 0.500000
O O2 0.148910 0.496614 0.380758
O O3 0.183646 0.368119 0.372469
O O4 0.062790 0.404644 0.383824
O O5 0.147649 0.573324 0.500000
O O6 0.193610 0.619885 0.368495
O O7 0.069304 0.593079 0.380926
O O8 0.310811 0.310811 0.860722
O O9 0.264833 0.370462 0.741467
O O10 0.295657 0.438211 0.864928
O O11 0.305707 0.305707 0.376582
O O12 0.280154 0.431688 0.392312
O O13 0.000000 0.500000 0.663065
O O14 0.000000 0.398939 0.750000
O O15 0.318892 0.511355 0.500000
O O16 0.386760 0.478961 0.626601
O O17 0.500000 0.500000 0.079210
O O18 0.426022 0.573979 0.000000
#
# Coordination Sequence:
#
# PCOD9567063 Si02
#       7
#    16  16  16  16  16  16   8
#     4  10  19  31  48  68  88 111 142 180 218 263
#     4  10  19  31  48  68  88 111 142 180 218 263
#     4  11  23  34  46  62  85 114 145 182 225 270
#     4  11  22  34  47  62  86 113 145 182 225 270
#     4   9  17  29  47  69  91 113 135 168 216 265
#     4  11  20  32  47  60  77 103 139 182 226 270
#     4   9  18  30  44  58  70  90 127 177 227 271
#
# _framework density 14.026099
#
# number of rings (size 3 to 8) (size 9 to 14) (size 15 to 20)
#    0.000    1.769    2.308    3.231    0.000    5.846 
#    0.000    0.000    0.000    0.000    0.000    0.000 
#    0.000    0.000    0.000    0.000    0.000    0.769 
#
# Total GULP energy -579061.009244 kJ/mol
# GULP energy per Si atom -5567.894320 kJ/mol
# Density = 1.399418 g / cm^3
# Si number density = 14.026099 Si / 1000 Ang^3
#
#
#
# Elastic Constant Matrix: (Units=GPa)
#
#
# Indices 1 2 3 4 5 6 
#
# 1 162.5080 -33.3382 19.6525 0.0000 0.0000 0.0000
# 2 -33.3382 162.5108 19.6556 0.0000 0.0000 0.0000
# 3 19.6525 19.6556 42.9757 0.0000 0.0000 0.0000
# 4 0.0000 0.0000 0.0000 21.0683 0.0000 0.0000
# 5 0.0000 0.0000 0.0000 0.0000 21.0683 0.0000
# 6 0.0000 0.0000 0.0000 0.0000 0.0000 8.5535
#
#
#
# Elastic Compliance Matrix: (Units=1/GPa)
#
#
# Indices 1 2 3 4 5 6 
#
# 1 0.007050 0.001944 -0.004113 0.000000 0.000000 0.000000
# 2 0.001944 0.007050 -0.004113 0.000000 0.000000 0.000000
# 3 -0.004113 -0.004113 0.027031 0.000000 0.000000 0.000000
# 4 0.000000 0.000000 0.000000 0.047465 0.000000 0.000000
# 5 0.000000 0.000000 0.000000 0.000000 0.047465 0.000000
# 6 0.000000 0.000000 0.000000 0.000000 0.000000 0.116911
#
#
# Mechanical properties :
#
#
# Convention : Reuss Voigt Hill
#
# Bulk Modulus (GPa) = 35.00685 42.21492 38.61088
# Shear Modulus (GPa) = 18.17804 34.27299 26.22552
#
# Velocity S-wave (km/s) = 3.60393 4.94856 4.32877
# Velocity P-wave (km/s) = 6.50617 7.92551 7.25065
#
# Compressibility (1/GPa) = 0.02856584
#
# Stress axis : x y z
#
# Youngs Moduli (GPa) = 141.85143 141.85131 36.99477
#
# Poissons Ratio (x) = -0.27571 0.15215
# Poissons Ratio (y) = -0.27571 0.15216
# Poissons Ratio (z) = 0.58339 0.58344
#
# Static dielectric constant tensor:
#      x y z
#    x 1.489810 0.000000 0.000000 
#    y 0.000000 1.489810 0.000000 
#    z 0.000000 0.000000 1.494230 
# 
# From -- ./inp_files/5073.got.cif
#   From: 2010.05.17/outbox.cif.g08.bks.cpg/sg132_3_cif.got.tgz:5073.got - 2010.05.20 12:30:18.
