data_PCOD9567493
_publ_section_title
;
Structure prediction by ZEFSAII (Michael W. Deem and Ramdas Pophale) SiO2 
 PCOD9567493
Probable space group: P 42/M C M
;
_chemical_formula_sum "Si O2"
_cell_formula_units_Z 84
_cell_length_a 12.209069
_cell_length_b 12.209069
_cell_length_c 28.486646
_cell_angle_alpha 90.000000
_cell_angle_beta 90.000000
_cell_angle_gamma 90.000000
_cell_volume 4246.258361
_symmetry_space_group_name_H-M "P 42/M C M"
_symmetry_group_IT_number 132
_symmetry_cell_setting 'tetragonal'
loop_
_space_group_symop_operation_xyz
x,y,z
-y,x,1/2+z
-x,-y,z
y,-x,1/2+z
x,-y,1/2-z
-x,y,1/2-z
y,x,-z
-y,-x,-z
-x,-y,-z
y,-x,1/2-z
x,y,-z
-y,x,1/2-z
-x,y,1/2+z
x,-y,1/2+z
-y,-x,z
y,x,z
loop_
_atom_site_type_symbol
_atom_site_label
_atom_site_fract_x
_atom_site_fract_y
_atom_site_fract_z
Si Si1 0.548041 0.880340 0.801551
Si Si2 0.763204 0.483960 0.892294
Si Si3 0.869037 0.313410 0.556008
Si Si4 0.264658 0.903934 0.893023
Si Si5 0.500000 0.500000 0.403352
Si Si6 0.036782 0.211149 0.196847
O O1 0.500000 0.860846 0.750000
O O2 0.514316 0.789095 0.838345
O O3 0.678414 0.891507 0.800348
O O4 0.500000 0.000000 0.816886
O O5 0.826893 0.571435 0.924181
O O6 0.819641 0.365373 0.897978
O O7 0.635722 0.497214 0.902829
O O8 0.878744 0.316997 0.500000
O O9 0.780357 0.219644 0.568513
O O10 0.984683 0.288730 0.579845
O O11 0.157143 0.842858 0.911155
O O12 0.240998 0.939717 0.839027
O O13 0.109515 0.109515 0.179492
O O14 0.000000 0.188195 0.250000
#
# Coordination Sequence:
#
# PCOD9567493 Si02
#       6
#    16  16  16  16   4  16
#     4  11  20  40  68  95 132 186 239 278 343 408
#     4  12  23  47  70 100 139 180 229 289 347 424
#     4  11  25  46  74 103 136 183 234 284 349 418
#     4  12  25  42  68 101 141 182 229 287 348 411
#     4  12  28  44  78 104 136 182 224 288 370 404
#     4  12  24  39  63  99 135 184 235 286 337 408
#
# _framework density 19.782121
#
# number of rings (size 3 to 8) (size 9 to 14) (size 15 to 20)
#    0.000    0.381    7.619    1.714    1.333    4.381 
#    1.714    2.381    0.000    0.000    0.000    0.000 
#    0.000    0.000    0.000    0.000    0.000    0.000 
#
# Total GULP energy -468588.855802 kJ/mol
# GULP energy per Si atom -5578.438760 kJ/mol
# Density = 1.973710 g / cm^3
# Si number density = 19.782121 Si / 1000 Ang^3
#
#
#
# Elastic Constant Matrix: (Units=GPa)
#
#
# Indices 1 2 3 4 5 6 
#
# 1 157.3254 37.2558 38.2276 0.0000 0.0000 0.0000
# 2 37.2558 157.3254 38.2276 0.0000 0.0000 0.0000
# 3 38.2276 38.2276 62.2033 0.0000 0.0000 0.0000
# 4 0.0000 0.0000 0.0000 38.5256 0.0000 0.0000
# 5 0.0000 0.0000 0.0000 0.0000 38.5256 0.0000
# 6 0.0000 0.0000 0.0000 0.0000 0.0000 14.5867
#
#
#
# Elastic Compliance Matrix: (Units=1/GPa)
#
#
# Indices 1 2 3 4 5 6 
#
# 1 0.007552 -0.000777 -0.004164 0.000000 0.000000 0.000000
# 2 -0.000777 0.007552 -0.004164 0.000000 0.000000 0.000000
# 3 -0.004164 -0.004164 0.021194 0.000000 0.000000 0.000000
# 4 0.000000 0.000000 0.000000 0.025957 0.000000 0.000000
# 5 0.000000 0.000000 0.000000 0.000000 0.025957 0.000000
# 6 0.000000 0.000000 0.000000 0.000000 0.000000 0.068556
#
#
# Mechanical properties :
#
#
# Convention : Reuss Voigt Hill
#
# Bulk Modulus (GPa) = 55.28082 67.14180 61.21131
# Shear Modulus (GPa) = 27.62346 35.87044 31.74695
#
# Velocity S-wave (km/s) = 3.74088 4.26288 4.01038
# Velocity P-wave (km/s) = 6.83113 7.63176 7.24252
#
# Compressibility (1/GPa) = 0.01808946
#
# Stress axis : x y z
#
# Youngs Moduli (GPa) = 132.41697 132.41697 47.18279
#
# Poissons Ratio (x) = 0.10283 0.19646
# Poissons Ratio (y) = 0.10283 0.19646
# Poissons Ratio (z) = 0.55136 0.55136
#
# Static dielectric constant tensor:
#      x y z
#    x 1.696920 0.000000 0.000000 
#    y 0.000000 1.696920 0.000000 
#    z 0.000000 0.000000 1.688760 
# 
# From -- ./inp_files/10762.got.cif
#   From: 2010.05.17/outbox.cif.g08.bks.cpg/sg132_6_cif.got.tgz:10762.got - 2010.05.20 12:30:18.
