data_PCOD9567263
_publ_section_title
;
Structure prediction by ZEFSAII (Michael W. Deem and Ramdas Pophale) SiO2 
 PCOD9567263
Probable space group: P 42/M C M
;
_chemical_formula_sum "Si O2"
_cell_formula_units_Z 96
_cell_length_a 24.715772
_cell_length_b 24.715772
_cell_length_c 8.823241
_cell_angle_alpha 90.000000
_cell_angle_beta 90.000000
_cell_angle_gamma 90.000000
_cell_volume 5389.847808
_symmetry_space_group_name_H-M "P 42/M C M"
_symmetry_group_IT_number 132
_symmetry_cell_setting 'tetragonal'
loop_
_space_group_symop_operation_xyz
x,y,z
-y,x,1/2+z
-x,-y,z
y,-x,1/2+z
x,-y,1/2-z
-x,y,1/2-z
y,x,-z
-y,-x,-z
-x,-y,-z
y,-x,1/2-z
x,y,-z
-y,x,1/2-z
-x,y,1/2+z
x,-y,1/2+z
-y,-x,z
y,x,z
loop_
_atom_site_type_symbol
_atom_site_label
_atom_site_fract_x
_atom_site_fract_y
_atom_site_fract_z
Si Si1 0.943468 0.440564 0.818758
Si Si2 0.732260 0.356528 0.182694
Si Si3 0.268706 0.942503 0.318767
Si Si4 0.857448 0.349579 0.182262
Si Si5 0.056637 0.856817 0.682270
Si Si6 0.351092 0.440178 0.181604
O O1 0.935970 0.500000 0.750000
O O2 0.892277 0.403206 0.782249
O O3 0.000000 0.419051 0.750000
O O4 0.949134 0.443702 0.000000
O O5 0.697270 0.302731 0.219956
O O6 0.794859 0.352610 0.230499
O O7 0.700284 0.406659 0.255918
O O8 0.731076 0.362839 0.000000
O O9 0.273011 0.945299 0.500000
O O10 0.301936 0.891960 0.256804
O O11 0.205783 0.935960 0.274575
O O12 0.287272 0.000000 0.250000
O O13 0.858011 0.342734 0.000000
O O14 0.053672 0.858774 0.500000
O O15 0.105709 0.894292 0.733325
O O16 0.000000 0.876075 0.750000
O O17 0.353843 0.500000 0.250000
O O18 0.403682 0.403682 0.222052
O O19 0.348008 0.443288 0.000000
#
# Coordination Sequence:
#
# PCOD9567263 Si02
#       6
#    16  16  16  16  16  16
#     4  10  20  34  51  72 101 132 165 206 252 300
#     4   9  19  37  57  77 107 144 178 216 263 312
#     4  10  20  34  53  75 101 135 172 215 265 314
#     4  10  21  35  53  79 106 135 174 216 258 310
#     4   9  19  35  52  73 102 133 168 211 259 312
#     4  10  21  37  58  84 113 145 181 221 265 313
#
# _framework density 17.811263
#
# number of rings (size 3 to 8) (size 9 to 14) (size 15 to 20)
#    0.000    2.333    0.000    2.500    0.000    7.000 
#    0.000    3.333    0.000    0.000    0.000    0.000 
#    0.000    0.000    0.000    0.000    0.000    0.000 
#
# Total GULP energy -535725.906142 kJ/mol
# GULP energy per Si atom -5580.478189 kJ/mol
# Density = 1.777072 g / cm^3
# Si number density = 17.811263 Si / 1000 Ang^3
#
#
#
# Elastic Constant Matrix: (Units=GPa)
#
#
# Indices 1 2 3 4 5 6 
#
# 1 163.0262 94.7959 47.1519 0.0000 0.0000 0.0000
# 2 94.7959 163.0262 47.1519 0.0000 0.0000 0.0000
# 3 47.1519 47.1519 28.3095 0.0000 0.0000 0.0000
# 4 0.0000 0.0000 0.0000 23.1434 0.0000 0.0000
# 5 0.0000 0.0000 0.0000 0.0000 23.1434 0.0000
# 6 0.0000 0.0000 0.0000 0.0000 0.0000 24.4638
#
#
#
# Elastic Compliance Matrix: (Units=1/GPa)
#
#
# Indices 1 2 3 4 5 6 
#
# 1 0.012291 -0.002365 -0.016532 0.000000 0.000000 0.000000
# 2 -0.002365 0.012291 -0.016532 0.000000 0.000000 0.000000
# 3 -0.016532 -0.016532 0.090393 0.000000 0.000000 0.000000
# 4 0.000000 0.000000 0.000000 0.043209 0.000000 0.000000
# 5 0.000000 0.000000 0.000000 0.000000 0.043209 0.000000
# 6 0.000000 0.000000 0.000000 0.000000 0.000000 0.040877
#
#
# Mechanical properties :
#
#
# Convention : Reuss Voigt Hill
#
# Bulk Modulus (GPa) = 22.66663 81.39569 52.03116
# Shear Modulus (GPa) = 15.25168 25.16760 20.20964
#
# Velocity S-wave (km/s) = 2.92943 3.76309 3.37212
# Velocity P-wave (km/s) = 4.91891 8.04235 6.66615
#
# Compressibility (1/GPa) = 0.04411772
#
# Stress axis : x y z
#
# Youngs Moduli (GPa) = 81.36150 81.36150 11.06276
#
# Poissons Ratio (x) = 0.19245 0.18289
# Poissons Ratio (y) = 0.19245 0.18289
# Poissons Ratio (z) = 1.34504 1.34504
#
# Static dielectric constant tensor:
#      x y z
#    x 1.596790 0.000000 0.000000 
#    y 0.000000 1.596790 0.000000 
#    z 0.000000 0.000000 1.596560 
# 
# From -- ./inp_files/1740.got.cif
#   From: 2010.05.17/outbox.cif.g08.bks.cpg/sg132_1_cif.got.tgz:1740.got - 2010.05.20 12:30:18.
