data_PCOD9567289
_publ_section_title
;
Structure prediction by ZEFSAII (Michael W. Deem and Ramdas Pophale) SiO2 
 PCOD9567289
Probable space group: P 42/M C M
;
_chemical_formula_sum "Si O2"
_cell_formula_units_Z 88
_cell_length_a 18.853793
_cell_length_b 18.853793
_cell_length_c 14.225075
_cell_angle_alpha 90.000000
_cell_angle_beta 90.000000
_cell_angle_gamma 90.000000
_cell_volume 5056.523547
_symmetry_space_group_name_H-M "P 42/M C M"
_symmetry_group_IT_number 132
_symmetry_cell_setting 'tetragonal'
loop_
_space_group_symop_operation_xyz
x,y,z
-y,x,1/2+z
-x,-y,z
y,-x,1/2+z
x,-y,1/2-z
-x,y,1/2-z
y,x,-z
-y,-x,-z
-x,-y,-z
y,-x,1/2-z
x,y,-z
-y,x,1/2-z
-x,y,1/2+z
x,-y,1/2+z
-y,-x,z
y,x,z
loop_
_atom_site_type_symbol
_atom_site_label
_atom_site_fract_x
_atom_site_fract_y
_atom_site_fract_z
Si Si1 0.772695 0.467265 0.112826
Si Si2 0.819175 0.937059 0.179785
Si Si3 0.885237 0.004629 0.000000
Si Si4 0.610544 0.275455 0.705940
Si Si5 0.468605 0.074630 0.113274
Si Si6 0.679631 0.858559 0.886097
O O1 0.730876 0.538515 0.144594
O O2 0.746092 0.408291 0.186416
O O3 0.855576 0.484711 0.135482
O O4 0.765925 0.454586 0.000000
O O5 0.885324 0.885324 0.207399
O O6 0.841745 0.981940 0.089416
O O7 0.752359 0.889135 0.153457
O O8 0.801244 0.000000 0.250000
O O9 0.951258 0.951258 0.000000
O O10 0.916629 0.083372 0.000000
O O11 0.649334 0.350667 0.702682
O O12 0.661493 0.216774 0.659507
O O13 0.387585 0.091484 0.140582
O O14 0.500000 0.000000 0.146640
O O15 0.467833 0.071646 0.000000
O O16 0.682758 0.853240 0.000000
#
# Coordination Sequence:
#
# PCOD9567289 Si02
#       6
#    16  16   8  16  16  16
#     4   9  19  35  54  82 114 145 185 229 272 331
#     4  11  22  35  53  77 104 137 184 239 289 341
#     4   9  18  34  54  72  93 130 178 230 288 337
#     4  10  20  34  56  83 112 146 183 225 273 328
#     4   8  15  30  53  78 106 138 173 215 266 326
#     4  10  20  35  55  81 110 141 182 229 280 336
#
# _framework density 17.403262000000002
#
# number of rings (size 3 to 8) (size 9 to 14) (size 15 to 20)
#    0.000    2.455    0.909    2.727    0.000    4.909 
#    0.000    6.364    2.000    4.364    0.000    5.091 
#    0.000    0.000    0.000    0.000    0.000    0.000 
#
# Total GULP energy -490267.116286 kJ/mol
# GULP energy per Si atom -5571.217231 kJ/mol
# Density = 1.736365 g / cm^3
# Si number density = 17.403262 Si / 1000 Ang^3
#
#
#
# Elastic Constant Matrix: (Units=GPa)
#
#
# Indices 1 2 3 4 5 6 
#
# 1 39.7018 67.2938 23.6668 0.0000 0.0000 0.0000
# 2 67.2938 39.7015 23.6628 0.0000 0.0000 0.0000
# 3 23.6668 23.6628 96.7979 0.0000 0.0000 0.0000
# 4 0.0000 0.0000 0.0000 23.0211 0.0000 0.0000
# 5 0.0000 0.0000 0.0000 0.0000 23.0215 0.0000
# 6 0.0000 0.0000 0.0000 0.0000 0.0000 33.0346
#
#
#
# Elastic Compliance Matrix: (Units=1/GPa)
#
#
# Indices 1 2 3 4 5 6 
#
# 1 -0.012882 0.023361 -0.002561 0.000000 0.000000 0.000000
# 2 0.023361 -0.012881 -0.002563 0.000000 0.000000 0.000000
# 3 -0.002561 -0.002563 0.011583 0.000000 0.000000 0.000000
# 4 0.000000 0.000000 0.000000 0.043438 0.000000 0.000000
# 5 0.000000 0.000000 0.000000 0.000000 0.043438 0.000000
# 6 0.000000 0.000000 0.000000 0.000000 0.000000 0.030271
#
#
# Mechanical properties :
#
#
# Convention : Reuss Voigt Hill
#
# Bulk Modulus (GPa) = 44.85406 45.04978 44.95192
# Shear Modulus (GPa) = 67.63542 19.92064 43.77803
#
# Velocity S-wave (km/s) = 6.24083 3.38694 5.02092
# Velocity P-wave (km/s) = 8.81816 6.42162 7.71353
#
# Compressibility (1/GPa) = 0.02229452
#
# Stress axis : x y z
#
# Youngs Moduli (GPa) = -77.62955 -77.63353 86.32978
#
# Poissons Ratio (x) = 1.81359 0.22110
# Poissons Ratio (y) = 1.81349 0.22125
# Poissons Ratio (z) = -0.19882 -0.19896
#
# Static dielectric constant tensor:
#      x y z
#    x 1.602050 0.000000 0.000000 
#    y 0.000000 1.602050 0.000000 
#    z 0.000000 0.000000 1.561330 
# 
# From -- ./inp_files/4777.got.cif
#   From: 2010.05.17/outbox.cif.g08.bks.cpg/sg132_3_cif.got.tgz:4777.got - 2010.05.20 12:30:18.
