data_PCOD9567895
_publ_section_title
;
Structure prediction by ZEFSAII (Michael W. Deem and Ramdas Pophale) SiO2 
 PCOD9567895
Probable space group: P 42/N B C
;
_chemical_formula_sum "Si O2"
_cell_formula_units_Z 112
_cell_length_a 15.552255
_cell_length_b 15.552255
_cell_length_c 23.302574
_cell_angle_alpha 90.000000
_cell_angle_beta 90.000000
_cell_angle_gamma 90.000000
_cell_volume 5636.254989
_symmetry_space_group_name_H-M "P 42/N B C"
_symmetry_group_IT_number 133
_space_group.IT_coordinate_system_code '2'
_symmetry_cell_setting 'tetragonal'
loop_
_space_group_symop_operation_xyz
x,y,z
1/2-y,x,1/2+z
1/2-x,1/2-y,z
y,1/2-x,1/2+z
x,1/2-y,-z
1/2-x,y,-z
y,x,1/2-z
1/2-y,1/2-x,1/2-z
-x,-y,-z
1/2+y,-x,1/2-z
1/2+x,1/2+y,-z
-y,1/2+x,1/2-z
-x,1/2+y,z
1/2+x,-y,z
-y,-x,1/2+z
1/2+y,1/2+x,1/2+z
loop_
_atom_site_type_symbol
_atom_site_label
_atom_site_fract_x
_atom_site_fract_y
_atom_site_fract_z
Si Si1 0.619001 0.300012 0.747113
Si Si2 0.508237 0.151630 0.143676
Si Si3 0.801350 0.486685 0.445109
Si Si4 0.003486 0.761207 0.362012
Si Si5 0.929971 0.155961 0.525170
Si Si6 0.178565 0.185073 0.681549
Si Si7 0.926055 0.984553 0.917468
O O1 0.705029 0.352575 0.733007
O O2 0.564185 0.344905 0.797687
O O3 0.568952 0.283368 0.688452
O O4 0.535858 0.227912 0.100882
O O5 0.411650 0.179063 0.159321
O O6 0.514321 0.058637 0.111935
O O7 0.750000 0.527238 0.500000
O O8 0.844843 0.398788 0.466022
O O9 0.885593 0.539311 0.420402
O O10 0.911492 0.777904 0.336337
O O11 0.023532 0.823124 0.415292
O O12 0.999979 0.663026 0.383252
O O13 0.911525 0.250000 0.500000
O O14 0.988548 0.100034 0.482170
O O15 0.250000 0.250000 0.658096
O O16 0.184209 0.184209 0.750000
#
# Coordination Sequence:
#
# PCOD9567895 Si02
#       7
#    16  16  16  16  16  16  16
#     4  11  23  41  67 101 138 175 223 287 347 409
#     4  12  24  44  69  98 133 182 228 276 353 405
#     4  12  25  41  66  99 135 173 229 279 338 409
#     4  11  22  44  66  96 135 174 228 276 347 409
#     4  10  23  43  69  94 131 177 217 278 347 404
#     4  11  24  42  67  95 134 179 226 279 337 403
#     4  11  24  45  66  98 135 178 227 286 336 418
#
# _framework density 19.87135
#
# number of rings (size 3 to 8) (size 9 to 14) (size 15 to 20)
#    0.000    0.857    4.286    3.000    2.000    0.286 
#    0.000    0.000    0.000    0.000    0.000    0.000 
#    0.000    0.000    0.000    0.000    0.000    0.000 
#
# Total GULP energy -625147.390161 kJ/mol
# GULP energy per Si atom -5581.673126 kJ/mol
# Density = 1.982612 g / cm^3
# Si number density = 19.871350 Si / 1000 Ang^3
#
#
#
# Elastic Constant Matrix: (Units=GPa)
#
#
# Indices 1 2 3 4 5 6 
#
# 1 98.5212 23.9455 38.7073 0.0000 0.0000 0.0000
# 2 23.9455 98.5212 38.7073 0.0000 0.0000 0.0000
# 3 38.7073 38.7073 110.7589 0.0000 0.0000 0.0000
# 4 0.0000 0.0000 0.0000 20.1557 0.0000 0.0000
# 5 0.0000 0.0000 0.0000 0.0000 20.1557 0.0000
# 6 0.0000 0.0000 0.0000 0.0000 0.0000 20.2209
#
#
#
# Elastic Compliance Matrix: (Units=1/GPa)
#
#
# Indices 1 2 3 4 5 6 
#
# 1 0.011945 -0.001464 -0.003663 0.000000 0.000000 0.000000
# 2 -0.001464 0.011945 -0.003663 0.000000 0.000000 0.000000
# 3 -0.003663 -0.003663 0.011589 0.000000 0.000000 0.000000
# 4 0.000000 0.000000 0.000000 0.049614 0.000000 0.000000
# 5 0.000000 0.000000 0.000000 0.000000 0.049614 0.000000
# 6 0.000000 0.000000 0.000000 0.000000 0.000000 0.049454
#
#
# Mechanical properties :
#
#
# Convention : Reuss Voigt Hill
#
# Bulk Modulus (GPa) = 55.86821 56.72462 56.29642
# Shear Modulus (GPa) = 24.07252 25.86922 24.97087
#
# Velocity S-wave (km/s) = 3.48432 3.61201 3.54874
# Velocity P-wave (km/s) = 6.66058 6.78258 6.72186
#
# Compressibility (1/GPa) = 0.01789927
#
# Stress axis : x y z
#
# Youngs Moduli (GPa) = 83.71698 83.71698 86.29094
#
# Poissons Ratio (x) = 0.12258 0.31606
# Poissons Ratio (y) = 0.12258 0.31606
# Poissons Ratio (z) = 0.30664 0.30664
#
# Static dielectric constant tensor:
#      x y z
#    x 1.737940 0.000000 0.000000 
#    y 0.000000 1.737940 0.000000 
#    z 0.000000 0.000000 1.755760 
# 
# From -- ./inp_files/7241.got.cif
#   From: 2010.05.17/outbox.cif.g08.bks.cpg/sg133_4_cif.got.tgz:7241.got - 2010.05.20 12:37:36.
