data_PCOD9567936
_publ_section_title
;
Structure prediction by ZEFSAII (Michael W. Deem and Ramdas Pophale) SiO2 
 PCOD9567936
Probable space group: P 42/N B C
;
_chemical_formula_sum "Si O2"
_cell_formula_units_Z 64
_cell_length_a 15.709373
_cell_length_b 15.709373
_cell_length_c 11.455942
_cell_angle_alpha 90.000000
_cell_angle_beta 90.000000
_cell_angle_gamma 90.000000
_cell_volume 2827.147774
_symmetry_space_group_name_H-M "P 42/N B C"
_symmetry_group_IT_number 133
_space_group.IT_coordinate_system_code '2'
_symmetry_cell_setting 'tetragonal'
loop_
_space_group_symop_operation_xyz
x,y,z
1/2-y,x,1/2+z
1/2-x,1/2-y,z
y,1/2-x,1/2+z
x,1/2-y,-z
1/2-x,y,-z
y,x,1/2-z
1/2-y,1/2-x,1/2-z
-x,-y,-z
1/2+y,-x,1/2-z
1/2+x,1/2+y,-z
-y,1/2+x,1/2-z
-x,1/2+y,z
1/2+x,-y,z
-y,-x,1/2+z
1/2+y,1/2+x,1/2+z
loop_
_atom_site_type_symbol
_atom_site_label
_atom_site_fract_x
_atom_site_fract_y
_atom_site_fract_z
Si Si1 0.186388 0.455233 0.276041
Si Si2 0.842554 0.401300 0.525458
Si Si3 0.015771 0.161340 0.518013
Si Si4 0.043133 0.122290 0.145409
O O1 0.128125 0.371876 0.250000
O O2 0.164951 0.523918 0.377353
O O3 0.167486 0.502380 0.154696
O O4 0.284555 0.429637 0.305585
O O5 0.750000 0.361436 0.500000
O O6 0.925492 0.344800 0.548962
O O7 0.864792 0.450273 0.405499
O O8 0.062658 0.250000 0.500000
O O9 0.079019 0.092838 0.462979
O O10 0.056345 0.056345 0.250000
#
# Coordination Sequence:
#
# PCOD9567936 Si02
#       4
#    16  16  16  16
#     4  11  24  42  67  98 132 177 223 280 342 405
#     4  10  25  43  67  97 132 173 233 284 335 409
#     4  12  25  42  67  99 133 180 223 276 351 407
#     4  11  23  42  64  98 133 170 223 278 331 412
#
# _framework density 22.637656
#
# number of rings (size 3 to 8) (size 9 to 14) (size 15 to 20)
#    0.000    1.000    5.000    0.750    3.500    1.000 
#    0.000    1.250    0.000    3.000    0.000    0.000 
#    0.000    0.000    0.000    0.000    0.000    0.000 
#
# Total GULP energy -356294.607734 kJ/mol
# GULP energy per Si atom -5567.103246 kJ/mol
# Density = 2.258613 g / cm^3
# Si number density = 22.637656 Si / 1000 Ang^3
#
#
#
# Elastic Constant Matrix: (Units=GPa)
#
#
# Indices 1 2 3 4 5 6 
#
# 1 58.7593 54.5431 14.4994 0.0000 0.0000 0.0000
# 2 54.5431 58.7595 14.4987 0.0000 0.0000 0.0000
# 3 14.4994 14.4987 116.9317 0.0000 0.0000 0.0000
# 4 0.0000 0.0000 0.0000 10.3439 0.0000 0.0000
# 5 0.0000 0.0000 0.0000 0.0000 10.3443 0.0000
# 6 0.0000 0.0000 0.0000 0.0000 0.0000 -1.7863
#
#
#
# Elastic Compliance Matrix: (Units=1/GPa)
#
#
# Indices 1 2 3 4 5 6 
#
# 1 0.123145 -0.114029 -0.001131 0.000000 0.000000 0.000000
# 2 -0.114029 0.123144 -0.001129 0.000000 0.000000 0.000000
# 3 -0.001131 -0.001129 0.008832 0.000000 0.000000 0.000000
# 4 0.000000 0.000000 0.000000 0.096676 0.000000 0.000000
# 5 0.000000 0.000000 0.000000 0.000000 0.096672 0.000000
# 6 0.000000 0.000000 0.000000 0.000000 0.000000 -0.559819
#
#
# Mechanical properties :
#
#
# Convention : Reuss Voigt Hill
#
# Bulk Modulus (GPa) = 44.36224 44.61479 44.48851
# Shear Modulus (GPa) = 38.83680 13.84098 26.33889
#
# Velocity S-wave (km/s) = 4.14645 2.47536 3.41471
# Velocity P-wave (km/s) = 6.52406 5.28402 5.93651
#
# Compressibility (1/GPa) = 0.02254169
#
# Stress axis : x y z
#
# Youngs Moduli (GPa) = 8.12051 8.12057 113.22088
#
# Poissons Ratio (x) = 0.92598 0.12805
# Poissons Ratio (y) = 0.92598 0.12788
# Poissons Ratio (z) = 0.00918 0.00917
#
# Static dielectric constant tensor:
#      x y z
#    x 1.976390 0.000000 0.000000 
#    y 0.000000 1.976380 0.000000 
#    z 0.000000 0.000000 2.165900 
# 
# From -- ./inp_files/2945.got.cif
#   From: 2010.05.17/outbox.cif.g08.bks.cpg/sg133_2_cif.got.tgz:2945.got - 2010.05.20 12:37:36.
