data_PCOD9567388
_publ_section_title
;
Structure prediction by ZEFSAII (Michael W. Deem and Ramdas Pophale) SiO2 
 PCOD9567388
Probable space group: P 42/M C M
;
_chemical_formula_sum "Si O2"
_cell_formula_units_Z 64
_cell_length_a 13.852259
_cell_length_b 13.852259
_cell_length_c 19.475371
_cell_angle_alpha 90.000000
_cell_angle_beta 90.000000
_cell_angle_gamma 90.000000
_cell_volume 3737.033111
_symmetry_space_group_name_H-M "P 42/M C M"
_symmetry_group_IT_number 132
_symmetry_cell_setting 'tetragonal'
loop_
_space_group_symop_operation_xyz
x,y,z
-y,x,1/2+z
-x,-y,z
y,-x,1/2+z
x,-y,1/2-z
-x,y,1/2-z
y,x,-z
-y,-x,-z
-x,-y,-z
y,-x,1/2-z
x,y,-z
-y,x,1/2-z
-x,y,1/2+z
x,-y,1/2+z
-y,-x,z
y,x,z
loop_
_atom_site_type_symbol
_atom_site_label
_atom_site_fract_x
_atom_site_fract_y
_atom_site_fract_z
Si Si1 0.435089 0.270589 0.181167
Si Si2 0.726562 0.882334 0.177661
Si Si3 0.762543 0.599076 0.422090
Si Si4 0.898862 0.258338 0.843029
O O1 0.500000 0.265910 0.250000
O O2 0.357846 0.357846 0.187438
O O3 0.374214 0.172940 0.168643
O O4 0.507255 0.278646 0.117637
O O5 0.811128 0.811128 0.153598
O O6 0.735371 0.890463 0.260471
O O7 0.738913 0.986949 0.144072
O O8 0.792925 0.577601 0.500000
O O9 0.678436 0.678436 0.424190
O O10 0.847080 0.650589 0.378431
O O11 0.837606 0.162395 0.863832
#
# Coordination Sequence:
#
# PCOD9567388 Si02
#       4
#    16  16  16  16
#     4  11  21  35  54  77 107 140 179 226 270 313
#     4   9  18  32  53  81 108 134 171 221 268 311
#     4  10  21  37  55  77 108 143 179 221 266 315
#     4   9  17  33  54  78 108 139 173 213 264 318
#
# _framework density 17.125886000000001
#
# number of rings (size 3 to 8) (size 9 to 14) (size 15 to 20)
#    0.000    2.250    2.500    0.750    0.000    3.750 
#    0.000    6.250    0.000    2.250    0.000    3.500 
#    0.000    0.000    0.000    0.000    0.000    0.000 
#
# Total GULP energy -356548.863242 kJ/mol
# GULP energy per Si atom -5571.075988 kJ/mol
# Density = 1.708691 g / cm^3
# Si number density = 17.125886 Si / 1000 Ang^3
#
#
#
# Elastic Constant Matrix: (Units=GPa)
#
#
# Indices 1 2 3 4 5 6 
#
# 1 101.0797 22.0038 19.2699 0.0000 0.0000 0.0000
# 2 22.0038 101.0797 19.2699 0.0000 0.0000 0.0000
# 3 19.2699 19.2699 40.6845 0.0000 0.0000 0.0000
# 4 0.0000 0.0000 0.0000 12.6173 0.0000 0.0000
# 5 0.0000 0.0000 0.0000 0.0000 12.6173 0.0000
# 6 0.0000 0.0000 0.0000 0.0000 0.0000 8.4578
#
#
#
# Elastic Compliance Matrix: (Units=1/GPa)
#
#
# Indices 1 2 3 4 5 6 
#
# 1 0.011093 -0.001553 -0.004518 0.000000 0.000000 0.000000
# 2 -0.001553 0.011093 -0.004518 0.000000 0.000000 0.000000
# 3 -0.004518 -0.004518 0.028859 0.000000 0.000000 0.000000
# 4 0.000000 0.000000 0.000000 0.079256 0.000000 0.000000
# 5 0.000000 0.000000 0.000000 0.000000 0.079256 0.000000
# 6 0.000000 0.000000 0.000000 0.000000 0.000000 0.118234
#
#
# Mechanical properties :
#
#
# Convention : Reuss Voigt Hill
#
# Bulk Modulus (GPa) = 33.48383 40.43678 36.96031
# Shear Modulus (GPa) = 13.93045 18.89185 16.41115
#
# Velocity S-wave (km/s) = 2.85514 3.32492 3.09895
# Velocity P-wave (km/s) = 5.51934 6.19701 5.86796
#
# Compressibility (1/GPa) = 0.02986516
#
# Stress axis : x y z
#
# Youngs Moduli (GPa) = 90.14951 90.14951 34.65078
#
# Poissons Ratio (x) = 0.14004 0.15656
# Poissons Ratio (y) = 0.14004 0.15656
# Poissons Ratio (z) = 0.40731 0.40731
#
# Static dielectric constant tensor:
#      x y z
#    x 1.586590 0.000000 0.000000 
#    y 0.000000 1.586590 0.000000 
#    z 0.000000 0.000000 1.572040 
# 
# From -- ./inp_files/7436.got.cif
#   From: 2010.05.17/outbox.cif.g08.bks.cpg/sg132_4_cif.got.tgz:7436.got - 2010.05.20 12:30:18.
