data_PCOD9567079
_publ_section_title
;
Structure prediction by ZEFSAII (Michael W. Deem and Ramdas Pophale) SiO2 
 PCOD9567079
Probable space group: P 42/M C M
;
_chemical_formula_sum "Si O2"
_cell_formula_units_Z 72
_cell_length_a 14.867605
_cell_length_b 14.867605
_cell_length_c 14.773490
_cell_angle_alpha 90.000000
_cell_angle_beta 90.000000
_cell_angle_gamma 90.000000
_cell_volume 3265.616120
_symmetry_space_group_name_H-M "P 42/M C M"
_symmetry_group_IT_number 132
_symmetry_cell_setting 'tetragonal'
loop_
_space_group_symop_operation_xyz
x,y,z
-y,x,1/2+z
-x,-y,z
y,-x,1/2+z
x,-y,1/2-z
-x,y,1/2-z
y,x,-z
-y,-x,-z
-x,-y,-z
y,-x,1/2-z
x,y,-z
-y,x,1/2-z
-x,y,1/2+z
x,-y,1/2+z
-y,-x,z
y,x,z
loop_
_atom_site_type_symbol
_atom_site_label
_atom_site_fract_x
_atom_site_fract_y
_atom_site_fract_z
Si Si1 0.778805 0.082563 0.865804
Si Si2 0.573816 0.426185 0.609564
Si Si3 0.440421 0.216432 0.109611
Si Si4 0.770436 0.633156 0.397220
Si Si5 0.259642 0.884385 0.346253
O O1 0.877074 0.122927 0.888524
O O2 0.705562 0.151239 0.903480
O O3 0.765124 0.096025 0.758072
O O4 0.756679 0.980893 0.891798
O O5 0.500000 0.500000 0.641440
O O6 0.570144 0.429857 0.500000
O O7 0.677791 0.441560 0.634696
O O8 0.540844 0.189736 0.139991
O O9 0.358945 0.157991 0.148485
O O10 0.429413 0.208845 0.000000
O O11 0.741105 0.610116 0.500000
O O12 0.685204 0.685204 0.352910
O O13 0.191277 0.808724 0.381489
#
# Coordination Sequence:
#
# PCOD9567079 Si02
#       5
#    16   8  16  16  16
#     4   9  20  37  55  75  99 136 178 218 269 322
#     4   9  16  28  48  76 107 139 176 210 247 304
#     4  10  19  31  51  79 108 140 173 214 265 311
#     4   9  18  34  54  76 103 137 178 218 256 309
#     4  10  20  35  54  77 105 134 171 220 272 321
#
# _framework density 22.047908
#
# number of rings (size 3 to 8) (size 9 to 14) (size 15 to 20)
#    0.000    2.556    1.111    0.667    0.000    5.778 
#    0.000    6.667    0.000    0.000    0.000    4.667 
#    0.000    0.000    0.000    0.000    0.000    0.000 
#
# Total GULP energy -401406.398001 kJ/mol
# GULP energy per Si atom -5575.088861 kJ/mol
# Density = 2.199773 g / cm^3
# Si number density = 22.047908 Si / 1000 Ang^3
#
#
#
# Elastic Constant Matrix: (Units=GPa)
#
#
# Indices 1 2 3 4 5 6 
#
# 1 175.9669 92.6148 7.1739 0.0000 0.0000 0.0000
# 2 92.6148 175.9668 7.1740 0.0000 0.0000 0.0000
# 3 7.1739 7.1740 47.9932 0.0000 0.0000 0.0000
# 4 0.0000 0.0000 0.0000 -1.3657 0.0000 0.0000
# 5 0.0000 0.0000 0.0000 0.0000 -1.3656 0.0000
# 6 0.0000 0.0000 0.0000 0.0000 0.0000 25.2316
#
#
#
# Elastic Compliance Matrix: (Units=1/GPa)
#
#
# Indices 1 2 3 4 5 6 
#
# 1 0.007875 -0.004122 -0.000561 0.000000 0.000000 0.000000
# 2 -0.004122 0.007875 -0.000561 0.000000 0.000000 0.000000
# 3 -0.000561 -0.000561 0.021004 0.000000 0.000000 0.000000
# 4 0.000000 0.000000 0.000000 -0.732242 0.000000 0.000000
# 5 0.000000 0.000000 0.000000 0.000000 -0.732257 0.000000
# 6 0.000000 0.000000 0.000000 0.000000 0.000000 0.039633
#
#
# Mechanical properties :
#
#
# Convention : Reuss Voigt Hill
#
# Bulk Modulus (GPa) = 38.07152 68.20582 53.13867
# Shear Modulus (GPa) = -3.65265 24.03099 10.18917
#
# Velocity S-wave (km/s) = -1.28852 3.30501 2.15207
# Velocity P-wave (km/s) = 3.88477 6.75030 5.50718
#
# Compressibility (1/GPa) = 0.02626635
#
# Stress axis : x y z
#
# Youngs Moduli (GPa) = 126.97981 126.97969 47.60999
#
# Poissons Ratio (x) = 0.52342 0.02671
# Poissons Ratio (y) = 0.52342 0.02671
# Poissons Ratio (z) = 0.07124 0.07124
#
# Static dielectric constant tensor:
#      x y z
#    x 1.829360 0.000000 0.000000 
#    y 0.000000 1.829360 0.000000 
#    z 0.000000 0.000000 1.980300 
# 
# From -- ./inp_files/6083.got.cif
#   From: 2010.05.17/outbox.cif.g08.bks.cpg/sg132_4_cif.got.tgz:6083.got - 2010.05.20 12:30:18.
