data_PCOD9567175
_publ_section_title
;
Structure prediction by ZEFSAII (Michael W. Deem and Ramdas Pophale) SiO2 
 PCOD9567175
Probable space group: P 42/M C M
;
_chemical_formula_sum "Si O2"
_cell_formula_units_Z 116
_cell_length_a 28.443029
_cell_length_b 28.443029
_cell_length_c 7.779967
_cell_angle_alpha 90.000000
_cell_angle_beta 90.000000
_cell_angle_gamma 90.000000
_cell_volume 6294.039195
_symmetry_space_group_name_H-M "P 42/M C M"
_symmetry_group_IT_number 132
_symmetry_cell_setting 'tetragonal'
loop_
_space_group_symop_operation_xyz
x,y,z
-y,x,1/2+z
-x,-y,z
y,-x,1/2+z
x,-y,1/2-z
-x,y,1/2-z
y,x,-z
-y,-x,-z
-x,-y,-z
y,-x,1/2-z
x,y,-z
-y,x,1/2-z
-x,y,1/2+z
x,-y,1/2+z
-y,-x,z
y,x,z
loop_
_atom_site_type_symbol
_atom_site_label
_atom_site_fract_x
_atom_site_fract_y
_atom_site_fract_z
Si Si1 0.242518 0.351408 0.703296
Si Si2 0.446729 0.195477 0.205545
Si Si3 0.945689 0.869849 0.704804
Si Si4 0.086126 0.552734 0.704810
Si Si5 0.855283 0.308097 0.197651
Si Si6 0.350738 0.948588 0.804982
Si Si7 0.311770 0.311770 0.000000
Si Si8 0.796111 0.872673 0.202237
O O1 0.253246 0.340165 0.500000
O O2 0.226749 0.405922 0.713319
O O3 0.195858 0.322322 0.764474
O O4 0.281722 0.339416 0.844708
O O5 0.500000 0.209887 0.250000
O O6 0.441634 0.140740 0.261918
O O7 0.441202 0.196357 0.000000
O O8 0.941740 0.868860 0.500000
O O9 0.912957 0.912957 0.770065
O O10 0.922521 0.821657 0.771852
O O11 0.000000 0.875326 0.750000
O O12 0.071412 0.500000 0.750000
O O13 0.084062 0.558754 0.500000
O O14 0.055538 0.593201 0.789981
O O15 0.901140 0.331583 0.283872
O O16 0.864669 0.252806 0.205355
O O17 0.852512 0.324621 0.000000
O O18 0.335006 0.000000 0.750000
O O19 0.334947 0.945050 0.000000
O O20 0.834116 0.834116 0.261811
O O21 0.787737 0.865806 0.000000
#
# Coordination Sequence:
#
# PCOD9567175 Si02
#       8
#    16  16  16  16  16  16   4  16
#     4  11  23  40  61  89 124 165 209 258 313 369
#     4  10  19  34  59  89 121 159 208 262 308 363
#     4  10  21  38  59  82 109 135 164 205 255 321
#     4  10  20  34  56  81 108 142 183 239 300 353
#     4  10  23  39  57  78 109 145 188 242 293 353
#     4  11  23  39  55  75 103 138 182 234 298 363
#     4  12  26  40  60  90 132 164 208 259 317 370
#     4  10  22  37  58  82 106 137 174 215 264 323
#
# _framework density 18.430136999999998
#
# number of rings (size 3 to 8) (size 9 to 14) (size 15 to 20)
#    0.000    1.655    2.069    2.276    1.931    4.828 
#    0.000    3.448    0.000    0.000    0.000    0.000 
#    0.000    0.000    0.000    0.000    0.000    1.034 
#
# Total GULP energy -646293.337073 kJ/mol
# GULP energy per Si atom -5571.494285 kJ/mol
# Density = 1.838819 g / cm^3
# Si number density = 18.430137 Si / 1000 Ang^3
#
#
#
# Elastic Constant Matrix: (Units=GPa)
#
#
# Indices 1 2 3 4 5 6 
#
# 1 60.7307 22.8349 1.9616 0.0000 0.0000 0.0000
# 2 22.8349 60.7307 1.9616 0.0000 0.0000 0.0000
# 3 1.9616 1.9616 67.3733 0.0000 0.0000 0.0000
# 4 0.0000 0.0000 0.0000 25.3135 0.0000 0.0000
# 5 0.0000 0.0000 0.0000 0.0000 25.3135 0.0000
# 6 0.0000 0.0000 0.0000 0.0000 0.0000 9.9759
#
#
#
# Elastic Compliance Matrix: (Units=1/GPa)
#
#
# Indices 1 2 3 4 5 6 
#
# 1 0.019186 -0.007203 -0.000349 0.000000 0.000000 0.000000
# 2 -0.007203 0.019186 -0.000349 0.000000 0.000000 0.000000
# 3 -0.000349 -0.000349 0.014863 0.000000 0.000000 0.000000
# 4 0.000000 0.000000 0.000000 0.039505 0.000000 0.000000
# 5 0.000000 0.000000 0.000000 0.000000 0.039505 0.000000
# 6 0.000000 0.000000 0.000000 0.000000 0.000000 0.100242
#
#
# Mechanical properties :
#
#
# Convention : Reuss Voigt Hill
#
# Bulk Modulus (GPa) = 26.71407 26.92789 26.82098
# Shear Modulus (GPa) = 19.17444 22.92567 21.05006
#
# Velocity S-wave (km/s) = 3.22900 3.53076 3.38324
# Velocity P-wave (km/s) = 5.33181 5.59144 5.46316
#
# Compressibility (1/GPa) = 0.03743346
#
# Stress axis : x y z
#
# Youngs Moduli (GPa) = 52.12248 52.12248 67.28119
#
# Poissons Ratio (x) = 0.37541 0.02347
# Poissons Ratio (y) = 0.37541 0.02347
# Poissons Ratio (z) = 0.01819 0.01819
#
# Static dielectric constant tensor:
#      x y z
#    x 1.651260 0.000000 0.000000 
#    y 0.000000 1.651260 0.000000 
#    z 0.000000 0.000000 1.687360 
# 
# From -- ./inp_files/2096.got.cif
#   From: 2010.05.17/outbox.cif.g08.bks.cpg/sg132_2_cif.got.tgz:2096.got - 2010.05.20 12:30:18.
