data_PCOD9567438
_publ_section_title
;
Structure prediction by ZEFSAII (Michael W. Deem and Ramdas Pophale) SiO2 
 PCOD9567438
Probable space group: P 42/M C M
;
_chemical_formula_sum "Si O2"
_cell_formula_units_Z 64
_cell_length_a 13.470060
_cell_length_b 13.470060
_cell_length_c 17.770843
_cell_angle_alpha 90.000000
_cell_angle_beta 90.000000
_cell_angle_gamma 90.000000
_cell_volume 3224.386473
_symmetry_space_group_name_H-M "P 42/M C M"
_symmetry_group_IT_number 132
_symmetry_cell_setting 'tetragonal'
loop_
_space_group_symop_operation_xyz
x,y,z
-y,x,1/2+z
-x,-y,z
y,-x,1/2+z
x,-y,1/2-z
-x,y,1/2-z
y,x,-z
-y,-x,-z
-x,-y,-z
y,-x,1/2-z
x,y,-z
-y,x,1/2-z
-x,y,1/2+z
x,-y,1/2+z
-y,-x,z
y,x,z
loop_
_atom_site_type_symbol
_atom_site_label
_atom_site_fract_x
_atom_site_fract_y
_atom_site_fract_z
Si Si1 0.310171 0.146184 0.871870
Si Si2 0.110648 0.475769 0.414766
Si Si3 0.006328 0.839042 0.840370
Si Si4 0.610052 0.772704 0.718964
O O1 0.230638 0.230638 0.892971
O O2 0.414235 0.158811 0.913277
O O3 0.258110 0.038668 0.879840
O O4 0.336114 0.162911 0.783626
O O5 0.105889 0.438631 0.500000
O O6 0.166902 0.405169 0.357411
O O7 0.000000 0.500000 0.386242
O O8 0.925208 0.925208 0.856989
O O9 0.000000 0.825525 0.750000
O O10 0.113709 0.886292 0.858853
O O11 0.500000 0.749720 0.750000
O O12 0.675127 0.675127 0.707717
#
# Coordination Sequence:
#
# PCOD9567438 Si02
#       4
#    16  16  16  16
#     4   9  18  32  53  78 102 134 174 216 263 317
#     4  10  22  37  52  73 107 148 183 218 262 316
#     4   8  14  24  41  71 105 129 156 203 256 300
#     4   9  19  35  57  83 107 134 174 227 283 334
#
# _framework density 19.848738000000001
#
# number of rings (size 3 to 8) (size 9 to 14) (size 15 to 20)
#    0.000    3.000    0.000    0.750    3.500    4.750 
#    0.000    0.000    0.000    2.250    0.000   10.500 
#    0.000    0.000    0.000    9.750    0.000    0.000 
#
# Total GULP energy -356892.793154 kJ/mol
# GULP energy per Si atom -5576.449893 kJ/mol
# Density = 1.980356 g / cm^3
# Si number density = 19.848738 Si / 1000 Ang^3
#
#
#
# Elastic Constant Matrix: (Units=GPa)
#
#
# Indices 1 2 3 4 5 6 
#
# 1 66.7537 28.7839 10.3035 0.0000 0.0000 0.0000
# 2 28.7839 66.7537 10.3035 0.0000 0.0000 0.0000
# 3 10.3035 10.3035 41.0067 0.0000 0.0000 0.0000
# 4 0.0000 0.0000 0.0000 8.4712 0.0000 0.0000
# 5 0.0000 0.0000 0.0000 0.0000 8.4712 0.0000
# 6 0.0000 0.0000 0.0000 0.0000 0.0000 25.1530
#
#
#
# Elastic Compliance Matrix: (Units=1/GPa)
#
#
# Indices 1 2 3 4 5 6 
#
# 1 0.018702 -0.007635 -0.002781 0.000000 0.000000 0.000000
# 2 -0.007635 0.018702 -0.002781 0.000000 0.000000 0.000000
# 3 -0.002781 -0.002781 0.025784 0.000000 0.000000 0.000000
# 4 0.000000 0.000000 0.000000 0.118046 0.000000 0.000000
# 5 0.000000 0.000000 0.000000 0.000000 0.118046 0.000000
# 6 0.000000 0.000000 0.000000 0.000000 0.000000 0.039757
#
#
# Mechanical properties :
#
#
# Convention : Reuss Voigt Hill
#
# Bulk Modulus (GPa) = 27.17790 30.36619 28.77204
# Shear Modulus (GPa) = 13.23822 16.76066 14.99944
#
# Velocity S-wave (km/s) = 2.58535 2.90904 2.75196
# Velocity P-wave (km/s) = 4.75755 5.15901 4.96234
#
# Compressibility (1/GPa) = 0.03679460
#
# Stress axis : x y z
#
# Youngs Moduli (GPa) = 53.47087 53.47087 38.78427
#
# Poissons Ratio (x) = 0.40825 0.10785
# Poissons Ratio (y) = 0.40825 0.10785
# Poissons Ratio (z) = 0.14869 0.14869
#
# Static dielectric constant tensor:
#      x y z
#    x 1.726950 0.000000 0.000000 
#    y 0.000000 1.726950 0.000000 
#    z 0.000000 0.000000 1.703790 
# 
# From -- ./inp_files/4434.got.cif
#   From: 2010.05.17/outbox.cif.g08.bks.cpg/sg132_3_cif.got.tgz:4434.got - 2010.05.20 12:30:18.
