data_PCOD9567152
_publ_section_title
;
Structure prediction by ZEFSAII (Michael W. Deem and Ramdas Pophale) SiO2 
 PCOD9567152
Probable space group: P 42/M C M
;
_chemical_formula_sum "Si O2"
_cell_formula_units_Z 72
_cell_length_a 12.986616
_cell_length_b 12.986616
_cell_length_c 27.833187
_cell_angle_alpha 90.000000
_cell_angle_beta 90.000000
_cell_angle_gamma 90.000000
_cell_volume 4694.128085
_symmetry_space_group_name_H-M "P 42/M C M"
_symmetry_group_IT_number 132
_symmetry_cell_setting 'tetragonal'
loop_
_space_group_symop_operation_xyz
x,y,z
-y,x,1/2+z
-x,-y,z
y,-x,1/2+z
x,-y,1/2-z
-x,y,1/2-z
y,x,-z
-y,-x,-z
-x,-y,-z
y,-x,1/2-z
x,y,-z
-y,x,1/2-z
-x,y,1/2+z
x,-y,1/2+z
-y,-x,z
y,x,z
loop_
_atom_site_type_symbol
_atom_site_label
_atom_site_fract_x
_atom_site_fract_y
_atom_site_fract_z
Si Si1 0.926563 0.249503 0.556481
Si Si2 0.082503 0.917498 0.058193
Si Si3 0.776977 0.609000 0.773817
Si Si4 0.391364 0.942143 0.643372
Si Si5 0.920743 0.243998 0.790886
O O1 0.928506 0.276700 0.500000
O O2 0.836483 0.163518 0.562558
O O3 0.911483 0.343619 0.592284
O O4 0.035068 0.193128 0.569584
O O5 0.077296 0.922705 0.000000
O O6 0.000000 0.000000 0.077672
O O7 0.753590 0.500000 0.750000
O O8 0.676480 0.676480 0.783568
O O9 0.844586 0.595294 0.821660
O O10 0.847852 0.674430 0.736873
O O11 0.500000 0.000000 0.639234
O O12 0.307351 0.015190 0.669913
O O13 0.848964 0.151037 0.809038
O O14 0.000000 0.204686 0.750000
#
# Coordination Sequence:
#
# PCOD9567152 Si02
#       5
#    16   8  16  16  16
#     4   9  18  32  48  69  98 128 162 204 245 289
#     4   7  12  26  46  66  92 124 155 193 239 283
#     4  10  19  34  52  71  95 126 163 200 244 291
#     4  11  20  31  51  72  99 133 163 200 244 296
#     4   9  19  32  48  69  98 132 163 197 240 291
#
# _framework density 15.338312999999999
#
# number of rings (size 3 to 8) (size 9 to 14) (size 15 to 20)
#    0.000    2.556    2.222    2.000    1.556    1.778 
#    0.000    0.000    0.000    0.000    0.000    0.000 
#    0.000    0.000    0.000    7.556    0.000    0.000 
#
# Total GULP energy -401041.834573 kJ/mol
# GULP energy per Si atom -5570.025480 kJ/mol
# Density = 1.530340 g / cm^3
# Si number density = 15.338313 Si / 1000 Ang^3
#
#
#
# Elastic Constant Matrix: (Units=GPa)
#
#
# Indices 1 2 3 4 5 6 
#
# 1 85.3953 48.5801 48.9063 0.0000 0.0000 0.0000
# 2 48.5801 85.3952 48.9063 0.0000 0.0000 0.0000
# 3 48.9063 48.9063 94.5225 0.0000 0.0000 0.0000
# 4 0.0000 0.0000 0.0000 19.5866 0.0000 0.0000
# 5 0.0000 0.0000 0.0000 0.0000 19.5866 0.0000
# 6 0.0000 0.0000 0.0000 0.0000 0.0000 21.7766
#
#
#
# Elastic Compliance Matrix: (Units=1/GPa)
#
#
# Indices 1 2 3 4 5 6 
#
# 1 0.019579 -0.007584 -0.006206 0.000000 0.000000 0.000000
# 2 -0.007584 0.019579 -0.006206 0.000000 0.000000 0.000000
# 3 -0.006206 -0.006206 0.017002 0.000000 0.000000 0.000000
# 4 0.000000 0.000000 0.000000 0.051055 0.000000 0.000000
# 5 0.000000 0.000000 0.000000 0.000000 0.051055 0.000000
# 6 0.000000 0.000000 0.000000 0.000000 0.000000 0.045921
#
#
# Mechanical properties :
#
#
# Convention : Reuss Voigt Hill
#
# Bulk Modulus (GPa) = 61.85505 62.01093 61.93299
# Shear Modulus (GPa) = 20.03421 20.11798 20.07610
#
# Velocity S-wave (km/s) = 3.61800 3.62555 3.62178
# Velocity P-wave (km/s) = 7.60710 7.61858 7.61284
#
# Compressibility (1/GPa) = 0.01616683
#
# Stress axis : x y z
#
# Youngs Moduli (GPa) = 51.07533 51.07517 58.81704
#
# Poissons Ratio (x) = 0.38734 0.36504
# Poissons Ratio (y) = 0.38734 0.36504
# Poissons Ratio (z) = 0.31699 0.31699
#
# Static dielectric constant tensor:
#      x y z
#    x 1.505310 0.000000 0.000000 
#    y 0.000000 1.505310 0.000000 
#    z 0.000000 0.000000 1.505230 
# 
# From -- ./inp_files/9755.got.cif
#   From: 2010.05.17/outbox.cif.g08.bks.cpg/sg132_5_cif.got.tgz:9755.got - 2010.05.20 12:30:18.
