data_PCOD9567105
_publ_section_title
;
Structure prediction by ZEFSAII (Michael W. Deem and Ramdas Pophale) SiO2 
 PCOD9567105
Probable space group: P 42/M C M
;
_chemical_formula_sum "Si O2"
_cell_formula_units_Z 80
_cell_length_a 14.360786
_cell_length_b 14.360786
_cell_length_c 22.625838
_cell_angle_alpha 90.000000
_cell_angle_beta 90.000000
_cell_angle_gamma 90.000000
_cell_volume 4666.175771
_symmetry_space_group_name_H-M "P 42/M C M"
_symmetry_group_IT_number 132
_symmetry_cell_setting 'tetragonal'
loop_
_space_group_symop_operation_xyz
x,y,z
-y,x,1/2+z
-x,-y,z
y,-x,1/2+z
x,-y,1/2-z
-x,y,1/2-z
y,x,-z
-y,-x,-z
-x,-y,-z
y,-x,1/2-z
x,y,-z
-y,x,1/2-z
-x,y,1/2+z
x,-y,1/2+z
-y,-x,z
y,x,z
loop_
_atom_site_type_symbol
_atom_site_label
_atom_site_fract_x
_atom_site_fract_y
_atom_site_fract_z
Si Si1 0.736469 0.889601 0.747994
Si Si2 0.815187 0.664896 0.129881
Si Si3 0.139549 0.287997 0.385410
Si Si4 0.956115 0.190974 0.429409
Si Si5 0.891727 0.509500 0.430786
O O1 0.834056 0.834056 0.751920
O O2 0.676924 0.853864 0.803600
O O3 0.692920 0.864633 0.684696
O O4 0.749090 0.000000 0.750000
O O5 0.714126 0.714126 0.126830
O O6 0.883530 0.728882 0.089768
O O7 0.827882 0.561042 0.106235
O O8 0.232714 0.232714 0.399693
O O9 0.132030 0.383176 0.420634
O O10 0.052997 0.219585 0.400114
O O11 0.967582 0.190239 0.500000
O O12 0.906294 0.093707 0.411721
O O13 0.885612 0.485107 0.500000
O O14 0.000000 0.500000 0.412270
#
# Coordination Sequence:
#
# PCOD9567105 Si02
#       5
#    16  16  16  16  16
#     4  10  19  33  52  76 109 146 180 220 267 317
#     4  10  20  35  55  80 106 135 181 232 271 313
#     4  11  23  36  52  79 113 145 179 222 274 329
#     4  10  19  32  51  74 105 144 180 217 262 315
#     4  11  21  35  56  80 106 142 183 224 274 327
#
# _framework density 17.144662
#
# number of rings (size 3 to 8) (size 9 to 14) (size 15 to 20)
#    0.000    1.600    4.000    1.200    0.000    4.200 
#    0.000    5.000    0.000    0.600    0.000    1.400 
#    0.000    4.800    0.000    0.000    0.000    0.000 
#
# Total GULP energy -446491.364342 kJ/mol
# GULP energy per Si atom -5581.142054 kJ/mol
# Density = 1.710564 g / cm^3
# Si number density = 17.144662 Si / 1000 Ang^3
#
#
#
# Elastic Constant Matrix: (Units=GPa)
#
#
# Indices 1 2 3 4 5 6 
#
# 1 -6.8053 101.1230 22.6614 0.0000 0.0000 0.0000
# 2 101.1230 -6.8053 22.6614 0.0000 0.0000 0.0000
# 3 22.6614 22.6614 66.4967 0.0000 0.0000 0.0000
# 4 0.0000 0.0000 0.0000 18.7832 0.0000 0.0000
# 5 0.0000 0.0000 0.0000 0.0000 18.7832 0.0000
# 6 0.0000 0.0000 0.0000 0.0000 0.0000 17.3589
#
#
#
# Elastic Compliance Matrix: (Units=1/GPa)
#
#
# Indices 1 2 3 4 5 6 
#
# 1 0.001707 0.010972 -0.004321 0.000000 0.000000 0.000000
# 2 0.010972 0.001707 -0.004321 0.000000 0.000000 0.000000
# 3 -0.004321 -0.004321 0.017983 0.000000 0.000000 0.000000
# 4 0.000000 0.000000 0.000000 0.053239 0.000000 0.000000
# 5 0.000000 0.000000 0.000000 0.000000 0.053239 0.000000
# 6 0.000000 0.000000 0.000000 0.000000 0.000000 0.057607
#
#
# Mechanical properties :
#
#
# Convention : Reuss Voigt Hill
#
# Bulk Modulus (GPa) = 38.37645 38.41974 38.39810
# Shear Modulus (GPa) = 26.38426 4.74775 15.56601
#
# Velocity S-wave (km/s) = 3.92716 1.66591 3.01644
# Velocity P-wave (km/s) = 6.55713 5.11450 5.88023
#
# Compressibility (1/GPa) = 0.02605764
#
# Stress axis : x y z
#
# Youngs Moduli (GPa) = 585.93879 585.93879 55.60720
#
# Poissons Ratio (x) = -6.42896 0.24027
# Poissons Ratio (y) = -6.42896 0.24027
# Poissons Ratio (z) = 2.53171 2.53171
#
# Static dielectric constant tensor:
#      x y z
#    x 1.568370 0.000000 0.000000 
#    y 0.000000 1.568370 0.000000 
#    z 0.000000 0.000000 1.603680 
# 
# From -- ./inp_files/7602.got.cif
#   From: 2010.05.17/outbox.cif.g08.bks.cpg/sg132_4_cif.got.tgz:7602.got - 2010.05.20 12:30:18.
