data_PCOD9567090
_publ_section_title
;
Structure prediction by ZEFSAII (Michael W. Deem and Ramdas Pophale) SiO2 
 PCOD9567090
Probable space group: P 42/M C M
;
_chemical_formula_sum "Si O2"
_cell_formula_units_Z 96
_cell_length_a 17.887193
_cell_length_b 17.887193
_cell_length_c 18.585981
_cell_angle_alpha 90.000000
_cell_angle_beta 90.000000
_cell_angle_gamma 90.000000
_cell_volume 5946.615723
_symmetry_space_group_name_H-M "P 42/M C M"
_symmetry_group_IT_number 132
_symmetry_cell_setting 'tetragonal'
loop_
_space_group_symop_operation_xyz
x,y,z
-y,x,1/2+z
-x,-y,z
y,-x,1/2+z
x,-y,1/2-z
-x,y,1/2-z
y,x,-z
-y,-x,-z
-x,-y,-z
y,-x,1/2-z
x,y,-z
-y,x,1/2-z
-x,y,1/2+z
x,-y,1/2+z
-y,-x,z
y,x,z
loop_
_atom_site_type_symbol
_atom_site_label
_atom_site_fract_x
_atom_site_fract_y
_atom_site_fract_z
Si Si1 0.912967 0.791233 0.082552
Si Si2 0.201724 0.320758 0.160147
Si Si3 0.161779 0.045429 0.678899
Si Si4 0.395064 0.933738 0.085771
Si Si5 0.569661 0.100715 0.585722
Si Si6 0.832694 0.714196 0.320372
O O1 0.870787 0.870787 0.083023
O O2 0.859281 0.736544 0.126866
O O3 0.991632 0.802241 0.120252
O O4 0.918983 0.765724 0.000000
O O5 0.281895 0.281895 0.143286
O O6 0.173275 0.397388 0.125003
O O7 0.193117 0.323578 0.246082
O O8 0.090702 0.090702 0.650374
O O9 0.223740 0.105870 0.700938
O O10 0.140573 0.000000 0.750000
O O11 0.481432 0.910549 0.097964
O O12 0.341673 0.876331 0.127126
O O13 0.390975 0.021707 0.108247
O O14 0.380914 0.931206 0.000000
O O15 0.580668 0.108008 0.500000
O O16 0.762126 0.762126 0.350509
#
# Coordination Sequence:
#
# PCOD9567090 Si02
#       6
#    16  16  16  16  16  16
#     4  10  20  32  45  62  84 113 151 194 241 288
#     4  10  19  32  48  69  96 123 154 194 236 284
#     4  11  21  33  46  61  84 116 156 202 244 280
#     4   9  19  34  50  71  98 126 159 201 244 289
#     4   9  18  32  50  73  99 125 156 198 247 292
#     4  10  21  33  47  67  92 123 160 197 233 283
#
# _framework density 16.143636999999998
#
# number of rings (size 3 to 8) (size 9 to 14) (size 15 to 20)
#    0.000    2.167    1.667    3.000    0.000    5.500 
#    0.000    4.167    0.000    0.000    0.000    0.000 
#    0.000    0.667    0.000    7.333    0.000    5.333 
#
# Total GULP energy -535127.395487 kJ/mol
# GULP energy per Si atom -5574.243703 kJ/mol
# Density = 1.610689 g / cm^3
# Si number density = 16.143637 Si / 1000 Ang^3
#
#
#
# Elastic Constant Matrix: (Units=GPa)
#
#
# Indices 1 2 3 4 5 6 
#
# 1 52.9500 17.9264 16.5134 0.0000 0.0000 0.0000
# 2 17.9264 52.9500 16.5134 0.0000 0.0000 0.0000
# 3 16.5134 16.5134 46.1064 0.0000 0.0000 0.0000
# 4 0.0000 0.0000 0.0000 23.3247 0.0000 0.0000
# 5 0.0000 0.0000 0.0000 0.0000 23.3247 0.0000
# 6 0.0000 0.0000 0.0000 0.0000 0.0000 30.8166
#
#
#
# Elastic Compliance Matrix: (Units=1/GPa)
#
#
# Indices 1 2 3 4 5 6 
#
# 1 0.022744 -0.005808 -0.006066 0.000000 0.000000 0.000000
# 2 -0.005808 0.022744 -0.006066 0.000000 0.000000 0.000000
# 3 -0.006066 -0.006066 0.026034 0.000000 0.000000 0.000000
# 4 0.000000 0.000000 0.000000 0.042873 0.000000 0.000000
# 5 0.000000 0.000000 0.000000 0.000000 0.042873 0.000000
# 6 0.000000 0.000000 0.000000 0.000000 0.000000 0.032450
#
#
# Mechanical properties :
#
#
# Convention : Reuss Voigt Hill
#
# Bulk Modulus (GPa) = 28.05642 28.21254 28.13448
# Shear Modulus (GPa) = 21.05463 22.23009 21.64236
#
# Velocity S-wave (km/s) = 3.61530 3.71485 3.66541
# Velocity P-wave (km/s) = 5.90289 5.99283 5.94803
#
# Compressibility (1/GPa) = 0.03564246
#
# Stress axis : x y z
#
# Youngs Moduli (GPa) = 43.96789 43.96789 38.41152
#
# Poissons Ratio (x) = 0.25538 0.23299
# Poissons Ratio (y) = 0.25538 0.23299
# Poissons Ratio (z) = 0.26669 0.26669
#
# Static dielectric constant tensor:
#      x y z
#    x 1.560740 0.000000 0.000000 
#    y 0.000000 1.560740 0.000000 
#    z 0.000000 0.000000 1.543510 
# 
# From -- ./inp_files/6436.got.cif
#   From: 2010.05.17/outbox.cif.g08.bks.cpg/sg132_4_cif.got.tgz:6436.got - 2010.05.20 12:30:18.
