data_PCOD9567816
_publ_section_title
;
Structure prediction by ZEFSAII (Michael W. Deem and Ramdas Pophale) SiO2 
 PCOD9567816
Probable space group: P 42/N B C
;
_chemical_formula_sum "Si O2"
_cell_formula_units_Z 52
_cell_length_a 16.054125
_cell_length_b 16.054125
_cell_length_c 8.154998
_cell_angle_alpha 90.000000
_cell_angle_beta 90.000000
_cell_angle_gamma 90.000000
_cell_volume 2101.827835
_symmetry_space_group_name_H-M "P 42/N B C"
_symmetry_group_IT_number 133
_space_group.IT_coordinate_system_code '2'
_symmetry_cell_setting 'tetragonal'
loop_
_space_group_symop_operation_xyz
x,y,z
1/2-y,x,1/2+z
1/2-x,1/2-y,z
y,1/2-x,1/2+z
x,1/2-y,-z
1/2-x,y,-z
y,x,1/2-z
1/2-y,1/2-x,1/2-z
-x,-y,-z
1/2+y,-x,1/2-z
1/2+x,1/2+y,-z
-y,1/2+x,1/2-z
-x,1/2+y,z
1/2+x,-y,z
-y,-x,1/2+z
1/2+y,1/2+x,1/2+z
loop_
_atom_site_type_symbol
_atom_site_label
_atom_site_fract_x
_atom_site_fract_y
_atom_site_fract_z
Si Si1 0.750000 0.750000 0.500000
Si Si2 0.631722 0.600543 0.534738
Si Si3 0.693149 0.455412 0.344060
Si Si4 0.028238 0.846913 0.661366
O O1 0.684899 0.682918 0.573969
O O2 0.669432 0.551862 0.379791
O O3 0.535788 0.626471 0.519805
O O4 0.638525 0.530669 0.677334
O O5 0.750000 0.426862 0.500000
O O6 0.751434 0.446170 0.186278
O O7 0.608837 0.403870 0.337342
#
# Coordination Sequence:
#
# PCOD9567816 Si02
#       4
#     4  16  16  16
#     4  12  20  46  72  96 134 168 216 302 328 420
#     4  10  22  43  68 102 138 169 226 284 356 405
#     4  10  21  45  67  97 137 176 234 279 333 415
#     4  10  21  42  69  97 139 183 221 281 344 404
#
# _framework density 24.740369999999999
#
# number of rings (size 3 to 8) (size 9 to 14) (size 15 to 20)
#    0.000    1.846    4.615    0.923    0.000    3.077 
#   22.154    4.615    0.000    0.000    0.000    0.000 
#    0.000    0.000    0.000    0.000    0.000    0.000 
#
# Total GULP energy -290532.189377 kJ/mol
# GULP energy per Si atom -5587.157488 kJ/mol
# Density = 2.468406 g / cm^3
# Si number density = 24.740370 Si / 1000 Ang^3
#
#
#
# Elastic Constant Matrix: (Units=GPa)
#
#
# Indices 1 2 3 4 5 6 
#
# 1 195.5954 121.7062 36.8993 0.0000 0.0000 0.0000
# 2 121.7062 195.5954 36.8993 0.0000 0.0000 0.0000
# 3 36.8993 36.8993 71.0185 0.0000 0.0000 0.0000
# 4 0.0000 0.0000 0.0000 117.4786 0.0000 0.0000
# 5 0.0000 0.0000 0.0000 0.0000 117.4786 0.0000
# 6 0.0000 0.0000 0.0000 0.0000 0.0000 68.6088
#
#
#
# Elastic Compliance Matrix: (Units=1/GPa)
#
#
# Indices 1 2 3 4 5 6 
#
# 1 0.008559 -0.004975 -0.001863 0.000000 0.000000 0.000000
# 2 -0.004975 0.008559 -0.001863 0.000000 0.000000 0.000000
# 3 -0.001863 -0.001863 0.016016 0.000000 0.000000 0.000000
# 4 0.000000 0.000000 0.000000 0.008512 0.000000 0.000000
# 5 0.000000 0.000000 0.000000 0.000000 0.008512 0.000000
# 6 0.000000 0.000000 0.000000 0.000000 0.000000 0.014575
#
#
# Mechanical properties :
#
#
# Convention : Reuss Voigt Hill
#
# Bulk Modulus (GPa) = 63.55000 94.80212 79.17606
# Shear Modulus (GPa) = 57.22192 78.49348 67.85770
#
# Velocity S-wave (km/s) = 4.81448 5.63877 5.24285
# Velocity P-wave (km/s) = 7.52649 8.98868 8.28989
#
# Compressibility (1/GPa) = 0.01573564
#
# Stress axis : x y z
#
# Youngs Moduli (GPa) = 116.83222 116.83222 62.43634
#
# Poissons Ratio (x) = 0.58118 0.11629
# Poissons Ratio (y) = 0.58118 0.11629
# Poissons Ratio (z) = 0.21761 0.21761
#
# Static dielectric constant tensor:
#      x y z
#    x 1.942710 0.000000 0.000000 
#    y 0.000000 1.942710 0.000000 
#    z 0.000000 0.000000 2.275640 
# 
# From -- ./inp_files/2792.got.cif
#   From: 2010.05.17/outbox.cif.g08.bks.cpg/sg133_2_cif.got.tgz:2792.got - 2010.05.20 12:37:36.
