data_PCOD9567688
_publ_section_title
;
Structure prediction by ZEFSAII (Michael W. Deem and Ramdas Pophale) SiO2 
 PCOD9567688
Probable space group: P 42/N B C
;
_chemical_formula_sum "Si O2"
_cell_formula_units_Z 112
_cell_length_a 14.908826
_cell_length_b 14.908826
_cell_length_c 21.185922
_cell_angle_alpha 90.000000
_cell_angle_beta 90.000000
_cell_angle_gamma 90.000000
_cell_volume 4709.060405
_symmetry_space_group_name_H-M "P 42/N B C"
_symmetry_group_IT_number 133
_space_group.IT_coordinate_system_code '2'
_symmetry_cell_setting 'tetragonal'
loop_
_space_group_symop_operation_xyz
x,y,z
1/2-y,x,1/2+z
1/2-x,1/2-y,z
y,1/2-x,1/2+z
x,1/2-y,-z
1/2-x,y,-z
y,x,1/2-z
1/2-y,1/2-x,1/2-z
-x,-y,-z
1/2+y,-x,1/2-z
1/2+x,1/2+y,-z
-y,1/2+x,1/2-z
-x,1/2+y,z
1/2+x,-y,z
-y,-x,1/2+z
1/2+y,1/2+x,1/2+z
loop_
_atom_site_type_symbol
_atom_site_label
_atom_site_fract_x
_atom_site_fract_y
_atom_site_fract_z
Si Si1 0.078528 0.618271 0.574674
Si Si2 0.072794 0.941549 0.057231
Si Si3 0.314371 0.415496 0.200569
Si Si4 0.846826 0.266663 0.109105
Si Si5 0.424193 0.268412 0.434037
Si Si6 0.250256 0.599306 0.738417
Si Si7 0.511109 0.501596 0.178425
O O1 0.068915 0.549029 0.516603
O O2 0.179950 0.648935 0.566281
O O3 0.005341 0.695959 0.567062
O O4 0.066114 0.580085 0.645194
O O5 0.139631 0.859624 0.075008
O O6 0.134544 0.029380 0.061190
O O7 0.002180 0.937164 0.115113
O O8 0.336589 0.336589 0.250000
O O9 0.268931 0.382265 0.135689
O O10 0.261508 0.504650 0.225526
O O11 0.414036 0.455855 0.186934
O O12 0.750000 0.250000 0.140925
O O13 0.919622 0.258869 0.164190
O O14 0.373535 0.250000 0.500000
O O15 0.162033 0.661517 0.750470
O O16 0.534334 0.534334 0.250000
#
# Coordination Sequence:
#
# PCOD9567688 Si02
#       7
#    16  16  16  16  16  16  16
#     4  11  21  34  54  78 111 153 189 229 280 339
#     4  10  21  35  52  78 114 148 188 232 278 340
#     4  10  20  34  49  75 116 153 187 235 288 342
#     4  12  20  31  51  85 118 148 182 226 274 338
#     4   9  18  32  52  74 102 146 193 230 273 342
#     4  11  20  32  52  82 117 156 194 230 284 349
#     4  10  21  37  51  70 105 153 195 231 274 329
#
# _framework density 23.783937999999999
#
# number of rings (size 3 to 8) (size 9 to 14) (size 15 to 20)
#    0.000    1.571    2.857    5.143    0.000    1.714 
#    0.000    0.000    0.000    0.000    0.000    0.000 
#    0.000   46.857    0.000   80.714    0.000    0.000 
#
# Total GULP energy -623639.776008 kJ/mol
# GULP energy per Si atom -5568.212286 kJ/mol
# Density = 2.372980 g / cm^3
# Si number density = 23.783938 Si / 1000 Ang^3
#
#
#
# Elastic Constant Matrix: (Units=GPa)
#
#
# Indices 1 2 3 4 5 6 
#
# 1 32.5534 18.8918 28.2346 0.0000 0.0000 0.0000
# 2 18.8918 32.5534 28.2346 0.0000 0.0000 0.0000
# 3 28.2346 28.2346 227.9570 0.0000 0.0000 0.0000
# 4 0.0000 0.0000 0.0000 -13.0725 0.0000 0.0000
# 5 0.0000 0.0000 0.0000 0.0000 -13.0725 0.0000
# 6 0.0000 0.0000 0.0000 0.0000 0.0000 7.1582
#
#
#
# Elastic Compliance Matrix: (Units=1/GPa)
#
#
# Indices 1 2 3 4 5 6 
#
# 1 0.047847 -0.025351 -0.002786 0.000000 0.000000 0.000000
# 2 -0.025351 0.047847 -0.002786 0.000000 0.000000 0.000000
# 3 -0.002786 -0.002786 0.005077 0.000000 0.000000 0.000000
# 4 0.000000 0.000000 0.000000 -0.076496 0.000000 0.000000
# 5 0.000000 0.000000 0.000000 0.000000 -0.076496 0.000000
# 6 0.000000 0.000000 0.000000 0.000000 0.000000 0.139700
#
#
# Mechanical properties :
#
#
# Convention : Reuss Voigt Hill
#
# Bulk Modulus (GPa) = 25.69056 49.30951 37.50004
# Shear Modulus (GPa) = 30.80704 10.71615 20.76160
#
# Velocity S-wave (km/s) = 3.60292 2.12495 2.95774
# Velocity P-wave (km/s) = 5.30406 5.17666 5.24075
#
# Compressibility (1/GPa) = 0.03892480
#
# Stress axis : x y z
#
# Youngs Moduli (GPa) = 20.89982 20.89982 196.96506
#
# Poissons Ratio (x) = 0.52982 0.54883
# Poissons Ratio (y) = 0.52982 0.54883
# Poissons Ratio (z) = 0.05824 0.05824
#
# Static dielectric constant tensor:
#      x y z
#    x 2.037630 0.000000 0.000000 
#    y 0.000000 2.037630 0.000000 
#    z 0.000000 0.000000 2.062810 
# 
# From -- ./inp_files/6699.got.cif
#   From: 2010.05.17/outbox.cif.g08.bks.cpg/sg133_4_cif.got.tgz:6699.got - 2010.05.20 12:37:36.
