data_PCOD9567775
_publ_section_title
;
Structure prediction by ZEFSAII (Michael W. Deem and Ramdas Pophale) SiO2 
 PCOD9567775
Probable space group: P 42/N B C
;
_chemical_formula_sum "Si O2"
_cell_formula_units_Z 96
_cell_length_a 14.121918
_cell_length_b 14.121918
_cell_length_c 19.840026
_cell_angle_alpha 90.000000
_cell_angle_beta 90.000000
_cell_angle_gamma 90.000000
_cell_volume 3956.667974
_symmetry_space_group_name_H-M "P 42/N B C"
_symmetry_group_IT_number 133
_space_group.IT_coordinate_system_code '2'
_symmetry_cell_setting 'tetragonal'
loop_
_space_group_symop_operation_xyz
x,y,z
1/2-y,x,1/2+z
1/2-x,1/2-y,z
y,1/2-x,1/2+z
x,1/2-y,-z
1/2-x,y,-z
y,x,1/2-z
1/2-y,1/2-x,1/2-z
-x,-y,-z
1/2+y,-x,1/2-z
1/2+x,1/2+y,-z
-y,1/2+x,1/2-z
-x,1/2+y,z
1/2+x,-y,z
-y,-x,1/2+z
1/2+y,1/2+x,1/2+z
loop_
_atom_site_type_symbol
_atom_site_label
_atom_site_fract_x
_atom_site_fract_y
_atom_site_fract_z
Si Si1 0.077330 0.097403 0.635775
Si Si2 0.231184 0.049038 0.301169
Si Si3 0.875536 0.105158 0.618879
Si Si4 0.238329 0.614377 0.786692
Si Si5 0.471870 0.362841 0.006075
Si Si6 0.799229 0.850256 0.895573
O O1 0.160056 0.075901 0.687704
O O2 0.096321 0.038042 0.568116
O O3 0.085094 0.207615 0.613942
O O4 0.971654 0.077278 0.658529
O O5 0.175151 0.141232 0.327663
O O6 0.203658 0.965777 0.353888
O O7 0.215884 0.993759 0.231438
O O8 0.863499 0.213816 0.641267
O O9 0.889496 0.070258 0.542805
O O10 0.150754 0.679738 0.765617
O O11 0.378857 0.385822 0.051894
O O12 0.468984 0.250000 0.000000
O O13 0.750000 0.750000 0.917367
#
# Coordination Sequence:
#
# PCOD9567775 Si02
#       6
#    16  16  16  16  16  16
#     4  11  20  33  60  94 130 166 203 264 332 386
#     4   9  19  37  61  88 119 162 217 266 317 382
#     4  10  21  36  57  93 123 161 218 259 320 394
#     4   9  19  40  65  81 113 172 217 264 319 381
#     4  11  18  34  61  90 129 168 201 254 320 397
#     4   9  17  31  58  89 120 164 208 253 323 388
#
# _framework density 24.262840000000001
#
# number of rings (size 3 to 8) (size 9 to 14) (size 15 to 20)
#    0.000    2.167    5.000    1.000    0.000    0.667 
#    6.000    0.833    0.000    3.000    4.333    0.000 
#    0.000    0.000    0.000    0.000    0.000    0.000 
#
# Total GULP energy -535749.766839 kJ/mol
# GULP energy per Si atom -5580.726738 kJ/mol
# Density = 2.420762 g / cm^3
# Si number density = 24.262840 Si / 1000 Ang^3
#
#
#
# Elastic Constant Matrix: (Units=GPa)
#
#
# Indices 1 2 3 4 5 6 
#
# 1 92.4902 7.2200 23.7493 0.0000 0.0000 0.0000
# 2 7.2200 92.4902 23.7493 0.0000 0.0000 0.0000
# 3 23.7493 23.7493 61.1823 0.0000 0.0000 0.0000
# 4 0.0000 0.0000 0.0000 24.7356 0.0000 0.0000
# 5 0.0000 0.0000 0.0000 0.0000 24.7356 0.0000
# 6 0.0000 0.0000 0.0000 0.0000 0.0000 8.4925
#
#
#
# Elastic Compliance Matrix: (Units=1/GPa)
#
#
# Indices 1 2 3 4 5 6 
#
# 1 0.012016 0.000288 -0.004776 0.000000 0.000000 0.000000
# 2 0.000288 0.012016 -0.004776 0.000000 0.000000 0.000000
# 3 -0.004776 -0.004776 0.020053 0.000000 0.000000 0.000000
# 4 0.000000 0.000000 0.000000 0.040428 0.000000 0.000000
# 5 0.000000 0.000000 0.000000 0.000000 0.040428 0.000000
# 6 0.000000 0.000000 0.000000 0.000000 0.000000 0.117751
#
#
# Mechanical properties :
#
#
# Convention : Reuss Voigt Hill
#
# Bulk Modulus (GPa) = 39.12915 39.51107 39.32011
# Shear Modulus (GPa) = 18.53656 24.35569 21.44612
#
# Velocity S-wave (km/s) = 2.76703 3.17176 2.97628
# Velocity P-wave (km/s) = 5.13525 5.45283 5.29642
#
# Compressibility (1/GPa) = 0.02555640
#
# Stress axis : x y z
#
# Youngs Moduli (GPa) = 83.22341 83.22341 49.86901
#
# Poissons Ratio (x) = -0.02400 0.23818
# Poissons Ratio (y) = -0.02400 0.23818
# Poissons Ratio (z) = 0.39749 0.39749
#
# Static dielectric constant tensor:
#      x y z
#    x 1.935230 0.000000 0.000000 
#    y 0.000000 1.935230 0.000000 
#    z 0.000000 0.000000 2.011870 
# 
# From -- ./inp_files/6509.got.cif
#   From: 2010.05.17/outbox.cif.g08.bks.cpg/sg133_4_cif.got.tgz:6509.got - 2010.05.20 12:37:36.
