data_PCOD9567288
_publ_section_title
;
Structure prediction by ZEFSAII (Michael W. Deem and Ramdas Pophale) SiO2 
 PCOD9567288
Probable space group: P 42/M C M
;
_chemical_formula_sum "Si O2"
_cell_formula_units_Z 64
_cell_length_a 11.785221
_cell_length_b 11.785221
_cell_length_c 21.611920
_cell_angle_alpha 90.000000
_cell_angle_beta 90.000000
_cell_angle_gamma 90.000000
_cell_volume 3001.710561
_symmetry_space_group_name_H-M "P 42/M C M"
_symmetry_group_IT_number 132
_symmetry_cell_setting 'tetragonal'
loop_
_space_group_symop_operation_xyz
x,y,z
-y,x,1/2+z
-x,-y,z
y,-x,1/2+z
x,-y,1/2-z
-x,y,1/2-z
y,x,-z
-y,-x,-z
-x,-y,-z
y,-x,1/2-z
x,y,-z
-y,x,1/2-z
-x,y,1/2+z
x,-y,1/2+z
-y,-x,z
y,x,z
loop_
_atom_site_type_symbol
_atom_site_label
_atom_site_fract_x
_atom_site_fract_y
_atom_site_fract_z
Si Si1 0.209438 0.031110 0.570814
Si Si2 0.312873 0.865568 0.244176
Si Si3 0.610491 0.789135 0.390803
Si Si4 0.179030 0.644168 0.618481
O O1 0.187121 0.998762 0.500000
O O2 0.095518 0.095518 0.595401
O O3 0.305195 0.127828 0.573185
O O4 0.270342 0.925647 0.604309
O O5 0.186506 0.813495 0.242096
O O6 0.371410 0.823827 0.181378
O O7 0.367401 0.818714 0.307032
O O8 0.314996 0.000000 0.250000
O O9 0.662203 0.662203 0.398400
O O10 0.481983 0.818674 0.408237
O O11 0.290256 0.709744 0.597170
#
# Coordination Sequence:
#
# PCOD9567288 Si02
#       4
#    16  16  16  16
#     4  10  22  40  61  85 113 148 191 240 295 351
#     4  10  20  34  55  86 119 152 189 231 286 345
#     4  10  21  38  59  84 116 153 193 237 284 340
#     4  11  23  36  57  87 116 152 193 234 286 345
#
# _framework density 21.321176999999999
#
# number of rings (size 3 to 8) (size 9 to 14) (size 15 to 20)
#    0.000    1.750    2.500    1.500    0.000    4.750 
#    0.000    3.750    0.000    4.500    0.000    5.250 
#    0.000    0.000    0.000    0.000    0.000    0.000 
#
# Total GULP energy -356923.821729 kJ/mol
# GULP energy per Si atom -5576.934715 kJ/mol
# Density = 2.127265 g / cm^3
# Si number density = 21.321177 Si / 1000 Ang^3
#
#
#
# Elastic Constant Matrix: (Units=GPa)
#
#
# Indices 1 2 3 4 5 6 
#
# 1 37.7703 136.8138 2.2368 0.0000 0.0000 0.0000
# 2 136.8138 37.7703 2.2368 0.0000 0.0000 0.0000
# 3 2.2368 2.2368 59.0741 0.0000 0.0000 0.0000
# 4 0.0000 0.0000 0.0000 57.1736 0.0000 0.0000
# 5 0.0000 0.0000 0.0000 0.0000 57.1736 0.0000
# 6 0.0000 0.0000 0.0000 0.0000 0.0000 17.8098
#
#
#
# Elastic Compliance Matrix: (Units=1/GPa)
#
#
# Indices 1 2 3 4 5 6 
#
# 1 -0.002182 0.007915 -0.000217 0.000000 0.000000 0.000000
# 2 0.007915 -0.002182 -0.000217 0.000000 0.000000 0.000000
# 3 -0.000217 -0.000217 0.016944 0.000000 0.000000 0.000000
# 4 0.000000 0.000000 0.000000 0.017491 0.000000 0.000000
# 5 0.000000 0.000000 0.000000 0.000000 0.017491 0.000000
# 6 0.000000 0.000000 0.000000 0.000000 0.000000 0.056149
#
#
# Mechanical properties :
#
#
# Convention : Reuss Voigt Hill
#
# Bulk Modulus (GPa) = 36.30702 46.35439 41.33071
# Shear Modulus (GPa) = 51.05655 25.98656 38.52156
#
# Velocity S-wave (km/s) = 4.89882 3.49494 4.25517
# Velocity P-wave (km/s) = 7.00453 6.17044 6.60067
#
# Compressibility (1/GPa) = 0.02754288
#
# Stress axis : x y z
#
# Youngs Moduli (GPa) = -458.38831 -458.38831 59.01681
#
# Poissons Ratio (x) = 3.62815 0.01281
# Poissons Ratio (y) = 3.62815 0.01281
# Poissons Ratio (z) = -0.09951 -0.09951
#
# Static dielectric constant tensor:
#      x y z
#    x 1.781690 0.000000 0.000000 
#    y 0.000000 1.781690 0.000000 
#    z 0.000000 0.000000 1.799350 
# 
# From -- ./inp_files/7425.got.cif
#   From: 2010.05.17/outbox.cif.g08.bks.cpg/sg132_4_cif.got.tgz:7425.got - 2010.05.20 12:30:18.
