data_PCOD9567694
_publ_section_title
;
Structure prediction by ZEFSAII (Michael W. Deem and Ramdas Pophale) SiO2 
 PCOD9567694
Probable space group: P 42/N B C
;
_chemical_formula_sum "Si O2"
_cell_formula_units_Z 84
_cell_length_a 19.544562
_cell_length_b 19.544562
_cell_length_c 9.406484
_cell_angle_alpha 90.000000
_cell_angle_beta 90.000000
_cell_angle_gamma 90.000000
_cell_volume 3593.181918
_symmetry_space_group_name_H-M "P 42/N B C"
_symmetry_group_IT_number 133
_space_group.IT_coordinate_system_code '2'
_symmetry_cell_setting 'tetragonal'
loop_
_space_group_symop_operation_xyz
x,y,z
1/2-y,x,1/2+z
1/2-x,1/2-y,z
y,1/2-x,1/2+z
x,1/2-y,-z
1/2-x,y,-z
y,x,1/2-z
1/2-y,1/2-x,1/2-z
-x,-y,-z
1/2+y,-x,1/2-z
1/2+x,1/2+y,-z
-y,1/2+x,1/2-z
-x,1/2+y,z
1/2+x,-y,z
-y,-x,1/2+z
1/2+y,1/2+x,1/2+z
loop_
_atom_site_type_symbol
_atom_site_label
_atom_site_fract_x
_atom_site_fract_y
_atom_site_fract_z
Si Si1 0.854920 0.250000 0.500000
Si Si2 0.688435 0.811566 0.250000
Si Si3 0.447866 0.972450 0.649360
Si Si4 0.341590 0.341590 0.750000
Si Si5 0.609125 0.391284 0.899138
Si Si6 0.954741 0.250000 0.000000
Si Si7 0.250000 0.750000 0.250000
Si Si8 0.651092 0.925515 0.464289
O O1 0.897398 0.313719 0.551788
O O2 0.809086 0.229815 0.638068
O O3 0.663812 0.736782 0.307133
O O4 0.676772 0.860921 0.380493
O O5 0.441145 0.935053 0.499107
O O6 0.402320 0.920473 0.743646
O O7 0.512991 0.987010 0.750000
O O8 0.418524 0.046667 0.603768
O O9 0.349901 0.400227 0.628654
O O10 0.588681 0.309781 0.919442
O O11 0.010687 0.200906 0.074365
#
# Coordination Sequence:
#
# PCOD9567694 Si02
#       8
#     8   8  16   8  16   8   4  16
#     4  11  22  42  70 110 138 184 238 307 378 432
#     4  11  20  40  68 107 151 195 255 308 364 431
#     4  11  25  49  68  98 140 195 246 295 370 451
#     4  11  22  38  70 111 147 197 243 314 378 422
#     4  11  25  44  74 101 142 186 246 310 369 452
#     4  10  22  45  65 100 138 194 232 292 378 436
#     4  10  20  34  68 102 148 174 216 302 384 442
#     4  11  22  42  69 102 148 193 241 302 365 449
#
# _framework density 23.377609
#
# number of rings (size 3 to 8) (size 9 to 14) (size 15 to 20)
#    0.000    1.143    2.857    3.429    0.000    6.095 
#   13.714    1.905    0.000    0.000    0.000    0.000 
#    0.000    0.000    0.000    0.000    0.000    0.000 
#
# Total GULP energy -467609.813504 kJ/mol
# GULP energy per Si atom -5566.783494 kJ/mol
# Density = 2.332440 g / cm^3
# Si number density = 23.377609 Si / 1000 Ang^3
#
#
#
# Elastic Constant Matrix: (Units=GPa)
#
#
# Indices 1 2 3 4 5 6 
#
# 1 105.8852 26.3186 27.6860 0.0000 0.0000 0.0000
# 2 26.3186 105.8880 27.6860 0.0000 0.0000 0.0000
# 3 27.6860 27.6860 112.0396 0.0000 0.0000 0.0000
# 4 0.0000 0.0000 0.0000 42.9613 0.0000 0.0000
# 5 0.0000 0.0000 0.0000 0.0000 42.9607 0.0000
# 6 0.0000 0.0000 0.0000 0.0000 0.0000 12.4898
#
#
#
# Elastic Compliance Matrix: (Units=1/GPa)
#
#
# Indices 1 2 3 4 5 6 
#
# 1 0.010503 -0.002065 -0.002085 0.000000 0.000000 0.000000
# 2 -0.002065 0.010502 -0.002085 0.000000 0.000000 0.000000
# 3 -0.002085 -0.002085 0.009956 0.000000 0.000000 0.000000
# 4 0.000000 0.000000 0.000000 0.023277 0.000000 0.000000
# 5 0.000000 0.000000 0.000000 0.000000 0.023277 0.000000
# 6 0.000000 0.000000 0.000000 0.000000 0.000000 0.080066
#
#
# Mechanical properties :
#
#
# Convention : Reuss Voigt Hill
#
# Bulk Modulus (GPa) = 54.08148 54.13267 54.10707
# Shear Modulus (GPa) = 28.37457 35.82384 32.09920
#
# Velocity S-wave (km/s) = 3.48767 3.91883 3.70952
# Velocity P-wave (km/s) = 6.27715 6.60927 6.44535
#
# Compressibility (1/GPa) = 0.01849062
#
# Stress axis : x y z
#
# Youngs Moduli (GPa) = 95.21364 95.21633 100.44380
#
# Poissons Ratio (x) = 0.19665 0.20942
# Poissons Ratio (y) = 0.19665 0.20941
# Poissons Ratio (z) = 0.19852 0.19851
#
# Static dielectric constant tensor:
#      x y z
#    x 1.991740 0.000000 0.000000 
#    y 0.000000 1.991740 0.000000 
#    z 0.000000 0.000000 1.841070 
# 
# From -- ./inp_files/1890.got.cif
#   From: 2010.05.17/outbox.cif.g08.bks.cpg/sg133_1_cif.got.tgz:1890.got - 2010.05.20 12:37:36.
