data_PCOD9567678
_publ_section_title
;
Structure prediction by ZEFSAII (Michael W. Deem and Ramdas Pophale) SiO2 
 PCOD9567678
Probable space group: P 42/N B C
;
_chemical_formula_sum "Si O2"
_cell_formula_units_Z 76
_cell_length_a 14.044117
_cell_length_b 14.044117
_cell_length_c 19.343675
_cell_angle_alpha 90.000000
_cell_angle_beta 90.000000
_cell_angle_gamma 90.000000
_cell_volume 3815.292726
_symmetry_space_group_name_H-M "P 42/N B C"
_symmetry_group_IT_number 133
_space_group.IT_coordinate_system_code '2'
_symmetry_cell_setting 'tetragonal'
loop_
_space_group_symop_operation_xyz
x,y,z
1/2-y,x,1/2+z
1/2-x,1/2-y,z
y,1/2-x,1/2+z
x,1/2-y,-z
1/2-x,y,-z
y,x,1/2-z
1/2-y,1/2-x,1/2-z
-x,-y,-z
1/2+y,-x,1/2-z
1/2+x,1/2+y,-z
-y,1/2+x,1/2-z
-x,1/2+y,z
1/2+x,-y,z
-y,-x,1/2+z
1/2+y,1/2+x,1/2+z
loop_
_atom_site_type_symbol
_atom_site_label
_atom_site_fract_x
_atom_site_fract_y
_atom_site_fract_z
Si Si1 0.508923 0.429810 0.896727
Si Si2 0.337644 0.635298 0.281683
Si Si3 0.735359 0.396548 0.574938
Si Si4 0.384457 0.414933 0.460450
Si Si5 0.750000 0.750000 0.500000
Si Si6 0.986555 0.986555 0.250000
O O1 0.576995 0.339082 0.897550
O O2 0.572891 0.522780 0.912943
O O3 0.459644 0.437530 0.822452
O O4 0.435198 0.418169 0.960381
O O5 0.232846 0.621866 0.249779
O O6 0.323828 0.650990 0.363895
O O7 0.404889 0.546291 0.263657
O O8 0.750000 0.350681 0.500000
O O9 0.681505 0.495825 0.559556
O O10 0.320662 0.320489 0.458138
#
# Coordination Sequence:
#
# PCOD9567678 Si02
#       6
#    16  16  16  16   4   8
#     4  10  20  39  62  92 118 185 210 250 335 404
#     4  11  24  43  66  97 133 174 225 276 331 404
#     4  10  19  41  68  86 127 179 216 269 325 393
#     4  10  21  38  66  93 133 164 220 262 332 394
#     4  12  20  40  60 102 134 158 204 302 308 372
#     4  12  22  40  70  94 138 170 218 280 352 384
#
# _framework density 19.919833000000001
#
# number of rings (size 3 to 8) (size 9 to 14) (size 15 to 20)
#    0.000    1.474    7.368    0.000    0.000    0.000 
#    3.789    2.105    0.000    1.895    0.000    0.000 
#    0.000    0.000    0.000    0.000    0.000    0.000 
#
# Total GULP energy -423714.082091 kJ/mol
# GULP energy per Si atom -5575.185291 kJ/mol
# Density = 1.987449 g / cm^3
# Si number density = 19.919833 Si / 1000 Ang^3
#
#
#
# Elastic Constant Matrix: (Units=GPa)
#
#
# Indices 1 2 3 4 5 6 
#
# 1 98.8498 47.2277 36.6082 0.0000 0.0000 0.0000
# 2 47.2277 98.8498 36.6082 0.0000 0.0000 0.0000
# 3 36.6082 36.6082 123.2993 0.0000 0.0000 0.0000
# 4 0.0000 0.0000 0.0000 16.5772 0.0000 0.0000
# 5 0.0000 0.0000 0.0000 0.0000 16.5772 0.0000
# 6 0.0000 0.0000 0.0000 0.0000 0.0000 30.2179
#
#
#
# Elastic Compliance Matrix: (Units=1/GPa)
#
#
# Indices 1 2 3 4 5 6 
#
# 1 0.013707 -0.005665 -0.002388 0.000000 0.000000 0.000000
# 2 -0.005665 0.013707 -0.002388 0.000000 0.000000 0.000000
# 3 -0.002388 -0.002388 0.009528 0.000000 0.000000 0.000000
# 4 0.000000 0.000000 0.000000 0.060324 0.000000 0.000000
# 5 0.000000 0.000000 0.000000 0.000000 0.060324 0.000000
# 6 0.000000 0.000000 0.000000 0.000000 0.000000 0.033093
#
#
# Mechanical properties :
#
#
# Convention : Reuss Voigt Hill
#
# Bulk Modulus (GPa) = 62.25932 62.43193 62.34562
# Shear Modulus (GPa) = 23.05025 26.04478 24.54752
#
# Velocity S-wave (km/s) = 3.40538 3.61983 3.51424
# Velocity P-wave (km/s) = 6.83995 6.99146 6.91612
#
# Compressibility (1/GPa) = 0.01606185
#
# Stress axis : x y z
#
# Youngs Moduli (GPa) = 72.95523 72.95523 104.95069
#
# Poissons Ratio (x) = 0.41326 0.25061
# Poissons Ratio (y) = 0.41326 0.25061
# Poissons Ratio (z) = 0.17421 0.17421
#
# Static dielectric constant tensor:
#      x y z
#    x 1.705690 0.000000 0.000000 
#    y 0.000000 1.705690 0.000000 
#    z 0.000000 0.000000 1.763050 
# 
# From -- ./inp_files/6380.got.cif
#   From: 2010.05.17/outbox.cif.g08.bks.cpg/sg133_4_cif.got.tgz:6380.got - 2010.05.20 12:37:36.
