data_PCOD9567947
_publ_section_title
;
Structure prediction by ZEFSAII (Michael W. Deem and Ramdas Pophale) SiO2 
 PCOD9567947
Probable space group: P 42/N B C
;
_chemical_formula_sum "Si O2"
_cell_formula_units_Z 80
_cell_length_a 15.789864
_cell_length_b 15.789864
_cell_length_c 15.057950
_cell_angle_alpha 90.000000
_cell_angle_beta 90.000000
_cell_angle_gamma 90.000000
_cell_volume 3754.245160
_symmetry_space_group_name_H-M "P 42/N B C"
_symmetry_group_IT_number 133
_space_group.IT_coordinate_system_code '2'
_symmetry_cell_setting 'tetragonal'
loop_
_space_group_symop_operation_xyz
x,y,z
1/2-y,x,1/2+z
1/2-x,1/2-y,z
y,1/2-x,1/2+z
x,1/2-y,-z
1/2-x,y,-z
y,x,1/2-z
1/2-y,1/2-x,1/2-z
-x,-y,-z
1/2+y,-x,1/2-z
1/2+x,1/2+y,-z
-y,1/2+x,1/2-z
-x,1/2+y,z
1/2+x,-y,z
-y,-x,1/2+z
1/2+y,1/2+x,1/2+z
loop_
_atom_site_type_symbol
_atom_site_label
_atom_site_fract_x
_atom_site_fract_y
_atom_site_fract_z
Si Si1 0.016299 0.619364 0.432234
Si Si2 0.332859 0.199236 0.145348
Si Si3 0.183251 0.007008 0.889365
Si Si4 0.646551 0.558911 0.666917
Si Si5 0.916204 0.440504 0.738681
O O1 0.034679 0.622307 0.536448
O O2 0.004580 0.718402 0.409271
O O3 0.927508 0.575437 0.404839
O O4 0.085377 0.581168 0.364945
O O5 0.250000 0.250000 0.113046
O O6 0.318960 0.181041 0.250000
O O7 0.337702 0.106593 0.104312
O O8 0.412000 0.261986 0.134419
O O9 0.164568 0.968025 0.793429
O O10 0.621747 0.621747 0.750000
O O11 0.634134 0.466756 0.709871
O O12 0.979820 0.520181 0.750000
#
# Coordination Sequence:
#
# PCOD9567947 Si02
#       5
#    16  16  16  16  16
#     4   9  20  35  52  82 115 141 188 244 285 350
#     4  11  17  28  52  82 117 156 194 227 279 358
#     4  11  20  33  57  85 110 154 192 233 302 354
#     4   9  16  31  46  73 118 156 182 237 273 323
#     4   9  20  34  53  74 114 157 192 231 287 345
#
# _framework density 21.309211000000001
#
# number of rings (size 3 to 8) (size 9 to 14) (size 15 to 20)
#    0.000    2.600    4.000    1.800    0.000    4.000 
#    0.000    0.000    0.000   11.400    0.000    2.800 
#    0.000    0.000    0.000    0.000    0.000    0.000 
#
# Total GULP energy -446506.935616 kJ/mol
# GULP energy per Si atom -5581.336695 kJ/mol
# Density = 2.126071 g / cm^3
# Si number density = 21.309211 Si / 1000 Ang^3
#
#
#
# Elastic Constant Matrix: (Units=GPa)
#
#
# Indices 1 2 3 4 5 6 
#
# 1 43.0274 24.0898 13.2918 0.0000 0.0000 0.0000
# 2 24.0898 43.0279 13.2923 0.0000 0.0000 0.0000
# 3 13.2918 13.2923 81.9625 0.0000 0.0000 0.0000
# 4 0.0000 0.0000 0.0000 19.4743 0.0000 0.0000
# 5 0.0000 0.0000 0.0000 0.0000 19.4748 0.0000
# 6 0.0000 0.0000 0.0000 0.0000 0.0000 18.7878
#
#
#
# Elastic Compliance Matrix: (Units=1/GPa)
#
#
# Indices 1 2 3 4 5 6 
#
# 1 0.034363 -0.018441 -0.002582 0.000000 0.000000 0.000000
# 2 -0.018441 0.034363 -0.002582 0.000000 0.000000 0.000000
# 3 -0.002582 -0.002582 0.013038 0.000000 0.000000 0.000000
# 4 0.000000 0.000000 0.000000 0.051350 0.000000 0.000000
# 5 0.000000 0.000000 0.000000 0.000000 0.051349 0.000000
# 6 0.000000 0.000000 0.000000 0.000000 0.000000 0.053226
#
#
# Mechanical properties :
#
#
# Convention : Reuss Voigt Hill
#
# Bulk Modulus (GPa) = 28.94044 29.92952 29.43498
# Shear Modulus (GPa) = 16.86809 19.37029 18.11919
#
# Velocity S-wave (km/s) = 2.81657 3.01825 2.91915
# Velocity P-wave (km/s) = 4.91814 5.12077 5.02048
#
# Compressibility (1/GPa) = 0.03455373
#
# Stress axis : x y z
#
# Youngs Moduli (GPa) = 29.10080 29.10101 76.69773
#
# Poissons Ratio (x) = 0.53666 0.19803
# Poissons Ratio (y) = 0.53665 0.19805
# Poissons Ratio (z) = 0.07514 0.07515
#
# Static dielectric constant tensor:
#      x y z
#    x 1.788310 0.000000 0.000000 
#    y 0.000000 1.788310 0.000000 
#    z 0.000000 0.000000 1.853700 
# 
# From -- ./inp_files/4314.got.cif
#   From: 2010.05.17/outbox.cif.g08.bks.cpg/sg133_3_cif.got.tgz:4314.got - 2010.05.20 12:37:36.
