data_PCOD9567517
_publ_section_title
;
Structure prediction by ZEFSAII (Michael W. Deem and Ramdas Pophale) SiO2 
 PCOD9567517
Probable space group: P 42/M C M
;
_chemical_formula_sum "Si O2"
_cell_formula_units_Z 84
_cell_length_a 12.247624
_cell_length_b 12.247624
_cell_length_c 28.912110
_cell_angle_alpha 90.000000
_cell_angle_beta 90.000000
_cell_angle_gamma 90.000000
_cell_volume 4336.940638
_symmetry_space_group_name_H-M "P 42/M C M"
_symmetry_group_IT_number 132
_symmetry_cell_setting 'tetragonal'
loop_
_space_group_symop_operation_xyz
x,y,z
-y,x,1/2+z
-x,-y,z
y,-x,1/2+z
x,-y,1/2-z
-x,y,1/2-z
y,x,-z
-y,-x,-z
-x,-y,-z
y,-x,1/2-z
x,y,-z
-y,x,1/2-z
-x,y,1/2+z
x,-y,1/2+z
-y,-x,z
y,x,z
loop_
_atom_site_type_symbol
_atom_site_label
_atom_site_fract_x
_atom_site_fract_y
_atom_site_fract_z
Si Si1 0.217534 0.606239 0.384867
Si Si2 0.994171 0.252618 0.113655
Si Si3 0.097664 0.727403 0.784852
Si Si4 0.544988 0.279419 0.199473
Si Si5 0.568641 0.113469 0.052567
Si Si6 0.000000 0.000000 0.588375
O O1 0.316267 0.683734 0.398551
O O2 0.245486 0.549730 0.335855
O O3 0.197097 0.510029 0.421348
O O4 0.108462 0.680957 0.383053
O O5 0.951256 0.239161 0.165755
O O6 0.911970 0.327163 0.084025
O O7 0.001538 0.134756 0.090873
O O8 0.174235 0.825766 0.766825
O O9 0.175606 0.624228 0.793255
O O10 0.000000 0.703181 0.750000
O O11 0.500000 0.308534 0.250000
O O12 0.620562 0.379438 0.182076
O O13 0.500000 0.000000 0.050962
O O14 0.595557 0.143892 0.000000
#
# Coordination Sequence:
#
# PCOD9567517 Si02
#       6
#    16  16  16  16  16   4
#     4  11  22  38  67  98 128 173 228 276 332 394
#     4  11  22  41  63  95 135 177 216 270 330 404
#     4  11  24  37  59  88 128 174 223 268 327 398
#     4  11  24  41  60  89 126 171 222 277 332 390
#     4   9  20  41  68  94 128 175 222 272 332 397
#     4  12  24  40  70  96 144 172 212 274 342 396
#
# _framework density 19.368492
#
# number of rings (size 3 to 8) (size 9 to 14) (size 15 to 20)
#    0.000    1.333    3.810    1.714    1.333    5.333 
#    0.000    1.429    0.000    0.000    0.000    1.333 
#    0.000    0.000    0.000    0.000    0.000    0.000 
#
# Total GULP energy -468299.351719 kJ/mol
# GULP energy per Si atom -5574.992282 kJ/mol
# Density = 1.932441 g / cm^3
# Si number density = 19.368492 Si / 1000 Ang^3
#
#
#
# Elastic Constant Matrix: (Units=GPa)
#
#
# Indices 1 2 3 4 5 6 
#
# 1 121.7668 49.6499 26.1192 0.0000 0.0000 0.0000
# 2 49.6499 121.7668 26.1192 0.0000 0.0000 0.0000
# 3 26.1192 26.1192 80.3478 0.0000 0.0000 0.0000
# 4 0.0000 0.0000 0.0000 -7.6267 0.0000 0.0000
# 5 0.0000 0.0000 0.0000 0.0000 -7.6267 0.0000
# 6 0.0000 0.0000 0.0000 0.0000 0.0000 35.1594
#
#
#
# Elastic Compliance Matrix: (Units=1/GPa)
#
#
# Indices 1 2 3 4 5 6 
#
# 1 0.010171 -0.003696 -0.002105 0.000000 0.000000 0.000000
# 2 -0.003696 0.010171 -0.002105 0.000000 0.000000 0.000000
# 3 -0.002105 -0.002105 0.013814 0.000000 0.000000 0.000000
# 4 0.000000 0.000000 0.000000 -0.131118 0.000000 0.000000
# 5 0.000000 0.000000 0.000000 0.000000 -0.131118 0.000000
# 6 0.000000 0.000000 0.000000 0.000000 0.000000 0.028442
#
#
# Mechanical properties :
#
#
# Convention : Reuss Voigt Hill
#
# Bulk Modulus (GPa) = 54.51049 58.62864 56.56956
# Shear Modulus (GPa) = -28.13546 18.78074 -4.67736
#
# Velocity S-wave (km/s) = -3.81549 3.11731 -1.55569
# Velocity P-wave (km/s) = 2.96554 6.57971 5.10328
#
# Compressibility (1/GPa) = 0.01834509
#
# Stress axis : x y z
#
# Youngs Moduli (GPa) = 98.32081 98.32081 72.38809
#
# Poissons Ratio (x) = 0.36335 0.15237
# Poissons Ratio (y) = 0.36335 0.15237
# Poissons Ratio (z) = 0.20696 0.20696
#
# Static dielectric constant tensor:
#      x y z
#    x 1.669480 0.000000 0.000000 
#    y 0.000000 1.669480 0.000000 
#    z 0.000000 0.000000 1.656940 
# 
# From -- ./inp_files/10779.got.cif
#   From: 2010.05.17/outbox.cif.g08.bks.cpg/sg132_6_cif.got.tgz:10779.got - 2010.05.20 12:30:18.
