data_PCOD9567814
_publ_section_title
;
Structure prediction by ZEFSAII (Michael W. Deem and Ramdas Pophale) SiO2 
 PCOD9567814
Probable space group: P 42/N B C
;
_chemical_formula_sum "Si O2"
_cell_formula_units_Z 96
_cell_length_a 14.258705
_cell_length_b 14.258705
_cell_length_c 21.220683
_cell_angle_alpha 90.000000
_cell_angle_beta 90.000000
_cell_angle_gamma 90.000000
_cell_volume 4314.391242
_symmetry_space_group_name_H-M "P 42/N B C"
_symmetry_group_IT_number 133
_space_group.IT_coordinate_system_code '2'
_symmetry_cell_setting 'tetragonal'
loop_
_space_group_symop_operation_xyz
x,y,z
1/2-y,x,1/2+z
1/2-x,1/2-y,z
y,1/2-x,1/2+z
x,1/2-y,-z
1/2-x,y,-z
y,x,1/2-z
1/2-y,1/2-x,1/2-z
-x,-y,-z
1/2+y,-x,1/2-z
1/2+x,1/2+y,-z
-y,1/2+x,1/2-z
-x,1/2+y,z
1/2+x,-y,z
-y,-x,1/2+z
1/2+y,1/2+x,1/2+z
loop_
_atom_site_type_symbol
_atom_site_label
_atom_site_fract_x
_atom_site_fract_y
_atom_site_fract_z
Si Si1 0.668785 0.595733 0.686350
Si Si2 0.379354 0.737251 0.072083
Si Si3 0.726615 0.095446 0.877972
Si Si4 0.763008 0.890859 0.925616
Si Si5 0.521697 0.070463 0.307869
Si Si6 0.437291 0.155321 0.119895
O O1 0.655580 0.655580 0.750000
O O2 0.638191 0.652056 0.622085
O O3 0.604731 0.504071 0.694522
O O4 0.774150 0.560190 0.678388
O O5 0.360125 0.840866 0.098342
O O6 0.314862 0.665552 0.113414
O O7 0.484219 0.697822 0.074411
O O8 0.349898 0.750000 0.000000
O O9 0.678678 0.055242 0.814115
O O10 0.752523 0.003297 0.917083
O O11 0.670220 0.841611 0.899684
O O12 0.750000 0.871124 0.000000
O O13 0.453782 0.046128 0.366603
O O14 0.454816 0.045185 0.250000
#
# Coordination Sequence:
#
# PCOD9567814 Si02
#       6
#    16  16  16  16  16  16
#     4  11  25  45  68  97 136 184 228 282 350 426
#     4  11  22  40  67  98 140 179 234 294 357 419
#     4  10  21  42  67  99 130 180 229 286 348 419
#     4  11  25  42  68 101 138 178 231 288 352 421
#     4  10  23  44  70  97 139 176 231 292 348 425
#     4  11  25  40  66  97 134 181 227 286 350 417
#
# _framework density 22.251111000000002
#
# number of rings (size 3 to 8) (size 9 to 14) (size 15 to 20)
#    0.000    1.333    1.667    3.500    7.000    1.333 
#    0.000    4.167    0.000    2.000    0.000    0.000 
#    0.000    0.000    0.000    0.000    0.000    0.000 
#
# Total GULP energy -534630.146545 kJ/mol
# GULP energy per Si atom -5569.064027 kJ/mol
# Density = 2.220047 g / cm^3
# Si number density = 22.251111 Si / 1000 Ang^3
#
#
#
# Elastic Constant Matrix: (Units=GPa)
#
#
# Indices 1 2 3 4 5 6 
#
# 1 95.6905 3.6706 7.7114 0.0000 0.0000 0.0000
# 2 3.6706 95.6908 7.7116 0.0000 0.0000 0.0000
# 3 7.7114 7.7116 72.8379 0.0000 0.0000 0.0000
# 4 0.0000 0.0000 0.0000 6.7513 0.0000 0.0000
# 5 0.0000 0.0000 0.0000 0.0000 6.7521 0.0000
# 6 0.0000 0.0000 0.0000 0.0000 0.0000 15.2933
#
#
#
# Elastic Compliance Matrix: (Units=1/GPa)
#
#
# Indices 1 2 3 4 5 6 
#
# 1 0.010550 -0.000317 -0.001083 0.000000 0.000000 0.000000
# 2 -0.000317 0.010550 -0.001083 0.000000 0.000000 0.000000
# 3 -0.001083 -0.001083 0.013959 0.000000 0.000000 0.000000
# 4 0.000000 0.000000 0.000000 0.148120 0.000000 0.000000
# 5 0.000000 0.000000 0.000000 0.000000 0.148102 0.000000
# 6 0.000000 0.000000 0.000000 0.000000 0.000000 0.065388
#
#
# Mechanical properties :
#
#
# Convention : Reuss Voigt Hill
#
# Bulk Modulus (GPa) = 33.23355 33.60070 33.41713
# Shear Modulus (GPa) = 12.14576 22.10105 17.12340
#
# Velocity S-wave (km/s) = 2.33888 3.15502 2.77709
# Velocity P-wave (km/s) = 4.71825 5.32969 5.03327
#
# Compressibility (1/GPa) = 0.03009007
#
# Stress axis : x y z
#
# Youngs Moduli (GPa) = 94.78822 94.78853 71.64093
#
# Poissons Ratio (x) = 0.03008 0.07761
# Poissons Ratio (y) = 0.03008 0.07761
# Poissons Ratio (z) = 0.10269 0.10269
#
# Static dielectric constant tensor:
#      x y z
#    x 1.892080 0.000000 0.000000 
#    y 0.000000 1.892080 0.000000 
#    z 0.000000 0.000000 1.944010 
# 
# From -- ./inp_files/6512.got.cif
#   From: 2010.05.17/outbox.cif.g08.bks.cpg/sg133_4_cif.got.tgz:6512.got - 2010.05.20 12:37:36.
