data_PCOD9567658
_publ_section_title
;
Structure prediction by ZEFSAII (Michael W. Deem and Ramdas Pophale) SiO2 
 PCOD9567658
Probable space group: P 42/N B C
;
_chemical_formula_sum "Si O2"
_cell_formula_units_Z 112
_cell_length_a 14.020992
_cell_length_b 14.020992
_cell_length_c 28.421308
_cell_angle_alpha 90.000000
_cell_angle_beta 90.000000
_cell_angle_gamma 90.000000
_cell_volume 5587.294255
_symmetry_space_group_name_H-M "P 42/N B C"
_symmetry_group_IT_number 133
_space_group.IT_coordinate_system_code '2'
_symmetry_cell_setting 'tetragonal'
loop_
_space_group_symop_operation_xyz
x,y,z
1/2-y,x,1/2+z
1/2-x,1/2-y,z
y,1/2-x,1/2+z
x,1/2-y,-z
1/2-x,y,-z
y,x,1/2-z
1/2-y,1/2-x,1/2-z
-x,-y,-z
1/2+y,-x,1/2-z
1/2+x,1/2+y,-z
-y,1/2+x,1/2-z
-x,1/2+y,z
1/2+x,-y,z
-y,-x,1/2+z
1/2+y,1/2+x,1/2+z
loop_
_atom_site_type_symbol
_atom_site_label
_atom_site_fract_x
_atom_site_fract_y
_atom_site_fract_z
Si Si1 0.460209 0.689808 0.371921
Si Si2 0.015562 0.862761 0.042593
Si Si3 0.822953 0.829906 0.099033
Si Si4 0.104270 0.602698 0.864677
Si Si5 0.514015 0.461708 0.198675
Si Si6 0.647685 0.048951 0.438373
Si Si7 0.221319 0.031325 0.347148
O O1 0.567604 0.717788 0.386765
O O2 0.399768 0.783040 0.360811
O O3 0.464994 0.615544 0.328405
O O4 0.410209 0.634998 0.415384
O O5 0.069819 0.922727 0.082211
O O6 0.066126 0.759017 0.049008
O O7 0.907888 0.848774 0.061584
O O8 0.018255 0.893412 0.988652
O O9 0.750000 0.750000 0.081732
O O10 0.875034 0.784425 0.145079
O O11 0.058395 0.524088 0.831702
O O12 0.056007 0.703633 0.850478
O O13 0.507115 0.507115 0.250000
O O14 0.479884 0.351404 0.195476
O O15 0.657446 0.975084 0.395037
#
# Coordination Sequence:
#
# PCOD9567658 Si02
#       7
#    16  16  16  16  16  16  16
#     4  11  21  38  65  93 122 171 212 259 320 390
#     4   9  18  38  60  87 132 164 212 261 303 371
#     4  10  19  36  61  86 127 167 210 257 313 376
#     4  10  21  39  60  90 127 162 208 263 314 378
#     4  11  23  41  64  91 122 162 207 267 329 386
#     4   8  18  34  61  89 116 174 202 250 310 358
#     4   9  20  40  62  87 127 164 205 266 320 373
#
# _framework density 20.045482
#
# number of rings (size 3 to 8) (size 9 to 14) (size 15 to 20)
#    0.000    2.571    2.857    0.857    0.000    7.429 
#    0.000    8.571   12.571    5.143    0.000    0.000 
#    0.000    0.000    0.000    0.000    0.000    0.000 
#
# Total GULP energy -624036.704391 kJ/mol
# GULP energy per Si atom -5571.756289 kJ/mol
# Density = 1.999986 g / cm^3
# Si number density = 20.045482 Si / 1000 Ang^3
#
#
#
# Elastic Constant Matrix: (Units=GPa)
#
#
# Indices 1 2 3 4 5 6 
#
# 1 85.2294 11.9652 27.8712 0.0000 0.0000 0.0000
# 2 11.9652 85.2294 27.8712 0.0000 0.0000 0.0000
# 3 27.8712 27.8712 72.5081 0.0000 0.0000 0.0000
# 4 0.0000 0.0000 0.0000 2.4210 0.0000 0.0000
# 5 0.0000 0.0000 0.0000 0.0000 2.4210 0.0000
# 6 0.0000 0.0000 0.0000 0.0000 0.0000 26.1153
#
#
#
# Elastic Compliance Matrix: (Units=1/GPa)
#
#
# Indices 1 2 3 4 5 6 
#
# 1 0.013424 -0.000226 -0.005073 0.000000 0.000000 0.000000
# 2 -0.000226 0.013424 -0.005073 0.000000 0.000000 0.000000
# 3 -0.005073 -0.005073 0.017692 0.000000 0.000000 0.000000
# 4 0.000000 0.000000 0.000000 0.413056 0.000000 0.000000
# 5 0.000000 0.000000 0.000000 0.000000 0.413056 0.000000
# 6 0.000000 0.000000 0.000000 0.000000 0.000000 0.038292
#
#
# Mechanical properties :
#
#
# Convention : Reuss Voigt Hill
#
# Bulk Modulus (GPa) = 42.02521 42.04245 42.03383
# Shear Modulus (GPa) = 5.33266 17.87541 11.60404
#
# Velocity S-wave (km/s) = 1.63281 2.98945 2.40861
# Velocity P-wave (km/s) = 4.95633 5.73888 5.36190
#
# Compressibility (1/GPa) = 0.02379524
#
# Stress axis : x y z
#
# Youngs Moduli (GPa) = 74.49501 74.49501 56.52357
#
# Poissons Ratio (x) = 0.01680 0.28676
# Poissons Ratio (y) = 0.01680 0.28676
# Poissons Ratio (z) = 0.37793 0.37793
#
# Static dielectric constant tensor:
#      x y z
#    x 1.771410 0.000000 0.000000 
#    y 0.000000 1.771410 0.000000 
#    z 0.000000 0.000000 1.745410 
# 
# From -- ./inp_files/7631.got.cif
#   From: 2010.05.17/outbox.cif.g08.bks.cpg/sg133_4_cif.got.tgz:7631.got - 2010.05.20 12:37:36.
