data_PCOD9567470
_publ_section_title
;
Structure prediction by ZEFSAII (Michael W. Deem and Ramdas Pophale) SiO2 
 PCOD9567470
Probable space group: P 42/M C M
;
_chemical_formula_sum "Si O2"
_cell_formula_units_Z 58
_cell_length_a 14.797924
_cell_length_b 14.797924
_cell_length_c 13.662713
_cell_angle_alpha 90.000000
_cell_angle_beta 90.000000
_cell_angle_gamma 90.000000
_cell_volume 2991.841146
_symmetry_space_group_name_H-M "P 42/M C M"
_symmetry_group_IT_number 132
_symmetry_cell_setting 'tetragonal'
loop_
_space_group_symop_operation_xyz
x,y,z
-y,x,1/2+z
-x,-y,z
y,-x,1/2+z
x,-y,1/2-z
-x,y,1/2-z
y,x,-z
-y,-x,-z
-x,-y,-z
y,-x,1/2-z
x,y,-z
-y,x,1/2-z
-x,y,1/2+z
x,-y,1/2+z
-y,-x,z
y,x,z
loop_
_atom_site_type_symbol
_atom_site_label
_atom_site_fract_x
_atom_site_fract_y
_atom_site_fract_z
Si Si1 0.206446 0.639417 0.000000
Si Si2 0.599762 0.739642 0.207710
Si Si3 0.324488 0.094394 0.307102
Si Si4 0.540063 0.679343 0.000000
Si Si5 0.123054 0.876947 0.117677
Si Si6 0.000000 0.000000 0.750000
O O1 0.140247 0.628570 0.904945
O O2 0.284784 0.562926 0.000000
O O3 0.263986 0.736015 0.000000
O O4 0.500000 0.747681 0.250000
O O5 0.654682 0.654682 0.252052
O O6 0.657209 0.828109 0.228013
O O7 0.585153 0.722084 0.094724
O O8 0.222340 0.095219 0.345064
O O9 0.347533 0.000000 0.250000
O O10 0.574125 0.574125 0.000000
O O11 0.058383 0.941618 0.176462
O O12 0.116888 0.883113 0.000000
#
# Coordination Sequence:
#
# PCOD9567470 Si02
#       6
#     8  16  16   8   8   2
#     4  12  22  44  73  99 139 185 240 298 352 436
#     4  11  23  42  66  98 138 182 225 284 349 415
#     4  12  24  41  69  97 134 185 234 282 353 425
#     4  10  24  42  65 103 143 177 231 290 349 421
#     4  12  23  43  69 100 133 183 241 293 363 428
#     4  12  26  44  68 106 144 164 242 332 364 426
#
# _framework density 19.386057000000001
#
# number of rings (size 3 to 8) (size 9 to 14) (size 15 to 20)
#    0.000    0.552    8.276    0.207    0.000    2.207 
#    0.000    4.138    0.000    0.000    0.000    0.000 
#    0.000    0.000    0.000    0.000    0.000    0.000 
#
# Total GULP energy -322873.032967 kJ/mol
# GULP energy per Si atom -5566.776430 kJ/mol
# Density = 1.934193 g / cm^3
# Si number density = 19.386057 Si / 1000 Ang^3
#
#
#
# Elastic Constant Matrix: (Units=GPa)
#
#
# Indices 1 2 3 4 5 6 
#
# 1 108.3461 61.5271 55.6240 0.0000 0.0000 0.0000
# 2 61.5271 108.3455 55.6240 0.0000 0.0000 0.0000
# 3 55.6240 55.6240 126.1594 0.0000 0.0000 0.0000
# 4 0.0000 0.0000 0.0000 8.7445 0.0000 0.0000
# 5 0.0000 0.0000 0.0000 0.0000 8.7422 0.0000
# 6 0.0000 0.0000 0.0000 0.0000 0.0000 27.9611
#
#
#
# Elastic Compliance Matrix: (Units=1/GPa)
#
#
# Indices 1 2 3 4 5 6 
#
# 1 0.014818 -0.006541 -0.003649 0.000000 0.000000 0.000000
# 2 -0.006541 0.014818 -0.003649 0.000000 0.000000 0.000000
# 3 -0.003649 -0.003649 0.011144 0.000000 0.000000 0.000000
# 4 0.000000 0.000000 0.000000 0.114358 0.000000 0.000000
# 5 0.000000 0.000000 0.000000 0.000000 0.114388 0.000000
# 6 0.000000 0.000000 0.000000 0.000000 0.000000 0.035764
#
#
# Mechanical properties :
#
#
# Convention : Reuss Voigt Hill
#
# Bulk Modulus (GPa) = 76.33114 76.48900 76.41007
# Shear Modulus (GPa) = 14.82205 20.42796 17.62500
#
# Velocity S-wave (km/s) = 2.76809 3.24967 3.01850
# Velocity P-wave (km/s) = 7.04813 7.32269 7.18672
#
# Compressibility (1/GPa) = 0.01310081
#
# Stress axis : x y z
#
# Youngs Moduli (GPa) = 67.48682 67.48629 89.73188
#
# Poissons Ratio (x) = 0.44144 0.32744
# Poissons Ratio (y) = 0.44145 0.32745
# Poissons Ratio (z) = 0.24627 0.24627
#
# Static dielectric constant tensor:
#      x y z
#    x 1.776030 0.000000 0.000000 
#    y 0.000000 1.776050 0.000000 
#    z 0.000000 0.000000 1.687960 
# 
# From -- ./inp_files/4502.got.cif
#   From: 2010.05.17/outbox.cif.g08.bks.cpg/sg132_3_cif.got.tgz:4502.got - 2010.05.20 12:30:18.
