data_PCOD9567667
_publ_section_title
;
Structure prediction by ZEFSAII (Michael W. Deem and Ramdas Pophale) SiO2 
 PCOD9567667
Probable space group: P 42/N B C
;
_chemical_formula_sum "Si O2"
_cell_formula_units_Z 96
_cell_length_a 19.936493
_cell_length_b 19.936493
_cell_length_c 11.196721
_cell_angle_alpha 90.000000
_cell_angle_beta 90.000000
_cell_angle_gamma 90.000000
_cell_volume 4450.290752
_symmetry_space_group_name_H-M "P 42/N B C"
_symmetry_group_IT_number 133
_space_group.IT_coordinate_system_code '2'
_symmetry_cell_setting 'tetragonal'
loop_
_space_group_symop_operation_xyz
x,y,z
1/2-y,x,1/2+z
1/2-x,1/2-y,z
y,1/2-x,1/2+z
x,1/2-y,-z
1/2-x,y,-z
y,x,1/2-z
1/2-y,1/2-x,1/2-z
-x,-y,-z
1/2+y,-x,1/2-z
1/2+x,1/2+y,-z
-y,1/2+x,1/2-z
-x,1/2+y,z
1/2+x,-y,z
-y,-x,1/2+z
1/2+y,1/2+x,1/2+z
loop_
_atom_site_type_symbol
_atom_site_label
_atom_site_fract_x
_atom_site_fract_y
_atom_site_fract_z
Si Si1 0.264831 0.528927 0.360695
Si Si2 0.181908 0.420518 0.972047
Si Si3 0.964907 0.643526 0.729215
Si Si4 0.098086 0.459540 0.582755
Si Si5 0.564373 0.205937 0.615613
Si Si6 0.554177 0.442537 0.865397
O O1 0.250000 0.548323 0.500000
O O2 0.205462 0.478204 0.318369
O O3 0.340362 0.498845 0.359058
O O4 0.265013 0.580669 0.247606
O O5 0.161563 0.460549 0.091416
O O6 0.250000 0.381268 0.000000
O O7 0.117523 0.379159 0.934009
O O8 0.201254 0.482395 0.886646
O O9 0.896091 0.603910 0.750000
O O10 0.026095 0.591281 0.745833
O O11 0.082225 0.500271 0.462287
O O12 0.022938 0.448185 0.633969
O O13 0.584670 0.250000 0.500000
O O14 0.584441 0.128087 0.605903
#
# Coordination Sequence:
#
# PCOD9567667 Si02
#       6
#    16  16  16  16  16  16
#     4  12  23  39  58  93 135 172 212 269 324 385
#     4  10  19  38  59  85 125 180 202 252 328 383
#     4  12  22  39  64  93 136 171 209 269 335 377
#     4  10  22  36  61  99 127 163 220 277 319 375
#     4  10  22  39  60  88 132 173 201 256 339 399
#     4  10  22  37  66 100 130 161 223 280 327 381
#
# _framework density 21.571624
#
# number of rings (size 3 to 8) (size 9 to 14) (size 15 to 20)
#    0.000    1.333    6.667    0.000    2.333    2.000 
#    0.000    0.000    0.000    5.500    0.000    2.333 
#    0.000    0.000    0.000    0.000    0.000    0.000 
#
# Total GULP energy -534884.332845 kJ/mol
# GULP energy per Si atom -5571.711800 kJ/mol
# Density = 2.152253 g / cm^3
# Si number density = 21.571624 Si / 1000 Ang^3
#
#
#
# Elastic Constant Matrix: (Units=GPa)
#
#
# Indices 1 2 3 4 5 6 
#
# 1 90.2323 5.7612 20.6917 0.0000 0.0000 0.0000
# 2 5.7612 90.2304 20.6916 0.0000 0.0000 0.0000
# 3 20.6917 20.6916 138.8642 0.0000 0.0000 0.0000
# 4 0.0000 0.0000 0.0000 3.9024 0.0000 0.0000
# 5 0.0000 0.0000 0.0000 0.0000 3.9035 0.0000
# 6 0.0000 0.0000 0.0000 0.0000 0.0000 -1.2976
#
#
#
# Elastic Compliance Matrix: (Units=1/GPa)
#
#
# Indices 1 2 3 4 5 6 
#
# 1 0.011485 -0.000353 -0.001659 0.000000 0.000000 0.000000
# 2 -0.000353 0.011486 -0.001659 0.000000 0.000000 0.000000
# 3 -0.001659 -0.001659 0.007696 0.000000 0.000000 0.000000
# 4 0.000000 0.000000 0.000000 0.256250 0.000000 0.000000
# 5 0.000000 0.000000 0.000000 0.000000 0.256183 0.000000
# 6 0.000000 0.000000 0.000000 0.000000 0.000000 -0.770638
#
#
# Mechanical properties :
#
#
# Convention : Reuss Voigt Hill
#
# Bulk Modulus (GPa) = 42.87149 45.95734 44.41441
# Shear Modulus (GPa) = -23.53808 19.44715 -2.04547
#
# Velocity S-wave (km/s) = -3.30685 3.00578 -0.97482
# Velocity P-wave (km/s) = 2.31015 5.77902 4.40079
#
# Compressibility (1/GPa) = 0.02332553
#
# Stress axis : x y z
#
# Youngs Moduli (GPa) = 87.06684 87.06494 129.94386
#
# Poissons Ratio (x) = 0.03073 0.21555
# Poissons Ratio (y) = 0.03073 0.21556
# Poissons Ratio (z) = 0.14443 0.14443
#
# Static dielectric constant tensor:
#      x y z
#    x 1.826690 0.000000 0.000000 
#    y 0.000000 1.826700 0.000000 
#    z 0.000000 0.000000 1.957430 
# 
# From -- ./inp_files/3356.got.cif
#   From: 2010.05.17/outbox.cif.g08.bks.cpg/sg133_2_cif.got.tgz:3356.got - 2010.05.20 12:37:36.
