data_PCOD9567637
_publ_section_title
;
Structure prediction by ZEFSAII (Michael W. Deem and Ramdas Pophale) SiO2 
 PCOD9567637
Probable space group: P 42/N B C
;
_chemical_formula_sum "Si O2"
_cell_formula_units_Z 120
_cell_length_a 15.325106
_cell_length_b 15.325106
_cell_length_c 27.911106
_cell_angle_alpha 90.000000
_cell_angle_beta 90.000000
_cell_angle_gamma 90.000000
_cell_volume 6555.170925
_symmetry_space_group_name_H-M "P 42/N B C"
_symmetry_group_IT_number 133
_space_group.IT_coordinate_system_code '2'
_symmetry_cell_setting 'tetragonal'
loop_
_space_group_symop_operation_xyz
x,y,z
1/2-y,x,1/2+z
1/2-x,1/2-y,z
y,1/2-x,1/2+z
x,1/2-y,-z
1/2-x,y,-z
y,x,1/2-z
1/2-y,1/2-x,1/2-z
-x,-y,-z
1/2+y,-x,1/2-z
1/2+x,1/2+y,-z
-y,1/2+x,1/2-z
-x,1/2+y,z
1/2+x,-y,z
-y,-x,1/2+z
1/2+y,1/2+x,1/2+z
loop_
_atom_site_type_symbol
_atom_site_label
_atom_site_fract_x
_atom_site_fract_y
_atom_site_fract_z
Si Si1 0.392360 0.762411 0.928895
Si Si2 0.189107 0.169940 0.430997
Si Si3 0.079424 0.093737 0.806817
Si Si4 0.606420 0.265250 0.554380
Si Si5 0.250000 0.041663 0.500000
Si Si6 0.962882 0.747526 0.365402
Si Si7 0.453967 0.070178 0.692876
Si Si8 0.970179 0.769005 0.853629
O O1 0.346500 0.673689 0.947419
O O2 0.319160 0.835516 0.932077
O O3 0.474970 0.787855 0.961283
O O4 0.435591 0.744126 0.877685
O O5 0.250000 0.250000 0.444568
O O6 0.107588 0.209222 0.403076
O O7 0.236680 0.106745 0.393094
O O8 0.178288 0.105131 0.476006
O O9 0.090325 0.090325 0.750000
O O10 0.168217 0.069505 0.835406
O O11 0.049468 0.191192 0.818176
O O12 0.000741 0.027862 0.819774
O O13 0.570891 0.250000 0.500000
O O14 0.540648 0.275075 0.598701
O O15 0.978312 0.666162 0.328419
O O16 0.435494 0.064507 0.750000
O O17 0.364101 0.040131 0.668474
#
# Coordination Sequence:
#
# PCOD9567637 Si02
#       8
#    16  16  16  16   8  16  16  16
#     4  10  19  38  59  83 113 163 207 249 292 355
#     4  10  20  36  53  79 111 149 189 238 289 339
#     4  11  22  39  63  88 118 158 199 251 316 373
#     4  11  21  37  59  84 123 156 207 250 297 350
#     4  10  19  33  60  74 112 158 204 235 289 348
#     4  11  23  39  58  90 121 155 199 253 298 366
#     4  10  22  39  60  90 122 152 198 254 310 373
#     4  10  20  36  61  82 114 156 193 247 304 362
#
# _framework density 18.306159999999998
#
# number of rings (size 3 to 8) (size 9 to 14) (size 15 to 20)
#    0.000    1.600    2.667    3.000    0.000    1.067 
#    0.000    2.667    0.000    0.000    0.000   11.200 
#    0.000    0.000    0.000    0.000    0.000    0.000 
#
# Total GULP energy -668599.945985 kJ/mol
# GULP energy per Si atom -5571.666217 kJ/mol
# Density = 1.826449 g / cm^3
# Si number density = 18.306160 Si / 1000 Ang^3
#
#
#
# Elastic Constant Matrix: (Units=GPa)
#
#
# Indices 1 2 3 4 5 6 
#
# 1 55.2831 14.6576 9.4708 0.0000 0.0000 0.0000
# 2 14.6576 55.2833 9.4709 0.0000 0.0000 0.0000
# 3 9.4708 9.4709 48.2636 0.0000 0.0000 0.0000
# 4 0.0000 0.0000 0.0000 20.5312 0.0000 0.0000
# 5 0.0000 0.0000 0.0000 0.0000 20.5310 0.0000
# 6 0.0000 0.0000 0.0000 0.0000 0.0000 17.4492
#
#
#
# Elastic Compliance Matrix: (Units=1/GPa)
#
#
# Indices 1 2 3 4 5 6 
#
# 1 0.019858 -0.004757 -0.002963 0.000000 0.000000 0.000000
# 2 -0.004757 0.019858 -0.002963 0.000000 0.000000 0.000000
# 3 -0.002963 -0.002963 0.021882 0.000000 0.000000 0.000000
# 4 0.000000 0.000000 0.000000 0.048706 0.000000 0.000000
# 5 0.000000 0.000000 0.000000 0.000000 0.048707 0.000000
# 6 0.000000 0.000000 0.000000 0.000000 0.000000 0.057309
#
#
# Mechanical properties :
#
#
# Convention : Reuss Voigt Hill
#
# Bulk Modulus (GPa) = 24.85680 25.11430 24.98555
# Shear Modulus (GPa) = 19.91256 20.05099 19.98178
#
# Velocity S-wave (km/s) = 3.30169 3.31314 3.30742
# Velocity P-wave (km/s) = 5.30497 5.32773 5.31636
#
# Compressibility (1/GPa) = 0.04023043
#
# Stress axis : x y z
#
# Youngs Moduli (GPa) = 50.35834 50.35851 45.69864
#
# Poissons Ratio (x) = 0.23957 0.13541
# Poissons Ratio (y) = 0.23957 0.13541
# Poissons Ratio (z) = 0.14922 0.14922
#
# Static dielectric constant tensor:
#      x y z
#    x 1.621880 0.000000 0.000000 
#    y 0.000000 1.621880 0.000000 
#    z 0.000000 0.000000 1.672860 
# 
# From -- ./inp_files/8106.got.cif
#   From: 2010.05.17/outbox.cif.g08.bks.cpg/sg133_5_cif.got.tgz:8106.got - 2010.05.20 12:37:36.
