data_PCOD9567857
_publ_section_title
;
Structure prediction by ZEFSAII (Michael W. Deem and Ramdas Pophale) SiO2 
 PCOD9567857
Probable space group: P 42/N B C
;
_chemical_formula_sum "Si O2"
_cell_formula_units_Z 56
_cell_length_a 13.935947
_cell_length_b 13.935947
_cell_length_c 12.645661
_cell_angle_alpha 90.000000
_cell_angle_beta 90.000000
_cell_angle_gamma 90.000000
_cell_volume 2455.921648
_symmetry_space_group_name_H-M "P 42/N B C"
_symmetry_group_IT_number 133
_space_group.IT_coordinate_system_code '2'
_symmetry_cell_setting 'tetragonal'
loop_
_space_group_symop_operation_xyz
x,y,z
1/2-y,x,1/2+z
1/2-x,1/2-y,z
y,1/2-x,1/2+z
x,1/2-y,-z
1/2-x,y,-z
y,x,1/2-z
1/2-y,1/2-x,1/2-z
-x,-y,-z
1/2+y,-x,1/2-z
1/2+x,1/2+y,-z
-y,1/2+x,1/2-z
-x,1/2+y,z
1/2+x,-y,z
-y,-x,1/2+z
1/2+y,1/2+x,1/2+z
loop_
_atom_site_type_symbol
_atom_site_label
_atom_site_fract_x
_atom_site_fract_y
_atom_site_fract_z
Si Si1 0.037898 0.772546 0.159797
Si Si2 0.571767 0.571767 0.250000
Si Si3 0.933361 0.517924 0.400254
Si Si4 0.066262 0.689322 0.389834
O O1 0.073889 0.743885 0.277845
O O2 0.117494 0.841956 0.107821
O O3 0.942517 0.836531 0.178863
O O4 0.005182 0.677932 0.097792
O O5 0.559780 0.476490 0.180593
O O6 0.000000 0.500000 0.500000
O O7 0.968261 0.625945 0.373788
O O8 0.062485 0.750000 0.500000
#
# Coordination Sequence:
#
# PCOD9567857 Si02
#       4
#    16   8  16  16
#     4  11  22  47  70 105 145 191 252 308 377 454
#     4  10  22  42  67 101 138 188 234 296 370 438
#     4  11  22  45  67  98 147 192 233 305 385 442
#     4  11  25  45  72 105 146 188 247 309 377 450
#
# _framework density 22.802032000000001
#
# number of rings (size 3 to 8) (size 9 to 14) (size 15 to 20)
#    0.000    1.143    5.714    1.714    0.000    5.143 
#    5.143    2.857    0.000    1.714    0.000    0.000 
#    0.000    0.000    0.000    0.000    0.000    0.000 
#
# Total GULP energy -312343.231890 kJ/mol
# GULP energy per Si atom -5577.557712 kJ/mol
# Density = 2.275013 g / cm^3
# Si number density = 22.802032 Si / 1000 Ang^3
#
#
#
# Elastic Constant Matrix: (Units=GPa)
#
#
# Indices 1 2 3 4 5 6 
#
# 1 841.8140 -608.0766 44.6466 0.0000 0.0000 0.0000
# 2 -608.0766 841.8140 44.6466 0.0000 0.0000 0.0000
# 3 44.6466 44.6466 90.6160 0.0000 0.0000 0.0000
# 4 0.0000 0.0000 0.0000 44.1051 0.0000 0.0000
# 5 0.0000 0.0000 0.0000 0.0000 44.1051 0.0000
# 6 0.0000 0.0000 0.0000 0.0000 0.0000 33.2921
#
#
#
# Elastic Compliance Matrix: (Units=1/GPa)
#
#
# Indices 1 2 3 4 5 6 
#
# 1 0.002980 0.002290 -0.002597 0.000000 0.000000 0.000000
# 2 0.002290 0.002980 -0.002597 0.000000 0.000000 0.000000
# 3 -0.002597 -0.002597 0.013594 0.000000 0.000000 0.000000
# 4 0.000000 0.000000 0.000000 0.022673 0.000000 0.000000
# 5 0.000000 0.000000 0.000000 0.000000 0.022673 0.000000
# 6 0.000000 0.000000 0.000000 0.000000 0.000000 0.030037
#
#
# Mechanical properties :
#
#
# Convention : Reuss Voigt Hill
#
# Bulk Modulus (GPa) = 72.73664 81.85302 77.29483
# Shear Modulus (GPa) = 47.47137 177.16894 112.32015
#
# Velocity S-wave (km/s) = 4.56773 8.82425 7.02608
# Velocity P-wave (km/s) = 7.73222 11.82364 9.98964
#
# Compressibility (1/GPa) = 0.01374823
#
# Stress axis : x y z
#
# Youngs Moduli (GPa) = 335.57024 335.57024 73.55993
#
# Poissons Ratio (x) = -0.76855 0.19101
# Poissons Ratio (y) = -0.76855 0.19101
# Poissons Ratio (z) = 0.87137 0.87137
#
# Static dielectric constant tensor:
#      x y z
#    x 1.703060 0.000000 0.000000 
#    y 0.000000 1.703060 0.000000 
#    z 0.000000 0.000000 1.954480 
# 
# From -- ./inp_files/3969.got.cif
#   From: 2010.05.17/outbox.cif.g08.bks.cpg/sg133_2_cif.got.tgz:3969.got - 2010.05.20 12:37:36.
