data_PCOD9567821
_publ_section_title
;
Structure prediction by ZEFSAII (Michael W. Deem and Ramdas Pophale) SiO2 
 PCOD9567821
Probable space group: P 42/N B C
;
_chemical_formula_sum "Si O2"
_cell_formula_units_Z 92
_cell_length_a 25.129871
_cell_length_b 25.129871
_cell_length_c 8.801360
_cell_angle_alpha 90.000000
_cell_angle_beta 90.000000
_cell_angle_gamma 90.000000
_cell_volume 5558.150519
_symmetry_space_group_name_H-M "P 42/N B C"
_symmetry_group_IT_number 133
_space_group.IT_coordinate_system_code '2'
_symmetry_cell_setting 'tetragonal'
loop_
_space_group_symop_operation_xyz
x,y,z
1/2-y,x,1/2+z
1/2-x,1/2-y,z
y,1/2-x,1/2+z
x,1/2-y,-z
1/2-x,y,-z
y,x,1/2-z
1/2-y,1/2-x,1/2-z
-x,-y,-z
1/2+y,-x,1/2-z
1/2+x,1/2+y,-z
-y,1/2+x,1/2-z
-x,1/2+y,z
1/2+x,-y,z
-y,-x,1/2+z
1/2+y,1/2+x,1/2+z
loop_
_atom_site_type_symbol
_atom_site_label
_atom_site_fract_x
_atom_site_fract_y
_atom_site_fract_z
Si Si1 0.750000 0.250000 0.250000
Si Si2 0.891959 0.045826 0.635322
Si Si3 0.766538 0.472268 0.334668
Si Si4 0.543123 0.487642 0.370184
Si Si5 0.142342 0.790106 0.192738
Si Si6 0.476043 0.750000 0.500000
Si Si7 0.611410 0.337855 0.514456
O O1 0.757925 0.195180 0.339731
O O2 0.830389 0.035102 0.668468
O O3 0.904927 0.017828 0.473489
O O4 0.933179 0.032515 0.773044
O O5 0.903088 0.107772 0.599309
O O6 0.750000 0.496217 0.500000
O O7 0.739634 0.413077 0.337338
O O8 0.747224 0.499212 0.174034
O O9 0.535190 0.535190 0.250000
O O10 0.500000 0.500000 0.500000
O O11 0.142592 0.799816 0.371686
O O12 0.146178 0.847727 0.115847
O O13 0.439952 0.697117 0.520253
#
# Coordination Sequence:
#
# PCOD9567821 Si02
#       7
#     4  16  16  16  16   8  16
#     4  12  24  30  40  50  72 126 152 226 254 240
#     4  11  19  33  54  67  91 120 148 193 273 307
#     4  11  22  35  46  66  92 119 157 196 227 311
#     4   9  20  35  52  75  89 104 147 201 262 337
#     4  11  23  32  41  57  87 112 175 203 240 289
#     4  10  22  32  44  63  94 118 176 206 228 288
#     4  11  20  33  45  63  82 126 154 205 245 296
#
# _framework density 16.552268999999999
#
# number of rings (size 3 to 8) (size 9 to 14) (size 15 to 20)
#    0.000    1.391    1.739    6.261    2.435    0.696 
#    0.000    0.000    0.000    0.000    0.000    0.000 
#    0.000    0.000    0.000    0.000    0.000    0.000 
#
# Total GULP energy -512162.448295 kJ/mol
# GULP energy per Si atom -5566.983134 kJ/mol
# Density = 1.651460 g / cm^3
# Si number density = 16.552269 Si / 1000 Ang^3
#
#
#
# Elastic Constant Matrix: (Units=GPa)
#
#
# Indices 1 2 3 4 5 6 
#
# 1 17.6984 9.9311 14.0363 0.0000 0.0000 0.0000
# 2 9.9311 17.6984 14.0363 0.0000 0.0000 0.0000
# 3 14.0363 14.0363 138.9319 0.0000 0.0000 0.0000
# 4 0.0000 0.0000 0.0000 22.5579 0.0000 0.0000
# 5 0.0000 0.0000 0.0000 0.0000 22.5579 0.0000
# 6 0.0000 0.0000 0.0000 0.0000 0.0000 19.8643
#
#
#
# Elastic Compliance Matrix: (Units=1/GPa)
#
#
# Indices 1 2 3 4 5 6 
#
# 1 0.084539 -0.044205 -0.004075 0.000000 0.000000 0.000000
# 2 -0.044205 0.084539 -0.004075 0.000000 0.000000 0.000000
# 3 -0.004075 -0.004075 0.008021 0.000000 0.000000 0.000000
# 4 0.000000 0.000000 0.000000 0.044330 0.000000 0.000000
# 5 0.000000 0.000000 0.000000 0.000000 0.044330 0.000000
# 6 0.000000 0.000000 0.000000 0.000000 0.000000 0.050342
#
#
# Mechanical properties :
#
#
# Convention : Reuss Voigt Hill
#
# Bulk Modulus (GPa) = 13.81437 27.81513 20.81475
# Shear Modulus (GPa) = 11.23746 22.08435 16.66090
#
# Velocity S-wave (km/s) = 2.60841 3.65666 3.17608
# Velocity P-wave (km/s) = 4.17562 5.88805 5.10416
#
# Compressibility (1/GPa) = 0.07238840
#
# Stress axis : x y z
#
# Youngs Moduli (GPa) = 11.82890 11.82890 124.67046
#
# Poissons Ratio (x) = 0.52290 0.50802
# Poissons Ratio (y) = 0.52290 0.50802
# Poissons Ratio (z) = 0.04820 0.04820
#
# Static dielectric constant tensor:
#      x y z
#    x 1.581110 0.000000 0.000000 
#    y 0.000000 1.581110 0.000000 
#    z 0.000000 0.000000 1.711860 
# 
# From -- ./inp_files/1962.got.cif
#   From: 2010.05.17/outbox.cif.g08.bks.cpg/sg133_1_cif.got.tgz:1962.got - 2010.05.20 12:37:36.
