data_PCOD9567467
_publ_section_title
;
Structure prediction by ZEFSAII (Michael W. Deem and Ramdas Pophale) SiO2 
 PCOD9567467
Probable space group: P 42/M C M
;
_chemical_formula_sum "Si O2"
_cell_formula_units_Z 40
_cell_length_a 13.879277
_cell_length_b 13.879277
_cell_length_c 9.717760
_cell_angle_alpha 90.000000
_cell_angle_beta 90.000000
_cell_angle_gamma 90.000000
_cell_volume 1871.974187
_symmetry_space_group_name_H-M "P 42/M C M"
_symmetry_group_IT_number 132
_symmetry_cell_setting 'tetragonal'
loop_
_space_group_symop_operation_xyz
x,y,z
-y,x,1/2+z
-x,-y,z
y,-x,1/2+z
x,-y,1/2-z
-x,y,1/2-z
y,x,-z
-y,-x,-z
-x,-y,-z
y,-x,1/2-z
x,y,-z
-y,x,1/2-z
-x,y,1/2+z
x,-y,1/2+z
-y,-x,z
y,x,z
loop_
_atom_site_type_symbol
_atom_site_label
_atom_site_fract_x
_atom_site_fract_y
_atom_site_fract_z
Si Si1 0.500000 0.000000 0.750000
Si Si2 0.165074 0.365309 0.152955
Si Si3 0.141327 0.858674 0.343256
Si Si4 0.500000 0.500000 0.250000
Si Si5 0.000000 0.000000 0.750000
Si Si6 0.347081 0.652920 0.158231
O O1 0.433561 0.926401 0.666498
O O2 0.128523 0.255665 0.167913
O O3 0.249505 0.380334 0.263686
O O4 0.207809 0.375475 0.000000
O O5 0.110156 0.889845 0.500000
O O6 0.082822 0.917179 0.230014
O O7 0.428652 0.571349 0.168453
O O8 0.325779 0.674222 0.000000
#
# Coordination Sequence:
#
# PCOD9567467 Si02
#       6
#     4  16   8   2   2   8
#     4  12  22  36  68 102 122 160 216 262 310 380
#     4  10  23  43  63  89 129 168 204 256 317 374
#     4   9  20  38  57  81 118 159 195 240 300 357
#     4  12  26  40  64  94 126 156 200 270 330 376
#     4  12  18  32  60  90 112 148 202 252 288 346
#     4  11  25  44  66  92 123 165 214 260 316 387
#
# _framework density 21.367816000000001
#
# number of rings (size 3 to 8) (size 9 to 14) (size 15 to 20)
#    0.000    1.600    0.000    5.400    0.000    9.600 
#    0.000   12.000    0.000    0.000    0.000    0.000 
#    0.000    0.000    0.000    0.000    0.000    0.000 
#
# Total GULP energy -222980.468266 kJ/mol
# GULP energy per Si atom -5574.511707 kJ/mol
# Density = 2.131918 g / cm^3
# Si number density = 21.367816 Si / 1000 Ang^3
#
#
#
# Elastic Constant Matrix: (Units=GPa)
#
#
# Indices 1 2 3 4 5 6 
#
# 1 104.8988 74.8852 45.8077 0.0000 0.0000 0.0000
# 2 74.8852 104.8993 45.8079 0.0000 0.0000 0.0000
# 3 45.8077 45.8079 125.5873 0.0000 0.0000 0.0000
# 4 0.0000 0.0000 0.0000 -16.6716 0.0000 0.0000
# 5 0.0000 0.0000 0.0000 0.0000 -16.6749 0.0000
# 6 0.0000 0.0000 0.0000 0.0000 0.0000 51.7672
#
#
#
# Elastic Compliance Matrix: (Units=1/GPa)
#
#
# Indices 1 2 3 4 5 6 
#
# 1 0.020075 -0.013243 -0.002492 0.000000 0.000000 0.000000
# 2 -0.013243 0.020075 -0.002492 0.000000 0.000000 0.000000
# 3 -0.002492 -0.002492 0.009780 0.000000 0.000000 0.000000
# 4 0.000000 0.000000 0.000000 -0.059982 0.000000 0.000000
# 5 0.000000 0.000000 0.000000 0.000000 -0.059970 0.000000
# 6 0.000000 0.000000 0.000000 0.000000 0.000000 0.019317
#
#
# Mechanical properties :
#
#
# Convention : Reuss Voigt Hill
#
# Bulk Modulus (GPa) = 74.20210 74.26523 74.23366
# Shear Modulus (GPa) = -512.36686 14.94311 -248.71188
#
# Velocity S-wave (km/s) = -15.50177 2.64735 -10.80038
# Velocity P-wave (km/s) = 16.89985 6.64648 10.98702
#
# Compressibility (1/GPa) = 0.01347671
#
# Stress axis : x y z
#
# Youngs Moduli (GPa) = 49.81303 49.81319 102.24426
#
# Poissons Ratio (x) = 0.65967 0.25479
# Poissons Ratio (y) = 0.65967 0.25479
# Poissons Ratio (z) = 0.12413 0.12414
#
# Static dielectric constant tensor:
#      x y z
#    x 1.753540 0.000000 0.000000 
#    y 0.000000 1.753540 0.000000 
#    z 0.000000 0.000000 1.820320 
# 
# From -- ./inp_files/636.got.cif
#   From: 2010.05.17/outbox.cif.g08.bks.cpg/sg132_1_cif.got.tgz:636.got - 2010.05.20 12:30:18.
