data_PCOD9567244
_publ_section_title
;
Structure prediction by ZEFSAII (Michael W. Deem and Ramdas Pophale) SiO2 
 PCOD9567244
Probable space group: P 42/M C M
;
_chemical_formula_sum "Si O2"
_cell_formula_units_Z 96
_cell_length_a 25.165365
_cell_length_b 25.165365
_cell_length_c 8.810374
_cell_angle_alpha 90.000000
_cell_angle_beta 90.000000
_cell_angle_gamma 90.000000
_cell_volume 5579.571050
_symmetry_space_group_name_H-M "P 42/M C M"
_symmetry_group_IT_number 132
_symmetry_cell_setting 'tetragonal'
loop_
_space_group_symop_operation_xyz
x,y,z
-y,x,1/2+z
-x,-y,z
y,-x,1/2+z
x,-y,1/2-z
-x,y,1/2-z
y,x,-z
-y,-x,-z
-x,-y,-z
y,-x,1/2-z
x,y,-z
-y,x,1/2-z
-x,y,1/2+z
x,-y,1/2+z
-y,-x,z
y,x,z
loop_
_atom_site_type_symbol
_atom_site_label
_atom_site_fract_x
_atom_site_fract_y
_atom_site_fract_z
Si Si1 0.675784 0.943334 0.824556
Si Si2 0.946369 0.196010 0.672826
Si Si3 0.239022 0.558613 0.682217
Si Si4 0.346475 0.173361 0.316597
Si Si5 0.353419 0.442196 0.318110
Si Si6 0.755248 0.244753 0.815487
Si Si7 0.839888 0.160113 0.179029
O O1 0.739922 0.945800 0.824934
O O2 0.662622 0.887162 0.742334
O O3 0.657929 0.000000 0.750000
O O4 0.657676 0.941205 0.000000
O O5 0.942544 0.178281 0.500000
O O6 0.897277 0.175789 0.766806
O O7 0.000000 0.177386 0.750000
O O8 0.229725 0.500000 0.750000
O O9 0.238506 0.557373 0.500000
O O10 0.196271 0.599416 0.747705
O O11 0.297770 0.574516 0.742172
O O12 0.347558 0.171981 0.500000
O O13 0.300872 0.217174 0.270978
O O14 0.367134 0.500000 0.250000
O O15 0.345970 0.446718 0.500000
O O16 0.399340 0.399340 0.288956
O O17 0.797891 0.202110 0.757885
O O18 0.753222 0.246779 0.000000
O O19 0.836303 0.163698 0.000000
#
# Coordination Sequence:
#
# PCOD9567244 Si02
#       7
#    16  16  16  16  16   8   8
#     4  10  20  34  53  80 112 148 186 228 274 329
#     4  10  20  33  50  74 104 142 184 227 273 326
#     4  11  23  40  60  84 111 148 191 234 279 332
#     4  11  21  37  58  84 116 152 187 230 279 333
#     4  10  21  37  57  81 110 146 187 233 283 335
#     4   9  20  33  51  81 116 150 182 218 275 333
#     4  11  19  33  53  76 108 145 181 224 274 329
#
# _framework density 17.205622999999999
#
# number of rings (size 3 to 8) (size 9 to 14) (size 15 to 20)
#    0.000    1.667    1.667    4.750    1.167    2.833 
#    0.000    2.083    0.000    0.750    0.000    5.250 
#    0.000    0.000    0.000    0.000    0.000    0.000 
#
# Total GULP energy -535340.063672 kJ/mol
# GULP energy per Si atom -5576.458997 kJ/mol
# Density = 1.716646 g / cm^3
# Si number density = 17.205623 Si / 1000 Ang^3
#
#
#
# Elastic Constant Matrix: (Units=GPa)
#
#
# Indices 1 2 3 4 5 6 
#
# 1 78.0524 51.5216 43.9192 0.0000 0.0000 0.0000
# 2 51.5216 78.0518 43.9187 0.0000 0.0000 0.0000
# 3 43.9192 43.9187 111.7596 0.0000 0.0000 0.0000
# 4 0.0000 0.0000 0.0000 27.3712 0.0000 0.0000
# 5 0.0000 0.0000 0.0000 0.0000 27.3714 0.0000
# 6 0.0000 0.0000 0.0000 0.0000 0.0000 37.3628
#
#
#
# Elastic Compliance Matrix: (Units=1/GPa)
#
#
# Indices 1 2 3 4 5 6 
#
# 1 0.024106 -0.013586 -0.004134 0.000000 0.000000 0.000000
# 2 -0.013586 0.024106 -0.004134 0.000000 0.000000 0.000000
# 3 -0.004134 -0.004134 0.012197 0.000000 0.000000 0.000000
# 4 0.000000 0.000000 0.000000 0.036535 0.000000 0.000000
# 5 0.000000 0.000000 0.000000 0.000000 0.036535 0.000000
# 6 0.000000 0.000000 0.000000 0.000000 0.000000 0.026765
#
#
# Mechanical properties :
#
#
# Convention : Reuss Voigt Hill
#
# Bulk Modulus (GPa) = 59.87786 60.73142 60.30464
# Shear Modulus (GPa) = 23.86413 26.98802 25.42608
#
# Velocity S-wave (km/s) = 3.72828 3.96480 3.84836
# Velocity P-wave (km/s) = 7.30824 7.50557 7.40756
#
# Compressibility (1/GPa) = 0.01670066
#
# Stress axis : x y z
#
# Youngs Moduli (GPa) = 41.48294 41.48286 81.98701
#
# Poissons Ratio (x) = 0.56359 0.33896
# Poissons Ratio (y) = 0.56359 0.33894
# Poissons Ratio (z) = 0.17150 0.17149
#
# Static dielectric constant tensor:
#      x y z
#    x 1.539060 0.000000 0.000000 
#    y 0.000000 1.539040 0.000000 
#    z 0.000000 0.000000 1.585250 
# 
# From -- ./inp_files/1836.got.cif
#   From: 2010.05.17/outbox.cif.g08.bks.cpg/sg132_1_cif.got.tgz:1836.got - 2010.05.20 12:30:18.
