data_PCOD9567651
_publ_section_title
;
Structure prediction by ZEFSAII (Michael W. Deem and Ramdas Pophale) SiO2 
 PCOD9567651
Probable space group: P 42/N B C
;
_chemical_formula_sum "Si O2"
_cell_formula_units_Z 96
_cell_length_a 15.642216
_cell_length_b 15.642216
_cell_length_c 19.532841
_cell_angle_alpha 90.000000
_cell_angle_beta 90.000000
_cell_angle_gamma 90.000000
_cell_volume 4779.274468
_symmetry_space_group_name_H-M "P 42/N B C"
_symmetry_group_IT_number 133
_space_group.IT_coordinate_system_code '2'
_symmetry_cell_setting 'tetragonal'
loop_
_space_group_symop_operation_xyz
x,y,z
1/2-y,x,1/2+z
1/2-x,1/2-y,z
y,1/2-x,1/2+z
x,1/2-y,-z
1/2-x,y,-z
y,x,1/2-z
1/2-y,1/2-x,1/2-z
-x,-y,-z
1/2+y,-x,1/2-z
1/2+x,1/2+y,-z
-y,1/2+x,1/2-z
-x,1/2+y,z
1/2+x,-y,z
-y,-x,1/2+z
1/2+y,1/2+x,1/2+z
loop_
_atom_site_type_symbol
_atom_site_label
_atom_site_fract_x
_atom_site_fract_y
_atom_site_fract_z
Si Si1 0.489135 0.767070 0.081749
Si Si2 0.552816 0.080123 0.141148
Si Si3 0.802026 0.825666 0.571445
Si Si4 0.004845 0.163017 0.477468
Si Si5 0.949744 0.093086 0.618314
Si Si6 0.831642 0.360748 0.761338
O O1 0.471679 0.675800 0.116512
O O2 0.583985 0.792116 0.106319
O O3 0.437875 0.854790 0.095974
O O4 0.483692 0.750000 0.000000
O O5 0.604430 0.097012 0.210110
O O6 0.610448 0.042174 0.080417
O O7 0.477608 0.011268 0.152282
O O8 0.750000 0.750000 0.607779
O O9 0.750000 0.834826 0.500000
O O10 0.901127 0.814108 0.551982
O O11 0.958733 0.250000 0.500000
O O12 0.003571 0.113462 0.549446
O O13 0.923307 0.166483 0.672778
O O14 0.855891 0.261532 0.774139
#
# Coordination Sequence:
#
# PCOD9567651 Si02
#       6
#    16  16  16  16  16  16
#     4  11  21  39  64  94 126 161 206 258 321 369
#     4  12  24  41  66  93 127 165 216 269 319 387
#     4  10  19  35  59  92 135 165 192 250 322 389
#     4  12  23  38  62 100 128 164 210 261 322 389
#     4  12  23  42  66  93 127 165 217 268 317 391
#     4  11  25  46  64  86 125 173 214 265 330 388
#
# _framework density 20.086729999999999
#
# number of rings (size 3 to 8) (size 9 to 14) (size 15 to 20)
#    0.000    0.667    6.667    4.000    0.000    0.000 
#    0.000    0.833    0.000    0.000    0.000    2.333 
#    0.000    0.000    0.000    0.000    0.000    0.000 
#
# Total GULP energy -534711.224406 kJ/mol
# GULP energy per Si atom -5569.908588 kJ/mol
# Density = 2.004101 g / cm^3
# Si number density = 20.086730 Si / 1000 Ang^3
#
#
#
# Elastic Constant Matrix: (Units=GPa)
#
#
# Indices 1 2 3 4 5 6 
#
# 1 84.6853 22.9815 11.2892 0.0000 0.0000 0.0000
# 2 22.9815 84.6853 11.2892 0.0000 0.0000 0.0000
# 3 11.2892 11.2892 47.0234 0.0000 0.0000 0.0000
# 4 0.0000 0.0000 0.0000 -6.6199 0.0000 0.0000
# 5 0.0000 0.0000 0.0000 0.0000 -6.6199 0.0000
# 6 0.0000 0.0000 0.0000 0.0000 0.0000 79.4883
#
#
#
# Elastic Compliance Matrix: (Units=1/GPa)
#
#
# Indices 1 2 3 4 5 6 
#
# 1 0.012993 -0.003213 -0.002348 0.000000 0.000000 0.000000
# 2 -0.003213 0.012993 -0.002348 0.000000 0.000000 0.000000
# 3 -0.002348 -0.002348 0.022393 0.000000 0.000000 0.000000
# 4 0.000000 0.000000 0.000000 -0.151060 0.000000 0.000000
# 5 0.000000 0.000000 0.000000 0.000000 -0.151060 0.000000
# 6 0.000000 0.000000 0.000000 0.000000 0.000000 0.012580
#
#
# Mechanical properties :
#
#
# Convention : Reuss Voigt Hill
#
# Bulk Modulus (GPa) = 30.71068 34.16818 32.43943
# Shear Modulus (GPa) = -23.31146 24.63864 0.66359
#
# Velocity S-wave (km/s) = -3.41037 3.50610 0.57540
# Velocity P-wave (km/s) = 0.43038 5.78252 4.07752
#
# Compressibility (1/GPa) = 0.03256196
#
# Stress axis : x y z
#
# Youngs Moduli (GPa) = 76.96223 76.96223 44.65605
#
# Poissons Ratio (x) = 0.24729 0.10485
# Poissons Ratio (y) = 0.24729 0.10485
# Poissons Ratio (z) = 0.18071 0.18071
#
# Static dielectric constant tensor:
#      x y z
#    x 1.806680 0.000000 0.000000 
#    y 0.000000 1.806680 0.000000 
#    z 0.000000 0.000000 1.889770 
# 
# From -- ./inp_files/6508.got.cif
#   From: 2010.05.17/outbox.cif.g08.bks.cpg/sg133_4_cif.got.tgz:6508.got - 2010.05.20 12:37:36.
