data_PCOD9567481
_publ_section_title
;
Structure prediction by ZEFSAII (Michael W. Deem and Ramdas Pophale) SiO2 
 PCOD9567481
Probable space group: P 42/M C M
;
_chemical_formula_sum "Si O2"
_cell_formula_units_Z 84
_cell_length_a 12.345651
_cell_length_b 12.345651
_cell_length_c 28.990170
_cell_angle_alpha 90.000000
_cell_angle_beta 90.000000
_cell_angle_gamma 90.000000
_cell_volume 4418.539619
_symmetry_space_group_name_H-M "P 42/M C M"
_symmetry_group_IT_number 132
_symmetry_cell_setting 'tetragonal'
loop_
_space_group_symop_operation_xyz
x,y,z
-y,x,1/2+z
-x,-y,z
y,-x,1/2+z
x,-y,1/2-z
-x,y,1/2-z
y,x,-z
-y,-x,-z
-x,-y,-z
y,-x,1/2-z
x,y,-z
-y,x,1/2-z
-x,y,1/2+z
x,-y,1/2+z
-y,-x,z
y,x,z
loop_
_atom_site_type_symbol
_atom_site_label
_atom_site_fract_x
_atom_site_fract_y
_atom_site_fract_z
Si Si1 0.550202 0.885346 0.800420
Si Si2 0.759296 0.488833 0.886268
Si Si3 0.926991 0.390793 0.552532
Si Si4 0.268836 0.899272 0.889784
Si Si5 0.500000 0.500000 0.396492
Si Si6 0.036060 0.209619 0.197807
O O1 0.500000 0.872351 0.750000
O O2 0.519801 0.789134 0.833999
O O3 0.678478 0.897837 0.798008
O O4 0.500000 0.000000 0.819221
O O5 0.822241 0.572655 0.919268
O O6 0.815991 0.370499 0.891502
O O7 0.633630 0.497387 0.895690
O O8 0.904526 0.358098 0.500000
O O9 0.000000 0.500000 0.551064
O O10 0.996746 0.303617 0.580659
O O11 0.165652 0.834349 0.908222
O O12 0.238973 0.941035 0.838260
O O13 0.111580 0.111580 0.180808
O O14 0.000000 0.184105 0.250000
#
# Coordination Sequence:
#
# PCOD9567481 Si02
#       6
#    16  16  16  16   4  16
#     4  11  19  38  66  88 120 177 228 258 322 397
#     4  11  21  42  61  92 132 172 218 269 326 405
#     4   9  19  38  67  94 124 173 224 265 321 400
#     4  11  21  38  65  93 131 171 214 276 334 380
#     4  12  28  40  70 100 136 176 216 270 346 400
#     4  12  24  38  61  96 127 169 221 275 323 388
#
# _framework density 19.010807
#
# number of rings (size 3 to 8) (size 9 to 14) (size 15 to 20)
#    0.000    1.143    6.667    1.143    1.333    1.714 
#    1.714    1.905    0.000    0.000    0.000    1.333 
#    0.000    0.000    0.000    0.000    0.000    0.000 
#
# Total GULP energy -467847.566742 kJ/mol
# GULP energy per Si atom -5569.613890 kJ/mol
# Density = 1.896754 g / cm^3
# Si number density = 19.010807 Si / 1000 Ang^3
#
#
#
# Elastic Constant Matrix: (Units=GPa)
#
#
# Indices 1 2 3 4 5 6 
#
# 1 138.4021 49.9601 43.7965 0.0000 0.0000 0.0000
# 2 49.9601 138.4021 43.7965 0.0000 0.0000 0.0000
# 3 43.7965 43.7965 93.8498 0.0000 0.0000 0.0000
# 4 0.0000 0.0000 0.0000 -0.6484 0.0000 0.0000
# 5 0.0000 0.0000 0.0000 0.0000 -0.6484 0.0000
# 6 0.0000 0.0000 0.0000 0.0000 0.0000 39.0806
#
#
#
# Elastic Compliance Matrix: (Units=1/GPa)
#
#
# Indices 1 2 3 4 5 6 
#
# 1 0.009044 -0.002263 -0.003164 0.000000 0.000000 0.000000
# 2 -0.002263 0.009044 -0.003164 0.000000 0.000000 0.000000
# 3 -0.003164 -0.003164 0.013609 0.000000 0.000000 0.000000
# 4 0.000000 0.000000 0.000000 -1.542155 0.000000 0.000000
# 5 0.000000 0.000000 0.000000 0.000000 -1.542155 0.000000
# 6 0.000000 0.000000 0.000000 0.000000 0.000000 0.025588
#
#
# Mechanical properties :
#
#
# Convention : Reuss Voigt Hill
#
# Bulk Modulus (GPa) = 68.90571 71.75114 70.32842
# Shear Modulus (GPa) = -1.66389 23.09678 10.71645
#
# Velocity S-wave (km/s) = -0.93655 3.48936 2.37682
# Velocity P-wave (km/s) = 5.92914 7.35244 6.67882
#
# Compressibility (1/GPa) = 0.01451259
#
# Stress axis : x y z
#
# Youngs Moduli (GPa) = 110.57555 110.57555 73.48329
#
# Poissons Ratio (x) = 0.25026 0.23251
# Poissons Ratio (y) = 0.25026 0.23251
# Poissons Ratio (z) = 0.34988 0.34988
#
# Static dielectric constant tensor:
#      x y z
#    x 1.665570 0.000000 0.000000 
#    y 0.000000 1.665570 0.000000 
#    z 0.000000 0.000000 1.660470 
# 
# From -- ./inp_files/10763.got.cif
#   From: 2010.05.17/outbox.cif.g08.bks.cpg/sg132_6_cif.got.tgz:10763.got - 2010.05.20 12:30:18.
