data_PCOD9567733
_publ_section_title
;
Structure prediction by ZEFSAII (Michael W. Deem and Ramdas Pophale) SiO2 
 PCOD9567733
Probable space group: P 42/N B C
;
_chemical_formula_sum "Si O2"
_cell_formula_units_Z 80
_cell_length_a 13.012400
_cell_length_b 13.012400
_cell_length_c 26.408583
_cell_angle_alpha 90.000000
_cell_angle_beta 90.000000
_cell_angle_gamma 90.000000
_cell_volume 4471.568715
_symmetry_space_group_name_H-M "P 42/N B C"
_symmetry_group_IT_number 133
_space_group.IT_coordinate_system_code '2'
_symmetry_cell_setting 'tetragonal'
loop_
_space_group_symop_operation_xyz
x,y,z
1/2-y,x,1/2+z
1/2-x,1/2-y,z
y,1/2-x,1/2+z
x,1/2-y,-z
1/2-x,y,-z
y,x,1/2-z
1/2-y,1/2-x,1/2-z
-x,-y,-z
1/2+y,-x,1/2-z
1/2+x,1/2+y,-z
-y,1/2+x,1/2-z
-x,1/2+y,z
1/2+x,-y,z
-y,-x,1/2+z
1/2+y,1/2+x,1/2+z
loop_
_atom_site_type_symbol
_atom_site_label
_atom_site_fract_x
_atom_site_fract_y
_atom_site_fract_z
Si Si1 0.883913 0.553999 0.368040
Si Si2 0.819554 0.026587 0.796464
Si Si3 0.031015 0.366608 0.355329
Si Si4 0.628433 0.765530 0.443431
Si Si5 0.304569 0.501164 0.694043
O O1 0.887614 0.623521 0.417926
O O2 0.772013 0.510072 0.353855
O O3 0.927782 0.625076 0.321935
O O4 0.964473 0.462861 0.371578
O O5 0.899006 0.121503 0.799950
O O6 0.773741 0.004018 0.741238
O O7 0.718113 0.042292 0.830131
O O8 0.084130 0.315517 0.403441
O O9 0.115430 0.406777 0.314370
O O10 0.750000 0.750000 0.445439
O O11 0.586332 0.750000 0.500000
#
# Coordination Sequence:
#
# PCOD9567733 Si02
#       5
#    16  16  16  16  16
#     4  10  21  36  56  83 110 145 183 227 277 322
#     4  10  22  33  54  81 111 151 187 217 269 327
#     4  10  21  37  55  82 112 142 184 229 272 329
#     4  10  20  38  61  82 105 141 188 231 279 330
#     4  11  20  36  53  79 115 149 183 225 265 319
#
# _framework density 17.890812
#
# number of rings (size 3 to 8) (size 9 to 14) (size 15 to 20)
#    0.000    1.800    2.000    2.400    0.000    6.800 
#    0.000    2.000    0.000    0.000    0.000    1.400 
#    0.000    0.000    0.000    0.000    0.000    0.000 
#
# Total GULP energy -445899.520209 kJ/mol
# GULP energy per Si atom -5573.744003 kJ/mol
# Density = 1.785009 g / cm^3
# Si number density = 17.890812 Si / 1000 Ang^3
#
#
#
# Elastic Constant Matrix: (Units=GPa)
#
#
# Indices 1 2 3 4 5 6 
#
# 1 71.3356 27.0060 39.2466 0.0000 0.0000 0.0000
# 2 27.0060 71.3356 39.2466 0.0000 0.0000 0.0000
# 3 39.2466 39.2466 118.3297 0.0000 0.0000 0.0000
# 4 0.0000 0.0000 0.0000 5.5073 0.0000 0.0000
# 5 0.0000 0.0000 0.0000 0.0000 5.5073 0.0000
# 6 0.0000 0.0000 0.0000 0.0000 0.0000 15.6872
#
#
#
# Elastic Compliance Matrix: (Units=1/GPa)
#
#
# Indices 1 2 3 4 5 6 
#
# 1 0.018194 -0.004364 -0.004587 0.000000 0.000000 0.000000
# 2 -0.004364 0.018194 -0.004587 0.000000 0.000000 0.000000
# 3 -0.004587 -0.004587 0.011494 0.000000 0.000000 0.000000
# 4 0.000000 0.000000 0.000000 0.181576 0.000000 0.000000
# 5 0.000000 0.000000 0.000000 0.000000 0.181576 0.000000
# 6 0.000000 0.000000 0.000000 0.000000 0.000000 0.063746
#
#
# Mechanical properties :
#
#
# Convention : Reuss Voigt Hill
#
# Bulk Modulus (GPa) = 48.06428 52.44437 50.25433
# Shear Modulus (GPa) = 9.82719 15.70716 12.76718
#
# Velocity S-wave (km/s) = 2.34623 2.96623 2.67426
# Velocity P-wave (km/s) = 5.85349 6.41160 6.13889
#
# Compressibility (1/GPa) = 0.02080547
#
# Stress axis : x y z
#
# Youngs Moduli (GPa) = 54.96307 54.96307 87.00437
#
# Poissons Ratio (x) = 0.23987 0.39908
# Poissons Ratio (y) = 0.23987 0.39908
# Poissons Ratio (z) = 0.25211 0.25211
#
# Static dielectric constant tensor:
#      x y z
#    x 1.623260 0.000000 0.000000 
#    y 0.000000 1.623260 0.000000 
#    z 0.000000 0.000000 1.636290 
# 
# From -- ./inp_files/7861.got.cif
#   From: 2010.05.17/outbox.cif.g08.bks.cpg/sg133_4_cif.got.tgz:7861.got - 2010.05.20 12:37:36.
