data_PCOD9567525
_publ_section_title
;
Structure prediction by ZEFSAII (Michael W. Deem and Ramdas Pophale) SiO2 
 PCOD9567525
Probable space group: P 42/M C M
;
_chemical_formula_sum "Si O2"
_cell_formula_units_Z 64
_cell_length_a 11.609050
_cell_length_b 11.609050
_cell_length_c 24.234705
_cell_angle_alpha 90.000000
_cell_angle_beta 90.000000
_cell_angle_gamma 90.000000
_cell_volume 3266.112208
_symmetry_space_group_name_H-M "P 42/M C M"
_symmetry_group_IT_number 132
_symmetry_cell_setting 'tetragonal'
loop_
_space_group_symop_operation_xyz
x,y,z
-y,x,1/2+z
-x,-y,z
y,-x,1/2+z
x,-y,1/2-z
-x,y,1/2-z
y,x,-z
-y,-x,-z
-x,-y,-z
y,-x,1/2-z
x,y,-z
-y,x,1/2-z
-x,y,1/2+z
x,-y,1/2+z
-y,-x,z
y,x,z
loop_
_atom_site_type_symbol
_atom_site_label
_atom_site_fract_x
_atom_site_fract_y
_atom_site_fract_z
Si Si1 0.555701 0.872149 0.092289
Si Si2 0.823545 0.176456 0.437217
Si Si3 0.215844 0.594840 0.714607
Si Si4 0.093023 0.093023 0.173539
Si Si5 0.500504 0.694775 0.500000
Si Si6 0.708914 0.000000 0.750000
O O1 0.689575 0.856972 0.073688
O O2 0.553418 0.835540 0.156446
O O3 0.494508 0.778013 0.053176
O O4 0.500000 0.000000 0.085423
O O5 0.851221 0.148780 0.500000
O O6 0.891919 0.108082 0.390891
O O7 0.282512 0.500000 0.750000
O O8 0.296541 0.703460 0.702804
O O9 0.112367 0.631453 0.756090
O O10 0.042903 0.209291 0.200595
O O11 0.000000 0.000000 0.187477
O O12 0.603066 0.603066 0.500000
O O13 0.381374 0.618627 0.500000
#
# Coordination Sequence:
#
# PCOD9567525 Si02
#       6
#    16   8  16   8   8   8
#     4  12  22  43  70  96 129 184 231 281 349 426
#     4  12  24  43  68  98 138 176 234 290 347 419
#     4  12  25  41  65  98 137 173 224 281 343 415
#     4  12  22  37  66  96 134 180 220 278 341 406
#     4  11  23  42  70  99 132 176 236 296 347 419
#     4  12  18  40  64  96 126 175 231 270 322 422
#
# _framework density 19.595162999999999
#
# number of rings (size 3 to 8) (size 9 to 14) (size 15 to 20)
#    0.000    0.125    8.750    2.250    0.000    1.500 
#    0.000    1.250    0.000    0.000    0.000    0.000 
#    0.000    0.000    0.000    0.000    0.000    0.000 
#
# Total GULP energy -357033.121474 kJ/mol
# GULP energy per Si atom -5578.642523 kJ/mol
# Density = 1.955056 g / cm^3
# Si number density = 19.595163 Si / 1000 Ang^3
#
#
#
# Elastic Constant Matrix: (Units=GPa)
#
#
# Indices 1 2 3 4 5 6 
#
# 1 111.4099 49.9986 50.3211 0.0000 0.0000 0.0000
# 2 49.9986 111.4096 50.3213 0.0000 0.0000 0.0000
# 3 50.3211 50.3213 157.7006 0.0000 0.0000 0.0000
# 4 0.0000 0.0000 0.0000 30.0322 0.0000 0.0000
# 5 0.0000 0.0000 0.0000 0.0000 30.0322 0.0000
# 6 0.0000 0.0000 0.0000 0.0000 0.0000 25.7124
#
#
#
# Elastic Compliance Matrix: (Units=1/GPa)
#
#
# Indices 1 2 3 4 5 6 
#
# 1 0.012009 -0.004275 -0.002468 0.000000 0.000000 0.000000
# 2 -0.004275 0.012009 -0.002468 0.000000 0.000000 0.000000
# 3 -0.002468 -0.002468 0.007916 0.000000 0.000000 0.000000
# 4 0.000000 0.000000 0.000000 0.033298 0.000000 0.000000
# 5 0.000000 0.000000 0.000000 0.000000 0.033298 0.000000
# 6 0.000000 0.000000 0.000000 0.000000 0.000000 0.038892
#
#
# Mechanical properties :
#
#
# Convention : Reuss Voigt Hill
#
# Bulk Modulus (GPa) = 74.00333 75.75580 74.87957
# Shear Modulus (GPa) = 31.18245 32.48063 31.83154
#
# Velocity S-wave (km/s) = 3.99348 4.07576 4.03483
# Velocity P-wave (km/s) = 7.68843 7.80343 7.74614
#
# Compressibility (1/GPa) = 0.01351290
#
# Stress axis : x y z
#
# Youngs Moduli (GPa) = 83.27098 83.27065 126.32396
#
# Poissons Ratio (x) = 0.35596 0.31176
# Poissons Ratio (y) = 0.35596 0.31177
# Poissons Ratio (z) = 0.20551 0.20551
#
# Static dielectric constant tensor:
#      x y z
#    x 1.787970 0.000000 0.000000 
#    y 0.000000 1.787970 0.000000 
#    z 0.000000 0.000000 1.693700 
# 
# From -- ./inp_files/8791.got.cif
#   From: 2010.05.17/outbox.cif.g08.bks.cpg/sg132_5_cif.got.tgz:8791.got - 2010.05.20 12:30:18.
