data_PCOD9567589
_publ_section_title
;
Structure prediction by ZEFSAII (Michael W. Deem and Ramdas Pophale) SiO2 
 PCOD9567589
Probable space group: P 42/N B C
;
_chemical_formula_sum "Si O2"
_cell_formula_units_Z 112
_cell_length_a 14.056527
_cell_length_b 14.056527
_cell_length_c 22.792695
_cell_angle_alpha 90.000000
_cell_angle_beta 90.000000
_cell_angle_gamma 90.000000
_cell_volume 4503.516324
_symmetry_space_group_name_H-M "P 42/N B C"
_symmetry_group_IT_number 133
_space_group.IT_coordinate_system_code '2'
_symmetry_cell_setting 'tetragonal'
loop_
_space_group_symop_operation_xyz
x,y,z
1/2-y,x,1/2+z
1/2-x,1/2-y,z
y,1/2-x,1/2+z
x,1/2-y,-z
1/2-x,y,-z
y,x,1/2-z
1/2-y,1/2-x,1/2-z
-x,-y,-z
1/2+y,-x,1/2-z
1/2+x,1/2+y,-z
-y,1/2+x,1/2-z
-x,1/2+y,z
1/2+x,-y,z
-y,-x,1/2+z
1/2+y,1/2+x,1/2+z
loop_
_atom_site_type_symbol
_atom_site_label
_atom_site_fract_x
_atom_site_fract_y
_atom_site_fract_z
Si Si1 0.432399 0.250535 0.301196
Si Si2 0.363056 0.754883 0.431178
Si Si3 0.828102 0.814457 0.091979
Si Si4 0.068641 0.498536 0.055198
Si Si5 0.901526 0.133888 0.655222
Si Si6 0.755900 0.518336 0.675927
Si Si7 0.413376 0.556057 0.142640
O O1 0.355910 0.226231 0.350641
O O2 0.504581 0.160611 0.309809
O O3 0.413536 0.252696 0.232318
O O4 0.483977 0.348445 0.320369
O O5 0.250000 0.750000 0.440625
O O6 0.401679 0.750000 0.500000
O O7 0.356943 0.736676 0.354517
O O8 0.410329 0.859303 0.415946
O O9 0.750000 0.750000 0.061999
O O10 0.867815 0.904051 0.055941
O O11 0.919249 0.758119 0.116682
O O12 0.137383 0.583701 0.080686
O O13 0.004746 0.499258 0.114794
O O14 0.000000 0.500000 0.000000
O O15 0.830575 0.055223 0.676288
O O16 0.854150 0.459384 0.675558
#
# Coordination Sequence:
#
# PCOD9567589 Si02
#       7
#    16  16  16  16  16  16  16
#     4  10  22  38  62  90 129 170 214 271 337 388
#     4  10  18  32  55  85 116 153 197 251 322 388
#     4  10  24  44  65  93 130 171 223 268 324 412
#     4  10  22  43  68  91 125 169 211 272 334 389
#     4  10  21  37  59  92 125 159 216 271 323 405
#     4  11  21  38  62  91 127 170 217 271 330 396
#     4  10  21  37  59  90 123 160 213 266 329 405
#
# _framework density 24.869454999999999
#
# number of rings (size 3 to 8) (size 9 to 14) (size 15 to 20)
#    0.000    1.857    1.429    2.143    2.000    1.143 
#    0.000    2.857    3.143    0.000    0.000    0.000 
#    0.000    0.000    0.000    0.000    0.000    0.000 
#
# Total GULP energy -623681.224384 kJ/mol
# GULP energy per Si atom -5568.582361 kJ/mol
# Density = 2.481285 g / cm^3
# Si number density = 24.869455 Si / 1000 Ang^3
#
#
#
# Elastic Constant Matrix: (Units=GPa)
#
#
# Indices 1 2 3 4 5 6 
#
# 1 95.5840 35.5373 22.1534 0.0000 0.0000 0.0000
# 2 35.5373 95.5840 22.1534 0.0000 0.0000 0.0000
# 3 22.1534 22.1534 106.1980 0.0000 0.0000 0.0000
# 4 0.0000 0.0000 0.0000 25.3491 0.0000 0.0000
# 5 0.0000 0.0000 0.0000 0.0000 25.3491 0.0000
# 6 0.0000 0.0000 0.0000 0.0000 0.0000 45.7422
#
#
#
# Elastic Compliance Matrix: (Units=1/GPa)
#
#
# Indices 1 2 3 4 5 6 
#
# 1 0.012429 -0.004224 -0.001712 0.000000 0.000000 0.000000
# 2 -0.004224 0.012429 -0.001712 0.000000 0.000000 0.000000
# 3 -0.001712 -0.001712 0.010130 0.000000 0.000000 0.000000
# 4 0.000000 0.000000 0.000000 0.039449 0.000000 0.000000
# 5 0.000000 0.000000 0.000000 0.000000 0.039449 0.000000
# 6 0.000000 0.000000 0.000000 0.000000 0.000000 0.021862
#
#
# Mechanical properties :
#
#
# Convention : Reuss Voigt Hill
#
# Bulk Modulus (GPa) = 50.77711 50.78380 50.78046
# Shear Modulus (GPa) = 31.72416 33.78957 32.75687
#
# Velocity S-wave (km/s) = 3.57547 3.69002 3.63320
# Velocity P-wave (km/s) = 6.12430 6.21446 6.16955
#
# Compressibility (1/GPa) = 0.01969391
#
# Stress axis : x y z
#
# Youngs Moduli (GPa) = 80.45514 80.45514 98.71222
#
# Poissons Ratio (x) = 0.33988 0.16895
# Poissons Ratio (y) = 0.33988 0.16895
# Poissons Ratio (z) = 0.13770 0.13770
#
# Static dielectric constant tensor:
#      x y z
#    x 2.436160 0.000000 0.000000 
#    y 0.000000 2.436160 0.000000 
#    z 0.000000 0.000000 2.109370 
# 
# From -- ./inp_files/7237.got.cif
#   From: 2010.05.17/outbox.cif.g08.bks.cpg/sg133_4_cif.got.tgz:7237.got - 2010.05.20 12:37:36.
