data_PCOD9567447
_publ_section_title
;
Structure prediction by ZEFSAII (Michael W. Deem and Ramdas Pophale) SiO2 
 PCOD9567447
Probable space group: P 42/M C M
;
_chemical_formula_sum "Si O2"
_cell_formula_units_Z 80
_cell_length_a 11.239130
_cell_length_b 11.239130
_cell_length_c 30.126576
_cell_angle_alpha 90.000000
_cell_angle_beta 90.000000
_cell_angle_gamma 90.000000
_cell_volume 3805.530127
_symmetry_space_group_name_H-M "P 42/M C M"
_symmetry_group_IT_number 132
_symmetry_cell_setting 'tetragonal'
loop_
_space_group_symop_operation_xyz
x,y,z
-y,x,1/2+z
-x,-y,z
y,-x,1/2+z
x,-y,1/2-z
-x,y,1/2-z
y,x,-z
-y,-x,-z
-x,-y,-z
y,-x,1/2-z
x,y,-z
-y,x,1/2-z
-x,y,1/2+z
x,-y,1/2+z
-y,-x,z
y,x,z
loop_
_atom_site_type_symbol
_atom_site_label
_atom_site_fract_x
_atom_site_fract_y
_atom_site_fract_z
Si Si1 0.358876 0.029874 0.199297
Si Si2 0.269095 0.546841 0.298572
Si Si3 0.345679 0.139235 0.448642
Si Si4 0.305313 0.499134 0.105189
Si Si5 0.996716 0.801758 0.882574
O O1 0.354513 0.170622 0.192746
O O2 0.271157 0.979348 0.162718
O O3 0.500000 0.000000 0.192697
O O4 0.327883 0.000000 0.250000
O O5 0.236819 0.500000 0.250000
O O6 0.398555 0.601446 0.294378
O O7 0.270420 0.472291 0.343574
O O8 0.367495 0.112432 0.500000
O O9 0.243489 0.243489 0.446709
O O10 0.462931 0.194650 0.425146
O O11 0.290519 0.028236 0.421858
O O12 0.410556 0.589445 0.092844
O O13 0.367755 0.367755 0.103438
O O14 0.869118 0.869118 0.884255
O O15 0.093653 0.906348 0.885320
#
# Coordination Sequence:
#
# PCOD9567447 Si02
#       5
#    16  16  16  16  16
#     4  11  22  39  56  82 113 153 198 241 296 361
#     4  11  21  34  54  81 113 151 189 231 284 346
#     4   9  18  33  56  85 115 151 197 253 312 364
#     4   9  18  32  52  82 119 157 198 246 300 363
#     4  10  22  39  60  86 117 156 202 255 310 365
#
# _framework density 21.022037999999998
#
# number of rings (size 3 to 8) (size 9 to 14) (size 15 to 20)
#    0.000    2.000    2.000    2.400    0.000    3.400 
#    0.000    5.000    0.000    5.400    0.000    5.600 
#    0.000    0.000    0.000    0.000    0.000    0.000 
#
# Total GULP energy -445624.529320 kJ/mol
# GULP energy per Si atom -5570.306616 kJ/mol
# Density = 2.097419 g / cm^3
# Si number density = 21.022038 Si / 1000 Ang^3
#
#
#
# Elastic Constant Matrix: (Units=GPa)
#
#
# Indices 1 2 3 4 5 6 
#
# 1 68.5971 37.8481 52.3515 0.0000 0.0000 0.0000
# 2 37.8481 68.5971 52.3515 0.0000 0.0000 0.0000
# 3 52.3515 52.3515 156.2157 0.0000 0.0000 0.0000
# 4 0.0000 0.0000 0.0000 26.3958 0.0000 0.0000
# 5 0.0000 0.0000 0.0000 0.0000 26.3958 0.0000
# 6 0.0000 0.0000 0.0000 0.0000 0.0000 33.0508
#
#
#
# Elastic Compliance Matrix: (Units=1/GPa)
#
#
# Indices 1 2 3 4 5 6 
#
# 1 0.023268 -0.009254 -0.004696 0.000000 0.000000 0.000000
# 2 -0.009254 0.023268 -0.004696 0.000000 0.000000 0.000000
# 3 -0.004696 -0.004696 0.009549 0.000000 0.000000 0.000000
# 4 0.000000 0.000000 0.000000 0.037885 0.000000 0.000000
# 5 0.000000 0.000000 0.000000 0.000000 0.037885 0.000000
# 6 0.000000 0.000000 0.000000 0.000000 0.000000 0.030256
#
#
# Mechanical properties :
#
#
# Convention : Reuss Voigt Hill
#
# Bulk Modulus (GPa) = 53.21537 64.27914 58.74725
# Shear Modulus (GPa) = 24.31107 27.22573 25.76840
#
# Velocity S-wave (km/s) = 3.40436 3.60266 3.50491
# Velocity P-wave (km/s) = 6.38920 6.92452 6.66224
#
# Compressibility (1/GPa) = 0.01879157
#
# Stress axis : x y z
#
# Youngs Moduli (GPa) = 42.97795 42.97795 104.72099
#
# Poissons Ratio (x) = 0.39770 0.49182
# Poissons Ratio (y) = 0.39770 0.49182
# Poissons Ratio (z) = 0.20184 0.20184
#
# Static dielectric constant tensor:
#      x y z
#    x 1.825600 0.000000 0.000000 
#    y 0.000000 1.825600 0.000000 
#    z 0.000000 0.000000 1.770630 
# 
# From -- ./inp_files/10580.got.cif
#   From: 2010.05.17/outbox.cif.g08.bks.cpg/sg132_6_cif.got.tgz:10580.got - 2010.05.20 12:30:18.
