data_PCOD9567476
_publ_section_title
;
Structure prediction by ZEFSAII (Michael W. Deem and Ramdas Pophale) SiO2 
 PCOD9567476
Probable space group: P 42/M C M
;
_chemical_formula_sum "Si O2"
_cell_formula_units_Z 80
_cell_length_a 17.190357
_cell_length_b 17.190357
_cell_length_c 14.510293
_cell_angle_alpha 90.000000
_cell_angle_beta 90.000000
_cell_angle_gamma 90.000000
_cell_volume 4287.913088
_symmetry_space_group_name_H-M "P 42/M C M"
_symmetry_group_IT_number 132
_symmetry_cell_setting 'tetragonal'
loop_
_space_group_symop_operation_xyz
x,y,z
-y,x,1/2+z
-x,-y,z
y,-x,1/2+z
x,-y,1/2-z
-x,y,1/2-z
y,x,-z
-y,-x,-z
-x,-y,-z
y,-x,1/2-z
x,y,-z
-y,x,1/2-z
-x,y,1/2+z
x,-y,1/2+z
-y,-x,z
y,x,z
loop_
_atom_site_type_symbol
_atom_site_label
_atom_site_fract_x
_atom_site_fract_y
_atom_site_fract_z
Si Si1 0.159844 0.327988 0.895624
Si Si2 0.275934 0.594522 0.750000
Si Si3 0.000000 0.590468 0.140047
Si Si4 0.092825 0.789983 0.750000
Si Si5 0.327988 0.840156 0.104376
O O1 0.224916 0.374720 0.837389
O O2 0.132176 0.253457 0.836983
O O3 0.079822 0.376184 0.897701
O O4 0.184593 0.312170 0.000000
O O5 0.282700 0.500000 0.750000
O O6 0.357358 0.642643 0.750000
O O7 0.224916 0.625280 0.837389
O O8 0.079823 0.623816 0.102299
O O9 0.000000 0.500000 0.124292
O O10 0.000000 0.605237 0.250000
O O11 0.121780 0.878221 0.750000
O O12 0.132176 0.746543 0.836984
O O13 0.000000 0.782120 0.750000
O O14 0.312170 0.815407 0.000000
#
# Coordination Sequence:
#
# PCOD9567476 Si02
#       5
#    16  16  16  16  16
#     4  11  21  38  62  90 122 154 192 241 300 361
#     4  11  25  43  62  88 121 158 205 254 297 351
#     4  11  19  31  55  88 127 158 182 228 294 365
#     4  11  23  40  59  85 120 157 202 247 287 343
#     4  11  21  38  62  90 122 154 192 241 300 361
#
# _framework density 18.657094000000001
#
# number of rings (size 3 to 8) (size 9 to 14) (size 15 to 20)
#    0.000    1.000    6.000    4.200    0.000    7.600 
#    0.000    0.000    0.000    0.000    0.000    5.600 
#    0.000    0.000    0.000    0.000    0.000    0.000 
#
# Total GULP energy -446512.547287 kJ/mol
# GULP energy per Si atom -5581.406841 kJ/mol
# Density = 1.861463 g / cm^3
# Si number density = 18.657094 Si / 1000 Ang^3
#
#
#
# Elastic Constant Matrix: (Units=GPa)
#
#
# Indices 1 2 3 4 5 6 
#
# 1 100.6040 120.5665 45.8634 0.0000 0.0000 0.0000
# 2 120.5665 100.6040 45.8634 0.0000 0.0000 0.0000
# 3 45.8634 45.8634 149.4124 0.0000 0.0000 0.0000
# 4 0.0000 0.0000 0.0000 -38.7215 0.0000 0.0000
# 5 0.0000 0.0000 0.0000 0.0000 -38.7215 0.0000
# 6 0.0000 0.0000 0.0000 0.0000 0.0000 26.9362
#
#
#
# Elastic Compliance Matrix: (Units=1/GPa)
#
#
# Indices 1 2 3 4 5 6 
#
# 1 -0.022456 0.027637 -0.001590 0.000000 0.000000 0.000000
# 2 0.027637 -0.022456 -0.001590 0.000000 0.000000 0.000000
# 3 -0.001590 -0.001590 0.007669 0.000000 0.000000 0.000000
# 4 0.000000 0.000000 0.000000 -0.025825 0.000000 0.000000
# 5 0.000000 0.000000 0.000000 0.000000 -0.025825 0.000000
# 6 0.000000 0.000000 0.000000 0.000000 0.000000 0.037125
#
#
# Mechanical properties :
#
#
# Convention : Reuss Voigt Hill
#
# Bulk Modulus (GPa) = 85.69135 86.13411 85.91273
# Shear Modulus (GPa) = -51.65656 -0.87957 -26.26807
#
# Velocity S-wave (km/s) = -5.26759 -0.68736 -3.75632
# Velocity P-wave (km/s) = 3.00545 6.75553 5.22829
#
# Compressibility (1/GPa) = 0.01166979
#
# Stress axis : x y z
#
# Youngs Moduli (GPa) = -44.53072 -44.53072 130.39129
#
# Poissons Ratio (x) = 1.23071 0.20737
# Poissons Ratio (y) = 1.23071 0.20737
# Poissons Ratio (z) = -0.07082 -0.07082
#
# Static dielectric constant tensor:
#      x y z
#    x 1.695200 0.000000 0.000000 
#    y 0.000000 1.695200 0.000000 
#    z 0.000000 0.000000 1.685700 
# 
# From -- ./inp_files/4658.got.cif
#   From: 2010.05.17/outbox.cif.g08.bks.cpg/sg132_3_cif.got.tgz:4658.got - 2010.05.20 12:30:18.
