data_PCOD9567572
_publ_section_title
;
Structure prediction by ZEFSAII (Michael W. Deem and Ramdas Pophale) SiO2 
 PCOD9567572
Probable space group: P 42/N B C
;
_chemical_formula_sum "Si O2"
_cell_formula_units_Z 128
_cell_length_a 22.464885
_cell_length_b 22.464885
_cell_length_c 14.505889
_cell_angle_alpha 90.000000
_cell_angle_beta 90.000000
_cell_angle_gamma 90.000000
_cell_volume 7320.702350
_symmetry_space_group_name_H-M "P 42/N B C"
_symmetry_group_IT_number 133
_space_group.IT_coordinate_system_code '2'
_symmetry_cell_setting 'tetragonal'
loop_
_space_group_symop_operation_xyz
x,y,z
1/2-y,x,1/2+z
1/2-x,1/2-y,z
y,1/2-x,1/2+z
x,1/2-y,-z
1/2-x,y,-z
y,x,1/2-z
1/2-y,1/2-x,1/2-z
-x,-y,-z
1/2+y,-x,1/2-z
1/2+x,1/2+y,-z
-y,1/2+x,1/2-z
-x,1/2+y,z
1/2+x,-y,z
-y,-x,1/2+z
1/2+y,1/2+x,1/2+z
loop_
_atom_site_type_symbol
_atom_site_label
_atom_site_fract_x
_atom_site_fract_y
_atom_site_fract_z
Si Si1 0.469168 0.311709 0.455225
Si Si2 0.397743 0.793404 0.390139
Si Si3 0.627861 0.968549 0.228896
Si Si4 0.891783 0.160331 0.642271
Si Si5 0.499291 0.086661 0.429116
Si Si6 0.937537 0.197439 0.173198
Si Si7 0.535043 0.448894 0.882717
Si Si8 0.826761 0.406164 0.641554
O O1 0.449781 0.250000 0.500000
O O2 0.541489 0.308853 0.444043
O O3 0.450782 0.325669 0.351100
O O4 0.454597 0.367686 0.520232
O O5 0.381359 0.724352 0.404494
O O6 0.416937 0.796995 0.281260
O O7 0.348564 0.844489 0.406324
O O8 0.588060 0.911941 0.250000
O O9 0.661954 0.000503 0.313301
O O10 0.580889 0.016670 0.185206
O O11 0.955258 0.129115 0.624863
O O12 0.843191 0.110416 0.621559
O O13 0.888887 0.172861 0.750791
O O14 0.533958 0.055321 0.513781
O O15 0.470441 0.032844 0.372150
O O16 0.934124 0.261958 0.126612
O O17 0.546463 0.379226 0.872443
#
# Coordination Sequence:
#
# PCOD9567572 Si02
#       8
#    16  16  16  16  16  16  16  16
#     4  10  17  31  49  73  99 131 164 208 254 309
#     4   9  16  28  46  64  95 132 165 211 244 281
#     4  10  18  32  49  72 101 132 171 212 266 312
#     4  10  17  28  46  67  90 131 174 205 247 290
#     4  10  19  28  48  70  93 131 164 203 262 310
#     4   9  18  29  44  68  91 134 174 210 251 295
#     4  10  19  31  45  70 100 127 162 211 260 311
#     4  10  18  31  44  64 100 129 170 212 249 292
#
# _framework density 17.484660999999999
#
# number of rings (size 3 to 8) (size 9 to 14) (size 15 to 20)
#    0.000    2.250    6.250    0.750    0.000    0.500 
#    0.000    3.125    0.000    0.000    0.000    0.000 
#    0.000    3.000    0.000    0.125    0.000    0.000 
#
# Total GULP energy -713067.588596 kJ/mol
# GULP energy per Si atom -5570.840536 kJ/mol
# Density = 1.744487 g / cm^3
# Si number density = 17.484661 Si / 1000 Ang^3
#
#
#
# Elastic Constant Matrix: (Units=GPa)
#
#
# Indices 1 2 3 4 5 6 
#
# 1 95.6487 55.1686 16.7036 0.0000 0.0000 0.0000
# 2 55.1686 95.6494 16.7025 0.0000 0.0000 0.0000
# 3 16.7036 16.7025 25.9236 0.0000 0.0000 0.0000
# 4 0.0000 0.0000 0.0000 18.5061 0.0000 0.0000
# 5 0.0000 0.0000 0.0000 0.0000 18.5066 0.0000
# 6 0.0000 0.0000 0.0000 0.0000 0.0000 20.7058
#
#
#
# Elastic Compliance Matrix: (Units=1/GPa)
#
#
# Indices 1 2 3 4 5 6 
#
# 1 0.016219 -0.008484 -0.004984 0.000000 0.000000 0.000000
# 2 -0.008484 0.016219 -0.004983 0.000000 0.000000 0.000000
# 3 -0.004984 -0.004983 0.044997 0.000000 0.000000 0.000000
# 4 0.000000 0.000000 0.000000 0.054036 0.000000 0.000000
# 5 0.000000 0.000000 0.000000 0.000000 0.054035 0.000000
# 6 0.000000 0.000000 0.000000 0.000000 0.000000 0.048296
#
#
# Mechanical properties :
#
#
# Convention : Reuss Voigt Hill
#
# Bulk Modulus (GPa) = 24.67196 43.81900 34.24548
# Shear Modulus (GPa) = 17.59238 20.12017 18.85628
#
# Velocity S-wave (km/s) = 3.17545 3.39593 3.28753
# Velocity P-wave (km/s) = 5.25222 6.36335 5.83430
#
# Compressibility (1/GPa) = 0.04053185
#
# Stress axis : x y z
#
# Youngs Moduli (GPa) = 61.65596 61.65750 22.22388
#
# Poissons Ratio (x) = 0.52313 0.11076
# Poissons Ratio (y) = 0.52312 0.11074
# Poissons Ratio (z) = 0.30729 0.30722
#
# Static dielectric constant tensor:
#      x y z
#    x 1.610370 0.000000 0.000000 
#    y 0.000000 1.610370 0.000000 
#    z 0.000000 0.000000 1.701780 
# 
# From -- ./inp_files/5748.got.cif
#   From: 2010.05.17/outbox.cif.g08.bks.cpg/sg133_3_cif.got.tgz:5748.got - 2010.05.20 12:37:36.
