data_PCOD9567542
_publ_section_title
;
Structure prediction by ZEFSAII (Michael W. Deem and Ramdas Pophale) SiO2 
 PCOD9567542
Probable space group: P 42/M C M
;
_chemical_formula_sum "Si O2"
_cell_formula_units_Z 64
_cell_length_a 14.707990
_cell_length_b 14.707990
_cell_length_c 14.098716
_cell_angle_alpha 90.000000
_cell_angle_beta 90.000000
_cell_angle_gamma 90.000000
_cell_volume 3049.904313
_symmetry_space_group_name_H-M "P 42/M C M"
_symmetry_group_IT_number 132
_symmetry_cell_setting 'tetragonal'
loop_
_space_group_symop_operation_xyz
x,y,z
-y,x,1/2+z
-x,-y,z
y,-x,1/2+z
x,-y,1/2-z
-x,y,1/2-z
y,x,-z
-y,-x,-z
-x,-y,-z
y,-x,1/2-z
x,y,-z
-y,x,1/2-z
-x,y,1/2+z
x,-y,1/2+z
-y,-x,z
y,x,z
loop_
_atom_site_type_symbol
_atom_site_label
_atom_site_fract_x
_atom_site_fract_y
_atom_site_fract_z
Si Si1 0.896880 0.482717 0.362171
Si Si2 0.283150 0.867060 0.314819
Si Si3 0.811987 0.666804 0.603425
Si Si4 0.006692 0.145191 0.613367
O O1 0.901809 0.500000 0.250000
O O2 0.866489 0.378649 0.370440
O O3 0.826659 0.558653 0.397716
O O4 0.000000 0.500000 0.397628
O O5 0.216285 0.783716 0.340423
O O6 0.302178 0.858694 0.201651
O O7 0.232845 0.959839 0.343025
O O8 0.849379 0.698914 0.500000
O O9 0.711455 0.711455 0.608392
O O10 0.008469 0.153415 0.500000
O O11 0.934283 0.065718 0.635626
O O12 0.104633 0.104633 0.644249
#
# Coordination Sequence:
#
# PCOD9567542 Si02
#       4
#    16  16  16  16
#     4   9  18  33  53  77 106 139 180 231 281 331
#     4   9  17  31  54  82 109 142 187 233 276 332
#     4   9  18  33  53  77 108 146 184 226 281 342
#     4   8  14  26  46  75 112 148 180 223 281 335
#
# _framework density 20.984265000000001
#
# number of rings (size 3 to 8) (size 9 to 14) (size 15 to 20)
#    0.000    3.250    0.000    0.750    0.000    1.500 
#    0.000    1.250    0.000   13.500    0.000   12.250 
#    0.000    0.000    0.000    0.000    0.000    0.000 
#
# Total GULP energy -356955.859182 kJ/mol
# GULP energy per Si atom -5577.435300 kJ/mol
# Density = 2.093650 g / cm^3
# Si number density = 20.984265 Si / 1000 Ang^3
#
#
#
# Elastic Constant Matrix: (Units=GPa)
#
#
# Indices 1 2 3 4 5 6 
#
# 1 166.4128 92.9690 26.8030 0.0000 0.0000 0.0000
# 2 92.9690 166.4128 26.8030 0.0000 0.0000 0.0000
# 3 26.8030 26.8030 108.4365 0.0000 0.0000 0.0000
# 4 0.0000 0.0000 0.0000 1.2508 0.0000 0.0000
# 5 0.0000 0.0000 0.0000 0.0000 1.2508 0.0000
# 6 0.0000 0.0000 0.0000 0.0000 0.0000 24.9831
#
#
#
# Elastic Compliance Matrix: (Units=1/GPa)
#
#
# Indices 1 2 3 4 5 6 
#
# 1 0.008839 -0.004777 -0.001004 0.000000 0.000000 0.000000
# 2 -0.004777 0.008839 -0.001004 0.000000 0.000000 0.000000
# 3 -0.001004 -0.001004 0.009718 0.000000 0.000000 0.000000
# 4 0.000000 0.000000 0.000000 0.799515 0.000000 0.000000
# 5 0.000000 0.000000 0.000000 0.000000 0.799515 0.000000
# 6 0.000000 0.000000 0.000000 0.000000 0.000000 0.040027
#
#
# Mechanical properties :
#
#
# Convention : Reuss Voigt Hill
#
# Bulk Modulus (GPa) = 72.32130 81.60134 76.96132
# Shear Modulus (GPa) = 2.96801 25.14271 14.05536
#
# Velocity S-wave (km/s) = 1.19057 3.46521 2.59087
# Velocity P-wave (km/s) = 6.03567 7.41496 6.76058
#
# Compressibility (1/GPa) = 0.01382719
#
# Stress axis : x y z
#
# Youngs Moduli (GPa) = 113.13025 113.13025 102.89718
#
# Poissons Ratio (x) = 0.54037 0.10333
# Poissons Ratio (y) = 0.54037 0.10333
# Poissons Ratio (z) = 0.11361 0.11361
#
# Static dielectric constant tensor:
#      x y z
#    x 1.796270 0.000000 0.000000 
#    y 0.000000 1.796270 0.000000 
#    z 0.000000 0.000000 1.827920 
# 
# From -- ./inp_files/4423.got.cif
#   From: 2010.05.17/outbox.cif.g08.bks.cpg/sg132_3_cif.got.tgz:4423.got - 2010.05.20 12:30:18.
