data_PCOD9567988
_publ_section_title
;
Structure prediction by ZEFSAII (Michael W. Deem and Ramdas Pophale) SiO2 
 PCOD9567988
Probable space group: P 42/N B C
;
_chemical_formula_sum "Si O2"
_cell_formula_units_Z 100
_cell_length_a 14.079484
_cell_length_b 14.079484
_cell_length_c 25.485380
_cell_angle_alpha 90.000000
_cell_angle_beta 90.000000
_cell_angle_gamma 90.000000
_cell_volume 5052.014528
_symmetry_space_group_name_H-M "P 42/N B C"
_symmetry_group_IT_number 133
_space_group.IT_coordinate_system_code '2'
_symmetry_cell_setting 'tetragonal'
loop_
_space_group_symop_operation_xyz
x,y,z
1/2-y,x,1/2+z
1/2-x,1/2-y,z
y,1/2-x,1/2+z
x,1/2-y,-z
1/2-x,y,-z
y,x,1/2-z
1/2-y,1/2-x,1/2-z
-x,-y,-z
1/2+y,-x,1/2-z
1/2+x,1/2+y,-z
-y,1/2+x,1/2-z
-x,1/2+y,z
1/2+x,-y,z
-y,-x,1/2+z
1/2+y,1/2+x,1/2+z
loop_
_atom_site_type_symbol
_atom_site_label
_atom_site_fract_x
_atom_site_fract_y
_atom_site_fract_z
Si Si1 0.227972 0.858723 0.438582
Si Si2 0.542538 0.108789 0.379685
Si Si3 0.732807 0.650065 0.305163
Si Si4 0.750000 0.250000 0.750000
Si Si5 0.283634 0.568623 0.187092
Si Si6 0.380927 0.010909 0.715636
Si Si7 0.869169 0.019407 0.368159
O O1 0.250000 0.750000 0.420877
O O2 0.250000 0.864780 0.500000
O O3 0.117836 0.875893 0.425630
O O4 0.292306 0.934499 0.407310
O O5 0.519127 0.211154 0.353082
O O6 0.597836 0.053999 0.333063
O O7 0.455264 0.040395 0.393772
O O8 0.750000 0.750000 0.334558
O O9 0.681285 0.681285 0.250000
O O10 0.840719 0.611231 0.302519
O O11 0.677673 0.562047 0.331421
O O12 0.835630 0.236355 0.709604
O O13 0.302049 0.518894 0.242563
O O14 0.386795 0.591421 0.162131
O O15 0.475501 0.024500 0.750000
#
# Coordination Sequence:
#
# PCOD9567988 Si02
#       7
#    16  16  16   4  16  16  16
#     4  11  25  50  75  96 127 171 231 297 354 405
#     4  12  25  40  67  98 131 172 226 278 336 401
#     4  11  23  38  58  89 137 188 221 257 323 400
#     4  12  20  32  56  84 134 192 228 264 304 384
#     4  12  23  36  58  96 138 175 221 267 328 400
#     4  12  22  36  56  91 134 184 213 255 317 405
#     4  12  25  40  68  98 132 174 223 281 342 406
#
# _framework density 19.794083000000001
#
# number of rings (size 3 to 8) (size 9 to 14) (size 15 to 20)
#    0.000    0.320    8.000    2.880    2.240    0.640 
#    0.000    0.000    0.000    0.480    0.000    0.000 
#    0.000    0.000    0.000    0.000    0.000    0.000 
#
# Total GULP energy -557512.704703 kJ/mol
# GULP energy per Si atom -5575.127047 kJ/mol
# Density = 1.974903 g / cm^3
# Si number density = 19.794083 Si / 1000 Ang^3
#
#
#
# Elastic Constant Matrix: (Units=GPa)
#
#
# Indices 1 2 3 4 5 6 
#
# 1 93.9276 22.6189 20.4976 0.0000 0.0000 0.0000
# 2 22.6189 93.9283 20.4974 0.0000 0.0000 0.0000
# 3 20.4976 20.4974 59.0810 0.0000 0.0000 0.0000
# 4 0.0000 0.0000 0.0000 22.3165 0.0000 0.0000
# 5 0.0000 0.0000 0.0000 0.0000 22.3166 0.0000
# 6 0.0000 0.0000 0.0000 0.0000 0.0000 38.6334
#
#
#
# Elastic Compliance Matrix: (Units=1/GPa)
#
#
# Indices 1 2 3 4 5 6 
#
# 1 0.011898 -0.002125 -0.003391 0.000000 0.000000 0.000000
# 2 -0.002125 0.011898 -0.003391 0.000000 0.000000 0.000000
# 3 -0.003391 -0.003391 0.019279 0.000000 0.000000 0.000000
# 4 0.000000 0.000000 0.000000 0.044810 0.000000 0.000000
# 5 0.000000 0.000000 0.000000 0.000000 0.044810 0.000000
# 6 0.000000 0.000000 0.000000 0.000000 0.000000 0.025884
#
#
# Mechanical properties :
#
#
# Convention : Reuss Voigt Hill
#
# Bulk Modulus (GPa) = 39.58521 41.57385 40.57953
# Shear Modulus (GPa) = 27.05447 28.87485 27.96466
#
# Velocity S-wave (km/s) = 3.70103 3.82352 3.76277
# Velocity P-wave (km/s) = 6.18914 6.36719 6.27880
#
# Compressibility (1/GPa) = 0.02526196
#
# Stress axis : x y z
#
# Youngs Moduli (GPa) = 84.04615 84.04697 51.87106
#
# Poissons Ratio (x) = 0.17863 0.17588
# Poissons Ratio (y) = 0.17862 0.17587
# Poissons Ratio (z) = 0.28497 0.28496
#
# Static dielectric constant tensor:
#      x y z
#    x 1.790160 0.000000 0.000000 
#    y 0.000000 1.790160 0.000000 
#    z 0.000000 0.000000 1.709140 
# 
# From -- ./inp_files/7207.got.cif
#   From: 2010.05.17/outbox.cif.g08.bks.cpg/sg133_4_cif.got.tgz:7207.got - 2010.05.20 12:37:36.
