data_PCOD9567134
_publ_section_title
;
Structure prediction by ZEFSAII (Michael W. Deem and Ramdas Pophale) SiO2 
 PCOD9567134
Probable space group: P 42/M C M
;
_chemical_formula_sum "Si O2"
_cell_formula_units_Z 96
_cell_length_a 25.452649
_cell_length_b 25.452649
_cell_length_c 8.550966
_cell_angle_alpha 90.000000
_cell_angle_beta 90.000000
_cell_angle_gamma 90.000000
_cell_volume 5539.635077
_symmetry_space_group_name_H-M "P 42/M C M"
_symmetry_group_IT_number 132
_symmetry_cell_setting 'tetragonal'
loop_
_space_group_symop_operation_xyz
x,y,z
-y,x,1/2+z
-x,-y,z
y,-x,1/2+z
x,-y,1/2-z
-x,y,1/2-z
y,x,-z
-y,-x,-z
-x,-y,-z
y,-x,1/2-z
x,y,-z
-y,x,1/2-z
-x,y,1/2+z
x,-y,1/2+z
-y,-x,z
y,x,z
loop_
_atom_site_type_symbol
_atom_site_label
_atom_site_fract_x
_atom_site_fract_y
_atom_site_fract_z
Si Si1 0.292800 0.552420 0.184383
Si Si2 0.175479 0.556299 0.685679
Si Si3 0.856186 0.942856 0.812282
Si Si4 0.941928 0.739306 0.313326
Si Si5 0.742149 0.257852 0.681795
Si Si6 0.675738 0.156542 0.689465
Si Si7 0.347037 0.347037 0.817919
O O1 0.319234 0.500000 0.250000
O O2 0.237076 0.556521 0.272110
O O3 0.325547 0.602681 0.230088
O O4 0.283563 0.548621 0.000000
O O5 0.154353 0.500000 0.750000
O O6 0.168281 0.554869 0.500000
O O7 0.157343 0.614394 0.742617
O O8 0.898495 0.898495 0.772301
O O9 0.799330 0.931276 0.739221
O O10 0.872859 0.000000 0.750000
O O11 0.850692 0.945107 0.000000
O O12 0.941677 0.736081 0.500000
O O13 0.897237 0.702630 0.241458
O O14 0.000000 0.726006 0.250000
O O15 0.754847 0.245154 0.500000
O O16 0.713071 0.205303 0.746528
O O17 0.697632 0.302369 0.685161
O O18 0.674383 0.160732 0.500000
O O19 0.358211 0.358211 0.000000
#
# Coordination Sequence:
#
# PCOD9567134 Si02
#       7
#    16  16  16  16   8  16   8
#     4  11  21  33  50  75 105 143 185 227 272 325
#     4  10  19  33  54  79 111 148 183 222 269 325
#     4  10  21  37  57  80 108 144 183 226 274 326
#     4  11  23  39  59  82 109 144 185 231 274 325
#     4   9  18  33  53  79 114 150 180 212 269 333
#     4  10  20  36  57  82 112 151 186 221 273 330
#     4  11  19  35  55  76 108 145 181 224 276 327
#
# _framework density 17.329661000000002
#
# number of rings (size 3 to 8) (size 9 to 14) (size 15 to 20)
#    0.000    1.667    1.667    6.250    1.167    2.833 
#    0.000    0.833    0.000    0.750    0.000    5.250 
#    0.000    0.000    0.000    0.000    0.000    0.000 
#
# Total GULP energy -535376.582478 kJ/mol
# GULP energy per Si atom -5576.839401 kJ/mol
# Density = 1.729022 g / cm^3
# Si number density = 17.329661 Si / 1000 Ang^3
#
#
#
# Elastic Constant Matrix: (Units=GPa)
#
#
# Indices 1 2 3 4 5 6 
#
# 1 106.8702 75.8777 13.8210 0.0000 0.0000 0.0000
# 2 75.8777 106.8713 13.8212 0.0000 0.0000 0.0000
# 3 13.8210 13.8212 27.6644 0.0000 0.0000 0.0000
# 4 0.0000 0.0000 0.0000 25.0720 0.0000 0.0000
# 5 0.0000 0.0000 0.0000 0.0000 25.0720 0.0000
# 6 0.0000 0.0000 0.0000 0.0000 0.0000 33.2008
#
#
#
# Elastic Compliance Matrix: (Units=1/GPa)
#
#
# Indices 1 2 3 4 5 6 
#
# 1 0.019092 -0.013173 -0.002957 0.000000 0.000000 0.000000
# 2 -0.013173 0.019092 -0.002957 0.000000 0.000000 0.000000
# 3 -0.002957 -0.002957 0.039102 0.000000 0.000000 0.000000
# 4 0.000000 0.000000 0.000000 0.039885 0.000000 0.000000
# 5 0.000000 0.000000 0.000000 0.000000 0.039885 0.000000
# 6 0.000000 0.000000 0.000000 0.000000 0.000000 0.030120
#
#
# Mechanical properties :
#
#
# Convention : Reuss Voigt Hill
#
# Bulk Modulus (GPa) = 25.56761 49.82730 37.69746
# Shear Modulus (GPa) = 20.97408 25.86137 23.41772
#
# Velocity S-wave (km/s) = 3.48271 3.86724 3.68000
# Velocity P-wave (km/s) = 5.56400 6.98254 6.31323
#
# Compressibility (1/GPa) = 0.03911199
#
# Stress axis : x y z
#
# Youngs Moduli (GPa) = 52.37689 52.37733 25.57382
#
# Poissons Ratio (x) = 0.68997 0.07563
# Poissons Ratio (y) = 0.68996 0.07563
# Poissons Ratio (z) = 0.15489 0.15490
#
# Static dielectric constant tensor:
#      x y z
#    x 1.598380 0.000000 0.000000 
#    y 0.000000 1.598380 0.000000 
#    z 0.000000 0.000000 1.592510 
# 
# From -- ./inp_files/1845.got.cif
#   From: 2010.05.17/outbox.cif.g08.bks.cpg/sg132_1_cif.got.tgz:1845.got - 2010.05.20 12:30:18.
