data_PCOD9567736
_publ_section_title
;
Structure prediction by ZEFSAII (Michael W. Deem and Ramdas Pophale) SiO2 
 PCOD9567736
Probable space group: P 42/N B C
;
_chemical_formula_sum "Si O2"
_cell_formula_units_Z 120
_cell_length_a 14.028114
_cell_length_b 14.028114
_cell_length_c 33.261804
_cell_angle_alpha 90.000000
_cell_angle_beta 90.000000
_cell_angle_gamma 90.000000
_cell_volume 6545.523300
_symmetry_space_group_name_H-M "P 42/N B C"
_symmetry_group_IT_number 133
_space_group.IT_coordinate_system_code '2'
_symmetry_cell_setting 'tetragonal'
loop_
_space_group_symop_operation_xyz
x,y,z
1/2-y,x,1/2+z
1/2-x,1/2-y,z
y,1/2-x,1/2+z
x,1/2-y,-z
1/2-x,y,-z
y,x,1/2-z
1/2-y,1/2-x,1/2-z
-x,-y,-z
1/2+y,-x,1/2-z
1/2+x,1/2+y,-z
-y,1/2+x,1/2-z
-x,1/2+y,z
1/2+x,-y,z
-y,-x,1/2+z
1/2+y,1/2+x,1/2+z
loop_
_atom_site_type_symbol
_atom_site_label
_atom_site_fract_x
_atom_site_fract_y
_atom_site_fract_z
Si Si1 0.192111 0.513652 0.392064
Si Si2 0.693714 0.850234 0.927457
Si Si3 0.750000 0.987861 0.000000
Si Si4 0.347473 0.803712 0.445917
Si Si5 0.471736 0.717990 0.376260
Si Si6 0.966302 0.382359 0.841554
Si Si7 0.623584 0.157035 0.755512
Si Si8 0.549262 0.097628 0.673348
O O1 0.171856 0.414120 0.414056
O O2 0.179662 0.597984 0.424420
O O3 0.295952 0.516619 0.371898
O O4 0.120190 0.537624 0.355274
O O5 0.750000 0.750000 0.931589
O O6 0.733000 0.921697 0.892929
O O7 0.702696 0.916672 0.967395
O O8 0.681975 0.066316 0.022044
O O9 0.250000 0.750000 0.458262
O O10 0.398177 0.737604 0.412467
O O11 0.452339 0.613140 0.360191
O O12 0.446104 0.794890 0.342709
O O13 0.926115 0.348418 0.798618
O O14 0.059528 0.443821 0.833879
O O15 0.625100 0.266922 0.741874
O O16 0.575794 0.095817 0.720100
#
# Coordination Sequence:
#
# PCOD9567736 Si02
#       8
#    16  16   8  16  16  16  16  16
#     4  11  23  37  67  94 118 166 215 258 319 375
#     4  11  23  45  64  90 125 164 210 254 316 394
#     4  10  24  42  64  90 128 170 196 260 328 380
#     4  10  20  38  62  94 127 154 202 261 316 375
#     4  10  21  37  62  88 120 159 208 259 313 370
#     4  12  21  38  61  88 128 166 212 265 316 376
#     4  11  22  35  59  87 124 170 211 262 328 372
#     4  11  22  38  58  90 124 168 212 265 315 376
#
# _framework density 18.333141999999999
#
# number of rings (size 3 to 8) (size 9 to 14) (size 15 to 20)
#    0.000    1.200    5.333    1.600    0.000    0.533 
#    0.000    2.667    0.000    0.000    0.000    5.600 
#    0.000    0.000    0.000    0.000    0.000    0.000 
#
# Total GULP energy -669202.613070 kJ/mol
# GULP energy per Si atom -5576.688442 kJ/mol
# Density = 1.829141 g / cm^3
# Si number density = 18.333142 Si / 1000 Ang^3
#
#
#
# Elastic Constant Matrix: (Units=GPa)
#
#
# Indices 1 2 3 4 5 6 
#
# 1 101.7482 47.1791 49.4891 0.0000 0.0000 0.0000
# 2 47.1791 101.7482 49.4891 0.0000 0.0000 0.0000
# 3 49.4891 49.4891 105.8771 0.0000 0.0000 0.0000
# 4 0.0000 0.0000 0.0000 19.3957 0.0000 0.0000
# 5 0.0000 0.0000 0.0000 0.0000 19.3957 0.0000
# 6 0.0000 0.0000 0.0000 0.0000 0.0000 25.5694
#
#
#
# Elastic Compliance Matrix: (Units=1/GPa)
#
#
# Indices 1 2 3 4 5 6 
#
# 1 0.014033 -0.004292 -0.004553 0.000000 0.000000 0.000000
# 2 -0.004292 0.014033 -0.004553 0.000000 0.000000 0.000000
# 3 -0.004553 -0.004553 0.013701 0.000000 0.000000 0.000000
# 4 0.000000 0.000000 0.000000 0.051558 0.000000 0.000000
# 5 0.000000 0.000000 0.000000 0.000000 0.051558 0.000000
# 6 0.000000 0.000000 0.000000 0.000000 0.000000 0.039109
#
#
# Mechanical properties :
#
#
# Convention : Reuss Voigt Hill
#
# Bulk Modulus (GPa) = 66.79760 66.85422 66.82591
# Shear Modulus (GPa) = 23.17188 23.75325 23.46257
#
# Velocity S-wave (km/s) = 3.55904 3.60341 3.58130
# Velocity P-wave (km/s) = 7.30777 7.33882 7.32331
#
# Compressibility (1/GPa) = 0.01497060
#
# Stress axis : x y z
#
# Youngs Moduli (GPa) = 71.26056 71.26056 72.98635
#
# Poissons Ratio (x) = 0.30588 0.33230
# Poissons Ratio (y) = 0.30588 0.33230
# Poissons Ratio (z) = 0.32445 0.32445
#
# Static dielectric constant tensor:
#      x y z
#    x 1.613230 0.000000 0.000000 
#    y 0.000000 1.613230 0.000000 
#    z 0.000000 0.000000 1.655180 
# 
# From -- ./inp_files/8118.got.cif
#   From: 2010.05.17/outbox.cif.g08.bks.cpg/sg133_5_cif.got.tgz:8118.got - 2010.05.20 12:37:36.
