data_PCOD9567943
_publ_section_title
;
Structure prediction by ZEFSAII (Michael W. Deem and Ramdas Pophale) SiO2 
 PCOD9567943
Probable space group: P 42/N B C
;
_chemical_formula_sum "Si O2"
_cell_formula_units_Z 88
_cell_length_a 14.196949
_cell_length_b 14.196949
_cell_length_c 18.712434
_cell_angle_alpha 90.000000
_cell_angle_beta 90.000000
_cell_angle_gamma 90.000000
_cell_volume 3771.553963
_symmetry_space_group_name_H-M "P 42/N B C"
_symmetry_group_IT_number 133
_space_group.IT_coordinate_system_code '2'
_symmetry_cell_setting 'tetragonal'
loop_
_space_group_symop_operation_xyz
x,y,z
1/2-y,x,1/2+z
1/2-x,1/2-y,z
y,1/2-x,1/2+z
x,1/2-y,-z
1/2-x,y,-z
y,x,1/2-z
1/2-y,1/2-x,1/2-z
-x,-y,-z
1/2+y,-x,1/2-z
1/2+x,1/2+y,-z
-y,1/2+x,1/2-z
-x,1/2+y,z
1/2+x,-y,z
-y,-x,1/2+z
1/2+y,1/2+x,1/2+z
loop_
_atom_site_type_symbol
_atom_site_label
_atom_site_fract_x
_atom_site_fract_y
_atom_site_fract_z
Si Si1 0.643029 0.220413 0.826342
Si Si2 0.264221 0.353943 0.415434
Si Si3 0.536422 0.219787 0.313872
Si Si4 0.907041 0.520852 0.114036
Si Si5 0.030456 0.832684 0.061431
Si Si6 0.037007 0.037007 0.750000
O O1 0.750000 0.250000 0.819480
O O2 0.585680 0.225178 0.752741
O O3 0.652607 0.113667 0.851959
O O4 0.601650 0.293619 0.880453
O O5 0.250000 0.250000 0.382013
O O6 0.250000 0.341028 0.500000
O O7 0.366479 0.404090 0.402705
O O8 0.181322 0.428577 0.401207
O O9 0.497234 0.297532 0.366407
O O10 0.472476 0.144158 0.275219
O O11 0.941320 0.443024 0.054890
O O12 0.969060 0.494253 0.183968
O O13 0.035847 0.750000 0.000000
#
# Coordination Sequence:
#
# PCOD9567943 Si02
#       6
#    16  16  16  16  16   8
#     4  12  18  40  66  97 148 182 222 306 380 413
#     4  10  26  52  72  98 149 196 244 307 366 440
#     4  12  22  40  69 103 145 185 232 306 374 442
#     4  12  26  45  75 110 137 201 250 296 394 444
#     4  11  25  45  71 105 146 186 253 307 353 446
#     4  12  24  40  71 109 148 184 242 314 380 442
#
# _framework density 23.332557999999999
#
# number of rings (size 3 to 8) (size 9 to 14) (size 15 to 20)
#    0.000    0.545    7.273    1.091    2.545    3.273 
#    6.545    0.000    0.000    0.000    0.000    0.000 
#    0.000    0.000    0.000    0.000    0.000    0.000 
#
# Total GULP energy -490381.960190 kJ/mol
# GULP energy per Si atom -5572.522275 kJ/mol
# Density = 2.327945 g / cm^3
# Si number density = 23.332558 Si / 1000 Ang^3
#
#
#
# Elastic Constant Matrix: (Units=GPa)
#
#
# Indices 1 2 3 4 5 6 
#
# 1 121.0489 57.8256 16.2993 0.0000 0.0000 0.0000
# 2 57.8256 121.0489 16.2993 0.0000 0.0000 0.0000
# 3 16.2993 16.2993 50.2181 0.0000 0.0000 0.0000
# 4 0.0000 0.0000 0.0000 244.0878 0.0000 0.0000
# 5 0.0000 0.0000 0.0000 0.0000 244.0878 0.0000
# 6 0.0000 0.0000 0.0000 0.0000 0.0000 42.7938
#
#
#
# Elastic Compliance Matrix: (Units=1/GPa)
#
#
# Indices 1 2 3 4 5 6 
#
# 1 0.010879 -0.004937 -0.001929 0.000000 0.000000 0.000000
# 2 -0.004937 0.010879 -0.001929 0.000000 0.000000 0.000000
# 3 -0.001929 -0.001929 0.021165 0.000000 0.000000 0.000000
# 4 0.000000 0.000000 0.000000 0.004097 0.000000 0.000000
# 5 0.000000 0.000000 0.000000 0.000000 0.004097 0.000000
# 6 0.000000 0.000000 0.000000 0.000000 0.000000 0.023368
#
#
# Mechanical properties :
#
#
# Convention : Reuss Voigt Hill
#
# Bulk Modulus (GPa) = 39.47161 52.57380 46.02270
# Shear Modulus (GPa) = 49.74145 119.65333 84.69739
#
# Velocity S-wave (km/s) = 4.62220 7.16889 6.03149
# Velocity P-wave (km/s) = 6.74092 9.54491 8.26273
#
# Compressibility (1/GPa) = 0.02533467
#
# Stress axis : x y z
#
# Youngs Moduli (GPa) = 91.91629 91.91629 47.24772
#
# Poissons Ratio (x) = 0.45384 0.09112
# Poissons Ratio (y) = 0.45384 0.09112
# Poissons Ratio (z) = 0.17727 0.17727
#
# Static dielectric constant tensor:
#      x y z
#    x 2.018150 0.000000 0.000000 
#    y 0.000000 2.018150 0.000000 
#    z 0.000000 0.000000 1.764620 
# 
# From -- ./inp_files/6439.got.cif
#   From: 2010.05.17/outbox.cif.g08.bks.cpg/sg133_4_cif.got.tgz:6439.got - 2010.05.20 12:37:36.
