data_PCOD9567113
_publ_section_title
;
Structure prediction by ZEFSAII (Michael W. Deem and Ramdas Pophale) SiO2 
 PCOD9567113
Probable space group: P 42/M C M
;
_chemical_formula_sum "Si O2"
_cell_formula_units_Z 120
_cell_length_a 19.207992
_cell_length_b 19.207992
_cell_length_c 18.594448
_cell_angle_alpha 90.000000
_cell_angle_beta 90.000000
_cell_angle_gamma 90.000000
_cell_volume 6860.365001
_symmetry_space_group_name_H-M "P 42/M C M"
_symmetry_group_IT_number 132
_symmetry_cell_setting 'tetragonal'
loop_
_space_group_symop_operation_xyz
x,y,z
-y,x,1/2+z
-x,-y,z
y,-x,1/2+z
x,-y,1/2-z
-x,y,1/2-z
y,x,-z
-y,-x,-z
-x,-y,-z
y,-x,1/2-z
x,y,-z
-y,x,1/2-z
-x,y,1/2+z
x,-y,1/2+z
-y,-x,z
y,x,z
loop_
_atom_site_type_symbol
_atom_site_label
_atom_site_fract_x
_atom_site_fract_y
_atom_site_fract_z
Si Si1 0.443426 0.556575 0.084961
Si Si2 0.510919 0.317031 0.174095
Si Si3 0.664247 0.958511 0.913042
Si Si4 0.649940 0.767814 0.695396
Si Si5 0.247553 0.405292 0.920534
Si Si6 0.518246 0.100932 0.417996
Si Si7 0.637942 0.113236 0.086260
Si Si8 0.824607 0.286503 0.341475
O O1 0.500000 0.500000 0.110873
O O2 0.460736 0.632114 0.114272
O O3 0.444250 0.555750 0.000000
O O4 0.500000 0.354046 0.250000
O O5 0.569601 0.258064 0.189712
O O6 0.436853 0.293001 0.142959
O O7 0.584265 0.941555 0.889262
O O8 0.710676 0.903944 0.868679
O O9 0.677473 0.040191 0.902035
O O10 0.667845 0.944614 0.000000
O O11 0.700089 0.700089 0.693349
O O12 0.664486 0.820305 0.629588
O O13 0.670204 0.809493 0.768209
O O14 0.180198 0.455482 0.920690
O O15 0.218107 0.330094 0.901433
O O16 0.279814 0.407239 0.000000
O O17 0.509324 0.076501 0.500000
O O18 0.441467 0.100060 0.386328
O O19 0.635868 0.126360 0.000000
O O20 0.788476 0.211525 0.333647
#
# Coordination Sequence:
#
# PCOD9567113 Si02
#       8
#     8  16  16  16  16  16  16  16
#     4  11  28  46  60  78  96 128 188 248 299 353
#     4  12  23  38  60  78 106 138 177 230 292 341
#     4   9  18  32  51  79 109 139 176 217 264 319
#     4  11  23  38  53  78 106 142 184 222 270 334
#     4  10  19  32  53  78 102 134 176 221 267 319
#     4   8  14  26  46  72 100 131 164 202 252 307
#     4  10  19  32  53  77 106 141 178 220 268 320
#     4  10  21  36  53  74 109 144 178 219 265 319
#
# _framework density 17.491781
#
# number of rings (size 3 to 8) (size 9 to 14) (size 15 to 20)
#    0.000    1.933    3.333    2.000    0.933    4.533 
#    0.000    0.000    0.000    1.600    0.000    0.000 
#    0.000    0.533    0.000    5.867    0.000    4.267 
#
# Total GULP energy -668687.634605 kJ/mol
# GULP energy per Si atom -5572.396955 kJ/mol
# Density = 1.745197 g / cm^3
# Si number density = 17.491781 Si / 1000 Ang^3
#
#
#
# Elastic Constant Matrix: (Units=GPa)
#
#
# Indices 1 2 3 4 5 6 
#
# 1 33.2820 0.8711 10.5070 0.0000 0.0000 0.0000
# 2 0.8711 33.2821 10.5070 0.0000 0.0000 0.0000
# 3 10.5070 10.5070 69.4505 0.0000 0.0000 0.0000
# 4 0.0000 0.0000 0.0000 25.1905 0.0000 0.0000
# 5 0.0000 0.0000 0.0000 0.0000 25.1904 0.0000
# 6 0.0000 0.0000 0.0000 0.0000 0.0000 11.8370
#
#
#
# Elastic Compliance Matrix: (Units=1/GPa)
#
#
# Indices 1 2 3 4 5 6 
#
# 1 0.031569 0.000716 -0.004884 0.000000 0.000000 0.000000
# 2 0.000716 0.031569 -0.004884 0.000000 0.000000 0.000000
# 3 -0.004884 -0.004884 0.015877 0.000000 0.000000 0.000000
# 4 0.000000 0.000000 0.000000 0.039698 0.000000 0.000000
# 5 0.000000 0.000000 0.000000 0.000000 0.039698 0.000000
# 6 0.000000 0.000000 0.000000 0.000000 0.000000 0.084481
#
#
# Mechanical properties :
#
#
# Convention : Reuss Voigt Hill
#
# Bulk Modulus (GPa) = 16.41779 19.97610 18.19694
# Shear Modulus (GPa) = 17.77459 20.05222 18.91341
#
# Velocity S-wave (km/s) = 3.19120 3.38950 3.29184
# Velocity P-wave (km/s) = 4.79424 5.17333 4.98738
#
# Compressibility (1/GPa) = 0.06090954
#
# Stress axis : x y z
#
# Youngs Moduli (GPa) = 31.67618 31.67625 62.98571
#
# Poissons Ratio (x) = -0.02267 0.30764
# Poissons Ratio (y) = -0.02267 0.30764
# Poissons Ratio (z) = 0.15472 0.15472
#
# Static dielectric constant tensor:
#      x y z
#    x 1.641450 0.000000 0.000000 
#    y 0.000000 1.641450 0.000000 
#    z 0.000000 0.000000 1.619520 
# 
# From -- ./inp_files/5118.got.cif
#   From: 2010.05.17/outbox.cif.g08.bks.cpg/sg132_3_cif.got.tgz:5118.got - 2010.05.20 12:30:18.
