data_PCOD9567302
_publ_section_title
;
Structure prediction by ZEFSAII (Michael W. Deem and Ramdas Pophale) SiO2 
 PCOD9567302
Probable space group: P 42/M C M
;
_chemical_formula_sum "Si O2"
_cell_formula_units_Z 96
_cell_length_a 24.640472
_cell_length_b 24.640472
_cell_length_c 8.788530
_cell_angle_alpha 90.000000
_cell_angle_beta 90.000000
_cell_angle_gamma 90.000000
_cell_volume 5335.981128
_symmetry_space_group_name_H-M "P 42/M C M"
_symmetry_group_IT_number 132
_symmetry_cell_setting 'tetragonal'
loop_
_space_group_symop_operation_xyz
x,y,z
-y,x,1/2+z
-x,-y,z
y,-x,1/2+z
x,-y,1/2-z
-x,y,1/2-z
y,x,-z
-y,-x,-z
-x,-y,-z
y,-x,1/2-z
x,y,-z
-y,x,1/2-z
-x,y,1/2+z
x,-y,1/2+z
-y,-x,z
y,x,z
loop_
_atom_site_type_symbol
_atom_site_label
_atom_site_fract_x
_atom_site_fract_y
_atom_site_fract_z
Si Si1 0.852093 0.646568 0.183070
Si Si2 0.557573 0.764580 0.182332
Si Si3 0.443123 0.940033 0.682581
Si Si4 0.850501 0.060142 0.317619
Si Si5 0.645614 0.443977 0.818933
Si Si6 0.855748 0.233359 0.182124
O O1 0.801208 0.608723 0.227021
O O2 0.903659 0.608804 0.221681
O O3 0.852426 0.705313 0.258827
O O4 0.851236 0.653653 0.000000
O O5 0.500000 0.784007 0.250000
O O6 0.565416 0.703722 0.241990
O O7 0.553320 0.765432 0.000000
O O8 0.500000 0.918298 0.750000
O O9 0.448021 0.942026 0.500000
O O10 0.436443 0.000000 0.750000
O O11 0.846840 0.057395 0.500000
O O12 0.903370 0.096631 0.277725
O O13 0.799070 0.093534 0.253670
O O14 0.853485 0.000000 0.250000
O O15 0.623606 0.500000 0.750000
O O16 0.604910 0.395091 0.789254
O O17 0.652962 0.449975 0.000000
O O18 0.802190 0.197811 0.222575
O O19 0.860967 0.233007 0.000000
#
# Coordination Sequence:
#
# PCOD9567302 Si02
#       6
#    16  16  16  16  16  16
#     4  10  22  37  55  80 108 142 183 224 269 324
#     4  10  20  35  55  78 105 138 176 221 273 325
#     4  10  20  35  54  78 109 142 177 218 266 316
#     4  10  21  38  61  87 117 152 186 225 272 320
#     4  10  21  36  54  77 105 136 171 214 264 319
#     4  10  22  39  58  81 110 145 185 229 275 322
#
# _framework density 17.991067000000001
#
# number of rings (size 3 to 8) (size 9 to 14) (size 15 to 20)
#    0.000    2.000    0.000    4.500    0.000    7.667 
#    0.000    6.667    0.000    0.000    0.000    0.000 
#    0.000    0.000    0.000    0.000    0.000    0.000 
#
# Total GULP energy -536044.592660 kJ/mol
# GULP energy per Si atom -5583.797840 kJ/mol
# Density = 1.795012 g / cm^3
# Si number density = 17.991067 Si / 1000 Ang^3
#
#
#
# Elastic Constant Matrix: (Units=GPa)
#
#
# Indices 1 2 3 4 5 6 
#
# 1 155.1019 90.6767 63.0714 0.0000 0.0000 0.0000
# 2 90.6767 155.1019 63.0714 0.0000 0.0000 0.0000
# 3 63.0714 63.0714 69.2769 0.0000 0.0000 0.0000
# 4 0.0000 0.0000 0.0000 26.7926 0.0000 0.0000
# 5 0.0000 0.0000 0.0000 0.0000 26.7926 0.0000
# 6 0.0000 0.0000 0.0000 0.0000 0.0000 15.7798
#
#
#
# Elastic Compliance Matrix: (Units=1/GPa)
#
#
# Indices 1 2 3 4 5 6 
#
# 1 0.011580 -0.003942 -0.006953 0.000000 0.000000 0.000000
# 2 -0.003942 0.011580 -0.006953 0.000000 0.000000 0.000000
# 3 -0.006953 -0.006953 0.027096 0.000000 0.000000 0.000000
# 4 0.000000 0.000000 0.000000 0.037324 0.000000 0.000000
# 5 0.000000 0.000000 0.000000 0.000000 0.037324 0.000000
# 6 0.000000 0.000000 0.000000 0.000000 0.000000 0.063372
#
#
# Mechanical properties :
#
#
# Convention : Reuss Voigt Hill
#
# Bulk Modulus (GPa) = 68.69361 90.34661 79.52011
# Shear Modulus (GPa) = 21.85080 24.71708 23.28394
#
# Velocity S-wave (km/s) = 3.48880 3.71057 3.60139
# Velocity P-wave (km/s) = 7.38200 8.28760 7.84787
#
# Compressibility (1/GPa) = 0.01455740
#
# Stress axis : x y z
#
# Youngs Moduli (GPa) = 86.35858 86.35858 36.90628
#
# Poissons Ratio (x) = 0.34045 0.25662
# Poissons Ratio (y) = 0.34045 0.25662
# Poissons Ratio (z) = 0.60047 0.60047
#
# Static dielectric constant tensor:
#      x y z
#    x 1.600250 0.000000 0.000000 
#    y 0.000000 1.600250 0.000000 
#    z 0.000000 0.000000 1.604120 
# 
# From -- ./inp_files/1797.got.cif
#   From: 2010.05.17/outbox.cif.g08.bks.cpg/sg132_1_cif.got.tgz:1797.got - 2010.05.20 12:30:18.
