data_PCOD9567331
_publ_section_title
;
Structure prediction by ZEFSAII (Michael W. Deem and Ramdas Pophale) SiO2 
 PCOD9567331
Probable space group: P 42/M C M
;
_chemical_formula_sum "Si O2"
_cell_formula_units_Z 58
_cell_length_a 19.390686
_cell_length_b 19.390686
_cell_length_c 8.891243
_cell_angle_alpha 90.000000
_cell_angle_beta 90.000000
_cell_angle_gamma 90.000000
_cell_volume 3343.095841
_symmetry_space_group_name_H-M "P 42/M C M"
_symmetry_group_IT_number 132
_symmetry_cell_setting 'tetragonal'
loop_
_space_group_symop_operation_xyz
x,y,z
-y,x,1/2+z
-x,-y,z
y,-x,1/2+z
x,-y,1/2-z
-x,y,1/2-z
y,x,-z
-y,-x,-z
-x,-y,-z
y,-x,1/2-z
x,y,-z
-y,x,1/2-z
-x,y,1/2+z
x,-y,1/2+z
-y,-x,z
y,x,z
loop_
_atom_site_type_symbol
_atom_site_label
_atom_site_fract_x
_atom_site_fract_y
_atom_site_fract_z
Si Si1 0.295655 0.178702 0.677155
Si Si2 0.428236 0.243925 0.820383
Si Si3 0.500000 0.500000 0.750000
Si Si4 0.810094 0.924898 0.179674
Si Si5 0.388803 0.388803 0.671429
O O1 0.308477 0.168445 0.500000
O O2 0.244127 0.244127 0.693117
O O3 0.365103 0.197422 0.764057
O O4 0.254876 0.114412 0.747217
O O5 0.500000 0.219309 0.750000
O O6 0.415291 0.320945 0.756190
O O7 0.431671 0.246337 0.000000
O O8 0.447555 0.447555 0.668380
O O9 0.876420 0.876420 0.210682
O O10 0.818609 0.000000 0.250000
O O11 0.801558 0.929092 0.000000
O O12 0.370312 0.370312 0.500000
#
# Coordination Sequence:
#
# PCOD9567331 Si02
#       5
#    16  16   2  16   8
#     4  10  20  36  59  83 112 148 192 240 289 343
#     4  12  24  37  55  78 108 144 189 241 293 346
#     4  12  26  36  56  70 110 148 194 232 298 368
#     4  10  21  37  59  89 124 159 196 233 278 334
#     4  12  24  37  52  73 103 142 189 237 291 350
#
# _framework density 17.349188000000002
#
# number of rings (size 3 to 8) (size 9 to 14) (size 15 to 20)
#    0.000    1.103    2.759    4.759    0.000    4.138 
#    0.000    1.379    0.000    0.828    0.000    5.793 
#    0.000    0.000    0.000    0.000    0.000    0.000 
#
# Total GULP energy -324171.596617 kJ/mol
# GULP energy per Si atom -5589.165459 kJ/mol
# Density = 1.730970 g / cm^3
# Si number density = 17.349188 Si / 1000 Ang^3
#
#
#
# Elastic Constant Matrix: (Units=GPa)
#
#
# Indices 1 2 3 4 5 6 
#
# 1 115.3553 64.9311 75.0595 0.0000 0.0000 0.0000
# 2 64.9311 115.3553 75.0595 0.0000 0.0000 0.0000
# 3 75.0595 75.0595 169.3286 0.0000 0.0000 0.0000
# 4 0.0000 0.0000 0.0000 24.2928 0.0000 0.0000
# 5 0.0000 0.0000 0.0000 0.0000 24.2928 0.0000
# 6 0.0000 0.0000 0.0000 0.0000 0.0000 14.9906
#
#
#
# Elastic Compliance Matrix: (Units=1/GPa)
#
#
# Indices 1 2 3 4 5 6 
#
# 1 0.014312 -0.005520 -0.003897 0.000000 0.000000 0.000000
# 2 -0.005520 0.014312 -0.003897 0.000000 0.000000 0.000000
# 3 -0.003897 -0.003897 0.009361 0.000000 0.000000 0.000000
# 4 0.000000 0.000000 0.000000 0.041164 0.000000 0.000000
# 5 0.000000 0.000000 0.000000 0.000000 0.041164 0.000000
# 6 0.000000 0.000000 0.000000 0.000000 0.000000 0.066709
#
#
# Mechanical properties :
#
#
# Convention : Reuss Voigt Hill
#
# Bulk Modulus (GPa) = 88.06261 92.23772 90.15016
# Shear Modulus (GPa) = 22.99529 25.04785 24.02157
#
# Velocity S-wave (km/s) = 3.64461 3.80379 3.72505
# Velocity P-wave (km/s) = 8.28130 8.51896 8.40097
#
# Compressibility (1/GPa) = 0.01135556
#
# Stress axis : x y z
#
# Youngs Moduli (GPa) = 69.87247 69.87247 106.82878
#
# Poissons Ratio (x) = 0.38569 0.41633
# Poissons Ratio (y) = 0.38569 0.41633
# Poissons Ratio (z) = 0.27231 0.27231
#
# Static dielectric constant tensor:
#      x y z
#    x 1.574000 0.000000 0.000000 
#    y 0.000000 1.574000 0.000000 
#    z 0.000000 0.000000 1.577770 
# 
# From -- ./inp_files/1028.got.cif
#   From: 2010.05.17/outbox.cif.g08.bks.cpg/sg132_1_cif.got.tgz:1028.got - 2010.05.20 12:30:18.
