data_PCOD9567834
_publ_section_title
;
Structure prediction by ZEFSAII (Michael W. Deem and Ramdas Pophale) SiO2 
 PCOD9567834
Probable space group: P 42/N B C
;
_chemical_formula_sum "Si O2"
_cell_formula_units_Z 56
_cell_length_a 13.971308
_cell_length_b 13.971308
_cell_length_c 11.522902
_cell_angle_alpha 90.000000
_cell_angle_beta 90.000000
_cell_angle_gamma 90.000000
_cell_volume 2249.241055
_symmetry_space_group_name_H-M "P 42/N B C"
_symmetry_group_IT_number 133
_space_group.IT_coordinate_system_code '2'
_symmetry_cell_setting 'tetragonal'
loop_
_space_group_symop_operation_xyz
x,y,z
1/2-y,x,1/2+z
1/2-x,1/2-y,z
y,1/2-x,1/2+z
x,1/2-y,-z
1/2-x,y,-z
y,x,1/2-z
1/2-y,1/2-x,1/2-z
-x,-y,-z
1/2+y,-x,1/2-z
1/2+x,1/2+y,-z
-y,1/2+x,1/2-z
-x,1/2+y,z
1/2+x,-y,z
-y,-x,1/2+z
1/2+y,1/2+x,1/2+z
loop_
_atom_site_type_symbol
_atom_site_label
_atom_site_fract_x
_atom_site_fract_y
_atom_site_fract_z
Si Si1 0.374201 0.250000 0.000000
Si Si2 0.481020 0.732554 0.194946
Si Si3 0.547798 0.635990 0.591684
Si Si4 0.415457 0.589989 0.379878
O O1 0.437899 0.205319 0.103422
O O2 0.331202 0.343985 0.059861
O O3 0.517624 0.801530 0.298432
O O4 0.444578 0.639924 0.260117
O O5 0.407917 0.799803 0.123355
O O6 0.471489 0.639772 0.486154
O O7 0.558302 0.522292 0.615183
#
# Coordination Sequence:
#
# PCOD9567834 Si02
#       4
#     8  16  16  16
#     4  10  22  38  69 103 134 178 234 286 363 421
#     4  11  24  40  69 104 134 190 233 289 358 432
#     4  10  23  44  69 103 139 188 235 299 358 432
#     4  10  23  41  69  94 141 179 232 288 356 419
#
# _framework density 24.897286000000001
#
# number of rings (size 3 to 8) (size 9 to 14) (size 15 to 20)
#    0.000    1.714    0.000    4.286   16.000    0.571 
#    0.000    2.857    0.000   20.571    0.000    0.000 
#    0.000    0.000    0.000    0.000    0.000    0.000 
#
# Total GULP energy -313159.307479 kJ/mol
# GULP energy per Si atom -5592.130491 kJ/mol
# Density = 2.484062 g / cm^3
# Si number density = 24.897286 Si / 1000 Ang^3
#
#
#
# Elastic Constant Matrix: (Units=GPa)
#
#
# Indices 1 2 3 4 5 6 
#
# 1 105.7451 7.9537 31.1624 0.0000 0.0000 0.0000
# 2 7.9537 105.7451 31.1624 0.0000 0.0000 0.0000
# 3 31.1624 31.1624 119.6287 0.0000 0.0000 0.0000
# 4 0.0000 0.0000 0.0000 42.2913 0.0000 0.0000
# 5 0.0000 0.0000 0.0000 0.0000 42.2913 0.0000
# 6 0.0000 0.0000 0.0000 0.0000 0.0000 22.3452
#
#
#
# Elastic Compliance Matrix: (Units=1/GPa)
#
#
# Indices 1 2 3 4 5 6 
#
# 1 0.010243 0.000017 -0.002673 0.000000 0.000000 0.000000
# 2 0.000017 0.010243 -0.002673 0.000000 0.000000 0.000000
# 3 -0.002673 -0.002673 0.009752 0.000000 0.000000 0.000000
# 4 0.000000 0.000000 0.000000 0.023646 0.000000 0.000000
# 5 0.000000 0.000000 0.000000 0.000000 0.023646 0.000000
# 6 0.000000 0.000000 0.000000 0.000000 0.000000 0.044752
#
#
# Mechanical properties :
#
#
# Convention : Reuss Voigt Hill
#
# Bulk Modulus (GPa) = 51.06925 52.40842 51.73883
# Shear Modulus (GPa) = 35.85136 38.77492 37.31314
#
# Velocity S-wave (km/s) = 3.79881 3.95067 3.87548
# Velocity P-wave (km/s) = 6.30855 6.47348 6.39155
#
# Compressibility (1/GPa) = 0.01958125
#
# Stress axis : x y z
#
# Youngs Moduli (GPa) = 97.62730 97.62730 102.54684
#
# Poissons Ratio (x) = -0.00168 0.27408
# Poissons Ratio (y) = -0.00168 0.27408
# Poissons Ratio (z) = 0.26093 0.26093
#
# Static dielectric constant tensor:
#      x y z
#    x 2.009900 0.000000 0.000000 
#    y 0.000000 2.009900 0.000000 
#    z 0.000000 0.000000 1.965500 
# 
# From -- ./inp_files/2787.got.cif
#   From: 2010.05.17/outbox.cif.g08.bks.cpg/sg133_2_cif.got.tgz:2787.got - 2010.05.20 12:37:36.
