data_PCOD9567300
_publ_section_title
;
Structure prediction by ZEFSAII (Michael W. Deem and Ramdas Pophale) SiO2 
 PCOD9567300
Probable space group: P 42/M C M
;
_chemical_formula_sum "Si O2"
_cell_formula_units_Z 96
_cell_length_a 23.963992
_cell_length_b 23.963992
_cell_length_c 8.934251
_cell_angle_alpha 90.000000
_cell_angle_beta 90.000000
_cell_angle_gamma 90.000000
_cell_volume 5130.698343
_symmetry_space_group_name_H-M "P 42/M C M"
_symmetry_group_IT_number 132
_symmetry_cell_setting 'tetragonal'
loop_
_space_group_symop_operation_xyz
x,y,z
-y,x,1/2+z
-x,-y,z
y,-x,1/2+z
x,-y,1/2-z
-x,y,1/2-z
y,x,-z
-y,-x,-z
-x,-y,-z
y,-x,1/2-z
x,y,-z
-y,x,1/2-z
-x,y,1/2+z
x,-y,1/2+z
-y,-x,z
y,x,z
loop_
_atom_site_type_symbol
_atom_site_label
_atom_site_fract_x
_atom_site_fract_y
_atom_site_fract_z
Si Si1 0.053592 0.609851 0.168452
Si Si2 0.759474 0.375026 0.821106
Si Si3 0.561077 0.351417 0.819774
Si Si4 0.824065 0.269507 0.675021
Si Si5 0.444201 0.149300 0.175584
Si Si6 0.055957 0.257883 0.331744
O O1 0.104673 0.602212 0.280458
O O2 0.045386 0.675760 0.153051
O O3 0.000000 0.584460 0.250000
O O4 0.063844 0.587706 0.000000
O O5 0.697025 0.393963 0.779867
O O6 0.788418 0.320298 0.749564
O O7 0.795626 0.427166 0.763911
O O8 0.762783 0.368731 0.000000
O O9 0.500000 0.343312 0.750000
O O10 0.589946 0.410055 0.777645
O O11 0.555595 0.349240 0.000000
O O12 0.832143 0.283642 0.500000
O O13 0.784631 0.215370 0.686336
O O14 0.884229 0.255977 0.748206
O O15 0.500000 0.126261 0.250000
O O16 0.449078 0.158153 0.000000
O O17 0.061015 0.234694 0.500000
O O18 0.000000 0.235366 0.250000
#
# Coordination Sequence:
#
# PCOD9567300 Si02
#       6
#    16  16  16  16  16  16
#     4  10  20  35  54  77 104 140 185 233 284 335
#     4  11  22  39  60  83 112 148 187 229 284 343
#     4  10  23  42  63  87 113 142 178 223 278 343
#     4  11  23  37  57  88 123 157 196 240 285 337
#     4  12  24  37  54  76 106 142 185 236 283 337
#     4  10  20  35  58  83 115 155 196 240 288 341
#
# _framework density 18.710903999999999
#
# number of rings (size 3 to 8) (size 9 to 14) (size 15 to 20)
#    0.000    1.333    1.667    4.500    0.000    6.833 
#    0.000    2.500    0.000    0.000    0.000    0.000 
#    0.000    0.333    0.000    3.500    0.000    1.500 
#
# Total GULP energy -535351.800139 kJ/mol
# GULP energy per Si atom -5576.581251 kJ/mol
# Density = 1.866832 g / cm^3
# Si number density = 18.710904 Si / 1000 Ang^3
#
#
#
# Elastic Constant Matrix: (Units=GPa)
#
#
# Indices 1 2 3 4 5 6 
#
# 1 79.0817 32.5953 48.9130 0.0000 0.0000 0.0000
# 2 32.5953 79.0817 48.9130 0.0000 0.0000 0.0000
# 3 48.9130 48.9130 106.0360 0.0000 0.0000 0.0000
# 4 0.0000 0.0000 0.0000 13.8545 0.0000 0.0000
# 5 0.0000 0.0000 0.0000 0.0000 13.8545 0.0000
# 6 0.0000 0.0000 0.0000 0.0000 0.0000 -30.3062
#
#
#
# Elastic Compliance Matrix: (Units=1/GPa)
#
#
# Indices 1 2 3 4 5 6 
#
# 1 0.018269 -0.003243 -0.006931 0.000000 0.000000 0.000000
# 2 -0.003243 0.018269 -0.006931 0.000000 0.000000 0.000000
# 3 -0.006931 -0.006931 0.015825 0.000000 0.000000 0.000000
# 4 0.000000 0.000000 0.000000 0.072179 0.000000 0.000000
# 5 0.000000 0.000000 0.000000 0.000000 0.072179 0.000000
# 6 0.000000 0.000000 0.000000 0.000000 0.000000 -0.032997
#
#
# Mechanical properties :
#
#
# Convention : Reuss Voigt Hill
#
# Bulk Modulus (GPa) = 55.08968 58.33802 56.71385
# Shear Modulus (GPa) = 24.51153 8.39911 16.45532
#
# Velocity S-wave (km/s) = 3.62334 2.12100 2.96877
# Velocity P-wave (km/s) = 6.85647 6.10283 6.49060
#
# Compressibility (1/GPa) = 0.01815222
#
# Stress axis : x y z
#
# Youngs Moduli (GPa) = 54.73802 54.73802 63.18960
#
# Poissons Ratio (x) = 0.17751 0.43799
# Poissons Ratio (y) = 0.17751 0.43799
# Poissons Ratio (z) = 0.37941 0.37941
#
# Static dielectric constant tensor:
#      x y z
#    x 1.779520 0.000000 0.000000 
#    y 0.000000 1.779520 0.000000 
#    z 0.000000 0.000000 1.660860 
# 
# From -- ./inp_files/1711.got.cif
#   From: 2010.05.17/outbox.cif.g08.bks.cpg/sg132_1_cif.got.tgz:1711.got - 2010.05.20 12:30:18.
