data_PCOD9567934
_publ_section_title
;
Structure prediction by ZEFSAII (Michael W. Deem and Ramdas Pophale) SiO2 
 PCOD9567934
Probable space group: P 42/N B C
;
_chemical_formula_sum "Si O2"
_cell_formula_units_Z 32
_cell_length_a 10.578787
_cell_length_b 10.578787
_cell_length_c 10.753211
_cell_angle_alpha 90.000000
_cell_angle_beta 90.000000
_cell_angle_gamma 90.000000
_cell_volume 1203.399740
_symmetry_space_group_name_H-M "P 42/N B C"
_symmetry_group_IT_number 133
_space_group.IT_coordinate_system_code '2'
_symmetry_cell_setting 'tetragonal'
loop_
_space_group_symop_operation_xyz
x,y,z
1/2-y,x,1/2+z
1/2-x,1/2-y,z
y,1/2-x,1/2+z
x,1/2-y,-z
1/2-x,y,-z
y,x,1/2-z
1/2-y,1/2-x,1/2-z
-x,-y,-z
1/2+y,-x,1/2-z
1/2+x,1/2+y,-z
-y,1/2+x,1/2-z
-x,1/2+y,z
1/2+x,-y,z
-y,-x,1/2+z
1/2+y,1/2+x,1/2+z
loop_
_atom_site_type_symbol
_atom_site_label
_atom_site_fract_x
_atom_site_fract_y
_atom_site_fract_z
Si Si1 0.250000 0.429380 0.500000
Si Si2 0.668087 0.120985 0.107195
Si Si3 0.882812 0.882812 0.750000
O O1 0.351609 0.528554 0.556277
O O2 0.310986 0.361361 0.380472
O O3 0.750000 0.250000 0.125526
O O4 0.649992 0.028879 0.222232
O O5 0.750000 0.053416 0.000000
#
# Coordination Sequence:
#
# PCOD9567934 Si02
#       3
#     8  16   8
#     4  10  25  42  73 108 160 212 273 357 410 500
#     4   9  23  46  78 112 157 219 284 339 425 508
#     4  12  24  46  79 117 156 220 286 354 419 505
#
# _framework density 26.591331
#
# number of rings (size 3 to 8) (size 9 to 14) (size 15 to 20)
#    0.000    2.500    0.000    1.500   14.000    2.000 
#    0.000    3.750    0.000    0.000    0.000    0.000 
#    0.000    0.000    0.000    0.000    0.000    0.000 
#
# Total GULP energy -178807.813657 kJ/mol
# GULP energy per Si atom -5587.744177 kJ/mol
# Density = 2.653081 g / cm^3
# Si number density = 26.591331 Si / 1000 Ang^3
#
#
#
# Elastic Constant Matrix: (Units=GPa)
#
#
# Indices 1 2 3 4 5 6 
#
# 1 111.9973 100.4966 75.9600 0.0000 0.0000 0.0000
# 2 100.4966 111.9973 75.9600 0.0000 0.0000 0.0000
# 3 75.9600 75.9600 227.0681 0.0000 0.0000 0.0000
# 4 0.0000 0.0000 0.0000 53.2615 0.0000 0.0000
# 5 0.0000 0.0000 0.0000 0.0000 53.2615 0.0000
# 6 0.0000 0.0000 0.0000 0.0000 0.0000 12.6078
#
#
#
# Elastic Compliance Matrix: (Units=1/GPa)
#
#
# Indices 1 2 3 4 5 6 
#
# 1 0.046568 -0.040383 -0.002069 0.000000 0.000000 0.000000
# 2 -0.040383 0.046568 -0.002069 0.000000 0.000000 0.000000
# 3 -0.002069 -0.002069 0.005788 0.000000 0.000000 0.000000
# 4 0.000000 0.000000 0.000000 0.018775 0.000000 0.000000
# 5 0.000000 0.000000 0.000000 0.000000 0.018775 0.000000
# 6 0.000000 0.000000 0.000000 0.000000 0.000000 0.079316
#
#
# Mechanical properties :
#
#
# Convention : Reuss Voigt Hill
#
# Bulk Modulus (GPa) = 101.19005 106.21067 103.70036
# Shear Modulus (GPa) = 16.22698 37.06922 26.64810
#
# Velocity S-wave (km/s) = 2.47297 3.73773 3.16909
# Velocity P-wave (km/s) = 6.80371 7.65872 7.24384
#
# Compressibility (1/GPa) = 0.00988239
#
# Stress axis : x y z
#
# Youngs Moduli (GPa) = 21.47378 21.47378 172.76134
#
# Poissons Ratio (x) = 0.86718 0.35747
# Poissons Ratio (y) = 0.86718 0.35747
# Poissons Ratio (z) = 0.04443 0.04443
#
# Static dielectric constant tensor:
#      x y z
#    x 2.137830 0.000000 0.000000 
#    y 0.000000 2.137830 0.000000 
#    z 0.000000 0.000000 2.194970 
# 
# From -- ./inp_files/2276.got.cif
#   From: 2010.05.17/outbox.cif.g08.bks.cpg/sg133_2_cif.got.tgz:2276.got - 2010.05.20 12:37:36.
