data_PCOD9567490
_publ_section_title
;
Structure prediction by ZEFSAII (Michael W. Deem and Ramdas Pophale) SiO2 
 PCOD9567490
Probable space group: P 42/M C M
;
_chemical_formula_sum "Si O2"
_cell_formula_units_Z 64
_cell_length_a 13.365688
_cell_length_b 13.365688
_cell_length_c 20.351184
_cell_angle_alpha 90.000000
_cell_angle_beta 90.000000
_cell_angle_gamma 90.000000
_cell_volume 3635.568391
_symmetry_space_group_name_H-M "P 42/M C M"
_symmetry_group_IT_number 132
_symmetry_cell_setting 'tetragonal'
loop_
_space_group_symop_operation_xyz
x,y,z
-y,x,1/2+z
-x,-y,z
y,-x,1/2+z
x,-y,1/2-z
-x,y,1/2-z
y,x,-z
-y,-x,-z
-x,-y,-z
y,-x,1/2-z
x,y,-z
-y,x,1/2-z
-x,y,1/2+z
x,-y,1/2+z
-y,-x,z
y,x,z
loop_
_atom_site_type_symbol
_atom_site_label
_atom_site_fract_x
_atom_site_fract_y
_atom_site_fract_z
Si Si1 0.465461 0.700937 0.427355
Si Si2 0.129787 0.294322 0.076785
Si Si3 0.026853 0.616976 0.174403
Si Si4 0.252212 0.588687 0.196977
O O1 0.511724 0.710795 0.500000
O O2 0.397414 0.602587 0.426963
O O3 0.388399 0.793715 0.418282
O O4 0.539392 0.699496 0.367075
O O5 0.196325 0.196325 0.092883
O O6 0.038116 0.316494 0.124927
O O7 0.099788 0.287618 0.000000
O O8 0.145775 0.629430 0.172596
O O9 0.000000 0.500000 0.161036
O O10 0.000000 0.637480 0.250000
O O11 0.235748 0.500000 0.250000
O O12 0.325113 0.674888 0.224031
#
# Coordination Sequence:
#
# PCOD9567490 Si02
#       4
#    16  16  16  16
#     4   9  18  33  52  76 108 146 186 225 272 336
#     4   9  18  34  60  89 114 148 194 243 295 348
#     4  11  20  36  56  81 113 147 191 239 291 336
#     4  12  24  37  54  80 113 150 190 229 280 345
#
# _framework density 17.603849
#
# number of rings (size 3 to 8) (size 9 to 14) (size 15 to 20)
#    0.000    1.750    5.000    2.250    0.000    6.750 
#    0.000    1.250    0.000    0.750    0.000    3.500 
#    0.000    0.000    0.000    0.000    0.000    0.000 
#
# Total GULP energy -357131.872089 kJ/mol
# GULP energy per Si atom -5580.185501 kJ/mol
# Density = 1.756378 g / cm^3
# Si number density = 17.603849 Si / 1000 Ang^3
#
#
#
# Elastic Constant Matrix: (Units=GPa)
#
#
# Indices 1 2 3 4 5 6 
#
# 1 75.9623 49.4276 47.0077 0.0000 0.0000 0.0000
# 2 49.4276 75.9623 47.0077 0.0000 0.0000 0.0000
# 3 47.0077 47.0077 97.6682 0.0000 0.0000 0.0000
# 4 0.0000 0.0000 0.0000 39.1761 0.0000 0.0000
# 5 0.0000 0.0000 0.0000 0.0000 39.1761 0.0000
# 6 0.0000 0.0000 0.0000 0.0000 0.0000 17.1187
#
#
#
# Elastic Compliance Matrix: (Units=1/GPa)
#
#
# Indices 1 2 3 4 5 6 
#
# 1 0.025082 -0.012604 -0.006006 0.000000 0.000000 0.000000
# 2 -0.012604 0.025082 -0.006006 0.000000 0.000000 0.000000
# 3 -0.006006 -0.006006 0.016020 0.000000 0.000000 0.000000
# 4 0.000000 0.000000 0.000000 0.025526 0.000000 0.000000
# 5 0.000000 0.000000 0.000000 0.000000 0.025526 0.000000
# 6 0.000000 0.000000 0.000000 0.000000 0.000000 0.058416
#
#
# Mechanical properties :
#
#
# Convention : Reuss Voigt Hill
#
# Bulk Modulus (GPa) = 58.98588 59.60877 59.29733
# Shear Modulus (GPa) = 21.68878 26.17083 23.92981
#
# Velocity S-wave (km/s) = 3.51386 3.85990 3.69094
# Velocity P-wave (km/s) = 7.07411 7.33484 7.20565
#
# Compressibility (1/GPa) = 0.01695321
#
# Stress axis : x y z
#
# Youngs Moduli (GPa) = 39.86877 39.86877 62.42264
#
# Poissons Ratio (x) = 0.50251 0.37489
# Poissons Ratio (y) = 0.50251 0.37489
# Poissons Ratio (z) = 0.23944 0.23944
#
# Static dielectric constant tensor:
#      x y z
#    x 1.615980 0.000000 0.000000 
#    y 0.000000 1.615980 0.000000 
#    z 0.000000 0.000000 1.609090 
# 
# From -- ./inp_files/7430.got.cif
#   From: 2010.05.17/outbox.cif.g08.bks.cpg/sg132_4_cif.got.tgz:7430.got - 2010.05.20 12:30:18.
