data_PCOD9567417
_publ_section_title
;
Structure prediction by ZEFSAII (Michael W. Deem and Ramdas Pophale) SiO2 
 PCOD9567417
Probable space group: P 42/M C M
;
_chemical_formula_sum "Si O2"
_cell_formula_units_Z 108
_cell_length_a 14.450999
_cell_length_b 14.450999
_cell_length_c 25.257264
_cell_angle_alpha 90.000000
_cell_angle_beta 90.000000
_cell_angle_gamma 90.000000
_cell_volume 5274.509097
_symmetry_space_group_name_H-M "P 42/M C M"
_symmetry_group_IT_number 132
_symmetry_cell_setting 'tetragonal'
loop_
_space_group_symop_operation_xyz
x,y,z
-y,x,1/2+z
-x,-y,z
y,-x,1/2+z
x,-y,1/2-z
-x,y,1/2-z
y,x,-z
-y,-x,-z
-x,-y,-z
y,-x,1/2-z
x,y,-z
-y,x,1/2-z
-x,y,1/2+z
x,-y,1/2+z
-y,-x,z
y,x,z
loop_
_atom_site_type_symbol
_atom_site_label
_atom_site_fract_x
_atom_site_fract_y
_atom_site_fract_z
Si Si1 0.408865 0.738389 0.648134
Si Si2 0.552573 0.707060 0.438606
Si Si3 0.089268 0.362876 0.560519
Si Si4 0.649248 0.500000 0.750000
Si Si5 0.131304 0.131304 0.000000
Si Si6 0.977064 0.167909 0.918859
Si Si7 0.799157 0.051991 0.696525
Si Si8 0.407531 0.044482 0.842025
O O1 0.306963 0.693038 0.647502
O O2 0.467661 0.694950 0.600610
O O3 0.457521 0.708778 0.702893
O O4 0.415934 0.848154 0.643153
O O5 0.524568 0.699451 0.500000
O O6 0.631778 0.631778 0.428321
O O7 0.594640 0.809681 0.430617
O O8 0.061210 0.384382 0.500000
O O9 0.090604 0.252466 0.568304
O O10 0.016489 0.394638 0.604786
O O11 0.581371 0.418630 0.770328
O O12 0.068231 0.181302 0.046319
O O13 0.926511 0.073490 0.934785
O O14 0.002507 0.165853 0.857120
O O15 0.846464 0.153537 0.697497
O O16 0.687768 0.044534 0.691247
O O17 0.827698 0.000000 0.750000
O O18 0.500000 0.000000 0.816519
#
# Coordination Sequence:
#
# PCOD9567417 Si02
#       8
#    16  16  16   8   4  16  16  16
#     4  11  23  42  66  95 131 167 216 279 332 389
#     4  10  21  38  64  98 132 168 211 265 339 416
#     4  10  21  38  62  89 125 170 218 269 316 388
#     4   9  20  40  67  94 120 160 209 260 321 382
#     4  12  21  32  60  96 130 168 216 274 333 382
#     4  11  21  35  58  91 128 167 213 267 325 383
#     4  11  25  43  64  93 131 175 219 267 329 405
#     4  11  24  44  65  92 123 173 224 275 322 392
#
# _framework density 20.475840000000002
#
# number of rings (size 3 to 8) (size 9 to 14) (size 15 to 20)
#    0.000    1.407    2.963    2.444    0.000    4.889 
#    0.000    0.741    0.000    0.000    0.000    0.000 
#    0.000    0.000    0.000    0.000    0.000    0.000 
#
# Total GULP energy -602018.510821 kJ/mol
# GULP energy per Si atom -5574.245471 kJ/mol
# Density = 2.042924 g / cm^3
# Si number density = 20.475840 Si / 1000 Ang^3
#
#
#
# Elastic Constant Matrix: (Units=GPa)
#
#
# Indices 1 2 3 4 5 6 
#
# 1 36.9687 86.1126 26.8194 0.0000 0.0000 0.0000
# 2 86.1126 36.9687 26.8194 0.0000 0.0000 0.0000
# 3 26.8194 26.8194 105.9345 0.0000 0.0000 0.0000
# 4 0.0000 0.0000 0.0000 3.4353 0.0000 0.0000
# 5 0.0000 0.0000 0.0000 0.0000 3.4353 0.0000
# 6 0.0000 0.0000 0.0000 0.0000 0.0000 23.2836
#
#
#
# Elastic Compliance Matrix: (Units=1/GPa)
#
#
# Indices 1 2 3 4 5 6 
#
# 1 -0.005608 0.014740 -0.002312 0.000000 0.000000 0.000000
# 2 0.014740 -0.005608 -0.002312 0.000000 0.000000 0.000000
# 3 -0.002312 -0.002312 0.010610 0.000000 0.000000 0.000000
# 4 0.000000 0.000000 0.000000 0.291096 0.000000 0.000000
# 5 0.000000 0.000000 0.000000 0.000000 0.291096 0.000000
# 6 0.000000 0.000000 0.000000 0.000000 0.000000 0.042949
#
#
# Mechanical properties :
#
#
# Convention : Reuss Voigt Hill
#
# Bulk Modulus (GPa) = 50.95031 51.04163 50.99597
# Shear Modulus (GPa) = 8.18540 8.70554 8.44547
#
# Velocity S-wave (km/s) = 2.00157 2.06418 2.03311
# Velocity P-wave (km/s) = 5.50262 5.53742 5.52005
#
# Compressibility (1/GPa) = 0.01962696
#
# Stress axis : x y z
#
# Youngs Moduli (GPa) = -178.31502 -178.31502 94.24655
#
# Poissons Ratio (x) = 2.62843 0.21790
# Poissons Ratio (y) = 2.62843 0.21790
# Poissons Ratio (z) = -0.41227 -0.41227
#
# Static dielectric constant tensor:
#      x y z
#    x 1.746480 0.000000 0.000000 
#    y 0.000000 1.746480 0.000000 
#    z 0.000000 0.000000 1.702750 
# 
# From -- ./inp_files/9187.got.cif
#   From: 2010.05.17/outbox.cif.g08.bks.cpg/sg132_5_cif.got.tgz:9187.got - 2010.05.20 12:30:18.
