data_PCOD9567475
_publ_section_title
;
Structure prediction by ZEFSAII (Michael W. Deem and Ramdas Pophale) SiO2 
 PCOD9567475
Probable space group: P 42/M C M
;
_chemical_formula_sum "Si O2"
_cell_formula_units_Z 80
_cell_length_a 13.804152
_cell_length_b 13.804152
_cell_length_c 25.902916
_cell_angle_alpha 90.000000
_cell_angle_beta 90.000000
_cell_angle_gamma 90.000000
_cell_volume 4935.920119
_symmetry_space_group_name_H-M "P 42/M C M"
_symmetry_group_IT_number 132
_symmetry_cell_setting 'tetragonal'
loop_
_space_group_symop_operation_xyz
x,y,z
-y,x,1/2+z
-x,-y,z
y,-x,1/2+z
x,-y,1/2-z
-x,y,1/2-z
y,x,-z
-y,-x,-z
-x,-y,-z
y,-x,1/2-z
x,y,-z
-y,x,1/2-z
-x,y,1/2+z
x,-y,1/2+z
-y,-x,z
y,x,z
loop_
_atom_site_type_symbol
_atom_site_label
_atom_site_fract_x
_atom_site_fract_y
_atom_site_fract_z
Si Si1 0.169549 0.326778 0.216583
Si Si2 0.338548 0.181882 0.938890
Si Si3 0.011882 0.383960 0.138643
Si Si4 0.351698 0.802624 0.164200
Si Si5 0.546625 0.301754 0.639544
O O1 0.220834 0.220834 0.214793
O O2 0.066714 0.338281 0.188321
O O3 0.170066 0.362620 0.275322
O O4 0.240422 0.395314 0.182995
O O5 0.235489 0.235489 0.927797
O O6 0.355192 0.081838 0.908658
O O7 0.417147 0.255261 0.914257
O O8 0.348566 0.171750 0.000000
O O9 0.000000 0.500000 0.144695
O O10 0.901965 0.351131 0.133115
O O11 0.251493 0.748508 0.158371
O O12 0.436420 0.727909 0.148501
O O13 0.589264 0.410737 0.642640
#
# Coordination Sequence:
#
# PCOD9567475 Si02
#       5
#    16  16  16  16  16
#     4   9  18  31  49  70  99 133 173 206 239 294
#     4   9  18  34  56  78  98 124 167 215 255 301
#     4  11  19  31  52  77  99 132 166 211 256 295
#     4  11  21  31  45  73 106 138 167 201 246 294
#     4   9  17  31  48  71 100 134 168 202 241 292
#
# _framework density 16.207716999999999
#
# number of rings (size 3 to 8) (size 9 to 14) (size 15 to 20)
#    0.000    2.200    4.000    3.000    0.000    1.600 
#    0.000    0.000    0.000    8.400    0.000    9.800 
#    0.000    0.000    0.000    0.000    0.000    0.000 
#
# Total GULP energy -445371.384021 kJ/mol
# GULP energy per Si atom -5567.142300 kJ/mol
# Density = 1.617083 g / cm^3
# Si number density = 16.207717 Si / 1000 Ang^3
#
#
#
# Elastic Constant Matrix: (Units=GPa)
#
#
# Indices 1 2 3 4 5 6 
#
# 1 75.3452 39.0847 27.9642 0.0000 0.0000 0.0000
# 2 39.0847 75.3452 27.9642 0.0000 0.0000 0.0000
# 3 27.9642 27.9642 71.7420 0.0000 0.0000 0.0000
# 4 0.0000 0.0000 0.0000 13.9166 0.0000 0.0000
# 5 0.0000 0.0000 0.0000 0.0000 13.9166 0.0000
# 6 0.0000 0.0000 0.0000 0.0000 0.0000 18.0008
#
#
#
# Elastic Compliance Matrix: (Units=1/GPa)
#
#
# Indices 1 2 3 4 5 6 
#
# 1 0.019187 -0.008391 -0.004208 0.000000 0.000000 0.000000
# 2 -0.008391 0.019187 -0.004208 0.000000 0.000000 0.000000
# 3 -0.004208 -0.004208 0.017219 0.000000 0.000000 0.000000
# 4 0.000000 0.000000 0.000000 0.071857 0.000000 0.000000
# 5 0.000000 0.000000 0.000000 0.000000 0.071857 0.000000
# 6 0.000000 0.000000 0.000000 0.000000 0.000000 0.055553
#
#
# Mechanical properties :
#
#
# Convention : Reuss Voigt Hill
#
# Bulk Modulus (GPa) = 45.49890 45.82874 45.66382
# Shear Modulus (GPa) = 16.90328 17.66141 17.28234
#
# Velocity S-wave (km/s) = 3.23292 3.30463 3.26897
# Velocity P-wave (km/s) = 6.48606 6.54966 6.51794
#
# Compressibility (1/GPa) = 0.02197855
#
# Stress axis : x y z
#
# Youngs Moduli (GPa) = 52.11872 52.11872 58.07436
#
# Poissons Ratio (x) = 0.43734 0.24438
# Poissons Ratio (y) = 0.43734 0.24438
# Poissons Ratio (z) = 0.21932 0.21932
#
# Static dielectric constant tensor:
#      x y z
#    x 1.551940 0.000000 0.000000 
#    y 0.000000 1.551940 0.000000 
#    z 0.000000 0.000000 1.551850 
# 
# From -- ./inp_files/8873.got.cif
#   From: 2010.05.17/outbox.cif.g08.bks.cpg/sg132_5_cif.got.tgz:8873.got - 2010.05.20 12:30:18.
