data_PCOD9567746
_publ_section_title
;
Structure prediction by ZEFSAII (Michael W. Deem and Ramdas Pophale) SiO2 
 PCOD9567746
Probable space group: P 42/N B C
;
_chemical_formula_sum "Si O2"
_cell_formula_units_Z 100
_cell_length_a 14.320256
_cell_length_b 14.320256
_cell_length_c 19.958256
_cell_angle_alpha 90.000000
_cell_angle_beta 90.000000
_cell_angle_gamma 90.000000
_cell_volume 4092.834207
_symmetry_space_group_name_H-M "P 42/N B C"
_symmetry_group_IT_number 133
_space_group.IT_coordinate_system_code '2'
_symmetry_cell_setting 'tetragonal'
loop_
_space_group_symop_operation_xyz
x,y,z
1/2-y,x,1/2+z
1/2-x,1/2-y,z
y,1/2-x,1/2+z
x,1/2-y,-z
1/2-x,y,-z
y,x,1/2-z
1/2-y,1/2-x,1/2-z
-x,-y,-z
1/2+y,-x,1/2-z
1/2+x,1/2+y,-z
-y,1/2+x,1/2-z
-x,1/2+y,z
1/2+x,-y,z
-y,-x,1/2+z
1/2+y,1/2+x,1/2+z
loop_
_atom_site_type_symbol
_atom_site_label
_atom_site_fract_x
_atom_site_fract_y
_atom_site_fract_z
Si Si1 0.818911 0.133346 0.776464
Si Si2 0.750000 0.750000 0.500000
Si Si3 0.375248 0.997304 0.672233
Si Si4 0.886796 0.550889 0.876791
Si Si5 0.542246 0.396343 0.489218
Si Si6 0.104253 0.311774 0.610802
Si Si7 0.446237 0.806476 0.900017
O O1 0.708583 0.149422 0.780904
O O2 0.838598 0.034679 0.744112
O O3 0.877916 0.158232 0.840766
O O4 0.818487 0.695828 0.448877
O O5 0.476946 0.950105 0.663320
O O6 0.302396 0.959998 0.615338
O O7 0.372125 0.106573 0.661480
O O8 0.787757 0.590594 0.853391
O O9 0.954995 0.638104 0.892659
O O10 0.852490 0.491203 0.941735
O O11 0.500000 0.500000 0.500000
O O12 0.487135 0.349816 0.428058
O O13 0.649710 0.404092 0.467863
#
# Coordination Sequence:
#
# PCOD9567746 Si02
#       7
#    16   4  16  16  16  16  16
#     4   9  21  43  68  98 129 171 230 282 337 395
#     4  12  24  36  72  96 136 186 220 256 336 414
#     4  11  24  39  71  97 125 180 226 278 335 394
#     4  11  23  41  61 101 139 173 219 267 335 403
#     4  10  20  40  59  91 135 175 210 267 327 393
#     4  12  23  40  64  98 136 177 220 265 327 404
#     4  10  22  42  67  96 132 172 229 277 331 396
#
# _framework density 24.432948
#
# number of rings (size 3 to 8) (size 9 to 14) (size 15 to 20)
#    0.000    1.440    4.800    0.960    4.480    1.280 
#    0.000    0.000    0.000    1.920    0.000    0.000 
#    0.000    0.000    0.000    0.000    0.000    0.000 
#
# Total GULP energy -558826.357965 kJ/mol
# GULP energy per Si atom -5588.263580 kJ/mol
# Density = 2.437734 g / cm^3
# Si number density = 24.432948 Si / 1000 Ang^3
#
#
#
# Elastic Constant Matrix: (Units=GPa)
#
#
# Indices 1 2 3 4 5 6 
#
# 1 136.4528 22.6292 22.7167 0.0000 0.0000 0.0000
# 2 22.6292 136.4528 22.7167 0.0000 0.0000 0.0000
# 3 22.7167 22.7167 46.7581 0.0000 0.0000 0.0000
# 4 0.0000 0.0000 0.0000 28.7782 0.0000 0.0000
# 5 0.0000 0.0000 0.0000 0.0000 28.7782 0.0000
# 6 0.0000 0.0000 0.0000 0.0000 0.0000 29.8844
#
#
#
# Elastic Compliance Matrix: (Units=1/GPa)
#
#
# Indices 1 2 3 4 5 6 
#
# 1 0.008042 -0.000743 -0.003546 0.000000 0.000000 0.000000
# 2 -0.000743 0.008042 -0.003546 0.000000 0.000000 0.000000
# 3 -0.003546 -0.003546 0.024832 0.000000 0.000000 0.000000
# 4 0.000000 0.000000 0.000000 0.034749 0.000000 0.000000
# 5 0.000000 0.000000 0.000000 0.000000 0.034749 0.000000
# 6 0.000000 0.000000 0.000000 0.000000 0.000000 0.033462
#
#
# Mechanical properties :
#
#
# Convention : Reuss Voigt Hill
#
# Bulk Modulus (GPa) = 39.61057 50.64322 45.12689
# Shear Modulus (GPa) = 29.76866 34.26157 32.01511
#
# Velocity S-wave (km/s) = 3.49432 3.74875 3.62377
# Velocity P-wave (km/s) = 5.70329 6.28569 6.00156
#
# Compressibility (1/GPa) = 0.02524579
#
# Stress axis : x y z
#
# Youngs Moduli (GPa) = 124.34473 124.34473 40.27025
#
# Poissons Ratio (x) = 0.09243 0.14280
# Poissons Ratio (y) = 0.09243 0.14280
# Poissons Ratio (z) = 0.44093 0.44093
#
# Static dielectric constant tensor:
#      x y z
#    x 1.292500 0.000000 0.000000 
#    y 0.000000 1.292500 0.000000 
#    z 0.000000 0.000000 2.002410 
# 
# From -- ./inp_files/7205.got.cif
#   From: 2010.05.17/outbox.cif.g08.bks.cpg/sg133_4_cif.got.tgz:7205.got - 2010.05.20 12:37:36.
