data_PCOD9567194
_publ_section_title
;
Structure prediction by ZEFSAII (Michael W. Deem and Ramdas Pophale) SiO2 
 PCOD9567194
Probable space group: P 42/M C M
;
_chemical_formula_sum "Si O2"
_cell_formula_units_Z 104
_cell_length_a 18.399023
_cell_length_b 18.399023
_cell_length_c 17.023527
_cell_angle_alpha 90.000000
_cell_angle_beta 90.000000
_cell_angle_gamma 90.000000
_cell_volume 5762.873260
_symmetry_space_group_name_H-M "P 42/M C M"
_symmetry_group_IT_number 132
_symmetry_cell_setting 'tetragonal'
loop_
_space_group_symop_operation_xyz
x,y,z
-y,x,1/2+z
-x,-y,z
y,-x,1/2+z
x,-y,1/2-z
-x,y,1/2-z
y,x,-z
-y,-x,-z
-x,-y,-z
y,-x,1/2-z
x,y,-z
-y,x,1/2-z
-x,y,1/2+z
x,-y,1/2+z
-y,-x,z
y,x,z
loop_
_atom_site_type_symbol
_atom_site_label
_atom_site_fract_x
_atom_site_fract_y
_atom_site_fract_z
Si Si1 0.521805 0.715491 0.163856
Si Si2 0.560091 0.560091 0.906595
Si Si3 0.258095 0.630196 0.908339
Si Si4 0.308491 0.884276 0.844321
Si Si5 0.920402 0.804031 0.781897
Si Si6 0.576250 0.868777 0.794872
Si Si7 0.045205 0.322943 0.906586
O O1 0.500000 0.689456 0.250000
O O2 0.544129 0.643240 0.118226
O O3 0.448961 0.749425 0.127413
O O4 0.574864 0.784798 0.175055
O O5 0.500000 0.500000 0.876802
O O6 0.556155 0.556155 0.000000
O O7 0.326949 0.673052 0.872978
O O8 0.187005 0.678354 0.895011
O O9 0.270734 0.620807 0.000000
O O10 0.234632 0.886096 0.794918
O O11 0.367020 0.880510 0.774618
O O12 0.320830 0.958397 0.892090
O O13 0.871526 0.871526 0.806220
O O14 0.926605 0.745206 0.853058
O O15 0.000000 0.824521 0.750000
O O16 0.500000 0.883572 0.750000
O O17 0.604918 0.919804 0.865818
O O18 0.061023 0.318417 0.000000
#
# Coordination Sequence:
#
# PCOD9567194 Si02
#       7
#    16   8  16  16  16  16  16
#     4  11  23  39  60  84 111 150 197 243 296 363
#     4  11  26  44  62  86 118 154 194 252 313 362
#     4  11  22  36  57  82 111 144 187 243 296 346
#     4  10  19  38  59  82 115 154 201 239 282 349
#     4   9  19  36  61  89 120 158 197 243 286 349
#     4  10  20  40  57  82 115 153 195 247 294 348
#     4  10  22  37  59  89 123 161 198 241 302 364
#
# _framework density 18.046554
#
# number of rings (size 3 to 8) (size 9 to 14) (size 15 to 20)
#    0.000    1.769    3.077    3.231    2.154    4.154 
#    5.538    0.769    0.000    4.154    0.000    4.308 
#    0.000    0.000    0.000    0.000    0.000    0.000 
#
# Total GULP energy -579336.467390 kJ/mol
# GULP energy per Si atom -5570.542956 kJ/mol
# Density = 1.800548 g / cm^3
# Si number density = 18.046554 Si / 1000 Ang^3
#
#
#
# Elastic Constant Matrix: (Units=GPa)
#
#
# Indices 1 2 3 4 5 6 
#
# 1 90.1826 20.0952 29.5718 0.0000 0.0000 0.0000
# 2 20.0952 90.1826 29.5718 0.0000 0.0000 0.0000
# 3 29.5718 29.5718 94.6248 0.0000 0.0000 0.0000
# 4 0.0000 0.0000 0.0000 31.5247 0.0000 0.0000
# 5 0.0000 0.0000 0.0000 0.0000 31.5247 0.0000
# 6 0.0000 0.0000 0.0000 0.0000 0.0000 28.0455
#
#
#
# Elastic Compliance Matrix: (Units=1/GPa)
#
#
# Indices 1 2 3 4 5 6 
#
# 1 0.012581 -0.001687 -0.003405 0.000000 0.000000 0.000000
# 2 -0.001687 0.012581 -0.003405 0.000000 0.000000 0.000000
# 3 -0.003405 -0.003405 0.012696 0.000000 0.000000 0.000000
# 4 0.000000 0.000000 0.000000 0.031721 0.000000 0.000000
# 5 0.000000 0.000000 0.000000 0.000000 0.031721 0.000000
# 6 0.000000 0.000000 0.000000 0.000000 0.000000 0.035656
#
#
# Mechanical properties :
#
#
# Convention : Reuss Voigt Hill
#
# Bulk Modulus (GPa) = 47.92551 48.16305 48.04428
# Shear Modulus (GPa) = 31.07446 31.26904 31.17175
#
# Velocity S-wave (km/s) = 4.15409 4.16707 4.16058
# Velocity P-wave (km/s) = 7.04435 7.06391 7.05414
#
# Compressibility (1/GPa) = 0.02086571
#
# Stress axis : x y z
#
# Youngs Moduli (GPa) = 79.48555 79.48555 78.76501
#
# Poissons Ratio (x) = 0.13409 0.26816
# Poissons Ratio (y) = 0.13409 0.26816
# Poissons Ratio (z) = 0.27061 0.27061
#
# Static dielectric constant tensor:
#      x y z
#    x 1.657900 0.000000 0.000000 
#    y 0.000000 1.657900 0.000000 
#    z 0.000000 0.000000 1.632600 
# 
# From -- ./inp_files/6579.got.cif
#   From: 2010.05.17/outbox.cif.g08.bks.cpg/sg132_4_cif.got.tgz:6579.got - 2010.05.20 12:30:18.
