data_PCOD9567777
_publ_section_title
;
Structure prediction by ZEFSAII (Michael W. Deem and Ramdas Pophale) SiO2 
 PCOD9567777
Probable space group: P 42/N B C
;
_chemical_formula_sum "Si O2"
_cell_formula_units_Z 108
_cell_length_a 14.442837
_cell_length_b 14.442837
_cell_length_c 27.265202
_cell_angle_alpha 90.000000
_cell_angle_beta 90.000000
_cell_angle_gamma 90.000000
_cell_volume 5687.399551
_symmetry_space_group_name_H-M "P 42/N B C"
_symmetry_group_IT_number 133
_space_group.IT_coordinate_system_code '2'
_symmetry_cell_setting 'tetragonal'
loop_
_space_group_symop_operation_xyz
x,y,z
1/2-y,x,1/2+z
1/2-x,1/2-y,z
y,1/2-x,1/2+z
x,1/2-y,-z
1/2-x,y,-z
y,x,1/2-z
1/2-y,1/2-x,1/2-z
-x,-y,-z
1/2+y,-x,1/2-z
1/2+x,1/2+y,-z
-y,1/2+x,1/2-z
-x,1/2+y,z
1/2+x,-y,z
-y,-x,1/2+z
1/2+y,1/2+x,1/2+z
loop_
_atom_site_type_symbol
_atom_site_label
_atom_site_fract_x
_atom_site_fract_y
_atom_site_fract_z
Si Si1 0.481199 0.032456 0.445557
Si Si2 0.250000 0.250000 0.133539
Si Si3 0.565883 0.111161 0.632073
Si Si4 0.190405 0.618136 0.086025
Si Si5 0.250000 0.750000 0.000000
Si Si6 0.774846 0.459946 0.365112
Si Si7 0.909795 0.727273 0.944663
Si Si8 0.883403 0.879483 0.691797
O O1 0.533229 0.124923 0.428882
O O2 0.373435 0.050110 0.446897
O O3 0.500000 0.000000 0.500000
O O4 0.492050 0.950918 0.406399
O O5 0.169211 0.276420 0.096066
O O6 0.208326 0.167896 0.166556
O O7 0.589446 0.208464 0.605459
O O8 0.665160 0.061259 0.644139
O O9 0.491563 0.120806 0.675838
O O10 0.137606 0.674146 0.128738
O O11 0.196974 0.683083 0.037809
O O12 0.786809 0.509207 0.418930
O O13 0.826443 0.530048 0.328159
O O14 0.880711 0.750000 0.000000
O O15 0.875316 0.875316 0.750000
#
# Coordination Sequence:
#
# PCOD9567777 Si02
#       8
#    16   8  16  16   4  16  16  16
#     4  11  23  36  58  92 132 177 220 264 319 395
#     4  10  22  42  64  90 130 170 216 280 326 398
#     4  11  23  43  66  97 131 176 223 277 334 403
#     4  12  22  40  63  92 139 178 224 266 327 396
#     4  12  24  36  64 100 124 194 220 244 324 408
#     4  10  22  42  65  92 137 171 219 286 335 395
#     4  10  21  36  58  91 132 175 215 262 330 394
#     4  11  24  47  72  97 128 174 231 286 351 402
#
# _framework density 18.989346000000001
#
# number of rings (size 3 to 8) (size 9 to 14) (size 15 to 20)
#    0.000    1.185    2.963    3.111    5.185    0.000 
#    8.000    0.000    0.000    0.000    0.000    0.000 
#    0.000    0.000    0.000    0.000    0.000    0.000 
#
# Total GULP energy -602219.964919 kJ/mol
# GULP energy per Si atom -5576.110786 kJ/mol
# Density = 1.894613 g / cm^3
# Si number density = 18.989346 Si / 1000 Ang^3
#
#
#
# Elastic Constant Matrix: (Units=GPa)
#
#
# Indices 1 2 3 4 5 6 
#
# 1 76.5083 13.5989 37.6326 0.0000 0.0000 0.0000
# 2 13.5989 76.5083 37.6326 0.0000 0.0000 0.0000
# 3 37.6326 37.6326 134.0895 0.0000 0.0000 0.0000
# 4 0.0000 0.0000 0.0000 23.0845 0.0000 0.0000
# 5 0.0000 0.0000 0.0000 0.0000 23.0845 0.0000
# 6 0.0000 0.0000 0.0000 0.0000 0.0000 24.8695
#
#
#
# Elastic Compliance Matrix: (Units=1/GPa)
#
#
# Indices 1 2 3 4 5 6 
#
# 1 0.015196 -0.000700 -0.004068 0.000000 0.000000 0.000000
# 2 -0.000700 0.015196 -0.004068 0.000000 0.000000 0.000000
# 3 -0.004068 -0.004068 0.009741 0.000000 0.000000 0.000000
# 4 0.000000 0.000000 0.000000 0.043319 0.000000 0.000000
# 5 0.000000 0.000000 0.000000 0.000000 0.043319 0.000000
# 6 0.000000 0.000000 0.000000 0.000000 0.000000 0.040210
#
#
# Mechanical properties :
#
#
# Convention : Reuss Voigt Hill
#
# Bulk Modulus (GPa) = 44.52345 51.64823 48.08584
# Shear Modulus (GPa) = 26.02248 27.42381 26.72314
#
# Velocity S-wave (km/s) = 3.70587 3.80434 3.75543
# Velocity P-wave (km/s) = 6.46597 6.82312 6.64694
#
# Compressibility (1/GPa) = 0.02246007
#
# Stress axis : x y z
#
# Youngs Moduli (GPa) = 65.80672 65.80672 102.65560
#
# Poissons Ratio (x) = 0.04606 0.41764
# Poissons Ratio (y) = 0.04606 0.41764
# Poissons Ratio (z) = 0.26773 0.26773
#
# Static dielectric constant tensor:
#      x y z
#    x 1.664960 0.000000 0.000000 
#    y 0.000000 1.664960 0.000000 
#    z 0.000000 0.000000 1.786830 
# 
# From -- ./inp_files/7292.got.cif
#   From: 2010.05.17/outbox.cif.g08.bks.cpg/sg133_4_cif.got.tgz:7292.got - 2010.05.20 12:37:36.
