data_PCOD9567095
_publ_section_title
;
Structure prediction by ZEFSAII (Michael W. Deem and Ramdas Pophale) SiO2 
 PCOD9567095
Probable space group: P 42/M C M
;
_chemical_formula_sum "Si O2"
_cell_formula_units_Z 104
_cell_length_a 21.229674
_cell_length_b 21.229674
_cell_length_c 15.682280
_cell_angle_alpha 90.000000
_cell_angle_beta 90.000000
_cell_angle_gamma 90.000000
_cell_volume 7067.988826
_symmetry_space_group_name_H-M "P 42/M C M"
_symmetry_group_IT_number 132
_symmetry_cell_setting 'tetragonal'
loop_
_space_group_symop_operation_xyz
x,y,z
-y,x,1/2+z
-x,-y,z
y,-x,1/2+z
x,-y,1/2-z
-x,y,1/2-z
y,x,-z
-y,-x,-z
-x,-y,-z
y,-x,1/2-z
x,y,-z
-y,x,1/2-z
-x,y,1/2+z
x,-y,1/2+z
-y,-x,z
y,x,z
loop_
_atom_site_type_symbol
_atom_site_label
_atom_site_fract_x
_atom_site_fract_y
_atom_site_fract_z
Si Si1 0.723709 0.000000 0.250000
Si Si2 0.864735 0.232637 0.250000
Si Si3 0.428043 0.135821 0.147250
Si Si4 0.375437 0.000000 0.902808
Si Si5 0.864179 0.571957 0.352750
Si Si6 0.304836 0.204491 0.598011
Si Si7 0.304836 0.204491 0.098011
O O1 0.764528 0.938274 0.250000
O O2 0.679125 1.000000 0.332711
O O3 0.836063 0.163938 0.250000
O O4 0.837833 0.268689 0.167152
O O5 0.837833 0.268689 0.332848
O O6 0.500000 0.151849 0.125823
O O7 0.421782 0.132524 0.250000
O O8 0.377803 0.187233 0.114080
O O9 0.412838 0.065501 0.112539
O O10 0.412839 0.934499 0.887461
O O11 0.352589 0.000000 0.000000
O O12 0.812768 0.622198 0.385920
O O13 0.291073 0.187040 0.500000
O O14 0.274894 0.274894 0.609984
O O15 0.274895 0.274895 0.109984
O O16 0.291074 0.187041 0.000000
#
# Coordination Sequence:
#
# PCOD9567095 Si02
#       7
#     8  16  16  16  16  16  16
#     4  12  20  34  49  73  96 120 158 204 228 290
#     4  10  20  34  50  69  94 122 152 197 246 280
#     4  11  21  33  47  67  98 133 163 192 230 280
#     4  12  21  31  47  68  95 131 160 189 230 275
#     4  11  21  33  47  67  98 133 163 192 230 280
#     4  10  19  32  50  69  90 122 162 200 238 279
#     4  10  19  32  50  69  90 122 162 200 238 279
#
# _framework density 14.714228
#
# number of rings (size 3 to 8) (size 9 to 14) (size 15 to 20)
#    0.000    1.231    6.154    1.385    0.000    4.308 
#    0.000    0.000    0.000    0.231    0.000    0.000 
#    0.000    0.615    0.000   15.846    0.000    4.923 
#
# Total GULP energy -579585.341302 kJ/mol
# GULP energy per Si atom -5572.935974 kJ/mol
# Density = 1.468074 g / cm^3
# Si number density = 14.714228 Si / 1000 Ang^3
#
#
#
# Elastic Constant Matrix: (Units=GPa)
#
#
# Indices 1 2 3 4 5 6 
#
# 1 108.3113 73.4002 35.4699 0.0000 0.0000 0.0000
# 2 73.4002 108.3113 35.4699 0.0000 0.0000 0.0000
# 3 35.4699 35.4699 108.1535 0.0000 0.0000 0.0000
# 4 0.0000 0.0000 0.0000 6.5345 0.0000 0.0000
# 5 0.0000 0.0000 0.0000 0.0000 6.5345 0.0000
# 6 0.0000 0.0000 0.0000 0.0000 0.0000 7.0216
#
#
#
# Elastic Compliance Matrix: (Units=1/GPa)
#
#
# Indices 1 2 3 4 5 6 
#
# 1 0.017478 -0.011166 -0.002070 0.000000 0.000000 0.000000
# 2 -0.011166 0.017478 -0.002070 0.000000 0.000000 0.000000
# 3 -0.002070 -0.002070 0.010604 0.000000 0.000000 0.000000
# 4 0.000000 0.000000 0.000000 0.153033 0.000000 0.000000
# 5 0.000000 0.000000 0.000000 0.000000 0.153033 0.000000
# 6 0.000000 0.000000 0.000000 0.000000 0.000000 0.142419
#
#
# Mechanical properties :
#
#
# Convention : Reuss Voigt Hill
#
# Bulk Modulus (GPa) = 66.90321 68.16181 67.53251
# Shear Modulus (GPa) = 9.44040 16.04720 12.74380
#
# Velocity S-wave (km/s) = 2.53570 3.30599 2.94613
# Velocity P-wave (km/s) = 7.35800 7.81006 7.58740
#
# Compressibility (1/GPa) = 0.01494697
#
# Stress axis : x y z
#
# Youngs Moduli (GPa) = 57.21568 57.21568 94.30612
#
# Poissons Ratio (x) = 0.63890 0.19520
# Poissons Ratio (y) = 0.63890 0.19520
# Poissons Ratio (z) = 0.11843 0.11843
#
# Static dielectric constant tensor:
#      x y z
#    x 1.487430 0.000000 0.000000 
#    y 0.000000 1.487430 0.000000 
#    z 0.000000 0.000000 1.515550 
# 
# From -- ./inp_files/5080.got.cif
#   From: 2010.05.17/outbox.cif.g08.bks.cpg/sg132_3_cif.got.tgz:5080.got - 2010.05.20 12:30:18.
