data_PCOD9567853
_publ_section_title
;
Structure prediction by ZEFSAII (Michael W. Deem and Ramdas Pophale) SiO2 
 PCOD9567853
Probable space group: P 42/N B C
;
_chemical_formula_sum "Si O2"
_cell_formula_units_Z 80
_cell_length_a 12.198350
_cell_length_b 12.198350
_cell_length_c 26.348153
_cell_angle_alpha 90.000000
_cell_angle_beta 90.000000
_cell_angle_gamma 90.000000
_cell_volume 3920.598388
_symmetry_space_group_name_H-M "P 42/N B C"
_symmetry_group_IT_number 133
_space_group.IT_coordinate_system_code '2'
_symmetry_cell_setting 'tetragonal'
loop_
_space_group_symop_operation_xyz
x,y,z
1/2-y,x,1/2+z
1/2-x,1/2-y,z
y,1/2-x,1/2+z
x,1/2-y,-z
1/2-x,y,-z
y,x,1/2-z
1/2-y,1/2-x,1/2-z
-x,-y,-z
1/2+y,-x,1/2-z
1/2+x,1/2+y,-z
-y,1/2+x,1/2-z
-x,1/2+y,z
1/2+x,-y,z
-y,-x,1/2+z
1/2+y,1/2+x,1/2+z
loop_
_atom_site_type_symbol
_atom_site_label
_atom_site_fract_x
_atom_site_fract_y
_atom_site_fract_z
Si Si1 0.250000 0.750000 0.375034
Si Si2 0.431004 0.808694 0.550933
Si Si3 0.250000 0.250000 0.673125
Si Si4 0.190695 0.890645 0.280830
Si Si5 0.876795 0.876795 0.750000
Si Si6 0.967141 0.250000 0.000000
Si Si7 0.675265 0.853443 0.578526
O O1 0.355201 0.762976 0.411443
O O2 0.223849 0.850042 0.336852
O O3 0.470504 0.750000 0.500000
O O4 0.345422 0.897641 0.527957
O O5 0.543937 0.840228 0.577999
O O6 0.351410 0.214660 0.707615
O O7 0.283757 0.350622 0.636677
O O8 0.298475 0.885820 0.245118
O O9 0.136676 0.007421 0.276500
O O10 0.043472 0.201243 0.956031
O O11 0.750000 0.750000 0.558760
#
# Coordination Sequence:
#
# PCOD9567853 Si02
#       7
#     8  16   8  16   8   8  16
#     4  10  22  42  64 102 130 174 236 272 352 410
#     4  12  23  42  67  96 140 175 228 291 323 414
#     4   9  26  41  64  96 128 171 226 273 338 428
#     4   9  23  42  66  95 130 168 219 285 337 406
#     4  11  22  46  66  95 132 168 224 283 350 404
#     4  12  22  42  62 106 132 184 230 272 352 406
#     4  10  25  43  64  93 136 181 219 281 348 409
#
# _framework density 20.405048000000001
#
# number of rings (size 3 to 8) (size 9 to 14) (size 15 to 20)
#    0.600    1.200    2.000    2.100    8.400    1.600 
#    0.000    0.000    0.000    0.000    0.000    0.000 
#    0.000    0.000    0.000    0.000    0.000    0.000 
#
# Total GULP energy -445737.338442 kJ/mol
# GULP energy per Si atom -5571.716731 kJ/mol
# Density = 2.035860 g / cm^3
# Si number density = 20.405048 Si / 1000 Ang^3
#
#
#
# Elastic Constant Matrix: (Units=GPa)
#
#
# Indices 1 2 3 4 5 6 
#
# 1 81.6924 15.0637 10.8477 0.0000 0.0000 0.0000
# 2 15.0637 81.6924 10.8477 0.0000 0.0000 0.0000
# 3 10.8477 10.8477 103.4519 0.0000 0.0000 0.0000
# 4 0.0000 0.0000 0.0000 22.0913 0.0000 0.0000
# 5 0.0000 0.0000 0.0000 0.0000 22.0913 0.0000
# 6 0.0000 0.0000 0.0000 0.0000 0.0000 -1.7202
#
#
#
# Elastic Compliance Matrix: (Units=1/GPa)
#
#
# Indices 1 2 3 4 5 6 
#
# 1 0.012796 -0.002212 -0.001110 0.000000 0.000000 0.000000
# 2 -0.002212 0.012796 -0.001110 0.000000 0.000000 0.000000
# 3 -0.001110 -0.001110 0.009899 0.000000 0.000000 0.000000
# 4 0.000000 0.000000 0.000000 0.045267 0.000000 0.000000
# 5 0.000000 0.000000 0.000000 0.000000 0.045267 0.000000
# 6 0.000000 0.000000 0.000000 0.000000 0.000000 -0.581332
#
#
# Mechanical properties :
#
#
# Convention : Reuss Voigt Hill
#
# Bulk Modulus (GPa) = 37.55443 37.81722 37.68582
# Shear Modulus (GPa) = -11.42682 23.83097 6.20208
#
# Velocity S-wave (km/s) = -2.36900 3.42116 1.74530
# Velocity P-wave (km/s) = 3.31083 5.84630 4.75083
#
# Compressibility (1/GPa) = 0.02662802
#
# Stress axis : x y z
#
# Youngs Moduli (GPa) = 78.14733 78.14733 101.01952
#
# Poissons Ratio (x) = 0.17288 0.11211
# Poissons Ratio (y) = 0.17288 0.11211
# Poissons Ratio (z) = 0.08673 0.08673
#
# Static dielectric constant tensor:
#      x y z
#    x 1.747100 0.000000 0.000000 
#    y 0.000000 1.747100 0.000000 
#    z 0.000000 0.000000 1.732040 
# 
# From -- ./inp_files/7938.got.cif
#   From: 2010.05.17/outbox.cif.g08.bks.cpg/sg133_4_cif.got.tgz:7938.got - 2010.05.20 12:37:36.
