data_PCOD9567958
_publ_section_title
;
Structure prediction by ZEFSAII (Michael W. Deem and Ramdas Pophale) SiO2 
 PCOD9567958
Probable space group: P 42/N B C
;
_chemical_formula_sum "Si O2"
_cell_formula_units_Z 48
_cell_length_a 19.349046
_cell_length_b 19.349046
_cell_length_c 7.437993
_cell_angle_alpha 90.000000
_cell_angle_beta 90.000000
_cell_angle_gamma 90.000000
_cell_volume 2784.677332
_symmetry_space_group_name_H-M "P 42/N B C"
_symmetry_group_IT_number 133
_space_group.IT_coordinate_system_code '2'
_symmetry_cell_setting 'tetragonal'
loop_
_space_group_symop_operation_xyz
x,y,z
1/2-y,x,1/2+z
1/2-x,1/2-y,z
y,1/2-x,1/2+z
x,1/2-y,-z
1/2-x,y,-z
y,x,1/2-z
1/2-y,1/2-x,1/2-z
-x,-y,-z
1/2+y,-x,1/2-z
1/2+x,1/2+y,-z
-y,1/2+x,1/2-z
-x,1/2+y,z
1/2+x,-y,z
-y,-x,1/2+z
1/2+y,1/2+x,1/2+z
loop_
_atom_site_type_symbol
_atom_site_label
_atom_site_fract_x
_atom_site_fract_y
_atom_site_fract_z
Si Si1 0.638128 0.235780 0.293674
Si Si2 0.471780 0.750000 0.000000
Si Si3 0.024742 0.475258 0.250000
Si Si4 0.531126 0.893050 0.111944
O O1 0.618799 0.250000 0.500000
O O2 0.676085 0.304298 0.216575
O O3 0.575597 0.220684 0.161018
O O4 0.512955 0.814247 0.081975
O O5 0.070110 0.456575 0.420952
O O6 0.028953 0.557390 0.199471
O O7 0.593503 0.906498 0.250000
#
# Coordination Sequence:
#
# PCOD9567958 Si02
#       4
#    16   8   8  16
#     4  11  21  34  46  71 119 159 191 229 272 337
#     4  12  24  31  60  86 105 158 200 234 294 354
#     4   8  18  38  60  70 117 153 180 240 290 328
#     4   9  20  36  55  80 110 146 194 238 282 339
#
# _framework density 17.237186999999999
#
# number of rings (size 3 to 8) (size 9 to 14) (size 15 to 20)
#    1.000    1.000    3.333    1.000    4.667    2.667 
#    0.000    0.000    0.000    0.000    0.000    3.500 
#    0.000    0.000    0.000    0.000    0.000    0.000 
#
# Total GULP energy -267360.629863 kJ/mol
# GULP energy per Si atom -5570.013122 kJ/mol
# Density = 1.719795 g / cm^3
# Si number density = 17.237187 Si / 1000 Ang^3
#
#
#
# Elastic Constant Matrix: (Units=GPa)
#
#
# Indices 1 2 3 4 5 6 
#
# 1 69.3906 40.2436 23.6565 0.0000 0.0000 0.0000
# 2 40.2436 69.3922 23.6585 0.0000 0.0000 0.0000
# 3 23.6565 23.6585 123.1121 0.0000 0.0000 0.0000
# 4 0.0000 0.0000 0.0000 10.4752 0.0000 0.0000
# 5 0.0000 0.0000 0.0000 0.0000 10.4747 0.0000
# 6 0.0000 0.0000 0.0000 0.0000 0.0000 5.0073
#
#
#
# Elastic Compliance Matrix: (Units=1/GPa)
#
#
# Indices 1 2 3 4 5 6 
#
# 1 0.022127 -0.012181 -0.001911 0.000000 0.000000 0.000000
# 2 -0.012181 0.022127 -0.001911 0.000000 0.000000 0.000000
# 3 -0.001911 -0.001911 0.008857 0.000000 0.000000 0.000000
# 4 0.000000 0.000000 0.000000 0.095463 0.000000 0.000000
# 5 0.000000 0.000000 0.000000 0.000000 0.095468 0.000000
# 6 0.000000 0.000000 0.000000 0.000000 0.000000 0.199709
#
#
# Mechanical properties :
#
#
# Convention : Reuss Voigt Hill
#
# Bulk Modulus (GPa) = 47.38384 48.55690 47.97037
# Shear Modulus (GPa) = 10.35641 16.81387 13.58514
#
# Velocity S-wave (km/s) = 2.45382 3.12659 2.81041
# Velocity P-wave (km/s) = 5.96467 6.42379 6.19848
#
# Compressibility (1/GPa) = 0.02110424
#
# Stress axis : x y z
#
# Youngs Moduli (GPa) = 45.19340 45.19397 112.90228
#
# Poissons Ratio (x) = 0.55051 0.21576
# Poissons Ratio (y) = 0.55050 0.21581
# Poissons Ratio (z) = 0.08636 0.08639
#
# Static dielectric constant tensor:
#      x y z
#    x 1.613740 0.000000 0.000000 
#    y 0.000000 1.613730 0.000000 
#    z 0.000000 0.000000 1.603600 
# 
# From -- ./inp_files/1114.got.cif
#   From: 2010.05.17/outbox.cif.g08.bks.cpg/sg133_1_cif.got.tgz:1114.got - 2010.05.20 12:37:36.
