data_PCOD9567145
_publ_section_title
;
Structure prediction by ZEFSAII (Michael W. Deem and Ramdas Pophale) SiO2 
 PCOD9567145
Probable space group: P 42/M C M
;
_chemical_formula_sum "Si O2"
_cell_formula_units_Z 96
_cell_length_a 24.213526
_cell_length_b 24.213526
_cell_length_c 9.227340
_cell_angle_alpha 90.000000
_cell_angle_beta 90.000000
_cell_angle_gamma 90.000000
_cell_volume 5409.941841
_symmetry_space_group_name_H-M "P 42/M C M"
_symmetry_group_IT_number 132
_symmetry_cell_setting 'tetragonal'
loop_
_space_group_symop_operation_xyz
x,y,z
-y,x,1/2+z
-x,-y,z
y,-x,1/2+z
x,-y,1/2-z
-x,y,1/2-z
y,x,-z
-y,-x,-z
-x,-y,-z
y,-x,1/2-z
x,y,-z
-y,x,1/2-z
-x,y,1/2+z
x,-y,1/2+z
-y,-x,z
y,x,z
loop_
_atom_site_type_symbol
_atom_site_label
_atom_site_fract_x
_atom_site_fract_y
_atom_site_fract_z
Si Si1 0.827436 0.739373 0.326434
Si Si2 0.054520 0.417761 0.166170
Si Si3 0.651320 0.560625 0.674967
Si Si4 0.284162 0.942981 0.331097
Si Si5 0.453780 0.838551 0.162286
Si Si6 0.750706 0.640900 0.334548
O O1 0.834815 0.728783 0.500000
O O2 0.798949 0.798949 0.309479
O O3 0.886303 0.733979 0.247762
O O4 0.780971 0.695118 0.271324
O O5 0.057677 0.351092 0.170876
O O6 0.107039 0.440747 0.248658
O O7 0.000000 0.434800 0.250000
O O8 0.052595 0.435097 0.000000
O O9 0.653681 0.500000 0.750000
O O10 0.658749 0.553506 0.500000
O O11 0.593419 0.593419 0.698628
O O12 0.699313 0.604647 0.724911
O O13 0.266940 0.943869 0.500000
O O14 0.267234 0.000000 0.250000
O O15 0.500000 0.805971 0.250000
O O16 0.400583 0.801490 0.158374
O O17 0.471749 0.850912 0.000000
O O18 0.734839 0.654637 0.500000
#
# Coordination Sequence:
#
# PCOD9567145 Si02
#       6
#    16  16  16  16  16  16
#     4  10  19  33  56  84 113 145 183 223 266 321
#     4  10  20  34  51  71  96 131 174 220 267 313
#     4  10  21  38  59  81 105 134 170 213 265 326
#     4  10  20  34  54  78 109 146 185 227 270 319
#     4  11  21  33  50  71  98 131 172 220 266 318
#     4   9  18  34  55  78 104 138 174 212 260 319
#
# _framework density 17.745107999999998
#
# number of rings (size 3 to 8) (size 9 to 14) (size 15 to 20)
#    0.000    2.000    1.667    2.500    0.000    4.500 
#    0.000    4.167    0.000    2.000    0.000    0.000 
#    0.000    0.333    0.000    3.500    0.000    1.500 
#
# Total GULP energy -534943.129829 kJ/mol
# GULP energy per Si atom -5572.324269 kJ/mol
# Density = 1.770472 g / cm^3
# Si number density = 17.745108 Si / 1000 Ang^3
#
#
#
# Elastic Constant Matrix: (Units=GPa)
#
#
# Indices 1 2 3 4 5 6 
#
# 1 96.3187 72.8490 50.5928 0.0000 0.0000 0.0000
# 2 72.8490 96.3187 50.5928 0.0000 0.0000 0.0000
# 3 50.5928 50.5928 104.7138 0.0000 0.0000 0.0000
# 4 0.0000 0.0000 0.0000 19.0639 0.0000 0.0000
# 5 0.0000 0.0000 0.0000 0.0000 19.0639 0.0000
# 6 0.0000 0.0000 0.0000 0.0000 0.0000 23.0328
#
#
#
# Elastic Compliance Matrix: (Units=1/GPa)
#
#
# Indices 1 2 3 4 5 6 
#
# 1 0.025461 -0.017147 -0.004017 0.000000 0.000000 0.000000
# 2 -0.017147 0.025461 -0.004017 0.000000 0.000000 0.000000
# 3 -0.004017 -0.004017 0.013431 0.000000 0.000000 0.000000
# 4 0.000000 0.000000 0.000000 0.052455 0.000000 0.000000
# 5 0.000000 0.000000 0.000000 0.000000 0.052455 0.000000
# 6 0.000000 0.000000 0.000000 0.000000 0.000000 0.043416
#
#
# Mechanical properties :
#
#
# Convention : Reuss Voigt Hill
#
# Bulk Modulus (GPa) = 71.47112 71.71340 71.59226
# Shear Modulus (GPa) = 18.67721 20.45322 19.56522
#
# Velocity S-wave (km/s) = 3.24779 3.39870 3.32410
# Velocity P-wave (km/s) = 7.37754 7.47678 7.42733
#
# Compressibility (1/GPa) = 0.01399166
#
# Stress axis : x y z
#
# Youngs Moduli (GPa) = 39.27575 39.27575 74.45229
#
# Poissons Ratio (x) = 0.67346 0.29907
# Poissons Ratio (y) = 0.67346 0.29907
# Poissons Ratio (z) = 0.15777 0.15777
#
# Static dielectric constant tensor:
#      x y z
#    x 1.624490 0.000000 0.000000 
#    y 0.000000 1.624490 0.000000 
#    z 0.000000 0.000000 1.594790 
# 
# From -- ./inp_files/1706.got.cif
#   From: 2010.05.17/outbox.cif.g08.bks.cpg/sg132_1_cif.got.tgz:1706.got - 2010.05.20 12:30:18.
