data_PCOD9567819
_publ_section_title
;
Structure prediction by ZEFSAII (Michael W. Deem and Ramdas Pophale) SiO2 
 PCOD9567819
Probable space group: P 42/N B C
;
_chemical_formula_sum "Si O2"
_cell_formula_units_Z 108
_cell_length_a 14.859090
_cell_length_b 14.859090
_cell_length_c 22.985368
_cell_angle_alpha 90.000000
_cell_angle_beta 90.000000
_cell_angle_gamma 90.000000
_cell_volume 5074.998143
_symmetry_space_group_name_H-M "P 42/N B C"
_symmetry_group_IT_number 133
_space_group.IT_coordinate_system_code '2'
_symmetry_cell_setting 'tetragonal'
loop_
_space_group_symop_operation_xyz
x,y,z
1/2-y,x,1/2+z
1/2-x,1/2-y,z
y,1/2-x,1/2+z
x,1/2-y,-z
1/2-x,y,-z
y,x,1/2-z
1/2-y,1/2-x,1/2-z
-x,-y,-z
1/2+y,-x,1/2-z
1/2+x,1/2+y,-z
-y,1/2+x,1/2-z
-x,1/2+y,z
1/2+x,-y,z
-y,-x,1/2+z
1/2+y,1/2+x,1/2+z
loop_
_atom_site_type_symbol
_atom_site_label
_atom_site_fract_x
_atom_site_fract_y
_atom_site_fract_z
Si Si1 0.800717 0.055769 0.820518
Si Si2 0.372657 0.315436 0.382044
Si Si3 0.323056 0.385173 0.629733
Si Si4 0.750000 0.250000 0.000000
Si Si5 0.750000 0.947937 0.000000
Si Si6 0.847534 0.143339 0.605467
Si Si7 0.008844 0.071144 0.551122
Si Si8 0.053860 0.707326 0.802867
O O1 0.728056 0.103545 0.863049
O O2 0.751361 0.040296 0.759643
O O3 0.877898 0.125144 0.804316
O O4 0.840684 0.966321 0.851315
O O5 0.352141 0.216224 0.355830
O O6 0.284211 0.376478 0.381124
O O7 0.389645 0.293759 0.449492
O O8 0.391942 0.421381 0.579845
O O9 0.330549 0.457684 0.679172
O O10 0.816964 0.198959 0.046429
O O11 0.670215 0.005905 0.975029
O O12 0.775934 0.097504 0.649500
O O13 0.924665 0.067657 0.594398
O O14 0.000000 0.000000 0.500000
#
# Coordination Sequence:
#
# PCOD9567819 Si02
#       8
#    16  16  16   4   8  16  16  16
#     4  12  24  48  74 100 143 195 233 305 363 445
#     4  10  24  48  73  96 143 189 246 292 376 432
#     4  10  25  46  68 106 134 188 244 303 350 440
#     4  12  26  40  72 100 150 178 230 290 362 440
#     4  10  21  43  69  97 142 188 227 289 365 427
#     4  12  25  44  67 109 140 188 234 290 368 440
#     4  11  26  43  71 105 148 188 235 295 364 440
#     4  12  27  44  73 103 143 184 247 297 364 430
#
# _framework density 21.280795999999999
#
# number of rings (size 3 to 8) (size 9 to 14) (size 15 to 20)
#    0.000    0.889    5.926    0.444    6.222    5.926 
#    0.000    2.963    0.000    0.000    0.000    0.000 
#    0.000    0.000    0.000    0.000    0.000    0.000 
#
# Total GULP energy -602637.148541 kJ/mol
# GULP energy per Si atom -5579.973598 kJ/mol
# Density = 2.123236 g / cm^3
# Si number density = 21.280796 Si / 1000 Ang^3
#
#
#
# Elastic Constant Matrix: (Units=GPa)
#
#
# Indices 1 2 3 4 5 6 
#
# 1 45.2661 12.4446 32.1953 0.0000 0.0000 0.0000
# 2 12.4446 45.2661 32.1953 0.0000 0.0000 0.0000
# 3 32.1953 32.1953 118.2520 0.0000 0.0000 0.0000
# 4 0.0000 0.0000 0.0000 -35.4879 0.0000 0.0000
# 5 0.0000 0.0000 0.0000 0.0000 -35.4879 0.0000
# 6 0.0000 0.0000 0.0000 0.0000 0.0000 -0.7482
#
#
#
# Elastic Compliance Matrix: (Units=1/GPa)
#
#
# Indices 1 2 3 4 5 6 
#
# 1 0.027678 -0.002790 -0.006776 0.000000 0.000000 0.000000
# 2 -0.002790 0.027678 -0.006776 0.000000 0.000000 0.000000
# 3 -0.006776 -0.006776 0.012146 0.000000 0.000000 0.000000
# 4 0.000000 0.000000 0.000000 -0.028179 0.000000 0.000000
# 5 0.000000 0.000000 0.000000 0.000000 -0.028179 0.000000
# 6 0.000000 0.000000 0.000000 0.000000 0.000000 -1.336595
#
#
# Mechanical properties :
#
#
# Convention : Reuss Voigt Hill
#
# Bulk Modulus (GPa) = 28.72044 40.27270 34.49657
# Shear Modulus (GPa) = -3.90271 -5.54820 -4.72546
#
# Velocity S-wave (km/s) = -1.35569 -1.61642 -1.49176
# Velocity P-wave (km/s) = 3.32787 3.93469 3.64393
#
# Compressibility (1/GPa) = 0.03481840
#
# Stress axis : x y z
#
# Youngs Moduli (GPa) = 36.12974 36.12974 82.33012
#
# Poissons Ratio (x) = 0.10079 0.55787
# Poissons Ratio (y) = 0.10079 0.55787
# Poissons Ratio (z) = 0.24482 0.24482
#
# Static dielectric constant tensor:
#      x y z
#    x 2.454770 0.000000 0.000000 
#    y 0.000000 2.454770 0.000000 
#    z 0.000000 0.000000 1.946940 
# 
# From -- ./inp_files/7307.got.cif
#   From: 2010.05.17/outbox.cif.g08.bks.cpg/sg133_4_cif.got.tgz:7307.got - 2010.05.20 12:37:36.
