data_PCOD9567697
_publ_section_title
;
Structure prediction by ZEFSAII (Michael W. Deem and Ramdas Pophale) SiO2 
 PCOD9567697
Probable space group: P 42/N B C
;
_chemical_formula_sum "Si O2"
_cell_formula_units_Z 128
_cell_length_a 17.739789
_cell_length_b 17.739789
_cell_length_c 20.238155
_cell_angle_alpha 90.000000
_cell_angle_beta 90.000000
_cell_angle_gamma 90.000000
_cell_volume 6368.949681
_symmetry_space_group_name_H-M "P 42/N B C"
_symmetry_group_IT_number 133
_space_group.IT_coordinate_system_code '2'
_symmetry_cell_setting 'tetragonal'
loop_
_space_group_symop_operation_xyz
x,y,z
1/2-y,x,1/2+z
1/2-x,1/2-y,z
y,1/2-x,1/2+z
x,1/2-y,-z
1/2-x,y,-z
y,x,1/2-z
1/2-y,1/2-x,1/2-z
-x,-y,-z
1/2+y,-x,1/2-z
1/2+x,1/2+y,-z
-y,1/2+x,1/2-z
-x,1/2+y,z
1/2+x,-y,z
-y,-x,1/2+z
1/2+y,1/2+x,1/2+z
loop_
_atom_site_type_symbol
_atom_site_label
_atom_site_fract_x
_atom_site_fract_y
_atom_site_fract_z
Si Si1 0.396791 0.938662 0.865616
Si Si2 0.967406 0.559823 0.052324
Si Si3 0.282740 0.421759 0.614271
Si Si4 0.325415 0.398406 0.968148
Si Si5 0.869079 0.993940 0.264050
Si Si6 0.675362 0.440455 0.480062
Si Si7 0.692238 0.820724 0.173288
Si Si8 0.761867 0.983593 0.141655
O O1 0.432002 0.897964 0.801962
O O2 0.403485 0.883191 0.928924
O O3 0.449675 0.011928 0.882172
O O4 0.311203 0.964266 0.857741
O O5 0.886837 0.584007 0.023182
O O6 0.000000 0.500000 0.000000
O O7 0.025346 0.628795 0.042322
O O8 0.340411 0.362337 0.582454
O O9 0.315699 0.450202 0.683734
O O10 0.289284 0.490160 0.562905
O O11 0.204672 0.379678 0.629727
O O12 0.302950 0.474216 0.928800
O O13 0.250000 0.365871 0.000000
O O14 0.939193 0.939193 0.250000
O O15 0.821618 0.005363 0.197645
O O16 0.750000 0.394698 0.500000
O O17 0.750000 0.750000 0.169391
O O18 0.670809 0.829192 0.250000
O O19 0.730630 0.898686 0.153653
#
# Coordination Sequence:
#
# PCOD9567697 Si02
#       8
#    16  16  16  16  16  16  16  16
#     4  10  23  40  61  94 124 161 221 271 312 388
#     4   9  19  36  57  88 126 156 202 252 307 379
#     4  10  20  35  55  86 129 171 207 250 305 387
#     4  11  20  34  58  89 125 167 200 240 308 375
#     4  11  21  41  64  87 123 169 214 257 327 370
#     4   9  20  37  61  87 129 174 208 261 324 379
#     4  11  20  32  52  86 129 172 206 244 304 382
#     4  12  23  37  64  91 130 169 209 268 316 388
#
# _framework density 20.097505999999999
#
# number of rings (size 3 to 8) (size 9 to 14) (size 15 to 20)
#    0.000    1.625    5.000    0.750    1.750    0.500 
#    0.000    0.625    0.000    0.375    3.250    0.000 
#    0.000    0.000    0.000    0.000    0.000    0.000 
#
# Total GULP energy -714677.795089 kJ/mol
# GULP energy per Si atom -5583.420274 kJ/mol
# Density = 2.005176 g / cm^3
# Si number density = 20.097506 Si / 1000 Ang^3
#
#
#
# Elastic Constant Matrix: (Units=GPa)
#
#
# Indices 1 2 3 4 5 6 
#
# 1 80.9002 36.3766 23.5229 0.0000 0.0000 0.0000
# 2 36.3766 80.9001 23.5229 0.0000 0.0000 0.0000
# 3 23.5229 23.5229 69.9511 0.0000 0.0000 0.0000
# 4 0.0000 0.0000 0.0000 16.0232 0.0000 0.0000
# 5 0.0000 0.0000 0.0000 0.0000 16.0232 0.0000
# 6 0.0000 0.0000 0.0000 0.0000 0.0000 28.6063
#
#
#
# Elastic Compliance Matrix: (Units=1/GPa)
#
#
# Indices 1 2 3 4 5 6 
#
# 1 0.016158 -0.006302 -0.003314 0.000000 0.000000 0.000000
# 2 -0.006302 0.016158 -0.003314 0.000000 0.000000 0.000000
# 3 -0.003314 -0.003314 0.016525 0.000000 0.000000 0.000000
# 4 0.000000 0.000000 0.000000 0.062410 0.000000 0.000000
# 5 0.000000 0.000000 0.000000 0.000000 0.062410 0.000000
# 6 0.000000 0.000000 0.000000 0.000000 0.000000 0.034957
#
#
# Mechanical properties :
#
#
# Convention : Reuss Voigt Hill
#
# Bulk Modulus (GPa) = 43.51648 44.28849 43.90248
# Shear Modulus (GPa) = 20.64926 22.01912 21.33419
#
# Velocity S-wave (km/s) = 3.20887 3.31360 3.26165
# Velocity P-wave (km/s) = 5.95221 6.06008 6.00639
#
# Compressibility (1/GPa) = 0.02297980
#
# Stress axis : x y z
#
# Youngs Moduli (GPa) = 61.88793 61.88789 60.51487
#
# Poissons Ratio (x) = 0.39000 0.20058
# Poissons Ratio (y) = 0.39001 0.20058
# Poissons Ratio (z) = 0.20513 0.20513
#
# Static dielectric constant tensor:
#      x y z
#    x 1.781220 0.000000 0.000000 
#    y 0.000000 1.781220 0.000000 
#    z 0.000000 0.000000 1.750990 
# 
# From -- ./inp_files/7404.got.cif
#   From: 2010.05.17/outbox.cif.g08.bks.cpg/sg133_4_cif.got.tgz:7404.got - 2010.05.20 12:37:36.
