data_PCOD9567610
_publ_section_title
;
Structure prediction by ZEFSAII (Michael W. Deem and Ramdas Pophale) SiO2 
 PCOD9567610
Probable space group: P 42/N B C
;
_chemical_formula_sum "Si O2"
_cell_formula_units_Z 56
_cell_length_a 13.867512
_cell_length_b 13.867512
_cell_length_c 14.676455
_cell_angle_alpha 90.000000
_cell_angle_beta 90.000000
_cell_angle_gamma 90.000000
_cell_volume 2822.398080
_symmetry_space_group_name_H-M "P 42/N B C"
_symmetry_group_IT_number 133
_space_group.IT_coordinate_system_code '2'
_symmetry_cell_setting 'tetragonal'
loop_
_space_group_symop_operation_xyz
x,y,z
1/2-y,x,1/2+z
1/2-x,1/2-y,z
y,1/2-x,1/2+z
x,1/2-y,-z
1/2-x,y,-z
y,x,1/2-z
1/2-y,1/2-x,1/2-z
-x,-y,-z
1/2+y,-x,1/2-z
1/2+x,1/2+y,-z
-y,1/2+x,1/2-z
-x,1/2+y,z
1/2+x,-y,z
-y,-x,1/2+z
1/2+y,1/2+x,1/2+z
loop_
_atom_site_type_symbol
_atom_site_label
_atom_site_fract_x
_atom_site_fract_y
_atom_site_fract_z
Si Si1 0.955961 0.420564 0.400690
Si Si2 0.581827 0.918174 0.250000
Si Si3 0.802883 0.531097 0.749493
Si Si4 0.511361 0.842678 0.953863
O O1 0.947705 0.516174 0.336610
O O2 0.875364 0.426355 0.478039
O O3 0.958273 0.335157 0.328336
O O4 0.061186 0.423967 0.447699
O O5 0.564252 0.805488 0.265179
O O6 0.878261 0.621740 0.750000
O O7 0.814721 0.486009 0.649104
O O8 0.560139 0.750000 0.000000
#
# Coordination Sequence:
#
# PCOD9567610 Si02
#       4
#    16   8  16  16
#     4  10  21  36  58  88 120 162 203 244 314 377
#     4  12  19  36  66  83 126 164 190 266 308 363
#     4  10  21  37  58  93 121 154 209 250 315 371
#     4  10  18  35  61  83 117 161 198 251 303 365
#
# _framework density 19.841283000000001
#
# number of rings (size 3 to 8) (size 9 to 14) (size 15 to 20)
#    0.000    1.714    7.143    0.429    0.000    0.000 
#    0.000   12.857    0.000    7.714    0.000    0.000 
#    0.000    0.000    0.000    0.000    0.000    0.000 
#
# Total GULP energy -312104.345277 kJ/mol
# GULP energy per Si atom -5573.291880 kJ/mol
# Density = 1.979612 g / cm^3
# Si number density = 19.841283 Si / 1000 Ang^3
#
#
#
# Elastic Constant Matrix: (Units=GPa)
#
#
# Indices 1 2 3 4 5 6 
#
# 1 46.1680 58.9393 50.6342 0.0000 0.0000 0.0000
# 2 58.9393 46.1634 50.6358 0.0000 0.0000 0.0000
# 3 50.6342 50.6358 148.6178 0.0000 0.0000 0.0000
# 4 0.0000 0.0000 0.0000 21.0398 0.0000 0.0000
# 5 0.0000 0.0000 0.0000 0.0000 21.0392 0.0000
# 6 0.0000 0.0000 0.0000 0.0000 0.0000 16.3901
#
#
#
# Elastic Compliance Matrix: (Units=1/GPa)
#
#
# Indices 1 2 3 4 5 6 
#
# 1 -0.032058 0.046225 -0.004827 0.000000 0.000000 0.000000
# 2 0.046225 -0.032064 -0.004824 0.000000 0.000000 0.000000
# 3 -0.004827 -0.004824 0.010017 0.000000 0.000000 0.000000
# 4 0.000000 0.000000 0.000000 0.047529 0.000000 0.000000
# 5 0.000000 0.000000 0.000000 0.000000 0.047530 0.000000
# 6 0.000000 0.000000 0.000000 0.000000 0.000000 0.061013
#
#
# Mechanical properties :
#
#
# Convention : Reuss Voigt Hill
#
# Bulk Modulus (GPa) = 52.51570 62.37421 57.44496
# Shear Modulus (GPa) = 142.17998 17.07646 79.62822
#
# Velocity S-wave (km/s) = 8.47433 2.93687 6.34190
# Velocity P-wave (km/s) = 11.05792 6.55783 9.09073
#
# Compressibility (1/GPa) = 0.01904192
#
# Stress axis : x y z
#
# Youngs Moduli (GPa) = -31.19341 -31.18733 99.83031
#
# Poissons Ratio (x) = 1.44164 0.48191
# Poissons Ratio (y) = 1.44192 0.48161
# Poissons Ratio (z) = -0.15058 -0.15046
#
# Static dielectric constant tensor:
#      x y z
#    x 1.702850 0.000000 0.000000 
#    y 0.000000 1.702860 0.000000 
#    z 0.000000 0.000000 1.756450 
# 
# From -- ./inp_files/3977.got.cif
#   From: 2010.05.17/outbox.cif.g08.bks.cpg/sg133_2_cif.got.tgz:3977.got - 2010.05.20 12:37:36.
