data_PCOD9567852
_publ_section_title
;
Structure prediction by ZEFSAII (Michael W. Deem and Ramdas Pophale) SiO2 
 PCOD9567852
Probable space group: P 42/N B C
;
_chemical_formula_sum "Si O2"
_cell_formula_units_Z 60
_cell_length_a 18.355126
_cell_length_b 18.355126
_cell_length_c 8.763196
_cell_angle_alpha 90.000000
_cell_angle_beta 90.000000
_cell_angle_gamma 90.000000
_cell_volume 2952.414065
_symmetry_space_group_name_H-M "P 42/N B C"
_symmetry_group_IT_number 133
_space_group.IT_coordinate_system_code '2'
_symmetry_cell_setting 'tetragonal'
loop_
_space_group_symop_operation_xyz
x,y,z
1/2-y,x,1/2+z
1/2-x,1/2-y,z
y,1/2-x,1/2+z
x,1/2-y,-z
1/2-x,y,-z
y,x,1/2-z
1/2-y,1/2-x,1/2-z
-x,-y,-z
1/2+y,-x,1/2-z
1/2+x,1/2+y,-z
-y,1/2+x,1/2-z
-x,1/2+y,z
1/2+x,-y,z
-y,-x,1/2+z
1/2+y,1/2+x,1/2+z
loop_
_atom_site_type_symbol
_atom_site_label
_atom_site_fract_x
_atom_site_fract_y
_atom_site_fract_z
Si Si1 0.099545 0.461757 0.511396
Si Si2 0.624480 0.750000 0.000000
Si Si3 0.750000 0.750000 0.750000
Si Si4 0.660522 0.209095 0.657975
Si Si5 0.594592 0.035071 0.156741
O O1 0.177071 0.423976 0.491777
O O2 0.077135 0.519379 0.381847
O O3 0.097987 0.506308 0.670806
O O4 0.033731 0.404736 0.541231
O O5 0.678318 0.748405 0.855017
O O6 0.672841 0.250000 0.500000
O O7 0.658879 0.271929 0.787586
O O8 0.589609 0.161013 0.638766
#
# Coordination Sequence:
#
# PCOD9567852 Si02
#       5
#    16   8   4  16  16
#     4  10  23  42  68  96 136 168 227 279 338 404
#     4  11  24  46  72  98 137 182 218 296 355 398
#     4  10  24  46  68 102 132 162 248 282 336 438
#     4  11  23  39  61  92 134 174 225 271 325 404
#     4  10  22  42  63  98 130 173 224 275 327 414
#
# _framework density 20.322351999999999
#
# number of rings (size 3 to 8) (size 9 to 14) (size 15 to 20)
#    0.000    1.600    0.000    4.800    3.733    4.267 
#    9.600    0.000    0.000    0.000    0.000    0.000 
#    0.000    0.000    0.000    0.000    0.000    0.000 
#
# Total GULP energy -335175.589997 kJ/mol
# GULP energy per Si atom -5586.259833 kJ/mol
# Density = 2.027610 g / cm^3
# Si number density = 20.322352 Si / 1000 Ang^3
#
#
#
# Elastic Constant Matrix: (Units=GPa)
#
#
# Indices 1 2 3 4 5 6 
#
# 1 151.6787 109.1706 62.2237 0.0000 0.0000 0.0000
# 2 109.1706 151.6787 62.2237 0.0000 0.0000 0.0000
# 3 62.2237 62.2237 118.8672 0.0000 0.0000 0.0000
# 4 0.0000 0.0000 0.0000 17.0960 0.0000 0.0000
# 5 0.0000 0.0000 0.0000 0.0000 17.0960 0.0000
# 6 0.0000 0.0000 0.0000 0.0000 0.0000 43.8806
#
#
#
# Elastic Compliance Matrix: (Units=1/GPa)
#
#
# Indices 1 2 3 4 5 6 
#
# 1 0.014317 -0.009208 -0.002675 0.000000 0.000000 0.000000
# 2 -0.009208 0.014317 -0.002675 0.000000 0.000000 0.000000
# 3 -0.002675 -0.002675 0.011213 0.000000 0.000000 0.000000
# 4 0.000000 0.000000 0.000000 0.058493 0.000000 0.000000
# 5 0.000000 0.000000 0.000000 0.000000 0.058493 0.000000
# 6 0.000000 0.000000 0.000000 0.000000 0.000000 0.022789
#
#
# Mechanical properties :
#
#
# Convention : Reuss Voigt Hill
#
# Bulk Modulus (GPa) = 93.16735 98.82897 95.99816
# Shear Modulus (GPa) = 23.54988 28.18830 25.86909
#
# Velocity S-wave (km/s) = 3.40783 3.72836 3.57170
# Velocity P-wave (km/s) = 7.83765 8.20186 8.02182
#
# Compressibility (1/GPa) = 0.01073337
#
# Stress axis : x y z
#
# Youngs Moduli (GPa) = 69.84543 69.84543 89.18118
#
# Poissons Ratio (x) = 0.64311 0.23854
# Poissons Ratio (y) = 0.64311 0.23854
# Poissons Ratio (z) = 0.18682 0.18682
#
# Static dielectric constant tensor:
#      x y z
#    x 1.731230 0.000000 0.000000 
#    y 0.000000 1.731230 0.000000 
#    z 0.000000 0.000000 1.754910 
# 
# From -- ./inp_files/1358.got.cif
#   From: 2010.05.17/outbox.cif.g08.bks.cpg/sg133_1_cif.got.tgz:1358.got - 2010.05.20 12:37:36.
