data_PCOD9567750
_publ_section_title
;
Structure prediction by ZEFSAII (Michael W. Deem and Ramdas Pophale) SiO2 
 PCOD9567750
Probable space group: P 42/N B C
;
_chemical_formula_sum "Si O2"
_cell_formula_units_Z 52
_cell_length_a 11.697826
_cell_length_b 11.697826
_cell_length_c 19.350123
_cell_angle_alpha 90.000000
_cell_angle_beta 90.000000
_cell_angle_gamma 90.000000
_cell_volume 2647.854057
_symmetry_space_group_name_H-M "P 42/N B C"
_symmetry_group_IT_number 133
_space_group.IT_coordinate_system_code '2'
_symmetry_cell_setting 'tetragonal'
loop_
_space_group_symop_operation_xyz
x,y,z
1/2-y,x,1/2+z
1/2-x,1/2-y,z
y,1/2-x,1/2+z
x,1/2-y,-z
1/2-x,y,-z
y,x,1/2-z
1/2-y,1/2-x,1/2-z
-x,-y,-z
1/2+y,-x,1/2-z
1/2+x,1/2+y,-z
-y,1/2+x,1/2-z
-x,1/2+y,z
1/2+x,-y,z
-y,-x,1/2+z
1/2+y,1/2+x,1/2+z
loop_
_atom_site_type_symbol
_atom_site_label
_atom_site_fract_x
_atom_site_fract_y
_atom_site_fract_z
Si Si1 0.750000 0.250000 0.750000
Si Si2 0.910589 0.261119 0.125287
Si Si3 0.776141 0.058585 0.076661
Si Si4 0.847168 0.846328 0.169459
O O1 0.857982 0.269884 0.799477
O O2 0.878737 0.152464 0.077923
O O3 0.833612 0.367853 0.100835
O O4 0.040392 0.295996 0.132938
O O5 0.805156 0.958240 0.129247
O O6 0.750000 0.015571 0.000000
O O7 0.750000 0.750000 0.167792
O O8 0.872694 0.872694 0.250000
#
# Coordination Sequence:
#
# PCOD9567750 Si02
#       4
#     4  16  16  16
#     4   8  16  36  66  92 112 176 220 246 324 380
#     4  10  20  40  65  90 126 170 210 267 316 390
#     4  10  23  44  65  92 126 170 214 258 326 392
#     4  11  25  41  62  97 129 165 216 272 320 374
#
# _framework density 19.638546000000002
#
# number of rings (size 3 to 8) (size 9 to 14) (size 15 to 20)
#    0.000    2.154    0.000    5.538    4.308    1.846 
#    5.538    0.000    0.000    0.000    0.000    0.000 
#    0.000    0.000    0.000    0.000    0.000    0.000 
#
# Total GULP energy -290423.860336 kJ/mol
# GULP energy per Si atom -5585.074237 kJ/mol
# Density = 1.959385 g / cm^3
# Si number density = 19.638546 Si / 1000 Ang^3
#
#
#
# Elastic Constant Matrix: (Units=GPa)
#
#
# Indices 1 2 3 4 5 6 
#
# 1 100.2793 49.3137 46.2604 0.0000 0.0000 0.0000
# 2 49.3137 100.2793 46.2604 0.0000 0.0000 0.0000
# 3 46.2604 46.2604 128.7861 0.0000 0.0000 0.0000
# 4 0.0000 0.0000 0.0000 11.2894 0.0000 0.0000
# 5 0.0000 0.0000 0.0000 0.0000 11.2894 0.0000
# 6 0.0000 0.0000 0.0000 0.0000 0.0000 12.6799
#
#
#
# Elastic Compliance Matrix: (Units=1/GPa)
#
#
# Indices 1 2 3 4 5 6 
#
# 1 0.014108 -0.005513 -0.003087 0.000000 0.000000 0.000000
# 2 -0.005513 0.014108 -0.003087 0.000000 0.000000 0.000000
# 3 -0.003087 -0.003087 0.009983 0.000000 0.000000 0.000000
# 4 0.000000 0.000000 0.000000 0.088579 0.000000 0.000000
# 5 0.000000 0.000000 0.000000 0.000000 0.088579 0.000000
# 6 0.000000 0.000000 0.000000 0.000000 0.000000 0.078865
#
#
# Mechanical properties :
#
#
# Convention : Reuss Voigt Hill
#
# Bulk Modulus (GPa) = 67.46448 68.11264 67.78856
# Shear Modulus (GPa) = 15.50216 19.55243 17.52729
#
# Velocity S-wave (km/s) = 2.81263 3.15876 2.99071
# Velocity P-wave (km/s) = 6.70638 6.93268 6.82047
#
# Compressibility (1/GPa) = 0.01482262
#
# Stress axis : x y z
#
# Youngs Moduli (GPa) = 70.88393 70.88393 100.17476
#
# Poissons Ratio (x) = 0.39082 0.30924
# Poissons Ratio (y) = 0.39082 0.30924
# Poissons Ratio (z) = 0.21882 0.21882
#
# Static dielectric constant tensor:
#      x y z
#    x 1.669070 0.000000 0.000000 
#    y 0.000000 1.669070 0.000000 
#    z 0.000000 0.000000 1.725260 
# 
# From -- ./inp_files/6045.got.cif
#   From: 2010.05.17/outbox.cif.g08.bks.cpg/sg133_4_cif.got.tgz:6045.got - 2010.05.20 12:37:36.
