data_PCOD9567166
_publ_section_title
;
Structure prediction by ZEFSAII (Michael W. Deem and Ramdas Pophale) SiO2 
 PCOD9567166
Probable space group: P 42/M C M
;
_chemical_formula_sum "Si O2"
_cell_formula_units_Z 128
_cell_length_a 20.617099
_cell_length_b 20.617099
_cell_length_c 18.195065
_cell_angle_alpha 90.000000
_cell_angle_beta 90.000000
_cell_angle_gamma 90.000000
_cell_volume 7734.081141
_symmetry_space_group_name_H-M "P 42/M C M"
_symmetry_group_IT_number 132
_symmetry_cell_setting 'tetragonal'
loop_
_space_group_symop_operation_xyz
x,y,z
-y,x,1/2+z
-x,-y,z
y,-x,1/2+z
x,-y,1/2-z
-x,y,1/2-z
y,x,-z
-y,-x,-z
-x,-y,-z
y,-x,1/2-z
x,y,-z
-y,x,1/2-z
-x,y,1/2+z
x,-y,1/2+z
-y,-x,z
y,x,z
loop_
_atom_site_type_symbol
_atom_site_label
_atom_site_fract_x
_atom_site_fract_y
_atom_site_fract_z
Si Si1 0.803598 0.905392 0.084415
Si Si2 0.989153 0.399430 0.165184
Si Si3 0.580553 0.124330 0.586606
Si Si4 0.747979 0.854381 0.418727
Si Si5 0.232070 0.663875 0.180110
Si Si6 0.539236 0.848466 0.673038
Si Si7 0.294183 0.191328 0.841509
Si Si8 0.019407 0.245417 0.332547
O O1 0.874621 0.874621 0.089277
O O2 0.757835 0.863727 0.138135
O O3 0.796260 0.978048 0.110446
O O4 0.781281 0.896940 0.000000
O O5 0.915105 0.422092 0.152090
O O6 0.995371 0.321878 0.158282
O O7 0.000000 0.417196 0.250000
O O8 0.050531 0.424917 0.118761
O O9 0.589130 0.120445 0.500000
O O10 0.514919 0.159759 0.611038
O O11 0.640211 0.164893 0.621397
O O12 0.731987 0.881589 0.500000
O O13 0.812246 0.812246 0.424524
O O14 0.693202 0.805580 0.389653
O O15 0.759343 0.906837 0.356011
O O16 0.304756 0.695245 0.178998
O O17 0.212021 0.588431 0.180675
O O18 0.200070 0.691909 0.255237
O O19 0.500000 0.857452 0.750000
O O20 0.258753 0.258753 0.866557
O O21 0.000000 0.227311 0.250000
#
# Coordination Sequence:
#
# PCOD9567166 Si02
#       8
#    16  16  16  16  16  16  16  16
#     4  10  20  33  50  74 105 137 170 220 280 328
#     4  11  21  35  51  73 107 151 183 215 259 311
#     4  12  25  36  52  80 111 147 190 227 266 325
#     4  10  21  36  54  77 105 136 177 234 287 327
#     4  10  20  37  59  80 102 139 187 226 269 322
#     4  12  22  37  56  74 110 154 181 217 266 320
#     4  10  19  34  55  77 104 140 180 224 270 318
#     4  11  21  33  54  76 101 135 183 225 270 324
#
# _framework density 16.550124
#
# number of rings (size 3 to 8) (size 9 to 14) (size 15 to 20)
#    0.000    1.250    5.000    1.875    0.000    4.250 
#    0.000    0.000    0.000    0.375    0.000    2.625 
#    0.000    1.750    0.000    1.125    0.000    0.000 
#
# Total GULP energy -713224.412295 kJ/mol
# GULP energy per Si atom -5572.065721 kJ/mol
# Density = 1.651246 g / cm^3
# Si number density = 16.550124 Si / 1000 Ang^3
#
#
#
# Elastic Constant Matrix: (Units=GPa)
#
#
# Indices 1 2 3 4 5 6 
#
# 1 62.0279 32.1814 14.4434 0.0000 0.0000 0.0000
# 2 32.1814 62.0279 14.4434 0.0000 0.0000 0.0000
# 3 14.4434 14.4434 68.7035 0.0000 0.0000 0.0000
# 4 0.0000 0.0000 0.0000 18.0429 0.0000 0.0000
# 5 0.0000 0.0000 0.0000 0.0000 18.0429 0.0000
# 6 0.0000 0.0000 0.0000 0.0000 0.0000 20.9461
#
#
#
# Elastic Compliance Matrix: (Units=1/GPa)
#
#
# Indices 1 2 3 4 5 6 
#
# 1 0.022425 -0.011079 -0.002385 0.000000 0.000000 0.000000
# 2 -0.011079 0.022425 -0.002385 0.000000 0.000000 0.000000
# 3 -0.002385 -0.002385 0.015558 0.000000 0.000000 0.000000
# 4 0.000000 0.000000 0.000000 0.055423 0.000000 0.000000
# 5 0.000000 0.000000 0.000000 0.000000 0.055423 0.000000
# 6 0.000000 0.000000 0.000000 0.000000 0.000000 0.047742
#
#
# Mechanical properties :
#
#
# Convention : Reuss Voigt Hill
#
# Bulk Modulus (GPa) = 34.83199 34.98842 34.91021
# Shear Modulus (GPa) = 19.21105 20.18580 19.69842
#
# Velocity S-wave (km/s) = 3.41072 3.49618 3.45371
# Velocity P-wave (km/s) = 6.05002 6.12245 6.08634
#
# Compressibility (1/GPa) = 0.02870924
#
# Stress axis : x y z
#
# Youngs Moduli (GPa) = 44.59230 44.59230 64.27486
#
# Poissons Ratio (x) = 0.49405 0.15331
# Poissons Ratio (y) = 0.49405 0.15331
# Poissons Ratio (z) = 0.10636 0.10636
#
# Static dielectric constant tensor:
#      x y z
#    x 1.588260 0.000000 0.000000 
#    y 0.000000 1.588260 0.000000 
#    z 0.000000 0.000000 1.582040 
# 
# From -- ./inp_files/6842.got.cif
#   From: 2010.05.17/outbox.cif.g08.bks.cpg/sg132_4_cif.got.tgz:6842.got - 2010.05.20 12:30:18.
