data_PCOD9567269
_publ_section_title
;
Structure prediction by ZEFSAII (Michael W. Deem and Ramdas Pophale) SiO2 
 PCOD9567269
Probable space group: P 42/M C M
;
_chemical_formula_sum "Si O2"
_cell_formula_units_Z 80
_cell_length_a 11.958105
_cell_length_b 11.958105
_cell_length_c 29.698482
_cell_angle_alpha 90.000000
_cell_angle_beta 90.000000
_cell_angle_gamma 90.000000
_cell_volume 4246.772305
_symmetry_space_group_name_H-M "P 42/M C M"
_symmetry_group_IT_number 132
_symmetry_cell_setting 'tetragonal'
loop_
_space_group_symop_operation_xyz
x,y,z
-y,x,1/2+z
-x,-y,z
y,-x,1/2+z
x,-y,1/2-z
-x,y,1/2-z
y,x,-z
-y,-x,-z
-x,-y,-z
y,-x,1/2-z
x,y,-z
-y,x,1/2-z
-x,y,1/2+z
x,-y,1/2+z
-y,-x,z
y,x,z
loop_
_atom_site_type_symbol
_atom_site_label
_atom_site_fract_x
_atom_site_fract_y
_atom_site_fract_z
Si Si1 0.518583 0.125356 0.821807
Si Si2 0.071145 0.658673 0.088450
Si Si3 0.459402 0.719787 0.948541
Si Si4 0.822876 0.648571 0.894545
Si Si5 0.905390 0.094611 0.054430
Si Si6 0.313912 0.500000 0.250000
O O1 0.609950 0.109488 0.862434
O O2 0.400646 0.158844 0.845013
O O3 0.542800 0.227202 0.788374
O O4 0.500000 0.000000 0.802682
O O5 0.164816 0.610098 0.055496
O O6 0.064554 0.790067 0.079186
O O7 0.942164 0.625164 0.082041
O O8 0.379052 0.620948 0.932485
O O9 0.566549 0.736405 0.918374
O O10 0.489765 0.699170 0.000000
O O11 0.772430 0.772430 0.895938
O O12 0.889554 0.110447 0.000000
O O13 0.000000 0.000000 0.059741
O O14 0.397677 0.602324 0.263092
#
# Coordination Sequence:
#
# PCOD9567269 Si02
#       6
#    16  16  16  16   8   8
#     4   9  20  38  60  82 111 152 197 229 281 360
#     4  10  20  36  57  78 108 153 197 242 292 354
#     4  10  20  34  52  73 102 146 195 236 283 349
#     4  10  21  36  54  79 110 144 188 239 292 342
#     4  11  22  34  54  86 121 157 205 263 312 348
#     4  11  23  36  58  94 127 145 176 236 300 355
#
# _framework density 18.837834999999998
#
# number of rings (size 3 to 8) (size 9 to 14) (size 15 to 20)
#    0.000    2.000    1.000    3.900    1.400    4.000 
#    0.000    1.000    0.000    0.000    0.000    0.000 
#    0.000    0.000    0.000    0.000    0.000    0.000 
#
# Total GULP energy -445378.723107 kJ/mol
# GULP energy per Si atom -5567.234039 kJ/mol
# Density = 1.879496 g / cm^3
# Si number density = 18.837835 Si / 1000 Ang^3
#
#
#
# Elastic Constant Matrix: (Units=GPa)
#
#
# Indices 1 2 3 4 5 6 
#
# 1 102.8385 43.8381 28.6446 0.0000 0.0000 0.0000
# 2 43.8381 102.8384 28.6446 0.0000 0.0000 0.0000
# 3 28.6446 28.6446 48.3657 0.0000 0.0000 0.0000
# 4 0.0000 0.0000 0.0000 66.9033 0.0000 0.0000
# 5 0.0000 0.0000 0.0000 0.0000 66.9036 0.0000
# 6 0.0000 0.0000 0.0000 0.0000 0.0000 39.5296
#
#
#
# Elastic Compliance Matrix: (Units=1/GPa)
#
#
# Indices 1 2 3 4 5 6 
#
# 1 0.012909 -0.004040 -0.005253 0.000000 0.000000 0.000000
# 2 -0.004040 0.012909 -0.005253 0.000000 0.000000 0.000000
# 3 -0.005253 -0.005253 0.026898 0.000000 0.000000 0.000000
# 4 0.000000 0.000000 0.000000 0.014947 0.000000 0.000000
# 5 0.000000 0.000000 0.000000 0.000000 0.014947 0.000000
# 6 0.000000 0.000000 0.000000 0.000000 0.000000 0.025298
#
#
# Mechanical properties :
#
#
# Convention : Reuss Voigt Hill
#
# Bulk Modulus (GPa) = 42.32790 50.69968 46.51379
# Shear Modulus (GPa) = 34.51276 44.86165 39.68721
#
# Velocity S-wave (km/s) = 4.28495 4.88532 4.59495
# Velocity P-wave (km/s) = 6.85561 7.66772 7.27301
#
# Compressibility (1/GPa) = 0.02362508
#
# Stress axis : x y z
#
# Youngs Moduli (GPa) = 77.46399 77.46390 37.17767
#
# Poissons Ratio (x) = 0.31294 0.19529
# Poissons Ratio (y) = 0.31294 0.19529
# Poissons Ratio (z) = 0.40691 0.40691
#
# Static dielectric constant tensor:
#      x y z
#    x 1.710110 0.000000 0.000000 
#    y 0.000000 1.710110 0.000000 
#    z 0.000000 0.000000 1.666330 
# 
# From -- ./inp_files/10662.got.cif
#   From: 2010.05.17/outbox.cif.g08.bks.cpg/sg132_6_cif.got.tgz:10662.got - 2010.05.20 12:30:18.
