data_PCOD9567046
_publ_section_title
;
Structure prediction by ZEFSAII (Michael W. Deem and Ramdas Pophale) SiO2 
 PCOD9567046
Probable space group: P 42/M C M
;
_chemical_formula_sum "Si O2"
_cell_formula_units_Z 96
_cell_length_a 24.260987
_cell_length_b 24.260987
_cell_length_c 8.518518
_cell_angle_alpha 90.000000
_cell_angle_beta 90.000000
_cell_angle_gamma 90.000000
_cell_volume 5013.961278
_symmetry_space_group_name_H-M "P 42/M C M"
_symmetry_group_IT_number 132
_symmetry_cell_setting 'tetragonal'
loop_
_space_group_symop_operation_xyz
x,y,z
-y,x,1/2+z
-x,-y,z
y,-x,1/2+z
x,-y,1/2-z
-x,y,1/2-z
y,x,-z
-y,-x,-z
-x,-y,-z
y,-x,1/2-z
x,y,-z
-y,x,1/2-z
-x,y,1/2+z
x,-y,1/2+z
-y,-x,z
y,x,z
loop_
_atom_site_type_symbol
_atom_site_label
_atom_site_fract_x
_atom_site_fract_y
_atom_site_fract_z
Si Si1 0.442469 0.353591 0.689850
Si Si2 0.763948 0.849609 0.311611
Si Si3 0.429352 0.770977 0.178288
Si Si4 0.938194 0.674156 0.312909
Si Si5 0.110824 0.441777 0.816390
Si Si6 0.234270 0.321155 0.825065
O O1 0.500000 0.377873 0.750000
O O2 0.441827 0.351549 0.500000
O O3 0.391063 0.391063 0.740668
O O4 0.441021 0.289885 0.745154
O O5 0.755900 0.842208 0.500000
O O6 0.827050 0.827050 0.283062
O O7 0.732273 0.907034 0.274017
O O8 0.726743 0.808573 0.209814
O O9 0.444653 0.823833 0.279352
O O10 0.363512 0.772185 0.185480
O O11 0.449724 0.776291 0.000000
O O12 0.938298 0.669587 0.500000
O O13 0.910005 0.617070 0.251759
O O14 0.000000 0.675695 0.250000
O O15 0.087232 0.500000 0.750000
O O16 0.100458 0.440840 0.000000
O O17 0.294220 0.294220 0.822673
O O18 0.224472 0.344643 0.000000
#
# Coordination Sequence:
#
# PCOD9567046 Si02
#       6
#    16  16  16  16  16  16
#     4  10  23  41  59  80 105 136 176 224 282 351
#     4   9  18  34  57  84 116 154 194 235 283 341
#     4  11  21  36  57  80 108 141 178 224 284 349
#     4  11  23  40  62  88 120 159 203 246 293 344
#     4  12  25  41  60  83 114 151 197 249 299 350
#     4  10  19  29  47  78 111 141 176 220 272 330
#
# _framework density 19.146538
#
# number of rings (size 3 to 8) (size 9 to 14) (size 15 to 20)
#    0.000    1.500    1.667    4.000    0.000    5.833 
#    0.000    2.500    0.000    0.000    0.000    0.000 
#    0.000    0.333    0.000    4.167    0.000    0.000 
#
# Total GULP energy -534621.623778 kJ/mol
# GULP energy per Si atom -5568.975248 kJ/mol
# Density = 1.910296 g / cm^3
# Si number density = 19.146538 Si / 1000 Ang^3
#
#
#
# Elastic Constant Matrix: (Units=GPa)
#
#
# Indices 1 2 3 4 5 6 
#
# 1 106.0768 56.0550 24.3217 0.0000 0.0000 0.0000
# 2 56.0550 106.0768 24.3217 0.0000 0.0000 0.0000
# 3 24.3217 24.3217 48.9938 0.0000 0.0000 0.0000
# 4 0.0000 0.0000 0.0000 10.5512 0.0000 0.0000
# 5 0.0000 0.0000 0.0000 0.0000 10.5512 0.0000
# 6 0.0000 0.0000 0.0000 0.0000 0.0000 1.6501
#
#
#
# Elastic Compliance Matrix: (Units=1/GPa)
#
#
# Indices 1 2 3 4 5 6 
#
# 1 0.013619 -0.006372 -0.003598 0.000000 0.000000 0.000000
# 2 -0.006372 0.013619 -0.003598 0.000000 0.000000 0.000000
# 3 -0.003598 -0.003598 0.023983 0.000000 0.000000 0.000000
# 4 0.000000 0.000000 0.000000 0.094776 0.000000 0.000000
# 5 0.000000 0.000000 0.000000 0.000000 0.094776 0.000000
# 6 0.000000 0.000000 0.000000 0.000000 0.000000 0.606029
#
#
# Mechanical properties :
#
#
# Convention : Reuss Voigt Hill
#
# Bulk Modulus (GPa) = 41.51725 52.28269 46.89997
# Shear Modulus (GPa) = 5.66915 14.98041 10.32478
#
# Velocity S-wave (km/s) = 1.72260 2.80019 2.32470
# Velocity P-wave (km/s) = 5.06828 6.14985 5.63507
#
# Compressibility (1/GPa) = 0.02408637
#
# Stress axis : x y z
#
# Youngs Moduli (GPa) = 73.42542 73.42542 41.69670
#
# Poissons Ratio (x) = 0.46787 0.15001
# Poissons Ratio (y) = 0.46787 0.15001
# Poissons Ratio (z) = 0.26416 0.26416
#
# Static dielectric constant tensor:
#      x y z
#    x 1.727060 0.000000 0.000000 
#    y 0.000000 1.727060 0.000000 
#    z 0.000000 0.000000 1.666780 
# 
# From -- ./inp_files/1795.got.cif
#   From: 2010.05.17/outbox.cif.g08.bks.cpg/sg132_1_cif.got.tgz:1795.got - 2010.05.20 12:30:18.
