data_PCOD9567405
_publ_section_title
;
Structure prediction by ZEFSAII (Michael W. Deem and Ramdas Pophale) SiO2 
 PCOD9567405
Probable space group: P 42/M C M
;
_chemical_formula_sum "Si O2"
_cell_formula_units_Z 88
_cell_length_a 12.253833
_cell_length_b 12.253833
_cell_length_c 29.883724
_cell_angle_alpha 90.000000
_cell_angle_beta 90.000000
_cell_angle_gamma 90.000000
_cell_volume 4487.233107
_symmetry_space_group_name_H-M "P 42/M C M"
_symmetry_group_IT_number 132
_symmetry_cell_setting 'tetragonal'
loop_
_space_group_symop_operation_xyz
x,y,z
-y,x,1/2+z
-x,-y,z
y,-x,1/2+z
x,-y,1/2-z
-x,y,1/2-z
y,x,-z
-y,-x,-z
-x,-y,-z
y,-x,1/2-z
x,y,-z
-y,x,1/2-z
-x,y,1/2+z
x,-y,1/2+z
-y,-x,z
y,x,z
loop_
_atom_site_type_symbol
_atom_site_label
_atom_site_fract_x
_atom_site_fract_y
_atom_site_fract_z
Si Si1 0.777275 0.594065 0.715601
Si Si2 0.562066 0.742219 0.610255
Si Si3 0.804386 0.367403 0.550667
Si Si4 0.695662 0.000000 0.750000
Si Si5 0.822642 0.997462 0.836794
Si Si6 0.025014 0.620231 0.098370
O O1 0.741388 0.500000 0.750000
O O2 0.699082 0.699082 0.720176
O O3 0.767873 0.557754 0.663601
O O4 0.900167 0.626791 0.729584
O O5 0.633749 0.633749 0.604369
O O6 0.445012 0.744567 0.586586
O O7 0.619705 0.847314 0.587220
O O8 0.783427 0.405545 0.500000
O O9 0.752193 0.247808 0.555055
O O10 0.933314 0.369977 0.560377
O O11 0.774186 0.960911 0.789529
O O12 0.908559 0.908559 0.853409
O O13 0.719854 0.007586 0.868658
O O14 0.888705 0.111296 0.832070
O O15 0.000000 0.500000 0.119000
#
# Coordination Sequence:
#
# PCOD9567405 Si02
#       6
#    16  16  16   8  16  16
#     4  11  25  41  60  87 125 167 208 254 301 356
#     4  10  22  41  62  88 122 159 200 250 303 358
#     4  10  23  42  64  92 122 152 195 251 309 369
#     4  12  23  37  58  86 122 161 205 256 298 350
#     4  11  22  36  56  85 121 160 203 249 297 351
#     4  10  21  37  61  87 118 156 192 245 296 362
#
# _framework density 19.611194999999999
#
# number of rings (size 3 to 8) (size 9 to 14) (size 15 to 20)
#    0.000    1.455    1.818    3.000    5.091    5.636 
#    0.000    2.727    0.000    1.636    0.000    6.364 
#    0.000    0.000    0.000    0.000    0.000    0.000 
#
# Total GULP energy -491028.270338 kJ/mol
# GULP energy per Si atom -5579.866708 kJ/mol
# Density = 1.956656 g / cm^3
# Si number density = 19.611195 Si / 1000 Ang^3
#
#
#
# Elastic Constant Matrix: (Units=GPa)
#
#
# Indices 1 2 3 4 5 6 
#
# 1 57.9602 3.7915 32.7011 0.0000 0.0000 0.0000
# 2 3.7915 57.9602 32.7011 0.0000 0.0000 0.0000
# 3 32.7011 32.7011 76.4531 0.0000 0.0000 0.0000
# 4 0.0000 0.0000 0.0000 30.8813 0.0000 0.0000
# 5 0.0000 0.0000 0.0000 0.0000 30.8813 0.0000
# 6 0.0000 0.0000 0.0000 0.0000 0.0000 14.5722
#
#
#
# Elastic Compliance Matrix: (Units=1/GPa)
#
#
# Indices 1 2 3 4 5 6 
#
# 1 0.024033 0.005572 -0.012663 0.000000 0.000000 0.000000
# 2 0.005572 0.024033 -0.012663 0.000000 0.000000 0.000000
# 3 -0.012663 -0.012663 0.023913 0.000000 0.000000 0.000000
# 4 0.000000 0.000000 0.000000 0.032382 0.000000 0.000000
# 5 0.000000 0.000000 0.000000 0.000000 0.032382 0.000000
# 6 0.000000 0.000000 0.000000 0.000000 0.000000 0.068624
#
#
# Mechanical properties :
#
#
# Convention : Reuss Voigt Hill
#
# Bulk Modulus (GPa) = 30.79640 36.75122 33.77381
# Shear Modulus (GPa) = 19.55429 23.47896 21.51663
#
# Velocity S-wave (km/s) = 3.16111 3.46384 3.31593
# Velocity P-wave (km/s) = 5.39083 5.89731 5.64975
#
# Compressibility (1/GPa) = 0.03247133
#
# Stress axis : x y z
#
# Youngs Moduli (GPa) = 41.60905 41.60905 41.81886
#
# Poissons Ratio (x) = -0.23186 0.52956
# Poissons Ratio (y) = -0.23186 0.52956
# Poissons Ratio (z) = 0.52690 0.52690
#
# Static dielectric constant tensor:
#      x y z
#    x 1.734650 0.000000 0.000000 
#    y 0.000000 1.734650 0.000000 
#    z 0.000000 0.000000 1.689610 
# 
# From -- ./inp_files/10758.got.cif
#   From: 2010.05.17/outbox.cif.g08.bks.cpg/sg132_6_cif.got.tgz:10758.got - 2010.05.20 12:30:18.
