data_PCOD9567612
_publ_section_title
;
Structure prediction by ZEFSAII (Michael W. Deem and Ramdas Pophale) SiO2 
 PCOD9567612
Probable space group: P 42/N B C
;
_chemical_formula_sum "Si O2"
_cell_formula_units_Z 108
_cell_length_a 13.613940
_cell_length_b 13.613940
_cell_length_c 24.192242
_cell_angle_alpha 90.000000
_cell_angle_beta 90.000000
_cell_angle_gamma 90.000000
_cell_volume 4483.774705
_symmetry_space_group_name_H-M "P 42/N B C"
_symmetry_group_IT_number 133
_space_group.IT_coordinate_system_code '2'
_symmetry_cell_setting 'tetragonal'
loop_
_space_group_symop_operation_xyz
x,y,z
1/2-y,x,1/2+z
1/2-x,1/2-y,z
y,1/2-x,1/2+z
x,1/2-y,-z
1/2-x,y,-z
y,x,1/2-z
1/2-y,1/2-x,1/2-z
-x,-y,-z
1/2+y,-x,1/2-z
1/2+x,1/2+y,-z
-y,1/2+x,1/2-z
-x,1/2+y,z
1/2+x,-y,z
-y,-x,1/2+z
1/2+y,1/2+x,1/2+z
loop_
_atom_site_type_symbol
_atom_site_label
_atom_site_fract_x
_atom_site_fract_y
_atom_site_fract_z
Si Si1 0.951392 0.399444 0.707083
Si Si2 0.782154 0.953715 0.883781
Si Si3 0.459366 0.735776 0.806523
Si Si4 0.912251 0.456413 0.464137
Si Si5 0.236419 0.401092 0.589454
Si Si6 0.250000 0.557781 0.000000
Si Si7 0.033142 0.907636 0.343369
Si Si8 0.750000 0.750000 0.000000
O O1 0.968931 0.350310 0.647667
O O2 0.834884 0.410661 0.715534
O O3 0.997968 0.324645 0.752516
O O4 0.996768 0.507500 0.696813
O O5 0.768248 0.990705 0.946194
O O6 0.833385 0.848888 0.883993
O O7 0.683079 0.960445 0.848252
O O8 0.533572 0.767769 0.856814
O O9 0.389321 0.649348 0.831383
O O10 0.820127 0.524210 0.451210
O O11 0.884475 0.349673 0.487334
O O12 0.000000 0.500000 0.500000
O O13 0.963507 0.446718 0.405018
O O14 0.294282 0.328564 0.546141
#
# Coordination Sequence:
#
# PCOD9567612 Si02
#       8
#    16  16  16  16  16   8  16   4
#     4  12  24  46  74  99 144 202 240 322 383 454
#     4  11  22  40  71 104 143 199 246 309 384 453
#     4  11  26  46  72 105 147 195 259 312 387 462
#     4  10  18  35  62  95 141 193 242 306 371 456
#     4  11  25  45  68 114 154 198 255 325 387 489
#     4  10  19  34  64 106 139 198 262 299 378 469
#     4  10  23  40  67 101 141 186 251 303 379 453
#     4  12  30  44  80 112 162 210 256 320 424 478
#
# _framework density 24.086849999999998
#
# number of rings (size 3 to 8) (size 9 to 14) (size 15 to 20)
#    0.000    1.185    4.444    1.778    4.148    3.259 
#    0.000    0.000    0.000   11.111    0.000    0.000 
#    0.000    0.000    0.000    0.000    0.000    0.000 
#
# Total GULP energy -601932.003391 kJ/mol
# GULP energy per Si atom -5573.444476 kJ/mol
# Density = 2.403203 g / cm^3
# Si number density = 24.086850 Si / 1000 Ang^3
#
#
#
# Elastic Constant Matrix: (Units=GPa)
#
#
# Indices 1 2 3 4 5 6 
#
# 1 101.0841 21.2764 31.7710 0.0000 0.0000 0.0000
# 2 21.2764 101.0841 31.7710 0.0000 0.0000 0.0000
# 3 31.7710 31.7710 91.7961 0.0000 0.0000 0.0000
# 4 0.0000 0.0000 0.0000 27.5697 0.0000 0.0000
# 5 0.0000 0.0000 0.0000 0.0000 27.5697 0.0000
# 6 0.0000 0.0000 0.0000 0.0000 0.0000 27.7603
#
#
#
# Elastic Compliance Matrix: (Units=1/GPa)
#
#
# Indices 1 2 3 4 5 6 
#
# 1 0.011247 -0.001283 -0.003448 0.000000 0.000000 0.000000
# 2 -0.001283 0.011247 -0.003448 0.000000 0.000000 0.000000
# 3 -0.003448 -0.003448 0.013281 0.000000 0.000000 0.000000
# 4 0.000000 0.000000 0.000000 0.036272 0.000000 0.000000
# 5 0.000000 0.000000 0.000000 0.000000 0.036272 0.000000
# 6 0.000000 0.000000 0.000000 0.000000 0.000000 0.036023
#
#
# Mechanical properties :
#
#
# Convention : Reuss Voigt Hill
#
# Bulk Modulus (GPa) = 51.50943 51.51124 51.51034
# Shear Modulus (GPa) = 29.90937 30.52299 30.21618
#
# Velocity S-wave (km/s) = 3.52764 3.56365 3.54569
# Velocity P-wave (km/s) = 6.16633 6.19393 6.18015
#
# Compressibility (1/GPa) = 0.01941392
#
# Stress axis : x y z
#
# Youngs Moduli (GPa) = 88.91492 88.91492 75.29732
#
# Poissons Ratio (x) = 0.11411 0.25965
# Poissons Ratio (y) = 0.11411 0.25965
# Poissons Ratio (z) = 0.30661 0.30661
#
# Static dielectric constant tensor:
#      x y z
#    x 1.996780 0.000000 0.000000 
#    y 0.000000 1.996780 0.000000 
#    z 0.000000 0.000000 2.037980 
# 
# From -- ./inp_files/7300.got.cif
#   From: 2010.05.17/outbox.cif.g08.bks.cpg/sg133_4_cif.got.tgz:7300.got - 2010.05.20 12:37:36.
