data_PCOD9567950
_publ_section_title
;
Structure prediction by ZEFSAII (Michael W. Deem and Ramdas Pophale) SiO2 
 PCOD9567950
Probable space group: P 42/N B C
;
_chemical_formula_sum "Si O2"
_cell_formula_units_Z 48
_cell_length_a 13.201358
_cell_length_b 13.201358
_cell_length_c 14.158464
_cell_angle_alpha 90.000000
_cell_angle_beta 90.000000
_cell_angle_gamma 90.000000
_cell_volume 2467.478391
_symmetry_space_group_name_H-M "P 42/N B C"
_symmetry_group_IT_number 133
_space_group.IT_coordinate_system_code '2'
_symmetry_cell_setting 'tetragonal'
loop_
_space_group_symop_operation_xyz
x,y,z
1/2-y,x,1/2+z
1/2-x,1/2-y,z
y,1/2-x,1/2+z
x,1/2-y,-z
1/2-x,y,-z
y,x,1/2-z
1/2-y,1/2-x,1/2-z
-x,-y,-z
1/2+y,-x,1/2-z
1/2+x,1/2+y,-z
-y,1/2+x,1/2-z
-x,1/2+y,z
1/2+x,-y,z
-y,-x,1/2+z
1/2+y,1/2+x,1/2+z
loop_
_atom_site_type_symbol
_atom_site_label
_atom_site_fract_x
_atom_site_fract_y
_atom_site_fract_z
Si Si1 0.482421 0.415493 0.147947
Si Si2 0.992257 0.634328 0.526955
Si Si3 0.293355 0.139763 0.353187
O O1 0.464577 0.464577 0.250000
O O2 0.593451 0.425381 0.101877
O O3 0.436600 0.301756 0.149929
O O4 0.421827 0.484651 0.072934
O O5 0.005462 0.750000 0.500000
O O6 0.882698 0.614927 0.575255
O O7 0.250000 0.250000 0.380215
O O8 0.342771 0.157230 0.250000
#
# Coordination Sequence:
#
# PCOD9567950 Si02
#       3
#    16  16  16
#     4  11  22  35  57  93 126 166 217 268 323 380
#     4  11  22  36  59  90 124 165 212 271 325 388
#     4  11  19  36  64  91 127 168 220 263 318 389
#
# _framework density 19.453056
#
# number of rings (size 3 to 8) (size 9 to 14) (size 15 to 20)
#    0.000    1.000    6.667    2.000    0.000    0.000 
#    0.000    0.000    0.000   16.000    0.000   14.000 
#    0.000    0.000    0.000    0.000    0.000    0.000 
#
# Total GULP energy -267878.349842 kJ/mol
# GULP energy per Si atom -5580.798955 kJ/mol
# Density = 1.940878 g / cm^3
# Si number density = 19.453056 Si / 1000 Ang^3
#
#
#
# Elastic Constant Matrix: (Units=GPa)
#
#
# Indices 1 2 3 4 5 6 
#
# 1 79.2766 64.8092 54.6722 0.0000 0.0000 0.0000
# 2 64.8092 79.2773 54.6719 0.0000 0.0000 0.0000
# 3 54.6722 54.6719 177.0480 0.0000 0.0000 0.0000
# 4 0.0000 0.0000 0.0000 31.1533 0.0000 0.0000
# 5 0.0000 0.0000 0.0000 0.0000 31.1531 0.0000
# 6 0.0000 0.0000 0.0000 0.0000 0.0000 26.1142
#
#
#
# Elastic Compliance Matrix: (Units=1/GPa)
#
#
# Indices 1 2 3 4 5 6 
#
# 1 0.039092 -0.030027 -0.002799 0.000000 0.000000 0.000000
# 2 -0.030027 0.039092 -0.002799 0.000000 0.000000 0.000000
# 3 -0.002799 -0.002799 0.007377 0.000000 0.000000 0.000000
# 4 0.000000 0.000000 0.000000 0.032099 0.000000 0.000000
# 5 0.000000 0.000000 0.000000 0.000000 0.032099 0.000000
# 6 0.000000 0.000000 0.000000 0.000000 0.000000 0.038293
#
#
# Mechanical properties :
#
#
# Convention : Reuss Voigt Hill
#
# Bulk Modulus (GPa) = 69.88380 75.98984 72.93682
# Shear Modulus (GPa) = 18.93407 28.44735 23.69071
#
# Velocity S-wave (km/s) = 3.12319 3.82823 3.49354
# Velocity P-wave (km/s) = 7.00058 7.66084 7.33814
#
# Compressibility (1/GPa) = 0.01430947
#
# Stress axis : x y z
#
# Youngs Moduli (GPa) = 25.58053 25.58088 135.55847
#
# Poissons Ratio (x) = 0.76813 0.37946
# Poissons Ratio (y) = 0.76812 0.37942
# Poissons Ratio (z) = 0.07161 0.07160
#
# Static dielectric constant tensor:
#      x y z
#    x 1.751270 0.000000 0.000000 
#    y 0.000000 1.751270 0.000000 
#    z 0.000000 0.000000 1.732190 
# 
# From -- ./inp_files/3860.got.cif
#   From: 2010.05.17/outbox.cif.g08.bks.cpg/sg133_2_cif.got.tgz:3860.got - 2010.05.20 12:37:36.
