data_PCOD9567315
_publ_section_title
;
Structure prediction by ZEFSAII (Michael W. Deem and Ramdas Pophale) SiO2 
 PCOD9567315
Probable space group: P 42/M C M
;
_chemical_formula_sum "Si O2"
_cell_formula_units_Z 96
_cell_length_a 16.196632
_cell_length_b 16.196632
_cell_length_c 19.123048
_cell_angle_alpha 90.000000
_cell_angle_beta 90.000000
_cell_angle_gamma 90.000000
_cell_volume 5016.566166
_symmetry_space_group_name_H-M "P 42/M C M"
_symmetry_group_IT_number 132
_symmetry_cell_setting 'tetragonal'
loop_
_space_group_symop_operation_xyz
x,y,z
-y,x,1/2+z
-x,-y,z
y,-x,1/2+z
x,-y,1/2-z
-x,y,1/2-z
y,x,-z
-y,-x,-z
-x,-y,-z
y,-x,1/2-z
x,y,-z
-y,x,1/2-z
-x,y,1/2+z
x,-y,1/2+z
-y,-x,z
y,x,z
loop_
_atom_site_type_symbol
_atom_site_label
_atom_site_fract_x
_atom_site_fract_y
_atom_site_fract_z
Si Si1 0.901577 0.694947 0.078849
Si Si2 0.802003 0.331736 0.168529
Si Si3 0.537598 0.663365 0.322521
Si Si4 0.602712 0.737906 0.918823
Si Si5 0.944253 0.577615 0.419776
Si Si6 0.906310 0.776229 0.225230
O O1 0.833142 0.624435 0.093144
O O2 0.898768 0.757303 0.143000
O O3 0.990546 0.652391 0.078648
O O4 0.884202 0.726851 0.000000
O O5 0.744755 0.255246 0.138218
O O6 0.735601 0.397566 0.195248
O O7 0.864586 0.384851 0.119747
O O8 0.854973 0.291693 0.230823
O O9 0.500000 0.634266 0.250000
O O10 0.589282 0.589282 0.356741
O O11 0.467899 0.700763 0.371305
O O12 0.686482 0.686482 0.906233
O O13 0.580065 0.727907 0.000000
O O14 0.921074 0.555096 0.500000
O O15 0.000000 0.500000 0.391719
O O16 0.863128 0.863128 0.240704
O O17 0.000000 0.773162 0.250000
#
# Coordination Sequence:
#
# PCOD9567315 Si02
#       6
#    16  16  16  16  16  16
#     4  10  20  37  61  89 119 153 196 244 297 353
#     4  10  22  39  58  85 121 160 201 248 307 374
#     4  11  23  38  57  81 113 156 203 252 304 356
#     4  10  21  37  58  85 117 156 201 249 300 352
#     4  10  20  35  58  89 123 158 200 250 301 361
#     4  11  22  39  62  88 120 154 195 242 294 358
#
# _framework density 19.136595
#
# number of rings (size 3 to 8) (size 9 to 14) (size 15 to 20)
#    0.000    1.667    1.667    3.000    0.000    6.333 
#    0.000    3.333    0.000    0.500    0.000    1.167 
#    0.000    0.000    0.000    0.000    0.000    0.000 
#
# Total GULP energy -535528.226728 kJ/mol
# GULP energy per Si atom -5578.419028 kJ/mol
# Density = 1.909304 g / cm^3
# Si number density = 19.136595 Si / 1000 Ang^3
#
#
#
# Elastic Constant Matrix: (Units=GPa)
#
#
# Indices 1 2 3 4 5 6 
#
# 1 76.9223 34.3590 35.8753 0.0000 0.0000 0.0000
# 2 34.3590 76.9223 35.8753 0.0000 0.0000 0.0000
# 3 35.8753 35.8753 68.7116 0.0000 0.0000 0.0000
# 4 0.0000 0.0000 0.0000 24.2516 0.0000 0.0000
# 5 0.0000 0.0000 0.0000 0.0000 24.2516 0.0000
# 6 0.0000 0.0000 0.0000 0.0000 0.0000 28.6928
#
#
#
# Elastic Compliance Matrix: (Units=1/GPa)
#
#
# Indices 1 2 3 4 5 6 
#
# 1 0.018521 -0.004974 -0.007073 0.000000 0.000000 0.000000
# 2 -0.004974 0.018521 -0.007073 0.000000 0.000000 0.000000
# 3 -0.007073 -0.007073 0.021939 0.000000 0.000000 0.000000
# 4 0.000000 0.000000 0.000000 0.041234 0.000000 0.000000
# 5 0.000000 0.000000 0.000000 0.000000 0.041234 0.000000
# 6 0.000000 0.000000 0.000000 0.000000 0.000000 0.034852
#
#
# Mechanical properties :
#
#
# Convention : Reuss Voigt Hill
#
# Bulk Modulus (GPa) = 48.21371 48.30838 48.26104
# Shear Modulus (GPa) = 22.57806 23.20232 22.89019
#
# Velocity S-wave (km/s) = 3.43860 3.48581 3.46229
# Velocity P-wave (km/s) = 6.40426 6.44205 6.42318
#
# Compressibility (1/GPa) = 0.02074099
#
# Stress axis : x y z
#
# Youngs Moduli (GPa) = 53.99421 53.99421 45.58037
#
# Poissons Ratio (x) = 0.26856 0.32238
# Poissons Ratio (y) = 0.26856 0.32238
# Poissons Ratio (z) = 0.38189 0.38189
#
# Static dielectric constant tensor:
#      x y z
#    x 1.673200 0.000000 0.000000 
#    y 0.000000 1.673200 0.000000 
#    z 0.000000 0.000000 1.666370 
# 
# From -- ./inp_files/7856.got.cif
#   From: 2010.05.17/outbox.cif.g08.bks.cpg/sg132_4_cif.got.tgz:7856.got - 2010.05.20 12:30:18.
