data_PCOD9567652
_publ_section_title
;
Structure prediction by ZEFSAII (Michael W. Deem and Ramdas Pophale) SiO2 
 PCOD9567652
Probable space group: P 42/N B C
;
_chemical_formula_sum "Si O2"
_cell_formula_units_Z 48
_cell_length_a 14.299453
_cell_length_b 14.299453
_cell_length_c 9.911019
_cell_angle_alpha 90.000000
_cell_angle_beta 90.000000
_cell_angle_gamma 90.000000
_cell_volume 2026.549228
_symmetry_space_group_name_H-M "P 42/N B C"
_symmetry_group_IT_number 133
_space_group.IT_coordinate_system_code '2'
_symmetry_cell_setting 'tetragonal'
loop_
_space_group_symop_operation_xyz
x,y,z
1/2-y,x,1/2+z
1/2-x,1/2-y,z
y,1/2-x,1/2+z
x,1/2-y,-z
1/2-x,y,-z
y,x,1/2-z
1/2-y,1/2-x,1/2-z
-x,-y,-z
1/2+y,-x,1/2-z
1/2+x,1/2+y,-z
-y,1/2+x,1/2-z
-x,1/2+y,z
1/2+x,-y,z
-y,-x,1/2+z
1/2+y,1/2+x,1/2+z
loop_
_atom_site_type_symbol
_atom_site_label
_atom_site_fract_x
_atom_site_fract_y
_atom_site_fract_z
Si Si1 0.588551 0.801959 0.631577
Si Si2 0.132953 0.522600 0.735804
Si Si3 0.141118 0.897498 0.001261
O O1 0.636025 0.750000 0.500000
O O2 0.646765 0.853236 0.750000
O O3 0.534203 0.720914 0.710584
O O4 0.504945 0.861598 0.559564
O O5 0.112879 0.603827 0.843897
O O6 0.153520 0.569102 0.593897
O O7 0.046220 0.453781 0.750000
O O8 0.250000 0.868794 0.000000
#
# Coordination Sequence:
#
# PCOD9567652 Si02
#       3
#    16  16  16
#     4   9  20  39  61  91 130 167 211 268 326 388
#     4  10  19  35  61  88 120 167 209 254 317 387
#     4   9  20  38  60  88 119 155 206 262 312 378
#
# _framework density 23.685585
#
# number of rings (size 3 to 8) (size 9 to 14) (size 15 to 20)
#    0.000    3.333    0.000    2.000    0.000    3.333 
#    0.000   33.333    0.000   50.000    0.000    0.000 
#    0.000    0.000    0.000    0.000    0.000    0.000 
#
# Total GULP energy -267805.356626 kJ/mol
# GULP energy per Si atom -5579.278263 kJ/mol
# Density = 2.363168 g / cm^3
# Si number density = 23.685585 Si / 1000 Ang^3
#
#
#
# Elastic Constant Matrix: (Units=GPa)
#
#
# Indices 1 2 3 4 5 6 
#
# 1 37.5730 30.0525 29.3437 0.0000 0.0000 0.0000
# 2 30.0525 37.5721 29.3342 0.0000 0.0000 0.0000
# 3 29.3437 29.3342 85.0198 0.0000 0.0000 0.0000
# 4 0.0000 0.0000 0.0000 30.5748 0.0000 0.0000
# 5 0.0000 0.0000 0.0000 0.0000 30.5746 0.0000
# 6 0.0000 0.0000 0.0000 0.0000 0.0000 6.1771
#
#
#
# Elastic Compliance Matrix: (Units=1/GPa)
#
#
# Indices 1 2 3 4 5 6 
#
# 1 0.077051 -0.055935 -0.007294 0.000000 0.000000 0.000000
# 2 -0.055935 0.077035 -0.007274 0.000000 0.000000 0.000000
# 3 -0.007294 -0.007274 0.016789 0.000000 0.000000 0.000000
# 4 0.000000 0.000000 0.000000 0.032707 0.000000 0.000000
# 5 0.000000 0.000000 0.000000 0.000000 0.032707 0.000000
# 6 0.000000 0.000000 0.000000 0.000000 0.000000 0.161889
#
#
# Mechanical properties :
#
#
# Convention : Reuss Voigt Hill
#
# Bulk Modulus (GPa) = 33.47985 37.51399 35.49692
# Shear Modulus (GPa) = 9.10514 18.22760 13.66637
#
# Velocity S-wave (km/s) = 1.96278 2.77711 2.40467
# Velocity P-wave (km/s) = 4.39346 5.11428 4.76751
#
# Compressibility (1/GPa) = 0.02986872
#
# Stress axis : x y z
#
# Youngs Moduli (GPa) = 12.97844 12.98112 59.56253
#
# Poissons Ratio (x) = 0.72610 0.43445
# Poissons Ratio (y) = 0.72595 0.43324
# Poissons Ratio (z) = 0.09467 0.09442
#
# Static dielectric constant tensor:
#      x y z
#    x 1.972640 0.000000 0.000000 
#    y 0.000000 1.972640 0.000000 
#    z 0.000000 0.000000 1.966940 
# 
# From -- ./inp_files/1093.got.cif
#   From: 2010.05.17/outbox.cif.g08.bks.cpg/sg133_1_cif.got.tgz:1093.got - 2010.05.20 12:37:36.
