data_PCOD9567424
_publ_section_title
;
Structure prediction by ZEFSAII (Michael W. Deem and Ramdas Pophale) SiO2 
 PCOD9567424
Probable space group: P 42/M C M
;
_chemical_formula_sum "Si O2"
_cell_formula_units_Z 88
_cell_length_a 11.885850
_cell_length_b 11.885850
_cell_length_c 29.270634
_cell_angle_alpha 90.000000
_cell_angle_beta 90.000000
_cell_angle_gamma 90.000000
_cell_volume 4135.162870
_symmetry_space_group_name_H-M "P 42/M C M"
_symmetry_group_IT_number 132
_symmetry_cell_setting 'tetragonal'
loop_
_space_group_symop_operation_xyz
x,y,z
-y,x,1/2+z
-x,-y,z
y,-x,1/2+z
x,-y,1/2-z
-x,y,1/2-z
y,x,-z
-y,-x,-z
-x,-y,-z
y,-x,1/2-z
x,y,-z
-y,x,1/2-z
-x,y,1/2+z
x,-y,1/2+z
-y,-x,z
y,x,z
loop_
_atom_site_type_symbol
_atom_site_label
_atom_site_fract_x
_atom_site_fract_y
_atom_site_fract_z
Si Si1 0.416931 0.770897 0.049957
Si Si2 0.917627 0.270154 0.190959
Si Si3 0.683682 0.982493 0.408428
Si Si4 0.784175 0.407143 0.375927
Si Si5 0.658834 0.843412 0.218509
Si Si6 0.094114 0.094114 0.051100
O O1 0.308963 0.691038 0.050241
O O2 0.372071 0.897809 0.056245
O O3 0.495019 0.736113 0.092473
O O4 0.473429 0.759541 0.000000
O O5 0.842677 0.157324 0.197860
O O6 0.911029 0.304678 0.138394
O O7 0.878465 0.361768 0.229007
O O8 0.051936 0.264646 0.200149
O O9 0.613165 0.093620 0.397907
O O10 0.802695 0.034239 0.423560
O O11 0.702166 0.297835 0.378520
O O12 0.812967 0.426108 0.322344
O O13 0.733333 0.733333 0.222647
O O14 0.130178 0.130178 0.000000
O O15 0.000000 0.000000 0.047176
#
# Coordination Sequence:
#
# PCOD9567424 Si02
#       6
#    16  16  16  16  16   8
#     4  11  25  43  62  86 118 158 208 264 318 374
#     4   9  16  27  49  80 118 158 195 239 293 359
#     4  11  21  38  59  88 121 162 205 254 311 376
#     4  10  21  40  62  88 121 160 201 255 313 375
#     4   8  16  30  48  78 118 155 195 240 294 357
#     4  11  22  34  52  82 123 169 213 259 309 367
#
# _framework density 21.280905000000001
#
# number of rings (size 3 to 8) (size 9 to 14) (size 15 to 20)
#    0.000    2.091    0.909    2.727    1.273    4.727 
#    0.000    3.636    0.000    4.364    0.000    0.000 
#    0.000    4.364    0.000    0.000    0.000    0.000 
#
# Total GULP energy -490282.369221 kJ/mol
# GULP energy per Si atom -5571.390559 kJ/mol
# Density = 2.123247 g / cm^3
# Si number density = 21.280905 Si / 1000 Ang^3
#
#
#
# Elastic Constant Matrix: (Units=GPa)
#
#
# Indices 1 2 3 4 5 6 
#
# 1 49.4917 26.3064 34.3659 0.0000 0.0000 0.0000
# 2 26.3064 49.4917 34.3659 0.0000 0.0000 0.0000
# 3 34.3659 34.3659 145.7029 0.0000 0.0000 0.0000
# 4 0.0000 0.0000 0.0000 31.1964 0.0000 0.0000
# 5 0.0000 0.0000 0.0000 0.0000 31.1964 0.0000
# 6 0.0000 0.0000 0.0000 0.0000 0.0000 5.9458
#
#
#
# Elastic Compliance Matrix: (Units=1/GPa)
#
#
# Indices 1 2 3 4 5 6 
#
# 1 0.029956 -0.013174 -0.003958 0.000000 0.000000 0.000000
# 2 -0.013174 0.029956 -0.003958 0.000000 0.000000 0.000000
# 3 -0.003958 -0.003958 0.008731 0.000000 0.000000 0.000000
# 4 0.000000 0.000000 0.000000 0.032055 0.000000 0.000000
# 5 0.000000 0.000000 0.000000 0.000000 0.032055 0.000000
# 6 0.000000 0.000000 0.000000 0.000000 0.000000 0.168187
#
#
# Mechanical properties :
#
#
# Convention : Reuss Voigt Hill
#
# Bulk Modulus (GPa) = 37.79037 48.30696 43.04867
# Shear Modulus (GPa) = 14.20687 23.64428 18.92557
#
# Velocity S-wave (km/s) = 2.58657 3.33687 2.98539
# Velocity P-wave (km/s) = 5.16884 6.13149 5.67063
#
# Compressibility (1/GPa) = 0.02646176
#
# Stress axis : x y z
#
# Youngs Moduli (GPa) = 33.38183 33.38183 114.54084
#
# Poissons Ratio (x) = 0.43978 0.45339
# Poissons Ratio (y) = 0.43978 0.45339
# Poissons Ratio (z) = 0.13214 0.13214
#
# Static dielectric constant tensor:
#      x y z
#    x 1.786700 0.000000 0.000000 
#    y 0.000000 1.786700 0.000000 
#    z 0.000000 0.000000 1.881440 
# 
# From -- ./inp_files/10796.got.cif
#   From: 2010.05.17/outbox.cif.g08.bks.cpg/sg132_6_cif.got.tgz:10796.got - 2010.05.20 12:30:18.
