data_PCOD9567850
_publ_section_title
;
Structure prediction by ZEFSAII (Michael W. Deem and Ramdas Pophale) SiO2 
 PCOD9567850
Probable space group: P 42/N B C
;
_chemical_formula_sum "Si O2"
_cell_formula_units_Z 112
_cell_length_a 13.529994
_cell_length_b 13.529994
_cell_length_c 27.902310
_cell_angle_alpha 90.000000
_cell_angle_beta 90.000000
_cell_angle_gamma 90.000000
_cell_volume 5107.817450
_symmetry_space_group_name_H-M "P 42/N B C"
_symmetry_group_IT_number 133
_space_group.IT_coordinate_system_code '2'
_symmetry_cell_setting 'tetragonal'
loop_
_space_group_symop_operation_xyz
x,y,z
1/2-y,x,1/2+z
1/2-x,1/2-y,z
y,1/2-x,1/2+z
x,1/2-y,-z
1/2-x,y,-z
y,x,1/2-z
1/2-y,1/2-x,1/2-z
-x,-y,-z
1/2+y,-x,1/2-z
1/2+x,1/2+y,-z
-y,1/2+x,1/2-z
-x,1/2+y,z
1/2+x,-y,z
-y,-x,1/2+z
1/2+y,1/2+x,1/2+z
loop_
_atom_site_type_symbol
_atom_site_label
_atom_site_fract_x
_atom_site_fract_y
_atom_site_fract_z
Si Si1 0.312647 0.568488 0.151286
Si Si2 0.348854 0.834590 0.219291
Si Si3 0.045377 0.140758 0.608018
Si Si4 0.496650 0.488432 0.697699
Si Si5 0.942307 0.387818 0.968036
Si Si6 0.362562 0.145191 0.485257
Si Si7 0.194029 0.855634 0.561337
O O1 0.226990 0.635078 0.176694
O O2 0.249899 0.483045 0.125284
O O3 0.396639 0.522341 0.185655
O O4 0.362238 0.633733 0.110031
O O5 0.369121 0.721063 0.235008
O O6 0.448594 0.890647 0.204362
O O7 0.049776 0.072954 0.654514
O O8 0.135614 0.137247 0.572014
O O9 0.960411 0.099611 0.572041
O O10 0.457320 0.457320 0.750000
O O11 0.937118 0.279412 0.943845
O O12 0.051683 0.409446 0.987569
O O13 0.873105 0.374233 0.014940
O O14 0.409282 0.250000 0.500000
O O15 0.250000 0.146021 0.500000
O O16 0.250000 0.750000 0.559936
#
# Coordination Sequence:
#
# PCOD9567850 Si02
#       7
#    16  16  16  16  16  16  16
#     4  11  24  39  67 103 144 184 234 299 373 450
#     4  10  22  41  70 102 136 179 242 310 372 437
#     4  11  26  41  70 101 131 186 241 286 368 436
#     4  11  24  45  67 101 143 184 233 304 377 443
#     4  11  22  41  63  99 136 176 232 288 360 427
#     4  11  25  43  64  89 137 187 238 288 340 437
#     4  11  22  36  64 101 141 177 220 292 370 432
#
# _framework density 21.927171999999999
#
# number of rings (size 3 to 8) (size 9 to 14) (size 15 to 20)
#    0.000    1.143    4.286    2.143    6.000    0.000 
#    0.000    0.000    0.000    0.000    0.000    0.000 
#    0.000    0.000    0.000    0.000    0.000    0.000 
#
# Total GULP energy -625029.618247 kJ/mol
# GULP energy per Si atom -5580.621591 kJ/mol
# Density = 2.187727 g / cm^3
# Si number density = 21.927172 Si / 1000 Ang^3
#
#
#
# Elastic Constant Matrix: (Units=GPa)
#
#
# Indices 1 2 3 4 5 6 
#
# 1 106.6498 42.1814 46.3255 0.0000 0.0000 0.0000
# 2 42.1814 106.6498 46.3255 0.0000 0.0000 0.0000
# 3 46.3255 46.3255 166.1811 0.0000 0.0000 0.0000
# 4 0.0000 0.0000 0.0000 38.7119 0.0000 0.0000
# 5 0.0000 0.0000 0.0000 0.0000 38.7119 0.0000
# 6 0.0000 0.0000 0.0000 0.0000 0.0000 27.6981
#
#
#
# Elastic Compliance Matrix: (Units=1/GPa)
#
#
# Indices 1 2 3 4 5 6 
#
# 1 0.011821 -0.003691 -0.002266 0.000000 0.000000 0.000000
# 2 -0.003691 0.011821 -0.002266 0.000000 0.000000 0.000000
# 3 -0.002266 -0.002266 0.007281 0.000000 0.000000 0.000000
# 4 0.000000 0.000000 0.000000 0.025832 0.000000 0.000000
# 5 0.000000 0.000000 0.000000 0.000000 0.025832 0.000000
# 6 0.000000 0.000000 0.000000 0.000000 0.000000 0.036104
#
#
# Mechanical properties :
#
#
# Convention : Reuss Voigt Hill
#
# Bulk Modulus (GPa) = 69.08222 72.12730 70.60476
# Shear Modulus (GPa) = 35.72406 37.33427 36.52917
#
# Velocity S-wave (km/s) = 4.04073 4.13079 4.08601
# Velocity P-wave (km/s) = 7.30368 7.46436 7.38446
#
# Compressibility (1/GPa) = 0.01447551
#
# Stress axis : x y z
#
# Youngs Moduli (GPa) = 84.59761 84.59761 137.34236
#
# Poissons Ratio (x) = 0.31223 0.31126
# Poissons Ratio (y) = 0.31223 0.31126
# Poissons Ratio (z) = 0.19173 0.19173
#
# Static dielectric constant tensor:
#      x y z
#    x 1.880800 0.000000 0.000000 
#    y 0.000000 1.880800 0.000000 
#    z 0.000000 0.000000 1.842510 
# 
# From -- ./inp_files/7248.got.cif
#   From: 2010.05.17/outbox.cif.g08.bks.cpg/sg133_4_cif.got.tgz:7248.got - 2010.05.20 12:37:36.
