data_PCOD9567956
_publ_section_title
;
Structure prediction by ZEFSAII (Michael W. Deem and Ramdas Pophale) SiO2 
 PCOD9567956
Probable space group: P 42/N B C
;
_chemical_formula_sum "Si O2"
_cell_formula_units_Z 100
_cell_length_a 14.390747
_cell_length_b 14.390747
_cell_length_c 24.304730
_cell_angle_alpha 90.000000
_cell_angle_beta 90.000000
_cell_angle_gamma 90.000000
_cell_volume 5033.354014
_symmetry_space_group_name_H-M "P 42/N B C"
_symmetry_group_IT_number 133
_space_group.IT_coordinate_system_code '2'
_symmetry_cell_setting 'tetragonal'
loop_
_space_group_symop_operation_xyz
x,y,z
1/2-y,x,1/2+z
1/2-x,1/2-y,z
y,1/2-x,1/2+z
x,1/2-y,-z
1/2-x,y,-z
y,x,1/2-z
1/2-y,1/2-x,1/2-z
-x,-y,-z
1/2+y,-x,1/2-z
1/2+x,1/2+y,-z
-y,1/2+x,1/2-z
-x,1/2+y,z
1/2+x,-y,z
-y,-x,1/2+z
1/2+y,1/2+x,1/2+z
loop_
_atom_site_type_symbol
_atom_site_label
_atom_site_fract_x
_atom_site_fract_y
_atom_site_fract_z
Si Si1 0.293719 0.522849 0.861262
Si Si2 0.659436 0.399250 0.574673
Si Si3 0.147381 0.610713 0.371320
Si Si4 0.250000 0.750000 0.500000
Si Si5 0.287148 0.144870 0.059798
Si Si6 0.186676 0.606056 0.252846
Si Si7 0.008448 0.396171 0.023242
O O1 0.381340 0.562696 0.895388
O O2 0.211259 0.598860 0.868518
O O3 0.265307 0.426211 0.890194
O O4 0.317201 0.532308 0.796812
O O5 0.742519 0.393577 0.617620
O O6 0.682715 0.313473 0.535169
O O7 0.660739 0.484377 0.532532
O O8 0.140205 0.570886 0.309578
O O9 0.109396 0.563236 0.426220
O O10 0.250000 0.250000 0.068692
O O11 0.396843 0.139801 0.049451
O O12 0.250000 0.111161 0.000000
O O13 0.135623 0.704549 0.239103
O O14 0.000000 0.500000 0.000000
#
# Coordination Sequence:
#
# PCOD9567956 Si02
#       7
#    16  16  16   4  16  16  16
#     4  11  20  39  63  94 131 167 204 262 327 405
#     4  12  20  32  59  93 129 156 202 259 329 389
#     4  11  21  35  62  98 131 158 201 267 330 393
#     4  12  20  28  52  98 128 152 184 248 334 380
#     4  11  27  44  63  89 126 175 224 270 327 391
#     4   9  18  33  59  96 132 161 194 250 330 395
#     4  12  24  40  61  92 124 170 218 275 324 391
#
# _framework density 19.867469
#
# number of rings (size 3 to 8) (size 9 to 14) (size 15 to 20)
#    0.000    0.960    6.400    0.960    5.600    0.000 
#    0.000    0.800    0.000    1.920    0.000    0.000 
#    0.000    0.000    0.000    0.000    0.000    0.000 
#
# Total GULP energy -557279.482751 kJ/mol
# GULP energy per Si atom -5572.794828 kJ/mol
# Density = 1.982225 g / cm^3
# Si number density = 19.867469 Si / 1000 Ang^3
#
#
#
# Elastic Constant Matrix: (Units=GPa)
#
#
# Indices 1 2 3 4 5 6 
#
# 1 69.2082 8.4929 35.6358 0.0000 0.0000 0.0000
# 2 8.4929 69.2082 35.6358 0.0000 0.0000 0.0000
# 3 35.6358 35.6358 168.3698 0.0000 0.0000 0.0000
# 4 0.0000 0.0000 0.0000 45.2411 0.0000 0.0000
# 5 0.0000 0.0000 0.0000 0.0000 45.2411 0.0000
# 6 0.0000 0.0000 0.0000 0.0000 0.0000 17.9229
#
#
#
# Elastic Compliance Matrix: (Units=1/GPa)
#
#
# Indices 1 2 3 4 5 6 
#
# 1 0.016220 -0.000250 -0.003380 0.000000 0.000000 0.000000
# 2 -0.000250 0.016220 -0.003380 0.000000 0.000000 0.000000
# 3 -0.003380 -0.003380 0.007370 0.000000 0.000000 0.000000
# 4 0.000000 0.000000 0.000000 0.022104 0.000000 0.000000
# 5 0.000000 0.000000 0.000000 0.000000 0.022104 0.000000
# 6 0.000000 0.000000 0.000000 0.000000 0.000000 0.055795
#
#
# Mechanical properties :
#
#
# Convention : Reuss Voigt Hill
#
# Bulk Modulus (GPa) = 38.77453 51.81282 45.29368
# Shear Modulus (GPa) = 30.78243 36.81580 33.79912
#
# Velocity S-wave (km/s) = 3.94050 4.30940 4.12907
# Velocity P-wave (km/s) = 6.34526 7.13422 6.75127
#
# Compressibility (1/GPa) = 0.02579012
#
# Stress axis : x y z
#
# Youngs Moduli (GPa) = 61.65115 61.65115 135.68271
#
# Poissons Ratio (x) = 0.01541 0.45863
# Poissons Ratio (y) = 0.01541 0.45863
# Poissons Ratio (z) = 0.20839 0.20839
#
# Static dielectric constant tensor:
#      x y z
#    x 1.401730 0.000000 0.000000 
#    y 0.000000 1.401730 0.000000 
#    z 0.000000 0.000000 1.743180 
# 
# From -- ./inp_files/7194.got.cif
#   From: 2010.05.17/outbox.cif.g08.bks.cpg/sg133_4_cif.got.tgz:7194.got - 2010.05.20 12:37:36.
