data_PCOD9567385
_publ_section_title
;
Structure prediction by ZEFSAII (Michael W. Deem and Ramdas Pophale) SiO2 
 PCOD9567385
Probable space group: P 42/M C M
;
_chemical_formula_sum "Si O2"
_cell_formula_units_Z 58
_cell_length_a 18.850583
_cell_length_b 18.850583
_cell_length_c 7.793927
_cell_angle_alpha 90.000000
_cell_angle_beta 90.000000
_cell_angle_gamma 90.000000
_cell_volume 2769.528933
_symmetry_space_group_name_H-M "P 42/M C M"
_symmetry_group_IT_number 132
_symmetry_cell_setting 'tetragonal'
loop_
_space_group_symop_operation_xyz
x,y,z
-y,x,1/2+z
-x,-y,z
y,-x,1/2+z
x,-y,1/2-z
-x,y,1/2-z
y,x,-z
-y,-x,-z
-x,-y,-z
y,-x,1/2-z
x,y,-z
-y,x,1/2-z
-x,y,1/2+z
x,-y,1/2+z
-y,-x,z
y,x,z
loop_
_atom_site_type_symbol
_atom_site_label
_atom_site_fract_x
_atom_site_fract_y
_atom_site_fract_z
Si Si1 0.116214 0.883787 0.287997
Si Si2 0.147398 0.420875 0.196183
Si Si3 0.918539 0.277101 0.705762
Si Si4 0.423348 0.690191 0.794941
Si Si5 0.000000 0.000000 0.750000
O O1 0.108363 0.891637 0.500000
O O2 0.197648 0.898553 0.236554
O O3 0.060580 0.939421 0.204619
O O4 0.123713 0.500000 0.250000
O O5 0.120660 0.347185 0.278201
O O6 0.232337 0.420017 0.212947
O O7 0.125466 0.416547 0.000000
O O8 0.907144 0.274599 0.500000
O O9 0.000000 0.287546 0.750000
O O10 0.500000 0.658654 0.750000
O O11 0.360420 0.639581 0.736540
O O12 0.418985 0.698979 0.000000
#
# Coordination Sequence:
#
# PCOD9567385 Si02
#       5
#     8  16  16  16   2
#     4  10  21  37  57  86 119 151 193 235 288 351
#     4  10  21  37  60  84 113 152 190 236 290 342
#     4  10  22  39  59  85 115 150 191 236 284 342
#     4  10  21  36  55  81 112 146 188 234 282 339
#     4  12  18  36  68  82 120 156 190 240 298 336
#
# _framework density 20.942191000000001
#
# number of rings (size 3 to 8) (size 9 to 14) (size 15 to 20)
#    0.000    1.931    1.379    3.517    1.931    5.241 
#    0.000    4.828    0.000    0.000    0.000    0.000 
#    0.000    0.000    0.000    0.000    0.000    0.000 
#
# Total GULP energy -323044.638311 kJ/mol
# GULP energy per Si atom -5569.735143 kJ/mol
# Density = 2.089453 g / cm^3
# Si number density = 20.942191 Si / 1000 Ang^3
#
#
#
# Elastic Constant Matrix: (Units=GPa)
#
#
# Indices 1 2 3 4 5 6 
#
# 1 146.0732 77.4515 -3.3500 0.0000 0.0000 0.0000
# 2 77.4515 146.0731 -3.3500 0.0000 0.0000 0.0000
# 3 -3.3500 -3.3500 24.9335 0.0000 0.0000 0.0000
# 4 0.0000 0.0000 0.0000 11.7196 0.0000 0.0000
# 5 0.0000 0.0000 0.0000 0.0000 11.7195 0.0000
# 6 0.0000 0.0000 0.0000 0.0000 0.0000 49.6036
#
#
#
# Elastic Compliance Matrix: (Units=1/GPa)
#
#
# Indices 1 2 3 4 5 6 
#
# 1 0.009532 -0.005040 0.000603 0.000000 0.000000 0.000000
# 2 -0.005040 0.009532 0.000604 0.000000 0.000000 0.000000
# 3 0.000603 0.000604 0.040269 0.000000 0.000000 0.000000
# 4 0.000000 0.000000 0.000000 0.085327 0.000000 0.000000
# 5 0.000000 0.000000 0.000000 0.000000 0.085328 0.000000
# 6 0.000000 0.000000 0.000000 0.000000 0.000000 0.020160
#
#
# Mechanical properties :
#
#
# Convention : Reuss Voigt Hill
#
# Bulk Modulus (GPa) = 19.35486 50.95366 35.15426
# Shear Modulus (GPa) = 18.17938 31.03043 24.60490
#
# Velocity S-wave (km/s) = 2.94951 3.85349 3.43139
# Velocity P-wave (km/s) = 4.56745 6.64700 5.70281
#
# Compressibility (1/GPa) = 0.05166662
#
# Stress axis : x y z
#
# Youngs Moduli (GPa) = 104.90686 104.90683 24.83310
#
# Poissons Ratio (x) = 0.52877 -0.01499
# Poissons Ratio (y) = 0.52877 -0.01499
# Poissons Ratio (z) = -0.06331 -0.06331
#
# Static dielectric constant tensor:
#      x y z
#    x 1.757780 0.000000 0.000000 
#    y 0.000000 1.757780 0.000000 
#    z 0.000000 0.000000 1.827640 
# 
# From -- ./inp_files/1041.got.cif
#   From: 2010.05.17/outbox.cif.g08.bks.cpg/sg132_1_cif.got.tgz:1041.got - 2010.05.20 12:30:18.
