data_PCOD9567073
_publ_section_title
;
Structure prediction by ZEFSAII (Michael W. Deem and Ramdas Pophale) SiO2 
 PCOD9567073
Probable space group: P 42/M C M
;
_chemical_formula_sum "Si O2"
_cell_formula_units_Z 64
_cell_length_a 20.519320
_cell_length_b 20.519320
_cell_length_c 7.718205
_cell_angle_alpha 90.000000
_cell_angle_beta 90.000000
_cell_angle_gamma 90.000000
_cell_volume 3249.692277
_symmetry_space_group_name_H-M "P 42/M C M"
_symmetry_group_IT_number 132
_symmetry_cell_setting 'tetragonal'
loop_
_space_group_symop_operation_xyz
x,y,z
-y,x,1/2+z
-x,-y,z
y,-x,1/2+z
x,-y,1/2-z
-x,y,1/2-z
y,x,-z
-y,-x,-z
-x,-y,-z
y,-x,1/2-z
x,y,-z
-y,x,1/2-z
-x,y,1/2+z
x,-y,1/2+z
-y,-x,z
y,x,z
loop_
_atom_site_type_symbol
_atom_site_label
_atom_site_fract_x
_atom_site_fract_y
_atom_site_fract_z
Si Si1 0.280096 0.072578 0.291072
Si Si2 0.431623 0.762881 0.294510
Si Si3 0.573369 0.910113 0.307112
Si Si4 0.192010 0.192010 0.301044
Si Si5 0.703161 0.703161 0.208939
O O1 0.284201 0.082214 0.500000
O O2 0.355553 0.076060 0.221935
O O3 0.229845 0.128393 0.225695
O O4 0.256251 0.000000 0.250000
O O5 0.500000 0.730608 0.250000
O O6 0.428957 0.776905 0.500000
O O7 0.428984 0.831794 0.197956
O O8 0.369790 0.721250 0.244689
O O9 0.500000 0.929271 0.250000
O O10 0.578591 0.937173 0.500000
O O11 0.175042 0.175042 0.500000
O O12 0.247260 0.247260 0.295690
O O13 0.710460 0.710460 0.000000
#
# Coordination Sequence:
#
# PCOD9567073 Si02
#       5
#    16  16  16   8   8
#     4  10  22  37  56  79 107 141 177 217 263 312
#     4  10  19  31  48  74 105 137 174 217 264 312
#     4  10  19  32  50  75 107 145 178 213 255 304
#     4  10  20  38  58  79 106 137 175 216 261 315
#     4  10  20  32  52  79 104 135 175 224 267 307
#
# _framework density 19.694171999999998
#
# number of rings (size 3 to 8) (size 9 to 14) (size 15 to 20)
#    0.000    2.000    2.500    3.000    0.000    4.500 
#    0.000    2.500    0.000    0.750    0.000    5.250 
#    0.000    0.000    0.000    0.000    0.000    0.000 
#
# Total GULP energy -356604.849955 kJ/mol
# GULP energy per Si atom -5571.950781 kJ/mol
# Density = 1.964935 g / cm^3
# Si number density = 19.694172 Si / 1000 Ang^3
#
#
#
# Elastic Constant Matrix: (Units=GPa)
#
#
# Indices 1 2 3 4 5 6 
#
# 1 146.3575 82.7638 7.8586 0.0000 0.0000 0.0000
# 2 82.7638 146.3575 7.8586 0.0000 0.0000 0.0000
# 3 7.8586 7.8586 31.2779 0.0000 0.0000 0.0000
# 4 0.0000 0.0000 0.0000 18.4266 0.0000 0.0000
# 5 0.0000 0.0000 0.0000 0.0000 18.4266 0.0000
# 6 0.0000 0.0000 0.0000 0.0000 0.0000 17.4554
#
#
#
# Elastic Compliance Matrix: (Units=1/GPa)
#
#
# Indices 1 2 3 4 5 6 
#
# 1 0.010083 -0.005642 -0.001116 0.000000 0.000000 0.000000
# 2 -0.005642 0.010083 -0.001116 0.000000 0.000000 0.000000
# 3 -0.001116 -0.001116 0.032532 0.000000 0.000000 0.000000
# 4 0.000000 0.000000 0.000000 0.054269 0.000000 0.000000
# 5 0.000000 0.000000 0.000000 0.000000 0.054269 0.000000
# 6 0.000000 0.000000 0.000000 0.000000 0.000000 0.057289
#
#
# Mechanical properties :
#
#
# Convention : Reuss Voigt Hill
#
# Bulk Modulus (GPa) = 27.06285 57.88386 42.47335
# Shear Modulus (GPa) = 20.27661 25.89586 23.08623
#
# Velocity S-wave (km/s) = 3.21218 3.63009 3.42751
# Velocity P-wave (km/s) = 5.24679 6.85749 6.10549
#
# Compressibility (1/GPa) = 0.03695103
#
# Stress axis : x y z
#
# Youngs Moduli (GPa) = 99.17742 99.17742 30.73879
#
# Poissons Ratio (x) = 0.55955 0.03430
# Poissons Ratio (y) = 0.55955 0.03430
# Poissons Ratio (z) = 0.11066 0.11066
#
# Static dielectric constant tensor:
#      x y z
#    x 1.701060 0.000000 0.000000 
#    y 0.000000 1.701060 0.000000 
#    z 0.000000 0.000000 1.780220 
# 
# From -- ./inp_files/1289.got.cif
#   From: 2010.05.17/outbox.cif.g08.bks.cpg/sg132_1_cif.got.tgz:1289.got - 2010.05.20 12:30:18.
