data_PCOD9567202
_publ_section_title
;
Structure prediction by ZEFSAII (Michael W. Deem and Ramdas Pophale) SiO2 
 PCOD9567202
Probable space group: P 42/M C M
;
_chemical_formula_sum "Si O2"
_cell_formula_units_Z 112
_cell_length_a 14.284966
_cell_length_b 14.284966
_cell_length_c 28.945178
_cell_angle_alpha 90.000000
_cell_angle_beta 90.000000
_cell_angle_gamma 90.000000
_cell_volume 5906.560364
_symmetry_space_group_name_H-M "P 42/M C M"
_symmetry_group_IT_number 132
_symmetry_cell_setting 'tetragonal'
loop_
_space_group_symop_operation_xyz
x,y,z
-y,x,1/2+z
-x,-y,z
y,-x,1/2+z
x,-y,1/2-z
-x,y,1/2-z
y,x,-z
-y,-x,-z
-x,-y,-z
y,-x,1/2-z
x,y,-z
-y,x,1/2-z
-x,y,1/2+z
x,-y,1/2+z
-y,-x,z
y,x,z
loop_
_atom_site_type_symbol
_atom_site_label
_atom_site_fract_x
_atom_site_fract_y
_atom_site_fract_z
Si Si1 0.857084 0.702810 0.140294
Si Si2 0.879809 0.601063 0.949401
Si Si3 0.994142 0.146887 0.861447
Si Si4 0.895080 0.380089 0.948529
Si Si5 0.193975 0.655428 0.852052
Si Si6 0.519627 0.890550 0.804583
Si Si7 0.224724 0.918323 0.223675
O O1 0.780804 0.780804 0.152001
O O2 0.830855 0.650204 0.093234
O O3 0.868983 0.625474 0.179905
O O4 0.954993 0.755637 0.128792
O O5 0.866753 0.489582 0.947357
O O6 0.991935 0.618177 0.945516
O O7 0.850094 0.635097 0.000000
O O8 0.893881 0.106120 0.878792
O O9 0.981505 0.153300 0.806263
O O10 0.069626 0.069626 0.875078
O O11 0.847649 0.334921 0.903669
O O12 0.870709 0.342671 0.000000
O O13 0.296603 0.703398 0.850695
O O14 0.176060 0.549948 0.834100
O O15 0.132425 0.713292 0.814838
O O16 0.500000 0.877925 0.750000
O O17 0.500000 0.000000 0.816601
O O18 0.163839 0.836162 0.247108
O O19 0.279630 0.000000 0.250000
#
# Coordination Sequence:
#
# PCOD9567202 Si02
#       7
#    16  16  16  16  16  16  16
#     4  11  22  36  59  87 116 153 201 248 288 353
#     4   9  17  32  56  85 115 148 187 237 292 346
#     4   9  18  31  47  71 107 149 188 226 271 327
#     4   9  17  33  59  85 113 151 192 235 295 363
#     4  11  23  36  55  84 118 150 190 250 305 353
#     4  11  24  40  60  82 115 158 200 244 300 354
#     4  10  20  31  47  73 109 150 188 227 278 338
#
# _framework density 18.961967000000001
#
# number of rings (size 3 to 8) (size 9 to 14) (size 15 to 20)
#    0.000    2.000    1.429    3.857    4.000    1.857 
#    0.000    0.000    0.000    1.714    0.000    3.000 
#    0.000    2.286    0.000   10.286    0.000    0.000 
#
# Total GULP energy -623779.148615 kJ/mol
# GULP energy per Si atom -5569.456684 kJ/mol
# Density = 1.891881 g / cm^3
# Si number density = 18.961967 Si / 1000 Ang^3
#
#
#
# Elastic Constant Matrix: (Units=GPa)
#
#
# Indices 1 2 3 4 5 6 
#
# 1 83.3672 38.0354 33.6865 0.0000 0.0000 0.0000
# 2 38.0354 83.3672 33.6865 0.0000 0.0000 0.0000
# 3 33.6865 33.6865 103.1832 0.0000 0.0000 0.0000
# 4 0.0000 0.0000 0.0000 16.6896 0.0000 0.0000
# 5 0.0000 0.0000 0.0000 0.0000 16.6896 0.0000
# 6 0.0000 0.0000 0.0000 0.0000 0.0000 22.4771
#
#
#
# Elastic Compliance Matrix: (Units=1/GPa)
#
#
# Indices 1 2 3 4 5 6 
#
# 1 0.016060 -0.006000 -0.003284 0.000000 0.000000 0.000000
# 2 -0.006000 0.016060 -0.003284 0.000000 0.000000 0.000000
# 3 -0.003284 -0.003284 0.011836 0.000000 0.000000 0.000000
# 4 0.000000 0.000000 0.000000 0.059918 0.000000 0.000000
# 5 0.000000 0.000000 0.000000 0.000000 0.059918 0.000000
# 6 0.000000 0.000000 0.000000 0.000000 0.000000 0.044490
#
#
# Mechanical properties :
#
#
# Convention : Reuss Voigt Hill
#
# Bulk Modulus (GPa) = 53.13951 53.41493 53.27722
# Shear Modulus (GPa) = 20.86030 22.13852 21.49941
#
# Velocity S-wave (km/s) = 3.32039 3.42061 3.37087
# Velocity P-wave (km/s) = 6.54103 6.62053 6.58090
#
# Compressibility (1/GPa) = 0.01881839
#
# Stress axis : x y z
#
# Youngs Moduli (GPa) = 62.26802 62.26802 84.48871
#
# Poissons Ratio (x) = 0.37361 0.27748
# Poissons Ratio (y) = 0.37361 0.27748
# Poissons Ratio (z) = 0.20450 0.20450
#
# Static dielectric constant tensor:
#      x y z
#    x 1.712340 0.000000 0.000000 
#    y 0.000000 1.712340 0.000000 
#    z 0.000000 0.000000 1.733250 
# 
# From -- ./inp_files/11056.got.cif
#   From: 2010.05.17/outbox.cif.g08.bks.cpg/sg132_6_cif.got.tgz:11056.got - 2010.05.20 12:30:18.
