data_PCOD9567082
_publ_section_title
;
Structure prediction by ZEFSAII (Michael W. Deem and Ramdas Pophale) SiO2 
 PCOD9567082
Probable space group: P 42/M C M
;
_chemical_formula_sum "Si O2"
_cell_formula_units_Z 128
_cell_length_a 19.202637
_cell_length_b 19.202637
_cell_length_c 18.592658
_cell_angle_alpha 90.000000
_cell_angle_beta 90.000000
_cell_angle_gamma 90.000000
_cell_volume 6855.880282
_symmetry_space_group_name_H-M "P 42/M C M"
_symmetry_group_IT_number 132
_symmetry_cell_setting 'tetragonal'
loop_
_space_group_symop_operation_xyz
x,y,z
-y,x,1/2+z
-x,-y,z
y,-x,1/2+z
x,-y,1/2-z
-x,y,1/2-z
y,x,-z
-y,-x,-z
-x,-y,-z
y,-x,1/2-z
x,y,-z
-y,x,1/2-z
-x,y,1/2+z
x,-y,1/2+z
-y,-x,z
y,x,z
loop_
_atom_site_type_symbol
_atom_site_label
_atom_site_fract_x
_atom_site_fract_y
_atom_site_fract_z
Si Si1 0.431121 0.317664 0.198867
Si Si2 0.328790 0.011465 0.585857
Si Si3 0.227615 0.630506 0.083140
Si Si4 0.358047 0.465936 0.414191
Si Si5 0.467426 0.906943 0.918096
Si Si6 0.563945 0.843852 0.803736
Si Si7 0.250578 0.856737 0.846815
Si Si8 0.301556 0.075648 0.785118
O O1 0.500000 0.322596 0.250000
O O2 0.367230 0.367230 0.222023
O O3 0.461908 0.344720 0.123744
O O4 0.412995 0.236346 0.187055
O O5 0.327036 0.003069 0.500000
O O6 0.408573 0.036365 0.605114
O O7 0.278660 0.076189 0.609078
O O8 0.302776 0.943950 0.630385
O O9 0.296453 0.588859 0.105373
O O10 0.165262 0.575258 0.082414
O O11 0.201980 0.691414 0.134965
O O12 0.235476 0.654887 0.000000
O O13 0.355759 0.472006 0.500000
O O14 0.430458 0.430458 0.392872
O O15 0.534055 0.887625 0.870827
O O16 0.487621 0.922471 0.000000
O O17 0.500000 0.840667 0.750000
O O18 0.625942 0.886894 0.769785
O O19 0.177305 0.822696 0.868452
O O20 0.248916 0.878536 0.762564
O O21 0.300409 0.000000 0.750000
#
# Coordination Sequence:
#
# PCOD9567082 Si02
#       8
#    16  16  16  16  16  16  16  16
#     4  11  25  40  54  72  99 137 186 242 297 348
#     4   9  19  35  54  80 114 148 181 221 274 333
#     4   9  16  29  48  76 107 130 164 224 290 339
#     4  10  20  34  54  75  94 124 170 229 299 358
#     4   9  17  31  52  75 100 132 177 228 274 330
#     4  11  21  34  52  72  97 135 181 230 278 337
#     4  10  19  31  53  82 112 145 181 222 266 318
#     4  10  22  36  51  77 114 147 175 217 274 331
#
# _framework density 18.670105
#
# number of rings (size 3 to 8) (size 9 to 14) (size 15 to 20)
#    0.000    2.125    1.250    4.125    1.750    5.375 
#    0.000    1.875    0.000    0.375    0.000    1.750 
#    0.000   20.250    0.000   10.125    0.000    0.000 
#
# Total GULP energy -713567.795613 kJ/mol
# GULP energy per Si atom -5574.748403 kJ/mol
# Density = 1.862761 g / cm^3
# Si number density = 18.670105 Si / 1000 Ang^3
#
#
#
# Elastic Constant Matrix: (Units=GPa)
#
#
# Indices 1 2 3 4 5 6 
#
# 1 33.7182 36.6529 16.3347 0.0000 0.0000 0.0000
# 2 36.6529 33.7182 16.3347 0.0000 0.0000 0.0000
# 3 16.3347 16.3347 71.7579 0.0000 0.0000 0.0000
# 4 0.0000 0.0000 0.0000 -56.6874 0.0000 0.0000
# 5 0.0000 0.0000 0.0000 0.0000 -56.6874 0.0000
# 6 0.0000 0.0000 0.0000 0.0000 0.0000 2.7562
#
#
#
# Elastic Compliance Matrix: (Units=1/GPa)
#
#
# Indices 1 2 3 4 5 6 
#
# 1 -0.162433 0.178322 -0.003617 0.000000 0.000000 0.000000
# 2 0.178322 -0.162433 -0.003617 0.000000 0.000000 0.000000
# 3 -0.003617 -0.003617 0.015582 0.000000 0.000000 0.000000
# 4 0.000000 0.000000 0.000000 -0.017641 0.000000 0.000000
# 5 0.000000 0.000000 0.000000 0.000000 -0.017641 0.000000
# 6 0.000000 0.000000 0.000000 0.000000 0.000000 0.362817
#
#
# Mechanical properties :
#
#
# Convention : Reuss Voigt Hill
#
# Bulk Modulus (GPa) = 30.40118 30.87099 30.63609
# Shear Modulus (GPa) = -15.97656 -17.46557 -16.72107
#
# Velocity S-wave (km/s) = -2.92846 -3.06189 -2.99592
# Velocity P-wave (km/s) = 2.21002 2.01760 2.11600
#
# Compressibility (1/GPa) = 0.03289346
#
# Stress axis : x y z
#
# Youngs Moduli (GPa) = -6.15640 -6.15640 64.17461
#
# Poissons Ratio (x) = 1.09782 0.23212
# Poissons Ratio (y) = 1.09782 0.23212
# Poissons Ratio (z) = -0.02227 -0.02227
#
# Static dielectric constant tensor:
#      x y z
#    x 1.659210 0.000000 0.000000 
#    y 0.000000 1.659210 0.000000 
#    z 0.000000 0.000000 1.745320 
# 
# From -- ./inp_files/6895.got.cif
#   From: 2010.05.17/outbox.cif.g08.bks.cpg/sg132_4_cif.got.tgz:6895.got - 2010.05.20 12:30:18.
