data_PCOD9567220
_publ_section_title
;
Structure prediction by ZEFSAII (Michael W. Deem and Ramdas Pophale) SiO2 
 PCOD9567220
Probable space group: P 42/M C M
;
_chemical_formula_sum "Si O2"
_cell_formula_units_Z 112
_cell_length_a 17.377109
_cell_length_b 17.377109
_cell_length_c 18.867521
_cell_angle_alpha 90.000000
_cell_angle_beta 90.000000
_cell_angle_gamma 90.000000
_cell_volume 5697.310549
_symmetry_space_group_name_H-M "P 42/M C M"
_symmetry_group_IT_number 132
_symmetry_cell_setting 'tetragonal'
loop_
_space_group_symop_operation_xyz
x,y,z
-y,x,1/2+z
-x,-y,z
y,-x,1/2+z
x,-y,1/2-z
-x,y,1/2-z
y,x,-z
-y,-x,-z
-x,-y,-z
y,-x,1/2-z
x,y,-z
-y,x,1/2-z
-x,y,1/2+z
x,-y,1/2+z
-y,-x,z
y,x,z
loop_
_atom_site_type_symbol
_atom_site_label
_atom_site_fract_x
_atom_site_fract_y
_atom_site_fract_z
Si Si1 0.078632 0.208061 0.205822
Si Si2 0.494717 0.624914 0.665451
Si Si3 0.410115 0.900170 0.919633
Si Si4 0.611784 0.741193 0.365849
Si Si5 0.979329 0.293341 0.579224
Si Si6 0.207837 0.663025 0.713429
Si Si7 0.150220 0.576352 0.418632
O O1 0.134540 0.134540 0.213686
O O2 0.131661 0.283562 0.222338
O O3 0.000000 0.203150 0.250000
O O4 0.049979 0.223178 0.125854
O O5 0.500000 0.639818 0.750000
O O6 0.411656 0.588345 0.648874
O O7 0.556806 0.556806 0.653176
O O8 0.530834 0.697176 0.625566
O O9 0.381333 0.812915 0.916988
O O10 0.344576 0.952919 0.885380
O O11 0.498012 0.892942 0.894011
O O12 0.416816 0.930023 0.000000
O O13 0.679709 0.679709 0.374394
O O14 0.618305 0.774709 0.286084
O O15 0.002003 0.268755 0.500000
O O16 0.910677 0.354790 0.574465
O O17 0.277390 0.722611 0.702154
O O18 0.202194 0.607206 0.645799
O O19 0.180460 0.563230 0.500000
#
# Coordination Sequence:
#
# PCOD9567220 Si02
#       7
#    16  16  16  16  16  16  16
#     4  10  20  35  56  82 112 143 172 207 259 319
#     4   8  15  28  45  65  88 120 166 214 256 297
#     4  10  20  33  51  74 101 136 175 216 266 317
#     4  10  20  32  48  71 100 133 172 220 264 308
#     4   9  18  35  57  79 104 136 176 217 254 304
#     4   9  19  33  50  76 107 139 177 220 267 319
#     4   9  18  32  51  75 103 135 172 216 266 318
#
# _framework density 19.658398999999999
#
# number of rings (size 3 to 8) (size 9 to 14) (size 15 to 20)
#    0.000    2.714    0.000    1.714    2.000    2.714 
#    0.000    2.857    0.000    5.143    0.000    3.000 
#    0.000    0.000    0.000    5.571    0.000    0.143 
#
# Total GULP energy -623814.103196 kJ/mol
# GULP energy per Si atom -5569.768779 kJ/mol
# Density = 1.961366 g / cm^3
# Si number density = 19.658399 Si / 1000 Ang^3
#
#
#
# Elastic Constant Matrix: (Units=GPa)
#
#
# Indices 1 2 3 4 5 6 
#
# 1 55.9507 20.8498 17.0176 0.0000 0.0000 0.0000
# 2 20.8498 55.9507 17.0176 0.0000 0.0000 0.0000
# 3 17.0176 17.0176 45.8562 0.0000 0.0000 0.0000
# 4 0.0000 0.0000 0.0000 18.6364 0.0000 0.0000
# 5 0.0000 0.0000 0.0000 0.0000 18.6364 0.0000
# 6 0.0000 0.0000 0.0000 0.0000 0.0000 22.6578
#
#
#
# Elastic Compliance Matrix: (Units=1/GPa)
#
#
# Indices 1 2 3 4 5 6 
#
# 1 0.022037 -0.006453 -0.005783 0.000000 0.000000 0.000000
# 2 -0.006453 0.022037 -0.005783 0.000000 0.000000 0.000000
# 3 -0.005783 -0.005783 0.026100 0.000000 0.000000 0.000000
# 4 0.000000 0.000000 0.000000 0.053658 0.000000 0.000000
# 5 0.000000 0.000000 0.000000 0.000000 0.053658 0.000000
# 6 0.000000 0.000000 0.000000 0.000000 0.000000 0.044135
#
#
# Mechanical properties :
#
#
# Convention : Reuss Voigt Hill
#
# Bulk Modulus (GPa) = 29.29620 29.72530 29.51075
# Shear Modulus (GPa) = 18.58452 18.84429 18.71440
#
# Velocity S-wave (km/s) = 3.07803 3.09946 3.08876
# Velocity P-wave (km/s) = 5.25046 5.28797 5.26925
#
# Compressibility (1/GPa) = 0.03413412
#
# Stress axis : x y z
#
# Youngs Moduli (GPa) = 45.37925 45.37925 38.31459
#
# Poissons Ratio (x) = 0.29282 0.22158
# Poissons Ratio (y) = 0.29282 0.22158
# Poissons Ratio (z) = 0.26244 0.26244
#
# Static dielectric constant tensor:
#      x y z
#    x 1.716090 0.000000 0.000000 
#    y 0.000000 1.716090 0.000000 
#    z 0.000000 0.000000 1.706490 
# 
# From -- ./inp_files/8149.got.cif
#   From: 2010.05.17/outbox.cif.g08.bks.cpg/sg132_5_cif.got.tgz:8149.got - 2010.05.20 12:30:18.
