data_PCOD9567084
_publ_section_title
;
Structure prediction by ZEFSAII (Michael W. Deem and Ramdas Pophale) SiO2 
 PCOD9567084
Probable space group: P 42/M C M
;
_chemical_formula_sum "Si O2"
_cell_formula_units_Z 112
_cell_length_a 14.510231
_cell_length_b 14.510231
_cell_length_c 30.275372
_cell_angle_alpha 90.000000
_cell_angle_beta 90.000000
_cell_angle_gamma 90.000000
_cell_volume 6374.382805
_symmetry_space_group_name_H-M "P 42/M C M"
_symmetry_group_IT_number 132
_symmetry_cell_setting 'tetragonal'
loop_
_space_group_symop_operation_xyz
x,y,z
-y,x,1/2+z
-x,-y,z
y,-x,1/2+z
x,-y,1/2-z
-x,y,1/2-z
y,x,-z
-y,-x,-z
-x,-y,-z
y,-x,1/2-z
x,y,-z
-y,x,1/2-z
-x,y,1/2+z
x,-y,1/2+z
-y,-x,z
y,x,z
loop_
_atom_site_type_symbol
_atom_site_label
_atom_site_fract_x
_atom_site_fract_y
_atom_site_fract_z
Si Si1 0.610374 0.986651 0.451944
Si Si2 0.006716 0.387728 0.144869
Si Si3 0.166940 0.686318 0.706754
Si Si4 0.383223 0.768609 0.948974
Si Si5 0.506621 0.644558 0.103267
Si Si6 0.174704 0.673613 0.808038
Si Si7 0.508776 0.701828 0.201853
O O1 0.646820 0.017907 0.500000
O O2 0.631063 0.877679 0.447057
O O3 0.500000 0.000000 0.453691
O O4 0.638173 0.031048 0.405583
O O5 0.082137 0.345675 0.177428
O O6 0.000000 0.500000 0.148857
O O7 0.908588 0.345338 0.159039
O O8 0.220934 0.779067 0.693280
O O9 0.140361 0.695580 0.758363
O O10 0.240545 0.602999 0.703300
O O11 0.292307 0.707694 0.937980
O O12 0.467136 0.737926 0.917363
O O13 0.407613 0.746607 0.000000
O O14 0.430810 0.569191 0.089149
O O15 0.605595 0.605595 0.088626
O O16 0.506917 0.647626 0.156238
O O17 0.246514 0.753486 0.821573
O O18 0.230810 0.578659 0.802724
O O19 0.500000 0.655137 0.250000
#
# Coordination Sequence:
#
# PCOD9567084 Si02
#       7
#    16  16  16  16  16  16  16
#     4   9  19  33  49  73 101 126 162 215 273 317
#     4  11  20  33  57  81 102 138 181 223 265 315
#     4  10  21  34  50  76 109 142 175 217 263 312
#     4   9  18  33  52  71  95 129 167 213 265 311
#     4  10  20  30  42  64  94 131 175 213 245 296
#     4  10  20  33  52  79 108 136 175 224 267 308
#     4  10  19  32  47  66  98 136 173 212 258 304
#
# _framework density 17.570328
#
# number of rings (size 3 to 8) (size 9 to 14) (size 15 to 20)
#    0.000    2.143    1.429    2.143    2.000    4.286 
#    0.000    2.143    0.000    0.857    0.000    2.000 
#    0.000    0.000    0.000    4.857    0.000    0.143 
#
# Total GULP energy -624092.186933 kJ/mol
# GULP energy per Si atom -5572.251669 kJ/mol
# Density = 1.753034 g / cm^3
# Si number density = 17.570328 Si / 1000 Ang^3
#
#
#
# Elastic Constant Matrix: (Units=GPa)
#
#
# Indices 1 2 3 4 5 6 
#
# 1 37.5425 14.4099 16.5184 0.0000 0.0000 0.0000
# 2 14.4099 37.5425 16.5184 0.0000 0.0000 0.0000
# 3 16.5184 16.5184 85.4518 0.0000 0.0000 0.0000
# 4 0.0000 0.0000 0.0000 4.0405 0.0000 0.0000
# 5 0.0000 0.0000 0.0000 0.0000 4.0405 0.0000
# 6 0.0000 0.0000 0.0000 0.0000 0.0000 20.9947
#
#
#
# Elastic Compliance Matrix: (Units=1/GPa)
#
#
# Indices 1 2 3 4 5 6 
#
# 1 0.032588 -0.010642 -0.004242 0.000000 0.000000 0.000000
# 2 -0.010642 0.032588 -0.004242 0.000000 0.000000 0.000000
# 3 -0.004242 -0.004242 0.013343 0.000000 0.000000 0.000000
# 4 0.000000 0.000000 0.000000 0.247495 0.000000 0.000000
# 5 0.000000 0.000000 0.000000 0.000000 0.247495 0.000000
# 6 0.000000 0.000000 0.000000 0.000000 0.000000 0.047631
#
#
# Mechanical properties :
#
#
# Convention : Reuss Voigt Hill
#
# Bulk Modulus (GPa) = 24.83513 28.38114 26.60813
# Shear Modulus (GPa) = 7.43148 13.35447 10.39298
#
# Velocity S-wave (km/s) = 2.05882 2.75991 2.43473
# Velocity P-wave (km/s) = 4.45163 5.13265 4.80422
#
# Compressibility (1/GPa) = 0.04026554
#
# Stress axis : x y z
#
# Youngs Moduli (GPa) = 30.68650 30.68650 74.94765
#
# Poissons Ratio (x) = 0.32655 0.31795
# Poissons Ratio (y) = 0.32655 0.31795
# Poissons Ratio (z) = 0.13018 0.13018
#
# Static dielectric constant tensor:
#      x y z
#    x 1.598120 0.000000 0.000000 
#    y 0.000000 1.598120 0.000000 
#    z 0.000000 0.000000 1.655120 
# 
# From -- ./inp_files/10973.got.cif
#   From: 2010.05.17/outbox.cif.g08.bks.cpg/sg132_6_cif.got.tgz:10973.got - 2010.05.20 12:30:18.
