data_PCOD9567123
_publ_section_title
;
Structure prediction by ZEFSAII (Michael W. Deem and Ramdas Pophale) SiO2 
 PCOD9567123
Probable space group: P 42/M C M
;
_chemical_formula_sum "Si O2"
_cell_formula_units_Z 96
_cell_length_a 24.144682
_cell_length_b 24.144682
_cell_length_c 9.186164
_cell_angle_alpha 90.000000
_cell_angle_beta 90.000000
_cell_angle_gamma 90.000000
_cell_volume 5355.218241
_symmetry_space_group_name_H-M "P 42/M C M"
_symmetry_group_IT_number 132
_symmetry_cell_setting 'tetragonal'
loop_
_space_group_symop_operation_xyz
x,y,z
-y,x,1/2+z
-x,-y,z
y,-x,1/2+z
x,-y,1/2-z
-x,y,1/2-z
y,x,-z
-y,-x,-z
-x,-y,-z
y,-x,1/2-z
x,y,-z
-y,x,1/2-z
-x,y,1/2+z
x,-y,1/2+z
-y,-x,z
y,x,z
loop_
_atom_site_type_symbol
_atom_site_label
_atom_site_fract_x
_atom_site_fract_y
_atom_site_fract_z
Si Si1 0.554400 0.920114 0.834215
Si Si2 0.046063 0.337484 0.661873
Si Si3 0.443579 0.786297 0.332233
Si Si4 0.246804 0.137866 0.332229
Si Si5 0.230854 0.318193 0.828007
Si Si6 0.846733 0.061530 0.324846
O O1 0.500000 0.937647 0.750000
O O2 0.607914 0.940894 0.751125
O O3 0.555914 0.853249 0.832498
O O4 0.552938 0.938622 0.000000
O O5 0.027258 0.350282 0.500000
O O6 0.098696 0.299708 0.657315
O O7 0.000000 0.304473 0.750000
O O8 0.500000 0.768533 0.250000
O O9 0.446800 0.767294 0.500000
O O10 0.381939 0.771297 0.273946
O O11 0.229928 0.148671 0.500000
O O12 0.274283 0.190189 0.250596
O O13 0.199224 0.103420 0.246531
O O14 0.291693 0.291693 0.816402
O O15 0.215027 0.319735 0.000000
O O16 0.836750 0.056121 0.500000
O O17 0.905317 0.094684 0.305902
O O18 0.846132 0.000000 0.250000
#
# Coordination Sequence:
#
# PCOD9567123 Si02
#       6
#    16  16  16  16  16  16
#     4  10  19  33  52  72  98 133 175 223 271 320
#     4  11  23  36  51  73 100 135 179 226 271 319
#     4   9  18  32  52  77 106 145 184 224 271 322
#     4  11  23  38  58  84 114 147 182 222 271 326
#     4  10  20  35  56  83 115 150 188 228 272 325
#     4  11  25  44  66  90 115 144 178 220 273 334
#
# _framework density 17.926441000000001
#
# number of rings (size 3 to 8) (size 9 to 14) (size 15 to 20)
#    0.000    1.667    1.667    3.000    0.000    8.833 
#    0.000    2.500    0.000    0.000    0.000    0.000 
#    0.000    0.333    0.000    4.167    0.000    0.000 
#
# Total GULP energy -535192.857909 kJ/mol
# GULP energy per Si atom -5574.925603 kJ/mol
# Density = 1.788564 g / cm^3
# Si number density = 17.926441 Si / 1000 Ang^3
#
#
#
# Elastic Constant Matrix: (Units=GPa)
#
#
# Indices 1 2 3 4 5 6 
#
# 1 97.8798 66.5156 52.7956 0.0000 0.0000 0.0000
# 2 66.5156 97.8798 52.7956 0.0000 0.0000 0.0000
# 3 52.7956 52.7956 126.5084 0.0000 0.0000 0.0000
# 4 0.0000 0.0000 0.0000 11.2333 0.0000 0.0000
# 5 0.0000 0.0000 0.0000 0.0000 11.2333 0.0000
# 6 0.0000 0.0000 0.0000 0.0000 0.0000 20.1207
#
#
#
# Elastic Compliance Matrix: (Units=1/GPa)
#
#
# Indices 1 2 3 4 5 6 
#
# 1 0.020097 -0.011786 -0.003468 0.000000 0.000000 0.000000
# 2 -0.011786 0.020097 -0.003468 0.000000 0.000000 0.000000
# 3 -0.003468 -0.003468 0.010799 0.000000 0.000000 0.000000
# 4 0.000000 0.000000 0.000000 0.089021 0.000000 0.000000
# 5 0.000000 0.000000 0.000000 0.000000 0.089021 0.000000
# 6 0.000000 0.000000 0.000000 0.000000 0.000000 0.049700
#
#
# Mechanical properties :
#
#
# Convention : Reuss Voigt Hill
#
# Bulk Modulus (GPa) = 73.81404 74.05354 73.93379
# Shear Modulus (GPa) = 15.59106 18.52822 17.05964
#
# Velocity S-wave (km/s) = 2.95231 3.21841 3.08822
# Velocity P-wave (km/s) = 7.27234 7.43036 7.35177
#
# Compressibility (1/GPa) = 0.01354756
#
# Stress axis : x y z
#
# Youngs Moduli (GPa) = 49.75858 49.75858 92.59776
#
# Poissons Ratio (x) = 0.58648 0.32115
# Poissons Ratio (y) = 0.58648 0.32115
# Poissons Ratio (z) = 0.17257 0.17257
#
# Static dielectric constant tensor:
#      x y z
#    x 1.632990 0.000000 0.000000 
#    y 0.000000 1.632990 0.000000 
#    z 0.000000 0.000000 1.637810 
# 
# From -- ./inp_files/1745.got.cif
#   From: 2010.05.17/outbox.cif.g08.bks.cpg/sg132_1_cif.got.tgz:1745.got - 2010.05.20 12:30:18.
