data_PCOD9567980
_publ_section_title
;
Structure prediction by ZEFSAII (Michael W. Deem and Ramdas Pophale) SiO2 
 PCOD9567980
Probable space group: P 42/N B C
;
_chemical_formula_sum "Si O2"
_cell_formula_units_Z 96
_cell_length_a 16.047626
_cell_length_b 16.047626
_cell_length_c 16.644828
_cell_angle_alpha 90.000000
_cell_angle_beta 90.000000
_cell_angle_gamma 90.000000
_cell_volume 4286.480973
_symmetry_space_group_name_H-M "P 42/N B C"
_symmetry_group_IT_number 133
_space_group.IT_coordinate_system_code '2'
_symmetry_cell_setting 'tetragonal'
loop_
_space_group_symop_operation_xyz
x,y,z
1/2-y,x,1/2+z
1/2-x,1/2-y,z
y,1/2-x,1/2+z
x,1/2-y,-z
1/2-x,y,-z
y,x,1/2-z
1/2-y,1/2-x,1/2-z
-x,-y,-z
1/2+y,-x,1/2-z
1/2+x,1/2+y,-z
-y,1/2+x,1/2-z
-x,1/2+y,z
1/2+x,-y,z
-y,-x,1/2+z
1/2+y,1/2+x,1/2+z
loop_
_atom_site_type_symbol
_atom_site_label
_atom_site_fract_x
_atom_site_fract_y
_atom_site_fract_z
Si Si1 0.171764 0.878167 0.946149
Si Si2 0.339666 0.284899 0.663280
Si Si3 0.072442 0.345931 0.479673
Si Si4 0.638797 0.224729 0.713963
Si Si5 0.536747 0.836669 0.249178
Si Si6 0.178772 0.019573 0.436103
O O1 0.211424 0.876075 0.857762
O O2 0.079817 0.837925 0.945741
O O3 0.155641 0.973308 0.973045
O O4 0.250000 0.845802 0.000000
O O5 0.250000 0.250000 0.632875
O O6 0.321949 0.321949 0.750000
O O7 0.383038 0.351958 0.606568
O O8 0.404383 0.211693 0.687405
O O9 0.098371 0.250000 0.500000
O O10 0.103491 0.419110 0.537328
O O11 0.662887 0.282675 0.790591
O O12 0.556924 0.172172 0.723736
O O13 0.569794 0.930207 0.250000
O O14 0.539622 0.802917 0.157467
O O15 0.250000 0.041436 0.500000
#
# Coordination Sequence:
#
# PCOD9567980 Si02
#       6
#    16  16  16  16  16  16
#     4  11  26  49  75 103 149 200 251 320 386 452
#     4  11  22  39  66 102 138 193 239 294 368 451
#     4  11  25  44  70 104 151 190 238 305 389 453
#     4  11  25  49  79 107 146 196 262 311 382 450
#     4  12  24  46  74 106 148 192 250 314 376 456
#     4  12  28  45  72 114 148 196 259 313 385 464
#
# _framework density 22.395992
#
# number of rings (size 3 to 8) (size 9 to 14) (size 15 to 20)
#    0.000    0.667    5.000    2.500    7.000    0.333 
#    0.000    1.667    0.000    0.000    0.000    0.000 
#    0.000    0.000    0.000    0.000    0.000    0.000 
#
# Total GULP energy -536203.191301 kJ/mol
# GULP energy per Si atom -5585.449909 kJ/mol
# Density = 2.234502 g / cm^3
# Si number density = 22.395992 Si / 1000 Ang^3
#
#
#
# Elastic Constant Matrix: (Units=GPa)
#
#
# Indices 1 2 3 4 5 6 
#
# 1 118.3450 40.2641 13.1773 0.0000 0.0000 0.0000
# 2 40.2641 118.3451 13.1778 0.0000 0.0000 0.0000
# 3 13.1773 13.1778 56.1609 0.0000 0.0000 0.0000
# 4 0.0000 0.0000 0.0000 22.6929 0.0000 0.0000
# 5 0.0000 0.0000 0.0000 0.0000 22.6936 0.0000
# 6 0.0000 0.0000 0.0000 0.0000 0.0000 30.9001
#
#
#
# Elastic Compliance Matrix: (Units=1/GPa)
#
#
# Indices 1 2 3 4 5 6 
#
# 1 0.009684 -0.003123 -0.001539 0.000000 0.000000 0.000000
# 2 -0.003123 0.009684 -0.001539 0.000000 0.000000 0.000000
# 3 -0.001539 -0.001539 0.018528 0.000000 0.000000 0.000000
# 4 0.000000 0.000000 0.000000 0.044067 0.000000 0.000000
# 5 0.000000 0.000000 0.000000 0.000000 0.044065 0.000000
# 6 0.000000 0.000000 0.000000 0.000000 0.000000 0.032362
#
#
# Mechanical properties :
#
#
# Convention : Reuss Voigt Hill
#
# Bulk Modulus (GPa) = 39.22787 47.34327 43.28557
# Shear Modulus (GPa) = 27.88748 30.33944 29.11346
#
# Velocity S-wave (km/s) = 3.53257 3.68459 3.60938
# Velocity P-wave (km/s) = 5.84742 6.26791 6.06131
#
# Compressibility (1/GPa) = 0.02549208
#
# Stress axis : x y z
#
# Youngs Moduli (GPa) = 103.26418 103.26399 53.97124
#
# Poissons Ratio (x) = 0.32253 0.08308
# Poissons Ratio (y) = 0.32253 0.08309
# Poissons Ratio (z) = 0.15896 0.15897
#
# Static dielectric constant tensor:
#      x y z
#    x 1.833690 0.000000 0.000000 
#    y 0.000000 1.833690 0.000000 
#    z 0.000000 0.000000 1.922110 
# 
# From -- ./inp_files/6555.got.cif
#   From: 2010.05.17/outbox.cif.g08.bks.cpg/sg133_4_cif.got.tgz:6555.got - 2010.05.20 12:37:36.
