data_PCOD9567566
_publ_section_title
;
Structure prediction by ZEFSAII (Michael W. Deem and Ramdas Pophale) SiO2 
 PCOD9567566
Probable space group: P 42/N B C
;
_chemical_formula_sum "Si O2"
_cell_formula_units_Z 112
_cell_length_a 17.435699
_cell_length_b 17.435699
_cell_length_c 19.234003
_cell_angle_alpha 90.000000
_cell_angle_beta 90.000000
_cell_angle_gamma 90.000000
_cell_volume 5847.206147
_symmetry_space_group_name_H-M "P 42/N B C"
_symmetry_group_IT_number 133
_space_group.IT_coordinate_system_code '2'
_symmetry_cell_setting 'tetragonal'
loop_
_space_group_symop_operation_xyz
x,y,z
1/2-y,x,1/2+z
1/2-x,1/2-y,z
y,1/2-x,1/2+z
x,1/2-y,-z
1/2-x,y,-z
y,x,1/2-z
1/2-y,1/2-x,1/2-z
-x,-y,-z
1/2+y,-x,1/2-z
1/2+x,1/2+y,-z
-y,1/2+x,1/2-z
-x,1/2+y,z
1/2+x,-y,z
-y,-x,1/2+z
1/2+y,1/2+x,1/2+z
loop_
_atom_site_type_symbol
_atom_site_label
_atom_site_fract_x
_atom_site_fract_y
_atom_site_fract_z
Si Si1 0.063527 0.650905 0.919822
Si Si2 0.989284 0.876981 0.932493
Si Si3 0.935602 0.535536 0.887800
Si Si4 0.670501 0.598674 0.989448
Si Si5 0.939069 0.217245 0.427858
Si Si6 0.567353 0.332014 0.698572
Si Si7 0.713786 0.067840 0.320187
O O1 0.137058 0.598388 0.911023
O O2 0.088030 0.730398 0.884671
O O3 0.992659 0.607715 0.881012
O O4 0.037887 0.652902 0.000786
O O5 0.901364 0.863219 0.952303
O O6 0.004710 0.838008 0.858538
O O7 0.015361 0.965949 0.923082
O O8 0.895568 0.497021 0.820736
O O9 0.868982 0.562837 0.941222
O O10 0.698467 0.527846 0.942023
O O11 0.750000 0.643875 0.000000
O O12 0.906870 0.250000 0.500000
O O13 0.926335 0.280275 0.370041
O O14 0.650939 0.371426 0.707720
O O15 0.547494 0.273364 0.759822
#
# Coordination Sequence:
#
# PCOD9567566 Si02
#       7
#    16  16  16  16  16  16  16
#     4  11  20  35  59  86 114 152 197 252 300 360
#     4  10  19  36  57  88 118 148 197 256 305 352
#     4  10  18  34  61  83 114 146 202 258 294 348
#     4  10  16  31  60  92 110 143 188 252 307 351
#     4  11  18  32  59  87 110 145 199 240 301 361
#     4  11  23  40  54  80 120 163 199 240 299 368
#     4  11  25  39  54  78 125 168 194 243 306 359
#
# _framework density 19.154447000000001
#
# number of rings (size 3 to 8) (size 9 to 14) (size 15 to 20)
#    0.000    1.429    5.714    3.000    0.000    2.571 
#    0.000    1.429    0.000    6.857    0.000    0.000 
#    8.571    0.000    0.000    0.000    0.000    0.000 
#
# Total GULP energy -623922.205576 kJ/mol
# GULP energy per Si atom -5570.733978 kJ/mol
# Density = 1.911085 g / cm^3
# Si number density = 19.154447 Si / 1000 Ang^3
#
#
#
# Elastic Constant Matrix: (Units=GPa)
#
#
# Indices 1 2 3 4 5 6 
#
# 1 58.8957 6.7154 6.7856 0.0000 0.0000 0.0000
# 2 6.7154 58.8957 6.7856 0.0000 0.0000 0.0000
# 3 6.7856 6.7856 48.0707 0.0000 0.0000 0.0000
# 4 0.0000 0.0000 0.0000 21.0929 0.0000 0.0000
# 5 0.0000 0.0000 0.0000 0.0000 21.0929 0.0000
# 6 0.0000 0.0000 0.0000 0.0000 0.0000 1.8197
#
#
#
# Elastic Compliance Matrix: (Units=1/GPa)
#
#
# Indices 1 2 3 4 5 6 
#
# 1 0.017432 -0.001732 -0.002216 0.000000 0.000000 0.000000
# 2 -0.001732 0.017432 -0.002216 0.000000 0.000000 0.000000
# 3 -0.002216 -0.002216 0.021428 0.000000 0.000000 0.000000
# 4 0.000000 0.000000 0.000000 0.047409 0.000000 0.000000
# 5 0.000000 0.000000 0.000000 0.000000 0.047409 0.000000
# 6 0.000000 0.000000 0.000000 0.000000 0.000000 0.549543
#
#
# Mechanical properties :
#
#
# Convention : Reuss Voigt Hill
#
# Bulk Modulus (GPa) = 22.74633 22.93727 22.84180
# Shear Modulus (GPa) = 6.87156 18.50615 12.68885
#
# Velocity S-wave (km/s) = 1.89611 3.11167 2.57660
# Velocity P-wave (km/s) = 4.08591 4.99108 4.56101
#
# Compressibility (1/GPa) = 0.04396314
#
# Stress axis : x y z
#
# Youngs Moduli (GPa) = 57.36574 57.36574 46.66717
#
# Poissons Ratio (x) = 0.09937 0.10342
# Poissons Ratio (y) = 0.09937 0.10342
# Poissons Ratio (z) = 0.12713 0.12713
#
# Static dielectric constant tensor:
#      x y z
#    x 1.727350 0.000000 0.000000 
#    y 0.000000 1.727350 0.000000 
#    z 0.000000 0.000000 1.703650 
# 
# From -- ./inp_files/6710.got.cif
#   From: 2010.05.17/outbox.cif.g08.bks.cpg/sg133_4_cif.got.tgz:6710.got - 2010.05.20 12:37:36.
