data_PCOD9567186
_publ_section_title
;
Structure prediction by ZEFSAII (Michael W. Deem and Ramdas Pophale) SiO2 
 PCOD9567186
Probable space group: P 42/M C M
;
_chemical_formula_sum "Si O2"
_cell_formula_units_Z 112
_cell_length_a 14.556305
_cell_length_b 14.556305
_cell_length_c 26.062637
_cell_angle_alpha 90.000000
_cell_angle_beta 90.000000
_cell_angle_gamma 90.000000
_cell_volume 5522.308301
_symmetry_space_group_name_H-M "P 42/M C M"
_symmetry_group_IT_number 132
_symmetry_cell_setting 'tetragonal'
loop_
_space_group_symop_operation_xyz
x,y,z
-y,x,1/2+z
-x,-y,z
y,-x,1/2+z
x,-y,1/2-z
-x,y,1/2-z
y,x,-z
-y,-x,-z
-x,-y,-z
y,-x,1/2-z
x,y,-z
-y,x,1/2-z
-x,y,1/2+z
x,-y,1/2+z
-y,-x,z
y,x,z
loop_
_atom_site_type_symbol
_atom_site_label
_atom_site_fract_x
_atom_site_fract_y
_atom_site_fract_z
Si Si1 0.760655 0.905775 0.779120
Si Si2 0.350724 0.504980 0.153483
Si Si3 0.080089 0.569344 0.589997
Si Si4 0.859677 0.000485 0.127807
Si Si5 0.162211 0.562574 0.297427
Si Si6 0.558566 0.771138 0.558629
Si Si7 0.705478 0.068600 0.939562
O O1 0.842573 0.842573 0.757529
O O2 0.669068 0.845146 0.782226
O O3 0.740132 0.000000 0.750000
O O4 0.796467 0.942987 0.833706
O O5 0.413766 0.586235 0.176925
O O6 0.419246 0.419246 0.144079
O O7 0.264093 0.471829 0.187051
O O8 0.307362 0.544638 0.100663
O O9 0.102045 0.557422 0.650329
O O10 0.170821 0.536383 0.561234
O O11 0.000000 0.500000 0.574310
O O12 0.031371 0.662432 0.574063
O O13 0.930133 0.069868 0.156050
O O14 0.798181 0.062963 0.091736
O O15 0.925657 0.925657 0.100610
O O16 0.129342 0.500000 0.250000
O O17 0.576085 0.741897 0.500000
O O18 0.637870 0.845673 0.574428
O O19 0.718870 0.075973 0.000000
#
# Coordination Sequence:
#
# PCOD9567186 Si02
#       7
#    16  16  16  16  16  16  16
#     4  11  24  41  64  92 125 166 212 264 319 381
#     4  10  23  43  63  86 121 162 202 249 307 372
#     4   9  18  34  57  86 123 158 195 246 306 366
#     4  10  22  40  60  86 125 170 212 258 311 367
#     4  11  24  39  66  92 123 154 204 255 316 374
#     4   9  19  35  59  91 122 156 200 249 304 365
#     4  10  19  35  60  89 125 167 208 255 310 366
#
# _framework density 20.281375000000001
#
# number of rings (size 3 to 8) (size 9 to 14) (size 15 to 20)
#    0.000    2.000    1.429    1.286    2.000    6.429 
#    0.000    3.571    0.000    1.714    0.000    0.000 
#    0.000    0.000    0.000    0.000    0.000    0.000 
#
# Total GULP energy -624060.711695 kJ/mol
# GULP energy per Si atom -5571.970640 kJ/mol
# Density = 2.023521 g / cm^3
# Si number density = 20.281375 Si / 1000 Ang^3
#
#
#
# Elastic Constant Matrix: (Units=GPa)
#
#
# Indices 1 2 3 4 5 6 
#
# 1 86.7730 43.0975 19.9007 0.0000 0.0000 0.0000
# 2 43.0975 86.7730 19.9007 0.0000 0.0000 0.0000
# 3 19.9007 19.9007 63.3605 0.0000 0.0000 0.0000
# 4 0.0000 0.0000 0.0000 8.0911 0.0000 0.0000
# 5 0.0000 0.0000 0.0000 0.0000 8.0911 0.0000
# 6 0.0000 0.0000 0.0000 0.0000 0.0000 25.8885
#
#
#
# Elastic Compliance Matrix: (Units=1/GPa)
#
#
# Indices 1 2 3 4 5 6 
#
# 1 0.015708 -0.007188 -0.002676 0.000000 0.000000 0.000000
# 2 -0.007188 0.015708 -0.002676 0.000000 0.000000 0.000000
# 3 -0.002676 -0.002676 0.017464 0.000000 0.000000 0.000000
# 4 0.000000 0.000000 0.000000 0.123593 0.000000 0.000000
# 5 0.000000 0.000000 0.000000 0.000000 0.123593 0.000000
# 6 0.000000 0.000000 0.000000 0.000000 0.000000 0.038627
#
#
# Mechanical properties :
#
#
# Convention : Reuss Voigt Hill
#
# Bulk Modulus (GPa) = 42.01729 44.74494 43.38112
# Shear Modulus (GPa) = 13.59778 18.68130 16.13954
#
# Velocity S-wave (km/s) = 2.59213 3.03827 2.82402
# Velocity P-wave (km/s) = 5.45170 5.86669 5.66300
#
# Compressibility (1/GPa) = 0.02379972
#
# Stress axis : x y z
#
# Youngs Moduli (GPa) = 63.66138 63.66138 57.26148
#
# Poissons Ratio (x) = 0.45760 0.15324
# Poissons Ratio (y) = 0.45760 0.15324
# Poissons Ratio (z) = 0.17036 0.17036
#
# Static dielectric constant tensor:
#      x y z
#    x 1.783960 0.000000 0.000000 
#    y 0.000000 1.783960 0.000000 
#    z 0.000000 0.000000 1.715470 
# 
# From -- ./inp_files/9117.got.cif
#   From: 2010.05.17/outbox.cif.g08.bks.cpg/sg132_5_cif.got.tgz:9117.got - 2010.05.20 12:30:18.
