data_PCOD9567212
_publ_section_title
;
Structure prediction by ZEFSAII (Michael W. Deem and Ramdas Pophale) SiO2 
 PCOD9567212
Probable space group: P 42/M C M
;
_chemical_formula_sum "Si O2"
_cell_formula_units_Z 96
_cell_length_a 24.060515
_cell_length_b 24.060515
_cell_length_c 7.653610
_cell_angle_alpha 90.000000
_cell_angle_beta 90.000000
_cell_angle_gamma 90.000000
_cell_volume 4430.738982
_symmetry_space_group_name_H-M "P 42/M C M"
_symmetry_group_IT_number 132
_symmetry_cell_setting 'tetragonal'
loop_
_space_group_symop_operation_xyz
x,y,z
-y,x,1/2+z
-x,-y,z
y,-x,1/2+z
x,-y,1/2-z
-x,y,1/2-z
y,x,-z
-y,-x,-z
-x,-y,-z
y,-x,1/2-z
x,y,-z
-y,x,1/2-z
-x,y,1/2+z
x,-y,1/2+z
-y,-x,z
y,x,z
loop_
_atom_site_type_symbol
_atom_site_label
_atom_site_fract_x
_atom_site_fract_y
_atom_site_fract_z
Si Si1 0.065268 0.153304 0.789411
Si Si2 0.738308 0.348478 0.300926
Si Si3 0.935600 0.603352 0.210097
Si Si4 0.273372 0.934623 0.291106
Si Si5 0.821862 0.561215 0.789712
Si Si6 0.350738 0.563675 0.795044
O O1 0.103298 0.103298 0.723211
O O2 0.086702 0.213856 0.725248
O O3 0.000000 0.146276 0.750000
O O4 0.069292 0.154378 0.000000
O O5 0.753947 0.332972 0.500000
O O6 0.705603 0.294398 0.224560
O O7 0.789120 0.384125 0.221495
O O8 0.691705 0.396692 0.304561
O O9 0.919773 0.665528 0.275626
O O10 0.885898 0.564124 0.272382
O O11 0.000000 0.590356 0.250000
O O12 0.933306 0.604424 0.000000
O O13 0.274482 0.925736 0.500000
O O14 0.270120 0.000000 0.250000
O O15 0.798023 0.500000 0.750000
O O16 0.820310 0.565855 0.000000
O O17 0.345617 0.500000 0.750000
O O18 0.411934 0.588067 0.760387
O O19 0.338615 0.571515 0.000000
#
# Coordination Sequence:
#
# PCOD9567212 Si02
#       6
#    16  16  16  16  16  16
#     4   9  17  28  42  62  88 119 157 200 248 302
#     4   9  18  34  54  73  96 128 165 204 245 289
#     4   9  18  33  52  74 100 130 165 204 248 299
#     4   8  14  27  46  64  84 113 150 192 235 281
#     4  10  21  35  52  77 107 137 169 205 247 297
#     4  10  20  32  47  68  93 122 157 197 240 285
#
# _framework density 21.666813000000001
#
# number of rings (size 3 to 8) (size 9 to 14) (size 15 to 20)
#    0.000    2.833    0.000    1.000    0.000    4.667 
#    0.000    4.167    0.000    5.000    0.000    0.000 
#    0.000    6.667    0.000    0.000    0.000    0.000 
#
# Total GULP energy -534413.212715 kJ/mol
# GULP energy per Si atom -5566.804299 kJ/mol
# Density = 2.161750 g / cm^3
# Si number density = 21.666813 Si / 1000 Ang^3
#
#
#
# Elastic Constant Matrix: (Units=GPa)
#
#
# Indices 1 2 3 4 5 6 
#
# 1 98.2337 39.0163 -0.6236 0.0000 0.0000 0.0000
# 2 39.0163 98.2337 -0.6236 0.0000 0.0000 0.0000
# 3 -0.6236 -0.6236 46.9055 0.0000 0.0000 0.0000
# 4 0.0000 0.0000 0.0000 10.4663 0.0000 0.0000
# 5 0.0000 0.0000 0.0000 0.0000 10.4663 0.0000
# 6 0.0000 0.0000 0.0000 0.0000 0.0000 31.2369
#
#
#
# Elastic Compliance Matrix: (Units=1/GPa)
#
#
# Indices 1 2 3 4 5 6 
#
# 1 0.012087 -0.004800 0.000097 0.000000 0.000000 0.000000
# 2 -0.004800 0.012087 0.000097 0.000000 0.000000 0.000000
# 3 0.000097 0.000097 0.021322 0.000000 0.000000 0.000000
# 4 0.000000 0.000000 0.000000 0.095545 0.000000 0.000000
# 5 0.000000 0.000000 0.000000 0.000000 0.095545 0.000000
# 6 0.000000 0.000000 0.000000 0.000000 0.000000 0.032013
#
#
# Mechanical properties :
#
#
# Convention : Reuss Voigt Hill
#
# Bulk Modulus (GPa) = 27.56094 35.43458 31.49776
# Shear Modulus (GPa) = 17.24697 24.14082 20.69390
#
# Velocity S-wave (km/s) = 2.82442 3.34156 3.09382
# Velocity P-wave (km/s) = 4.83575 5.59266 5.22792
#
# Compressibility (1/GPa) = 0.03628323
#
# Stress axis : x y z
#
# Youngs Moduli (GPa) = 82.73426 82.73426 46.89987
#
# Poissons Ratio (x) = 0.39713 -0.00454
# Poissons Ratio (y) = 0.39713 -0.00454
# Poissons Ratio (z) = -0.00801 -0.00801
#
# Static dielectric constant tensor:
#      x y z
#    x 1.818230 0.000000 0.000000 
#    y 0.000000 1.818230 0.000000 
#    z 0.000000 0.000000 1.834890 
# 
# From -- ./inp_files/1771.got.cif
#   From: 2010.05.17/outbox.cif.g08.bks.cpg/sg132_1_cif.got.tgz:1771.got - 2010.05.20 12:30:18.
