data_PCOD9567961
_publ_section_title
;
Structure prediction by ZEFSAII (Michael W. Deem and Ramdas Pophale) SiO2 
 PCOD9567961
Probable space group: P 42/N B C
;
_chemical_formula_sum "Si O2"
_cell_formula_units_Z 120
_cell_length_a 27.065906
_cell_length_b 27.065906
_cell_length_c 9.060045
_cell_angle_alpha 90.000000
_cell_angle_beta 90.000000
_cell_angle_gamma 90.000000
_cell_volume 6637.056170
_symmetry_space_group_name_H-M "P 42/N B C"
_symmetry_group_IT_number 133
_space_group.IT_coordinate_system_code '2'
_symmetry_cell_setting 'tetragonal'
loop_
_space_group_symop_operation_xyz
x,y,z
1/2-y,x,1/2+z
1/2-x,1/2-y,z
y,1/2-x,1/2+z
x,1/2-y,-z
1/2-x,y,-z
y,x,1/2-z
1/2-y,1/2-x,1/2-z
-x,-y,-z
1/2+y,-x,1/2-z
1/2+x,1/2+y,-z
-y,1/2+x,1/2-z
-x,1/2+y,z
1/2+x,-y,z
-y,-x,1/2+z
1/2+y,1/2+x,1/2+z
loop_
_atom_site_type_symbol
_atom_site_label
_atom_site_fract_x
_atom_site_fract_y
_atom_site_fract_z
Si Si1 0.981269 0.584185 0.958900
Si Si2 0.193016 0.837803 0.997888
Si Si3 0.252612 0.950336 0.815809
Si Si4 0.130331 0.869289 0.749973
Si Si5 0.975922 0.356396 0.276373
Si Si6 0.575128 0.489218 0.964198
Si Si7 0.855781 0.477447 0.300465
Si Si8 0.250000 0.886623 0.500000
O O1 0.028536 0.547241 0.974692
O O2 0.988175 0.632309 0.062030
O O3 0.938488 0.545487 0.995057
O O4 0.983089 0.609657 0.799775
O O5 0.175833 0.870470 0.135426
O O6 0.250000 0.822262 0.000000
O O7 0.179447 0.864940 0.847610
O O8 0.152496 0.794852 0.003564
O O9 0.201881 0.981208 0.794191
O O10 0.303650 0.980026 0.784646
O O11 0.251171 0.916810 0.657196
O O12 0.250000 0.935846 0.000000
O O13 0.132984 0.924500 0.688659
O O14 0.080326 0.862594 0.840780
O O15 0.968002 0.381519 0.434000
O O16 0.597500 0.488380 0.802785
#
# Coordination Sequence:
#
# PCOD9567961 Si02
#       8
#    16  16  16  16  16  16  16   8
#     4  11  22  36  58  90 115 148 191 243 316 369
#     4  12  29  43  57  73 103 143 202 262 331 378
#     4  12  26  41  67  91 116 158 206 247 312 380
#     4  12  24  40  60  76 104 144 184 254 322 370
#     4  12  22  38  58  83 114 150 191 246 297 367
#     4  11  21  37  60  85 116 149 189 246 311 375
#     4  12  22  38  58  83 114 150 191 246 297 367
#     4  12  25  48  62  80 106 146 202 276 324 375
#
# _framework density 18.080304999999999
#
# number of rings (size 3 to 8) (size 9 to 14) (size 15 to 20)
#    0.000    0.267    6.667    3.400    3.733    2.133 
#    0.000    0.000    0.000    0.800    0.000    0.000 
#    0.000    0.000    0.000    0.000    0.000   46.667 
#
# Total GULP energy -668368.051146 kJ/mol
# GULP energy per Si atom -5569.733760 kJ/mol
# Density = 1.803915 g / cm^3
# Si number density = 18.080305 Si / 1000 Ang^3
#
#
#
# Elastic Constant Matrix: (Units=GPa)
#
#
# Indices 1 2 3 4 5 6 
#
# 1 61.3377 31.4856 13.8327 0.0000 0.0000 0.0000
# 2 31.4856 61.3377 13.8327 0.0000 0.0000 0.0000
# 3 13.8327 13.8327 84.1175 0.0000 0.0000 0.0000
# 4 0.0000 0.0000 0.0000 23.8116 0.0000 0.0000
# 5 0.0000 0.0000 0.0000 0.0000 23.8116 0.0000
# 6 0.0000 0.0000 0.0000 0.0000 0.0000 21.2969
#
#
#
# Elastic Compliance Matrix: (Units=1/GPa)
#
#
# Indices 1 2 3 4 5 6 
#
# 1 0.022413 -0.011085 -0.001863 0.000000 0.000000 0.000000
# 2 -0.011085 0.022413 -0.001863 0.000000 0.000000 0.000000
# 3 -0.001863 -0.001863 0.012501 0.000000 0.000000 0.000000
# 4 0.000000 0.000000 0.000000 0.041996 0.000000 0.000000
# 5 0.000000 0.000000 0.000000 0.000000 0.041996 0.000000
# 6 0.000000 0.000000 0.000000 0.000000 0.000000 0.046955
#
#
# Mechanical properties :
#
#
# Convention : Reuss Voigt Hill
#
# Bulk Modulus (GPa) = 36.09329 36.12168 36.10749
# Shear Modulus (GPa) = 22.01359 23.62683 22.82021
#
# Velocity S-wave (km/s) = 3.49312 3.61885 3.55654
# Velocity P-wave (km/s) = 6.02290 6.12236 6.07283
#
# Compressibility (1/GPa) = 0.02770598
#
# Stress axis : x y z
#
# Youngs Moduli (GPa) = 44.61610 44.61610 79.99476
#
# Poissons Ratio (x) = 0.49457 0.14902
# Poissons Ratio (y) = 0.49457 0.14902
# Poissons Ratio (z) = 0.08312 0.08312
#
# Static dielectric constant tensor:
#      x y z
#    x 1.655620 0.000000 0.000000 
#    y 0.000000 1.655620 0.000000 
#    z 0.000000 0.000000 1.804280 
# 
# From -- ./inp_files/2103.got.cif
#   From: 2010.05.17/outbox.cif.g08.bks.cpg/sg133_2_cif.got.tgz:2103.got - 2010.05.20 12:37:36.
