data_PCOD9567644
_publ_section_title
;
Structure prediction by ZEFSAII (Michael W. Deem and Ramdas Pophale) SiO2 
 PCOD9567644
Probable space group: P 42/N B C
;
_chemical_formula_sum "Si O2"
_cell_formula_units_Z 112
_cell_length_a 15.215831
_cell_length_b 15.215831
_cell_length_c 24.625258
_cell_angle_alpha 90.000000
_cell_angle_beta 90.000000
_cell_angle_gamma 90.000000
_cell_volume 5701.276991
_symmetry_space_group_name_H-M "P 42/N B C"
_symmetry_group_IT_number 133
_space_group.IT_coordinate_system_code '2'
_symmetry_cell_setting 'tetragonal'
loop_
_space_group_symop_operation_xyz
x,y,z
1/2-y,x,1/2+z
1/2-x,1/2-y,z
y,1/2-x,1/2+z
x,1/2-y,-z
1/2-x,y,-z
y,x,1/2-z
1/2-y,1/2-x,1/2-z
-x,-y,-z
1/2+y,-x,1/2-z
1/2+x,1/2+y,-z
-y,1/2+x,1/2-z
-x,1/2+y,z
1/2+x,-y,z
-y,-x,1/2+z
1/2+y,1/2+x,1/2+z
loop_
_atom_site_type_symbol
_atom_site_label
_atom_site_fract_x
_atom_site_fract_y
_atom_site_fract_z
Si Si1 0.744567 0.607847 0.119608
Si Si2 0.518775 0.750000 0.500000
Si Si3 0.244983 0.106461 0.615392
Si Si4 0.068937 0.574841 0.016073
Si Si5 0.657055 0.360306 0.739984
Si Si6 0.378769 0.533784 0.360192
Si Si7 0.464706 0.122901 0.699242
Si Si8 0.250000 0.476166 0.500000
O O1 0.816171 0.685567 0.125431
O O2 0.648162 0.650392 0.129143
O O3 0.785352 0.545154 0.166157
O O4 0.747268 0.572408 0.057334
O O5 0.459108 0.663541 0.500854
O O6 0.284566 0.018078 0.641915
O O7 0.254397 0.085611 0.551931
O O8 0.063369 0.595088 0.080066
O O9 0.036814 0.665693 0.990431
O O10 0.000000 0.500000 0.000000
O O11 0.762750 0.367083 0.742414
O O12 0.624959 0.384642 0.679881
O O13 0.618858 0.438024 0.776832
O O14 0.446087 0.458451 0.340787
O O15 0.396689 0.103312 0.750000
#
# Coordination Sequence:
#
# PCOD9567644 Si02
#       8
#    16   8  16  16  16  16  16   8
#     4  10  19  34  58  91 120 155 204 258 320 378
#     4  12  24  36  58  94 128 166 208 249 312 385
#     4   9  17  34  59  84 118 157 204 254 314 373
#     4  11  23  41  61  90 131 165 207 259 311 374
#     4  10  22  42  61  85 116 161 211 258 311 373
#     4   9  20  41  60  88 119 158 208 258 319 380
#     4   9  19  39  63  84 121 154 199 263 319 378
#     4  10  20  38  56  82 124 172 206 249 302 371
#
# _framework density 19.644721000000001
#
# number of rings (size 3 to 8) (size 9 to 14) (size 15 to 20)
#    0.000    2.143    0.000    4.286    2.000    1.429 
#   12.857   13.571    0.000    0.000    0.000    0.000 
#    0.000    0.000    0.000    0.000    0.000    0.000 
#
# Total GULP energy -624215.734355 kJ/mol
# GULP energy per Si atom -5573.354771 kJ/mol
# Density = 1.960001 g / cm^3
# Si number density = 19.644721 Si / 1000 Ang^3
#
#
#
# Elastic Constant Matrix: (Units=GPa)
#
#
# Indices 1 2 3 4 5 6 
#
# 1 68.5933 14.5888 -9.1425 0.0000 0.0000 0.0000
# 2 14.5888 68.5928 -9.1422 0.0000 0.0000 0.0000
# 3 -9.1425 -9.1422 27.4662 0.0000 0.0000 0.0000
# 4 0.0000 0.0000 0.0000 5.1101 0.0000 0.0000
# 5 0.0000 0.0000 0.0000 0.0000 5.1106 0.0000
# 6 0.0000 0.0000 0.0000 0.0000 0.0000 18.2366
#
#
#
# Elastic Compliance Matrix: (Units=1/GPa)
#
#
# Indices 1 2 3 4 5 6 
#
# 1 0.015744 -0.002773 0.004318 0.000000 0.000000 0.000000
# 2 -0.002773 0.015744 0.004317 0.000000 0.000000 0.000000
# 3 0.004318 0.004317 0.039283 0.000000 0.000000 0.000000
# 4 0.000000 0.000000 0.000000 0.195693 0.000000 0.000000
# 5 0.000000 0.000000 0.000000 0.000000 0.195670 0.000000
# 6 0.000000 0.000000 0.000000 0.000000 0.000000 0.054835
#
#
# Mechanical properties :
#
#
# Convention : Reuss Voigt Hill
#
# Bulk Modulus (GPa) = 12.12205 17.47338 14.79772
# Shear Modulus (GPa) = 9.38539 16.91467 13.15003
#
# Velocity S-wave (km/s) = 2.18814 2.93751 2.59007
# Velocity P-wave (km/s) = 3.54513 4.51877 4.06124
#
# Compressibility (1/GPa) = 0.08249427
#
# Stress axis : x y z
#
# Youngs Moduli (GPa) = 63.51645 63.51623 25.45658
#
# Poissons Ratio (x) = 0.17613 -0.10991
# Poissons Ratio (y) = 0.17614 -0.10991
# Poissons Ratio (z) = -0.27424 -0.27422
#
# Static dielectric constant tensor:
#      x y z
#    x 1.715180 0.000000 0.000000 
#    y 0.000000 1.715180 0.000000 
#    z 0.000000 0.000000 1.688100 
# 
# From -- ./inp_files/7690.got.cif
#   From: 2010.05.17/outbox.cif.g08.bks.cpg/sg133_4_cif.got.tgz:7690.got - 2010.05.20 12:37:36.
