data_PCOD9567642
_publ_section_title
;
Structure prediction by ZEFSAII (Michael W. Deem and Ramdas Pophale) SiO2 
 PCOD9567642
Probable space group: P 42/N B C
;
_chemical_formula_sum "Si O2"
_cell_formula_units_Z 112
_cell_length_a 13.273613
_cell_length_b 13.273613
_cell_length_c 29.037886
_cell_angle_alpha 90.000000
_cell_angle_beta 90.000000
_cell_angle_gamma 90.000000
_cell_volume 5116.150349
_symmetry_space_group_name_H-M "P 42/N B C"
_symmetry_group_IT_number 133
_space_group.IT_coordinate_system_code '2'
_symmetry_cell_setting 'tetragonal'
loop_
_space_group_symop_operation_xyz
x,y,z
1/2-y,x,1/2+z
1/2-x,1/2-y,z
y,1/2-x,1/2+z
x,1/2-y,-z
1/2-x,y,-z
y,x,1/2-z
1/2-y,1/2-x,1/2-z
-x,-y,-z
1/2+y,-x,1/2-z
1/2+x,1/2+y,-z
-y,1/2+x,1/2-z
-x,1/2+y,z
1/2+x,-y,z
-y,-x,1/2+z
1/2+y,1/2+x,1/2+z
loop_
_atom_site_type_symbol
_atom_site_label
_atom_site_fract_x
_atom_site_fract_y
_atom_site_fract_z
Si Si1 0.000000 0.500000 0.322452
Si Si2 0.138455 0.871247 0.551470
Si Si3 0.871762 0.371762 0.750000
Si Si4 0.060514 0.369150 0.600442
Si Si5 0.371247 0.861545 0.051470
Si Si6 0.439486 0.130850 0.399558
Si Si7 0.864731 0.868971 0.000000
O O1 0.931964 0.423124 0.292547
O O2 0.924196 0.567777 0.353755
O O3 0.068036 0.576876 0.292547
O O4 0.075804 0.432223 0.353755
O O5 0.106169 0.905027 0.500000
O O6 0.145448 0.750000 0.548281
O O7 0.250000 0.910277 0.560478
O O8 0.057971 0.886027 0.590675
O O9 0.887716 0.250000 0.751766
O O10 0.083592 0.250000 0.605457
O O11 0.104582 0.404466 0.551024
O O12 0.386027 0.942029 0.090675
O O13 0.395418 0.095534 0.448976
O O14 0.858075 0.750000 0.000000
O O15 0.750000 0.914012 0.000000
#
# Coordination Sequence:
#
# PCOD9567642 Si02
#       7
#    16  16  16  16  16  16  16
#     4  11  24  39  68 102 126 153 208 273 328 394
#     4   8  13  24  45  74 113 163 210 249 294 346
#     4  10  24  50  76  96 124 160 200 262 348 424
#     4  10  19  34  56  86 127 168 208 256 305 360
#     4   8  13  24  45  74 113 163 210 249 294 346
#     4  10  19  34  56  86 127 168 208 256 305 360
#     4   9  18  33  51  73 116 179 223 246 287 351
#
# _framework density 21.891459000000001
#
# number of rings (size 3 to 8) (size 9 to 14) (size 15 to 20)
#    0.000    2.571    1.429    1.714    0.000    2.857 
#    0.000    2.857    0.000   13.714    0.000    0.000 
#    0.000    0.000    0.000    0.000    0.000    0.000 
#
# Total GULP energy -624651.609987 kJ/mol
# GULP energy per Si atom -5577.246518 kJ/mol
# Density = 2.184163 g / cm^3
# Si number density = 21.891459 Si / 1000 Ang^3
#
#
#
# Elastic Constant Matrix: (Units=GPa)
#
#
# Indices 1 2 3 4 5 6 
#
# 1 98.8433 32.3413 49.4406 0.0000 0.0000 0.0000
# 2 32.3413 98.8433 49.4406 0.0000 0.0000 0.0000
# 3 49.4406 49.4406 127.6325 0.0000 0.0000 0.0000
# 4 0.0000 0.0000 0.0000 12.7334 0.0000 0.0000
# 5 0.0000 0.0000 0.0000 0.0000 12.7334 0.0000
# 6 0.0000 0.0000 0.0000 0.0000 0.0000 27.0798
#
#
#
# Elastic Compliance Matrix: (Units=1/GPa)
#
#
# Indices 1 2 3 4 5 6 
#
# 1 0.012902 -0.002135 -0.004171 0.000000 0.000000 0.000000
# 2 -0.002135 0.012902 -0.004171 0.000000 0.000000 0.000000
# 3 -0.004171 -0.004171 0.011066 0.000000 0.000000 0.000000
# 4 0.000000 0.000000 0.000000 0.078534 0.000000 0.000000
# 5 0.000000 0.000000 0.000000 0.000000 0.078534 0.000000
# 6 0.000000 0.000000 0.000000 0.000000 0.000000 0.036928
#
#
# Mechanical properties :
#
#
# Convention : Reuss Voigt Hill
#
# Bulk Modulus (GPa) = 62.82712 65.30712 64.06712
# Shear Modulus (GPa) = 19.44593 23.44911 21.44752
#
# Velocity S-wave (km/s) = 2.98365 3.27640 3.13344
# Velocity P-wave (km/s) = 6.37426 6.64906 6.51311
#
# Compressibility (1/GPa) = 0.01591669
#
# Stress axis : x y z
#
# Youngs Moduli (GPa) = 77.50867 77.50867 90.36644
#
# Poissons Ratio (x) = 0.16551 0.37688
# Poissons Ratio (y) = 0.16551 0.37688
# Poissons Ratio (z) = 0.32325 0.32325
#
# Static dielectric constant tensor:
#      x y z
#    x 1.876260 0.000000 0.000000 
#    y 0.000000 1.876260 0.000000 
#    z 0.000000 0.000000 1.836330 
# 
# From -- ./inp_files/7658.got.cif
#   From: 2010.05.17/outbox.cif.g08.bks.cpg/sg133_4_cif.got.tgz:7658.got - 2010.05.20 12:37:36.
