data_PCOD9567201
_publ_section_title
;
Structure prediction by ZEFSAII (Michael W. Deem and Ramdas Pophale) SiO2 
 PCOD9567201
Probable space group: P 42/M C M
;
_chemical_formula_sum "Si O2"
_cell_formula_units_Z 80
_cell_length_a 24.062852
_cell_length_b 24.062852
_cell_length_c 9.893247
_cell_angle_alpha 90.000000
_cell_angle_beta 90.000000
_cell_angle_gamma 90.000000
_cell_volume 5728.396251
_symmetry_space_group_name_H-M "P 42/M C M"
_symmetry_group_IT_number 132
_symmetry_cell_setting 'tetragonal'
loop_
_space_group_symop_operation_xyz
x,y,z
-y,x,1/2+z
-x,-y,z
y,-x,1/2+z
x,-y,1/2-z
-x,y,1/2-z
y,x,-z
-y,-x,-z
-x,-y,-z
y,-x,1/2-z
x,y,-z
-y,x,1/2-z
-x,y,1/2+z
x,-y,1/2+z
-y,-x,z
y,x,z
loop_
_atom_site_type_symbol
_atom_site_label
_atom_site_fract_x
_atom_site_fract_y
_atom_site_fract_z
Si Si1 0.091124 0.998079 0.000000
Si Si2 0.352464 0.552699 0.158163
Si Si3 0.171205 0.000000 0.750000
Si Si4 0.286019 0.190848 0.846301
Si Si5 0.280109 0.624425 0.345168
Si Si6 0.118335 0.212030 0.338059
O O1 0.130022 0.007744 0.125901
O O2 0.041737 0.041737 0.000000
O O3 0.062992 0.937009 0.000000
O O4 0.367878 0.500000 0.250000
O O5 0.402129 0.597872 0.162156
O O6 0.299627 0.580687 0.233360
O O7 0.342484 0.539243 0.000000
O O8 0.204131 0.943483 0.780314
O O9 0.239578 0.239578 0.847645
O O10 0.343701 0.222448 0.816398
O O11 0.263544 0.147550 0.737362
O O12 0.288242 0.168258 0.000000
O O13 0.278507 0.602448 0.500000
O O14 0.327783 0.672218 0.344817
O O15 0.116464 0.218973 0.500000
O O16 0.157337 0.157337 0.311400
#
# Coordination Sequence:
#
# PCOD9567201 Si02
#       6
#     8  16   8  16  16  16
#     4  11  22  34  46  56  70  98 138 180 217 254
#     4  10  20  31  44  63  88 122 161 196 228 256
#     4  12  22  33  44  58  78 102 135 176 222 262
#     4   8  15  27  45  65  81 101 130 165 210 263
#     4   8  14  27  45  64  85 108 138 177 218 260
#     4  10  20  32  43  58  79 102 131 170 216 263
#
# _framework density 13.965514000000001
#
# number of rings (size 3 to 8) (size 9 to 14) (size 15 to 20)
#    0.000    2.500    1.000    3.600    1.400    3.000 
#    0.000    5.000    0.000    0.000    0.000    0.000 
#    0.000    0.000    0.000    0.900    0.000   13.600 
#
# Total GULP energy -445411.464197 kJ/mol
# GULP energy per Si atom -5567.643302 kJ/mol
# Density = 1.393373 g / cm^3
# Si number density = 13.965514 Si / 1000 Ang^3
#
#
#
# Elastic Constant Matrix: (Units=GPa)
#
#
# Indices 1 2 3 4 5 6 
#
# 1 43.4124 32.5826 45.6657 0.0000 0.0000 0.0000
# 2 32.5826 43.4125 45.6656 0.0000 0.0000 0.0000
# 3 45.6657 45.6656 123.5426 0.0000 0.0000 0.0000
# 4 0.0000 0.0000 0.0000 -30.5686 0.0000 0.0000
# 5 0.0000 0.0000 0.0000 0.0000 -29.6568 0.0000
# 6 0.0000 0.0000 0.0000 0.0000 0.0000 15.3186
#
#
#
# Elastic Compliance Matrix: (Units=1/GPa)
#
#
# Indices 1 2 3 4 5 6 
#
# 1 0.058007 -0.034330 -0.008752 0.000000 0.000000 0.000000
# 2 -0.034330 0.058007 -0.008752 0.000000 0.000000 0.000000
# 3 -0.008752 -0.008752 0.014564 0.000000 0.000000 0.000000
# 4 0.000000 0.000000 0.000000 -0.032713 0.000000 0.000000
# 5 0.000000 0.000000 0.000000 0.000000 -0.033719 0.000000
# 6 0.000000 0.000000 0.000000 0.000000 0.000000 0.065280
#
#
# Mechanical properties :
#
#
# Convention : Reuss Voigt Hill
#
# Bulk Modulus (GPa) = 37.16002 50.91059 44.03530
# Shear Modulus (GPa) = 20.65576 -3.21780 8.71898
#
# Velocity S-wave (km/s) = 3.85002 -1.51957 2.50135
# Velocity P-wave (km/s) = 6.81394 5.78402 6.31999
#
# Compressibility (1/GPa) = 0.02691064
#
# Stress axis : x y z
#
# Youngs Moduli (GPa) = 17.23931 17.23940 68.66128
#
# Poissons Ratio (x) = 0.59183 0.60091
# Poissons Ratio (y) = 0.59183 0.60090
# Poissons Ratio (z) = 0.15087 0.15087
#
# Static dielectric constant tensor:
#      x y z
#    x 1.457780 0.000000 0.000000 
#    y 0.000000 1.457780 0.000000 
#    z 0.000000 0.000000 1.461690 
# 
# From -- ./inp_files/1660.got.cif
#   From: 2010.05.17/outbox.cif.g08.bks.cpg/sg132_1_cif.got.tgz:1660.got - 2010.05.20 12:30:18.
