data_PCOD9567270
_publ_section_title
;
Structure prediction by ZEFSAII (Michael W. Deem and Ramdas Pophale) SiO2 
 PCOD9567270
Probable space group: P 42/M C M
;
_chemical_formula_sum "Si O2"
_cell_formula_units_Z 96
_cell_length_a 24.073753
_cell_length_b 24.073753
_cell_length_c 9.183134
_cell_angle_alpha 90.000000
_cell_angle_beta 90.000000
_cell_angle_gamma 90.000000
_cell_volume 5322.044752
_symmetry_space_group_name_H-M "P 42/M C M"
_symmetry_group_IT_number 132
_symmetry_cell_setting 'tetragonal'
loop_
_space_group_symop_operation_xyz
x,y,z
-y,x,1/2+z
-x,-y,z
y,-x,1/2+z
x,-y,1/2-z
-x,y,1/2-z
y,x,-z
-y,-x,-z
-x,-y,-z
y,-x,1/2-z
x,y,-z
-y,x,1/2-z
-x,y,1/2+z
x,-y,1/2+z
-y,-x,z
y,x,z
loop_
_atom_site_type_symbol
_atom_site_label
_atom_site_fract_x
_atom_site_fract_y
_atom_site_fract_z
Si Si1 0.262422 0.174473 0.674076
Si Si2 0.715473 0.057373 0.331053
Si Si3 0.253319 0.637861 0.832888
Si Si4 0.545880 0.162456 0.161664
Si Si5 0.418804 0.054645 0.833992
Si Si6 0.438287 0.346477 0.825060
O O1 0.272453 0.167119 0.500000
O O2 0.202147 0.202147 0.693773
O O3 0.268186 0.115176 0.752642
O O4 0.306334 0.222589 0.723253
O O5 0.733643 0.056816 0.500000
O O6 0.648220 0.056963 0.330961
O O7 0.732948 0.000000 0.250000
O O8 0.200392 0.598583 0.843289
O O9 0.299984 0.604586 0.741461
O O10 0.273011 0.645786 0.000000
O O11 0.500000 0.195806 0.250000
O O12 0.559292 0.107896 0.251004
O O13 0.526959 0.149478 0.000000
O O14 0.436251 0.000000 0.750000
O O15 0.437023 0.052872 0.000000
O O16 0.500000 0.345125 0.750000
O O17 0.405217 0.405217 0.803440
O O18 0.444344 0.337584 0.000000
#
# Coordination Sequence:
#
# PCOD9567270 Si02
#       6
#    16  16  16  16  16  16
#     4  10  20  35  57  86 119 153 190 231 277 331
#     4  10  20  34  55  80 111 150 191 235 281 332
#     4  10  21  38  60  84 113 149 184 223 274 332
#     4  11  22  35  52  74 102 137 181 229 274 327
#     4  10  20  34  52  73  99 135 179 228 278 326
#     4  11  25  43  64  89 114 142 178 223 277 340
#
# _framework density 18.038177999999998
#
# number of rings (size 3 to 8) (size 9 to 14) (size 15 to 20)
#    0.000    1.667    1.667    3.000    0.000    7.500 
#    0.000    2.500    0.000    0.000    0.000    0.000 
#    0.000    0.333    0.000    3.500    0.000    1.500 
#
# Total GULP energy -535231.734058 kJ/mol
# GULP energy per Si atom -5575.330563 kJ/mol
# Density = 1.799712 g / cm^3
# Si number density = 18.038178 Si / 1000 Ang^3
#
#
#
# Elastic Constant Matrix: (Units=GPa)
#
#
# Indices 1 2 3 4 5 6 
#
# 1 96.0895 74.8787 62.9531 0.0000 0.0000 0.0000
# 2 74.8787 96.0895 62.9531 0.0000 0.0000 0.0000
# 3 62.9531 62.9531 137.5022 0.0000 0.0000 0.0000
# 4 0.0000 0.0000 0.0000 240.1873 0.0000 0.0000
# 5 0.0000 0.0000 0.0000 0.0000 240.1873 0.0000
# 6 0.0000 0.0000 0.0000 0.0000 0.0000 22.0731
#
#
#
# Elastic Compliance Matrix: (Units=1/GPa)
#
#
# Indices 1 2 3 4 5 6 
#
# 1 0.027985 -0.019161 -0.004040 0.000000 0.000000 0.000000
# 2 -0.019161 0.027985 -0.004040 0.000000 0.000000 0.000000
# 3 -0.004040 -0.004040 0.010972 0.000000 0.000000 0.000000
# 4 0.000000 0.000000 0.000000 0.004163 0.000000 0.000000
# 5 0.000000 0.000000 0.000000 0.000000 0.004163 0.000000
# 6 0.000000 0.000000 0.000000 0.000000 0.000000 0.045304
#
#
# Mechanical properties :
#
#
# Convention : Reuss Voigt Hill
#
# Bulk Modulus (GPa) = 80.25497 81.25013 80.75255
# Shear Modulus (GPa) = 27.90059 109.08263 68.49161
#
# Velocity S-wave (km/s) = 3.93714 7.78489 6.16869
# Velocity P-wave (km/s) = 8.07815 11.22262 9.77762
#
# Compressibility (1/GPa) = 0.01246029
#
# Stress axis : x y z
#
# Youngs Moduli (GPa) = 35.73349 35.73349 91.14156
#
# Poissons Ratio (x) = 0.68468 0.36822
# Poissons Ratio (y) = 0.68468 0.36822
# Poissons Ratio (z) = 0.14436 0.14436
#
# Static dielectric constant tensor:
#      x y z
#    x 1.639240 0.000000 0.000000 
#    y 0.000000 1.639240 0.000000 
#    z 0.000000 0.000000 1.633570 
# 
# From -- ./inp_files/1744.got.cif
#   From: 2010.05.17/outbox.cif.g08.bks.cpg/sg132_1_cif.got.tgz:1744.got - 2010.05.20 12:30:18.
