data_PCOD9567548
_publ_section_title
;
Structure prediction by ZEFSAII (Michael W. Deem and Ramdas Pophale) SiO2 
 PCOD9567548
Probable space group: P 42/M C M
;
_chemical_formula_sum "Si O2"
_cell_formula_units_Z 96
_cell_length_a 24.000000
_cell_length_b 24.000000
_cell_length_c 9.000000
_cell_angle_alpha 90.000000
_cell_angle_beta 90.000000
_cell_angle_gamma 90.000000
_cell_volume 5184.000000
_symmetry_space_group_name_H-M "P 42/M C M"
_symmetry_group_IT_number 132
_symmetry_cell_setting 'tetragonal'
loop_
_space_group_symop_operation_xyz
x,y,z
-y,x,1/2+z
-x,-y,z
y,-x,1/2+z
x,-y,1/2-z
-x,y,1/2-z
y,x,-z
-y,-x,-z
-x,-y,-z
y,-x,1/2-z
x,y,-z
-y,x,1/2-z
-x,y,1/2+z
x,-y,1/2+z
-y,-x,z
y,x,z
loop_
_atom_site_type_symbol
_atom_site_label
_atom_site_fract_x
_atom_site_fract_y
_atom_site_fract_z
Si Si1 0.557099 0.227994 0.673415
Si Si2 0.330278 0.757064 0.829087
Si Si3 0.443249 0.061757 0.178894
Si Si4 0.236103 0.147855 0.671696
Si Si5 0.360794 0.445515 0.174181
Si Si6 0.061397 0.682552 0.677931
O O1 0.500000 0.208231 0.750000
O O2 0.556386 0.212635 0.500000
O O3 0.617090 0.217056 0.744833
O O4 0.556486 0.294971 0.692313
O O5 0.298777 0.701224 0.768388
O O6 0.282389 0.803455 0.830531
O O7 0.346915 0.745360 0.000000
O O8 0.500000 0.086766 0.250000
O O9 0.380678 0.084452 0.211993
O O10 0.441061 0.000000 0.250000
O O11 0.449638 0.059684 0.000000
O O12 0.227324 0.130154 0.500000
O O13 0.179068 0.179068 0.724123
O O14 0.266679 0.099237 0.762835
O O15 0.384204 0.500000 0.250000
O O16 0.391211 0.391211 0.233477
O O17 0.370109 0.450272 0.000000
O O18 0.056934 0.685445 0.500000
O O19 0.000000 0.686187 0.750000
#
# Coordination Sequence:
#
# PCOD9567548 Si02
#       6
#    16  16  16  16  16  16
#     4  10  19  31  47  66  88 114 148 192 242 295
#     4   9  18  33  52  72  94 123 159 199 248 304
#     4   9  16  26  42  66  96 132 175 220 266 314
#     4   9  19  36  56  78 106 139 174 215 263 312
#     4   9  18  30  41  55  75  98 127 166 215 273
#     4  10  20  33  52  79 110 145 185 227 271 321
#
# _framework density 18.518519000000001
#
# number of rings (size 3 to 8) (size 9 to 14) (size 15 to 20)
#    0.000    2.667    0.000    3.500    0.000    5.167 
#    0.000    3.333    0.000    2.000    0.000    0.000 
#    0.000    0.333    0.000    3.500    0.000    1.500 
#
# Total GULP energy -534490.680923 kJ/mol
# GULP energy per Si atom -5567.611260 kJ/mol
# Density = 1.847637 g / cm^3
# Si number density = 18.518519 Si / 1000 Ang^3
#
#
#
# Elastic Constant Matrix: (Units=GPa)
#
#
# Indices 1 2 3 4 5 6 
#
# 1 115.3715 21.3881 44.3043 0.0000 0.0000 0.0000
# 2 21.3881 115.3715 44.3043 0.0000 0.0000 0.0000
# 3 44.3043 44.3043 44.3963 0.0000 0.0000 0.0000
# 4 0.0000 0.0000 0.0000 7.7410 0.0000 0.0000
# 5 0.0000 0.0000 0.0000 0.0000 7.7410 0.0000
# 6 0.0000 0.0000 0.0000 0.0000 0.0000 12.8300
#
#
#
# Elastic Compliance Matrix: (Units=1/GPa)
#
#
# Indices 1 2 3 4 5 6 
#
# 1 0.015665 0.005024 -0.020646 0.000000 0.000000 0.000000
# 2 0.005024 0.015665 -0.020646 0.000000 0.000000 0.000000
# 3 -0.020646 -0.020646 0.063731 0.000000 0.000000 0.000000
# 4 0.000000 0.000000 0.000000 0.129183 0.000000 0.000000
# 5 0.000000 0.000000 0.000000 0.000000 0.129183 0.000000
# 6 0.000000 0.000000 0.000000 0.000000 0.000000 0.077942
#
#
# Mechanical properties :
#
#
# Convention : Reuss Voigt Hill
#
# Bulk Modulus (GPa) = 44.39592 55.01475 49.70533
# Shear Modulus (GPa) = 9.77683 16.67190 13.22436
#
# Velocity S-wave (km/s) = 2.30021 3.00373 2.67519
# Velocity P-wave (km/s) = 5.57498 6.46547 6.03667
#
# Compressibility (1/GPa) = 0.02252459
#
# Stress axis : x y z
#
# Youngs Moduli (GPa) = 63.83801 63.83801 15.69085
#
# Poissons Ratio (x) = -0.32075 0.32396
# Poissons Ratio (y) = -0.32075 0.32396
# Poissons Ratio (z) = 1.31802 1.31802
#
# Static dielectric constant tensor:
#      x y z
#    x 1.692450 0.000000 0.000000 
#    y 0.000000 1.692450 0.000000 
#    z 0.000000 0.000000 1.637440 
# 
# From -- ./inp_files/1796.got.cif
#   From: 2010.05.17/outbox.ucp.g08.bks.cvg/sg132_1_cif.got.tgz:1796.got - 2010.06.11 11:39:14.
