data_PCOD9567396
_publ_section_title
;
Structure prediction by ZEFSAII (Michael W. Deem and Ramdas Pophale) SiO2 
 PCOD9567396
Probable space group: P 42/M C M
;
_chemical_formula_sum "Si O2"
_cell_formula_units_Z 58
_cell_length_a 18.659042
_cell_length_b 18.659042
_cell_length_c 8.662811
_cell_angle_alpha 90.000000
_cell_angle_beta 90.000000
_cell_angle_gamma 90.000000
_cell_volume 3016.042964
_symmetry_space_group_name_H-M "P 42/M C M"
_symmetry_group_IT_number 132
_symmetry_cell_setting 'tetragonal'
loop_
_space_group_symop_operation_xyz
x,y,z
-y,x,1/2+z
-x,-y,z
y,-x,1/2+z
x,-y,1/2-z
-x,y,1/2-z
y,x,-z
-y,-x,-z
-x,-y,-z
y,-x,1/2-z
x,y,-z
-y,x,1/2-z
-x,y,1/2+z
x,-y,1/2+z
-y,-x,z
y,x,z
loop_
_atom_site_type_symbol
_atom_site_label
_atom_site_fract_x
_atom_site_fract_y
_atom_site_fract_z
Si Si1 0.929187 0.188886 0.818127
Si Si2 0.923831 0.346381 0.317613
Si Si3 0.579100 0.782631 0.315321
Si Si4 0.500000 0.500000 0.750000
Si Si5 0.381261 0.381261 0.312162
O O1 0.860787 0.139214 0.799199
O O2 0.921642 0.262662 0.726517
O O3 0.000000 0.152043 0.750000
O O4 0.938558 0.204443 0.000000
O O5 0.924800 0.356791 0.500000
O O6 0.850944 0.378416 0.248751
O O7 0.000000 0.374481 0.250000
O O8 0.500000 0.789597 0.250000
O O9 0.580503 0.786302 0.500000
O O10 0.604475 0.702025 0.273389
O O11 0.563226 0.436775 0.731523
O O12 0.391328 0.391328 0.500000
#
# Coordination Sequence:
#
# PCOD9567396 Si02
#       5
#    16  16  16   2   8
#     4  10  21  37  58  85 118 158 201 250 304 363
#     4  11  23  41  64  92 122 162 205 256 313 375
#     4  11  23  42  63  93 127 164 208 258 309 370
#     4  12  18  44  68  98 128 180 214 256 322 368
#     4  10  23  39  63  94 131 171 211 259 316 373
#
# _framework density 19.230495999999999
#
# number of rings (size 3 to 8) (size 9 to 14) (size 15 to 20)
#    0.000    1.379    1.379    6.000    1.931    3.034 
#    0.000    6.207    0.000    0.000    0.000    0.000 
#    0.000    0.000    0.000    0.000    0.000    0.000 
#
# Total GULP energy -323308.345614 kJ/mol
# GULP energy per Si atom -5574.281821 kJ/mol
# Density = 1.918673 g / cm^3
# Si number density = 19.230496 Si / 1000 Ang^3
#
#
#
# Elastic Constant Matrix: (Units=GPa)
#
#
# Indices 1 2 3 4 5 6 
#
# 1 124.7988 61.0758 41.5976 0.0000 0.0000 0.0000
# 2 61.0758 124.7988 41.5976 0.0000 0.0000 0.0000
# 3 41.5976 41.5976 85.3581 0.0000 0.0000 0.0000
# 4 0.0000 0.0000 0.0000 32.5270 0.0000 0.0000
# 5 0.0000 0.0000 0.0000 0.0000 32.5270 0.0000
# 6 0.0000 0.0000 0.0000 0.0000 0.0000 148.0123
#
#
#
# Elastic Compliance Matrix: (Units=1/GPa)
#
#
# Indices 1 2 3 4 5 6 
#
# 1 0.011287 -0.004406 -0.003353 0.000000 0.000000 0.000000
# 2 -0.004406 0.011287 -0.003353 0.000000 0.000000 0.000000
# 3 -0.003353 -0.003353 0.014984 0.000000 0.000000 0.000000
# 4 0.000000 0.000000 0.000000 0.030744 0.000000 0.000000
# 5 0.000000 0.000000 0.000000 0.000000 0.030744 0.000000
# 6 0.000000 0.000000 0.000000 0.000000 0.000000 0.006756
#
#
# Mechanical properties :
#
#
# Convention : Reuss Voigt Hill
#
# Bulk Modulus (GPa) = 65.22161 69.27750 67.24956
# Shear Modulus (GPa) = 37.55535 55.32556 46.44046
#
# Velocity S-wave (km/s) = 4.42396 5.36956 4.91953
# Velocity P-wave (km/s) = 7.75143 8.63400 8.20459
#
# Compressibility (1/GPa) = 0.01533234
#
# Stress axis : x y z
#
# Youngs Moduli (GPa) = 88.59844 88.59844 66.73951
#
# Poissons Ratio (x) = 0.39037 0.22379
# Poissons Ratio (y) = 0.39037 0.22379
# Poissons Ratio (z) = 0.29709 0.29709
#
# Static dielectric constant tensor:
#      x y z
#    x 1.699850 0.000000 0.000000 
#    y 0.000000 1.699850 0.000000 
#    z 0.000000 0.000000 1.674830 
# 
# From -- ./inp_files/1031.got.cif
#   From: 2010.05.17/outbox.cif.g08.bks.cpg/sg132_1_cif.got.tgz:1031.got - 2010.05.20 12:30:18.
