data_PCOD9567398
_publ_section_title
;
Structure prediction by ZEFSAII (Michael W. Deem and Ramdas Pophale) SiO2 
 PCOD9567398
Probable space group: P 42/M C M
;
_chemical_formula_sum "Si O2"
_cell_formula_units_Z 58
_cell_length_a 18.400229
_cell_length_b 18.400229
_cell_length_c 8.727878
_cell_angle_alpha 90.000000
_cell_angle_beta 90.000000
_cell_angle_gamma 90.000000
_cell_volume 2954.983928
_symmetry_space_group_name_H-M "P 42/M C M"
_symmetry_group_IT_number 132
_symmetry_cell_setting 'tetragonal'
loop_
_space_group_symop_operation_xyz
x,y,z
-y,x,1/2+z
-x,-y,z
y,-x,1/2+z
x,-y,1/2-z
-x,y,1/2-z
y,x,-z
-y,-x,-z
-x,-y,-z
y,-x,1/2-z
x,y,-z
-y,x,1/2-z
-x,y,1/2+z
x,-y,1/2+z
-y,-x,z
y,x,z
loop_
_atom_site_type_symbol
_atom_site_label
_atom_site_fract_x
_atom_site_fract_y
_atom_site_fract_z
Si Si1 0.500000 0.500000 0.750000
Si Si2 0.623150 0.623150 0.679032
Si Si3 0.779533 0.420715 0.683255
Si Si4 0.077143 0.347145 0.681333
Si Si5 0.810534 0.069826 0.679110
O O1 0.560172 0.560172 0.689225
O O2 0.635619 0.635619 0.500000
O O3 0.699641 0.601278 0.755690
O O4 0.792328 0.500000 0.750000
O O5 0.777836 0.419552 0.500000
O O6 0.848969 0.375976 0.742362
O O7 0.078334 0.360129 0.500000
O O8 0.077474 0.261861 0.721538
O O9 0.000000 0.375791 0.750000
O O10 0.791872 0.058165 0.500000
O O11 0.859780 0.140221 0.689652
O O12 0.850320 0.000000 0.750000
#
# Coordination Sequence:
#
# PCOD9567398 Si02
#       5
#     2   8  16  16  16
#     4  12  26  44  80 102 146 180 230 272 338 400
#     4  12  26  45  70 103 139 180 227 277 339 398
#     4  12  26  45  68  98 134 171 219 272 324 390
#     4  11  23  42  67  95 129 169 216 267 329 394
#     4  10  21  37  58  86 121 161 209 260 318 381
#
# _framework density 19.627855
#
# number of rings (size 3 to 8) (size 9 to 14) (size 15 to 20)
#    0.000    0.828    1.379    8.069    1.931    4.138 
#    0.000    4.138    0.000    0.000    0.000    0.000 
#    0.000    0.000    0.000    0.000    0.000    0.000 
#
# Total GULP energy -323638.771604 kJ/mol
# GULP energy per Si atom -5579.978821 kJ/mol
# Density = 1.958318 g / cm^3
# Si number density = 19.627855 Si / 1000 Ang^3
#
#
#
# Elastic Constant Matrix: (Units=GPa)
#
#
# Indices 1 2 3 4 5 6 
#
# 1 96.4977 53.0490 54.6267 0.0000 0.0000 0.0000
# 2 53.0490 96.4977 54.6267 0.0000 0.0000 0.0000
# 3 54.6267 54.6267 195.9784 0.0000 0.0000 0.0000
# 4 0.0000 0.0000 0.0000 30.5751 0.0000 0.0000
# 5 0.0000 0.0000 0.0000 0.0000 30.5751 0.0000
# 6 0.0000 0.0000 0.0000 0.0000 0.0000 11.1904
#
#
#
# Elastic Compliance Matrix: (Units=1/GPa)
#
#
# Indices 1 2 3 4 5 6 
#
# 1 0.015706 -0.007309 -0.002341 0.000000 0.000000 0.000000
# 2 -0.007309 0.015706 -0.002341 0.000000 0.000000 0.000000
# 3 -0.002341 -0.002341 0.006407 0.000000 0.000000 0.000000
# 4 0.000000 0.000000 0.000000 0.032706 0.000000 0.000000
# 5 0.000000 0.000000 0.000000 0.000000 0.032706 0.000000
# 6 0.000000 0.000000 0.000000 0.000000 0.000000 0.089363
#
#
# Mechanical properties :
#
#
# Convention : Reuss Voigt Hill
#
# Bulk Modulus (GPa) = 72.26007 79.28650 75.77328
# Shear Modulus (GPa) = 22.60510 29.57952 26.09231
#
# Velocity S-wave (km/s) = 3.39733 3.88624 3.64998
# Velocity P-wave (km/s) = 7.23078 7.78587 7.51345
#
# Compressibility (1/GPa) = 0.01383890
#
# Stress axis : x y z
#
# Youngs Moduli (GPa) = 63.66909 63.66909 156.07004
#
# Poissons Ratio (x) = 0.46539 0.36528
# Poissons Ratio (y) = 0.46539 0.36528
# Poissons Ratio (z) = 0.14902 0.14902
#
# Static dielectric constant tensor:
#      x y z
#    x 1.763670 0.000000 0.000000 
#    y 0.000000 1.763670 0.000000 
#    z 0.000000 0.000000 1.669760 
# 
# From -- ./inp_files/1029.got.cif
#   From: 2010.05.17/outbox.cif.g08.bks.cpg/sg132_1_cif.got.tgz:1029.got - 2010.05.20 12:30:18.
