data_PCOD9567336
_publ_section_title
;
Structure prediction by ZEFSAII (Michael W. Deem and Ramdas Pophale) SiO2 
 PCOD9567336
Probable space group: P 42/M C M
;
_chemical_formula_sum "Si O2"
_cell_formula_units_Z 112
_cell_length_a 14.958585
_cell_length_b 14.958585
_cell_length_c 25.511867
_cell_angle_alpha 90.000000
_cell_angle_beta 90.000000
_cell_angle_gamma 90.000000
_cell_volume 5708.516614
_symmetry_space_group_name_H-M "P 42/M C M"
_symmetry_group_IT_number 132
_symmetry_cell_setting 'tetragonal'
loop_
_space_group_symop_operation_xyz
x,y,z
-y,x,1/2+z
-x,-y,z
y,-x,1/2+z
x,-y,1/2-z
-x,y,1/2-z
y,x,-z
-y,-x,-z
-x,-y,-z
y,-x,1/2-z
x,y,-z
-y,x,1/2-z
-x,y,1/2+z
x,-y,1/2+z
-y,-x,z
y,x,z
loop_
_atom_site_type_symbol
_atom_site_label
_atom_site_fract_x
_atom_site_fract_y
_atom_site_fract_z
Si Si1 0.207661 0.063510 0.635456
Si Si2 0.268551 0.872029 0.636600
Si Si3 0.445892 0.776090 0.198547
Si Si4 0.354585 0.354585 0.440426
Si Si5 0.858488 0.639443 0.559197
Si Si6 0.097482 0.301184 0.258946
Si Si7 0.094800 0.471965 0.884900
Si Si8 0.425356 0.574645 0.164689
O O1 0.121164 0.121164 0.621514
O O2 0.291812 0.102621 0.602040
O O3 0.225547 0.073620 0.698159
O O4 0.207488 0.958164 0.624629
O O5 0.218665 0.781336 0.620333
O O6 0.279913 0.870685 0.700154
O O7 0.365829 0.892039 0.611242
O O8 0.500000 0.797364 0.250000
O O9 0.352310 0.823264 0.210952
O O10 0.493513 0.826027 0.151499
O O11 0.447407 0.671264 0.188450
O O12 0.378343 0.378343 0.500000
O O13 0.367859 0.248292 0.433298
O O14 0.408719 0.408719 0.397115
O O15 0.874716 0.672250 0.500000
O O16 0.899031 0.540177 0.566323
O O17 0.000000 0.348737 0.250000
O O18 0.000000 0.500000 0.859657
O O19 0.500000 0.500000 0.174630
#
# Coordination Sequence:
#
# PCOD9567336 Si02
#       8
#    16  16  16   8  16  16  16   8
#     4  11  21  38  63  90 127 164 200 253 313 370
#     4  11  24  39  58  91 130 168 210 247 298 382
#     4  12  25  36  61  86 124 166 207 256 304 367
#     4  10  20  41  68  94 117 152 210 275 327 368
#     4  11  22  38  66  98 122 150 203 267 324 374
#     4  10  20  36  60  93 126 160 204 253 309 368
#     4  12  22  40  62  93 122 158 206 261 318 373
#     4  12  28  45  58  84 128 175 223 258 304 380
#
# _framework density 19.619809
#
# number of rings (size 3 to 8) (size 9 to 14) (size 15 to 20)
#    0.000    0.857    6.429    1.286    3.000    1.286 
#    0.000    0.000    0.000    4.286    0.000    1.000 
#    0.000    0.000    0.000    0.000    0.000    0.000 
#
# Total GULP energy -624565.083454 kJ/mol
# GULP energy per Si atom -5576.473959 kJ/mol
# Density = 1.957515 g / cm^3
# Si number density = 19.619809 Si / 1000 Ang^3
#
#
#
# Elastic Constant Matrix: (Units=GPa)
#
#
# Indices 1 2 3 4 5 6 
#
# 1 91.4510 42.4489 -1.7584 0.0000 0.0000 0.0000
# 2 42.4489 91.4510 -1.7584 0.0000 0.0000 0.0000
# 3 -1.7584 -1.7584 56.0737 0.0000 0.0000 0.0000
# 4 0.0000 0.0000 0.0000 23.2471 0.0000 0.0000
# 5 0.0000 0.0000 0.0000 0.0000 23.2471 0.0000
# 6 0.0000 0.0000 0.0000 0.0000 0.0000 35.8595
#
#
#
# Elastic Compliance Matrix: (Units=1/GPa)
#
#
# Indices 1 2 3 4 5 6 
#
# 1 0.013941 -0.006466 0.000234 0.000000 0.000000 0.000000
# 2 -0.006466 0.013941 0.000234 0.000000 0.000000 0.000000
# 3 0.000234 0.000234 0.017848 0.000000 0.000000 0.000000
# 4 0.000000 0.000000 0.000000 0.043016 0.000000 0.000000
# 5 0.000000 0.000000 0.000000 0.000000 0.043016 0.000000
# 6 0.000000 0.000000 0.000000 0.000000 0.000000 0.027887
#
#
# Mechanical properties :
#
#
# Convention : Reuss Voigt Hill
#
# Bulk Modulus (GPa) = 29.64302 35.20444 32.42373
# Shear Modulus (GPa) = 27.33895 29.80697 28.57296
#
# Velocity S-wave (km/s) = 3.73693 3.90196 3.82033
# Velocity P-wave (km/s) = 5.81042 6.18730 6.00182
#
# Compressibility (1/GPa) = 0.03373475
#
# Stress axis : x y z
#
# Youngs Moduli (GPa) = 71.73167 71.73167 56.02753
#
# Poissons Ratio (x) = 0.46385 -0.01313
# Poissons Ratio (y) = 0.46385 -0.01313
# Poissons Ratio (z) = -0.01681 -0.01681
#
# Static dielectric constant tensor:
#      x y z
#    x 1.730330 0.000000 0.000000 
#    y 0.000000 1.730330 0.000000 
#    z 0.000000 0.000000 1.666350 
# 
# From -- ./inp_files/10096.got.cif
#   From: 2010.05.17/outbox.cif.g08.bks.cpg/sg132_6_cif.got.tgz:10096.got - 2010.05.20 12:30:18.
