data_PCOD9567112
_publ_section_title
;
Structure prediction by ZEFSAII (Michael W. Deem and Ramdas Pophale) SiO2 
 PCOD9567112
Probable space group: P 42/M C M
;
_chemical_formula_sum "Si O2"
_cell_formula_units_Z 56
_cell_length_a 13.086320
_cell_length_b 13.086320
_cell_length_c 14.648774
_cell_angle_alpha 90.000000
_cell_angle_beta 90.000000
_cell_angle_gamma 90.000000
_cell_volume 2508.628493
_symmetry_space_group_name_H-M "P 42/M C M"
_symmetry_group_IT_number 132
_symmetry_cell_setting 'tetragonal'
loop_
_space_group_symop_operation_xyz
x,y,z
-y,x,1/2+z
-x,-y,z
y,-x,1/2+z
x,-y,1/2-z
-x,y,1/2-z
y,x,-z
-y,-x,-z
-x,-y,-z
y,-x,1/2-z
x,y,-z
-y,x,1/2-z
-x,y,1/2+z
x,-y,1/2+z
-y,-x,z
y,x,z
loop_
_atom_site_type_symbol
_atom_site_label
_atom_site_fract_x
_atom_site_fract_y
_atom_site_fract_z
Si Si1 0.688017 0.009914 0.855281
Si Si2 0.083347 0.916654 0.109606
Si Si3 0.378392 0.786213 0.639681
Si Si4 0.223098 0.390386 0.362477
O O1 0.657958 0.898740 0.892050
O O2 0.655926 0.000000 0.750000
O O3 0.807078 0.042563 0.857382
O O4 0.633600 0.108822 0.895983
O O5 0.089837 0.910164 0.000000
O O6 0.000000 0.000000 0.135513
O O7 0.295803 0.704198 0.609538
O O8 0.380484 0.782895 0.751436
O O9 0.492883 0.756038 0.612544
O O10 0.307155 0.307155 0.392132
#
# Coordination Sequence:
#
# PCOD9567112 Si02
#       4
#    16   8  16  16
#     4  10  19  32  53  75 101 137 178 215 254 315
#     4  11  24  36  50  78 111 139 169 215 264 307
#     4   9  17  27  44  73 106 135 173 219 266 307
#     4   9  16  28  45  72 103 138 175 217 264 307
#
# _framework density 22.322956000000001
#
# number of rings (size 3 to 8) (size 9 to 14) (size 15 to 20)
#    0.000    2.429    1.429    1.714    4.000    4.000 
#    0.000    2.857    0.000    3.429    0.000    0.000 
#    0.000    1.143    0.000    0.000    0.000    0.000 
#
# Total GULP energy -312682.444315 kJ/mol
# GULP energy per Si atom -5583.615077 kJ/mol
# Density = 2.227215 g / cm^3
# Si number density = 22.322956 Si / 1000 Ang^3
#
#
#
# Elastic Constant Matrix: (Units=GPa)
#
#
# Indices 1 2 3 4 5 6 
#
# 1 185.8104 136.5725 4.1365 0.0000 0.0000 0.0000
# 2 136.5725 185.8108 4.1363 0.0000 0.0000 0.0000
# 3 4.1365 4.1363 83.9843 0.0000 0.0000 0.0000
# 4 0.0000 0.0000 0.0000 -33.2474 0.0000 0.0000
# 5 0.0000 0.0000 0.0000 0.0000 -33.2479 0.0000
# 6 0.0000 0.0000 0.0000 0.0000 0.0000 -10.6897
#
#
#
# Elastic Compliance Matrix: (Units=1/GPa)
#
#
# Indices 1 2 3 4 5 6 
#
# 1 0.011708 -0.008602 -0.000153 0.000000 0.000000 0.000000
# 2 -0.008602 0.011708 -0.000153 0.000000 0.000000 0.000000
# 3 -0.000153 -0.000153 0.011922 0.000000 0.000000 0.000000
# 4 0.000000 0.000000 0.000000 -0.030077 0.000000 0.000000
# 5 0.000000 0.000000 0.000000 0.000000 -0.030077 0.000000
# 6 0.000000 0.000000 0.000000 0.000000 0.000000 -0.093548
#
#
# Mechanical properties :
#
#
# Convention : Reuss Voigt Hill
#
# Bulk Modulus (GPa) = 57.07168 82.81068 69.94118
# Shear Modulus (GPa) = -52.79329 5.28033 -23.75648
#
# Velocity S-wave (km/s) = -4.86838 1.53966 -3.26577
# Velocity P-wave (km/s) = 2.44533 6.35122 4.14477
#
# Compressibility (1/GPa) = 0.01752183
#
# Stress axis : x y z
#
# Youngs Moduli (GPa) = 85.41422 85.41443 83.87820
#
# Poissons Ratio (x) = 0.73472 0.01283
# Poissons Ratio (y) = 0.73472 0.01283
# Poissons Ratio (z) = 0.01307 0.01306
#
# Static dielectric constant tensor:
#      x y z
#    x 1.840530 0.000000 0.000000 
#    y 0.000000 1.840530 0.000000 
#    z 0.000000 0.000000 1.826880 
# 
# From -- ./inp_files/7317.got.cif
#   From: 2010.05.17/outbox.cif.g08.bks.cpg/sg132_4_cif.got.tgz:7317.got - 2010.05.20 12:30:18.
