data_PCOD9567023
_publ_section_title
;
Structure prediction by ZEFSAII (Michael W. Deem and Ramdas Pophale) SiO2 
 PCOD9567023
Probable space group: P 42/M C M
;
_chemical_formula_sum "Si O2"
_cell_formula_units_Z 52
_cell_length_a 16.761024
_cell_length_b 16.761024
_cell_length_c 10.425676
_cell_angle_alpha 90.000000
_cell_angle_beta 90.000000
_cell_angle_gamma 90.000000
_cell_volume 2928.905234
_symmetry_space_group_name_H-M "P 42/M C M"
_symmetry_group_IT_number 132
_symmetry_cell_setting 'tetragonal'
loop_
_space_group_symop_operation_xyz
x,y,z
-y,x,1/2+z
-x,-y,z
y,-x,1/2+z
x,-y,1/2-z
-x,y,1/2-z
y,x,-z
-y,-x,-z
-x,-y,-z
y,-x,1/2-z
x,y,-z
-y,x,1/2-z
-x,y,1/2+z
x,-y,1/2+z
-y,-x,z
y,x,z
loop_
_atom_site_type_symbol
_atom_site_label
_atom_site_fract_x
_atom_site_fract_y
_atom_site_fract_z
Si Si1 0.502123 0.632915 0.000000
Si Si2 0.259054 0.500000 0.750000
Si Si3 0.500000 0.000000 0.750000
Si Si4 0.793197 0.928245 0.849171
Si Si5 0.384729 0.132795 0.148291
O O1 0.494649 0.686605 0.125436
O O2 0.585815 0.585815 0.000000
O O3 0.433335 0.566666 0.000000
O O4 0.201724 0.576789 0.734623
O O5 0.557864 0.943487 0.832429
O O6 0.860781 0.860781 0.835586
O O7 0.705800 0.891150 0.821663
O O8 0.807197 0.000000 0.750000
O O9 0.792722 0.953947 0.000000
O O10 0.387821 0.158682 0.000000
#
# Coordination Sequence:
#
# PCOD9567023 Si02
#       5
#     8   8   4  16  16
#     4  11  24  42  62  85 120 166 212 257 304 360
#     4  11  22  40  62  91 122 162 204 255 312 360
#     4  10  18  32  64  88 122 156 200 240 300 366
#     4  10  22  41  63  89 122 162 203 249 306 365
#     4  10  20  37  60  91 122 159 197 249 307 366
#
# _framework density 17.754073999999999
#
# number of rings (size 3 to 8) (size 9 to 14) (size 15 to 20)
#    0.000    1.692    3.077    1.385    0.000    4.615 
#    2.769    1.538    0.000    0.000    0.000    0.000 
#    0.000    0.000    0.000    0.000    0.000    0.000 
#
# Total GULP energy -290281.090658 kJ/mol
# GULP energy per Si atom -5582.328666 kJ/mol
# Density = 1.771367 g / cm^3
# Si number density = 17.754074 Si / 1000 Ang^3
#
#
#
# Elastic Constant Matrix: (Units=GPa)
#
#
# Indices 1 2 3 4 5 6 
#
# 1 127.0464 64.8002 75.2855 0.0000 0.0000 0.0000
# 2 64.8002 127.0484 75.2858 0.0000 0.0000 0.0000
# 3 75.2855 75.2858 125.6484 0.0000 0.0000 0.0000
# 4 0.0000 0.0000 0.0000 24.9679 0.0000 0.0000
# 5 0.0000 0.0000 0.0000 0.0000 24.9709 0.0000
# 6 0.0000 0.0000 0.0000 0.0000 0.0000 18.7210
#
#
#
# Elastic Compliance Matrix: (Units=1/GPa)
#
#
# Indices 1 2 3 4 5 6 
#
# 1 0.012952 -0.003113 -0.005896 0.000000 0.000000 0.000000
# 2 -0.003113 0.012952 -0.005896 0.000000 0.000000 0.000000
# 3 -0.005896 -0.005896 0.015024 0.000000 0.000000 0.000000
# 4 0.000000 0.000000 0.000000 0.040051 0.000000 0.000000
# 5 0.000000 0.000000 0.000000 0.000000 0.040047 0.000000
# 6 0.000000 0.000000 0.000000 0.000000 0.000000 0.053416
#
#
# Mechanical properties :
#
#
# Convention : Reuss Voigt Hill
#
# Bulk Modulus (GPa) = 89.92480 90.05401 89.98941
# Shear Modulus (GPa) = 24.04336 24.69009 24.36672
#
# Velocity S-wave (km/s) = 3.68400 3.73322 3.70869
# Velocity P-wave (km/s) = 8.29795 8.33161 8.31480
#
# Compressibility (1/GPa) = 0.01112040
#
# Stress axis : x y z
#
# Youngs Moduli (GPa) = 77.20531 77.20679 66.56059
#
# Poissons Ratio (x) = 0.24031 0.39243
# Poissons Ratio (y) = 0.24031 0.39242
# Poissons Ratio (z) = 0.45519 0.45519
#
# Static dielectric constant tensor:
#      x y z
#    x 1.593040 0.000000 0.000000 
#    y 0.000000 1.593040 0.000000 
#    z 0.000000 0.000000 1.586870 
# 
# From -- ./inp_files/2917.got.cif
#   From: 2010.05.17/outbox.cif.g08.bks.cpg/sg132_2_cif.got.tgz:2917.got - 2010.05.20 12:30:18.
