data_PCOD9567669
_publ_section_title
;
Structure prediction by ZEFSAII (Michael W. Deem and Ramdas Pophale) SiO2 
 PCOD9567669
Probable space group: P 42/N B C
;
_chemical_formula_sum "Si O2"
_cell_formula_units_Z 56
_cell_length_a 16.709273
_cell_length_b 16.709273
_cell_length_c 9.418288
_cell_angle_alpha 90.000000
_cell_angle_beta 90.000000
_cell_angle_gamma 90.000000
_cell_volume 2629.584165
_symmetry_space_group_name_H-M "P 42/N B C"
_symmetry_group_IT_number 133
_space_group.IT_coordinate_system_code '2'
_symmetry_cell_setting 'tetragonal'
loop_
_space_group_symop_operation_xyz
x,y,z
1/2-y,x,1/2+z
1/2-x,1/2-y,z
y,1/2-x,1/2+z
x,1/2-y,-z
1/2-x,y,-z
y,x,1/2-z
1/2-y,1/2-x,1/2-z
-x,-y,-z
1/2+y,-x,1/2-z
1/2+x,1/2+y,-z
-y,1/2+x,1/2-z
-x,1/2+y,z
1/2+x,-y,z
-y,-x,1/2+z
1/2+y,1/2+x,1/2+z
loop_
_atom_site_type_symbol
_atom_site_label
_atom_site_fract_x
_atom_site_fract_y
_atom_site_fract_z
Si Si1 0.325247 0.365675 0.395368
Si Si2 0.250000 0.456148 0.000000
Si Si3 0.497421 0.862676 0.739551
Si Si4 0.478966 0.591853 0.951292
O O1 0.250000 0.364758 0.500000
O O2 0.316576 0.316576 0.250000
O O3 0.399320 0.324540 0.471516
O O4 0.359181 0.453635 0.367311
O O5 0.280828 0.493667 0.851095
O O6 0.579149 0.920852 0.750000
O O7 0.427701 0.907793 0.654052
O O8 0.470532 0.858666 0.903001
O O9 0.500000 0.500000 0.000000
#
# Coordination Sequence:
#
# PCOD9567669 Si02
#       4
#    16   8  16  16
#     4  12  25  37  57  85 126 164 199 243 306 382
#     4  12  23  36  54  84 129 158 192 244 315 372
#     4  10  20  37  60  83 113 161 201 257 293 359
#     4  10  19  38  60  80 112 155 213 246 291 346
#
# _framework density 21.296143000000001
#
# number of rings (size 3 to 8) (size 9 to 14) (size 15 to 20)
#    0.000    1.143    5.714    4.714    0.000    1.143 
#    0.000    0.000    0.000    0.000    0.000    1.000 
#    0.000    0.000    0.000    0.000    0.000    0.000 
#
# Total GULP energy -311773.711049 kJ/mol
# GULP energy per Si atom -5567.387697 kJ/mol
# Density = 2.124767 g / cm^3
# Si number density = 21.296143 Si / 1000 Ang^3
#
#
#
# Elastic Constant Matrix: (Units=GPa)
#
#
# Indices 1 2 3 4 5 6 
#
# 1 71.3453 59.1634 46.3402 0.0000 0.0000 0.0000
# 2 59.1634 71.3456 46.3400 0.0000 0.0000 0.0000
# 3 46.3402 46.3400 141.1358 0.0000 0.0000 0.0000
# 4 0.0000 0.0000 0.0000 41.1790 0.0000 0.0000
# 5 0.0000 0.0000 0.0000 0.0000 41.1788 0.0000
# 6 0.0000 0.0000 0.0000 0.0000 0.0000 29.7949
#
#
#
# Elastic Compliance Matrix: (Units=1/GPa)
#
#
# Indices 1 2 3 4 5 6 
#
# 1 0.046040 -0.036048 -0.003281 0.000000 0.000000 0.000000
# 2 -0.036048 0.046040 -0.003281 0.000000 0.000000 0.000000
# 3 -0.003281 -0.003281 0.009240 0.000000 0.000000 0.000000
# 4 0.000000 0.000000 0.000000 0.024284 0.000000 0.000000
# 5 0.000000 0.000000 0.000000 0.000000 0.024284 0.000000
# 6 0.000000 0.000000 0.000000 0.000000 0.000000 0.033563
#
#
# Mechanical properties :
#
#
# Convention : Reuss Voigt Hill
#
# Bulk Modulus (GPa) = 62.10824 65.27933 63.69378
# Shear Modulus (GPa) = 18.24575 31.22943 24.73759
#
# Velocity S-wave (km/s) = 2.93023 3.83356 3.41192
# Velocity P-wave (km/s) = 6.37775 7.09328 6.74501
#
# Compressibility (1/GPa) = 0.01610092
#
# Stress axis : x y z
#
# Youngs Moduli (GPa) = 21.72021 21.72037 108.22758
#
# Poissons Ratio (x) = 0.78297 0.35508
# Poissons Ratio (y) = 0.78296 0.35506
# Poissons Ratio (z) = 0.07126 0.07126
#
# Static dielectric constant tensor:
#      x y z
#    x 1.817390 0.000000 0.000000 
#    y 0.000000 1.817390 0.000000 
#    z 0.000000 0.000000 1.943580 
# 
# From -- ./inp_files/1278.got.cif
#   From: 2010.05.17/outbox.cif.g08.bks.cpg/sg133_1_cif.got.tgz:1278.got - 2010.05.20 12:37:36.
