data_PCOD9567338
_publ_section_title
;
Structure prediction by ZEFSAII (Michael W. Deem and Ramdas Pophale) SiO2 
 PCOD9567338
Probable space group: P 42/M C M
;
_chemical_formula_sum "Si O2"
_cell_formula_units_Z 64
_cell_length_a 11.423013
_cell_length_b 11.423013
_cell_length_c 23.667012
_cell_angle_alpha 90.000000
_cell_angle_beta 90.000000
_cell_angle_gamma 90.000000
_cell_volume 3088.195410
_symmetry_space_group_name_H-M "P 42/M C M"
_symmetry_group_IT_number 132
_symmetry_cell_setting 'tetragonal'
loop_
_space_group_symop_operation_xyz
x,y,z
-y,x,1/2+z
-x,-y,z
y,-x,1/2+z
x,-y,1/2-z
-x,y,1/2-z
y,x,-z
-y,-x,-z
-x,-y,-z
y,-x,1/2-z
x,y,-z
-y,x,1/2-z
-x,y,1/2+z
x,-y,1/2+z
-y,-x,z
y,x,z
loop_
_atom_site_type_symbol
_atom_site_label
_atom_site_fract_x
_atom_site_fract_y
_atom_site_fract_z
Si Si1 0.750236 0.558069 0.330991
Si Si2 0.090380 0.608264 0.934596
Si Si3 0.662734 0.847090 0.780136
Si Si4 0.997404 0.195237 0.140768
O O1 0.626134 0.626134 0.322761
O O2 0.802603 0.589851 0.391522
O O3 0.766927 0.420096 0.320512
O O4 0.836308 0.602774 0.280948
O O5 0.000000 0.500000 0.926738
O O6 0.031019 0.729122 0.914653
O O7 0.124633 0.611795 0.000000
O O8 0.782922 0.782922 0.769778
O O9 0.707244 0.960755 0.813562
O O10 0.103422 0.103422 0.132449
O O11 0.884103 0.115898 0.156130
#
# Coordination Sequence:
#
# PCOD9567338 Si02
#       4
#    16  16  16  16
#     4  10  20  36  61  89 119 159 197 242 309 365
#     4  11  23  40  60  84 115 157 205 251 299 352
#     4   9  19  37  59  90 125 154 196 247 299 367
#     4  10  21  39  63  89 121 161 200 246 305 362
#
# _framework density 20.724077000000001
#
# number of rings (size 3 to 8) (size 9 to 14) (size 15 to 20)
#    0.000    2.000    2.500    0.750    0.000    4.000 
#    0.000    7.500    0.000    8.250    0.000    1.750 
#    0.000    0.000    0.000    0.000    0.000    0.000 
#
# Total GULP energy -356414.077261 kJ/mol
# GULP energy per Si atom -5568.969957 kJ/mol
# Density = 2.067691 g / cm^3
# Si number density = 20.724077 Si / 1000 Ang^3
#
#
#
# Elastic Constant Matrix: (Units=GPa)
#
#
# Indices 1 2 3 4 5 6 
#
# 1 91.9934 31.0514 28.9711 0.0000 0.0000 0.0000
# 2 31.0514 91.9934 28.9711 0.0000 0.0000 0.0000
# 3 28.9711 28.9711 131.1512 0.0000 0.0000 0.0000
# 4 0.0000 0.0000 0.0000 21.9171 0.0000 0.0000
# 5 0.0000 0.0000 0.0000 0.0000 21.9171 0.0000
# 6 0.0000 0.0000 0.0000 0.0000 0.0000 14.9533
#
#
#
# Elastic Compliance Matrix: (Units=1/GPa)
#
#
# Indices 1 2 3 4 5 6 
#
# 1 0.012740 -0.003669 -0.002004 0.000000 0.000000 0.000000
# 2 -0.003669 0.012740 -0.002004 0.000000 0.000000 0.000000
# 3 -0.002004 -0.002004 0.008510 0.000000 0.000000 0.000000
# 4 0.000000 0.000000 0.000000 0.045626 0.000000 0.000000
# 5 0.000000 0.000000 0.000000 0.000000 0.045626 0.000000
# 6 0.000000 0.000000 0.000000 0.000000 0.000000 0.066875
#
#
# Mechanical properties :
#
#
# Convention : Reuss Voigt Hill
#
# Bulk Modulus (GPa) = 53.65795 54.79168 54.22481
# Shear Modulus (GPa) = 23.39919 26.83382 25.11651
#
# Velocity S-wave (km/s) = 3.36383 3.60226 3.48508
# Velocity P-wave (km/s) = 6.40585 6.61798 6.51278
#
# Compressibility (1/GPa) = 0.01863657
#
# Stress axis : x y z
#
# Youngs Moduli (GPa) = 78.49387 78.49387 117.50868
#
# Poissons Ratio (x) = 0.28801 0.23545
# Poissons Ratio (y) = 0.28801 0.23545
# Poissons Ratio (z) = 0.15728 0.15728
#
# Static dielectric constant tensor:
#      x y z
#    x 1.827520 0.000000 0.000000 
#    y 0.000000 1.827520 0.000000 
#    z 0.000000 0.000000 1.761290 
# 
# From -- ./inp_files/7435.got.cif
#   From: 2010.05.17/outbox.cif.g08.bks.cpg/sg132_4_cif.got.tgz:7435.got - 2010.05.20 12:30:18.
