data_PCOD9567352
_publ_section_title
;
Structure prediction by ZEFSAII (Michael W. Deem and Ramdas Pophale) SiO2 
 PCOD9567352
Probable space group: P 42/M C M
;
_chemical_formula_sum "Si O2"
_cell_formula_units_Z 46
_cell_length_a 10.155375
_cell_length_b 10.155375
_cell_length_c 20.465000
_cell_angle_alpha 90.000000
_cell_angle_beta 90.000000
_cell_angle_gamma 90.000000
_cell_volume 2110.589041
_symmetry_space_group_name_H-M "P 42/M C M"
_symmetry_group_IT_number 132
_symmetry_cell_setting 'tetragonal'
loop_
_space_group_symop_operation_xyz
x,y,z
-y,x,1/2+z
-x,-y,z
y,-x,1/2+z
x,-y,1/2-z
-x,y,1/2-z
y,x,-z
-y,-x,-z
-x,-y,-z
y,-x,1/2-z
x,y,-z
-y,x,1/2-z
-x,y,1/2+z
x,-y,1/2+z
-y,-x,z
y,x,z
loop_
_atom_site_type_symbol
_atom_site_label
_atom_site_fract_x
_atom_site_fract_y
_atom_site_fract_z
Si Si1 0.704330 0.704330 0.228719
Si Si2 0.208756 0.791244 0.866083
Si Si3 0.500000 0.500000 0.250000
Si Si4 0.573843 0.856044 0.000000
Si Si5 0.323296 0.676705 0.000000
Si Si6 0.646239 0.939804 0.137518
O O1 0.718031 0.718031 0.306340
O O2 0.595991 0.595991 0.210641
O O3 0.665677 0.842150 0.197240
O O4 0.261112 0.738888 0.934928
O O5 0.056150 0.752759 0.861512
O O6 0.473168 0.732221 0.000000
O O7 0.650569 0.863358 0.931730
O O8 0.500000 0.000000 0.000000
O O9 0.500000 0.000000 0.142398
#
# Coordination Sequence:
#
# PCOD9567352 Si02
#       6
#     8   8   2   8   4  16
#     4  12  28  42  68 101 140 180 236 289 364 432
#     4  12  22  41  71  99 137 183 236 297 357 437
#     4  12  28  44  64  94 136 188 232 290 348 444
#     4  10  20  37  68  99 133 182 236 288 355 424
#     4  12  20  40  70 104 130 184 246 286 358 432
#     4  11  23  44  68 101 137 186 233 293 357 429
#
# _framework density 21.794861999999998
#
# number of rings (size 3 to 8) (size 9 to 14) (size 15 to 20)
#    0.000    0.696    6.957    3.130    0.000    2.783 
#    0.000    1.739    0.000    5.739    0.000    0.000 
#    0.000    0.000    0.000    0.000    0.000    0.000 
#
# Total GULP energy -257254.013494 kJ/mol
# GULP energy per Si atom -5592.478554 kJ/mol
# Density = 2.174526 g / cm^3
# Si number density = 21.794862 Si / 1000 Ang^3
#
#
#
# Elastic Constant Matrix: (Units=GPa)
#
#
# Indices 1 2 3 4 5 6 
#
# 1 98.6780 111.9269 39.5350 0.0000 0.0000 0.0000
# 2 111.9269 98.6779 39.5349 0.0000 0.0000 0.0000
# 3 39.5350 39.5349 152.1962 0.0000 0.0000 0.0000
# 4 0.0000 0.0000 0.0000 -9.7449 0.0000 0.0000
# 5 0.0000 0.0000 0.0000 0.0000 -9.7436 0.0000
# 6 0.0000 0.0000 0.0000 0.0000 0.0000 65.6364
#
#
#
# Elastic Compliance Matrix: (Units=1/GPa)
#
#
# Indices 1 2 3 4 5 6 
#
# 1 -0.035108 0.040370 -0.001367 0.000000 0.000000 0.000000
# 2 0.040370 -0.035108 -0.001367 0.000000 0.000000 0.000000
# 3 -0.001367 -0.001367 0.007281 0.000000 0.000000 0.000000
# 4 0.000000 0.000000 0.000000 -0.102618 0.000000 0.000000
# 5 0.000000 0.000000 0.000000 0.000000 -0.102632 0.000000
# 6 0.000000 0.000000 0.000000 0.000000 0.000000 0.015235
#
#
# Mechanical properties :
#
#
# Convention : Reuss Voigt Hill
#
# Bulk Modulus (GPa) = 81.06104 81.28287 81.17195
# Shear Modulus (GPa) = -15.42685 19.79994 2.18655
#
# Velocity S-wave (km/s) = -2.66338 3.01735 1.00271
# Velocity P-wave (km/s) = 5.27403 7.03667 6.21812
#
# Compressibility (1/GPa) = 0.01233638
#
# Stress axis : x y z
#
# Youngs Moduli (GPa) = -28.48334 -28.48333 137.35311
#
# Poissons Ratio (x) = 1.14986 0.18772
# Poissons Ratio (y) = 1.14986 0.18772
# Poissons Ratio (z) = -0.03893 -0.03893
#
# Static dielectric constant tensor:
#      x y z
#    x 1.729740 0.000000 0.000000 
#    y 0.000000 1.729750 0.000000 
#    z 0.000000 0.000000 1.792100 
# 
# From -- ./inp_files/7268.got.cif
#   From: 2010.05.17/outbox.cif.g08.bks.cpg/sg132_4_cif.got.tgz:7268.got - 2010.05.20 12:30:18.
