data_PCOD9567693
_publ_section_title
;
Structure prediction by ZEFSAII (Michael W. Deem and Ramdas Pophale) SiO2 
 PCOD9567693
Probable space group: P 42/N B C
;
_chemical_formula_sum "Si O2"
_cell_formula_units_Z 56
_cell_length_a 20.038454
_cell_length_b 20.038454
_cell_length_c 7.542047
_cell_angle_alpha 90.000000
_cell_angle_beta 90.000000
_cell_angle_gamma 90.000000
_cell_volume 3028.430828
_symmetry_space_group_name_H-M "P 42/N B C"
_symmetry_group_IT_number 133
_space_group.IT_coordinate_system_code '2'
_symmetry_cell_setting 'tetragonal'
loop_
_space_group_symop_operation_xyz
x,y,z
1/2-y,x,1/2+z
1/2-x,1/2-y,z
y,1/2-x,1/2+z
x,1/2-y,-z
1/2-x,y,-z
y,x,1/2-z
1/2-y,1/2-x,1/2-z
-x,-y,-z
1/2+y,-x,1/2-z
1/2+x,1/2+y,-z
-y,1/2+x,1/2-z
-x,1/2+y,z
1/2+x,-y,z
-y,-x,1/2+z
1/2+y,1/2+x,1/2+z
loop_
_atom_site_type_symbol
_atom_site_label
_atom_site_fract_x
_atom_site_fract_y
_atom_site_fract_z
Si Si1 0.897275 0.988409 0.496901
Si Si2 0.790818 0.894709 0.668812
Si Si3 0.484429 0.608015 0.418846
Si Si4 0.250000 0.026547 0.000000
O O1 0.886321 0.996685 0.287374
O O2 0.920247 0.060294 0.568275
O O3 0.834847 0.955627 0.591900
O O4 0.958001 0.935309 0.516771
O O5 0.750000 0.868315 0.500000
O O6 0.839058 0.839058 0.750000
O O7 0.747937 0.925565 0.828266
O O8 0.484043 0.681906 0.498969
#
# Coordination Sequence:
#
# PCOD9567693 Si02
#       4
#    16  16  16   8
#     4  10  20  37  59  90 118 160 205 262 320 370
#     4  12  25  42  63  85 125 168 216 266 312 376
#     4  10  20  34  62  89 124 155 200 264 324 371
#     4  12  22  38  61  92 127 160 208 260 316 384
#
# _framework density 18.491423999999999
#
# number of rings (size 3 to 8) (size 9 to 14) (size 15 to 20)
#    0.000    1.143    5.714    1.714    4.000    1.143 
#    0.000    2.143    0.000    0.000    0.000    1.000 
#    0.000    0.000    0.000    0.000    0.000    0.000 
#
# Total GULP energy -312858.714527 kJ/mol
# GULP energy per Si atom -5586.762759 kJ/mol
# Density = 1.844934 g / cm^3
# Si number density = 18.491424 Si / 1000 Ang^3
#
#
#
# Elastic Constant Matrix: (Units=GPa)
#
#
# Indices 1 2 3 4 5 6 
#
# 1 86.4602 30.8457 31.3278 0.0000 0.0000 0.0000
# 2 30.8457 86.4602 31.3278 0.0000 0.0000 0.0000
# 3 31.3278 31.3278 106.0130 0.0000 0.0000 0.0000
# 4 0.0000 0.0000 0.0000 29.5556 0.0000 0.0000
# 5 0.0000 0.0000 0.0000 0.0000 29.5556 0.0000
# 6 0.0000 0.0000 0.0000 0.0000 0.0000 8.2704
#
#
#
# Elastic Compliance Matrix: (Units=1/GPa)
#
#
# Indices 1 2 3 4 5 6 
#
# 1 0.014052 -0.003929 -0.002991 0.000000 0.000000 0.000000
# 2 -0.003929 0.014052 -0.002991 0.000000 0.000000 0.000000
# 3 -0.002991 -0.002991 0.011201 0.000000 0.000000 0.000000
# 4 0.000000 0.000000 0.000000 0.033835 0.000000 0.000000
# 5 0.000000 0.000000 0.000000 0.000000 0.033835 0.000000
# 6 0.000000 0.000000 0.000000 0.000000 0.000000 0.120913
#
#
# Mechanical properties :
#
#
# Convention : Reuss Voigt Hill
#
# Bulk Modulus (GPa) = 51.33343 51.77064 51.55204
# Shear Modulus (GPa) = 19.66929 25.83847 22.75388
#
# Velocity S-wave (km/s) = 3.26498 3.74213 3.51167
# Velocity P-wave (km/s) = 6.48339 6.83588 6.66197
#
# Compressibility (1/GPa) = 0.01948048
#
# Stress axis : x y z
#
# Youngs Moduli (GPa) = 71.16592 71.16592 89.28013
#
# Poissons Ratio (x) = 0.27963 0.26706
# Poissons Ratio (y) = 0.27963 0.26706
# Poissons Ratio (z) = 0.21288 0.21288
#
# Static dielectric constant tensor:
#      x y z
#    x 1.646350 0.000000 0.000000 
#    y 0.000000 1.646350 0.000000 
#    z 0.000000 0.000000 1.679380 
# 
# From -- ./inp_files/1477.got.cif
#   From: 2010.05.17/outbox.cif.g08.bks.cpg/sg133_1_cif.got.tgz:1477.got - 2010.05.20 12:37:36.
