data_PCOD9567966
_publ_section_title
;
Structure prediction by ZEFSAII (Michael W. Deem and Ramdas Pophale) SiO2 
 PCOD9567966
Probable space group: P 42/N B C
;
_chemical_formula_sum "Si O2"
_cell_formula_units_Z 80
_cell_length_a 13.412158
_cell_length_b 13.412158
_cell_length_c 19.785714
_cell_angle_alpha 90.000000
_cell_angle_beta 90.000000
_cell_angle_gamma 90.000000
_cell_volume 3559.172597
_symmetry_space_group_name_H-M "P 42/N B C"
_symmetry_group_IT_number 133
_space_group.IT_coordinate_system_code '2'
_symmetry_cell_setting 'tetragonal'
loop_
_space_group_symop_operation_xyz
x,y,z
1/2-y,x,1/2+z
1/2-x,1/2-y,z
y,1/2-x,1/2+z
x,1/2-y,-z
1/2-x,y,-z
y,x,1/2-z
1/2-y,1/2-x,1/2-z
-x,-y,-z
1/2+y,-x,1/2-z
1/2+x,1/2+y,-z
-y,1/2+x,1/2-z
-x,1/2+y,z
1/2+x,-y,z
-y,-x,1/2+z
1/2+y,1/2+x,1/2+z
loop_
_atom_site_type_symbol
_atom_site_label
_atom_site_fract_x
_atom_site_fract_y
_atom_site_fract_z
Si Si1 0.044999 0.653716 0.403027
Si Si2 0.119417 0.842552 0.733670
Si Si3 0.635810 0.790399 0.927135
Si Si4 0.630378 0.963531 0.347701
Si Si5 0.972572 0.378589 0.444411
O O1 0.760153 0.573050 0.367711
O O2 0.940186 0.631347 0.365119
O O3 0.045594 0.602329 0.476009
O O4 0.061233 0.768076 0.422730
O O5 0.222041 0.878023 0.767203
O O6 0.022842 0.873344 0.777170
O O7 0.119481 0.878250 0.656051
O O8 0.750000 0.750000 0.921804
O O9 0.625821 0.909066 0.929768
O O10 0.599537 0.750000 0.000000
O O11 0.587502 0.043696 0.400384
#
# Coordination Sequence:
#
# PCOD9567966 Si02
#       5
#    16  16  16  16  16
#     4  11  22  45  70  99 138 174 229 291 345 414
#     4  11  26  47  66  94 143 191 233 283 349 418
#     4  11  21  41  68 102 141 179 220 298 358 402
#     4  12  24  41  73 101 134 190 229 285 354 418
#     4  11  23  43  72 104 137 175 238 291 347 414
#
# _framework density 22.477134
#
# number of rings (size 3 to 8) (size 9 to 14) (size 15 to 20)
#    0.000    0.800    6.000    2.400    2.800    0.000 
#    0.000    1.000    0.000    0.000    0.000    0.000 
#    0.000    0.000    0.000    0.000    0.000    0.000 
#
# Total GULP energy -446912.585459 kJ/mol
# GULP energy per Si atom -5586.407318 kJ/mol
# Density = 2.242598 g / cm^3
# Si number density = 22.477134 Si / 1000 Ang^3
#
#
#
# Elastic Constant Matrix: (Units=GPa)
#
#
# Indices 1 2 3 4 5 6 
#
# 1 54.6821 14.8728 34.2130 0.0000 0.0000 0.0000
# 2 14.8728 54.6821 34.2130 0.0000 0.0000 0.0000
# 3 34.2130 34.2130 159.6613 0.0000 0.0000 0.0000
# 4 0.0000 0.0000 0.0000 30.8030 0.0000 0.0000
# 5 0.0000 0.0000 0.0000 0.0000 30.8030 0.0000
# 6 0.0000 0.0000 0.0000 0.0000 0.0000 33.5098
#
#
#
# Elastic Compliance Matrix: (Units=1/GPa)
#
#
# Indices 1 2 3 4 5 6 
#
# 1 0.021669 -0.003451 -0.003904 0.000000 0.000000 0.000000
# 2 -0.003451 0.021669 -0.003904 0.000000 0.000000 0.000000
# 3 -0.003904 -0.003904 0.007936 0.000000 0.000000 0.000000
# 4 0.000000 0.000000 0.000000 0.032464 0.000000 0.000000
# 5 0.000000 0.000000 0.000000 0.000000 0.032464 0.000000
# 6 0.000000 0.000000 0.000000 0.000000 0.000000 0.029842
#
#
# Mechanical properties :
#
#
# Convention : Reuss Voigt Hill
#
# Bulk Modulus (GPa) = 34.77494 48.40256 41.58875
# Shear Modulus (GPa) = 28.06674 31.40496 29.73585
#
# Velocity S-wave (km/s) = 3.53750 3.74196 3.64117
# Velocity P-wave (km/s) = 5.67363 6.34434 6.01833
#
# Compressibility (1/GPa) = 0.02875634
#
# Stress axis : x y z
#
# Youngs Moduli (GPa) = 46.14971 46.14971 126.00371
#
# Poissons Ratio (x) = 0.15927 0.49188
# Poissons Ratio (y) = 0.15927 0.49188
# Poissons Ratio (z) = 0.18016 0.18016
#
# Static dielectric constant tensor:
#      x y z
#    x 1.841500 0.000000 0.000000 
#    y 0.000000 1.841500 0.000000 
#    z 0.000000 0.000000 1.835630 
# 
# From -- ./inp_files/6348.got.cif
#   From: 2010.05.17/outbox.cif.g08.bks.cpg/sg133_4_cif.got.tgz:6348.got - 2010.05.20 12:37:36.
