data_PCOD9567180
_publ_section_title
;
Structure prediction by ZEFSAII (Michael W. Deem and Ramdas Pophale) SiO2 
 PCOD9567180
Probable space group: P 42/M C M
;
_chemical_formula_sum "Si O2"
_cell_formula_units_Z 96
_cell_length_a 24.186714
_cell_length_b 24.186714
_cell_length_c 9.000485
_cell_angle_alpha 90.000000
_cell_angle_beta 90.000000
_cell_angle_gamma 90.000000
_cell_volume 5265.257931
_symmetry_space_group_name_H-M "P 42/M C M"
_symmetry_group_IT_number 132
_symmetry_cell_setting 'tetragonal'
loop_
_space_group_symop_operation_xyz
x,y,z
-y,x,1/2+z
-x,-y,z
y,-x,1/2+z
x,-y,1/2-z
-x,y,1/2-z
y,x,-z
-y,-x,-z
-x,-y,-z
y,-x,1/2-z
x,y,-z
-y,x,1/2-z
-x,y,1/2+z
x,-y,1/2+z
-y,-x,z
y,x,z
loop_
_atom_site_type_symbol
_atom_site_label
_atom_site_fract_x
_atom_site_fract_y
_atom_site_fract_z
Si Si1 0.168460 0.545133 0.334946
Si Si2 0.417431 0.944968 0.325506
Si Si3 0.437525 0.346199 0.678703
Si Si4 0.284571 0.058445 0.824687
Si Si5 0.822721 0.734656 0.325216
Si Si6 0.641433 0.747963 0.828439
O O1 0.203253 0.500000 0.250000
O O2 0.159968 0.524293 0.500000
O O3 0.110275 0.557054 0.258411
O O4 0.200314 0.601047 0.339091
O O5 0.429407 0.946504 0.500000
O O6 0.351304 0.941475 0.311000
O O7 0.437287 0.000000 0.250000
O O8 0.500000 0.345024 0.750000
O O9 0.442139 0.337054 0.500000
O O10 0.404894 0.404894 0.701674
O O11 0.394407 0.300338 0.747743
O O12 0.267114 0.116847 0.750975
O O13 0.265823 0.000000 0.750000
O O14 0.270787 0.058210 0.000000
O O15 0.828634 0.720894 0.500000
O O16 0.794917 0.794917 0.311740
O O17 0.776672 0.692949 0.255094
O O18 0.653290 0.732559 0.000000
#
# Coordination Sequence:
#
# PCOD9567180 Si02
#       6
#    16  16  16  16  16  16
#     4  10  21  35  49  71 101 135 180 230 275 328
#     4   9  18  33  49  69  98 132 177 227 274 326
#     4  11  25  44  65  90 117 144 180 227 282 349
#     4  10  19  35  57  81 112 151 194 238 288 344
#     4  11  23  37  56  86 121 155 195 241 287 339
#     4  11  22  39  60  83 114 150 188 231 285 345
#
# _framework density 18.232724000000001
#
# number of rings (size 3 to 8) (size 9 to 14) (size 15 to 20)
#    0.000    1.667    1.667    3.000    0.000    9.167 
#    0.000    2.500    0.000    0.000    0.000    0.000 
#    0.000    0.333    0.000    3.500    0.000    1.500 
#
# Total GULP energy -534636.119561 kJ/mol
# GULP energy per Si atom -5569.126245 kJ/mol
# Density = 1.819123 g / cm^3
# Si number density = 18.232724 Si / 1000 Ang^3
#
#
#
# Elastic Constant Matrix: (Units=GPa)
#
#
# Indices 1 2 3 4 5 6 
#
# 1 96.9157 72.2325 65.0812 0.0000 0.0000 0.0000
# 2 72.2325 96.9157 65.0812 0.0000 0.0000 0.0000
# 3 65.0812 65.0812 115.4976 0.0000 0.0000 0.0000
# 4 0.0000 0.0000 0.0000 19.1177 0.0000 0.0000
# 5 0.0000 0.0000 0.0000 0.0000 19.1177 0.0000
# 6 0.0000 0.0000 0.0000 0.0000 0.0000 6.1490
#
#
#
# Elastic Compliance Matrix: (Units=1/GPa)
#
#
# Indices 1 2 3 4 5 6 
#
# 1 0.025476 -0.015038 -0.005882 0.000000 0.000000 0.000000
# 2 -0.015038 0.025476 -0.005882 0.000000 0.000000 0.000000
# 3 -0.005882 -0.005882 0.015287 0.000000 0.000000 0.000000
# 4 0.000000 0.000000 0.000000 0.052308 0.000000 0.000000
# 5 0.000000 0.000000 0.000000 0.000000 0.052308 0.000000
# 6 0.000000 0.000000 0.000000 0.000000 0.000000 0.162628
#
#
# Mechanical properties :
#
#
# Convention : Reuss Voigt Hill
#
# Bulk Modulus (GPa) = 79.13885 79.34652 79.24269
# Shear Modulus (GPa) = 12.77808 16.00582 14.39195
#
# Velocity S-wave (km/s) = 2.65020 2.96609 2.81258
# Velocity P-wave (km/s) = 7.27075 7.43932 7.35552
#
# Compressibility (1/GPa) = 0.01263602
#
# Stress axis : x y z
#
# Youngs Moduli (GPa) = 39.25307 39.25307 65.41654
#
# Poissons Ratio (x) = 0.59028 0.38476
# Poissons Ratio (y) = 0.59028 0.38476
# Poissons Ratio (z) = 0.23087 0.23087
#
# Static dielectric constant tensor:
#      x y z
#    x 1.649660 0.000000 0.000000 
#    y 0.000000 1.649660 0.000000 
#    z 0.000000 0.000000 1.653800 
# 
# From -- ./inp_files/1805.got.cif
#   From: 2010.05.17/outbox.cif.g08.bks.cpg/sg132_1_cif.got.tgz:1805.got - 2010.05.20 12:30:18.
