data_PCOD9567332
_publ_section_title
;
Structure prediction by ZEFSAII (Michael W. Deem and Ramdas Pophale) SiO2 
 PCOD9567332
Probable space group: P 42/M C M
;
_chemical_formula_sum "Si O2"
_cell_formula_units_Z 72
_cell_length_a 14.803887
_cell_length_b 14.803887
_cell_length_c 16.850431
_cell_angle_alpha 90.000000
_cell_angle_beta 90.000000
_cell_angle_gamma 90.000000
_cell_volume 3692.857391
_symmetry_space_group_name_H-M "P 42/M C M"
_symmetry_group_IT_number 132
_symmetry_cell_setting 'tetragonal'
loop_
_space_group_symop_operation_xyz
x,y,z
-y,x,1/2+z
-x,-y,z
y,-x,1/2+z
x,-y,1/2-z
-x,y,1/2-z
y,x,-z
-y,-x,-z
-x,-y,-z
y,-x,1/2-z
x,y,-z
-y,x,1/2-z
-x,y,1/2+z
x,-y,1/2+z
-y,-x,z
y,x,z
loop_
_atom_site_type_symbol
_atom_site_label
_atom_site_fract_x
_atom_site_fract_y
_atom_site_fract_z
Si Si1 0.238348 0.381093 0.406292
Si Si2 0.866725 0.278851 0.671655
Si Si3 0.278921 0.934686 0.853588
Si Si4 0.584031 0.726905 0.904569
Si Si5 0.927314 0.927314 0.594689
O O1 0.255532 0.386584 0.500000
O O2 0.307459 0.307459 0.370925
O O3 0.138102 0.341346 0.396815
O O4 0.257885 0.481679 0.376545
O O5 0.818143 0.181858 0.652930
O O6 0.895561 0.277785 0.763903
O O7 0.794002 0.352172 0.644676
O O8 0.962086 0.308119 0.633770
O O9 0.175178 0.942480 0.879608
O O10 0.626973 0.626973 0.894710
O O11 0.590324 0.746951 0.000000
O O12 0.931697 0.931697 0.500000
O O13 0.000000 0.000000 0.626950
#
# Coordination Sequence:
#
# PCOD9567332 Si02
#       5
#    16  16  16  16   8
#     4  10  20  36  59  84 115 151 189 245 302 357
#     4  10  21  38  57  80 113 155 197 242 292 346
#     4  11  21  36  57  84 115 153 197 237 294 351
#     4   9  20  38  59  84 113 149 195 244 298 357
#     4  11  22  36  56  86 120 154 194 239 286 340
#
# _framework density 19.497095999999999
#
# number of rings (size 3 to 8) (size 9 to 14) (size 15 to 20)
#    0.000    1.889    2.222    1.333    0.000    4.000 
#    0.000    8.889    0.000    0.000    0.000    3.111 
#    0.000    0.000    0.000    0.000    0.000    0.000 
#
# Total GULP energy -400923.367631 kJ/mol
# GULP energy per Si atom -5568.380106 kJ/mol
# Density = 1.945272 g / cm^3
# Si number density = 19.497096 Si / 1000 Ang^3
#
#
#
# Elastic Constant Matrix: (Units=GPa)
#
#
# Indices 1 2 3 4 5 6 
#
# 1 147.2753 72.2591 16.1197 0.0000 0.0000 0.0000
# 2 72.2591 147.2753 16.1197 0.0000 0.0000 0.0000
# 3 16.1197 16.1197 17.6212 0.0000 0.0000 0.0000
# 4 0.0000 0.0000 0.0000 32.0211 0.0000 0.0000
# 5 0.0000 0.0000 0.0000 0.0000 32.0211 0.0000
# 6 0.0000 0.0000 0.0000 0.0000 0.0000 10.7860
#
#
#
# Elastic Compliance Matrix: (Units=1/GPa)
#
#
# Indices 1 2 3 4 5 6 
#
# 1 0.009296 -0.004034 -0.004814 0.000000 0.000000 0.000000
# 2 -0.004034 0.009296 -0.004814 0.000000 0.000000 0.000000
# 3 -0.004814 -0.004814 0.065557 0.000000 0.000000 0.000000
# 4 0.000000 0.000000 0.000000 0.031229 0.000000 0.000000
# 5 0.000000 0.000000 0.000000 0.000000 0.031229 0.000000
# 6 0.000000 0.000000 0.000000 0.000000 0.000000 0.092713
#
#
# Mechanical properties :
#
#
# Convention : Reuss Voigt Hill
#
# Bulk Modulus (GPa) = 17.59752 57.90765 37.75258
# Shear Modulus (GPa) = 17.50787 28.81051 23.15919
#
# Velocity S-wave (km/s) = 2.99987 3.84823 3.45023
# Velocity P-wave (km/s) = 4.58740 7.03636 5.93947
#
# Compressibility (1/GPa) = 0.05682620
#
# Stress axis : x y z
#
# Youngs Moduli (GPa) = 107.57063 107.57063 15.25397
#
# Poissons Ratio (x) = 0.43396 0.07343
# Poissons Ratio (y) = 0.43396 0.07343
# Poissons Ratio (z) = 0.51780 0.51780
#
# Static dielectric constant tensor:
#      x y z
#    x 1.727810 0.000000 0.000000 
#    y 0.000000 1.727810 0.000000 
#    z 0.000000 0.000000 1.766560 
# 
# From -- ./inp_files/6170.got.cif
#   From: 2010.05.17/outbox.cif.g08.bks.cpg/sg132_4_cif.got.tgz:6170.got - 2010.05.20 12:30:18.
