data_PCOD9567325
_publ_section_title
;
Structure prediction by ZEFSAII (Michael W. Deem and Ramdas Pophale) SiO2 
 PCOD9567325
Probable space group: P 42/M C M
;
_chemical_formula_sum "Si O2"
_cell_formula_units_Z 64
_cell_length_a 12.602889
_cell_length_b 12.602889
_cell_length_c 22.713244
_cell_angle_alpha 90.000000
_cell_angle_beta 90.000000
_cell_angle_gamma 90.000000
_cell_volume 3607.608395
_symmetry_space_group_name_H-M "P 42/M C M"
_symmetry_group_IT_number 132
_symmetry_cell_setting 'tetragonal'
loop_
_space_group_symop_operation_xyz
x,y,z
-y,x,1/2+z
-x,-y,z
y,-x,1/2+z
x,-y,1/2-z
-x,y,1/2-z
y,x,-z
-y,-x,-z
-x,-y,-z
y,-x,1/2-z
x,y,-z
-y,x,1/2-z
-x,y,1/2+z
x,-y,1/2+z
-y,-x,z
y,x,z
loop_
_atom_site_type_symbol
_atom_site_label
_atom_site_fract_x
_atom_site_fract_y
_atom_site_fract_z
Si Si1 0.141022 0.315306 0.430781
Si Si2 0.469971 0.197875 0.128747
Si Si3 0.096604 0.726343 0.568888
Si Si4 0.582475 0.417526 0.430512
Si Si5 0.500000 0.679867 0.750000
O O1 0.151813 0.344618 0.500000
O O2 0.238341 0.238341 0.415376
O O3 0.144001 0.421518 0.392413
O O4 0.028846 0.255287 0.424828
O O5 0.368216 0.126943 0.113178
O O6 0.449971 0.301842 0.089379
O O7 0.479636 0.244710 0.194098
O O8 0.114259 0.693060 0.500000
O O9 0.172665 0.827336 0.578980
O O10 0.500000 0.500000 0.402886
O O11 0.577341 0.422660 0.500000
O O12 0.601306 0.601306 0.741514
#
# Coordination Sequence:
#
# PCOD9567325 Si02
#       5
#    16  16  16   8   8
#     4  10  21  36  56  83 114 146 183 230 282 337
#     4  12  21  35  55  80 111 147 185 230 278 332
#     4  10  20  36  58  83 112 146 184 229 284 341
#     4  11  20  30  50  80 111 141 173 217 272 335
#     4  11  22  36  53  76 114 156 193 227 272 334
#
# _framework density 17.740283999999999
#
# number of rings (size 3 to 8) (size 9 to 14) (size 15 to 20)
#    0.000    1.250    2.500    5.250    0.000    4.500 
#    0.000    5.000    0.000    0.000    0.000    0.000 
#    0.000    6.000    0.000    0.000    0.000    0.000 
#
# Total GULP energy -357269.795300 kJ/mol
# GULP energy per Si atom -5582.340552 kJ/mol
# Density = 1.769991 g / cm^3
# Si number density = 17.740284 Si / 1000 Ang^3
#
#
#
# Elastic Constant Matrix: (Units=GPa)
#
#
# Indices 1 2 3 4 5 6 
#
# 1 63.3245 0.9992 11.6557 0.0000 0.0000 0.0000
# 2 0.9992 63.3242 11.6553 0.0000 0.0000 0.0000
# 3 11.6557 11.6553 71.4825 0.0000 0.0000 0.0000
# 4 0.0000 0.0000 0.0000 130.7121 0.0000 0.0000
# 5 0.0000 0.0000 0.0000 0.0000 130.6537 0.0000
# 6 0.0000 0.0000 0.0000 0.0000 0.0000 16.9518
#
#
#
# Elastic Compliance Matrix: (Units=1/GPa)
#
#
# Indices 1 2 3 4 5 6 
#
# 1 0.016284 0.000239 -0.002694 0.000000 0.000000 0.000000
# 2 0.000239 0.016284 -0.002694 0.000000 0.000000 0.000000
# 3 -0.002694 -0.002694 0.014868 0.000000 0.000000 0.000000
# 4 0.000000 0.000000 0.000000 0.007650 0.000000 0.000000
# 5 0.000000 0.000000 0.000000 0.000000 0.007654 0.000000
# 6 0.000000 0.000000 0.000000 0.000000 0.000000 0.058991
#
#
# Mechanical properties :
#
#
# Convention : Reuss Voigt Hill
#
# Bulk Modulus (GPa) = 26.92724 27.41684 27.17204
# Shear Modulus (GPa) = 34.62403 67.25157 50.93780
#
# Velocity S-wave (km/s) = 4.42262 6.16370 5.36427
# Velocity P-wave (km/s) = 6.42580 8.13284 7.32919
#
# Compressibility (1/GPa) = 0.03713712
#
# Stress axis : x y z
#
# Youngs Moduli (GPa) = 61.41073 61.41056 67.25852
#
# Poissons Ratio (x) = -0.01467 0.18120
# Poissons Ratio (y) = -0.01467 0.18120
# Poissons Ratio (z) = 0.16545 0.16544
#
# Static dielectric constant tensor:
#      x y z
#    x 1.610690 0.000000 0.000000 
#    y 0.000000 1.610690 0.000000 
#    z 0.000000 0.000000 1.603420 
# 
# From -- ./inp_files/8771.got.cif
#   From: 2010.05.17/outbox.cif.g08.bks.cpg/sg132_5_cif.got.tgz:8771.got - 2010.05.20 12:30:18.
