data_PCOD9567185
_publ_section_title
;
Structure prediction by ZEFSAII (Michael W. Deem and Ramdas Pophale) SiO2 
 PCOD9567185
Probable space group: P 42/M C M
;
_chemical_formula_sum "Si O2"
_cell_formula_units_Z 120
_cell_length_a 18.754880
_cell_length_b 18.754880
_cell_length_c 18.624163
_cell_angle_alpha 90.000000
_cell_angle_beta 90.000000
_cell_angle_gamma 90.000000
_cell_volume 6550.965970
_symmetry_space_group_name_H-M "P 42/M C M"
_symmetry_group_IT_number 132
_symmetry_cell_setting 'tetragonal'
loop_
_space_group_symop_operation_xyz
x,y,z
-y,x,1/2+z
-x,-y,z
y,-x,1/2+z
x,-y,1/2-z
-x,y,1/2-z
y,x,-z
-y,-x,-z
-x,-y,-z
y,-x,1/2-z
x,y,-z
-y,x,1/2-z
-x,y,1/2+z
x,-y,1/2+z
-y,-x,z
y,x,z
loop_
_atom_site_type_symbol
_atom_site_label
_atom_site_fract_x
_atom_site_fract_y
_atom_site_fract_z
Si Si1 0.720619 0.608985 0.233645
Si Si2 0.487383 0.284129 0.630398
Si Si3 0.829352 0.282490 0.320803
Si Si4 0.313412 0.934607 0.085864
Si Si5 0.865883 0.455343 0.080844
Si Si6 0.607231 0.914149 0.915278
Si Si7 0.442720 0.557281 0.085521
Si Si8 0.925344 0.195016 0.211008
O O1 0.644841 0.644841 0.247178
O O2 0.716375 0.568212 0.158064
O O3 0.735468 0.557325 0.298830
O O4 0.779652 0.669075 0.229104
O O5 0.472860 0.217873 0.579226
O O6 0.463848 0.362294 0.606400
O O7 0.778240 0.221761 0.353962
O O8 0.863111 0.336504 0.376974
O O9 0.886487 0.243827 0.270783
O O10 0.375167 0.878248 0.109318
O O11 0.245107 0.934124 0.139426
O O12 0.358137 0.008046 0.093151
O O13 0.294454 0.925558 0.000000
O O14 0.903261 0.526121 0.114030
O O15 0.895631 0.450463 0.000000
O O16 0.603487 0.898147 0.000000
O O17 0.500000 0.500000 0.115697
O O18 0.446263 0.553738 0.000000
O O19 0.872753 0.127248 0.197066
O O20 0.000000 0.174431 0.250000
#
# Coordination Sequence:
#
# PCOD9567185 Si02
#       8
#    16  16  16  16  16  16   8  16
#     4  10  20  34  52  77 104 136 186 245 291 347
#     4  11  20  35  55  73 103 144 189 241 304 348
#     4  10  20  36  58  84 116 152 194 241 295 354
#     4  10  21  39  63  91 125 162 197 238 293 362
#     4  10  20  35  57  87 119 153 196 241 296 358
#     4  10  19  35  59  87 122 160 194 238 291 354
#     4  11  24  40  54  72 102 144 198 250 297 355
#     4  11  23  41  66  92 123 160 200 248 298 360
#
# _framework density 18.317909
#
# number of rings (size 3 to 8) (size 9 to 14) (size 15 to 20)
#    0.000    1.667    3.333    2.000    0.000    2.267 
#    1.200    0.000    0.000    0.400    0.000    0.933 
#    0.000    0.000    0.000    0.000    0.000    0.000 
#
# Total GULP energy -668193.989208 kJ/mol
# GULP energy per Si atom -5568.283243 kJ/mol
# Density = 1.827622 g / cm^3
# Si number density = 18.317909 Si / 1000 Ang^3
#
#
#
# Elastic Constant Matrix: (Units=GPa)
#
#
# Indices 1 2 3 4 5 6 
#
# 1 93.1642 50.9110 33.4453 0.0000 0.0000 0.0000
# 2 50.9110 93.1647 33.4454 0.0000 0.0000 0.0000
# 3 33.4453 33.4454 56.3363 0.0000 0.0000 0.0000
# 4 0.0000 0.0000 0.0000 22.1662 0.0000 0.0000
# 5 0.0000 0.0000 0.0000 0.0000 22.1662 0.0000
# 6 0.0000 0.0000 0.0000 0.0000 0.0000 29.6403
#
#
#
# Elastic Compliance Matrix: (Units=1/GPa)
#
#
# Indices 1 2 3 4 5 6 
#
# 1 0.016624 -0.007042 -0.005688 0.000000 0.000000 0.000000
# 2 -0.007042 0.016624 -0.005688 0.000000 0.000000 0.000000
# 3 -0.005688 -0.005688 0.024505 0.000000 0.000000 0.000000
# 4 0.000000 0.000000 0.000000 0.045114 0.000000 0.000000
# 5 0.000000 0.000000 0.000000 0.000000 0.045114 0.000000
# 6 0.000000 0.000000 0.000000 0.000000 0.000000 0.033738
#
#
# Mechanical properties :
#
#
# Convention : Reuss Voigt Hill
#
# Bulk Modulus (GPa) = 47.81374 53.14097 50.47735
# Shear Modulus (GPa) = 22.17010 23.11876 22.64443
#
# Velocity S-wave (km/s) = 3.48271 3.55644 3.51976
# Velocity P-wave (km/s) = 6.50624 6.77774 6.64338
#
# Compressibility (1/GPa) = 0.02091449
#
# Stress axis : x y z
#
# Youngs Moduli (GPa) = 60.15292 60.15322 40.80836
#
# Poissons Ratio (x) = 0.42362 0.23214
# Poissons Ratio (y) = 0.42362 0.23214
# Poissons Ratio (z) = 0.34218 0.34218
#
# Static dielectric constant tensor:
#      x y z
#    x 1.672890 0.000000 0.000000 
#    y 0.000000 1.672890 0.000000 
#    z 0.000000 0.000000 1.649990 
# 
# From -- ./inp_files/8221.got.cif
#   From: 2010.05.17/outbox.cif.g08.bks.cpg/sg132_5_cif.got.tgz:8221.got - 2010.05.20 12:30:18.
