data_PCOD9567243
_publ_section_title
;
Structure prediction by ZEFSAII (Michael W. Deem and Ramdas Pophale) SiO2 
 PCOD9567243
Probable space group: P 42/M C M
;
_chemical_formula_sum "Si O2"
_cell_formula_units_Z 96
_cell_length_a 25.032128
_cell_length_b 25.032128
_cell_length_c 9.027485
_cell_angle_alpha 90.000000
_cell_angle_beta 90.000000
_cell_angle_gamma 90.000000
_cell_volume 5656.689195
_symmetry_space_group_name_H-M "P 42/M C M"
_symmetry_group_IT_number 132
_symmetry_cell_setting 'tetragonal'
loop_
_space_group_symop_operation_xyz
x,y,z
-y,x,1/2+z
-x,-y,z
y,-x,1/2+z
x,-y,1/2-z
-x,y,1/2-z
y,x,-z
-y,-x,-z
-x,-y,-z
y,-x,1/2-z
x,y,-z
-y,x,1/2-z
-x,y,1/2+z
x,-y,1/2+z
-y,-x,z
y,x,z
loop_
_atom_site_type_symbol
_atom_site_label
_atom_site_fract_x
_atom_site_fract_y
_atom_site_fract_z
Si Si1 0.552456 0.696420 0.167283
Si Si2 0.254597 0.254597 0.331440
Si Si3 0.057083 0.856185 0.322556
Si Si4 0.268411 0.057875 0.821535
Si Si5 0.825180 0.555365 0.828891
Si Si6 0.655086 0.344915 0.833211
Si Si7 0.671201 0.156502 0.819979
O O1 0.500000 0.677159 0.250000
O O2 0.551634 0.760809 0.166513
O O3 0.604492 0.678130 0.251176
O O4 0.553262 0.677192 0.000000
O O5 0.239318 0.239318 0.500000
O O6 0.299784 0.299784 0.336308
O O7 0.203097 0.286551 0.268759
O O8 0.051812 0.860806 0.500000
O O9 0.103247 0.896754 0.272858
O O10 0.070467 0.794255 0.290985
O O11 0.000000 0.868556 0.250000
O O12 0.304849 0.101769 0.742997
O O13 0.278759 0.000000 0.750000
O O14 0.275914 0.057098 0.000000
O O15 0.843898 0.500000 0.750000
O O16 0.836835 0.611010 0.743672
O O17 0.844189 0.557875 0.000000
O O18 0.640813 0.359188 0.000000
O O19 0.668975 0.158097 0.000000
#
# Coordination Sequence:
#
# PCOD9567243 Si02
#       7
#    16   8  16  16  16   8  16
#     4  10  20  33  50  74 103 140 183 224 269 323
#     4   9  20  33  49  79 116 148 178 216 271 327
#     4   9  19  35  53  75 105 139 179 226 274 324
#     4  10  21  38  58  80 107 144 186 228 273 325
#     4  10  20  34  53  79 110 145 182 222 268 321
#     4  11  19  33  53  74 108 145 177 222 270 323
#     4  11  21  36  56  82 114 148 183 225 272 325
#
# _framework density 16.971056999999998
#
# number of rings (size 3 to 8) (size 9 to 14) (size 15 to 20)
#    0.000    2.000    1.667    2.250    1.167    2.500 
#    0.000    2.083    0.000    0.750    0.000    5.250 
#    0.000    0.000    0.000    0.000    0.000    0.000 
#
# Total GULP energy -535103.316642 kJ/mol
# GULP energy per Si atom -5573.992882 kJ/mol
# Density = 1.693243 g / cm^3
# Si number density = 16.971057 Si / 1000 Ang^3
#
#
#
# Elastic Constant Matrix: (Units=GPa)
#
#
# Indices 1 2 3 4 5 6 
#
# 1 91.3695 48.5948 45.3227 0.0000 0.0000 0.0000
# 2 48.5948 91.3688 45.3224 0.0000 0.0000 0.0000
# 3 45.3227 45.3224 103.5967 0.0000 0.0000 0.0000
# 4 0.0000 0.0000 0.0000 -33.7235 0.0000 0.0000
# 5 0.0000 0.0000 0.0000 0.0000 -33.7718 0.0000
# 6 0.0000 0.0000 0.0000 0.0000 0.0000 24.4996
#
#
#
# Elastic Compliance Matrix: (Units=1/GPa)
#
#
# Indices 1 2 3 4 5 6 
#
# 1 0.016674 -0.006705 -0.004361 0.000000 0.000000 0.000000
# 2 -0.006705 0.016674 -0.004361 0.000000 0.000000 0.000000
# 3 -0.004361 -0.004361 0.013469 0.000000 0.000000 0.000000
# 4 0.000000 0.000000 0.000000 -0.029653 0.000000 0.000000
# 5 0.000000 0.000000 0.000000 0.000000 -0.029610 0.000000
# 6 0.000000 0.000000 0.000000 0.000000 0.000000 0.040817
#
#
# Mechanical properties :
#
#
# Convention : Reuss Voigt Hill
#
# Bulk Modulus (GPa) = 62.64975 62.75719 62.70347
# Shear Modulus (GPa) = 77.46382 1.20718 39.33550
#
# Velocity S-wave (km/s) = 6.76341 0.84431 4.81958
# Velocity P-wave (km/s) = 9.89886 6.16520 8.24613
#
# Compressibility (1/GPa) = 0.01596176
#
# Stress axis : x y z
#
# Youngs Moduli (GPa) = 59.97414 59.97367 74.24433
#
# Poissons Ratio (x) = 0.40210 0.32382
# Poissons Ratio (y) = 0.40210 0.32382
# Poissons Ratio (z) = 0.26158 0.26157
#
# Static dielectric constant tensor:
#      x y z
#    x 1.559100 0.000000 0.000000 
#    y 0.000000 1.559110 0.000000 
#    z 0.000000 0.000000 1.587460 
# 
# From -- ./inp_files/1818.got.cif
#   From: 2010.05.17/outbox.cif.g08.bks.cpg/sg132_1_cif.got.tgz:1818.got - 2010.05.20 12:30:18.
