data_PCOD9567060
_publ_section_title
;
Structure prediction by ZEFSAII (Michael W. Deem and Ramdas Pophale) SiO2 
 PCOD9567060
Probable space group: P 42/M C M
;
_chemical_formula_sum "Si O2"
_cell_formula_units_Z 80
_cell_length_a 18.533568
_cell_length_b 18.533568
_cell_length_c 15.073921
_cell_angle_alpha 90.000000
_cell_angle_beta 90.000000
_cell_angle_gamma 90.000000
_cell_volume 5177.788499
_symmetry_space_group_name_H-M "P 42/M C M"
_symmetry_group_IT_number 132
_symmetry_cell_setting 'tetragonal'
loop_
_space_group_symop_operation_xyz
x,y,z
-y,x,1/2+z
-x,-y,z
y,-x,1/2+z
x,-y,1/2-z
-x,y,1/2-z
y,x,-z
-y,-x,-z
-x,-y,-z
y,-x,1/2-z
x,y,-z
-y,x,1/2-z
-x,y,1/2+z
x,-y,1/2+z
-y,-x,z
y,x,z
loop_
_atom_site_type_symbol
_atom_site_label
_atom_site_fract_x
_atom_site_fract_y
_atom_site_fract_z
Si Si1 0.337169 0.777575 0.776001
Si Si2 0.557022 0.852901 0.603094
Si Si3 0.766060 0.875980 0.602493
Si Si4 0.659819 0.011235 0.145070
Si Si5 0.386693 0.146479 0.900282
O O1 0.301136 0.698865 0.776854
O O2 0.409135 0.792659 0.832581
O O3 0.280715 0.829280 0.828385
O O4 0.350392 0.806593 0.677002
O O5 0.567377 0.833574 0.500000
O O6 0.600205 0.928153 0.619101
O O7 0.472124 0.861012 0.619332
O O8 0.746134 0.858935 0.500000
O O9 0.848134 0.848134 0.613049
O O10 0.737903 0.956323 0.619241
O O11 0.655858 0.000000 0.250000
O O12 0.644382 0.934398 0.102604
O O13 0.378020 0.175957 0.000000
#
# Coordination Sequence:
#
# PCOD9567060 Si02
#       5
#    16  16  16  16  16
#     4  10  19  31  46  63  89 126 163 195 229 277
#     4  10  20  32  47  68  94 126 160 194 233 278
#     4   9  17  30  46  63  87 122 165 206 235 264
#     4  11  18  28  46  69  95 127 159 193 232 278
#     4  11  21  31  45  67  98 129 157 189 231 287
#
# _framework density 15.450612
#
# number of rings (size 3 to 8) (size 9 to 14) (size 15 to 20)
#    0.000    1.800    4.000    4.800    0.000    4.000 
#    0.000    0.000    0.000    0.000    0.000    0.000 
#    0.000    9.200    0.000   28.600    0.000    0.000 
#
# Total GULP energy -445404.065734 kJ/mol
# GULP energy per Si atom -5567.550822 kJ/mol
# Density = 1.541545 g / cm^3
# Si number density = 15.450612 Si / 1000 Ang^3
#
#
#
# Elastic Constant Matrix: (Units=GPa)
#
#
# Indices 1 2 3 4 5 6 
#
# 1 48.5992 47.8464 29.0408 0.0000 0.0000 0.0000
# 2 47.8464 48.5992 29.0408 0.0000 0.0000 0.0000
# 3 29.0408 29.0408 114.8646 0.0000 0.0000 0.0000
# 4 0.0000 0.0000 0.0000 12.9702 0.0000 0.0000
# 5 0.0000 0.0000 0.0000 0.0000 12.9702 0.0000
# 6 0.0000 0.0000 0.0000 0.0000 0.0000 25.4797
#
#
#
# Elastic Compliance Matrix: (Units=1/GPa)
#
#
# Indices 1 2 3 4 5 6 
#
# 1 0.670294 -0.658063 -0.003092 0.000000 0.000000 0.000000
# 2 -0.658063 0.670294 -0.003092 0.000000 0.000000 0.000000
# 3 -0.003092 -0.003092 0.010270 0.000000 0.000000 0.000000
# 4 0.000000 0.000000 0.000000 0.077100 0.000000 0.000000
# 5 0.000000 0.000000 0.000000 0.000000 0.077100 0.000000
# 6 0.000000 0.000000 0.000000 0.000000 0.000000 0.039247
#
#
# Mechanical properties :
#
#
# Convention : Reuss Voigt Hill
#
# Bulk Modulus (GPa) = 44.71872 47.10211 45.91041
# Shear Modulus (GPa) = 1.73596 17.35967 9.54782
#
# Velocity S-wave (km/s) = 1.06113 3.35559 2.48857
# Velocity P-wave (km/s) = 5.52333 6.75019 6.16734
#
# Compressibility (1/GPa) = 0.02236200
#
# Stress axis : x y z
#
# Youngs Moduli (GPa) = 1.49188 1.49188 97.37564
#
# Poissons Ratio (x) = 0.98175 0.30111
# Poissons Ratio (y) = 0.98175 0.30111
# Poissons Ratio (z) = 0.00461 0.00461
#
# Static dielectric constant tensor:
#      x y z
#    x 1.522410 0.000000 0.000000 
#    y 0.000000 1.522410 0.000000 
#    z 0.000000 0.000000 1.547140 
# 
# From -- ./inp_files/4897.got.cif
#   From: 2010.05.17/outbox.cif.g08.bks.cpg/sg132_3_cif.got.tgz:4897.got - 2010.05.20 12:30:18.
