data_PCOD9567873
_publ_section_title
;
Structure prediction by ZEFSAII (Michael W. Deem and Ramdas Pophale) SiO2 
 PCOD9567873
Probable space group: P 42/N B C
;
_chemical_formula_sum "Si O2"
_cell_formula_units_Z 44
_cell_length_a 9.813460
_cell_length_b 9.813460
_cell_length_c 21.817865
_cell_angle_alpha 90.000000
_cell_angle_beta 90.000000
_cell_angle_gamma 90.000000
_cell_volume 2101.147609
_symmetry_space_group_name_H-M "P 42/N B C"
_symmetry_group_IT_number 133
_space_group.IT_coordinate_system_code '2'
_symmetry_cell_setting 'tetragonal'
loop_
_space_group_symop_operation_xyz
x,y,z
1/2-y,x,1/2+z
1/2-x,1/2-y,z
y,1/2-x,1/2+z
x,1/2-y,-z
1/2-x,y,-z
y,x,1/2-z
1/2-y,1/2-x,1/2-z
-x,-y,-z
1/2+y,-x,1/2-z
1/2+x,1/2+y,-z
-y,1/2+x,1/2-z
-x,1/2+y,z
1/2+x,-y,z
-y,-x,1/2+z
1/2+y,1/2+x,1/2+z
loop_
_atom_site_type_symbol
_atom_site_label
_atom_site_fract_x
_atom_site_fract_y
_atom_site_fract_z
Si Si1 0.958785 0.760466 0.642489
Si Si2 0.563292 0.474772 0.566219
Si Si3 0.750000 0.750000 0.750000
Si Si4 0.750000 0.250000 0.391165
O O1 0.878831 0.752423 0.705121
O O2 0.958045 0.616976 0.606337
O O3 0.120021 0.789759 0.649077
O O4 0.906320 0.883149 0.599707
O O5 0.500000 0.500000 0.500000
O O6 0.694592 0.375383 0.568379
#
# Coordination Sequence:
#
# PCOD9567873 Si02
#       4
#    16  16   4   8
#     4  10  25  46  72 107 150 206 252 323 391 459
#     4  10  22  45  76 115 145 190 254 329 397 457
#     4  12  28  48  66 100 166 210 268 290 380 492
#     4   8  24  45  75 108 144 193 251 318 404 440
#
# _framework density 20.940937000000002
#
# number of rings (size 3 to 8) (size 9 to 14) (size 15 to 20)
#    2.182    0.000    0.000    1.091    5.091    4.364 
#    0.000    3.636    0.000    0.000    0.000    0.000 
#    0.000    0.000    0.000    0.000    0.000    0.000 
#
# Total GULP energy -245269.546841 kJ/mol
# GULP energy per Si atom -5574.307883 kJ/mol
# Density = 2.089327 g / cm^3
# Si number density = 20.940937 Si / 1000 Ang^3
#
#
#
# Elastic Constant Matrix: (Units=GPa)
#
#
# Indices 1 2 3 4 5 6 
#
# 1 121.3146 11.4796 65.8869 0.0000 0.0000 0.0000
# 2 11.4796 121.3146 65.8869 0.0000 0.0000 0.0000
# 3 65.8869 65.8869 178.2750 0.0000 0.0000 0.0000
# 4 0.0000 0.0000 0.0000 43.2401 0.0000 0.0000
# 5 0.0000 0.0000 0.0000 0.0000 43.2401 0.0000
# 6 0.0000 0.0000 0.0000 0.0000 0.0000 45.9696
#
#
#
# Elastic Compliance Matrix: (Units=1/GPa)
#
#
# Indices 1 2 3 4 5 6 
#
# 1 0.010498 0.001394 -0.004395 0.000000 0.000000 0.000000
# 2 0.001394 0.010498 -0.004395 0.000000 0.000000 0.000000
# 3 -0.004395 -0.004395 0.008858 0.000000 0.000000 0.000000
# 4 0.000000 0.000000 0.000000 0.023127 0.000000 0.000000
# 5 0.000000 0.000000 0.000000 0.000000 0.023127 0.000000
# 6 0.000000 0.000000 0.000000 0.000000 0.000000 0.021754
#
#
# Mechanical properties :
#
#
# Convention : Reuss Voigt Hill
#
# Bulk Modulus (GPa) = 66.39478 78.60123 72.49800
# Shear Modulus (GPa) = 42.49033 45.00003 43.74518
#
# Velocity S-wave (km/s) = 4.50939 4.64065 4.57549
# Velocity P-wave (km/s) = 7.67381 8.14435 7.91258
#
# Compressibility (1/GPa) = 0.01506143
#
# Stress axis : x y z
#
# Youngs Moduli (GPa) = 95.25561 95.25561 112.89433
#
# Poissons Ratio (x) = -0.13274 0.49616
# Poissons Ratio (y) = -0.13274 0.49616
# Poissons Ratio (z) = 0.41864 0.41864
#
# Static dielectric constant tensor:
#      x y z
#    x 1.795360 0.000000 0.000000 
#    y 0.000000 1.795360 0.000000 
#    z 0.000000 0.000000 1.687960 
# 
# From -- ./inp_files/5931.got.cif
#   From: 2010.05.17/outbox.cif.g08.bks.cpg/sg133_3_cif.got.tgz:5931.got - 2010.05.20 12:37:36.
