data_PCOD9567778
_publ_section_title
;
Structure prediction by ZEFSAII (Michael W. Deem and Ramdas Pophale) SiO2 
 PCOD9567778
Probable space group: P 42/N B C
;
_chemical_formula_sum "Si O2"
_cell_formula_units_Z 112
_cell_length_a 14.873991
_cell_length_b 14.873991
_cell_length_c 27.076750
_cell_angle_alpha 90.000000
_cell_angle_beta 90.000000
_cell_angle_gamma 90.000000
_cell_volume 5990.341256
_symmetry_space_group_name_H-M "P 42/N B C"
_symmetry_group_IT_number 133
_space_group.IT_coordinate_system_code '2'
_symmetry_cell_setting 'tetragonal'
loop_
_space_group_symop_operation_xyz
x,y,z
1/2-y,x,1/2+z
1/2-x,1/2-y,z
y,1/2-x,1/2+z
x,1/2-y,-z
1/2-x,y,-z
y,x,1/2-z
1/2-y,1/2-x,1/2-z
-x,-y,-z
1/2+y,-x,1/2-z
1/2+x,1/2+y,-z
-y,1/2+x,1/2-z
-x,1/2+y,z
1/2+x,-y,z
-y,-x,1/2+z
1/2+y,1/2+x,1/2+z
loop_
_atom_site_type_symbol
_atom_site_label
_atom_site_fract_x
_atom_site_fract_y
_atom_site_fract_z
Si Si1 0.320712 0.331853 0.806384
Si Si2 0.666425 0.800749 0.552254
Si Si3 0.061706 0.908722 0.647836
Si Si4 0.494120 0.217549 0.374316
Si Si5 0.893550 0.458624 0.352699
Si Si6 0.288229 0.034483 0.391363
Si Si7 0.630414 0.159726 0.750804
O O1 0.250000 0.250000 0.806033
O O2 0.348730 0.348730 0.750000
O O3 0.282725 0.425179 0.827872
O O4 0.399991 0.304165 0.843864
O O5 0.750000 0.750000 0.578499
O O6 0.659705 0.750000 0.500000
O O7 0.573100 0.788772 0.579745
O O8 0.694448 0.904620 0.560037
O O9 0.097315 0.895280 0.703494
O O10 0.046131 0.810263 0.626210
O O11 0.135068 0.960574 0.615476
O O12 0.969484 0.964800 0.649244
O O13 0.558025 0.131397 0.372207
O O14 0.810059 0.492272 0.385446
O O15 0.857995 0.431693 0.298219
O O16 0.632370 0.266154 0.738448
#
# Coordination Sequence:
#
# PCOD9567778 Si02
#       7
#    16  16  16  16  16  16  16
#     4  10  21  37  54  81 125 168 226 278 315 369
#     4  10  21  45  76  96 122 157 214 285 357 411
#     4  12  23  38  60  87 132 178 234 274 324 388
#     4  11  23  39  61  96 126 175 216 270 342 386
#     4  12  23  38  61  87 137 177 229 285 319 398
#     4  11  23  39  61  95 124 171 222 276 334 406
#     4  11  23  38  54  83 130 193 241 264 320 387
#
# _framework density 18.696764999999999
#
# number of rings (size 3 to 8) (size 9 to 14) (size 15 to 20)
#    0.000    1.000    5.714    3.857    4.000    0.571 
#    0.000    0.714    3.143    0.000    0.000    1.000 
#    0.000    0.000    0.000    0.000    0.000    0.000 
#
# Total GULP energy -625445.818944 kJ/mol
# GULP energy per Si atom -5584.337669 kJ/mol
# Density = 1.865421 g / cm^3
# Si number density = 18.696765 Si / 1000 Ang^3
#
#
#
# Elastic Constant Matrix: (Units=GPa)
#
#
# Indices 1 2 3 4 5 6 
#
# 1 101.3278 39.0477 36.1831 0.0000 0.0000 0.0000
# 2 39.0477 101.3278 36.1831 0.0000 0.0000 0.0000
# 3 36.1831 36.1831 85.8459 0.0000 0.0000 0.0000
# 4 0.0000 0.0000 0.0000 12.5635 0.0000 0.0000
# 5 0.0000 0.0000 0.0000 0.0000 12.5635 0.0000
# 6 0.0000 0.0000 0.0000 0.0000 0.0000 47.6260
#
#
#
# Elastic Compliance Matrix: (Units=1/GPa)
#
#
# Indices 1 2 3 4 5 6 
#
# 1 0.012579 -0.003478 -0.003836 0.000000 0.000000 0.000000
# 2 -0.003478 0.012579 -0.003836 0.000000 0.000000 0.000000
# 3 -0.003836 -0.003836 0.014883 0.000000 0.000000 0.000000
# 4 0.000000 0.000000 0.000000 0.079596 0.000000 0.000000
# 5 0.000000 0.000000 0.000000 0.000000 0.079596 0.000000
# 6 0.000000 0.000000 0.000000 0.000000 0.000000 0.020997
#
#
# Mechanical properties :
#
#
# Convention : Reuss Voigt Hill
#
# Bulk Modulus (GPa) = 56.36737 56.81437 56.59087
# Shear Modulus (GPa) = 20.12540 26.35641 23.24091
#
# Velocity S-wave (km/s) = 3.28443 3.75864 3.52951
# Velocity P-wave (km/s) = 6.67809 7.02067 6.85152
#
# Compressibility (1/GPa) = 0.01774076
#
# Stress axis : x y z
#
# Youngs Moduli (GPa) = 79.49809 79.49809 67.19276
#
# Poissons Ratio (x) = 0.27646 0.25776
# Poissons Ratio (y) = 0.27646 0.25776
# Poissons Ratio (z) = 0.30496 0.30496
#
# Static dielectric constant tensor:
#      x y z
#    x 1.656210 0.000000 0.000000 
#    y 0.000000 1.656210 0.000000 
#    z 0.000000 0.000000 1.665320 
# 
# From -- ./inp_files/7637.got.cif
#   From: 2010.05.17/outbox.cif.g08.bks.cpg/sg133_4_cif.got.tgz:7637.got - 2010.05.20 12:37:36.
