data_PCOD9567156
_publ_section_title
;
Structure prediction by ZEFSAII (Michael W. Deem and Ramdas Pophale) SiO2 
 PCOD9567156
Probable space group: P 42/M C M
;
_chemical_formula_sum "Si O2"
_cell_formula_units_Z 72
_cell_length_a 12.109310
_cell_length_b 12.109310
_cell_length_c 28.417142
_cell_angle_alpha 90.000000
_cell_angle_beta 90.000000
_cell_angle_gamma 90.000000
_cell_volume 4166.958662
_symmetry_space_group_name_H-M "P 42/M C M"
_symmetry_group_IT_number 132
_symmetry_cell_setting 'tetragonal'
loop_
_space_group_symop_operation_xyz
x,y,z
-y,x,1/2+z
-x,-y,z
y,-x,1/2+z
x,-y,1/2-z
-x,y,1/2-z
y,x,-z
-y,-x,-z
-x,-y,-z
y,-x,1/2-z
x,y,-z
-y,x,1/2-z
-x,y,1/2+z
x,-y,1/2+z
-y,-x,z
y,x,z
loop_
_atom_site_type_symbol
_atom_site_label
_atom_site_fract_x
_atom_site_fract_y
_atom_site_fract_z
Si Si1 0.710414 0.104948 0.370743
Si Si2 0.866402 0.511999 0.803512
Si Si3 0.836447 0.530603 0.944043
Si Si4 0.414973 0.414973 0.056649
Si Si5 0.144094 0.671816 0.877737
O O1 0.818453 0.181547 0.374118
O O2 0.629163 0.150946 0.329510
O O3 0.634739 0.110824 0.417604
O O4 0.727644 0.973559 0.364633
O O5 0.828074 0.500000 0.750000
O O6 0.823750 0.411374 0.835375
O O7 0.000000 0.500000 0.803895
O O8 0.707905 0.549516 0.932090
O O9 0.869991 0.414202 0.921098
O O10 0.853549 0.531747 0.000000
O O11 0.500000 0.500000 0.078247
O O12 0.420428 0.420428 0.000000
O O13 0.237256 0.762745 0.886751
#
# Coordination Sequence:
#
# PCOD9567156 Si02
#       5
#    16  16  16   8  16
#     4  10  20  34  53  78 105 138 179 214 254 313
#     4   8  16  33  55  76  99 131 171 212 254 301
#     4  10  19  34  53  74 101 135 178 221 263 313
#     4   9  16  26  46  74  99 123 155 207 270 312
#     4  10  21  34  51  78 108 138 174 215 260 311
#
# _framework density 17.278790000000001
#
# number of rings (size 3 to 8) (size 9 to 14) (size 15 to 20)
#    0.000    2.556    1.111    2.667    0.000    4.444 
#    0.000    0.000    0.000    0.000    0.000   12.444 
#    0.000    0.000    0.000    0.000    0.000    0.000 
#
# Total GULP energy -400892.449078 kJ/mol
# GULP energy per Si atom -5567.950682 kJ/mol
# Density = 1.723946 g / cm^3
# Si number density = 17.278790 Si / 1000 Ang^3
#
#
#
# Elastic Constant Matrix: (Units=GPa)
#
#
# Indices 1 2 3 4 5 6 
#
# 1 34.1435 43.8676 1.8526 0.0000 0.0000 0.0000
# 2 43.8676 34.1435 1.8526 0.0000 0.0000 0.0000
# 3 1.8526 1.8526 101.0158 0.0000 0.0000 0.0000
# 4 0.0000 0.0000 0.0000 11.2200 0.0000 0.0000
# 5 0.0000 0.0000 0.0000 0.0000 11.2200 0.0000
# 6 0.0000 0.0000 0.0000 0.0000 0.0000 8.2419
#
#
#
# Elastic Compliance Matrix: (Units=1/GPa)
#
#
# Indices 1 2 3 4 5 6 
#
# 1 -0.045003 0.057833 -0.000235 0.000000 0.000000 0.000000
# 2 0.057833 -0.045003 -0.000235 0.000000 0.000000 0.000000
# 3 -0.000235 -0.000235 0.009908 0.000000 0.000000 0.000000
# 4 0.000000 0.000000 0.000000 0.089126 0.000000 0.000000
# 5 0.000000 0.000000 0.000000 0.000000 0.089126 0.000000
# 6 0.000000 0.000000 0.000000 0.000000 0.000000 0.121331
#
#
# Mechanical properties :
#
#
# Convention : Reuss Voigt Hill
#
# Bulk Modulus (GPa) = 28.87949 29.38313 29.13131
# Shear Modulus (GPa) = 42.99191 14.25174 28.62182
#
# Velocity S-wave (km/s) = 4.99353 2.87507 4.07439
# Velocity P-wave (km/s) = 7.07087 5.29751 6.24743
#
# Compressibility (1/GPa) = 0.03462665
#
# Stress axis : x y z
#
# Youngs Moduli (GPa) = -22.22051 -22.22051 100.92782
#
# Poissons Ratio (x) = 1.28509 0.02375
# Poissons Ratio (y) = 1.28509 0.02375
# Poissons Ratio (z) = -0.00523 -0.00523
#
# Static dielectric constant tensor:
#      x y z
#    x 1.624150 0.000000 0.000000 
#    y 0.000000 1.624150 0.000000 
#    z 0.000000 0.000000 1.604500 
# 
# From -- ./inp_files/9791.got.cif
#   From: 2010.05.17/outbox.cif.g08.bks.cpg/sg132_5_cif.got.tgz:9791.got - 2010.05.20 12:30:18.
