data_PCOD9567027
_publ_section_title
;
Structure prediction by ZEFSAII (Michael W. Deem and Ramdas Pophale) SiO2 
 PCOD9567027
Probable space group: P 42/M C M
;
_chemical_formula_sum "Si O2"
_cell_formula_units_Z 116
_cell_length_a 28.910224
_cell_length_b 28.910224
_cell_length_c 7.752857
_cell_angle_alpha 90.000000
_cell_angle_beta 90.000000
_cell_angle_gamma 90.000000
_cell_volume 6479.846035
_symmetry_space_group_name_H-M "P 42/M C M"
_symmetry_group_IT_number 132
_symmetry_cell_setting 'tetragonal'
loop_
_space_group_symop_operation_xyz
x,y,z
-y,x,1/2+z
-x,-y,z
y,-x,1/2+z
x,-y,1/2-z
-x,y,1/2-z
y,x,-z
-y,-x,-z
-x,-y,-z
y,-x,1/2-z
x,y,-z
-y,x,1/2-z
-x,y,1/2+z
x,-y,1/2+z
-y,-x,z
y,x,z
loop_
_atom_site_type_symbol
_atom_site_label
_atom_site_fract_x
_atom_site_fract_y
_atom_site_fract_z
Si Si1 0.237713 0.350547 0.705276
Si Si2 0.447446 0.198627 0.206574
Si Si3 0.946809 0.872870 0.795598
Si Si4 0.092001 0.551280 0.706789
Si Si5 0.857600 0.300434 0.204538
Si Si6 0.355964 0.949215 0.704794
Si Si7 0.304344 0.304344 0.000000
Si Si8 0.801440 0.875503 0.293216
O O1 0.246878 0.339506 0.500000
O O2 0.228914 0.405760 0.718596
O O3 0.188577 0.326943 0.761399
O O4 0.274815 0.332244 0.844302
O O5 0.500000 0.213294 0.250000
O O6 0.442722 0.145124 0.269838
O O7 0.442553 0.198603 0.000000
O O8 0.913283 0.913283 0.722154
O O9 0.925380 0.823658 0.741389
O O10 0.000000 0.878840 0.750000
O O11 0.943492 0.874881 0.000000
O O12 0.076006 0.500000 0.750000
O O13 0.094164 0.554520 0.500000
O O14 0.059491 0.592063 0.773420
O O15 0.905143 0.327162 0.235216
O O16 0.864366 0.248995 0.277900
O O17 0.851704 0.296168 0.000000
O O18 0.357033 0.946973 0.500000
O O19 0.338257 0.000000 0.750000
O O20 0.799518 0.870784 0.500000
O O21 0.838319 0.838319 0.225170
#
# Coordination Sequence:
#
# PCOD9567027 Si02
#       8
#    16  16  16  16  16  16   4  16
#     4  11  23  40  61  90 124 164 209 257 313 367
#     4  10  18  34  58  88 120 158 208 262 311 362
#     4  10  21  37  56  81 105 129 161 198 247 316
#     4   9  19  33  53  76 104 138 181 239 300 355
#     4  10  22  38  58  80 107 141 187 240 291 353
#     4  11  23  38  54  74 103 139 181 233 297 363
#     4  12  26  40  60  90 132 168 204 259 313 370
#     4   9  19  37  58  79 103 132 165 209 261 315
#
# _framework density 17.90166
#
# number of rings (size 3 to 8) (size 9 to 14) (size 15 to 20)
#    0.000    1.931    2.069    1.448    1.931    4.000 
#    0.000    2.069    0.000    0.000    0.000    0.000 
#    0.000    0.000    0.000    0.000    0.000    1.034 
#
# Total GULP energy -645919.174331 kJ/mol
# GULP energy per Si atom -5568.268744 kJ/mol
# Density = 1.786091 g / cm^3
# Si number density = 17.901660 Si / 1000 Ang^3
#
#
#
# Elastic Constant Matrix: (Units=GPa)
#
#
# Indices 1 2 3 4 5 6 
#
# 1 81.4005 36.2491 10.8822 0.0000 0.0000 0.0000
# 2 36.2491 81.4005 10.8822 0.0000 0.0000 0.0000
# 3 10.8822 10.8822 63.6361 0.0000 0.0000 0.0000
# 4 0.0000 0.0000 0.0000 14.8874 0.0000 0.0000
# 5 0.0000 0.0000 0.0000 0.0000 14.8874 0.0000
# 6 0.0000 0.0000 0.0000 0.0000 0.0000 22.0058
#
#
#
# Elastic Compliance Matrix: (Units=1/GPa)
#
#
# Indices 1 2 3 4 5 6 
#
# 1 0.015463 -0.006685 -0.001501 0.000000 0.000000 0.000000
# 2 -0.006685 0.015463 -0.001501 0.000000 0.000000 0.000000
# 3 -0.001501 -0.001501 0.016228 0.000000 0.000000 0.000000
# 4 0.000000 0.000000 0.000000 0.067171 0.000000 0.000000
# 5 0.000000 0.000000 0.000000 0.000000 0.067171 0.000000
# 6 0.000000 0.000000 0.000000 0.000000 0.000000 0.045442
#
#
# Mechanical properties :
#
#
# Convention : Reuss Voigt Hill
#
# Bulk Modulus (GPa) = 35.99883 38.05154 37.02519
# Shear Modulus (GPa) = 19.56406 21.58439 20.57423
#
# Velocity S-wave (km/s) = 3.30943 3.47611 3.39380
# Velocity P-wave (km/s) = 5.89542 6.11663 6.00705
#
# Compressibility (1/GPa) = 0.02777868
#
# Stress axis : x y z
#
# Youngs Moduli (GPa) = 64.67216 64.67216 61.62299
#
# Poissons Ratio (x) = 0.43234 0.09250
# Poissons Ratio (y) = 0.43234 0.09250
# Poissons Ratio (z) = 0.09707 0.09707
#
# Static dielectric constant tensor:
#      x y z
#    x 1.579680 0.000000 0.000000 
#    y 0.000000 1.579680 0.000000 
#    z 0.000000 0.000000 1.622400 
# 
# From -- ./inp_files/2099.got.cif
#   From: 2010.05.17/outbox.cif.g08.bks.cpg/sg132_2_cif.got.tgz:2099.got - 2010.05.20 12:30:18.
