data_PCOD9567306
_publ_section_title
;
Structure prediction by ZEFSAII (Michael W. Deem and Ramdas Pophale) SiO2 
 PCOD9567306
Probable space group: P 42/M C M
;
_chemical_formula_sum "Si O2"
_cell_formula_units_Z 96
_cell_length_a 24.675680
_cell_length_b 24.675680
_cell_length_c 8.876630
_cell_angle_alpha 90.000000
_cell_angle_beta 90.000000
_cell_angle_gamma 90.000000
_cell_volume 5404.883993
_symmetry_space_group_name_H-M "P 42/M C M"
_symmetry_group_IT_number 132
_symmetry_cell_setting 'tetragonal'
loop_
_space_group_symop_operation_xyz
x,y,z
-y,x,1/2+z
-x,-y,z
y,-x,1/2+z
x,-y,1/2-z
-x,y,1/2-z
y,x,-z
-y,-x,-z
-x,-y,-z
y,-x,1/2-z
x,y,-z
-y,x,1/2-z
-x,y,1/2+z
x,-y,1/2+z
-y,-x,z
y,x,z
loop_
_atom_site_type_symbol
_atom_site_label
_atom_site_fract_x
_atom_site_fract_y
_atom_site_fract_z
Si Si1 0.943728 0.440706 0.179958
Si Si2 0.737177 0.351873 0.318338
Si Si3 0.269549 0.942308 0.319580
Si Si4 0.856551 0.349814 0.179956
Si Si5 0.056606 0.856774 0.680838
Si Si6 0.351969 0.440300 0.181651
O O1 0.936073 0.500000 0.250000
O O2 0.892207 0.403368 0.213675
O O3 0.000000 0.418865 0.250000
O O4 0.950148 0.444295 0.000000
O O5 0.742703 0.352113 0.500000
O O6 0.700973 0.299028 0.278477
O O7 0.796084 0.352177 0.244749
O O8 0.700547 0.404100 0.276117
O O9 0.275386 0.944371 0.500000
O O10 0.302286 0.892148 0.253067
O O11 0.206169 0.935610 0.279884
O O12 0.287217 0.000000 0.250000
O O13 0.854553 0.343290 0.000000
O O14 0.053153 0.859663 0.500000
O O15 0.105825 0.894176 0.732151
O O16 0.000000 0.875499 0.750000
O O17 0.351568 0.500000 0.250000
O O18 0.404602 0.404602 0.226221
O O19 0.352285 0.444003 0.000000
#
# Coordination Sequence:
#
# PCOD9567306 Si02
#       6
#    16  16  16  16  16  16
#     4  10  21  36  54  77 107 140 174 214 261 310
#     4   9  20  39  58  76 104 143 182 220 265 315
#     4  10  20  35  55  77 104 139 177 220 268 317
#     4  11  23  36  54  82 109 137 177 221 266 319
#     4   9  19  35  53  75 103 134 170 211 256 309
#     4   9  19  36  57  82 112 145 181 221 266 316
#
# _framework density 17.761713
#
# number of rings (size 3 to 8) (size 9 to 14) (size 15 to 20)
#    0.000    2.333    0.000    3.500    0.000    8.000 
#    0.000    8.333    0.000    0.000    0.000    0.000 
#    0.000    0.000    0.000    0.000    0.000    0.000 
#
# Total GULP energy -535754.248906 kJ/mol
# GULP energy per Si atom -5580.773426 kJ/mol
# Density = 1.772129 g / cm^3
# Si number density = 17.761713 Si / 1000 Ang^3
#
#
#
# Elastic Constant Matrix: (Units=GPa)
#
#
# Indices 1 2 3 4 5 6 
#
# 1 164.9620 97.7507 56.6450 0.0000 0.0000 0.0000
# 2 97.7507 164.9620 56.6450 0.0000 0.0000 0.0000
# 3 56.6450 56.6450 43.0365 0.0000 0.0000 0.0000
# 4 0.0000 0.0000 0.0000 11.4530 0.0000 0.0000
# 5 0.0000 0.0000 0.0000 0.0000 11.4530 0.0000
# 6 0.0000 0.0000 0.0000 0.0000 0.0000 24.5051
#
#
#
# Elastic Compliance Matrix: (Units=1/GPa)
#
#
# Indices 1 2 3 4 5 6 
#
# 1 0.011841 -0.003038 -0.011586 0.000000 0.000000 0.000000
# 2 -0.003038 0.011841 -0.011586 0.000000 0.000000 0.000000
# 3 -0.011586 -0.011586 0.053736 0.000000 0.000000 0.000000
# 4 0.000000 0.000000 0.000000 0.087313 0.000000 0.000000
# 5 0.000000 0.000000 0.000000 0.000000 0.087313 0.000000
# 6 0.000000 0.000000 0.000000 0.000000 0.000000 0.040808
#
#
# Mechanical properties :
#
#
# Convention : Reuss Voigt Hill
#
# Bulk Modulus (GPa) = 40.00563 88.33798 64.17180
# Shear Modulus (GPa) = 14.14004 20.27687 17.20846
#
# Velocity S-wave (km/s) = 2.82458 3.38243 3.11601
# Velocity P-wave (km/s) = 5.76282 8.06830 7.01098
#
# Compressibility (1/GPa) = 0.02499648
#
# Stress axis : x y z
#
# Youngs Moduli (GPa) = 84.45469 84.45469 18.60933
#
# Poissons Ratio (x) = 0.25656 0.21562
# Poissons Ratio (y) = 0.25656 0.21562
# Poissons Ratio (z) = 0.97853 0.97853
#
# Static dielectric constant tensor:
#      x y z
#    x 1.594860 0.000000 0.000000 
#    y 0.000000 1.594860 0.000000 
#    z 0.000000 0.000000 1.594760 
# 
# From -- ./inp_files/1792.got.cif
#   From: 2010.05.17/outbox.cif.g08.bks.cpg/sg132_1_cif.got.tgz:1792.got - 2010.05.20 12:30:18.
