data_PCOD9567585
_publ_section_title
;
Structure prediction by ZEFSAII (Michael W. Deem and Ramdas Pophale) SiO2 
 PCOD9567585
Probable space group: P 42/N B C
;
_chemical_formula_sum "Si O2"
_cell_formula_units_Z 96
_cell_length_a 25.214916
_cell_length_b 25.214916
_cell_length_c 9.809154
_cell_angle_alpha 90.000000
_cell_angle_beta 90.000000
_cell_angle_gamma 90.000000
_cell_volume 6236.581531
_symmetry_space_group_name_H-M "P 42/N B C"
_symmetry_group_IT_number 133
_space_group.IT_coordinate_system_code '2'
_symmetry_cell_setting 'tetragonal'
loop_
_space_group_symop_operation_xyz
x,y,z
1/2-y,x,1/2+z
1/2-x,1/2-y,z
y,1/2-x,1/2+z
x,1/2-y,-z
1/2-x,y,-z
y,x,1/2-z
1/2-y,1/2-x,1/2-z
-x,-y,-z
1/2+y,-x,1/2-z
1/2+x,1/2+y,-z
-y,1/2+x,1/2-z
-x,1/2+y,z
1/2+x,-y,z
-y,-x,1/2+z
1/2+y,1/2+x,1/2+z
loop_
_atom_site_type_symbol
_atom_site_label
_atom_site_fract_x
_atom_site_fract_y
_atom_site_fract_z
Si Si1 0.193050 0.032765 0.960068
Si Si2 0.580823 0.492848 0.089134
Si Si3 0.033013 0.309024 0.977021
Si Si4 0.994644 0.081628 0.912158
Si Si5 0.888473 0.801729 0.213118
Si Si6 0.813388 0.600493 0.222237
O O1 0.187568 0.080493 0.068179
O O2 0.250000 0.007827 0.000000
O O3 0.193250 0.060268 0.812041
O O4 0.140832 0.997234 0.963508
O O5 0.550485 0.549570 0.072463
O O6 0.580283 0.481320 0.251243
O O7 0.547341 0.450831 0.002300
O O8 0.000711 0.358731 0.033460
O O9 0.088319 0.308917 0.062389
O O10 0.009843 0.250000 0.000000
O O11 0.049103 0.315750 0.820165
O O12 0.845052 0.845052 0.250000
O O13 0.870403 0.741580 0.239501
O O14 0.862778 0.637223 0.250000
#
# Coordination Sequence:
#
# PCOD9567585 Si02
#       6
#    16  16  16  16  16  16
#     4  10  20  33  49  67  91 127 164 198 241 294
#     4  10  20  33  50  72  98 127 159 201 250 295
#     4  10  20  33  49  67  91 127 164 198 241 294
#     4  10  20  33  50  72  98 127 159 201 250 295
#     4  10  18  31  47  61  85 125 164 200 248 286
#     4  10  20  29  43  67  89 117 162 208 242 280
#
# _framework density 15.393049
#
# number of rings (size 3 to 8) (size 9 to 14) (size 15 to 20)
#    0.000    2.000    1.667    3.000    2.333    0.333 
#    0.000    0.000    0.000    6.000    0.000    0.000 
#    0.000    0.667    0.000    3.000    0.000    0.333 
#
# Total GULP energy -535279.284013 kJ/mol
# GULP energy per Si atom -5575.825875 kJ/mol
# Density = 1.535801 g / cm^3
# Si number density = 15.393049 Si / 1000 Ang^3
#
#
#
# Elastic Constant Matrix: (Units=GPa)
#
#
# Indices 1 2 3 4 5 6 
#
# 1 80.7949 37.2556 18.6547 0.0000 0.0000 0.0000
# 2 37.2556 80.7965 18.6545 0.0000 0.0000 0.0000
# 3 18.6547 18.6545 43.7561 0.0000 0.0000 0.0000
# 4 0.0000 0.0000 0.0000 18.0637 0.0000 0.0000
# 5 0.0000 0.0000 0.0000 0.0000 18.0633 0.0000
# 6 0.0000 0.0000 0.0000 0.0000 0.0000 20.8670
#
#
#
# Elastic Compliance Matrix: (Units=1/GPa)
#
#
# Indices 1 2 3 4 5 6 
#
# 1 0.016379 -0.006589 -0.004174 0.000000 0.000000 0.000000
# 2 -0.006589 0.016378 -0.004174 0.000000 0.000000 0.000000
# 3 -0.004174 -0.004174 0.026413 0.000000 0.000000 0.000000
# 4 0.000000 0.000000 0.000000 0.055360 0.000000 0.000000
# 5 0.000000 0.000000 0.000000 0.000000 0.055361 0.000000
# 6 0.000000 0.000000 0.000000 0.000000 0.000000 0.047923
#
#
# Mechanical properties :
#
#
# Convention : Reuss Voigt Hill
#
# Bulk Modulus (GPa) = 34.13248 39.38637 36.75942
# Shear Modulus (GPa) = 19.42111 20.11763 19.76937
#
# Velocity S-wave (km/s) = 3.55587 3.61907 3.58761
# Velocity P-wave (km/s) = 6.25148 6.56553 6.41043
#
# Compressibility (1/GPa) = 0.02929761
#
# Stress axis : x y z
#
# Youngs Moduli (GPa) = 61.05429 61.05575 37.86048
#
# Poissons Ratio (x) = 0.40228 0.15803
# Poissons Ratio (y) = 0.40227 0.15802
# Poissons Ratio (z) = 0.25484 0.25483
#
# Static dielectric constant tensor:
#      x y z
#    x 1.510970 0.000000 0.000000 
#    y 0.000000 1.510970 0.000000 
#    z 0.000000 0.000000 1.520930 
# 
# From -- ./inp_files/2024.got.cif
#   From: 2010.05.17/outbox.cif.g08.bks.cpg/sg133_2_cif.got.tgz:2024.got - 2010.05.20 12:37:36.
