data_PCOD9567374
_publ_section_title
;
Structure prediction by ZEFSAII (Michael W. Deem and Ramdas Pophale) SiO2 
 PCOD9567374
Probable space group: P 42/M C M
;
_chemical_formula_sum "Si O2"
_cell_formula_units_Z 96
_cell_length_a 24.885563
_cell_length_b 24.885563
_cell_length_c 8.590552
_cell_angle_alpha 90.000000
_cell_angle_beta 90.000000
_cell_angle_gamma 90.000000
_cell_volume 5320.053650
_symmetry_space_group_name_H-M "P 42/M C M"
_symmetry_group_IT_number 132
_symmetry_cell_setting 'tetragonal'
loop_
_space_group_symop_operation_xyz
x,y,z
-y,x,1/2+z
-x,-y,z
y,-x,1/2+z
x,-y,1/2-z
-x,y,1/2-z
y,x,-z
-y,-x,-z
-x,-y,-z
y,-x,1/2-z
x,y,-z
-y,x,1/2-z
-x,y,1/2+z
x,-y,1/2+z
-y,-x,z
y,x,z
loop_
_atom_site_type_symbol
_atom_site_label
_atom_site_fract_x
_atom_site_fract_y
_atom_site_fract_z
Si Si1 0.440397 0.354364 0.185978
Si Si2 0.147610 0.648693 0.812221
Si Si3 0.644097 0.729964 0.312110
Si Si4 0.059311 0.856439 0.312784
Si Si5 0.059907 0.559823 0.187954
Si Si6 0.146806 0.232482 0.812111
O O1 0.500000 0.353629 0.250000
O O2 0.408656 0.408656 0.230468
O O3 0.404953 0.305907 0.253081
O O4 0.440990 0.350533 0.000000
O O5 0.208826 0.638236 0.758051
O O6 0.103867 0.604309 0.761678
O O7 0.136738 0.709219 0.757399
O O8 0.147421 0.647596 0.000000
O O9 0.644101 0.730174 0.500000
O O10 0.698663 0.698663 0.261671
O O11 0.057757 0.857056 0.500000
O O12 0.089144 0.910857 0.260083
O O13 0.098420 0.807493 0.267987
O O14 0.000000 0.850881 0.250000
O O15 0.073359 0.500000 0.250000
O O16 0.000000 0.572874 0.250000
O O17 0.058361 0.558210 0.000000
O O18 0.202015 0.202015 0.762697
O O19 0.148273 0.236186 0.000000
#
# Coordination Sequence:
#
# PCOD9567374 Si02
#       6
#    16  16  16  16  16  16
#     4  10  21  36  54  77 105 138 176 216 258 304
#     4  10  21  35  55  83 108 134 171 212 255 308
#     4   9  18  34  54  76 106 139 169 208 257 305
#     4   9  19  35  52  73 103 137 175 219 264 309
#     4  10  21  38  57  77 104 136 171 212 259 307
#     4   9  19  35  53  75 106 141 174 212 257 304
#
# _framework density 18.044930999999998
#
# number of rings (size 3 to 8) (size 9 to 14) (size 15 to 20)
#    0.000    2.500    0.000    3.000    0.000    6.667 
#    0.000   10.000    0.000    0.000    0.000    0.000 
#    0.000    0.000    0.000    0.000    0.000    0.000 
#
# Total GULP energy -535460.840355 kJ/mol
# GULP energy per Si atom -5577.717087 kJ/mol
# Density = 1.800386 g / cm^3
# Si number density = 18.044931 Si / 1000 Ang^3
#
#
#
# Elastic Constant Matrix: (Units=GPa)
#
#
# Indices 1 2 3 4 5 6 
#
# 1 181.8884 87.6685 28.2499 0.0000 0.0000 0.0000
# 2 87.6685 181.8884 28.2499 0.0000 0.0000 0.0000
# 3 28.2499 28.2499 12.6648 0.0000 0.0000 0.0000
# 4 0.0000 0.0000 0.0000 27.2627 0.0000 0.0000
# 5 0.0000 0.0000 0.0000 0.0000 27.2627 0.0000
# 6 0.0000 0.0000 0.0000 0.0000 0.0000 23.4939
#
#
#
# Elastic Compliance Matrix: (Units=1/GPa)
#
#
# Indices 1 2 3 4 5 6 
#
# 1 0.008790 -0.001823 -0.015541 0.000000 0.000000 0.000000
# 2 -0.001823 0.008790 -0.015541 0.000000 0.000000 0.000000
# 3 -0.015541 -0.015541 0.148291 0.000000 0.000000 0.000000
# 4 0.000000 0.000000 0.000000 0.036680 0.000000 0.000000
# 5 0.000000 0.000000 0.000000 0.000000 0.036680 0.000000
# 6 0.000000 0.000000 0.000000 0.000000 0.000000 0.042564
#
#
# Mechanical properties :
#
#
# Convention : Reuss Voigt Hill
#
# Bulk Modulus (GPa) = 9.99392 73.86427 41.92909
# Shear Modulus (GPa) = 13.12474 31.08875 22.10674
#
# Velocity S-wave (km/s) = 2.69984 4.15523 3.50393
# Velocity P-wave (km/s) = 3.90759 8.00273 6.29734
#
# Compressibility (1/GPa) = 0.10006087
#
# Stress axis : x y z
#
# Youngs Moduli (GPa) = 113.76108 113.76108 6.74352
#
# Poissons Ratio (x) = 0.20740 0.10480
# Poissons Ratio (y) = 0.20740 0.10480
# Poissons Ratio (z) = 1.76797 1.76797
#
# Static dielectric constant tensor:
#      x y z
#    x 1.607810 0.000000 0.000000 
#    y 0.000000 1.607810 0.000000 
#    z 0.000000 0.000000 1.614330 
# 
# From -- ./inp_files/1776.got.cif
#   From: 2010.05.17/outbox.cif.g08.bks.cpg/sg132_1_cif.got.tgz:1776.got - 2010.05.20 12:30:18.
