data_PCOD9567577
_publ_section_title
;
Structure prediction by ZEFSAII (Michael W. Deem and Ramdas Pophale) SiO2 
 PCOD9567577
Probable space group: P 42/N B C
;
_chemical_formula_sum "Si O2"
_cell_formula_units_Z 104
_cell_length_a 18.508800
_cell_length_b 18.508800
_cell_length_c 15.884425
_cell_angle_alpha 90.000000
_cell_angle_beta 90.000000
_cell_angle_gamma 90.000000
_cell_volume 5441.617655
_symmetry_space_group_name_H-M "P 42/N B C"
_symmetry_group_IT_number 133
_space_group.IT_coordinate_system_code '2'
_symmetry_cell_setting 'tetragonal'
loop_
_space_group_symop_operation_xyz
x,y,z
1/2-y,x,1/2+z
1/2-x,1/2-y,z
y,1/2-x,1/2+z
x,1/2-y,-z
1/2-x,y,-z
y,x,1/2-z
1/2-y,1/2-x,1/2-z
-x,-y,-z
1/2+y,-x,1/2-z
1/2+x,1/2+y,-z
-y,1/2+x,1/2-z
-x,1/2+y,z
1/2+x,-y,z
-y,-x,1/2+z
1/2+y,1/2+x,1/2+z
loop_
_atom_site_type_symbol
_atom_site_label
_atom_site_fract_x
_atom_site_fract_y
_atom_site_fract_z
Si Si1 0.585230 0.585230 0.250000
Si Si2 0.858744 0.626905 0.572191
Si Si3 0.334336 0.998081 0.688318
Si Si4 0.949866 0.947899 0.557354
Si Si5 0.338667 0.161334 0.750000
Si Si6 0.424134 0.922297 0.819264
Si Si7 0.965436 0.295212 0.079903
Si Si8 0.750000 0.750000 0.610953
O O1 0.629122 0.607956 0.166638
O O2 0.592911 0.501774 0.276475
O O3 0.918959 0.617370 0.499637
O O4 0.820732 0.548244 0.564533
O O5 0.802485 0.692136 0.565160
O O6 0.384382 0.011999 0.605664
O O7 0.327796 0.075917 0.734143
O O8 0.368263 0.936036 0.745687
O O9 0.257394 0.972207 0.658358
O O10 0.001721 0.925345 0.632611
O O11 0.000000 0.000000 0.500000
O O12 0.297693 0.196561 0.829775
O O13 0.416935 0.862081 0.891070
O O14 0.939629 0.250000 0.000000
#
# Coordination Sequence:
#
# PCOD9567577 Si02
#       8
#     8  16  16  16   8  16  16   8
#     4  10  17  33  55  90 111 161 225 276 308 366
#     4  11  22  34  58  84 132 178 219 257 312 391
#     4  12  21  38  61  89 127 162 214 267 327 384
#     4  12  19  36  61  89 122 168 221 281 319 356
#     4  11  21  36  59  76 125 188 211 255 296 374
#     4  11  21  36  63  91 123 161 218 274 332 375
#     4  11  22  38  61  94 126 160 209 271 332 391
#     4  11  24  38  51  88 134 192 212 237 315 416
#
# _framework density 19.111965000000001
#
# number of rings (size 3 to 8) (size 9 to 14) (size 15 to 20)
#    0.000    0.769    9.231    0.923    2.154    0.000 
#    0.000    4.231    0.000    0.462    0.000    1.077 
#    0.000    0.000    0.000    0.000    0.000    0.000 
#
# Total GULP energy -580486.937446 kJ/mol
# GULP energy per Si atom -5581.605168 kJ/mol
# Density = 1.906847 g / cm^3
# Si number density = 19.111965 Si / 1000 Ang^3
#
#
#
# Elastic Constant Matrix: (Units=GPa)
#
#
# Indices 1 2 3 4 5 6 
#
# 1 74.4634 32.3503 29.5144 0.0000 0.0000 0.0000
# 2 32.3503 74.4629 29.5143 0.0000 0.0000 0.0000
# 3 29.5144 29.5143 78.6213 0.0000 0.0000 0.0000
# 4 0.0000 0.0000 0.0000 30.0168 0.0000 0.0000
# 5 0.0000 0.0000 0.0000 0.0000 30.0171 0.0000
# 6 0.0000 0.0000 0.0000 0.0000 0.0000 34.7420
#
#
#
# Elastic Compliance Matrix: (Units=1/GPa)
#
#
# Indices 1 2 3 4 5 6 
#
# 1 0.017779 -0.005966 -0.004434 0.000000 0.000000 0.000000
# 2 -0.005966 0.017779 -0.004435 0.000000 0.000000 0.000000
# 3 -0.004434 -0.004435 0.016049 0.000000 0.000000 0.000000
# 4 0.000000 0.000000 0.000000 0.033315 0.000000 0.000000
# 5 0.000000 0.000000 0.000000 0.000000 0.033314 0.000000
# 6 0.000000 0.000000 0.000000 0.000000 0.000000 0.028784
#
#
# Mechanical properties :
#
#
# Convention : Reuss Voigt Hill
#
# Bulk Modulus (GPa) = 45.58684 45.58950 45.58817
# Shear Modulus (GPa) = 27.17352 28.03309 27.60330
#
# Velocity S-wave (km/s) = 3.77478 3.83401 3.80451
# Velocity P-wave (km/s) = 6.55003 6.59585 6.57298
#
# Compressibility (1/GPa) = 0.02193616
#
# Stress axis : x y z
#
# Youngs Moduli (GPa) = 56.24558 56.24521 62.31069
#
# Poissons Ratio (x) = 0.33559 0.27632
# Poissons Ratio (y) = 0.33559 0.27632
# Poissons Ratio (z) = 0.24942 0.24942
#
# Static dielectric constant tensor:
#      x y z
#    x 1.661910 0.000000 0.000000 
#    y 0.000000 1.661920 0.000000 
#    z 0.000000 0.000000 1.753090 
# 
# From -- ./inp_files/5632.got.cif
#   From: 2010.05.17/outbox.cif.g08.bks.cpg/sg133_3_cif.got.tgz:5632.got - 2010.05.20 12:37:36.
