data_PCOD9567057
_publ_section_title
;
Structure prediction by ZEFSAII (Michael W. Deem and Ramdas Pophale) SiO2 
 PCOD9567057
Probable space group: P 42/M C M
;
_chemical_formula_sum "Si O2"
_cell_formula_units_Z 120
_cell_length_a 15.744828
_cell_length_b 15.744828
_cell_length_c 28.989751
_cell_angle_alpha 90.000000
_cell_angle_beta 90.000000
_cell_angle_gamma 90.000000
_cell_volume 7186.547931
_symmetry_space_group_name_H-M "P 42/M C M"
_symmetry_group_IT_number 132
_symmetry_cell_setting 'tetragonal'
loop_
_space_group_symop_operation_xyz
x,y,z
-y,x,1/2+z
-x,-y,z
y,-x,1/2+z
x,-y,1/2-z
-x,y,1/2-z
y,x,-z
-y,-x,-z
-x,-y,-z
y,-x,1/2-z
x,y,-z
-y,x,1/2-z
-x,y,1/2+z
x,-y,1/2+z
-y,-x,z
y,x,z
loop_
_atom_site_type_symbol
_atom_site_label
_atom_site_fract_x
_atom_site_fract_y
_atom_site_fract_z
Si Si1 0.308086 0.164905 0.303116
Si Si2 0.429989 0.828394 0.448761
Si Si3 0.421692 0.715916 0.363131
Si Si4 0.000000 0.500000 0.086698
Si Si5 0.239934 0.901452 0.553947
Si Si6 0.995474 0.315213 0.132231
Si Si7 0.838901 0.697141 0.194761
Si Si8 0.697695 0.556994 0.705217
O O1 0.230846 0.230846 0.308147
O O2 0.312438 0.141067 0.248861
O O3 0.394569 0.217619 0.310999
O O4 0.296580 0.088124 0.338261
O O5 0.442449 0.793547 0.500000
O O6 0.453606 0.767162 0.407143
O O7 0.481429 0.916023 0.442978
O O8 0.329436 0.850141 0.442901
O O9 0.348962 0.651039 0.377765
O O10 0.378229 0.781051 0.326515
O O11 0.496030 0.669338 0.335848
O O12 0.990270 0.413665 0.116177
O O13 0.229771 0.925503 0.500000
O O14 0.162321 0.837680 0.566385
O O15 0.256384 0.980940 0.587955
O O16 0.076084 0.302254 0.165396
O O17 0.781874 0.781874 0.189170
O O18 0.712469 0.500000 0.750000
O O19 0.628564 0.628564 0.716857
#
# Coordination Sequence:
#
# PCOD9567057 Si02
#       8
#    16  16  16   8  16  16  16  16
#     4  10  22  36  51  73 107 144 177 214 257 317
#     4  10  19  31  49  74 107 143 173 209 265 325
#     4  11  20  33  52  77 107 133 169 221 268 311
#     4  10  19  30  47  78 108 136 171 218 261 320
#     4   9  17  30  51  79 106 134 175 225 272 317
#     4  11  20  32  52  77 106 143 176 210 268 323
#     4  10  19  34  52  75 105 139 174 215 263 311
#     4  11  22  37  56  76 101 138 181 225 268 312
#
# _framework density 16.697865
#
# number of rings (size 3 to 8) (size 9 to 14) (size 15 to 20)
#    0.000    1.733    4.000    2.600    0.000    2.267 
#    0.000    0.667    0.000    2.400    0.000    7.467 
#    0.000    0.000    0.000    0.000    0.000    0.000 
#
# Total GULP energy -669083.486679 kJ/mol
# GULP energy per Si atom -5575.695722 kJ/mol
# Density = 1.665986 g / cm^3
# Si number density = 16.697865 Si / 1000 Ang^3
#
#
#
# Elastic Constant Matrix: (Units=GPa)
#
#
# Indices 1 2 3 4 5 6 
#
# 1 66.4510 25.7860 37.9643 0.0000 0.0000 0.0000
# 2 25.7860 66.4510 37.9643 0.0000 0.0000 0.0000
# 3 37.9643 37.9643 100.0865 0.0000 0.0000 0.0000
# 4 0.0000 0.0000 0.0000 15.8794 0.0000 0.0000
# 5 0.0000 0.0000 0.0000 0.0000 15.8794 0.0000
# 6 0.0000 0.0000 0.0000 0.0000 0.0000 17.2335
#
#
#
# Elastic Compliance Matrix: (Units=1/GPa)
#
#
# Indices 1 2 3 4 5 6 
#
# 1 0.020178 -0.004414 -0.005979 0.000000 0.000000 0.000000
# 2 -0.004414 0.020178 -0.005979 0.000000 0.000000 0.000000
# 3 -0.005979 -0.005979 0.014528 0.000000 0.000000 0.000000
# 4 0.000000 0.000000 0.000000 0.062975 0.000000 0.000000
# 5 0.000000 0.000000 0.000000 0.000000 0.062975 0.000000
# 6 0.000000 0.000000 0.000000 0.000000 0.000000 0.058026
#
#
# Mechanical properties :
#
#
# Convention : Reuss Voigt Hill
#
# Bulk Modulus (GPa) = 45.17237 48.49085 46.83161
# Shear Modulus (GPa) = 17.92226 18.55006 18.23616
#
# Velocity S-wave (km/s) = 3.27972 3.33667 3.30832
# Velocity P-wave (km/s) = 6.43845 6.62930 6.53457
#
# Compressibility (1/GPa) = 0.02213742
#
# Stress axis : x y z
#
# Youngs Moduli (GPa) = 49.56012 49.56012 68.83468
#
# Poissons Ratio (x) = 0.21874 0.41159
# Poissons Ratio (y) = 0.21874 0.41159
# Poissons Ratio (z) = 0.29634 0.29634
#
# Static dielectric constant tensor:
#      x y z
#    x 1.559460 0.000000 0.000000 
#    y 0.000000 1.559460 0.000000 
#    z 0.000000 0.000000 1.579270 
# 
# From -- ./inp_files/11100.got.cif
#   From: 2010.05.17/outbox.cif.g08.bks.cpg/sg132_6_cif.got.tgz:11100.got - 2010.05.20 12:30:18.
