data_PCOD9567769
_publ_section_title
;
Structure prediction by ZEFSAII (Michael W. Deem and Ramdas Pophale) SiO2 
 PCOD9567769
Probable space group: P 42/N B C
;
_chemical_formula_sum "Si O2"
_cell_formula_units_Z 96
_cell_length_a 17.771214
_cell_length_b 17.771214
_cell_length_c 16.432027
_cell_angle_alpha 90.000000
_cell_angle_beta 90.000000
_cell_angle_gamma 90.000000
_cell_volume 5189.497812
_symmetry_space_group_name_H-M "P 42/N B C"
_symmetry_group_IT_number 133
_space_group.IT_coordinate_system_code '2'
_symmetry_cell_setting 'tetragonal'
loop_
_space_group_symop_operation_xyz
x,y,z
1/2-y,x,1/2+z
1/2-x,1/2-y,z
y,1/2-x,1/2+z
x,1/2-y,-z
1/2-x,y,-z
y,x,1/2-z
1/2-y,1/2-x,1/2-z
-x,-y,-z
1/2+y,-x,1/2-z
1/2+x,1/2+y,-z
-y,1/2+x,1/2-z
-x,1/2+y,z
1/2+x,-y,z
-y,-x,1/2+z
1/2+y,1/2+x,1/2+z
loop_
_atom_site_type_symbol
_atom_site_label
_atom_site_fract_x
_atom_site_fract_y
_atom_site_fract_z
Si Si1 0.579728 0.077546 0.099017
Si Si2 0.761575 0.424997 0.684677
Si Si3 0.037640 0.685077 0.547629
Si Si4 0.488470 0.435493 0.666095
Si Si5 0.513635 0.867115 0.246482
Si Si6 0.329041 0.792610 0.651445
O O1 0.573555 0.163129 0.131712
O O2 0.495125 0.046198 0.103566
O O3 0.625262 0.028386 0.166534
O O4 0.619920 0.064397 0.013744
O O5 0.716928 0.499428 0.713348
O O6 0.780753 0.372968 0.763630
O O7 0.696982 0.377895 0.639359
O O8 0.993062 0.750000 0.500000
O O9 0.997653 0.644329 0.623344
O O10 0.110637 0.727325 0.584022
O O11 0.440541 0.440541 0.750000
O O12 0.569708 0.468388 0.693532
O O13 0.597543 0.902458 0.250000
O O14 0.250000 0.750000 0.647674
#
# Coordination Sequence:
#
# PCOD9567769 Si02
#       6
#    16  16  16  16  16  16
#     4  10  21  32  52  74 109 144 183 232 275 330
#     4  12  17  33  52  75 104 154 192 223 267 336
#     4  12  23  33  49  81 113 144 182 238 290 332
#     4   9  19  39  54  69 101 150 190 223 264 338
#     4   9  18  34  53  71 102 148 191 223 260 329
#     4  12  21  31  49  74 114 153 181 213 272 348
#
# _framework density 18.498899999999999
#
# number of rings (size 3 to 8) (size 9 to 14) (size 15 to 20)
#    0.000    1.667    5.000    3.500    0.000    2.333 
#    0.000    0.000    0.000    0.000    0.000    0.000 
#    0.000   77.333    0.000    0.000    0.000    0.000 
#
# Total GULP energy -535006.630046 kJ/mol
# GULP energy per Si atom -5572.985730 kJ/mol
# Density = 1.845680 g / cm^3
# Si number density = 18.498900 Si / 1000 Ang^3
#
#
#
# Elastic Constant Matrix: (Units=GPa)
#
#
# Indices 1 2 3 4 5 6 
#
# 1 61.4415 35.2924 31.2309 0.0000 0.0000 0.0000
# 2 35.2924 61.4417 31.2315 0.0000 0.0000 0.0000
# 3 31.2309 31.2315 67.1992 0.0000 0.0000 0.0000
# 4 0.0000 0.0000 0.0000 23.2201 0.0000 0.0000
# 5 0.0000 0.0000 0.0000 0.0000 23.2200 0.0000
# 6 0.0000 0.0000 0.0000 0.0000 0.0000 33.5352
#
#
#
# Elastic Compliance Matrix: (Units=1/GPa)
#
#
# Indices 1 2 3 4 5 6 
#
# 1 0.026506 -0.011736 -0.006864 0.000000 0.000000 0.000000
# 2 -0.011736 0.026506 -0.006865 0.000000 0.000000 0.000000
# 3 -0.006864 -0.006865 0.021262 0.000000 0.000000 0.000000
# 4 0.000000 0.000000 0.000000 0.043066 0.000000 0.000000
# 5 0.000000 0.000000 0.000000 0.000000 0.043066 0.000000
# 6 0.000000 0.000000 0.000000 0.000000 0.000000 0.029819
#
#
# Mechanical properties :
#
#
# Convention : Reuss Voigt Hill
#
# Bulk Modulus (GPa) = 42.83755 42.84357 42.84056
# Shear Modulus (GPa) = 20.08539 22.15024 21.11781
#
# Velocity S-wave (km/s) = 3.29866 3.46407 3.38238
# Velocity P-wave (km/s) = 6.14128 6.26180 6.20183
#
# Compressibility (1/GPa) = 0.02334401
#
# Stress axis : x y z
#
# Youngs Moduli (GPa) = 37.72725 37.72697 47.03280
#
# Poissons Ratio (x) = 0.44276 0.32285
# Poissons Ratio (y) = 0.44277 0.32287
# Poissons Ratio (z) = 0.25897 0.25898
#
# Static dielectric constant tensor:
#      x y z
#    x 1.702000 0.000000 0.000000 
#    y 0.000000 1.702000 0.000000 
#    z 0.000000 0.000000 1.706700 
# 
# From -- ./inp_files/5504.got.cif
#   From: 2010.05.17/outbox.cif.g08.bks.cpg/sg133_3_cif.got.tgz:5504.got - 2010.05.20 12:37:36.
