data_PCOD9567801
_publ_section_title
;
Structure prediction by ZEFSAII (Michael W. Deem and Ramdas Pophale) SiO2 
 PCOD9567801
Probable space group: P 42/N B C
;
_chemical_formula_sum "Si O2"
_cell_formula_units_Z 108
_cell_length_a 14.542165
_cell_length_b 14.542165
_cell_length_c 22.770751
_cell_angle_alpha 90.000000
_cell_angle_beta 90.000000
_cell_angle_gamma 90.000000
_cell_volume 4815.434614
_symmetry_space_group_name_H-M "P 42/N B C"
_symmetry_group_IT_number 133
_space_group.IT_coordinate_system_code '2'
_symmetry_cell_setting 'tetragonal'
loop_
_space_group_symop_operation_xyz
x,y,z
1/2-y,x,1/2+z
1/2-x,1/2-y,z
y,1/2-x,1/2+z
x,1/2-y,-z
1/2-x,y,-z
y,x,1/2-z
1/2-y,1/2-x,1/2-z
-x,-y,-z
1/2+y,-x,1/2-z
1/2+x,1/2+y,-z
-y,1/2+x,1/2-z
-x,1/2+y,z
1/2+x,-y,z
-y,-x,1/2+z
1/2+y,1/2+x,1/2+z
loop_
_atom_site_type_symbol
_atom_site_label
_atom_site_fract_x
_atom_site_fract_y
_atom_site_fract_z
Si Si1 0.250000 0.750000 0.250000
Si Si2 0.255296 0.144765 0.571426
Si Si3 0.033490 0.745135 0.363095
Si Si4 0.541711 0.916885 0.424702
Si Si5 0.934926 0.716677 0.237852
Si Si6 0.400694 0.056605 0.065014
Si Si7 0.585169 0.914832 0.750000
Si Si8 0.112649 0.880899 0.794086
O O1 0.172141 0.667340 0.258059
O O2 0.250000 0.250000 0.593434
O O3 0.250000 0.150162 0.500000
O O4 0.353077 0.105645 0.592377
O O5 0.162912 0.086811 0.582608
O O6 0.034783 0.646712 0.393684
O O7 0.979461 0.730299 0.302452
O O8 0.973107 0.804512 0.408006
O O9 0.119461 0.811324 0.346452
O O10 0.543056 0.900190 0.494840
O O11 0.510588 0.020094 0.412362
O O12 0.849036 0.650965 0.250000
O O13 0.910766 0.818309 0.215121
O O14 0.016698 0.670942 0.200676
O O15 0.486801 0.911806 0.718400
#
# Coordination Sequence:
#
# PCOD9567801 Si02
#       8
#     4  16  16  16  16  16   8  16
#     4  12  20  48  68  92 126 188 216 280 356 412
#     4   9  16  34  63  93 130 173 210 261 325 394
#     4  11  23  39  65  96 128 175 228 276 340 412
#     4  10  21  39  67 100 139 176 217 282 343 418
#     4  11  24  42  64  90 135 171 222 290 348 402
#     4  10  21  39  64 102 142 172 220 279 347 412
#     4  10  21  42  64  93 122 170 216 288 342 401
#     4  11  23  41  70  93 125 174 232 279 335 418
#
# _framework density 22.427882
#
# number of rings (size 3 to 8) (size 9 to 14) (size 15 to 20)
#    0.000    1.630    5.185    0.667    2.074    0.000 
#   10.667    1.481    0.000    0.000    0.000    6.222 
#    0.000    0.000    0.000    0.000    0.000    0.148 
#
# Total GULP energy -601485.256542 kJ/mol
# GULP energy per Si atom -5569.307931 kJ/mol
# Density = 2.237684 g / cm^3
# Si number density = 22.427882 Si / 1000 Ang^3
#
#
#
# Elastic Constant Matrix: (Units=GPa)
#
#
# Indices 1 2 3 4 5 6 
#
# 1 105.4907 31.3353 9.4964 0.0000 0.0000 0.0000
# 2 31.3353 105.4908 9.4970 0.0000 0.0000 0.0000
# 3 9.4964 9.4970 64.9965 0.0000 0.0000 0.0000
# 4 0.0000 0.0000 0.0000 -0.0874 0.0000 0.0000
# 5 0.0000 0.0000 0.0000 0.0000 -0.0864 0.0000
# 6 0.0000 0.0000 0.0000 0.0000 0.0000 49.4906
#
#
#
# Elastic Compliance Matrix: (Units=1/GPa)
#
#
# Indices 1 2 3 4 5 6 
#
# 1 0.010473 -0.003013 -0.001090 0.000000 0.000000 0.000000
# 2 -0.003013 0.010473 -0.001090 0.000000 0.000000 0.000000
# 3 -0.001090 -0.001090 0.015704 0.000000 0.000000 0.000000
# 4 0.000000 0.000000 0.000000-11.440618 0.000000 0.000000
# 5 0.000000 0.000000 0.000000 0.000000-11.570185 0.000000
# 6 0.000000 0.000000 0.000000 0.000000 0.000000 0.020206
#
#
# Mechanical properties :
#
#
# Convention : Reuss Voigt Hill
#
# Bulk Modulus (GPa) = 38.07522 41.84837 39.96180
# Shear Modulus (GPa) = -0.21801 24.90663 12.34431
#
# Velocity S-wave (km/s) = -0.31211 3.33606 2.34861
# Velocity P-wave (km/s) = 4.10898 5.79126 5.02107
#
# Compressibility (1/GPa) = 0.02626380
#
# Stress axis : x y z
#
# Youngs Moduli (GPa) = 95.48801 95.48796 63.67823
#
# Poissons Ratio (x) = 0.28767 0.06940
# Poissons Ratio (y) = 0.28767 0.06941
# Poissons Ratio (z) = 0.10407 0.10408
#
# Static dielectric constant tensor:
#      x y z
#    x 1.875950 0.000000 0.000000 
#    y 0.000000 1.875950 0.000000 
#    z 0.000000 0.000000 1.894470 
# 
# From -- ./inp_files/7278.got.cif
#   From: 2010.05.17/outbox.cif.g08.bks.cpg/sg133_4_cif.got.tgz:7278.got - 2010.05.20 12:37:36.
