data_PCOD9567174
_publ_section_title
;
Structure prediction by ZEFSAII (Michael W. Deem and Ramdas Pophale) SiO2 
 PCOD9567174
Probable space group: P 42/M C M
;
_chemical_formula_sum "Si O2"
_cell_formula_units_Z 116
_cell_length_a 28.562633
_cell_length_b 28.562633
_cell_length_c 7.680515
_cell_angle_alpha 90.000000
_cell_angle_beta 90.000000
_cell_angle_gamma 90.000000
_cell_volume 6265.948499
_symmetry_space_group_name_H-M "P 42/M C M"
_symmetry_group_IT_number 132
_symmetry_cell_setting 'tetragonal'
loop_
_space_group_symop_operation_xyz
x,y,z
-y,x,1/2+z
-x,-y,z
y,-x,1/2+z
x,-y,1/2-z
-x,y,1/2-z
y,x,-z
-y,-x,-z
-x,-y,-z
y,-x,1/2-z
x,y,-z
-y,x,1/2-z
-x,y,1/2+z
x,-y,1/2+z
-y,-x,z
y,x,z
loop_
_atom_site_type_symbol
_atom_site_label
_atom_site_fract_x
_atom_site_fract_y
_atom_site_fract_z
Si Si1 0.242425 0.352063 0.704606
Si Si2 0.446820 0.195417 0.207846
Si Si3 0.945627 0.870475 0.790979
Si Si4 0.086897 0.552734 0.707301
Si Si5 0.854963 0.309310 0.200347
Si Si6 0.351034 0.948392 0.803694
Si Si7 0.312276 0.312276 0.000000
Si Si8 0.795383 0.873778 0.208617
O O1 0.252633 0.339962 0.500000
O O2 0.227291 0.406519 0.712167
O O3 0.195633 0.324144 0.769438
O O4 0.282160 0.339756 0.843854
O O5 0.500000 0.209721 0.250000
O O6 0.441691 0.141096 0.267388
O O7 0.440957 0.195557 0.000000
O O8 0.914467 0.914467 0.727131
O O9 0.920293 0.822766 0.730038
O O10 0.000000 0.873782 0.750000
O O11 0.941178 0.870087 0.000000
O O12 0.072219 0.500000 0.750000
O O13 0.085370 0.558998 0.500000
O O14 0.056045 0.593063 0.791533
O O15 0.901158 0.332028 0.286587
O O16 0.863039 0.254057 0.207741
O O17 0.852185 0.325811 0.000000
O O18 0.336143 0.000000 0.750000
O O19 0.334334 0.944554 0.000000
O O20 0.831476 0.831476 0.239414
O O21 0.787951 0.877082 0.000000
#
# Coordination Sequence:
#
# PCOD9567174 Si02
#       8
#    16  16  16  16  16  16   4  16
#     4  11  23  40  60  89 124 161 208 258 306 366
#     4  10  19  34  59  89 120 159 207 258 307 359
#     4   9  19  36  54  77 103 128 159 198 250 317
#     4  10  20  34  56  81 107 140 182 236 296 352
#     4  10  23  38  55  77 107 139 181 238 289 347
#     4  11  23  39  54  73 102 137 179 230 294 357
#     4  12  26  40  60  90 128 168 204 251 321 366
#     4   9  20  36  56  76  99 131 167 207 255 317
#
# _framework density 18.512758999999999
#
# number of rings (size 3 to 8) (size 9 to 14) (size 15 to 20)
#    0.000    1.931    2.069    2.276    1.931    4.276 
#    0.000    6.207    0.000    0.000    0.000    0.000 
#    0.000    0.000    0.000    0.000    0.000    1.034 
#
# Total GULP energy -646146.500375 kJ/mol
# GULP energy per Si atom -5570.228452 kJ/mol
# Density = 1.847062 g / cm^3
# Si number density = 18.512759 Si / 1000 Ang^3
#
#
#
# Elastic Constant Matrix: (Units=GPa)
#
#
# Indices 1 2 3 4 5 6 
#
# 1 60.9902 21.8021 5.5150 0.0000 0.0000 0.0000
# 2 21.8021 60.9902 5.5150 0.0000 0.0000 0.0000
# 3 5.5150 5.5150 64.2680 0.0000 0.0000 0.0000
# 4 0.0000 0.0000 0.0000 26.5491 0.0000 0.0000
# 5 0.0000 0.0000 0.0000 0.0000 26.5491 0.0000
# 6 0.0000 0.0000 0.0000 0.0000 0.0000 13.8078
#
#
#
# Elastic Compliance Matrix: (Units=1/GPa)
#
#
# Indices 1 2 3 4 5 6 
#
# 1 0.018868 -0.006650 -0.001048 0.000000 0.000000 0.000000
# 2 -0.006650 0.018868 -0.001048 0.000000 0.000000 0.000000
# 3 -0.001048 -0.001048 0.015740 0.000000 0.000000 0.000000
# 4 0.000000 0.000000 0.000000 0.037666 0.000000 0.000000
# 5 0.000000 0.000000 0.000000 0.000000 0.037666 0.000000
# 6 0.000000 0.000000 0.000000 0.000000 0.000000 0.072423
#
#
# Mechanical properties :
#
#
# Convention : Reuss Voigt Hill
#
# Bulk Modulus (GPa) = 27.79159 27.99030 27.89095
# Shear Modulus (GPa) = 21.67142 23.60894 22.64018
#
# Velocity S-wave (km/s) = 3.42515 3.57498 3.50086
# Velocity P-wave (km/s) = 5.53957 5.67388 5.60713
#
# Compressibility (1/GPa) = 0.03598211
#
# Stress axis : x y z
#
# Youngs Moduli (GPa) = 52.99972 52.99972 63.53325
#
# Poissons Ratio (x) = 0.35244 0.06661
# Poissons Ratio (y) = 0.35244 0.06661
# Poissons Ratio (z) = 0.05557 0.05557
#
# Static dielectric constant tensor:
#      x y z
#    x 1.651150 0.000000 0.000000 
#    y 0.000000 1.651150 0.000000 
#    z 0.000000 0.000000 1.694860 
# 
# From -- ./inp_files/2095.got.cif
#   From: 2010.05.17/outbox.cif.g08.bks.cpg/sg132_2_cif.got.tgz:2095.got - 2010.05.20 12:30:18.
