data_PCOD9567500
_publ_section_title
;
Structure prediction by ZEFSAII (Michael W. Deem and Ramdas Pophale) SiO2 
 PCOD9567500
Probable space group: P 42/M C M
;
_chemical_formula_sum "Si O2"
_cell_formula_units_Z 64
_cell_length_a 14.444729
_cell_length_b 14.444729
_cell_length_c 17.706796
_cell_angle_alpha 90.000000
_cell_angle_beta 90.000000
_cell_angle_gamma 90.000000
_cell_volume 3694.526454
_symmetry_space_group_name_H-M "P 42/M C M"
_symmetry_group_IT_number 132
_symmetry_cell_setting 'tetragonal'
loop_
_space_group_symop_operation_xyz
x,y,z
-y,x,1/2+z
-x,-y,z
y,-x,1/2+z
x,-y,1/2-z
-x,y,1/2-z
y,x,-z
-y,-x,-z
-x,-y,-z
y,-x,1/2-z
x,y,-z
-y,x,1/2-z
-x,y,1/2+z
x,-y,1/2+z
-y,-x,z
y,x,z
loop_
_atom_site_type_symbol
_atom_site_label
_atom_site_fract_x
_atom_site_fract_y
_atom_site_fract_z
Si Si1 0.075383 0.634707 0.408413
Si Si2 0.875121 0.420696 0.909491
Si Si3 0.604369 0.395632 0.411739
Si Si4 0.238033 0.761968 0.589346
Si Si5 0.297066 0.442827 0.680471
O O1 0.075117 0.641400 0.500000
O O2 0.112427 0.530843 0.393068
O O3 0.144516 0.714255 0.379256
O O4 0.968051 0.632552 0.384641
O O5 0.782339 0.393675 0.867237
O O6 0.866354 0.411836 0.000000
O O7 0.586527 0.413474 0.500000
O O8 0.683234 0.316767 0.406767
O O9 0.513522 0.354490 0.372190
O O10 0.220647 0.779354 0.500000
O O11 0.256149 0.500000 0.750000
O O12 0.369027 0.369027 0.712612
#
# Coordination Sequence:
#
# PCOD9567500 Si02
#       5
#    16  16   8   8  16
#     4   8  14  26  47  74 100 123 161 217 260 292
#     4   9  17  31  50  71  95 128 172 216 251 298
#     4  11  21  34  53  72  92 131 182 212 242 309
#     4   9  14  25  50  79  99 124 163 211 264 304
#     4  12  24  36  47  65 100 139 172 217 269 310
#
# _framework density 17.322925000000001
#
# number of rings (size 3 to 8) (size 9 to 14) (size 15 to 20)
#    0.000    2.250    3.750    2.625    0.000    2.500 
#    0.000    2.500    0.000    0.000    0.000    0.875 
#    0.000    5.000    0.000    0.000   12.250    0.000 
#
# Total GULP energy -356672.342982 kJ/mol
# GULP energy per Si atom -5573.005359 kJ/mol
# Density = 1.728350 g / cm^3
# Si number density = 17.322925 Si / 1000 Ang^3
#
#
#
# Elastic Constant Matrix: (Units=GPa)
#
#
# Indices 1 2 3 4 5 6 
#
# 1 46.9561 66.3962 13.7198 0.0000 0.0000 0.0000
# 2 66.3962 46.9557 13.7198 0.0000 0.0000 0.0000
# 3 13.7198 13.7198 33.9614 0.0000 0.0000 0.0000
# 4 0.0000 0.0000 0.0000 7.3100 0.0000 0.0000
# 5 0.0000 0.0000 0.0000 0.0000 7.3101 0.0000
# 6 0.0000 0.0000 0.0000 0.0000 0.0000 32.7882
#
#
#
# Elastic Compliance Matrix: (Units=1/GPa)
#
#
# Indices 1 2 3 4 5 6 
#
# 1 -0.020830 0.030609 -0.003950 0.000000 0.000000 0.000000
# 2 0.030609 -0.020831 -0.003950 0.000000 0.000000 0.000000
# 3 -0.003950 -0.003950 0.032637 0.000000 0.000000 0.000000
# 4 0.000000 0.000000 0.000000 0.136798 0.000000 0.000000
# 5 0.000000 0.000000 0.000000 0.000000 0.136797 0.000000
# 6 0.000000 0.000000 0.000000 0.000000 0.000000 0.030499
#
#
# Mechanical properties :
#
#
# Convention : Reuss Voigt Hill
#
# Bulk Modulus (GPa) = 27.47822 35.06053 31.26937
# Shear Modulus (GPa) = 19.09974 11.75082 15.42528
#
# Velocity S-wave (km/s) = 3.32410 2.60732 2.98729
# Velocity P-wave (km/s) = 5.53440 5.41733 5.47618
#
# Compressibility (1/GPa) = 0.03639246
#
# Stress axis : x y z
#
# Youngs Moduli (GPa) = -48.00662 -48.00611 30.64018
#
# Poissons Ratio (x) = 1.46941 0.12104
# Poissons Ratio (y) = 1.46943 0.12103
# Poissons Ratio (z) = -0.18964 -0.18963
#
# Static dielectric constant tensor:
#      x y z
#    x 1.616810 0.000000 0.000000 
#    y 0.000000 1.616810 0.000000 
#    z 0.000000 0.000000 1.592490 
# 
# From -- ./inp_files/5989.got.cif
#   From: 2010.05.17/outbox.cif.g08.bks.cpg/sg132_3_cif.got.tgz:5989.got - 2010.05.20 12:30:18.
