data_PCOD9567533
_publ_section_title
;
Structure prediction by ZEFSAII (Michael W. Deem and Ramdas Pophale) SiO2 
 PCOD9567533
Probable space group: P 42/M C M
;
_chemical_formula_sum "Si O2"
_cell_formula_units_Z 42
_cell_length_a 15.479595
_cell_length_b 15.479595
_cell_length_c 8.584801
_cell_angle_alpha 90.000000
_cell_angle_beta 90.000000
_cell_angle_gamma 90.000000
_cell_volume 2057.071656
_symmetry_space_group_name_H-M "P 42/M C M"
_symmetry_group_IT_number 132
_symmetry_cell_setting 'tetragonal'
loop_
_space_group_symop_operation_xyz
x,y,z
-y,x,1/2+z
-x,-y,z
y,-x,1/2+z
x,-y,1/2-z
-x,y,1/2-z
y,x,-z
-y,-x,-z
-x,-y,-z
y,-x,1/2-z
x,y,-z
-y,x,1/2-z
-x,y,1/2+z
x,-y,1/2+z
-y,-x,z
y,x,z
loop_
_atom_site_type_symbol
_atom_site_label
_atom_site_fract_x
_atom_site_fract_y
_atom_site_fract_z
Si Si1 0.143752 0.856249 0.812324
Si Si2 0.332786 0.906213 0.685913
Si Si3 0.000000 0.000000 0.250000
Si Si4 0.408960 0.266665 0.686765
O O1 0.237842 0.883098 0.751972
O O2 0.074852 0.925149 0.752536
O O3 0.143285 0.856716 0.000000
O O4 0.329667 0.909047 0.500000
O O5 0.392377 0.827789 0.742349
O O6 0.358866 0.000000 0.750000
O O7 0.500000 0.300411 0.750000
O O8 0.410635 0.260626 0.500000
O O9 0.330570 0.330570 0.730967
#
# Coordination Sequence:
#
# PCOD9567533 Si02
#       4
#     8  16   2  16
#     4  12  24  39  60  91 132 177 228 279 336 395
#     4  12  25  42  67  97 135 180 228 278 338 403
#     4  12  26  36  64  94 138 176 234 288 334 396
#     4  11  25  46  73 103 139 178 225 283 345 413
#
# _framework density 20.417370999999999
#
# number of rings (size 3 to 8) (size 9 to 14) (size 15 to 20)
#    0.000    0.381    3.810    5.429    0.000    4.952 
#    0.000    5.714    0.000    0.000    0.000    0.000 
#    0.000    0.000    0.000    0.000    0.000    0.000 
#
# Total GULP energy -234649.090106 kJ/mol
# GULP energy per Si atom -5586.883098 kJ/mol
# Density = 2.037090 g / cm^3
# Si number density = 20.417371 Si / 1000 Ang^3
#
#
#
# Elastic Constant Matrix: (Units=GPa)
#
#
# Indices 1 2 3 4 5 6 
#
# 1 96.5942 47.2477 49.3833 0.0000 0.0000 0.0000
# 2 47.2477 96.5945 49.3842 0.0000 0.0000 0.0000
# 3 49.3833 49.3842 175.1961 0.0000 0.0000 0.0000
# 4 0.0000 0.0000 0.0000 29.0399 0.0000 0.0000
# 5 0.0000 0.0000 0.0000 0.0000 29.0400 0.0000
# 6 0.0000 0.0000 0.0000 0.0000 0.0000 15.0652
#
#
#
# Elastic Compliance Matrix: (Units=1/GPa)
#
#
# Indices 1 2 3 4 5 6 
#
# 1 0.014443 -0.005822 -0.002430 0.000000 0.000000 0.000000
# 2 -0.005822 0.014443 -0.002430 0.000000 0.000000 0.000000
# 3 -0.002430 -0.002430 0.007078 0.000000 0.000000 0.000000
# 4 0.000000 0.000000 0.000000 0.034435 0.000000 0.000000
# 5 0.000000 0.000000 0.000000 0.000000 0.034435 0.000000
# 6 0.000000 0.000000 0.000000 0.000000 0.000000 0.066378
#
#
# Mechanical properties :
#
#
# Convention : Reuss Voigt Hill
#
# Bulk Modulus (GPa) = 68.49716 73.37948 70.93832
# Shear Modulus (GPa) = 25.32385 29.45365 27.38875
#
# Velocity S-wave (km/s) = 3.52562 3.80225 3.66655
# Velocity P-wave (km/s) = 7.08482 7.43599 7.26252
#
# Compressibility (1/GPa) = 0.01459914
#
# Stress axis : x y z
#
# Youngs Moduli (GPa) = 69.23931 69.23917 141.28729
#
# Poissons Ratio (x) = 0.40312 0.34331
# Poissons Ratio (y) = 0.40312 0.34333
# Poissons Ratio (z) = 0.16824 0.16825
#
# Static dielectric constant tensor:
#      x y z
#    x 1.724370 0.000000 0.000000 
#    y 0.000000 1.724370 0.000000 
#    z 0.000000 0.000000 1.698580 
# 
# From -- ./inp_files/575.got.cif
#   From: 2010.05.17/outbox.cif.g08.bks.cpg/sg132_1_cif.got.tgz:575.got - 2010.05.20 12:30:18.
