data_PCOD9567274
_publ_section_title
;
Structure prediction by ZEFSAII (Michael W. Deem and Ramdas Pophale) SiO2 
 PCOD9567274
Probable space group: P 42/M C M
;
_chemical_formula_sum "Si O2"
_cell_formula_units_Z 96
_cell_length_a 24.756675
_cell_length_b 24.756675
_cell_length_c 8.702642
_cell_angle_alpha 90.000000
_cell_angle_beta 90.000000
_cell_angle_gamma 90.000000
_cell_volume 5333.787990
_symmetry_space_group_name_H-M "P 42/M C M"
_symmetry_group_IT_number 132
_symmetry_cell_setting 'tetragonal'
loop_
_space_group_symop_operation_xyz
x,y,z
-y,x,1/2+z
-x,-y,z
y,-x,1/2+z
x,-y,1/2-z
-x,y,1/2-z
y,x,-z
-y,-x,-z
-x,-y,-z
y,-x,1/2-z
x,y,-z
-y,x,1/2-z
-x,y,1/2+z
x,-y,1/2+z
-y,-x,z
y,x,z
loop_
_atom_site_type_symbol
_atom_site_label
_atom_site_fract_x
_atom_site_fract_y
_atom_site_fract_z
Si Si1 0.767897 0.442352 0.814769
Si Si2 0.853256 0.646689 0.685354
Si Si3 0.232861 0.855540 0.315944
Si Si4 0.060239 0.851163 0.815747
Si Si5 0.557082 0.356495 0.185240
Si Si6 0.939984 0.442993 0.184265
O O1 0.786947 0.500000 0.750000
O O2 0.802808 0.390837 0.766980
O O3 0.705649 0.435502 0.766805
O O4 0.770682 0.445401 0.000000
O O5 0.852192 0.652545 0.500000
O O6 0.853394 0.705888 0.757298
O O7 0.904409 0.608990 0.725809
O O8 0.232403 0.859565 0.500000
O O9 0.197687 0.802314 0.272089
O O10 0.200204 0.906388 0.247093
O O11 0.096240 0.903761 0.772813
O O12 0.000000 0.853592 0.750000
O O13 0.058107 0.848217 0.000000
O O14 0.500000 0.375816 0.250000
O O15 0.605494 0.394507 0.237086
O O16 0.555171 0.357303 0.000000
O O17 0.918434 0.500000 0.250000
O O18 0.000000 0.436844 0.250000
O O19 0.941313 0.447265 0.000000
#
# Coordination Sequence:
#
# PCOD9567274 Si02
#       6
#    16  16  16  16  16  16
#     4   9  18  33  52  74 100 131 168 214 266 317
#     4  10  21  35  54  79 104 136 178 218 263 321
#     4  10  22  39  57  79 109 144 182 225 271 317
#     4  10  21  38  61  87 116 150 184 221 266 313
#     4   9  18  32  49  70  96 126 161 201 249 306
#     4  10  20  34  52  76 106 139 174 213 260 310
#
# _framework density 17.998466000000001
#
# number of rings (size 3 to 8) (size 9 to 14) (size 15 to 20)
#    0.000    2.333    0.000    2.500    0.000    6.000 
#    0.000    5.000    0.000    0.000    0.000    0.000 
#    0.000    0.000    0.000    0.000    0.000    0.000 
#
# Total GULP energy -535683.703871 kJ/mol
# GULP energy per Si atom -5580.038582 kJ/mol
# Density = 1.795750 g / cm^3
# Si number density = 17.998466 Si / 1000 Ang^3
#
#
#
# Elastic Constant Matrix: (Units=GPa)
#
#
# Indices 1 2 3 4 5 6 
#
# 1 166.1456 98.4574 44.6370 0.0000 0.0000 0.0000
# 2 98.4574 166.1456 44.6370 0.0000 0.0000 0.0000
# 3 44.6370 44.6370 36.1257 0.0000 0.0000 0.0000
# 4 0.0000 0.0000 0.0000 29.4533 0.0000 0.0000
# 5 0.0000 0.0000 0.0000 0.0000 29.4533 0.0000
# 6 0.0000 0.0000 0.0000 0.0000 0.0000 16.0392
#
#
#
# Elastic Compliance Matrix: (Units=1/GPa)
#
#
# Indices 1 2 3 4 5 6 
#
# 1 0.010627 -0.004146 -0.008008 0.000000 0.000000 0.000000
# 2 -0.004146 0.010627 -0.008008 0.000000 0.000000 0.000000
# 3 -0.008008 -0.008008 0.047470 0.000000 0.000000 0.000000
# 4 0.000000 0.000000 0.000000 0.033952 0.000000 0.000000
# 5 0.000000 0.000000 0.000000 0.000000 0.033952 0.000000
# 6 0.000000 0.000000 0.000000 0.000000 0.000000 0.062347
#
#
# Mechanical properties :
#
#
# Convention : Reuss Voigt Hill
#
# Bulk Modulus (GPa) = 35.21051 82.65329 58.93190
# Shear Modulus (GPa) = 20.09904 27.03484 23.56694
#
# Velocity S-wave (km/s) = 3.34534 3.87985 3.62247
# Velocity P-wave (km/s) = 5.87599 8.12977 7.09297
#
# Compressibility (1/GPa) = 0.02840061
#
# Stress axis : x y z
#
# Youngs Moduli (GPa) = 94.09694 94.09694 21.06574
#
# Poissons Ratio (x) = 0.39015 0.16869
# Poissons Ratio (y) = 0.39015 0.16869
# Poissons Ratio (z) = 0.75353 0.75353
#
# Static dielectric constant tensor:
#      x y z
#    x 1.604610 0.000000 0.000000 
#    y 0.000000 1.604610 0.000000 
#    z 0.000000 0.000000 1.609490 
# 
# From -- ./inp_files/1716.got.cif
#   From: 2010.05.17/outbox.cif.g08.bks.cpg/sg132_1_cif.got.tgz:1716.got - 2010.05.20 12:30:18.
