data_PCOD9567433
_publ_section_title
;
Structure prediction by ZEFSAII (Michael W. Deem and Ramdas Pophale) SiO2 
 PCOD9567433
Probable space group: P 42/M C M
;
_chemical_formula_sum "Si O2"
_cell_formula_units_Z 58
_cell_length_a 17.820598
_cell_length_b 17.820598
_cell_length_c 9.351348
_cell_angle_alpha 90.000000
_cell_angle_beta 90.000000
_cell_angle_gamma 90.000000
_cell_volume 2969.742307
_symmetry_space_group_name_H-M "P 42/M C M"
_symmetry_group_IT_number 132
_symmetry_cell_setting 'tetragonal'
loop_
_space_group_symop_operation_xyz
x,y,z
-y,x,1/2+z
-x,-y,z
y,-x,1/2+z
x,-y,1/2-z
-x,y,1/2-z
y,x,-z
-y,-x,-z
-x,-y,-z
y,-x,1/2-z
x,y,-z
-y,x,1/2-z
-x,y,1/2+z
x,-y,1/2+z
-y,-x,z
y,x,z
loop_
_atom_site_type_symbol
_atom_site_label
_atom_site_fract_x
_atom_site_fract_y
_atom_site_fract_z
Si Si1 0.765222 0.000000 0.250000
Si Si2 0.121921 0.997774 0.000000
Si Si3 0.761154 0.573583 0.173473
Si Si4 0.500000 0.500000 0.500000
Si Si5 0.162760 0.288258 0.669273
Si Si6 0.390120 0.609881 0.839017
O O1 0.823695 0.016140 0.372937
O O2 0.721520 0.924720 0.292168
O O3 0.086308 0.913693 0.000000
O O4 0.053155 0.053155 0.000000
O O5 0.795617 0.500000 0.250000
O O6 0.803288 0.647708 0.228784
O O7 0.678806 0.580292 0.244880
O O8 0.757835 0.567830 0.000000
O O9 0.451622 0.451622 0.380329
O O10 0.169351 0.307547 0.500000
O O11 0.212171 0.212171 0.690133
O O12 0.363507 0.636494 0.000000
#
# Coordination Sequence:
#
# PCOD9567433 Si02
#       6
#     8   8  16   2  16   8
#     4  12  24  41  67 102 146 192 248 304 364 441
#     4  11  22  38  61  98 144 192 236 296 374 451
#     4  12  26  45  73 102 140 187 243 304 367 436
#     4   8  24  40  72 100 146 196 226 284 348 428
#     4  11  24  45  71 102 143 195 251 310 374 441
#     4  10  21  46  68 104 144 188 233 286 352 438
#
# _framework density 19.530314000000001
#
# number of rings (size 3 to 8) (size 9 to 14) (size 15 to 20)
#    0.414    0.414    2.759    5.379    1.931    2.207 
#    0.000    3.448    0.000    3.310    0.000    0.000 
#    0.000    0.000    0.000    0.000    0.000    0.000 
#
# Total GULP energy -323016.097310 kJ/mol
# GULP energy per Si atom -5569.243057 kJ/mol
# Density = 1.948586 g / cm^3
# Si number density = 19.530314 Si / 1000 Ang^3
#
#
#
# Elastic Constant Matrix: (Units=GPa)
#
#
# Indices 1 2 3 4 5 6 
#
# 1 109.2271 47.8569 48.7437 0.0000 0.0000 0.0000
# 2 47.8569 109.2279 48.7437 0.0000 0.0000 0.0000
# 3 48.7437 48.7437 201.3353 0.0000 0.0000 0.0000
# 4 0.0000 0.0000 0.0000 22.4363 0.0000 0.0000
# 5 0.0000 0.0000 0.0000 0.0000 22.4359 0.0000
# 6 0.0000 0.0000 0.0000 0.0000 0.0000 33.7905
#
#
#
# Elastic Compliance Matrix: (Units=1/GPa)
#
#
# Indices 1 2 3 4 5 6 
#
# 1 0.011893 -0.004401 -0.001814 0.000000 0.000000 0.000000
# 2 -0.004401 0.011893 -0.001814 0.000000 0.000000 0.000000
# 3 -0.001814 -0.001814 0.005845 0.000000 0.000000 0.000000
# 4 0.000000 0.000000 0.000000 0.044571 0.000000 0.000000
# 5 0.000000 0.000000 0.000000 0.000000 0.044571 0.000000
# 6 0.000000 0.000000 0.000000 0.000000 0.000000 0.029594
#
#
# Mechanical properties :
#
#
# Convention : Reuss Voigt Hill
#
# Bulk Modulus (GPa) = 73.67380 78.94211 76.30796
# Shear Modulus (GPa) = 29.59464 34.02893 31.81179
#
# Velocity S-wave (km/s) = 3.89693 4.17869 4.04027
# Velocity P-wave (km/s) = 7.61924 7.98687 7.80522
#
# Compressibility (1/GPa) = 0.01357335
#
# Stress axis : x y z
#
# Youngs Moduli (GPa) = 84.08245 84.08320 171.08462
#
# Poissons Ratio (x) = 0.37008 0.31031
# Poissons Ratio (y) = 0.37008 0.31030
# Poissons Ratio (z) = 0.15250 0.15250
#
# Static dielectric constant tensor:
#      x y z
#    x 1.728030 0.000000 0.000000 
#    y 0.000000 1.728020 0.000000 
#    z 0.000000 0.000000 1.659140 
# 
# From -- ./inp_files/1048.got.cif
#   From: 2010.05.17/outbox.cif.g08.bks.cpg/sg132_1_cif.got.tgz:1048.got - 2010.05.20 12:30:18.
