data_PCOD9567041
_publ_section_title
;
Structure prediction by ZEFSAII (Michael W. Deem and Ramdas Pophale) SiO2 
 PCOD9567041
Probable space group: P 42/M C M
;
_chemical_formula_sum "Si O2"
_cell_formula_units_Z 96
_cell_length_a 25.502940
_cell_length_b 25.502940
_cell_length_c 9.064020
_cell_angle_alpha 90.000000
_cell_angle_beta 90.000000
_cell_angle_gamma 90.000000
_cell_volume 5895.238143
_symmetry_space_group_name_H-M "P 42/M C M"
_symmetry_group_IT_number 132
_symmetry_cell_setting 'tetragonal'
loop_
_space_group_symop_operation_xyz
x,y,z
-y,x,1/2+z
-x,-y,z
y,-x,1/2+z
x,-y,1/2-z
-x,y,1/2-z
y,x,-z
-y,-x,-z
-x,-y,-z
y,-x,1/2-z
x,y,-z
-y,x,1/2-z
-x,y,1/2+z
x,-y,1/2+z
-y,-x,z
y,x,z
loop_
_atom_site_type_symbol
_atom_site_label
_atom_site_fract_x
_atom_site_fract_y
_atom_site_fract_z
Si Si1 0.076592 0.663702 0.829717
Si Si2 0.656807 0.796955 0.332727
Si Si3 0.843000 0.157001 0.321156
Si Si4 0.554648 0.072193 0.669729
Si Si5 0.199799 0.447476 0.831495
Si Si6 0.776476 0.054633 0.321394
Si Si7 0.758483 0.758483 0.824918
O O1 0.139802 0.660496 0.833113
O O2 0.058670 0.608990 0.753850
O O3 0.063914 0.717279 0.741553
O O4 0.057694 0.667032 0.000000
O O5 0.662164 0.778681 0.500000
O O6 0.601720 0.782313 0.262616
O O7 0.702552 0.774928 0.233344
O O8 0.843870 0.156131 0.500000
O O9 0.817720 0.100847 0.278529
O O10 0.800611 0.199390 0.268655
O O11 0.500000 0.057195 0.750000
O O12 0.555527 0.053475 0.500000
O O13 0.553657 0.135952 0.666043
O O14 0.215975 0.500000 0.750000
O O15 0.217422 0.445194 0.000000
O O16 0.773866 0.052401 0.500000
O O17 0.794144 0.000000 0.250000
O O18 0.759859 0.759859 0.000000
#
# Coordination Sequence:
#
# PCOD9567041 Si02
#       7
#    16  16   8  16  16  16   8
#     4  10  19  31  48  72 100 132 167 207 249 295
#     4  10  19  29  43  67  97 128 164 207 250 295
#     4   9  20  37  59  80 106 135 162 192 236 292
#     4   9  16  26  42  65  94 130 170 214 254 293
#     4   9  16  26  40  59  86 123 166 210 252 294
#     4  11  22  39  59  83 107 133 162 198 242 294
#     4  11  19  31  49  71  98 134 167 201 248 302
#
# _framework density 16.284329
#
# number of rings (size 3 to 8) (size 9 to 14) (size 15 to 20)
#    0.000    2.167    1.667    2.750    0.000    5.333 
#    0.000    1.667    0.000    0.750    0.000    5.250 
#    0.000    0.000    0.000    0.000    0.000    0.417 
#
# Total GULP energy -535502.910443 kJ/mol
# GULP energy per Si atom -5578.155317 kJ/mol
# Density = 1.624727 g / cm^3
# Si number density = 16.284329 Si / 1000 Ang^3
#
#
#
# Elastic Constant Matrix: (Units=GPa)
#
#
# Indices 1 2 3 4 5 6 
#
# 1 89.9340 60.0856 42.4428 0.0000 0.0000 0.0000
# 2 60.0856 89.9332 42.4422 0.0000 0.0000 0.0000
# 3 42.4428 42.4422 107.1712 0.0000 0.0000 0.0000
# 4 0.0000 0.0000 0.0000 22.5583 0.0000 0.0000
# 5 0.0000 0.0000 0.0000 0.0000 22.5584 0.0000
# 6 0.0000 0.0000 0.0000 0.0000 0.0000 -8.6988
#
#
#
# Elastic Compliance Matrix: (Units=1/GPa)
#
#
# Indices 1 2 3 4 5 6 
#
# 1 0.021047 -0.012456 -0.003402 0.000000 0.000000 0.000000
# 2 -0.012456 0.021047 -0.003402 0.000000 0.000000 0.000000
# 3 -0.003402 -0.003402 0.012026 0.000000 0.000000 0.000000
# 4 0.000000 0.000000 0.000000 0.044330 0.000000 0.000000
# 5 0.000000 0.000000 0.000000 0.000000 0.044329 0.000000
# 6 0.000000 0.000000 0.000000 0.000000 0.000000 -0.114958
#
#
# Mechanical properties :
#
#
# Convention : Reuss Voigt Hill
#
# Bulk Modulus (GPa) = 64.10865 64.10884 64.10875
# Shear Modulus (GPa) = 69.89019 16.75476 43.32247
#
# Velocity S-wave (km/s) = 6.55834 3.21111 5.16348
# Velocity P-wave (km/s) = 9.83885 7.29398 8.66040
#
# Compressibility (1/GPa) = 0.01559852
#
# Stress axis : x y z
#
# Youngs Moduli (GPa) = 47.51284 47.51263 83.15610
#
# Poissons Ratio (x) = 0.59182 0.28292
# Poissons Ratio (y) = 0.59183 0.28291
# Poissons Ratio (z) = 0.16165 0.16164
#
# Static dielectric constant tensor:
#      x y z
#    x 1.536190 0.000000 0.000000 
#    y 0.000000 1.536190 0.000000 
#    z 0.000000 0.000000 1.556980 
# 
# From -- ./inp_files/1849.got.cif
#   From: 2010.05.17/outbox.cif.g08.bks.cpg/sg132_1_cif.got.tgz:1849.got - 2010.05.20 12:30:18.
