data_PCOD9567687
_publ_section_title
;
Structure prediction by ZEFSAII (Michael W. Deem and Ramdas Pophale) SiO2 
 PCOD9567687
Probable space group: P 42/N B C
;
_chemical_formula_sum "Si O2"
_cell_formula_units_Z 80
_cell_length_a 18.648905
_cell_length_b 18.648905
_cell_length_c 12.412352
_cell_angle_alpha 90.000000
_cell_angle_beta 90.000000
_cell_angle_gamma 90.000000
_cell_volume 4316.788355
_symmetry_space_group_name_H-M "P 42/N B C"
_symmetry_group_IT_number 133
_space_group.IT_coordinate_system_code '2'
_symmetry_cell_setting 'tetragonal'
loop_
_space_group_symop_operation_xyz
x,y,z
1/2-y,x,1/2+z
1/2-x,1/2-y,z
y,1/2-x,1/2+z
x,1/2-y,-z
1/2-x,y,-z
y,x,1/2-z
1/2-y,1/2-x,1/2-z
-x,-y,-z
1/2+y,-x,1/2-z
1/2+x,1/2+y,-z
-y,1/2+x,1/2-z
-x,1/2+y,z
1/2+x,-y,z
-y,-x,1/2+z
1/2+y,1/2+x,1/2+z
loop_
_atom_site_type_symbol
_atom_site_label
_atom_site_fract_x
_atom_site_fract_y
_atom_site_fract_z
Si Si1 0.871808 0.978406 0.311649
Si Si2 0.558695 0.647065 0.951548
Si Si3 0.995508 0.578857 0.352157
Si Si4 0.026530 0.276495 0.742139
Si Si5 0.669857 0.780227 0.386200
O O1 0.916195 0.916195 0.250000
O O2 0.836574 0.952451 0.423840
O O3 0.803868 0.003238 0.241626
O O4 0.929361 0.039163 0.342291
O O5 0.557367 0.559842 0.945826
O O6 0.511925 0.685766 0.858958
O O7 0.636259 0.671437 0.912311
O O8 0.948312 0.551689 0.250000
O O9 0.001899 0.664307 0.341930
O O10 0.110849 0.267404 0.706495
O O11 0.750000 0.750000 0.368134
O O12 0.642193 0.750000 0.500000
#
# Coordination Sequence:
#
# PCOD9567687 Si02
#       5
#    16  16  16  16  16
#     4  11  21  32  55  76  98 135 186 220 261 320
#     4  10  20  34  48  72 103 142 178 216 259 320
#     4   8  18  37  51  71 103 139 168 221 272 313
#     4  10  21  34  51  74 105 134 178 217 268 313
#     4  10  21  32  46  70 111 144 169 206 264 314
#
# _framework density 18.532295999999999
#
# number of rings (size 3 to 8) (size 9 to 14) (size 15 to 20)
#    0.000    2.200    0.000    4.200    8.400    0.800 
#    0.000    0.000    0.000    0.600    0.000    0.000 
#    0.000    9.600    0.000    0.000    0.000    0.000 
#
# Total GULP energy -445452.655250 kJ/mol
# GULP energy per Si atom -5568.158191 kJ/mol
# Density = 1.849012 g / cm^3
# Si number density = 18.532296 Si / 1000 Ang^3
#
#
#
# Elastic Constant Matrix: (Units=GPa)
#
#
# Indices 1 2 3 4 5 6 
#
# 1 84.0896 42.9680 2.6264 0.0000 0.0000 0.0000
# 2 42.9680 84.0895 2.6262 0.0000 0.0000 0.0000
# 3 2.6264 2.6262 68.1213 0.0000 0.0000 0.0000
# 4 0.0000 0.0000 0.0000 17.7217 0.0000 0.0000
# 5 0.0000 0.0000 0.0000 0.0000 17.7217 0.0000
# 6 0.0000 0.0000 0.0000 0.0000 0.0000 12.0202
#
#
#
# Elastic Compliance Matrix: (Units=1/GPa)
#
#
# Indices 1 2 3 4 5 6 
#
# 1 0.016101 -0.008218 -0.000304 0.000000 0.000000 0.000000
# 2 -0.008218 0.016101 -0.000304 0.000000 0.000000 0.000000
# 3 -0.000304 -0.000304 0.014703 0.000000 0.000000 0.000000
# 4 0.000000 0.000000 0.000000 0.056428 0.000000 0.000000
# 5 0.000000 0.000000 0.000000 0.000000 0.056428 0.000000
# 6 0.000000 0.000000 0.000000 0.000000 0.000000 0.083194
#
#
# Mechanical properties :
#
#
# Convention : Reuss Voigt Hill
#
# Bulk Modulus (GPa) = 34.18398 36.97131 35.57764
# Shear Modulus (GPa) = 18.49414 22.03136 20.26275
#
# Velocity S-wave (km/s) = 3.16245 3.45165 3.31021
# Velocity P-wave (km/s) = 5.64096 5.98984 5.81802
#
# Compressibility (1/GPa) = 0.02925347
#
# Stress axis : x y z
#
# Youngs Moduli (GPa) = 62.10957 62.10947 68.01276
#
# Poissons Ratio (x) = 0.51039 0.02067
# Poissons Ratio (y) = 0.51039 0.02067
# Poissons Ratio (z) = 0.01888 0.01887
#
# Static dielectric constant tensor:
#      x y z
#    x 1.681530 0.000000 0.000000 
#    y 0.000000 1.681530 0.000000 
#    z 0.000000 0.000000 1.742490 
# 
# From -- ./inp_files/4308.got.cif
#   From: 2010.05.17/outbox.cif.g08.bks.cpg/sg133_3_cif.got.tgz:4308.got - 2010.05.20 12:37:36.
