data_PCOD9567699
_publ_section_title
;
Structure prediction by ZEFSAII (Michael W. Deem and Ramdas Pophale) SiO2 
 PCOD9567699
Probable space group: P 42/N B C
;
_chemical_formula_sum "Si O2"
_cell_formula_units_Z 56
_cell_length_a 12.812813
_cell_length_b 12.812813
_cell_length_c 14.978241
_cell_angle_alpha 90.000000
_cell_angle_beta 90.000000
_cell_angle_gamma 90.000000
_cell_volume 2458.950519
_symmetry_space_group_name_H-M "P 42/N B C"
_symmetry_group_IT_number 133
_space_group.IT_coordinate_system_code '2'
_symmetry_cell_setting 'tetragonal'
loop_
_space_group_symop_operation_xyz
x,y,z
1/2-y,x,1/2+z
1/2-x,1/2-y,z
y,1/2-x,1/2+z
x,1/2-y,-z
1/2-x,y,-z
y,x,1/2-z
1/2-y,1/2-x,1/2-z
-x,-y,-z
1/2+y,-x,1/2-z
1/2+x,1/2+y,-z
-y,1/2+x,1/2-z
-x,1/2+y,z
1/2+x,-y,z
-y,-x,1/2+z
1/2+y,1/2+x,1/2+z
loop_
_atom_site_type_symbol
_atom_site_label
_atom_site_fract_x
_atom_site_fract_y
_atom_site_fract_z
Si Si1 0.126768 0.656530 0.285446
Si Si2 0.594271 0.369927 0.483863
Si Si3 0.646980 0.910567 0.445075
Si Si4 0.391530 0.391530 0.250000
O O1 0.126409 0.782281 0.282626
O O2 0.138482 0.609296 0.383931
O O3 0.014153 0.624127 0.255706
O O4 0.624097 0.250000 0.500000
O O5 0.634709 0.462448 0.547289
O O6 0.467176 0.374956 0.481238
O O7 0.750000 0.882099 0.500000
O O8 0.656857 0.863637 0.345412
#
# Coordination Sequence:
#
# PCOD9567699 Si02
#       4
#    16  16  16   8
#     4  10  20  35  57  86 118 156 207 260 313 374
#     4  10  21  36  57  85 117 158 203 255 318 376
#     4  10  21  37  58  85 119 159 205 255 315 382
#     4  10  20  36  58  84 118 156 202 262 318 370
#
# _framework density 22.773942999999999
#
# number of rings (size 3 to 8) (size 9 to 14) (size 15 to 20)
#    0.000    2.000    0.000    3.429    0.000    3.429 
#    0.000    0.000    0.000   11.143    0.000    0.000 
#    0.000    0.000    0.000    0.000    0.000    0.000 
#
# Total GULP energy -312578.949975 kJ/mol
# GULP energy per Si atom -5581.766964 kJ/mol
# Density = 2.272211 g / cm^3
# Si number density = 22.773943 Si / 1000 Ang^3
#
#
#
# Elastic Constant Matrix: (Units=GPa)
#
#
# Indices 1 2 3 4 5 6 
#
# 1 98.6854 30.4633 29.3211 0.0000 0.0000 0.0000
# 2 30.4633 98.6854 29.3211 0.0000 0.0000 0.0000
# 3 29.3211 29.3211 134.1989 0.0000 0.0000 0.0000
# 4 0.0000 0.0000 0.0000 36.4165 0.0000 0.0000
# 5 0.0000 0.0000 0.0000 0.0000 36.4165 0.0000
# 6 0.0000 0.0000 0.0000 0.0000 0.0000 5.4162
#
#
#
# Elastic Compliance Matrix: (Units=1/GPa)
#
#
# Indices 1 2 3 4 5 6 
#
# 1 0.011627 -0.003031 -0.001878 0.000000 0.000000 0.000000
# 2 -0.003031 0.011627 -0.001878 0.000000 0.000000 0.000000
# 3 -0.001878 -0.001878 0.008272 0.000000 0.000000 0.000000
# 4 0.000000 0.000000 0.000000 0.027460 0.000000 0.000000
# 5 0.000000 0.000000 0.000000 0.000000 0.027460 0.000000
# 6 0.000000 0.000000 0.000000 0.000000 0.000000 0.184630
#
#
# Mechanical properties :
#
#
# Convention : Reuss Voigt Hill
#
# Bulk Modulus (GPa) = 55.70558 56.64231 56.17394
# Shear Modulus (GPa) = 17.20372 31.81413 24.50892
#
# Velocity S-wave (km/s) = 2.75146 3.74164 3.28408
# Velocity P-wave (km/s) = 5.88280 6.60242 6.25297
#
# Compressibility (1/GPa) = 0.01795152
#
# Stress axis : x y z
#
# Youngs Moduli (GPa) = 86.00747 86.00747 120.88511
#
# Poissons Ratio (x) = 0.26070 0.22703
# Poissons Ratio (y) = 0.26070 0.22703
# Poissons Ratio (z) = 0.16153 0.16153
#
# Static dielectric constant tensor:
#      x y z
#    x 1.808970 0.000000 0.000000 
#    y 0.000000 1.808970 0.000000 
#    z 0.000000 0.000000 1.893390 
# 
# From -- ./inp_files/4038.got.cif
#   From: 2010.05.17/outbox.cif.g08.bks.cpg/sg133_3_cif.got.tgz:4038.got - 2010.05.20 12:37:36.
