data_PCOD9567863
_publ_section_title
;
Structure prediction by ZEFSAII (Michael W. Deem and Ramdas Pophale) SiO2 
 PCOD9567863
Probable space group: P 42/N B C
;
_chemical_formula_sum "Si O2"
_cell_formula_units_Z 36
_cell_length_a 10.018958
_cell_length_b 10.018958
_cell_length_c 17.140340
_cell_angle_alpha 90.000000
_cell_angle_beta 90.000000
_cell_angle_gamma 90.000000
_cell_volume 1720.539092
_symmetry_space_group_name_H-M "P 42/N B C"
_symmetry_group_IT_number 133
_space_group.IT_coordinate_system_code '2'
_symmetry_cell_setting 'tetragonal'
loop_
_space_group_symop_operation_xyz
x,y,z
1/2-y,x,1/2+z
1/2-x,1/2-y,z
y,1/2-x,1/2+z
x,1/2-y,-z
1/2-x,y,-z
y,x,1/2-z
1/2-y,1/2-x,1/2-z
-x,-y,-z
1/2+y,-x,1/2-z
1/2+x,1/2+y,-z
-y,1/2+x,1/2-z
-x,1/2+y,z
1/2+x,-y,z
-y,-x,1/2+z
1/2+y,1/2+x,1/2+z
loop_
_atom_site_type_symbol
_atom_site_label
_atom_site_fract_x
_atom_site_fract_y
_atom_site_fract_z
Si Si1 0.750000 0.750000 0.000000
Si Si2 0.416538 0.625203 0.279615
Si Si3 0.507778 0.130965 0.948686
O O1 0.648156 0.826970 0.056785
O O2 0.546478 0.546478 0.250000
O O3 0.284391 0.577483 0.232213
O O4 0.391293 0.582823 0.368601
O O5 0.570501 0.250000 0.000000
O O6 0.500000 0.000000 0.000000
#
# Coordination Sequence:
#
# PCOD9567863 Si02
#       3
#     4  16  16
#     4   8  24  40  68 102 140 168 248 290 368 404
#     4  11  26  44  67 103 141 181 233 294 364 424
#     4  10  22  43  68 100 137 188 235 293 355 438
#
# _framework density 20.923673000000001
#
# number of rings (size 3 to 8) (size 9 to 14) (size 15 to 20)
#    1.333    0.444    0.000    2.667    6.222    0.889 
#    0.000    0.000    0.000    0.000    0.000    0.000 
#    0.000    0.000    0.000    0.000    0.000    0.000 
#
# Total GULP energy -200852.733304 kJ/mol
# GULP energy per Si atom -5579.242592 kJ/mol
# Density = 2.087605 g / cm^3
# Si number density = 20.923673 Si / 1000 Ang^3
#
#
#
# Elastic Constant Matrix: (Units=GPa)
#
#
# Indices 1 2 3 4 5 6 
#
# 1 80.1265 -17.2446 -1.4357 0.0000 0.0000 0.0000
# 2 -17.2446 80.1265 -1.4357 0.0000 0.0000 0.0000
# 3 -1.4357 -1.4357 129.6480 0.0000 0.0000 0.0000
# 4 0.0000 0.0000 0.0000 10.4251 0.0000 0.0000
# 5 0.0000 0.0000 0.0000 0.0000 10.4251 0.0000
# 6 0.0000 0.0000 0.0000 0.0000 0.0000 36.5144
#
#
#
# Elastic Compliance Matrix: (Units=1/GPa)
#
#
# Indices 1 2 3 4 5 6 
#
# 1 0.013090 0.002820 0.000176 0.000000 0.000000 0.000000
# 2 0.002820 0.013090 0.000176 0.000000 0.000000 0.000000
# 3 0.000176 0.000176 0.007717 0.000000 0.000000 0.000000
# 4 0.000000 0.000000 0.000000 0.095922 0.000000 0.000000
# 5 0.000000 0.000000 0.000000 0.000000 0.095922 0.000000
# 6 0.000000 0.000000 0.000000 0.000000 0.000000 0.027386
#
#
# Mechanical properties :
#
#
# Convention : Reuss Voigt Hill
#
# Bulk Modulus (GPa) = 24.84864 27.74098 26.29481
# Shear Modulus (GPa) = 19.21615 32.14073 25.67844
#
# Velocity S-wave (km/s) = 3.03379 3.92356 3.50700
# Velocity P-wave (km/s) = 4.91665 5.81487 5.38452
#
# Compressibility (1/GPa) = 0.04024365
#
# Stress axis : x y z
#
# Youngs Moduli (GPa) = 76.39167 76.39167 129.58248
#
# Poissons Ratio (x) = -0.21546 -0.02283
# Poissons Ratio (y) = -0.21546 -0.02283
# Poissons Ratio (z) = -0.01346 -0.01346
#
# Static dielectric constant tensor:
#      x y z
#    x 1.739110 0.000000 0.000000 
#    y 0.000000 1.739110 0.000000 
#    z 0.000000 0.000000 1.713120 
# 
# From -- ./inp_files/4813.got.cif
#   From: 2010.05.17/outbox.cif.g08.bks.cpg/sg133_3_cif.got.tgz:4813.got - 2010.05.20 12:37:36.
