data_PCOD9567855
_publ_section_title
;
Structure prediction by ZEFSAII (Michael W. Deem and Ramdas Pophale) SiO2 
 PCOD9567855
Probable space group: P 42/N B C
;
_chemical_formula_sum "Si O2"
_cell_formula_units_Z 60
_cell_length_a 17.046492
_cell_length_b 17.046492
_cell_length_c 9.507456
_cell_angle_alpha 90.000000
_cell_angle_beta 90.000000
_cell_angle_gamma 90.000000
_cell_volume 2762.704036
_symmetry_space_group_name_H-M "P 42/N B C"
_symmetry_group_IT_number 133
_space_group.IT_coordinate_system_code '2'
_symmetry_cell_setting 'tetragonal'
loop_
_space_group_symop_operation_xyz
x,y,z
1/2-y,x,1/2+z
1/2-x,1/2-y,z
y,1/2-x,1/2+z
x,1/2-y,-z
1/2-x,y,-z
y,x,1/2-z
1/2-y,1/2-x,1/2-z
-x,-y,-z
1/2+y,-x,1/2-z
1/2+x,1/2+y,-z
-y,1/2+x,1/2-z
-x,1/2+y,z
1/2+x,-y,z
-y,-x,1/2+z
1/2+y,1/2+x,1/2+z
loop_
_atom_site_type_symbol
_atom_site_label
_atom_site_fract_x
_atom_site_fract_y
_atom_site_fract_z
Si Si1 0.988314 0.115229 0.895742
Si Si2 0.250000 0.100604 0.000000
Si Si3 0.750000 0.250000 0.750000
Si Si4 0.750000 0.123957 0.500000
Si Si5 0.645279 0.854722 0.750000
Si Si6 0.100507 0.035169 0.123311
O O1 0.932602 0.176554 0.972116
O O2 0.053266 0.153529 0.794630
O O3 0.932089 0.049026 0.828401
O O4 0.043201 0.069303 0.005087
O O5 0.203921 0.152370 0.882483
O O6 0.313068 0.041802 0.933109
O O7 0.759646 0.177462 0.640453
O O8 0.095081 0.095081 0.250000
#
# Coordination Sequence:
#
# PCOD9567855 Si02
#       6
#    16   8   4   8   8  16
#     4  10  23  40  70  96 134 170 234 280 343 423
#     4  10  24  42  71  93 142 174 236 282 366 403
#     4  10  28  46  60 110 140 178 236 278 364 434
#     4  11  26  44  70  97 144 186 224 293 354 428
#     4  10  22  46  67 108 128 187 230 294 346 432
#     4  10  22  42  65 100 126 176 227 292 337 419
#
# _framework density 21.717853999999999
#
# number of rings (size 3 to 8) (size 9 to 14) (size 15 to 20)
#    0.000    1.867    1.333    0.000    7.467    2.133 
#    0.000    2.000    0.000    0.000    0.000    0.000 
#    0.000    0.000    0.000    0.000    0.000    0.000 
#
# Total GULP energy -334858.360299 kJ/mol
# GULP energy per Si atom -5580.972672 kJ/mol
# Density = 2.166842 g / cm^3
# Si number density = 21.717854 Si / 1000 Ang^3
#
#
#
# Elastic Constant Matrix: (Units=GPa)
#
#
# Indices 1 2 3 4 5 6 
#
# 1 111.4271 70.5099 46.6574 0.0000 0.0000 0.0000
# 2 70.5099 111.4273 46.6576 0.0000 0.0000 0.0000
# 3 46.6574 46.6576 108.5864 0.0000 0.0000 0.0000
# 4 0.0000 0.0000 0.0000 -2.6654 0.0000 0.0000
# 5 0.0000 0.0000 0.0000 0.0000 -2.6678 0.0000
# 6 0.0000 0.0000 0.0000 0.0000 0.0000 -5.0725
#
#
#
# Elastic Compliance Matrix: (Units=1/GPa)
#
#
# Indices 1 2 3 4 5 6 
#
# 1 0.015745 -0.008695 -0.003029 0.000000 0.000000 0.000000
# 2 -0.008695 0.015745 -0.003029 0.000000 0.000000 0.000000
# 3 -0.003029 -0.003029 0.011813 0.000000 0.000000 0.000000
# 4 0.000000 0.000000 0.000000 -0.375174 0.000000 0.000000
# 5 0.000000 0.000000 0.000000 0.000000 -0.374836 0.000000
# 6 0.000000 0.000000 0.000000 0.000000 0.000000 -0.197143
#
#
# Mechanical properties :
#
#
# Convention : Reuss Voigt Hill
#
# Bulk Modulus (GPa) = 72.48710 73.23230 72.85970
# Shear Modulus (GPa) = -5.74881 9.09324 1.67221
#
# Velocity S-wave (km/s) = -1.62874 2.04843 0.87843
# Velocity P-wave (km/s) = 5.46920 6.27597 5.88642
#
# Compressibility (1/GPa) = 0.01379556
#
# Stress axis : x y z
#
# Youngs Moduli (GPa) = 63.51283 63.51289 84.65587
#
# Poissons Ratio (x) = 0.55223 0.25645
# Poissons Ratio (y) = 0.55223 0.25645
# Poissons Ratio (z) = 0.19240 0.19240
#
# Static dielectric constant tensor:
#      x y z
#    x 1.812780 0.000000 0.000000 
#    y 0.000000 1.812770 0.000000 
#    z 0.000000 0.000000 1.826140 
# 
# From -- ./inp_files/1387.got.cif
#   From: 2010.05.17/outbox.cif.g08.bks.cpg/sg133_1_cif.got.tgz:1387.got - 2010.05.20 12:37:36.
