data_PCOD9567068
_publ_section_title
;
Structure prediction by ZEFSAII (Michael W. Deem and Ramdas Pophale) SiO2 
 PCOD9567068
Probable space group: P 42/M C M
;
_chemical_formula_sum "Si O2"
_cell_formula_units_Z 80
_cell_length_a 12.290605
_cell_length_b 12.290605
_cell_length_c 30.014098
_cell_angle_alpha 90.000000
_cell_angle_beta 90.000000
_cell_angle_gamma 90.000000
_cell_volume 4533.898767
_symmetry_space_group_name_H-M "P 42/M C M"
_symmetry_group_IT_number 132
_symmetry_cell_setting 'tetragonal'
loop_
_space_group_symop_operation_xyz
x,y,z
-y,x,1/2+z
-x,-y,z
y,-x,1/2+z
x,-y,1/2-z
-x,y,1/2-z
y,x,-z
-y,-x,-z
-x,-y,-z
y,-x,1/2-z
x,y,-z
-y,x,1/2-z
-x,y,1/2+z
x,-y,1/2+z
-y,-x,z
y,x,z
loop_
_atom_site_type_symbol
_atom_site_label
_atom_site_fract_x
_atom_site_fract_y
_atom_site_fract_z
Si Si1 0.073047 0.260752 0.449084
Si Si2 0.005796 0.632079 0.800904
Si Si3 0.628664 0.189509 0.870125
Si Si4 0.605566 0.781740 0.163823
Si Si5 0.911892 0.088109 0.445770
Si Si6 0.674024 0.500000 0.750000
O O1 0.064134 0.300414 0.500000
O O2 0.161781 0.161781 0.449799
O O3 0.118721 0.344901 0.413738
O O4 0.959272 0.205699 0.434174
O O5 0.115049 0.660537 0.827421
O O6 0.000000 0.500000 0.799923
O O7 0.000000 0.671150 0.750000
O O8 0.897554 0.662228 0.828082
O O9 0.702517 0.297484 0.870697
O O10 0.500507 0.211348 0.866875
O O11 0.690601 0.690601 0.149751
O O12 0.555213 0.744932 0.211827
O O13 0.915709 0.084292 0.500000
O O14 0.000000 0.000000 0.428859
O O15 0.593572 0.406429 0.768917
#
# Coordination Sequence:
#
# PCOD9567068 Si02
#       6
#    16  16  16  16   8   8
#     4   8  14  26  46  72  98 123 157 208 263 307
#     4   9  18  32  48  66  94 132 170 203 240 293
#     4  10  19  31  50  75 100 127 163 208 255 302
#     4  10  19  31  48  70  98 133 169 204 246 299
#     4   7  10  20  40  64  90 116 146 194 251 295
#     4   9  16  26  45  74  98 116 157 221 264 274
#
# _framework density 17.644856999999998
#
# number of rings (size 3 to 8) (size 9 to 14) (size 15 to 20)
#    0.000    3.000    0.000    4.200    0.000    3.600 
#    1.800    0.000    0.000    6.000    0.000    4.200 
#    0.000    0.000    0.000    0.000    0.000    0.000 
#
# Total GULP energy -445629.407445 kJ/mol
# GULP energy per Si atom -5570.367593 kJ/mol
# Density = 1.760470 g / cm^3
# Si number density = 17.644857 Si / 1000 Ang^3
#
#
#
# Elastic Constant Matrix: (Units=GPa)
#
#
# Indices 1 2 3 4 5 6 
#
# 1 77.3813 36.5632 27.1455 0.0000 0.0000 0.0000
# 2 36.5632 77.3814 27.1454 0.0000 0.0000 0.0000
# 3 27.1455 27.1454 68.1843 0.0000 0.0000 0.0000
# 4 0.0000 0.0000 0.0000 15.2712 0.0000 0.0000
# 5 0.0000 0.0000 0.0000 0.0000 15.2712 0.0000
# 6 0.0000 0.0000 0.0000 0.0000 0.0000 13.7175
#
#
#
# Elastic Compliance Matrix: (Units=1/GPa)
#
#
# Indices 1 2 3 4 5 6 
#
# 1 0.017665 -0.006834 -0.004312 0.000000 0.000000 0.000000
# 2 -0.006834 0.017665 -0.004312 0.000000 0.000000 0.000000
# 3 -0.004312 -0.004312 0.018099 0.000000 0.000000 0.000000
# 4 0.000000 0.000000 0.000000 0.065483 0.000000 0.000000
# 5 0.000000 0.000000 0.000000 0.000000 0.065483 0.000000
# 6 0.000000 0.000000 0.000000 0.000000 0.000000 0.072900
#
#
# Mechanical properties :
#
#
# Convention : Reuss Voigt Hill
#
# Bulk Modulus (GPa) = 44.41837 44.96167 44.69002
# Shear Modulus (GPa) = 16.90822 17.65818 17.28320
#
# Velocity S-wave (km/s) = 3.09892 3.16690 3.13310
# Velocity P-wave (km/s) = 6.16706 6.23772 6.20249
#
# Compressibility (1/GPa) = 0.02251321
#
# Stress axis : x y z
#
# Youngs Moduli (GPa) = 56.60972 56.60981 55.25033
#
# Poissons Ratio (x) = 0.38688 0.23823
# Poissons Ratio (y) = 0.38688 0.23823
# Poissons Ratio (z) = 0.24410 0.24410
#
# Static dielectric constant tensor:
#      x y z
#    x 1.625190 0.000000 0.000000 
#    y 0.000000 1.625190 0.000000 
#    z 0.000000 0.000000 1.605020 
# 
# From -- ./inp_files/10684.got.cif
#   From: 2010.05.17/outbox.cif.g08.bks.cpg/sg132_6_cif.got.tgz:10684.got - 2010.05.20 12:30:18.
