data_PCOD9567083
_publ_section_title
;
Structure prediction by ZEFSAII (Michael W. Deem and Ramdas Pophale) SiO2 
 PCOD9567083
Probable space group: P 42/M C M
;
_chemical_formula_sum "Si O2"
_cell_formula_units_Z 96
_cell_length_a 14.451001
_cell_length_b 14.451001
_cell_length_c 30.573988
_cell_angle_alpha 90.000000
_cell_angle_beta 90.000000
_cell_angle_gamma 90.000000
_cell_volume 6384.809632
_symmetry_space_group_name_H-M "P 42/M C M"
_symmetry_group_IT_number 132
_symmetry_cell_setting 'tetragonal'
loop_
_space_group_symop_operation_xyz
x,y,z
-y,x,1/2+z
-x,-y,z
y,-x,1/2+z
x,-y,1/2-z
-x,y,1/2-z
y,x,-z
-y,-x,-z
-x,-y,-z
y,-x,1/2-z
x,y,-z
-y,x,1/2-z
-x,y,1/2+z
x,-y,1/2+z
-y,-x,z
y,x,z
loop_
_atom_site_type_symbol
_atom_site_label
_atom_site_fract_x
_atom_site_fract_y
_atom_site_fract_z
Si Si1 0.219964 0.061205 0.549071
Si Si2 0.623002 0.774854 0.208093
Si Si3 0.864534 0.711379 0.636348
Si Si4 0.966899 0.711373 0.202881
Si Si5 0.078108 0.921893 0.689223
Si Si6 0.586837 0.734893 0.691323
Si Si7 0.921974 0.921974 0.084280
O O1 0.257787 0.053165 0.500000
O O2 0.137575 0.137575 0.547674
O O3 0.287662 0.099215 0.586674
O O4 0.171115 0.965387 0.564138
O O5 0.700577 0.700577 0.196225
O O6 0.655133 0.874624 0.191384
O O7 0.617620 0.776431 0.261369
O O8 0.523224 0.742189 0.191298
O O9 0.808539 0.808539 0.643220
O O10 0.793913 0.632932 0.652507
O O11 0.952523 0.704262 0.667596
O O12 0.945934 0.820609 0.206656
O O13 0.000000 0.676738 0.250000
O O14 0.086237 0.913764 0.636474
O O15 0.000000 0.000000 0.698305
O O16 0.632898 0.632898 0.689986
O O17 0.000000 0.000000 0.076072
#
# Coordination Sequence:
#
# PCOD9567083 Si02
#       7
#    16  16  16  16   8  16   8
#     4   9  16  26  42  63  89 123 163 208 247 279
#     4  10  20  34  49  71  94 121 163 202 239 285
#     4  10  19  32  46  66  98 131 164 198 238 285
#     4  12  22  30  45  64  98 134 166 201 229 270
#     4  11  22  29  40  65  97 139 172 194 224 270
#     4   9  19  35  52  68  92 121 154 201 250 292
#     4   9  15  26  39  58  90 123 165 205 238 271
#
# _framework density 15.035686999999999
#
# number of rings (size 3 to 8) (size 9 to 14) (size 15 to 20)
#    0.000    2.000    4.167    0.750    2.333    2.000 
#    0.000    1.667    0.000    0.000    0.000    2.333 
#    0.000    2.000    0.000    6.500    0.000    0.167 
#
# Total GULP energy -534910.535496 kJ/mol
# GULP energy per Si atom -5571.984745 kJ/mol
# Density = 1.500147 g / cm^3
# Si number density = 15.035687 Si / 1000 Ang^3
#
#
#
# Elastic Constant Matrix: (Units=GPa)
#
#
# Indices 1 2 3 4 5 6 
#
# 1 223.1945 -111.4291 28.8864 0.0000 0.0000 0.0000
# 2 -111.4291 223.1945 28.8864 0.0000 0.0000 0.0000
# 3 28.8864 28.8864 97.5483 0.0000 0.0000 0.0000
# 4 0.0000 0.0000 0.0000 7.3432 0.0000 0.0000
# 5 0.0000 0.0000 0.0000 0.0000 7.3432 0.0000
# 6 0.0000 0.0000 0.0000 0.0000 0.0000 13.0555
#
#
#
# Elastic Compliance Matrix: (Units=1/GPa)
#
#
# Indices 1 2 3 4 5 6 
#
# 1 0.006776 0.003788 -0.003128 0.000000 0.000000 0.000000
# 2 0.003788 0.006776 -0.003128 0.000000 0.000000 0.000000
# 3 -0.003128 -0.003128 0.012104 0.000000 0.000000 0.000000
# 4 0.000000 0.000000 0.000000 0.136180 0.000000 0.000000
# 5 0.000000 0.000000 0.000000 0.000000 0.136180 0.000000
# 6 0.000000 0.000000 0.000000 0.000000 0.000000 0.076596
#
#
# Mechanical properties :
#
#
# Convention : Reuss Voigt Hill
#
# Bulk Modulus (GPa) = 48.26391 48.51386 48.38888
# Shear Modulus (GPa) = 12.93803 45.38796 29.16299
#
# Velocity S-wave (km/s) = 2.93659 5.50021 4.40885
# Velocity P-wave (km/s) = 6.60813 8.52481 7.62691
#
# Compressibility (1/GPa) = 0.02071942
#
# Stress axis : x y z
#
# Youngs Moduli (GPa) = 147.57062 147.57062 82.61659
#
# Poissons Ratio (x) = -0.55900 0.25846
# Poissons Ratio (y) = -0.55900 0.25846
# Poissons Ratio (z) = 0.46166 0.46166
#
# Static dielectric constant tensor:
#      x y z
#    x 1.502630 0.000000 0.000000 
#    y 0.000000 1.502630 0.000000 
#    z 0.000000 0.000000 1.502510 
# 
# From -- ./inp_files/10965.got.cif
#   From: 2010.05.17/outbox.cif.g08.bks.cpg/sg132_6_cif.got.tgz:10965.got - 2010.05.20 12:30:18.
