data_PCOD9567565
_publ_section_title
;
Structure prediction by ZEFSAII (Michael W. Deem and Ramdas Pophale) SiO2 
 PCOD9567565
Probable space group: P 42/N B C
;
_chemical_formula_sum "Si O2"
_cell_formula_units_Z 72
_cell_length_a 20.454551
_cell_length_b 20.454551
_cell_length_c 9.172363
_cell_angle_alpha 90.000000
_cell_angle_beta 90.000000
_cell_angle_gamma 90.000000
_cell_volume 3837.612634
_symmetry_space_group_name_H-M "P 42/N B C"
_symmetry_group_IT_number 133
_space_group.IT_coordinate_system_code '2'
_symmetry_cell_setting 'tetragonal'
loop_
_space_group_symop_operation_xyz
x,y,z
1/2-y,x,1/2+z
1/2-x,1/2-y,z
y,1/2-x,1/2+z
x,1/2-y,-z
1/2-x,y,-z
y,x,1/2-z
1/2-y,1/2-x,1/2-z
-x,-y,-z
1/2+y,-x,1/2-z
1/2+x,1/2+y,-z
-y,1/2+x,1/2-z
-x,1/2+y,z
1/2+x,-y,z
-y,-x,1/2+z
1/2+y,1/2+x,1/2+z
loop_
_atom_site_type_symbol
_atom_site_label
_atom_site_fract_x
_atom_site_fract_y
_atom_site_fract_z
Si Si1 0.550712 0.864177 0.492899
Si Si2 0.157236 0.157236 0.250000
Si Si3 0.582885 0.470605 0.751413
Si Si4 0.385152 0.494338 0.568210
Si Si5 0.092810 0.203287 0.764163
O O1 0.614700 0.859728 0.391024
O O2 0.491657 0.866717 0.378717
O O3 0.559579 0.936230 0.565065
O O4 0.553615 0.807503 0.612622
O O5 0.230803 0.133826 0.281888
O O6 0.529649 0.529649 0.750000
O O7 0.545378 0.406857 0.808020
O O8 0.613207 0.472367 0.590508
O O9 0.318532 0.457411 0.610749
O O10 0.147117 0.147117 0.750000
#
# Coordination Sequence:
#
# PCOD9567565 Si02
#       5
#    16   8  16  16  16
#     4  10  19  34  47  71  92 126 177 227 280 329
#     4  12  21  36  50  64 102 144 184 231 252 318
#     4  10  16  29  52  72  98 111 152 235 295 341
#     4  10  18  31  50  76  93 118 162 230 290 343
#     4  10  22  34  49  67  93 138 191 226 270 312
#
# _framework density 18.761664
#
# number of rings (size 3 to 8) (size 9 to 14) (size 15 to 20)
#    0.000    1.778    3.333    7.000    0.000    3.556 
#    0.000    4.444    0.000    0.000    0.000    0.000 
#    0.000    0.000    0.000    0.000    0.000    1.111 
#
# Total GULP energy -401430.486404 kJ/mol
# GULP energy per Si atom -5575.423422 kJ/mol
# Density = 1.871896 g / cm^3
# Si number density = 18.761664 Si / 1000 Ang^3
#
#
#
# Elastic Constant Matrix: (Units=GPa)
#
#
# Indices 1 2 3 4 5 6 
#
# 1 52.1014 55.0242 40.4936 0.0000 0.0000 0.0000
# 2 55.0242 52.1014 40.4936 0.0000 0.0000 0.0000
# 3 40.4936 40.4936 109.4255 0.0000 0.0000 0.0000
# 4 0.0000 0.0000 0.0000 22.5108 0.0000 0.0000
# 5 0.0000 0.0000 0.0000 0.0000 22.5108 0.0000
# 6 0.0000 0.0000 0.0000 0.0000 0.0000 33.0500
#
#
#
# Elastic Compliance Matrix: (Units=1/GPa)
#
#
# Indices 1 2 3 4 5 6 
#
# 1 -0.164588 0.177549 -0.004796 0.000000 0.000000 0.000000
# 2 0.177549 -0.164588 -0.004796 0.000000 0.000000 0.000000
# 3 -0.004796 -0.004796 0.012688 0.000000 0.000000 0.000000
# 4 0.000000 0.000000 0.000000 0.044423 0.000000 0.000000
# 5 0.000000 0.000000 0.000000 0.000000 0.044423 0.000000
# 6 0.000000 0.000000 0.000000 0.000000 0.000000 0.030257
#
#
# Mechanical properties :
#
#
# Convention : Reuss Voigt Hill
#
# Bulk Modulus (GPa) = 51.47982 53.96121 52.72051
# Shear Modulus (GPa) = -9.49087 20.78878 5.64896
#
# Velocity S-wave (km/s) = -2.25158 3.33234 1.73708
# Velocity P-wave (km/s) = 4.55400 6.60529 5.67313
#
# Compressibility (1/GPa) = 0.01942509
#
# Stress axis : x y z
#
# Youngs Moduli (GPa) = -6.07577 -6.07577 78.81232
#
# Poissons Ratio (x) = 1.07875 0.37800
# Poissons Ratio (y) = 1.07875 0.37800
# Poissons Ratio (z) = -0.02914 -0.02914
#
# Static dielectric constant tensor:
#      x y z
#    x 1.691840 0.000000 0.000000 
#    y 0.000000 1.691840 0.000000 
#    z 0.000000 0.000000 1.754360 
# 
# From -- ./inp_files/1698.got.cif
#   From: 2010.05.17/outbox.cif.g08.bks.cpg/sg133_1_cif.got.tgz:1698.got - 2010.05.20 12:37:36.
