data_PCOD9567549
_publ_section_title
;
Structure prediction by ZEFSAII (Michael W. Deem and Ramdas Pophale) SiO2 
 PCOD9567549
Probable space group: P 42/M C M
;
_chemical_formula_sum "Si O2"
_cell_formula_units_Z 112
_cell_length_a 15.000000
_cell_length_b 15.000000
_cell_length_c 27.000000
_cell_angle_alpha 90.000000
_cell_angle_beta 90.000000
_cell_angle_gamma 90.000000
_cell_volume 6075.000000
_symmetry_space_group_name_H-M "P 42/M C M"
_symmetry_group_IT_number 132
_symmetry_cell_setting 'tetragonal'
loop_
_space_group_symop_operation_xyz
x,y,z
-y,x,1/2+z
-x,-y,z
y,-x,1/2+z
x,-y,1/2-z
-x,y,1/2-z
y,x,-z
-y,-x,-z
-x,-y,-z
y,-x,1/2-z
x,y,-z
-y,x,1/2-z
-x,y,1/2+z
x,-y,1/2+z
-y,-x,z
y,x,z
loop_
_atom_site_type_symbol
_atom_site_label
_atom_site_fract_x
_atom_site_fract_y
_atom_site_fract_z
Si Si1 0.786959 0.644663 0.941652
Si Si2 0.621212 0.234164 0.810321
Si Si3 0.707062 0.566221 0.853405
Si Si4 0.885089 0.255484 0.118756
Si Si5 0.970674 0.822401 0.806517
Si Si6 0.315894 0.829548 0.713887
Si Si7 0.008301 0.394761 0.059570
O O1 0.740027 0.740027 0.930723
O O2 0.729957 0.572608 0.911226
O O3 0.890738 0.636490 0.929208
O O4 0.779054 0.629131 0.000000
O O5 0.677588 0.322413 0.797649
O O6 0.528171 0.269197 0.830735
O O7 0.677978 0.176463 0.848933
O O8 0.619190 0.174346 0.760848
O O9 0.610007 0.610007 0.843825
O O10 0.777645 0.634802 0.829367
O O11 0.816640 0.183361 0.094752
O O12 0.942451 0.322405 0.084402
O O13 0.949492 0.197885 0.155383
O O14 0.900541 0.900541 0.822215
O O15 0.921507 0.726527 0.802238
O O16 0.000000 0.843842 0.750000
O O17 0.228232 0.771769 0.728490
O O18 0.000000 0.500000 0.075159
O O19 0.995184 0.393299 0.000000
#
# Coordination Sequence:
#
# PCOD9567549 Si02
#       7
#    16  16  16  16  16  16  16
#     4   9  18  34  56  81 107 137 177 228 285 337
#     4  10  20  35  51  72 109 147 178 224 279 334
#     4  10  19  32  55  81 104 139 181 225 279 340
#     4  11  23  37  55  82 117 153 184 232 295 338
#     4  11  21  36  57  80 109 150 198 235 271 337
#     4   9  18  33  52  75 106 141 178 223 274 323
#     4  10  21  38  61  85 110 146 194 243 284 339
#
# _framework density 18.436214
#
# number of rings (size 3 to 8) (size 9 to 14) (size 15 to 20)
#    0.000    2.000    1.429    2.571    0.000    3.286 
#    0.000    0.000    0.000    3.857    0.000    5.000 
#    0.000    0.000    0.000    0.000    0.000    0.000 
#
# Total GULP energy -624012.578684 kJ/mol
# GULP energy per Si atom -5571.540881 kJ/mol
# Density = 1.839425 g / cm^3
# Si number density = 18.436214 Si / 1000 Ang^3
#
#
#
# Elastic Constant Matrix: (Units=GPa)
#
#
# Indices 1 2 3 4 5 6 
#
# 1 89.3159 52.3567 28.3793 0.0000 0.0000 0.0000
# 2 52.3567 89.3159 28.3793 0.0000 0.0000 0.0000
# 3 28.3793 28.3793 48.2930 0.0000 0.0000 0.0000
# 4 0.0000 0.0000 0.0000 23.4567 0.0000 0.0000
# 5 0.0000 0.0000 0.0000 0.0000 23.4567 0.0000
# 6 0.0000 0.0000 0.0000 0.0000 0.0000 27.8617
#
#
#
# Elastic Compliance Matrix: (Units=1/GPa)
#
#
# Indices 1 2 3 4 5 6 
#
# 1 0.018144 -0.008912 -0.005425 0.000000 0.000000 0.000000
# 2 -0.008912 0.018144 -0.005425 0.000000 0.000000 0.000000
# 3 -0.005425 -0.005425 0.027083 0.000000 0.000000 0.000000
# 4 0.000000 0.000000 0.000000 0.042632 0.000000 0.000000
# 5 0.000000 0.000000 0.000000 0.000000 0.042632 0.000000
# 6 0.000000 0.000000 0.000000 0.000000 0.000000 0.035892
#
#
# Mechanical properties :
#
#
# Convention : Reuss Voigt Hill
#
# Bulk Modulus (GPa) = 41.93498 49.46172 45.69835
# Shear Modulus (GPa) = 21.55160 22.80900 22.18030
#
# Velocity S-wave (km/s) = 3.42275 3.52118 3.47231
# Velocity P-wave (km/s) = 6.19803 6.58926 6.39664
#
# Compressibility (1/GPa) = 0.02384644
#
# Stress axis : x y z
#
# Youngs Moduli (GPa) = 55.11325 55.11325 36.92334
#
# Poissons Ratio (x) = 0.49119 0.20032
# Poissons Ratio (y) = 0.49119 0.20032
# Poissons Ratio (z) = 0.29900 0.29900
#
# Static dielectric constant tensor:
#      x y z
#    x 1.653050 0.000000 0.000000 
#    y 0.000000 1.653050 0.000000 
#    z 0.000000 0.000000 1.678450 
# 
# From -- ./inp_files/10084.got.cif
#   From: 2010.05.17/outbox.ucp.g08.bks.cvg/sg132_6_cif.got.tgz:10084.got - 2010.06.11 11:39:14.
