data_PCOD9567842
_publ_section_title
;
Structure prediction by ZEFSAII (Michael W. Deem and Ramdas Pophale) SiO2 
 PCOD9567842
Probable space group: P 42/N B C
;
_chemical_formula_sum "Si O2"
_cell_formula_units_Z 64
_cell_length_a 10.070157
_cell_length_b 10.070157
_cell_length_c 22.721380
_cell_angle_alpha 90.000000
_cell_angle_beta 90.000000
_cell_angle_gamma 90.000000
_cell_volume 2304.131112
_symmetry_space_group_name_H-M "P 42/N B C"
_symmetry_group_IT_number 133
_space_group.IT_coordinate_system_code '2'
_symmetry_cell_setting 'tetragonal'
loop_
_space_group_symop_operation_xyz
x,y,z
1/2-y,x,1/2+z
1/2-x,1/2-y,z
y,1/2-x,1/2+z
x,1/2-y,-z
1/2-x,y,-z
y,x,1/2-z
1/2-y,1/2-x,1/2-z
-x,-y,-z
1/2+y,-x,1/2-z
1/2+x,1/2+y,-z
-y,1/2+x,1/2-z
-x,1/2+y,z
1/2+x,-y,z
-y,-x,1/2+z
1/2+y,1/2+x,1/2+z
loop_
_atom_site_type_symbol
_atom_site_label
_atom_site_fract_x
_atom_site_fract_y
_atom_site_fract_z
Si Si1 0.253218 0.476993 0.063166
Si Si2 0.257175 0.467059 0.436423
Si Si3 0.004625 0.240907 0.310423
Si Si4 0.851097 0.498451 0.685670
O O1 0.392597 0.398152 0.069560
O O2 0.144752 0.358981 0.057969
O O3 0.226523 0.552246 0.124133
O O4 0.250000 0.545793 0.000000
O O5 0.250000 0.535988 0.500000
O O6 0.220623 0.534672 0.375114
O O7 0.990967 0.081243 0.311587
O O8 0.955591 0.277707 0.245169
O O9 0.129532 0.342127 0.313247
#
# Coordination Sequence:
#
# PCOD9567842 Si02
#       4
#    16  16  16  16
#     4   8  15  32  58  87 120 163 219 272 318 391
#     4   8  15  31  57  89 120 160 219 280 326 383
#     4  10  22  40  61  91 130 173 220 272 336 403
#     4  10  22  40  63  93 130 174 224 279 337 402
#
# _framework density 27.776197
#
# number of rings (size 3 to 8) (size 9 to 14) (size 15 to 20)
#    0.000    3.000    0.000    1.500    0.000    5.500 
#    0.000   23.750    0.000    0.000    0.000   19.250 
#    0.000    0.000    0.000    0.000    0.000    0.000 
#
# Total GULP energy -356289.775973 kJ/mol
# GULP energy per Si atom -5567.027750 kJ/mol
# Density = 2.771298 g / cm^3
# Si number density = 27.776197 Si / 1000 Ang^3
#
#
#
# Elastic Constant Matrix: (Units=GPa)
#
#
# Indices 1 2 3 4 5 6 
#
# 1 79.2884 87.0841 37.5593 0.0000 0.0000 0.0000
# 2 87.0841 79.2884 37.5593 0.0000 0.0000 0.0000
# 3 37.5593 37.5593 405.9387 0.0000 0.0000 0.0000
# 4 0.0000 0.0000 0.0000 -24.9291 0.0000 0.0000
# 5 0.0000 0.0000 0.0000 0.0000 -24.9291 0.0000
# 6 0.0000 0.0000 0.0000 0.0000 0.0000 53.6505
#
#
#
# Elastic Compliance Matrix: (Units=1/GPa)
#
#
# Indices 1 2 3 4 5 6 
#
# 1 -0.061001 0.067274 -0.000580 0.000000 0.000000 0.000000
# 2 0.067274 -0.061001 -0.000580 0.000000 0.000000 0.000000
# 3 -0.000580 -0.000580 0.002571 0.000000 0.000000 0.000000
# 4 0.000000 0.000000 0.000000 -0.040114 0.000000 0.000000
# 5 0.000000 0.000000 0.000000 0.000000 -0.040114 0.000000
# 6 0.000000 0.000000 0.000000 0.000000 0.000000 0.018639
#
#
# Mechanical properties :
#
#
# Convention : Reuss Voigt Hill
#
# Bulk Modulus (GPa) = 78.15779 98.76898 88.46338
# Shear Modulus (GPa) = -16.18218 27.57930 5.69856
#
# Velocity S-wave (km/s) = -2.41631 3.15447 1.43389
# Velocity P-wave (km/s) = 4.51827 6.99311 5.88720
#
# Compressibility (1/GPa) = 0.01279463
#
# Stress axis : x y z
#
# Youngs Moduli (GPa) = -16.39307 -16.39307 388.98040
#
# Poissons Ratio (x) = 1.10283 0.22575
# Poissons Ratio (y) = 1.10283 0.22575
# Poissons Ratio (z) = -0.00951 -0.00951
#
# Static dielectric constant tensor:
#      x y z
#    x 2.123980 0.000000 0.000000 
#    y 0.000000 2.123980 0.000000 
#    z 0.000000 0.000000 2.165510 
# 
# From -- ./inp_files/6141.got.cif
#   From: 2010.05.17/outbox.cif.g08.bks.cpg/sg133_4_cif.got.tgz:6141.got - 2010.05.20 12:37:36.
