data_PCOD9567004
_publ_section_title
;
Structure prediction by ZEFSAII (Michael W. Deem and Ramdas Pophale) SiO2 
 PCOD9567004
Probable space group: P 42/M C M
;
_chemical_formula_sum "Si O2"
_cell_formula_units_Z 112
_cell_length_a 19.071921
_cell_length_b 19.071921
_cell_length_c 20.756974
_cell_angle_alpha 90.000000
_cell_angle_beta 90.000000
_cell_angle_gamma 90.000000
_cell_volume 7550.103751
_symmetry_space_group_name_H-M "P 42/M C M"
_symmetry_group_IT_number 132
_symmetry_cell_setting 'tetragonal'
loop_
_space_group_symop_operation_xyz
x,y,z
-y,x,1/2+z
-x,-y,z
y,-x,1/2+z
x,-y,1/2-z
-x,y,1/2-z
y,x,-z
-y,-x,-z
-x,-y,-z
y,-x,1/2-z
x,y,-z
-y,x,1/2-z
-x,y,1/2+z
x,-y,1/2+z
-y,-x,z
y,x,z
loop_
_atom_site_type_symbol
_atom_site_label
_atom_site_fract_x
_atom_site_fract_y
_atom_site_fract_z
Si Si1 0.491292 0.084859 0.824743
Si Si2 0.131965 0.244865 0.390123
Si Si3 0.373873 0.927307 0.427366
Si Si4 0.020675 0.870151 0.926387
Si Si5 0.110077 0.219673 0.885714
Si Si6 0.604659 0.904641 0.428675
Si Si7 0.916894 0.198412 0.756088
O O1 0.500000 0.107890 0.750000
O O2 0.420552 0.098955 0.866705
O O3 0.552976 0.113146 0.870610
O O4 0.500000 0.000000 0.823512
O O5 0.206276 0.206276 0.390196
O O6 0.077715 0.192280 0.424864
O O7 0.131931 0.320746 0.420221
O O8 0.101774 0.245661 0.317419
O O9 0.397495 0.906145 0.500000
O O10 0.292386 0.907201 0.419622
O O11 0.380282 0.011793 0.425247
O O12 0.061648 0.938353 0.899086
O O13 0.952310 0.837552 0.894186
O O14 0.002756 0.885757 0.000000
O O15 0.180946 0.180946 0.907083
O O16 0.111341 0.232299 0.809266
O O17 0.575200 0.890658 0.500000
O O18 0.874393 0.125608 0.765090
O O19 0.000000 0.188277 0.750000
#
# Coordination Sequence:
#
# PCOD9567004 Si02
#       7
#    16  16  16  16  16  16  16
#     4   9  19  32  48  69  87 106 136 175 225 272
#     4  10  19  30  45  64  86 110 141 181 228 274
#     4  10  19  32  47  64  88 114 141 182 224 267
#     4  10  19  31  44  58  79 110 150 192 233 272
#     4  11  22  32  45  63  85 115 152 189 232 275
#     4  10  18  30  49  68  86 111 141 177 222 273
#     4  10  19  30  42  57  76 106 145 188 232 273
#
# _framework density 14.834232999999999
#
# number of rings (size 3 to 8) (size 9 to 14) (size 15 to 20)
#    0.000    2.000    2.857    1.286    2.000    4.143 
#    0.000    2.143    0.000    0.000    0.000    0.000 
#    0.000    0.000    0.000    0.000    0.000    0.714 
#
# Total GULP energy -624139.212318 kJ/mol
# GULP energy per Si atom -5572.671539 kJ/mol
# Density = 1.480047 g / cm^3
# Si number density = 14.834233 Si / 1000 Ang^3
#
#
#
# Elastic Constant Matrix: (Units=GPa)
#
#
# Indices 1 2 3 4 5 6 
#
# 1 47.4410 23.2375 27.3782 0.0000 0.0000 0.0000
# 2 23.2375 47.4410 27.3782 0.0000 0.0000 0.0000
# 3 27.3782 27.3782 117.8052 0.0000 0.0000 0.0000
# 4 0.0000 0.0000 0.0000 5.9295 0.0000 0.0000
# 5 0.0000 0.0000 0.0000 0.0000 5.9295 0.0000
# 6 0.0000 0.0000 0.0000 0.0000 0.0000 8.2859
#
#
#
# Elastic Compliance Matrix: (Units=1/GPa)
#
#
# Indices 1 2 3 4 5 6 
#
# 1 0.029286 -0.012031 -0.004010 0.000000 0.000000 0.000000
# 2 -0.012031 0.029286 -0.004010 0.000000 0.000000 0.000000
# 3 -0.004010 -0.004010 0.010353 0.000000 0.000000 0.000000
# 4 0.000000 0.000000 0.000000 0.168649 0.000000 0.000000
# 5 0.000000 0.000000 0.000000 0.000000 0.168649 0.000000
# 6 0.000000 0.000000 0.000000 0.000000 0.000000 0.120687
#
#
# Mechanical properties :
#
#
# Convention : Reuss Voigt Hill
#
# Bulk Modulus (GPa) = 34.69509 40.96390 37.82950
# Shear Modulus (GPa) = 8.67126 13.00852 10.83989
#
# Velocity S-wave (km/s) = 2.42036 2.96451 2.70614
# Velocity P-wave (km/s) = 5.59018 6.27631 5.94316
#
# Compressibility (1/GPa) = 0.02882252
#
# Stress axis : x y z
#
# Youngs Moduli (GPa) = 34.14613 34.14613 96.59459
#
# Poissons Ratio (x) = 0.41080 0.38736
# Poissons Ratio (y) = 0.41080 0.38736
# Poissons Ratio (z) = 0.13693 0.13693
#
# Static dielectric constant tensor:
#      x y z
#    x 1.483760 0.000000 0.000000 
#    y 0.000000 1.483760 0.000000 
#    z 0.000000 0.000000 1.559360 
# 
# From -- ./inp_files/8177.got.cif
#   From: 2010.05.17/outbox.cif.g08.bks.cpg/sg132_5_cif.got.tgz:8177.got - 2010.05.20 12:30:18.
