data_PCOD9567342
_publ_section_title
;
Structure prediction by ZEFSAII (Michael W. Deem and Ramdas Pophale) SiO2 
 PCOD9567342
Probable space group: P 42/M C M
;
_chemical_formula_sum "Si O2"
_cell_formula_units_Z 40
_cell_length_a 9.083538
_cell_length_b 9.083538
_cell_length_c 24.535172
_cell_angle_alpha 90.000000
_cell_angle_beta 90.000000
_cell_angle_gamma 90.000000
_cell_volume 2024.413299
_symmetry_space_group_name_H-M "P 42/M C M"
_symmetry_group_IT_number 132
_symmetry_cell_setting 'tetragonal'
loop_
_space_group_symop_operation_xyz
x,y,z
-y,x,1/2+z
-x,-y,z
y,-x,1/2+z
x,-y,1/2-z
-x,y,1/2-z
y,x,-z
-y,-x,-z
-x,-y,-z
y,-x,1/2-z
x,y,-z
-y,x,1/2-z
-x,y,1/2+z
x,-y,1/2+z
-y,-x,z
y,x,z
loop_
_atom_site_type_symbol
_atom_site_label
_atom_site_fract_x
_atom_site_fract_y
_atom_site_fract_z
Si Si1 0.448431 0.778523 0.188932
Si Si2 0.718820 0.956427 0.847033
Si Si3 0.875161 0.875161 0.439119
O O1 0.500000 0.745747 0.250000
O O2 0.361798 0.638203 0.166438
O O3 0.584747 0.840069 0.154067
O O4 0.333634 0.914172 0.192744
O O5 0.865810 0.865810 0.833248
O O6 0.749437 0.045195 0.903100
O O7 0.830262 0.830262 0.500000
O O8 0.000000 0.000000 0.444034
#
# Coordination Sequence:
#
# PCOD9567342 Si02
#       3
#    16  16   8
#     4  11  23  38  55  82 123 160 198 236 294 366
#     4  10  20  37  60  84 115 152 194 249 294 353
#     4   9  18  36  64  90 113 149 197 253 315 353
#
# _framework density 19.758811999999999
#
# number of rings (size 3 to 8) (size 9 to 14) (size 15 to 20)
#    0.000    1.800    2.000    3.600    0.000    2.800 
#    3.600    4.000    0.000    0.000    0.000    5.600 
#    0.000    0.000    0.000    0.000    0.000    0.000 
#
# Total GULP energy -222944.177159 kJ/mol
# GULP energy per Si atom -5573.604429 kJ/mol
# Density = 1.971384 g / cm^3
# Si number density = 19.758812 Si / 1000 Ang^3
#
#
#
# Elastic Constant Matrix: (Units=GPa)
#
#
# Indices 1 2 3 4 5 6 
#
# 1 91.6892 65.3258 36.8366 0.0000 0.0000 0.0000
# 2 65.3258 91.6892 36.8366 0.0000 0.0000 0.0000
# 3 36.8366 36.8366 77.1271 0.0000 0.0000 0.0000
# 4 0.0000 0.0000 0.0000 14.1425 0.0000 0.0000
# 5 0.0000 0.0000 0.0000 0.0000 14.1425 0.0000
# 6 0.0000 0.0000 0.0000 0.0000 0.0000 70.2954
#
#
#
# Elastic Compliance Matrix: (Units=1/GPa)
#
#
# Indices 1 2 3 4 5 6 
#
# 1 0.023070 -0.014862 -0.003920 0.000000 0.000000 0.000000
# 2 -0.014862 0.023070 -0.003920 0.000000 0.000000 0.000000
# 3 -0.003920 -0.003920 0.016710 0.000000 0.000000 0.000000
# 4 0.000000 0.000000 0.000000 0.070709 0.000000 0.000000
# 5 0.000000 0.000000 0.000000 0.000000 0.070709 0.000000
# 6 0.000000 0.000000 0.000000 0.000000 0.000000 0.014226
#
#
# Mechanical properties :
#
#
# Convention : Reuss Voigt Hill
#
# Bulk Modulus (GPa) = 57.32113 59.83372 58.57742
# Shear Modulus (GPa) = 18.53821 27.81651 23.17736
#
# Velocity S-wave (km/s) = 3.06637 3.75614 3.42864
# Velocity P-wave (km/s) = 6.45060 7.01136 6.73682
#
# Compressibility (1/GPa) = 0.01744557
#
# Stress axis : x y z
#
# Youngs Moduli (GPa) = 43.34665 43.34665 59.84295
#
# Poissons Ratio (x) = 0.64420 0.23461
# Poissons Ratio (y) = 0.64420 0.23461
# Poissons Ratio (z) = 0.16993 0.16993
#
# Static dielectric constant tensor:
#      x y z
#    x 1.764360 0.000000 0.000000 
#    y 0.000000 1.764360 0.000000 
#    z 0.000000 0.000000 1.690740 
# 
# From -- ./inp_files/8402.got.cif
#   From: 2010.05.17/outbox.cif.g08.bks.cpg/sg132_5_cif.got.tgz:8402.got - 2010.05.20 12:30:18.
