data_PCOD9567870
_publ_section_title
;
Structure prediction by ZEFSAII (Michael W. Deem and Ramdas Pophale) SiO2 
 PCOD9567870
Probable space group: P 42/N B C
;
_chemical_formula_sum "Si O2"
_cell_formula_units_Z 52
_cell_length_a 15.376788
_cell_length_b 15.376788
_cell_length_c 9.870734
_cell_angle_alpha 90.000000
_cell_angle_beta 90.000000
_cell_angle_gamma 90.000000
_cell_volume 2333.891714
_symmetry_space_group_name_H-M "P 42/N B C"
_symmetry_group_IT_number 133
_space_group.IT_coordinate_system_code '2'
_symmetry_cell_setting 'tetragonal'
loop_
_space_group_symop_operation_xyz
x,y,z
1/2-y,x,1/2+z
1/2-x,1/2-y,z
y,1/2-x,1/2+z
x,1/2-y,-z
1/2-x,y,-z
y,x,1/2-z
1/2-y,1/2-x,1/2-z
-x,-y,-z
1/2+y,-x,1/2-z
1/2+x,1/2+y,-z
-y,1/2+x,1/2-z
-x,1/2+y,z
1/2+x,-y,z
-y,-x,1/2+z
1/2+y,1/2+x,1/2+z
loop_
_atom_site_type_symbol
_atom_site_label
_atom_site_fract_x
_atom_site_fract_y
_atom_site_fract_z
Si Si1 0.436725 0.822737 0.693834
Si Si2 0.750000 0.250000 0.750000
Si Si3 0.716561 0.610372 0.851734
Si Si4 0.416343 0.534222 0.075919
O O1 0.354746 0.758528 0.714632
O O2 0.534529 0.782290 0.701488
O O3 0.434711 0.899451 0.803785
O O4 0.423763 0.857929 0.541983
O O5 0.685540 0.685540 0.750000
O O6 0.632264 0.551397 0.875683
O O7 0.750000 0.640346 0.000000
O O8 0.500000 0.500000 0.000000
#
# Coordination Sequence:
#
# PCOD9567870 Si02
#       4
#    16   4  16  16
#     4  11  24  41  71 102 144 184 228 298 354 419
#     4  12  24  42  64 110 152 174 236 286 368 426
#     4  10  22  44  70 105 141 188 240 294 359 432
#     4  11  23  43  69 102 137 188 235 283 353 429
#
# _framework density 22.280383
#
# number of rings (size 3 to 8) (size 9 to 14) (size 15 to 20)
#    0.000    1.231    3.077    2.769    0.000    2.462 
#    0.000    0.000    0.000   31.385    0.000    0.000 
#    0.000    0.000    0.000    0.000    0.000    0.000 
#
# Total GULP energy -289827.369450 kJ/mol
# GULP energy per Si atom -5573.603259 kJ/mol
# Density = 2.222967 g / cm^3
# Si number density = 22.280383 Si / 1000 Ang^3
#
#
#
# Elastic Constant Matrix: (Units=GPa)
#
#
# Indices 1 2 3 4 5 6 
#
# 1 67.6666 111.7025 79.9633 0.0000 0.0000 0.0000
# 2 111.7025 67.6666 79.9633 0.0000 0.0000 0.0000
# 3 79.9633 79.9633 160.9614 0.0000 0.0000 0.0000
# 4 0.0000 0.0000 0.0000 23.7256 0.0000 0.0000
# 5 0.0000 0.0000 0.0000 0.0000 23.7256 0.0000
# 6 0.0000 0.0000 0.0000 0.0000 0.0000 33.5297
#
#
#
# Elastic Compliance Matrix: (Units=1/GPa)
#
#
# Indices 1 2 3 4 5 6 
#
# 1 -0.006350 0.016358 -0.004972 0.000000 0.000000 0.000000
# 2 0.016358 -0.006350 -0.004972 0.000000 0.000000 0.000000
# 3 -0.004972 -0.004972 0.011153 0.000000 0.000000 0.000000
# 4 0.000000 0.000000 0.000000 0.042149 0.000000 0.000000
# 5 0.000000 0.000000 0.000000 0.000000 0.042149 0.000000
# 6 0.000000 0.000000 0.000000 0.000000 0.000000 0.029824
#
#
# Mechanical properties :
#
#
# Convention : Reuss Voigt Hill
#
# Bulk Modulus (GPa) = 88.64286 93.28364 90.96325
# Shear Modulus (GPa) = 48.30723 17.84055 33.07389
#
# Velocity S-wave (km/s) = 4.66139 2.83279 3.85702
# Velocity P-wave (km/s) = 8.29717 7.25662 7.79428
#
# Compressibility (1/GPa) = 0.01128123
#
# Stress axis : x y z
#
# Youngs Moduli (GPa) = -157.47096 -157.47096 89.66568
#
# Poissons Ratio (x) = 2.57597 0.44580
# Poissons Ratio (y) = 2.57597 0.44580
# Poissons Ratio (z) = -0.78292 -0.78292
#
# Static dielectric constant tensor:
#      x y z
#    x 1.794730 0.000000 0.000000 
#    y 0.000000 1.794730 0.000000 
#    z 0.000000 0.000000 1.826070 
# 
# From -- ./inp_files/1192.got.cif
#   From: 2010.05.17/outbox.cif.g08.bks.cpg/sg133_1_cif.got.tgz:1192.got - 2010.05.20 12:37:36.
