data_PCOD9567908
_publ_section_title
;
Structure prediction by ZEFSAII (Michael W. Deem and Ramdas Pophale) SiO2 
 PCOD9567908
Probable space group: P 42/N B C
;
_chemical_formula_sum "Si O2"
_cell_formula_units_Z 52
_cell_length_a 14.657138
_cell_length_b 14.657138
_cell_length_c 9.681962
_cell_angle_alpha 90.000000
_cell_angle_beta 90.000000
_cell_angle_gamma 90.000000
_cell_volume 2079.992301
_symmetry_space_group_name_H-M "P 42/N B C"
_symmetry_group_IT_number 133
_space_group.IT_coordinate_system_code '2'
_symmetry_cell_setting 'tetragonal'
loop_
_space_group_symop_operation_xyz
x,y,z
1/2-y,x,1/2+z
1/2-x,1/2-y,z
y,1/2-x,1/2+z
x,1/2-y,-z
1/2-x,y,-z
y,x,1/2-z
1/2-y,1/2-x,1/2-z
-x,-y,-z
1/2+y,-x,1/2-z
1/2+x,1/2+y,-z
-y,1/2+x,1/2-z
-x,1/2+y,z
1/2+x,-y,z
-y,-x,1/2+z
1/2+y,1/2+x,1/2+z
loop_
_atom_site_type_symbol
_atom_site_label
_atom_site_fract_x
_atom_site_fract_y
_atom_site_fract_z
Si Si1 0.750000 0.250000 0.000000
Si Si2 0.981364 0.357255 0.473942
Si Si3 0.152992 0.905723 0.684649
Si Si4 0.317357 0.106912 0.380762
O O1 0.680512 0.198530 0.106680
O O2 0.993051 0.250000 0.500000
O O3 0.908286 0.363933 0.348412
O O4 0.943930 0.406103 0.608739
O O5 0.078879 0.395245 0.433183
O O6 0.205084 0.001737 0.659633
O O7 0.250000 0.137170 0.500000
O O8 0.326398 0.173603 0.250000
#
# Coordination Sequence:
#
# PCOD9567908 Si02
#       4
#     4  16  16  16
#     4  12  24  42  78 104 158 188 246 320 370 464
#     4  11  26  44  71 106 148 198 250 307 384 456
#     4  11  25  44  71 111 150 191 249 309 393 455
#     4  10  23  48  75 107 149 199 254 319 377 459
#
# _framework density 25.000091000000001
#
# number of rings (size 3 to 8) (size 9 to 14) (size 15 to 20)
#    0.000    1.231    3.077    0.923    4.308    1.846 
#    0.000   16.923    0.000    0.000    0.000    0.000 
#    0.000    0.000    0.000    0.000    0.000    0.000 
#
# Total GULP energy -290999.953144 kJ/mol
# GULP energy per Si atom -5596.152945 kJ/mol
# Density = 2.494319 g / cm^3
# Si number density = 25.000091 Si / 1000 Ang^3
#
#
#
# Elastic Constant Matrix: (Units=GPa)
#
#
# Indices 1 2 3 4 5 6 
#
# 1 98.9927 48.7360 42.8037 0.0000 0.0000 0.0000
# 2 48.7360 98.9911 42.8055 0.0000 0.0000 0.0000
# 3 42.8037 42.8055 107.6263 0.0000 0.0000 0.0000
# 4 0.0000 0.0000 0.0000 39.3195 0.0000 0.0000
# 5 0.0000 0.0000 0.0000 0.0000 39.3193 0.0000
# 6 0.0000 0.0000 0.0000 0.0000 0.0000 25.7502
#
#
#
# Elastic Compliance Matrix: (Units=1/GPa)
#
#
# Indices 1 2 3 4 5 6 
#
# 1 0.014347 -0.005551 -0.003498 0.000000 0.000000 0.000000
# 2 -0.005551 0.014348 -0.003499 0.000000 0.000000 0.000000
# 3 -0.003498 -0.003499 0.012074 0.000000 0.000000 0.000000
# 4 0.000000 0.000000 0.000000 0.025433 0.000000 0.000000
# 5 0.000000 0.000000 0.000000 0.000000 0.025433 0.000000
# 6 0.000000 0.000000 0.000000 0.000000 0.000000 0.038835
#
#
# Mechanical properties :
#
#
# Convention : Reuss Voigt Hill
#
# Bulk Modulus (GPa) = 63.80271 63.81118 63.80695
# Shear Modulus (GPa) = 31.09659 32.29547 31.69603
#
# Velocity S-wave (km/s) = 3.53066 3.59808 3.56453
# Velocity P-wave (km/s) = 6.49594 6.54533 6.52068
#
# Compressibility (1/GPa) = 0.01567331
#
# Stress axis : x y z
#
# Youngs Moduli (GPa) = 69.70033 69.69776 82.82079
#
# Poissons Ratio (x) = 0.38688 0.28973
# Poissons Ratio (y) = 0.38689 0.28978
# Poissons Ratio (z) = 0.24383 0.24386
#
# Static dielectric constant tensor:
#      x y z
#    x 2.003390 0.000000 0.000000 
#    y 0.000000 2.003390 0.000000 
#    z 0.000000 0.000000 1.996120 
# 
# From -- ./inp_files/1218.got.cif
#   From: 2010.05.17/outbox.cif.g08.bks.cpg/sg133_1_cif.got.tgz:1218.got - 2010.05.20 12:37:36.
