data_PCOD9567121
_publ_section_title
;
Structure prediction by ZEFSAII (Michael W. Deem and Ramdas Pophale) SiO2 
 PCOD9567121
Probable space group: P 42/M C M
;
_chemical_formula_sum "Si O2"
_cell_formula_units_Z 96
_cell_length_a 24.195935
_cell_length_b 24.195935
_cell_length_c 9.374680
_cell_angle_alpha 90.000000
_cell_angle_beta 90.000000
_cell_angle_gamma 90.000000
_cell_volume 5488.343319
_symmetry_space_group_name_H-M "P 42/M C M"
_symmetry_group_IT_number 132
_symmetry_cell_setting 'tetragonal'
loop_
_space_group_symop_operation_xyz
x,y,z
-y,x,1/2+z
-x,-y,z
y,-x,1/2+z
x,-y,1/2-z
-x,y,1/2-z
y,x,-z
-y,-x,-z
-x,-y,-z
y,-x,1/2-z
x,y,-z
-y,x,1/2-z
-x,y,1/2+z
x,-y,1/2+z
-y,-x,z
y,x,z
loop_
_atom_site_type_symbol
_atom_site_label
_atom_site_fract_x
_atom_site_fract_y
_atom_site_fract_z
Si Si1 0.819826 0.732530 0.169086
Si Si2 0.053754 0.420396 0.163650
Si Si3 0.650513 0.559787 0.671906
Si Si4 0.286798 0.944696 0.335231
Si Si5 0.545804 0.839484 0.339222
Si Si6 0.751783 0.640966 0.337038
O O1 0.792804 0.792804 0.185956
O O2 0.883477 0.729470 0.221132
O O3 0.776862 0.690245 0.242956
O O4 0.821535 0.718849 0.000000
O O5 0.055606 0.353651 0.164484
O O6 0.106561 0.441421 0.248086
O O7 0.000000 0.437428 0.250000
O O8 0.052036 0.438619 0.000000
O O9 0.653477 0.500000 0.750000
O O10 0.656259 0.551448 0.500000
O O11 0.592935 0.592935 0.698006
O O12 0.699291 0.603962 0.712661
O O13 0.268232 0.949193 0.500000
O O14 0.269463 0.000000 0.250000
O O15 0.500000 0.806992 0.250000
O O16 0.527946 0.851663 0.500000
O O17 0.599304 0.802693 0.344248
O O18 0.740444 0.658684 0.500000
#
# Coordination Sequence:
#
# PCOD9567121 Si02
#       6
#    16  16  16  16  16  16
#     4  10  20  34  54  82 113 143 177 216 259 309
#     4  10  19  33  51  70  96 130 171 218 262 308
#     4  10  22  40  60  82 107 134 167 209 259 317
#     4   9  18  32  51  75 104 141 178 215 258 305
#     4  11  22  34  50  72  97 131 173 217 263 311
#     4  10  21  37  56  78 106 138 171 210 259 313
#
# _framework density 17.491617000000002
#
# number of rings (size 3 to 8) (size 9 to 14) (size 15 to 20)
#    0.000    2.000    1.667    2.000    0.000    4.500 
#    0.000    2.500    0.000    0.000    0.000    0.000 
#    0.000    0.333    0.000    4.167    0.000    0.000 
#
# Total GULP energy -535080.239217 kJ/mol
# GULP energy per Si atom -5573.752492 kJ/mol
# Density = 1.745181 g / cm^3
# Si number density = 17.491617 Si / 1000 Ang^3
#
#
#
# Elastic Constant Matrix: (Units=GPa)
#
#
# Indices 1 2 3 4 5 6 
#
# 1 97.0104 64.9696 44.5694 0.0000 0.0000 0.0000
# 2 64.9696 97.0104 44.5694 0.0000 0.0000 0.0000
# 3 44.5694 44.5694 90.6287 0.0000 0.0000 0.0000
# 4 0.0000 0.0000 0.0000 11.2728 0.0000 0.0000
# 5 0.0000 0.0000 0.0000 0.0000 11.2728 0.0000
# 6 0.0000 0.0000 0.0000 0.0000 0.0000 44.0687
#
#
#
# Elastic Compliance Matrix: (Units=1/GPa)
#
#
# Indices 1 2 3 4 5 6 
#
# 1 0.019837 -0.011373 -0.004163 0.000000 0.000000 0.000000
# 2 -0.011373 0.019837 -0.004163 0.000000 0.000000 0.000000
# 3 -0.004163 -0.004163 0.015128 0.000000 0.000000 0.000000
# 4 0.000000 0.000000 0.000000 0.088709 0.000000 0.000000
# 5 0.000000 0.000000 0.000000 0.000000 0.088709 0.000000
# 6 0.000000 0.000000 0.000000 0.000000 0.000000 0.022692
#
#
# Mechanical properties :
#
#
# Convention : Reuss Voigt Hill
#
# Bulk Modulus (GPa) = 64.90778 65.87404 65.39091
# Shear Modulus (GPa) = 16.69760 22.02560 19.36160
#
# Velocity S-wave (km/s) = 3.09302 3.55238 3.33063
# Velocity P-wave (km/s) = 7.06712 7.38702 7.22884
#
# Compressibility (1/GPa) = 0.01540647
#
# Stress axis : x y z
#
# Youngs Moduli (GPa) = 50.41026 50.41026 66.10178
#
# Poissons Ratio (x) = 0.57331 0.27515
# Poissons Ratio (y) = 0.57331 0.27515
# Poissons Ratio (z) = 0.20984 0.20984
#
# Static dielectric constant tensor:
#      x y z
#    x 1.616370 0.000000 0.000000 
#    y 0.000000 1.616370 0.000000 
#    z 0.000000 0.000000 1.607210 
# 
# From -- ./inp_files/1707.got.cif
#   From: 2010.05.17/outbox.cif.g08.bks.cpg/sg132_1_cif.got.tgz:1707.got - 2010.05.20 12:30:18.
