data_PCOD9567029
_publ_section_title
;
Structure prediction by ZEFSAII (Michael W. Deem and Ramdas Pophale) SiO2 
 PCOD9567029
Probable space group: P 42/M C M
;
_chemical_formula_sum "Si O2"
_cell_formula_units_Z 96
_cell_length_a 25.480918
_cell_length_b 25.480918
_cell_length_c 8.170787
_cell_angle_alpha 90.000000
_cell_angle_beta 90.000000
_cell_angle_gamma 90.000000
_cell_volume 5305.105559
_symmetry_space_group_name_H-M "P 42/M C M"
_symmetry_group_IT_number 132
_symmetry_cell_setting 'tetragonal'
loop_
_space_group_symop_operation_xyz
x,y,z
-y,x,1/2+z
-x,-y,z
y,-x,1/2+z
x,-y,1/2-z
-x,y,1/2-z
y,x,-z
-y,-x,-z
-x,-y,-z
y,-x,1/2-z
x,y,-z
-y,x,1/2-z
-x,y,1/2+z
x,-y,1/2+z
-y,-x,z
y,x,z
loop_
_atom_site_type_symbol
_atom_site_label
_atom_site_fract_x
_atom_site_fract_y
_atom_site_fract_z
Si Si1 0.263963 0.849481 0.307918
Si Si2 0.443140 0.789671 0.696524
Si Si3 0.059852 0.940149 0.696108
Si Si4 0.442932 0.912465 0.303976
Si Si5 0.056192 0.331670 0.309860
Si Si6 0.145461 0.854540 0.299574
Si Si7 0.331382 0.249557 0.799530
O O1 0.256537 0.838761 0.500000
O O2 0.303342 0.897431 0.285920
O O3 0.205906 0.863772 0.245546
O O4 0.293276 0.797765 0.241633
O O5 0.500000 0.769117 0.750000
O O6 0.442264 0.789248 0.500000
O O7 0.439741 0.850945 0.746654
O O8 0.390856 0.760429 0.756276
O O9 0.060550 0.939451 0.500000
O O10 0.102648 0.897353 0.756743
O O11 0.000000 0.928043 0.750000
O O12 0.500000 0.932055 0.250000
O O13 0.438024 0.915879 0.500000
O O14 0.393788 0.940341 0.222363
O O15 0.063192 0.320903 0.500000
O O16 0.000000 0.312326 0.250000
O O17 0.143323 0.856678 0.500000
O O18 0.303878 0.303878 0.752497
O O19 0.332258 0.247407 0.000000
#
# Coordination Sequence:
#
# PCOD9567029 Si02
#       7
#    16  16   8  16  16   8  16
#     4  10  18  35  57  79 105 134 169 210 257 317
#     4   9  17  29  48  75 104 138 173 211 255 302
#     4  10  20  37  58  84 106 132 166 206 260 319
#     4  10  19  34  54  76 100 131 174 221 269 317
#     4  12  25  39  53  72 100 137 177 221 267 314
#     4   9  19  34  61  88 108 136 170 206 257 319
#     4   9  15  27  52  80 103 134 177 214 249 301
#
# _framework density 18.095776000000001
#
# number of rings (size 3 to 8) (size 9 to 14) (size 15 to 20)
#    0.000    2.083    2.500    2.500    0.000    1.667 
#    0.000    5.417    0.000    1.500    0.000    0.000 
#    0.000    0.333    0.000    4.167    0.000    0.000 
#
# Total GULP energy -535581.261356 kJ/mol
# GULP energy per Si atom -5578.971472 kJ/mol
# Density = 1.805459 g / cm^3
# Si number density = 18.095776 Si / 1000 Ang^3
#
#
#
# Elastic Constant Matrix: (Units=GPa)
#
#
# Indices 1 2 3 4 5 6 
#
# 1 107.2794 56.6260 -0.1916 0.0000 0.0000 0.0000
# 2 56.6260 107.2793 -0.1918 0.0000 0.0000 0.0000
# 3 -0.1916 -0.1918 12.8091 0.0000 0.0000 0.0000
# 4 0.0000 0.0000 0.0000 10.2368 0.0000 0.0000
# 5 0.0000 0.0000 0.0000 0.0000 10.2368 0.0000
# 6 0.0000 0.0000 0.0000 0.0000 0.0000 32.7057
#
#
#
# Elastic Compliance Matrix: (Units=1/GPa)
#
#
# Indices 1 2 3 4 5 6 
#
# 1 0.012922 -0.006820 0.000091 0.000000 0.000000 0.000000
# 2 -0.006820 0.012922 0.000091 0.000000 0.000000 0.000000
# 3 0.000091 0.000091 0.078072 0.000000 0.000000 0.000000
# 4 0.000000 0.000000 0.000000 0.097687 0.000000 0.000000
# 5 0.000000 0.000000 0.000000 0.000000 0.097687 0.000000
# 6 0.000000 0.000000 0.000000 0.000000 0.000000 0.030576
#
#
# Mechanical properties :
#
#
# Convention : Reuss Voigt Hill
#
# Bulk Modulus (GPa) = 11.03267 37.76144 24.39705
# Shear Modulus (GPa) = 13.39216 22.04422 17.71819
#
# Velocity S-wave (km/s) = 2.72338 3.49405 3.13251
# Velocity P-wave (km/s) = 3.99989 6.09842 5.15703
#
# Compressibility (1/GPa) = 0.09063986
#
# Stress axis : x y z
#
# Youngs Moduli (GPa) = 77.38938 77.38932 12.80870
#
# Poissons Ratio (x) = 0.52782 -0.00117
# Poissons Ratio (y) = 0.52782 -0.00117
# Poissons Ratio (z) = -0.00706 -0.00708
#
# Static dielectric constant tensor:
#      x y z
#    x 1.624130 0.000000 0.000000 
#    y 0.000000 1.624130 0.000000 
#    z 0.000000 0.000000 1.655270 
# 
# From -- ./inp_files/1855.got.cif
#   From: 2010.05.17/outbox.cif.g08.bks.cpg/sg132_1_cif.got.tgz:1855.got - 2010.05.20 12:30:18.
