data_PCOD9567013
_publ_section_title
;
Structure prediction by ZEFSAII (Michael W. Deem and Ramdas Pophale) SiO2 
 PCOD9567013
Probable space group: P 42/M C M
;
_chemical_formula_sum "Si O2"
_cell_formula_units_Z 104
_cell_length_a 17.622883
_cell_length_b 17.622883
_cell_length_c 20.004277
_cell_angle_alpha 90.000000
_cell_angle_beta 90.000000
_cell_angle_gamma 90.000000
_cell_volume 6212.648395
_symmetry_space_group_name_H-M "P 42/M C M"
_symmetry_group_IT_number 132
_symmetry_cell_setting 'tetragonal'
loop_
_space_group_symop_operation_xyz
x,y,z
-y,x,1/2+z
-x,-y,z
y,-x,1/2+z
x,-y,1/2-z
-x,y,1/2-z
y,x,-z
-y,-x,-z
-x,-y,-z
y,-x,1/2-z
x,y,-z
-y,x,1/2-z
-x,y,1/2+z
x,-y,1/2+z
-y,-x,z
y,x,z
loop_
_atom_site_type_symbol
_atom_site_label
_atom_site_fract_x
_atom_site_fract_y
_atom_site_fract_z
Si Si1 0.618181 0.501912 0.920621
Si Si2 0.031101 0.844326 0.323680
Si Si3 0.508966 0.225544 0.144709
Si Si4 0.924200 0.550127 0.922345
Si Si5 0.934793 0.065208 0.076579
Si Si6 0.364928 0.766552 0.744038
Si Si7 0.934636 0.330053 0.302953
O O1 0.565632 0.434369 0.892934
O O2 0.580290 0.580290 0.895863
O O3 0.704199 0.490226 0.904268
O O4 0.610763 0.501346 0.000000
O O5 0.106593 0.893408 0.335620
O O6 0.046670 0.755645 0.322882
O O7 0.000000 0.865423 0.250000
O O8 0.970883 0.867251 0.380311
O O9 0.497635 0.146716 0.106372
O O10 0.585921 0.229160 0.187918
O O11 0.433440 0.240440 0.189872
O O12 0.933750 0.617984 0.869005
O O13 0.000000 0.500000 0.920856
O O14 0.910683 0.573157 0.000000
O O15 0.916022 0.083979 0.000000
O O16 0.000000 0.000000 0.075554
O O17 0.300595 0.699406 0.742266
O O18 0.331272 0.850582 0.729885
O O19 0.000000 0.355615 0.250000
#
# Coordination Sequence:
#
# PCOD9567013 Si02
#       7
#    16  16  16  16   8  16  16
#     4   9  17  29  46  70 100 133 170 210 252 311
#     4  10  18  31  53  77 106 142 177 215 261 324
#     4  10  19  32  52  73 101 137 174 215 268 322
#     4  10  21  37  56  76 100 135 180 228 276 325
#     4   9  18  30  48  76 106 138 174 212 254 306
#     4  10  20  33  50  76 106 135 171 222 267 316
#     4  10  21  35  54  79 104 138 177 223 273 324
#
# _framework density 16.740043
#
# number of rings (size 3 to 8) (size 9 to 14) (size 15 to 20)
#    0.000    2.231    0.769    3.231    0.000    2.154 
#    0.000    0.000    0.000   12.462    0.000    0.000 
#    0.000    0.000    0.000    0.000    0.000    0.000 
#
# Total GULP energy -579178.770329 kJ/mol
# GULP energy per Si atom -5569.026638 kJ/mol
# Density = 1.670194 g / cm^3
# Si number density = 16.740043 Si / 1000 Ang^3
#
#
#
# Elastic Constant Matrix: (Units=GPa)
#
#
# Indices 1 2 3 4 5 6 
#
# 1 106.9195 55.3937 54.4589 0.0000 0.0000 0.0000
# 2 55.3937 106.9195 54.4589 0.0000 0.0000 0.0000
# 3 54.4589 54.4589 111.3991 0.0000 0.0000 0.0000
# 4 0.0000 0.0000 0.0000 17.5718 0.0000 0.0000
# 5 0.0000 0.0000 0.0000 0.0000 17.5718 0.0000
# 6 0.0000 0.0000 0.0000 0.0000 0.0000 24.4381
#
#
#
# Elastic Compliance Matrix: (Units=1/GPa)
#
#
# Indices 1 2 3 4 5 6 
#
# 1 0.014288 -0.005120 -0.004482 0.000000 0.000000 0.000000
# 2 -0.005120 0.014288 -0.004482 0.000000 0.000000 0.000000
# 3 -0.004482 -0.004482 0.013359 0.000000 0.000000 0.000000
# 4 0.000000 0.000000 0.000000 0.056909 0.000000 0.000000
# 5 0.000000 0.000000 0.000000 0.000000 0.056909 0.000000
# 6 0.000000 0.000000 0.000000 0.000000 0.000000 0.040920
#
#
# Mechanical properties :
#
#
# Convention : Reuss Voigt Hill
#
# Bulk Modulus (GPa) = 72.63455 72.65124 72.64290
# Shear Modulus (GPa) = 21.79304 22.64478 22.21891
#
# Velocity S-wave (km/s) = 3.61203 3.68194 3.64715
# Velocity P-wave (km/s) = 7.80254 7.84662 7.82461
#
# Compressibility (1/GPa) = 0.01376755
#
# Stress axis : x y z
#
# Youngs Moduli (GPa) = 69.98783 69.98781 74.85528
#
# Poissons Ratio (x) = 0.35831 0.33552
# Poissons Ratio (y) = 0.35831 0.33552
# Poissons Ratio (z) = 0.31370 0.31370
#
# Static dielectric constant tensor:
#      x y z
#    x 1.555860 0.000000 0.000000 
#    y 0.000000 1.555860 0.000000 
#    z 0.000000 0.000000 1.570900 
# 
# From -- ./inp_files/6575.got.cif
#   From: 2010.05.17/outbox.cif.g08.bks.cpg/sg132_4_cif.got.tgz:6575.got - 2010.05.20 12:30:18.
