data_PCOD9567472
_publ_section_title
;
Structure prediction by ZEFSAII (Michael W. Deem and Ramdas Pophale) SiO2 
 PCOD9567472
Probable space group: P 42/M C M
;
_chemical_formula_sum "Si O2"
_cell_formula_units_Z 38
_cell_length_a 13.552090
_cell_length_b 13.552090
_cell_length_c 9.901330
_cell_angle_alpha 90.000000
_cell_angle_beta 90.000000
_cell_angle_gamma 90.000000
_cell_volume 1818.469786
_symmetry_space_group_name_H-M "P 42/M C M"
_symmetry_group_IT_number 132
_symmetry_cell_setting 'tetragonal'
loop_
_space_group_symop_operation_xyz
x,y,z
-y,x,1/2+z
-x,-y,z
y,-x,1/2+z
x,-y,1/2-z
-x,y,1/2-z
y,x,-z
-y,-x,-z
-x,-y,-z
y,-x,1/2-z
x,y,-z
-y,x,1/2-z
-x,y,1/2+z
x,-y,1/2+z
-y,-x,z
y,x,z
loop_
_atom_site_type_symbol
_atom_site_label
_atom_site_fract_x
_atom_site_fract_y
_atom_site_fract_z
Si Si1 0.608535 0.608535 0.500000
Si Si2 0.579212 0.842002 0.500000
Si Si3 0.889558 0.731667 0.275748
Si Si4 0.500000 0.500000 0.750000
Si Si5 0.650115 0.198056 0.500000
O O1 0.595077 0.724786 0.500000
O O2 0.563777 0.563777 0.640606
O O3 0.636298 0.887643 0.627402
O O4 0.461450 0.841904 0.500000
O O5 0.816700 0.816700 0.330603
O O6 0.000000 0.767776 0.250000
O O7 0.846142 0.697651 0.133411
O O8 0.684298 0.315703 0.500000
#
# Coordination Sequence:
#
# PCOD9567472 Si02
#       5
#     4   8  16   2   8
#     4  11  26  42  66 100 141 178 228 270 319 396
#     4  12  24  41  67  95 132 175 221 272 332 400
#     4  11  24  44  66  95 129 169 225 283 345 407
#     4  10  28  42  68 106 136 190 232 262 328 394
#     4  10  25  40  64  95 134 176 213 269 334 400
#
# _framework density 20.896688999999999
#
# number of rings (size 3 to 8) (size 9 to 14) (size 15 to 20)
#    0.000    1.053    2.105    2.526    8.842    5.474 
#    0.000    0.000    0.000    6.316    0.000    0.000 
#    0.000    0.000    0.000    0.000    0.000    0.000 
#
# Total GULP energy -212079.508022 kJ/mol
# GULP energy per Si atom -5581.039685 kJ/mol
# Density = 2.084913 g / cm^3
# Si number density = 20.896689 Si / 1000 Ang^3
#
#
#
# Elastic Constant Matrix: (Units=GPa)
#
#
# Indices 1 2 3 4 5 6 
#
# 1 113.1727 18.0910 15.5613 0.0000 0.0000 0.0000
# 2 18.0910 113.1715 15.5609 0.0000 0.0000 0.0000
# 3 15.5613 15.5609 130.9354 0.0000 0.0000 0.0000
# 4 0.0000 0.0000 0.0000 71.2052 0.0000 0.0000
# 5 0.0000 0.0000 0.0000 0.0000 71.2054 0.0000
# 6 0.0000 0.0000 0.0000 0.0000 0.0000 14.8163
#
#
#
# Elastic Compliance Matrix: (Units=1/GPa)
#
#
# Indices 1 2 3 4 5 6 
#
# 1 0.009178 -0.001339 -0.000932 0.000000 0.000000 0.000000
# 2 -0.001339 0.009178 -0.000932 0.000000 0.000000 0.000000
# 3 -0.000932 -0.000932 0.007859 0.000000 0.000000 0.000000
# 4 0.000000 0.000000 0.000000 0.014044 0.000000 0.000000
# 5 0.000000 0.000000 0.000000 0.000000 0.014044 0.000000
# 6 0.000000 0.000000 0.000000 0.000000 0.000000 0.067493
#
#
# Mechanical properties :
#
#
# Convention : Reuss Voigt Hill
#
# Bulk Modulus (GPa) = 50.47816 50.63401 50.55609
# Shear Modulus (GPa) = 37.09065 51.98312 44.53689
#
# Velocity S-wave (km/s) = 4.21759 4.99302 4.62160
# Velocity P-wave (km/s) = 6.92286 7.58443 7.26118
#
# Compressibility (1/GPa) = 0.01981055
#
# Stress axis : x y z
#
# Youngs Moduli (GPa) = 108.95367 108.95261 127.24585
#
# Poissons Ratio (x) = 0.14590 0.11855
# Poissons Ratio (y) = 0.14590 0.11855
# Poissons Ratio (z) = 0.10151 0.10151
#
# Static dielectric constant tensor:
#      x y z
#    x 1.623640 0.000000 0.000000 
#    y 0.000000 1.623650 0.000000 
#    z 0.000000 0.000000 1.764730 
# 
# From -- ./inp_files/488.got.cif
#   From: 2010.05.17/outbox.cif.g08.bks.cpg/sg132_1_cif.got.tgz:488.got - 2010.05.20 12:30:18.
