data_PCOD9567978
_publ_section_title
;
Structure prediction by ZEFSAII (Michael W. Deem and Ramdas Pophale) SiO2 
 PCOD9567978
Probable space group: P 42/N B C
;
_chemical_formula_sum "Si O2"
_cell_formula_units_Z 96
_cell_length_a 14.259450
_cell_length_b 14.259450
_cell_length_c 23.642343
_cell_angle_alpha 90.000000
_cell_angle_beta 90.000000
_cell_angle_gamma 90.000000
_cell_volume 4807.242861
_symmetry_space_group_name_H-M "P 42/N B C"
_symmetry_group_IT_number 133
_space_group.IT_coordinate_system_code '2'
_symmetry_cell_setting 'tetragonal'
loop_
_space_group_symop_operation_xyz
x,y,z
1/2-y,x,1/2+z
1/2-x,1/2-y,z
y,1/2-x,1/2+z
x,1/2-y,-z
1/2-x,y,-z
y,x,1/2-z
1/2-y,1/2-x,1/2-z
-x,-y,-z
1/2+y,-x,1/2-z
1/2+x,1/2+y,-z
-y,1/2+x,1/2-z
-x,1/2+y,z
1/2+x,-y,z
-y,-x,1/2+z
1/2+y,1/2+x,1/2+z
loop_
_atom_site_type_symbol
_atom_site_label
_atom_site_fract_x
_atom_site_fract_y
_atom_site_fract_z
Si Si1 0.665319 0.118952 0.244498
Si Si2 0.251921 0.009293 0.561215
Si Si3 0.539522 0.196824 0.623728
Si Si4 0.888487 0.097244 0.634332
Si Si5 0.044914 0.993873 0.562352
Si Si6 0.151152 0.293129 0.562128
O O1 0.629259 0.225575 0.236812
O O2 0.660292 0.059002 0.187327
O O3 0.610812 0.080718 0.298732
O O4 0.250000 0.960399 0.500000
O O5 0.145736 0.042583 0.569738
O O6 0.322570 0.097155 0.556201
O O7 0.292195 0.941676 0.608474
O O8 0.598468 0.292759 0.620904
O O9 0.432506 0.220220 0.606272
O O10 0.563355 0.113874 0.580047
O O11 0.971574 0.041278 0.604314
O O12 0.000000 0.000000 0.500000
O O13 0.250000 0.250000 0.580789
O O14 0.127809 0.250000 0.500000
#
# Coordination Sequence:
#
# PCOD9567978 Si02
#       6
#    16  16  16  16  16  16
#     4   9  20  43  68  95 133 176 225 276 342 401
#     4  12  22  41  61  98 139 173 210 280 338 400
#     4  11  24  42  68  99 129 179 226 279 334 406
#     4  11  24  41  69  99 131 174 225 281 332 400
#     4  12  25  41  64  99 140 173 223 272 339 405
#     4  11  22  38  67  95 134 184 222 264 339 411
#
# _framework density 19.969866
#
# number of rings (size 3 to 8) (size 9 to 14) (size 15 to 20)
#    0.000    1.000    5.000    2.000    2.333    2.667 
#    0.000    0.833    0.000    4.000    0.000    0.000 
#    0.000    0.000    0.000    0.000    0.000    0.000 
#
# Total GULP energy -536130.400633 kJ/mol
# GULP energy per Si atom -5584.691673 kJ/mol
# Density = 1.992441 g / cm^3
# Si number density = 19.969866 Si / 1000 Ang^3
#
#
#
# Elastic Constant Matrix: (Units=GPa)
#
#
# Indices 1 2 3 4 5 6 
#
# 1 92.6550 19.4311 67.9954 0.0000 0.0000 0.0000
# 2 19.4311 92.6550 67.9954 0.0000 0.0000 0.0000
# 3 67.9954 67.9954 139.7081 0.0000 0.0000 0.0000
# 4 0.0000 0.0000 0.0000 35.7219 0.0000 0.0000
# 5 0.0000 0.0000 0.0000 0.0000 35.7219 0.0000
# 6 0.0000 0.0000 0.0000 0.0000 0.0000 34.3963
#
#
#
# Elastic Compliance Matrix: (Units=1/GPa)
#
#
# Indices 1 2 3 4 5 6 
#
# 1 0.017722 0.004065 -0.010603 0.000000 0.000000 0.000000
# 2 0.004065 0.017722 -0.010603 0.000000 0.000000 0.000000
# 3 -0.010603 -0.010603 0.017479 0.000000 0.000000 0.000000
# 4 0.000000 0.000000 0.000000 0.027994 0.000000 0.000000
# 5 0.000000 0.000000 0.000000 0.000000 0.027994 0.000000
# 6 0.000000 0.000000 0.000000 0.000000 0.000000 0.029073
#
#
# Mechanical properties :
#
#
# Convention : Reuss Voigt Hill
#
# Bulk Modulus (GPa) = 53.65257 70.65131 62.15194
# Shear Modulus (GPa) = 28.01437 32.47443 30.24440
#
# Velocity S-wave (km/s) = 3.74950 4.03696 3.89588
# Velocity P-wave (km/s) = 6.75797 7.56208 7.17131
#
# Compressibility (1/GPa) = 0.01863844
#
# Stress axis : x y z
#
# Youngs Moduli (GPa) = 56.42828 56.42828 57.21143
#
# Poissons Ratio (x) = -0.22937 0.60663
# Poissons Ratio (y) = -0.22937 0.60663
# Poissons Ratio (z) = 0.59833 0.59833
#
# Static dielectric constant tensor:
#      x y z
#    x 1.749340 0.000000 0.000000 
#    y 0.000000 1.749340 0.000000 
#    z 0.000000 0.000000 1.682710 
# 
# From -- ./inp_files/6548.got.cif
#   From: 2010.05.17/outbox.cif.g08.bks.cpg/sg133_4_cif.got.tgz:6548.got - 2010.05.20 12:37:36.
