data_PCOD9567900
_publ_section_title
;
Structure prediction by ZEFSAII (Michael W. Deem and Ramdas Pophale) SiO2 
 PCOD9567900
Probable space group: P 42/N B C
;
_chemical_formula_sum "Si O2"
_cell_formula_units_Z 72
_cell_length_a 14.332983
_cell_length_b 14.332983
_cell_length_c 16.533540
_cell_angle_alpha 90.000000
_cell_angle_beta 90.000000
_cell_angle_gamma 90.000000
_cell_volume 3396.557898
_symmetry_space_group_name_H-M "P 42/N B C"
_symmetry_group_IT_number 133
_space_group.IT_coordinate_system_code '2'
_symmetry_cell_setting 'tetragonal'
loop_
_space_group_symop_operation_xyz
x,y,z
1/2-y,x,1/2+z
1/2-x,1/2-y,z
y,1/2-x,1/2+z
x,1/2-y,-z
1/2-x,y,-z
y,x,1/2-z
1/2-y,1/2-x,1/2-z
-x,-y,-z
1/2+y,-x,1/2-z
1/2+x,1/2+y,-z
-y,1/2+x,1/2-z
-x,1/2+y,z
1/2+x,-y,z
-y,-x,1/2+z
1/2+y,1/2+x,1/2+z
loop_
_atom_site_type_symbol
_atom_site_label
_atom_site_fract_x
_atom_site_fract_y
_atom_site_fract_z
Si Si1 0.697822 0.902239 0.313737
Si Si2 0.750000 0.390550 0.500000
Si Si3 0.155740 0.419017 0.967809
Si Si4 0.975332 0.524669 0.250000
Si Si5 0.522158 0.876806 0.887462
Si Si6 0.750000 0.098633 0.000000
O O1 0.679019 0.820981 0.250000
O O2 0.642197 0.881561 0.395835
O O3 0.803723 0.920248 0.333355
O O4 0.634062 0.984555 0.275134
O O5 0.692495 0.450250 0.434369
O O6 0.669587 0.324396 0.538830
O O7 0.083086 0.422557 0.041013
O O8 0.191298 0.523924 0.946606
O O9 0.250000 0.371622 0.000000
O O10 0.991330 0.457297 0.174024
#
# Coordination Sequence:
#
# PCOD9567900 Si02
#       6
#    16   8  16   8  16   8
#     4  10  24  45  63  99 144 179 232 297 362 429
#     4  11  22  44  69 104 132 186 243 290 342 433
#     4  10  23  44  73 100 133 186 237 294 352 430
#     4  10  28  42  65 103 150 186 226 302 380 422
#     4  12  24  44  73 101 138 189 242 288 362 436
#     4   9  24  38  69 104 136 172 241 298 347 408
#
# _framework density 21.197932000000002
#
# number of rings (size 3 to 8) (size 9 to 14) (size 15 to 20)
#    1.333    0.222    2.222    1.333    6.222    3.556 
#    0.000    0.000    0.000    0.000    0.000    0.000 
#    0.000    0.000    0.000    0.000    0.000    0.000 
#
# Total GULP energy -400940.973451 kJ/mol
# GULP energy per Si atom -5568.624631 kJ/mol
# Density = 2.114968 g / cm^3
# Si number density = 21.197932 Si / 1000 Ang^3
#
#
#
# Elastic Constant Matrix: (Units=GPa)
#
#
# Indices 1 2 3 4 5 6 
#
# 1 90.0389 25.3761 24.0025 0.0000 0.0000 0.0000
# 2 25.3761 90.0409 24.0054 0.0000 0.0000 0.0000
# 3 24.0025 24.0054 94.9220 0.0000 0.0000 0.0000
# 4 0.0000 0.0000 0.0000 8.7211 0.0000 0.0000
# 5 0.0000 0.0000 0.0000 0.0000 8.7188 0.0000
# 6 0.0000 0.0000 0.0000 0.0000 0.0000 8.9592
#
#
#
# Elastic Compliance Matrix: (Units=1/GPa)
#
#
# Indices 1 2 3 4 5 6 
#
# 1 0.012574 -0.002891 -0.002448 0.000000 0.000000 0.000000
# 2 -0.002891 0.012574 -0.002449 0.000000 0.000000 0.000000
# 3 -0.002448 -0.002449 0.011773 0.000000 0.000000 0.000000
# 4 0.000000 0.000000 0.000000 0.114665 0.000000 0.000000
# 5 0.000000 0.000000 0.000000 0.000000 0.114695 0.000000
# 6 0.000000 0.000000 0.000000 0.000000 0.000000 0.111617
#
#
# Mechanical properties :
#
#
# Convention : Reuss Voigt Hill
#
# Bulk Modulus (GPa) = 46.85023 46.86331 46.85677
# Shear Modulus (GPa) = 12.48164 18.72100 15.60132
#
# Velocity S-wave (km/s) = 2.42918 2.97501 2.71584
# Velocity P-wave (km/s) = 5.47880 5.82721 5.65569
#
# Compressibility (1/GPa) = 0.02134461
#
# Stress axis : x y z
#
# Youngs Moduli (GPa) = 79.53079 79.53129 84.93745
#
# Poissons Ratio (x) = 0.22992 0.20796
# Poissons Ratio (y) = 0.22992 0.20800
# Poissons Ratio (z) = 0.19472 0.19476
#
# Static dielectric constant tensor:
#      x y z
#    x 1.806090 0.000000 0.000000 
#    y 0.000000 1.806080 0.000000 
#    z 0.000000 0.000000 1.829670 
# 
# From -- ./inp_files/5388.got.cif
#   From: 2010.05.17/outbox.cif.g08.bks.cpg/sg133_3_cif.got.tgz:5388.got - 2010.05.20 12:37:36.
