data_PCOD9567099
_publ_section_title
;
Structure prediction by ZEFSAII (Michael W. Deem and Ramdas Pophale) SiO2 
 PCOD9567099
Probable space group: P 42/M C M
;
_chemical_formula_sum "Si O2"
_cell_formula_units_Z 112
_cell_length_a 14.781388
_cell_length_b 14.781388
_cell_length_c 30.785188
_cell_angle_alpha 90.000000
_cell_angle_beta 90.000000
_cell_angle_gamma 90.000000
_cell_volume 6726.238216
_symmetry_space_group_name_H-M "P 42/M C M"
_symmetry_group_IT_number 132
_symmetry_cell_setting 'tetragonal'
loop_
_space_group_symop_operation_xyz
x,y,z
-y,x,1/2+z
-x,-y,z
y,-x,1/2+z
x,-y,1/2-z
-x,y,1/2-z
y,x,-z
-y,-x,-z
-x,-y,-z
y,-x,1/2-z
x,y,-z
-y,x,1/2-z
-x,y,1/2+z
x,-y,1/2+z
-y,-x,z
y,x,z
loop_
_atom_site_type_symbol
_atom_site_label
_atom_site_fract_x
_atom_site_fract_y
_atom_site_fract_z
Si Si1 0.862474 0.721055 0.950276
Si Si2 0.899041 0.390962 0.254860
Si Si3 0.753377 0.604944 0.822017
Si Si4 0.770570 0.377107 0.916448
Si Si5 0.721258 0.421750 0.576076
Si Si6 0.397285 0.748337 0.186877
Si Si7 0.025973 0.397469 0.447405
O O1 0.805689 0.805689 0.930462
O O2 0.791559 0.637839 0.951003
O O3 0.953158 0.676771 0.930946
O O4 0.883610 0.746408 0.000000
O O5 0.905501 0.500000 0.250000
O O6 0.849029 0.370531 0.300242
O O7 0.830438 0.363705 0.216707
O O8 0.000000 0.354075 0.250000
O O9 0.677701 0.677701 0.809521
O O10 0.752116 0.597038 0.874079
O O11 0.732317 0.503718 0.805633
O O12 0.707013 0.292988 0.929002
O O13 0.728321 0.472346 0.932541
O O14 0.770837 0.383650 0.863928
O O15 0.872895 0.373727 0.933119
O O16 0.622637 0.377364 0.570734
O O17 0.340384 0.659617 0.196893
O O18 0.021272 0.398047 0.500000
O O19 0.000000 0.500000 0.432884
#
# Coordination Sequence:
#
# PCOD9567099 Si02
#       7
#    16  16  16  16  16  16  16
#     4   9  17  30  49  70  94 122 154 197 244 284
#     4   9  17  29  42  61  87 117 151 191 233 269
#     4   9  17  28  44  65  90 121 156 192 223 267
#     4  10  20  32  46  69  98 129 161 195 240 289
#     4   9  17  29  45  68  95 126 161 195 233 282
#     4   9  18  31  45  64  93 124 152 185 228 282
#     4  10  19  32  50  72  95 124 164 204 239 284
#
# _framework density 16.651208
#
# number of rings (size 3 to 8) (size 9 to 14) (size 15 to 20)
#    0.000    2.714    1.429    0.429    0.000    2.000 
#    2.571    2.857    0.000    3.000    0.000    5.000 
#    0.000    6.857    0.000    0.000    0.000    0.000 
#
# Total GULP energy -623573.368679 kJ/mol
# GULP energy per Si atom -5567.619363 kJ/mol
# Density = 1.661331 g / cm^3
# Si number density = 16.651208 Si / 1000 Ang^3
#
#
#
# Elastic Constant Matrix: (Units=GPa)
#
#
# Indices 1 2 3 4 5 6 
#
# 1 112.4306 69.4244 14.1763 0.0000 0.0000 0.0000
# 2 69.4244 112.4306 14.1763 0.0000 0.0000 0.0000
# 3 14.1763 14.1763 12.7346 0.0000 0.0000 0.0000
# 4 0.0000 0.0000 0.0000 14.7942 0.0000 0.0000
# 5 0.0000 0.0000 0.0000 0.0000 14.7942 0.0000
# 6 0.0000 0.0000 0.0000 0.0000 0.0000 17.2667
#
#
#
# Elastic Compliance Matrix: (Units=1/GPa)
#
#
# Indices 1 2 3 4 5 6 
#
# 1 0.014953 -0.008299 -0.007407 0.000000 0.000000 0.000000
# 2 -0.008299 0.014953 -0.007407 0.000000 0.000000 0.000000
# 3 -0.007407 -0.007407 0.095017 0.000000 0.000000 0.000000
# 4 0.000000 0.000000 0.000000 0.067594 0.000000 0.000000
# 5 0.000000 0.000000 0.000000 0.000000 0.067594 0.000000
# 6 0.000000 0.000000 0.000000 0.000000 0.000000 0.057915
#
#
# Mechanical properties :
#
#
# Convention : Reuss Voigt Hill
#
# Bulk Modulus (GPa) = 12.70702 48.12778 30.41740
# Shear Modulus (GPa) = 12.80458 18.69226 15.74842
#
# Velocity S-wave (km/s) = 2.77607 3.35412 3.07869
# Velocity P-wave (km/s) = 4.23359 6.63072 5.56281
#
# Compressibility (1/GPa) = 0.07869663
#
# Stress axis : x y z
#
# Youngs Moduli (GPa) = 66.87584 66.87584 10.52442
#
# Poissons Ratio (x) = 0.55503 0.07795
# Poissons Ratio (y) = 0.55503 0.07795
# Poissons Ratio (z) = 0.49535 0.49535
#
# Static dielectric constant tensor:
#      x y z
#    x 1.558650 0.000000 0.000000 
#    y 0.000000 1.558650 0.000000 
#    z 0.000000 0.000000 1.607610 
# 
# From -- ./inp_files/11037.got.cif
#   From: 2010.05.17/outbox.cif.g08.bks.cpg/sg132_6_cif.got.tgz:11037.got - 2010.05.20 12:30:18.
