data_PCOD9567752
_publ_section_title
;
Structure prediction by ZEFSAII (Michael W. Deem and Ramdas Pophale) SiO2 
 PCOD9567752
Probable space group: P 42/N B C
;
_chemical_formula_sum "Si O2"
_cell_formula_units_Z 108
_cell_length_a 14.554318
_cell_length_b 14.554318
_cell_length_c 24.504886
_cell_angle_alpha 90.000000
_cell_angle_beta 90.000000
_cell_angle_gamma 90.000000
_cell_volume 5190.825217
_symmetry_space_group_name_H-M "P 42/N B C"
_symmetry_group_IT_number 133
_space_group.IT_coordinate_system_code '2'
_symmetry_cell_setting 'tetragonal'
loop_
_space_group_symop_operation_xyz
x,y,z
1/2-y,x,1/2+z
1/2-x,1/2-y,z
y,1/2-x,1/2+z
x,1/2-y,-z
1/2-x,y,-z
y,x,1/2-z
1/2-y,1/2-x,1/2-z
-x,-y,-z
1/2+y,-x,1/2-z
1/2+x,1/2+y,-z
-y,1/2+x,1/2-z
-x,1/2+y,z
1/2+x,-y,z
-y,-x,1/2+z
1/2+y,1/2+x,1/2+z
loop_
_atom_site_type_symbol
_atom_site_label
_atom_site_fract_x
_atom_site_fract_y
_atom_site_fract_z
Si Si1 0.250000 0.750000 0.750000
Si Si2 0.321415 0.557901 0.258379
Si Si3 0.303990 0.058995 0.641230
Si Si4 0.071837 0.528857 0.560757
Si Si5 0.700984 0.525059 0.859354
Si Si6 0.038396 0.461605 0.250000
Si Si7 0.494157 0.846327 0.475113
Si Si8 0.098489 0.095486 0.631042
O O1 0.277919 0.846156 0.722158
O O2 0.288552 0.477830 0.297989
O O3 0.298139 0.533510 0.195865
O O4 0.431353 0.557927 0.260915
O O5 0.386379 0.133589 0.644997
O O6 0.206135 0.088437 0.617010
O O7 0.348060 0.978189 0.604727
O O8 0.078512 0.610130 0.517002
O O9 0.067098 0.430177 0.530124
O O10 0.975017 0.541440 0.593411
O O11 0.671873 0.467093 0.912555
O O12 0.800308 0.565418 0.871248
O O13 0.065080 0.412862 0.193912
O O14 0.528019 0.750000 0.500000
#
# Coordination Sequence:
#
# PCOD9567752 Si02
#       8
#     4  16  16  16  16   8  16  16
#     4  12  28  36  64 104 130 188 240 272 336 430
#     4  12  23  43  62  94 141 179 227 281 348 418
#     4  11  23  41  66  97 134 176 221 279 352 417
#     4  10  22  41  66  92 133 176 217 279 347 400
#     4  11  22  40  67  96 132 173 221 285 349 413
#     4  12  22  42  63  93 136 188 214 278 350 410
#     4  10  20  40  67  92 124 180 221 270 342 407
#     4  12  22  38  66  97 131 169 228 281 341 410
#
# _framework density 20.80594
#
# number of rings (size 3 to 8) (size 9 to 14) (size 15 to 20)
#    0.000    0.889    4.444    4.000    0.000    0.000 
#    0.000    8.889    0.000    2.667    0.000    0.000 
#    0.000    0.000    0.000    0.000    0.000    0.000 
#
# Total GULP energy -602586.887314 kJ/mol
# GULP energy per Si atom -5579.508216 kJ/mol
# Density = 2.075858 g / cm^3
# Si number density = 20.805940 Si / 1000 Ang^3
#
#
#
# Elastic Constant Matrix: (Units=GPa)
#
#
# Indices 1 2 3 4 5 6 
#
# 1 101.1136 21.4238 32.3500 0.0000 0.0000 0.0000
# 2 21.4238 101.1141 32.3501 0.0000 0.0000 0.0000
# 3 32.3500 32.3501 130.8640 0.0000 0.0000 0.0000
# 4 0.0000 0.0000 0.0000 9.5053 0.0000 0.0000
# 5 0.0000 0.0000 0.0000 0.0000 9.5052 0.0000
# 6 0.0000 0.0000 0.0000 0.0000 0.0000 30.0042
#
#
#
# Elastic Compliance Matrix: (Units=1/GPa)
#
#
# Indices 1 2 3 4 5 6 
#
# 1 0.010967 -0.001581 -0.002320 0.000000 0.000000 0.000000
# 2 -0.001581 0.010967 -0.002320 0.000000 0.000000 0.000000
# 3 -0.002320 -0.002320 0.008789 0.000000 0.000000 0.000000
# 4 0.000000 0.000000 0.000000 0.105205 0.000000 0.000000
# 5 0.000000 0.000000 0.000000 0.000000 0.105206 0.000000
# 6 0.000000 0.000000 0.000000 0.000000 0.000000 0.033329
#
#
# Mechanical properties :
#
#
# Convention : Reuss Voigt Hill
#
# Bulk Modulus (GPa) = 54.70618 56.14883 55.42750
# Shear Modulus (GPa) = 17.06490 26.26744 21.66617
#
# Velocity S-wave (km/s) = 2.86701 3.55702 3.23049
# Velocity P-wave (km/s) = 6.10821 6.62687 6.37282
#
# Compressibility (1/GPa) = 0.01827947
#
# Stress axis : x y z
#
# Youngs Moduli (GPa) = 91.18048 91.18095 113.78308
#
# Poissons Ratio (x) = 0.14419 0.26400
# Poissons Ratio (y) = 0.14419 0.26400
# Poissons Ratio (z) = 0.21156 0.21156
#
# Static dielectric constant tensor:
#      x y z
#    x 1.754140 0.000000 0.000000 
#    y 0.000000 1.754140 0.000000 
#    z 0.000000 0.000000 1.873250 
# 
# From -- ./inp_files/7279.got.cif
#   From: 2010.05.17/outbox.cif.g08.bks.cpg/sg133_4_cif.got.tgz:7279.got - 2010.05.20 12:37:36.
