data_PCOD9567441
_publ_section_title
;
Structure prediction by ZEFSAII (Michael W. Deem and Ramdas Pophale) SiO2 
 PCOD9567441
Probable space group: P 42/M C M
;
_chemical_formula_sum "Si O2"
_cell_formula_units_Z 60
_cell_length_a 11.038302
_cell_length_b 11.038302
_cell_length_c 22.539544
_cell_angle_alpha 90.000000
_cell_angle_beta 90.000000
_cell_angle_gamma 90.000000
_cell_volume 2746.310702
_symmetry_space_group_name_H-M "P 42/M C M"
_symmetry_group_IT_number 132
_symmetry_cell_setting 'tetragonal'
loop_
_space_group_symop_operation_xyz
x,y,z
-y,x,1/2+z
-x,-y,z
y,-x,1/2+z
x,-y,1/2-z
-x,y,1/2-z
y,x,-z
-y,-x,-z
-x,-y,-z
y,-x,1/2-z
x,y,-z
-y,x,1/2-z
-x,y,1/2+z
x,-y,1/2+z
-y,-x,z
y,x,z
loop_
_atom_site_type_symbol
_atom_site_label
_atom_site_fract_x
_atom_site_fract_y
_atom_site_fract_z
Si Si1 0.855642 0.525238 0.500000
Si Si2 0.152880 0.152880 0.565363
Si Si3 0.282040 0.717961 0.500000
Si Si4 0.874676 0.874676 0.916299
Si Si5 0.493560 0.854592 0.137315
Si Si6 0.758787 0.758787 0.823720
Si Si7 0.262584 0.262584 0.314645
O O1 0.756191 0.418904 0.500000
O O2 0.841230 0.562084 0.569747
O O3 0.000000 0.500000 0.500000
O O4 0.199708 0.199708 0.500000
O O5 0.197152 0.197152 0.629299
O O6 0.007431 0.165092 0.564722
O O7 0.217205 0.782796 0.445751
O O8 0.856249 0.856249 0.847378
O O9 0.626498 0.800071 0.151453
O O10 0.401016 0.778205 0.176778
O O11 0.500000 0.000000 0.148798
O O12 0.765571 0.765571 0.753173
#
# Coordination Sequence:
#
# PCOD9567441 Si02
#       7
#     8   8   4   8  16   8   8
#     4  10  22  37  69 106 128 175 229 286 353 404
#     4  11  24  38  61 100 138 168 226 291 352 414
#     4  12  18  39  66 101 136 174 230 276 358 414
#     4  11  21  38  69  94 128 182 222 282 352 420
#     4  11  25  45  72 103 138 181 235 292 345 414
#     4  12  25  47  68  93 138 189 236 273 344 417
#     4  12  29  42  66 100 138 188 224 290 342 406
#
# _framework density 21.847491000000002
#
# number of rings (size 3 to 8) (size 9 to 14) (size 15 to 20)
#    0.000    0.800    4.000    2.800    5.600    5.867 
#    0.000    2.667    0.000    2.400    0.000    0.000 
#    0.000    0.000    0.000    0.000    0.000    0.000 
#
# Total GULP energy -334075.102583 kJ/mol
# GULP energy per Si atom -5567.918376 kJ/mol
# Density = 2.179777 g / cm^3
# Si number density = 21.847491 Si / 1000 Ang^3
#
#
#
# Elastic Constant Matrix: (Units=GPa)
#
#
# Indices 1 2 3 4 5 6 
#
# 1 45.9435 73.8978 38.3718 0.0000 0.0000 0.0000
# 2 73.8978 45.9436 38.3716 0.0000 0.0000 0.0000
# 3 38.3718 38.3716 182.8997 0.0000 0.0000 0.0000
# 4 0.0000 0.0000 0.0000 19.4850 0.0000 0.0000
# 5 0.0000 0.0000 0.0000 0.0000 19.4844 0.0000
# 6 0.0000 0.0000 0.0000 0.0000 0.0000 33.2620
#
#
#
# Elastic Compliance Matrix: (Units=1/GPa)
#
#
# Indices 1 2 3 4 5 6 
#
# 1 -0.013067 0.022706 -0.002022 0.000000 0.000000 0.000000
# 2 0.022706 -0.013067 -0.002022 0.000000 0.000000 0.000000
# 3 -0.002022 -0.002022 0.006316 0.000000 0.000000 0.000000
# 4 0.000000 0.000000 0.000000 0.051322 0.000000 0.000000
# 5 0.000000 0.000000 0.000000 0.000000 0.051323 0.000000
# 6 0.000000 0.000000 0.000000 0.000000 0.000000 0.030064
#
#
# Mechanical properties :
#
#
# Convention : Reuss Voigt Hill
#
# Bulk Modulus (GPa) = 57.12461 64.00770 60.56615
# Shear Modulus (GPa) = 61.42202 22.72264 42.07233
#
# Velocity S-wave (km/s) = 5.30802 3.22849 4.39307
# Velocity P-wave (km/s) = 7.98564 6.57713 7.31536
#
# Compressibility (1/GPa) = 0.01750559
#
# Stress axis : x y z
#
# Youngs Moduli (GPa) = -76.53038 -76.53072 158.32740
#
# Poissons Ratio (x) = 1.73771 0.32018
# Poissons Ratio (y) = 1.73771 0.32019
# Poissons Ratio (z) = -0.15477 -0.15477
#
# Static dielectric constant tensor:
#      x y z
#    x 1.917280 0.000000 0.000000 
#    y 0.000000 1.917290 0.000000 
#    z 0.000000 0.000000 1.920340 
# 
# From -- ./inp_files/7510.got.cif
#   From: 2010.05.17/outbox.cif.g08.bks.cpg/sg132_4_cif.got.tgz:7510.got - 2010.05.20 12:30:18.
