data_PCOD9567389
_publ_section_title
;
Structure prediction by ZEFSAII (Michael W. Deem and Ramdas Pophale) SiO2 
 PCOD9567389
Probable space group: P 42/M C M
;
_chemical_formula_sum "Si O2"
_cell_formula_units_Z 88
_cell_length_a 18.931316
_cell_length_b 18.931316
_cell_length_c 14.011035
_cell_angle_alpha 90.000000
_cell_angle_beta 90.000000
_cell_angle_gamma 90.000000
_cell_volume 5021.481043
_symmetry_space_group_name_H-M "P 42/M C M"
_symmetry_group_IT_number 132
_symmetry_cell_setting 'tetragonal'
loop_
_space_group_symop_operation_xyz
x,y,z
-y,x,1/2+z
-x,-y,z
y,-x,1/2+z
x,-y,1/2-z
-x,y,1/2-z
y,x,-z
-y,-x,-z
-x,-y,-z
y,-x,1/2-z
x,y,-z
-y,x,1/2-z
-x,y,1/2+z
x,-y,1/2+z
-y,-x,z
y,x,z
loop_
_atom_site_type_symbol
_atom_site_label
_atom_site_fract_x
_atom_site_fract_y
_atom_site_fract_z
Si Si1 0.916462 0.343976 0.264082
Si Si2 0.555024 0.832560 0.108763
Si Si3 0.582169 0.697856 0.233871
Si Si4 0.189244 0.387528 0.610103
Si Si5 0.883463 0.000000 0.750000
Si Si6 0.088086 0.792662 0.390042
O O1 0.891370 0.412172 0.323260
O O2 0.871267 0.345008 0.166580
O O3 0.897158 0.276558 0.328354
O O4 0.000000 0.344080 0.250000
O O5 0.580414 0.757480 0.151417
O O6 0.470253 0.833126 0.111737
O O7 0.578257 0.841491 0.000000
O O8 0.500000 0.677981 0.250000
O O9 0.631903 0.631903 0.212242
O O10 0.612134 0.739431 0.326815
O O11 0.198541 0.366300 0.500000
O O12 0.835041 0.025200 0.662607
O O13 0.934804 0.065197 0.775728
O O14 0.071389 0.776038 0.500000
O O15 0.155252 0.844749 0.388573
#
# Coordination Sequence:
#
# PCOD9567389 Si02
#       6
#    16  16  16  16   8  16
#     4  11  21  34  52  81 108 137 170 221 273 316
#     4   9  19  36  55  75 101 139 183 219 262 316
#     4   9  18  33  54  80 109 139 176 221 267 318
#     4   9  20  37  54  73 103 143 183 220 259 316
#     4   9  18  36  60  82 103 132 172 212 251 306
#     4  10  21  37  55  78 109 141 172 210 259 312
#
# _framework density 17.524709000000001
#
# number of rings (size 3 to 8) (size 9 to 14) (size 15 to 20)
#    0.000    2.455    0.909    2.182    0.000    7.091 
#    0.000    3.636    0.000    0.000    0.000    5.091 
#    0.000    0.000    0.000    0.000    0.000    0.000 
#
# Total GULP energy -490693.558045 kJ/mol
# GULP energy per Si atom -5576.063160 kJ/mol
# Density = 1.748482 g / cm^3
# Si number density = 17.524709 Si / 1000 Ang^3
#
#
#
# Elastic Constant Matrix: (Units=GPa)
#
#
# Indices 1 2 3 4 5 6 
#
# 1 47.4826 31.9164 26.8211 0.0000 0.0000 0.0000
# 2 31.9164 47.4826 26.8211 0.0000 0.0000 0.0000
# 3 26.8211 26.8211 118.5966 0.0000 0.0000 0.0000
# 4 0.0000 0.0000 0.0000 19.6059 0.0000 0.0000
# 5 0.0000 0.0000 0.0000 0.0000 19.6059 0.0000
# 6 0.0000 0.0000 0.0000 0.0000 0.0000 4.1748
#
#
#
# Elastic Compliance Matrix: (Units=1/GPa)
#
#
# Indices 1 2 3 4 5 6 
#
# 1 0.039554 -0.024688 -0.003362 0.000000 0.000000 0.000000
# 2 -0.024688 0.039554 -0.003362 0.000000 0.000000 0.000000
# 3 -0.003362 -0.003362 0.009953 0.000000 0.000000 0.000000
# 4 0.000000 0.000000 0.000000 0.051005 0.000000 0.000000
# 5 0.000000 0.000000 0.000000 0.000000 0.051005 0.000000
# 6 0.000000 0.000000 0.000000 0.000000 0.000000 0.239533
#
#
# Mechanical properties :
#
#
# Convention : Reuss Voigt Hill
#
# Bulk Modulus (GPa) = 38.11471 42.74209 40.42840
# Shear Modulus (GPa) = 9.95672 17.21085 13.58379
#
# Velocity S-wave (km/s) = 2.38618 3.13723 2.78712
# Velocity P-wave (km/s) = 5.42109 6.12907 5.78592
#
# Compressibility (1/GPa) = 0.02623659
#
# Stress axis : x y z
#
# Youngs Moduli (GPa) = 25.28191 25.28191 100.47622
#
# Poissons Ratio (x) = 0.62416 0.33780
# Poissons Ratio (y) = 0.62416 0.33780
# Poissons Ratio (z) = 0.08500 0.08500
#
# Static dielectric constant tensor:
#      x y z
#    x 1.586690 0.000000 0.000000 
#    y 0.000000 1.586690 0.000000 
#    z 0.000000 0.000000 1.604360 
# 
# From -- ./inp_files/4759.got.cif
#   From: 2010.05.17/outbox.cif.g08.bks.cpg/sg132_3_cif.got.tgz:4759.got - 2010.05.20 12:30:18.
