data_PCOD9567854
_publ_section_title
;
Structure prediction by ZEFSAII (Michael W. Deem and Ramdas Pophale) SiO2 
 PCOD9567854
Probable space group: P 42/N B C
;
_chemical_formula_sum "Si O2"
_cell_formula_units_Z 52
_cell_length_a 16.946848
_cell_length_b 16.946848
_cell_length_c 8.794441
_cell_angle_alpha 90.000000
_cell_angle_beta 90.000000
_cell_angle_gamma 90.000000
_cell_volume 2525.725262
_symmetry_space_group_name_H-M "P 42/N B C"
_symmetry_group_IT_number 133
_space_group.IT_coordinate_system_code '2'
_symmetry_cell_setting 'tetragonal'
loop_
_space_group_symop_operation_xyz
x,y,z
1/2-y,x,1/2+z
1/2-x,1/2-y,z
y,1/2-x,1/2+z
x,1/2-y,-z
1/2-x,y,-z
y,x,1/2-z
1/2-y,1/2-x,1/2-z
-x,-y,-z
1/2+y,-x,1/2-z
1/2+x,1/2+y,-z
-y,1/2+x,1/2-z
-x,1/2+y,z
1/2+x,-y,z
-y,-x,1/2+z
1/2+y,1/2+x,1/2+z
loop_
_atom_site_type_symbol
_atom_site_label
_atom_site_fract_x
_atom_site_fract_y
_atom_site_fract_z
Si Si1 0.986933 0.099714 0.352546
Si Si2 0.250000 0.250000 0.500000
Si Si3 0.872712 0.878930 0.421471
Si Si4 0.953215 0.333479 0.957916
O O1 0.954484 0.156924 0.222954
O O2 0.913132 0.076260 0.458223
O O3 0.054113 0.134965 0.463712
O O4 0.030499 0.030499 0.250000
O O5 0.189344 0.191962 0.583545
O O6 0.897865 0.897865 0.250000
O O7 0.832034 0.956177 0.488446
O O8 0.914686 0.250000 0.000000
#
# Coordination Sequence:
#
# PCOD9567854 Si02
#       4
#    16   4  16  16
#     4  10  22  42  64  93 128 177 222 265 330 399
#     4  12  26  36  60 106 152 168 200 256 334 400
#     4  11  23  39  62  94 140 179 210 257 326 406
#     4  11  22  41  67  94 123 167 232 273 324 388
#
# _framework density 20.588145999999998
#
# number of rings (size 3 to 8) (size 9 to 14) (size 15 to 20)
#    0.000    1.231    1.538    6.923    4.308    2.462 
#    0.000    0.000    0.000    2.769    0.000    0.000 
#    0.000    0.000    0.000    0.000    0.000    0.000 
#
# Total GULP energy -289956.087745 kJ/mol
# GULP energy per Si atom -5576.078610 kJ/mol
# Density = 2.054129 g / cm^3
# Si number density = 20.588146 Si / 1000 Ang^3
#
#
#
# Elastic Constant Matrix: (Units=GPa)
#
#
# Indices 1 2 3 4 5 6 
#
# 1 -97.9907 232.5139 54.1233 0.0000 0.0000 0.0000
# 2 232.5139 -97.9907 54.1233 0.0000 0.0000 0.0000
# 3 54.1233 54.1233 184.6640 0.0000 0.0000 0.0000
# 4 0.0000 0.0000 0.0000 -25.5884 0.0000 0.0000
# 5 0.0000 0.0000 0.0000 0.0000 -25.5884 0.0000
# 6 0.0000 0.0000 0.0000 0.0000 0.0000 36.1438
#
#
#
# Elastic Compliance Matrix: (Units=1/GPa)
#
#
# Indices 1 2 3 4 5 6 
#
# 1 0.003351 0.006377 -0.002851 0.000000 0.000000 0.000000
# 2 0.006377 0.003351 -0.002851 0.000000 0.000000 0.000000
# 3 -0.002851 -0.002851 0.007087 0.000000 0.000000 0.000000
# 4 0.000000 0.000000 0.000000 -0.039080 0.000000 0.000000
# 5 0.000000 0.000000 0.000000 0.000000 -0.039080 0.000000
# 6 0.000000 0.000000 0.000000 0.000000 0.000000 0.027667
#
#
# Mechanical properties :
#
#
# Convention : Reuss Voigt Hill
#
# Bulk Modulus (GPa) = 66.06021 74.46707 70.26364
# Shear Modulus (GPa) = -151.48029 -26.47843 -88.97936
#
# Velocity S-wave (km/s) = -8.58698 -3.59012 -6.58123
# Velocity P-wave (km/s) = 8.13380 4.36614 4.85261
#
# Compressibility (1/GPa) = 0.01513770
#
# Stress axis : x y z
#
# Youngs Moduli (GPa) = 298.40859 298.40859 141.11267
#
# Poissons Ratio (x) = -1.90289 0.40233
# Poissons Ratio (y) = -1.90289 0.40233
# Poissons Ratio (z) = 0.85081 0.85081
#
# Static dielectric constant tensor:
#      x y z
#    x 1.925740 0.000000 0.000000 
#    y 0.000000 1.925740 0.000000 
#    z 0.000000 0.000000 1.773550 
# 
# From -- ./inp_files/1182.got.cif
#   From: 2010.05.17/outbox.cif.g08.bks.cpg/sg133_1_cif.got.tgz:1182.got - 2010.05.20 12:37:36.
