data_PCOD9567162
_publ_section_title
;
Structure prediction by ZEFSAII (Michael W. Deem and Ramdas Pophale) SiO2 
 PCOD9567162
Probable space group: P 42/M C M
;
_chemical_formula_sum "Si O2"
_cell_formula_units_Z 88
_cell_length_a 18.299937
_cell_length_b 18.299937
_cell_length_c 15.040312
_cell_angle_alpha 90.000000
_cell_angle_beta 90.000000
_cell_angle_gamma 90.000000
_cell_volume 5036.815406
_symmetry_space_group_name_H-M "P 42/M C M"
_symmetry_group_IT_number 132
_symmetry_cell_setting 'tetragonal'
loop_
_space_group_symop_operation_xyz
x,y,z
-y,x,1/2+z
-x,-y,z
y,-x,1/2+z
x,-y,1/2-z
-x,y,1/2-z
y,x,-z
-y,-x,-z
-x,-y,-z
y,-x,1/2-z
x,y,-z
-y,x,1/2-z
-x,y,1/2+z
x,-y,1/2+z
-y,-x,z
y,x,z
loop_
_atom_site_type_symbol
_atom_site_label
_atom_site_fract_x
_atom_site_fract_y
_atom_site_fract_z
Si Si1 0.850959 0.554801 0.394336
Si Si2 0.002737 0.621350 0.100806
Si Si3 0.613894 0.839527 0.894618
Si Si4 0.314586 0.797976 0.777254
Si Si5 0.938091 0.061910 0.106485
Si Si6 0.230378 0.056537 0.330142
O O1 0.848792 0.573150 0.500000
O O2 0.935376 0.566997 0.364481
O O3 0.824317 0.472242 0.385029
O O4 0.809432 0.613253 0.335310
O O5 0.033574 0.703958 0.103621
O O6 0.922857 0.622044 0.141389
O O7 0.988896 0.597338 0.000000
O O8 0.663538 0.795591 0.826418
O O9 0.633193 0.834045 0.000000
O O10 0.275342 0.724659 0.804960
O O11 0.257134 0.863961 0.796781
O O12 0.853193 0.049406 0.135795
O O13 0.940471 0.059530 0.000000
O O14 0.000000 0.000000 0.136596
O O15 0.236625 0.000000 0.250000
#
# Coordination Sequence:
#
# PCOD9567162 Si02
#       6
#    16  16  16  16   8  16
#     4   9  19  33  54  81 106 138 174 216 269 324
#     4   9  17  31  51  76 106 133 167 216 271 330
#     4  10  19  34  54  78 109 140 175 216 262 327
#     4  11  22  36  52  78 109 144 181 215 270 326
#     4  11  26  42  56  72  92 136 198 256 303 326
#     4  11  21  36  54  74 101 135 181 236 284 324
#
# _framework density 17.471357000000001
#
# number of rings (size 3 to 8) (size 9 to 14) (size 15 to 20)
#    0.000    1.909    2.727    1.636    1.273    3.636 
#    0.000    1.818    0.000    0.000    0.000    0.000 
#    0.000    5.818    0.000   16.000    0.000    0.000 
#
# Total GULP energy -490109.382987 kJ/mol
# GULP energy per Si atom -5569.424807 kJ/mol
# Density = 1.743159 g / cm^3
# Si number density = 17.471357 Si / 1000 Ang^3
#
#
#
# Elastic Constant Matrix: (Units=GPa)
#
#
# Indices 1 2 3 4 5 6 
#
# 1 58.9656 22.2254 19.6183 0.0000 0.0000 0.0000
# 2 22.2254 58.9658 19.6185 0.0000 0.0000 0.0000
# 3 19.6183 19.6185 63.1866 0.0000 0.0000 0.0000
# 4 0.0000 0.0000 0.0000 12.0252 0.0000 0.0000
# 5 0.0000 0.0000 0.0000 0.0000 12.0252 0.0000
# 6 0.0000 0.0000 0.0000 0.0000 0.0000 18.0004
#
#
#
# Elastic Compliance Matrix: (Units=1/GPa)
#
#
# Indices 1 2 3 4 5 6 
#
# 1 0.020854 -0.006364 -0.004499 0.000000 0.000000 0.000000
# 2 -0.006364 0.020854 -0.004499 0.000000 0.000000 0.000000
# 3 -0.004499 -0.004499 0.018620 0.000000 0.000000 0.000000
# 4 0.000000 0.000000 0.000000 0.083159 0.000000 0.000000
# 5 0.000000 0.000000 0.000000 0.000000 0.083159 0.000000
# 6 0.000000 0.000000 0.000000 0.000000 0.000000 0.055554
#
#
# Mechanical properties :
#
#
# Convention : Reuss Voigt Hill
#
# Bulk Modulus (GPa) = 33.77802 33.78251 33.78026
# Shear Modulus (GPa) = 15.48980 16.38721 15.93850
#
# Velocity S-wave (km/s) = 2.98078 3.06591 3.02365
# Velocity P-wave (km/s) = 5.58767 5.64898 5.61841
#
# Compressibility (1/GPa) = 0.02960505
#
# Stress axis : x y z
#
# Youngs Moduli (GPa) = 47.95129 47.95131 53.70570
#
# Poissons Ratio (x) = 0.30514 0.24163
# Poissons Ratio (y) = 0.30514 0.24163
# Poissons Ratio (z) = 0.21574 0.21574
#
# Static dielectric constant tensor:
#      x y z
#    x 1.606720 0.000000 0.000000 
#    y 0.000000 1.606720 0.000000 
#    z 0.000000 0.000000 1.631410 
# 
# From -- ./inp_files/4748.got.cif
#   From: 2010.05.17/outbox.cif.g08.bks.cpg/sg132_3_cif.got.tgz:4748.got - 2010.05.20 12:30:18.
