data_PCOD9567235
_publ_section_title
;
Structure prediction by ZEFSAII (Michael W. Deem and Ramdas Pophale) SiO2 
 PCOD9567235
Probable space group: P 42/M C M
;
_chemical_formula_sum "Si O2"
_cell_formula_units_Z 104
_cell_length_a 26.968168
_cell_length_b 26.968168
_cell_length_c 8.840606
_cell_angle_alpha 90.000000
_cell_angle_beta 90.000000
_cell_angle_gamma 90.000000
_cell_volume 6429.614367
_symmetry_space_group_name_H-M "P 42/M C M"
_symmetry_group_IT_number 132
_symmetry_cell_setting 'tetragonal'
loop_
_space_group_symop_operation_xyz
x,y,z
-y,x,1/2+z
-x,-y,z
y,-x,1/2+z
x,-y,1/2-z
-x,y,1/2-z
y,x,-z
-y,-x,-z
-x,-y,-z
y,-x,1/2-z
x,y,-z
-y,x,1/2-z
-x,y,1/2+z
x,-y,1/2+z
-y,-x,z
y,x,z
loop_
_atom_site_type_symbol
_atom_site_label
_atom_site_fract_x
_atom_site_fract_y
_atom_site_fract_z
Si Si1 0.084078 0.302329 0.329560
Si Si2 0.846500 0.153501 0.317196
Si Si3 0.077846 0.547400 0.668672
Si Si4 0.336773 0.191319 0.684092
Si Si5 0.446837 0.816546 0.819299
Si Si6 0.000000 0.374847 0.250000
Si Si7 0.762567 0.237434 0.682132
Si Si8 0.195595 0.052843 0.316631
O O1 0.098489 0.288532 0.500000
O O2 0.134233 0.325829 0.263970
O O3 0.038789 0.340148 0.334797
O O4 0.063640 0.251948 0.259264
O O5 0.848590 0.151411 0.500000
O O6 0.804506 0.195495 0.277288
O O7 0.832666 0.100519 0.246761
O O8 0.055086 0.500000 0.750000
O O9 0.095185 0.535228 0.500000
O O10 0.125987 0.559102 0.769037
O O11 0.037160 0.589723 0.661200
O O12 0.335587 0.193570 0.500000
O O13 0.393281 0.206186 0.728487
O O14 0.290911 0.221835 0.751614
O O15 0.500000 0.799768 0.750000
O O16 0.450191 0.812862 0.000000
O O17 0.760586 0.239415 0.500000
O O18 0.193667 0.050627 0.500000
O O19 0.179334 0.000000 0.250000
#
# Coordination Sequence:
#
# PCOD9567235 Si02
#       8
#    16   8  16  16  16   8   8  16
#     4  10  20  33  49  70  99 132 164 203 253 310
#     4  11  23  39  57  82 112 139 169 207 252 310
#     4  11  23  34  48  64  88 125 169 218 262 306
#     4  10  20  37  56  74 101 138 175 212 260 321
#     4  10  20  35  54  72  97 132 175 220 263 312
#     4  12  21  34  46  68  94 126 167 210 264 302
#     4  11  23  35  55  85 112 136 171 222 268 311
#     4  11  22  38  59  82 107 137 167 201 249 307
#
# _framework density 16.175153999999999
#
# number of rings (size 3 to 8) (size 9 to 14) (size 15 to 20)
#    0.000    1.385    3.846    3.462    0.000    4.308 
#    0.000    0.000    0.000    0.231    0.000    1.615 
#    0.000    0.000    0.000    0.000    0.000    0.385 
#
# Total GULP energy -579323.772296 kJ/mol
# GULP energy per Si atom -5570.420887 kJ/mol
# Density = 1.613834 g / cm^3
# Si number density = 16.175154 Si / 1000 Ang^3
#
#
#
# Elastic Constant Matrix: (Units=GPa)
#
#
# Indices 1 2 3 4 5 6 
#
# 1 108.8988 56.8649 30.8640 0.0000 0.0000 0.0000
# 2 56.8649 108.8988 30.8640 0.0000 0.0000 0.0000
# 3 30.8640 30.8640 58.1074 0.0000 0.0000 0.0000
# 4 0.0000 0.0000 0.0000 14.9248 0.0000 0.0000
# 5 0.0000 0.0000 0.0000 0.0000 14.9247 0.0000
# 6 0.0000 0.0000 0.0000 0.0000 0.0000 145.3336
#
#
#
# Elastic Compliance Matrix: (Units=1/GPa)
#
#
# Indices 1 2 3 4 5 6 
#
# 1 0.013369 -0.005849 -0.003994 0.000000 0.000000 0.000000
# 2 -0.005849 0.013369 -0.003994 0.000000 0.000000 0.000000
# 3 -0.003994 -0.003994 0.021453 0.000000 0.000000 0.000000
# 4 0.000000 0.000000 0.000000 0.067003 0.000000 0.000000
# 5 0.000000 0.000000 0.000000 0.000000 0.067003 0.000000
# 6 0.000000 0.000000 0.000000 0.000000 0.000000 0.006881
#
#
# Mechanical properties :
#
#
# Convention : Reuss Voigt Hill
#
# Bulk Modulus (GPa) = 48.74342 57.01010 52.87676
# Shear Modulus (GPa) = 22.36224 45.52411 33.94318
#
# Velocity S-wave (km/s) = 3.72224 5.31089 4.58588
# Velocity P-wave (km/s) = 6.97665 8.53987 7.79753
#
# Compressibility (1/GPa) = 0.02051559
#
# Stress axis : x y z
#
# Youngs Moduli (GPa) = 74.79882 74.79895 46.61414
#
# Poissons Ratio (x) = 0.43750 0.18619
# Poissons Ratio (y) = 0.43750 0.18619
# Poissons Ratio (z) = 0.29877 0.29877
#
# Static dielectric constant tensor:
#      x y z
#    x 1.546760 0.000000 0.000000 
#    y 0.000000 1.546760 0.000000 
#    z 0.000000 0.000000 1.571520 
# 
# From -- ./inp_files/2048.got.cif
#   From: 2010.05.17/outbox.cif.g08.bks.cpg/sg132_2_cif.got.tgz:2048.got - 2010.05.20 12:30:18.
