data_PCOD9567303
_publ_section_title
;
Structure prediction by ZEFSAII (Michael W. Deem and Ramdas Pophale) SiO2 
 PCOD9567303
Probable space group: P 42/M C M
;
_chemical_formula_sum "Si O2"
_cell_formula_units_Z 88
_cell_length_a 18.038261
_cell_length_b 18.038261
_cell_length_c 14.716402
_cell_angle_alpha 90.000000
_cell_angle_beta 90.000000
_cell_angle_gamma 90.000000
_cell_volume 4788.406105
_symmetry_space_group_name_H-M "P 42/M C M"
_symmetry_group_IT_number 132
_symmetry_cell_setting 'tetragonal'
loop_
_space_group_symop_operation_xyz
x,y,z
-y,x,1/2+z
-x,-y,z
y,-x,1/2+z
x,-y,1/2-z
-x,y,1/2-z
y,x,-z
-y,-x,-z
-x,-y,-z
y,-x,1/2-z
x,y,-z
-y,x,1/2-z
-x,y,1/2+z
x,-y,1/2+z
-y,-x,z
y,x,z
loop_
_atom_site_type_symbol
_atom_site_label
_atom_site_fract_x
_atom_site_fract_y
_atom_site_fract_z
Si Si1 0.277688 0.608073 0.500000
Si Si2 0.738846 0.566322 0.500000
Si Si3 0.922636 0.195344 0.868810
Si Si4 0.323258 0.203525 0.177852
Si Si5 0.169877 0.293192 0.500000
Si Si6 0.702053 0.581462 0.706723
Si Si7 0.910345 0.790500 0.151650
O O1 0.363577 0.636424 0.500000
O O2 0.257451 0.522350 0.500000
O O3 0.241402 0.642879 0.589156
O O4 0.810476 0.620431 0.500000
O O5 0.701396 0.581611 0.597659
O O6 0.879385 0.120616 0.897281
O O7 0.918242 0.197857 0.760041
O O8 0.009158 0.199922 0.891740
O O9 0.876661 0.262326 0.914289
O O10 0.249514 0.249514 0.206101
O O11 0.381953 0.221104 0.256896
O O12 0.291889 0.124278 0.147958
O O13 0.248085 0.248085 0.500000
O O14 0.694269 0.500000 0.750000
O O15 0.635876 0.635876 0.738962
O O16 0.851322 0.851322 0.116373
#
# Coordination Sequence:
#
# PCOD9567303 Si02
#       7
#     8   8  16  16   8  16  16
#     4  10  20  35  55  81 107 135 175 230 284 324
#     4  12  22  36  60  85 107 144 187 224 270 333
#     4   9  18  32  51  79 112 142 177 228 277 324
#     4   9  18  34  54  77 108 143 185 231 269 322
#     4  10  20  35  54  79 110 143 185 227 269 324
#     4  11  22  36  55  82 112 144 184 230 277 329
#     4   9  17  31  54  80 106 145 187 222 274 332
#
# _framework density 18.377724000000001
#
# number of rings (size 3 to 8) (size 9 to 14) (size 15 to 20)
#    0.000    2.182    1.818    1.909    0.000    4.182 
#    0.000    3.182    0.000    6.818    0.000    0.000 
#    0.000    0.000    0.000    0.000    0.000    0.000 
#
# Total GULP energy -490016.903938 kJ/mol
# GULP energy per Si atom -5568.373908 kJ/mol
# Density = 1.833590 g / cm^3
# Si number density = 18.377724 Si / 1000 Ang^3
#
#
#
# Elastic Constant Matrix: (Units=GPa)
#
#
# Indices 1 2 3 4 5 6 
#
# 1 93.0124 102.7740 21.4763 0.0000 0.0000 0.0000
# 2 102.7740 93.0105 21.4754 0.0000 0.0000 0.0000
# 3 21.4763 21.4754 91.5635 0.0000 0.0000 0.0000
# 4 0.0000 0.0000 0.0000 6.7902 0.0000 0.0000
# 5 0.0000 0.0000 0.0000 0.0000 6.7893 0.0000
# 6 0.0000 0.0000 0.0000 0.0000 0.0000 18.3053
#
#
#
# Elastic Compliance Matrix: (Units=1/GPa)
#
#
# Indices 1 2 3 4 5 6 
#
# 1 -0.048523 0.053908 -0.001263 0.000000 0.000000 0.000000
# 2 0.053908 -0.048524 -0.001263 0.000000 0.000000 0.000000
# 3 -0.001263 -0.001263 0.011514 0.000000 0.000000 0.000000
# 4 0.000000 0.000000 0.000000 0.147272 0.000000 0.000000
# 5 0.000000 0.000000 0.000000 0.000000 0.147290 0.000000
# 6 0.000000 0.000000 0.000000 0.000000 0.000000 0.054629
#
#
# Mechanical properties :
#
#
# Convention : Reuss Voigt Hill
#
# Bulk Modulus (GPa) = 58.03365 63.22645 60.63005
# Shear Modulus (GPa) = 30.00563 15.16768 22.58666
#
# Velocity S-wave (km/s) = 4.04507 2.87597 3.50955
# Velocity P-wave (km/s) = 7.31188 6.74587 7.03457
#
# Compressibility (1/GPa) = 0.01723138
#
# Stress axis : x y z
#
# Youngs Moduli (GPa) = -20.60867 -20.60831 86.85208
#
# Poissons Ratio (x) = 1.11096 0.10966
# Poissons Ratio (y) = 1.11098 0.10973
# Poissons Ratio (z) = -0.02602 -0.02604
#
# Static dielectric constant tensor:
#      x y z
#    x 1.644700 0.000000 0.000000 
#    y 0.000000 1.644690 0.000000 
#    z 0.000000 0.000000 1.685430 
# 
# From -- ./inp_files/4801.got.cif
#   From: 2010.05.17/outbox.cif.g08.bks.cpg/sg132_3_cif.got.tgz:4801.got - 2010.05.20 12:30:18.
