data_PCOD9567394
_publ_section_title
;
Structure prediction by ZEFSAII (Michael W. Deem and Ramdas Pophale) SiO2 
 PCOD9567394
Probable space group: P 42/M C M
;
_chemical_formula_sum "Si O2"
_cell_formula_units_Z 80
_cell_length_a 12.343232
_cell_length_b 12.343232
_cell_length_c 28.803663
_cell_angle_alpha 90.000000
_cell_angle_beta 90.000000
_cell_angle_gamma 90.000000
_cell_volume 4388.392912
_symmetry_space_group_name_H-M "P 42/M C M"
_symmetry_group_IT_number 132
_symmetry_cell_setting 'tetragonal'
loop_
_space_group_symop_operation_xyz
x,y,z
-y,x,1/2+z
-x,-y,z
y,-x,1/2+z
x,-y,1/2-z
-x,y,1/2-z
y,x,-z
-y,-x,-z
-x,-y,-z
y,-x,1/2-z
x,y,-z
-y,x,1/2-z
-x,y,1/2+z
x,-y,1/2+z
-y,-x,z
y,x,z
loop_
_atom_site_type_symbol
_atom_site_label
_atom_site_fract_x
_atom_site_fract_y
_atom_site_fract_z
Si Si1 0.823762 0.008292 0.896095
Si Si2 0.209046 0.392435 0.851355
Si Si3 0.237091 0.418665 0.293179
Si Si4 0.993302 0.306385 0.197555
Si Si5 0.672679 0.858923 0.948555
O O1 0.884691 0.115310 0.911724
O O2 0.777103 0.023272 0.844449
O O3 0.733602 0.967390 0.931767
O O4 0.912043 0.912043 0.893384
O O5 0.291380 0.291380 0.846688
O O6 0.263727 0.503537 0.836165
O O7 0.170974 0.400319 0.904547
O O8 0.104588 0.366535 0.818407
O O9 0.248849 0.500000 0.250000
O O10 0.316099 0.316099 0.288513
O O11 0.112913 0.381353 0.299516
O O12 0.000000 0.260247 0.250000
O O13 0.764723 0.764723 0.950319
O O14 0.625278 0.868089 0.000000
#
# Coordination Sequence:
#
# PCOD9567394 Si02
#       5
#    16  16  16  16  16
#     4   9  18  30  47  77 112 145 183 227 274 322
#     4  10  21  37  58  84 112 143 183 230 274 320
#     4  12  25  38  55  80 109 146 186 226 274 327
#     4  11  21  35  55  75 107 146 186 220 266 329
#     4   8  15  30  53  79 106 139 181 228 276 325
#
# _framework density 18.229907999999998
#
# number of rings (size 3 to 8) (size 9 to 14) (size 15 to 20)
#    0.000    2.000    2.000    3.600    0.000    4.200 
#    0.000    3.000    0.000   10.200    0.000    2.800 
#    0.000    0.000    0.000    0.000    0.000    0.000 
#
# Total GULP energy -445788.986141 kJ/mol
# GULP energy per Si atom -5572.362327 kJ/mol
# Density = 1.818842 g / cm^3
# Si number density = 18.229908 Si / 1000 Ang^3
#
#
#
# Elastic Constant Matrix: (Units=GPa)
#
#
# Indices 1 2 3 4 5 6 
#
# 1 56.6878 17.8375 13.0416 0.0000 0.0000 0.0000
# 2 17.8375 56.6878 13.0416 0.0000 0.0000 0.0000
# 3 13.0416 13.0416 120.9036 0.0000 0.0000 0.0000
# 4 0.0000 0.0000 0.0000 14.6041 0.0000 0.0000
# 5 0.0000 0.0000 0.0000 0.0000 14.6041 0.0000
# 6 0.0000 0.0000 0.0000 0.0000 0.0000 5.6765
#
#
#
# Elastic Compliance Matrix: (Units=1/GPa)
#
#
# Indices 1 2 3 4 5 6 
#
# 1 0.019842 -0.005898 -0.001504 0.000000 0.000000 0.000000
# 2 -0.005898 0.019842 -0.001504 0.000000 0.000000 0.000000
# 3 -0.001504 -0.001504 0.008596 0.000000 0.000000 0.000000
# 4 0.000000 0.000000 0.000000 0.068474 0.000000 0.000000
# 5 0.000000 0.000000 0.000000 0.000000 0.068474 0.000000
# 6 0.000000 0.000000 0.000000 0.000000 0.000000 0.176165
#
#
# Mechanical properties :
#
#
# Convention : Reuss Voigt Hill
#
# Bulk Modulus (GPa) = 32.82105 35.79117 34.30611
# Shear Modulus (GPa) = 12.84155 19.66751 16.25453
#
# Velocity S-wave (km/s) = 2.65697 3.28816 2.98927
# Velocity P-wave (km/s) = 5.23982 5.83882 5.54741
#
# Compressibility (1/GPa) = 0.03046825
#
# Stress axis : x y z
#
# Youngs Moduli (GPa) = 50.39744 50.39744 116.33913
#
# Poissons Ratio (x) = 0.29722 0.17500
# Poissons Ratio (y) = 0.29722 0.17500
# Poissons Ratio (z) = 0.07581 0.07581
#
# Static dielectric constant tensor:
#      x y z
#    x 1.644610 0.000000 0.000000 
#    y 0.000000 1.644610 0.000000 
#    z 0.000000 0.000000 1.653020 
# 
# From -- ./inp_files/10650.got.cif
#   From: 2010.05.17/outbox.cif.g08.bks.cpg/sg132_6_cif.got.tgz:10650.got - 2010.05.20 12:30:18.
