data_PCOD9567625
_publ_section_title
;
Structure prediction by ZEFSAII (Michael W. Deem and Ramdas Pophale) SiO2 
 PCOD9567625
Probable space group: P 42/N B C
;
_chemical_formula_sum "Si O2"
_cell_formula_units_Z 96
_cell_length_a 18.964417
_cell_length_b 18.964417
_cell_length_c 15.978678
_cell_angle_alpha 90.000000
_cell_angle_beta 90.000000
_cell_angle_gamma 90.000000
_cell_volume 5746.717356
_symmetry_space_group_name_H-M "P 42/N B C"
_symmetry_group_IT_number 133
_space_group.IT_coordinate_system_code '2'
_symmetry_cell_setting 'tetragonal'
loop_
_space_group_symop_operation_xyz
x,y,z
1/2-y,x,1/2+z
1/2-x,1/2-y,z
y,1/2-x,1/2+z
x,1/2-y,-z
1/2-x,y,-z
y,x,1/2-z
1/2-y,1/2-x,1/2-z
-x,-y,-z
1/2+y,-x,1/2-z
1/2+x,1/2+y,-z
-y,1/2+x,1/2-z
-x,1/2+y,z
1/2+x,-y,z
-y,-x,1/2+z
1/2+y,1/2+x,1/2+z
loop_
_atom_site_type_symbol
_atom_site_label
_atom_site_fract_x
_atom_site_fract_y
_atom_site_fract_z
Si Si1 0.253915 0.631748 0.751131
Si Si2 0.193907 0.573060 0.075686
Si Si3 0.080211 0.697859 0.078223
Si Si4 0.715264 0.820785 0.655487
Si Si5 0.085802 0.329184 0.465112
Si Si6 0.186962 0.417990 0.569005
O O1 0.185289 0.681096 0.764256
O O2 0.269508 0.585212 0.833465
O O3 0.239083 0.591246 0.665278
O O4 0.134904 0.633726 0.071095
O O5 0.161680 0.494683 0.064564
O O6 0.250000 0.582589 0.000000
O O7 0.999934 0.672338 0.078172
O O8 0.091019 0.750000 0.000000
O O9 0.750000 0.750000 0.616306
O O10 0.696340 0.803661 0.750000
O O11 0.642779 0.838195 0.608584
O O12 0.775246 0.880344 0.647125
O O13 0.090107 0.250000 0.500000
O O14 0.116829 0.379170 0.537611
O O15 0.250000 0.409964 0.500000
#
# Coordination Sequence:
#
# PCOD9567625 Si02
#       6
#    16  16  16  16  16  16
#     4   9  18  33  54  78 103 137 184 232 270 315
#     4  10  21  34  54  81 107 147 182 223 278 324
#     4  10  20  35  55  78 109 142 182 228 270 329
#     4  10  19  31  54  81 100 133 177 222 269 319
#     4  10  19  34  52  76 110 137 177 223 269 324
#     4   9  19  33  52  77 103 140 176 219 271 323
#
# _framework density 16.705189000000001
#
# number of rings (size 3 to 8) (size 9 to 14) (size 15 to 20)
#    0.000    2.333    1.667    1.000    2.333    2.333 
#    0.000    0.000    0.000    0.000    4.333    0.000 
#    0.000    0.000    0.000    0.000    0.000    0.000 
#
# Total GULP energy -534811.875760 kJ/mol
# GULP energy per Si atom -5570.957039 kJ/mol
# Density = 1.666717 g / cm^3
# Si number density = 16.705189 Si / 1000 Ang^3
#
#
#
# Elastic Constant Matrix: (Units=GPa)
#
#
# Indices 1 2 3 4 5 6 
#
# 1 101.0966 53.3135 57.6249 0.0000 0.0000 0.0000
# 2 53.3135 101.0967 57.6250 0.0000 0.0000 0.0000
# 3 57.6249 57.6250 116.1907 0.0000 0.0000 0.0000
# 4 0.0000 0.0000 0.0000 19.3175 0.0000 0.0000
# 5 0.0000 0.0000 0.0000 0.0000 19.3180 0.0000
# 6 0.0000 0.0000 0.0000 0.0000 0.0000 9.7639
#
#
#
# Elastic Compliance Matrix: (Units=1/GPa)
#
#
# Indices 1 2 3 4 5 6 
#
# 1 0.015605 -0.005323 -0.005100 0.000000 0.000000 0.000000
# 2 -0.005323 0.015605 -0.005100 0.000000 0.000000 0.000000
# 3 -0.005100 -0.005100 0.013665 0.000000 0.000000 0.000000
# 4 0.000000 0.000000 0.000000 0.051766 0.000000 0.000000
# 5 0.000000 0.000000 0.000000 0.000000 0.051765 0.000000
# 6 0.000000 0.000000 0.000000 0.000000 0.000000 0.102418
#
#
# Mechanical properties :
#
#
# Convention : Reuss Voigt Hill
#
# Bulk Modulus (GPa) = 72.29913 72.83455 72.56684
# Shear Modulus (GPa) = 17.45326 19.66793 18.56059
#
# Velocity S-wave (km/s) = 3.23581 3.43498 3.33688
# Velocity P-wave (km/s) = 7.57193 7.70887 7.64071
#
# Compressibility (1/GPa) = 0.01383143
#
# Stress axis : x y z
#
# Youngs Moduli (GPa) = 64.08104 64.08110 73.18017
#
# Poissons Ratio (x) = 0.34108 0.37319
# Poissons Ratio (y) = 0.34108 0.37319
# Poissons Ratio (z) = 0.32679 0.32679
#
# Static dielectric constant tensor:
#      x y z
#    x 1.558510 0.000000 0.000000 
#    y 0.000000 1.558510 0.000000 
#    z 0.000000 0.000000 1.580550 
# 
# From -- ./inp_files/5532.got.cif
#   From: 2010.05.17/outbox.cif.g08.bks.cpg/sg133_3_cif.got.tgz:5532.got - 2010.05.20 12:37:36.
