data_PCOD9567507
_publ_section_title
;
Structure prediction by ZEFSAII (Michael W. Deem and Ramdas Pophale) SiO2 
 PCOD9567507
Probable space group: P 42/M C M
;
_chemical_formula_sum "Si O2"
_cell_formula_units_Z 116
_cell_length_a 18.130278
_cell_length_b 18.130278
_cell_length_c 16.897793
_cell_angle_alpha 90.000000
_cell_angle_beta 90.000000
_cell_angle_gamma 90.000000
_cell_volume 5554.422512
_symmetry_space_group_name_H-M "P 42/M C M"
_symmetry_group_IT_number 132
_symmetry_cell_setting 'tetragonal'
loop_
_space_group_symop_operation_xyz
x,y,z
-y,x,1/2+z
-x,-y,z
y,-x,1/2+z
x,-y,1/2-z
-x,y,1/2-z
y,x,-z
-y,-x,-z
-x,-y,-z
y,-x,1/2-z
x,y,-z
-y,x,1/2-z
-x,y,1/2+z
x,-y,1/2+z
-y,-x,z
y,x,z
loop_
_atom_site_type_symbol
_atom_site_label
_atom_site_fract_x
_atom_site_fract_y
_atom_site_fract_z
Si Si1 0.175048 0.945055 0.091496
Si Si2 0.717597 0.395214 0.820551
Si Si3 0.345041 0.132935 0.091410
Si Si4 0.362175 0.637826 0.500000
Si Si5 0.010624 0.583083 0.155129
Si Si6 0.438605 0.732767 0.358854
Si Si7 0.904990 0.786501 0.182182
Si Si8 0.306461 0.133878 0.337092
O O1 0.099533 0.900468 0.108893
O O2 0.241629 0.886267 0.102091
O O3 0.191676 0.014664 0.148740
O O4 0.172946 0.970209 0.000000
O O5 0.644231 0.355770 0.852315
O O6 0.736671 0.472736 0.861510
O O7 0.705222 0.415308 0.728275
O O8 0.783573 0.335411 0.826600
O O9 0.399820 0.187323 0.136550
O O10 0.260091 0.138416 0.115702
O O11 0.367001 0.050201 0.113609
O O12 0.354239 0.148053 0.000000
O O13 0.406244 0.684426 0.429795
O O14 0.088354 0.620782 0.140570
O O15 0.000000 0.500000 0.126737
O O16 0.000000 0.582989 0.250000
O O17 0.859188 0.859188 0.203485
O O18 0.898535 0.729883 0.255992
#
# Coordination Sequence:
#
# PCOD9567507 Si02
#       8
#    16  16  16   4  16  16  16  16
#     4  11  25  45  65  92 133 182 232 289 355 419
#     4  11  23  44  71 102 134 186 237 276 330 435
#     4  12  24  39  63  99 137 171 215 279 348 417
#     4  12  24  48  73 108 150 180 217 312 360 402
#     4  11  21  38  63  92 132 175 215 263 329 412
#     4  11  24  42  71 104 143 179 225 283 358 412
#     4  12  25  40  66  99 126 172 233 289 346 414
#     4  12  22  42  70  98 135 176 229 284 338 410
#
# _framework density 20.884259
#
# number of rings (size 3 to 8) (size 9 to 14) (size 15 to 20)
#    0.000    0.552    5.517    2.897    0.966    3.862 
#    1.241    1.724    0.000    1.655    0.000    0.000 
#    0.000    0.000    0.000    0.000    0.000    0.000 
#
# Total GULP energy -646855.970361 kJ/mol
# GULP energy per Si atom -5576.344572 kJ/mol
# Density = 2.083673 g / cm^3
# Si number density = 20.884259 Si / 1000 Ang^3
#
#
#
# Elastic Constant Matrix: (Units=GPa)
#
#
# Indices 1 2 3 4 5 6 
#
# 1 83.8913 87.7842 15.0683 0.0000 0.0000 0.0000
# 2 87.7842 83.8912 15.0679 0.0000 0.0000 0.0000
# 3 15.0683 15.0679 48.7677 0.0000 0.0000 0.0000
# 4 0.0000 0.0000 0.0000 23.3403 0.0000 0.0000
# 5 0.0000 0.0000 0.0000 0.0000 23.3404 0.0000
# 6 0.0000 0.0000 0.0000 0.0000 0.0000 95.1442
#
#
#
# Elastic Compliance Matrix: (Units=1/GPa)
#
#
# Indices 1 2 3 4 5 6 
#
# 1 -0.125358 0.131517 -0.001902 0.000000 0.000000 0.000000
# 2 0.131517 -0.125357 -0.001904 0.000000 0.000000 0.000000
# 3 -0.001902 -0.001904 0.021681 0.000000 0.000000 0.000000
# 4 0.000000 0.000000 0.000000 0.042844 0.000000 0.000000
# 5 0.000000 0.000000 0.000000 0.000000 0.042844 0.000000
# 6 0.000000 0.000000 0.000000 0.000000 0.000000 0.010510
#
#
# Mechanical properties :
#
#
# Convention : Reuss Voigt Hill
#
# Bulk Modulus (GPa) = 37.89694 50.26569 44.08132
# Shear Modulus (GPa) = -13.17660 34.94029 10.88184
#
# Velocity S-wave (km/s) = -2.51457 4.09472 2.28514
# Velocity P-wave (km/s) = 3.12327 6.81738 5.30243
#
# Compressibility (1/GPa) = 0.02638736
#
# Stress axis : x y z
#
# Youngs Moduli (GPa) = -7.97717 -7.97719 46.12263
#
# Poissons Ratio (x) = 1.04913 0.08772
# Poissons Ratio (y) = 1.04913 0.08782
# Poissons Ratio (z) = -0.01517 -0.01519
#
# Static dielectric constant tensor:
#      x y z
#    x 1.774510 0.000000 0.000000 
#    y 0.000000 1.774510 0.000000 
#    z 0.000000 0.000000 1.775360 
# 
# From -- ./inp_files/6663.got.cif
#   From: 2010.05.17/outbox.cif.g08.bks.cpg/sg132_4_cif.got.tgz:6663.got - 2010.05.20 12:30:18.
