data_PCOD9567554
_publ_section_title
;
Structure prediction by ZEFSAII (Michael W. Deem and Ramdas Pophale) SiO2 
 PCOD9567554
Probable space group: P 42/M C M
;
_chemical_formula_sum "Si O2"
_cell_formula_units_Z 80
_cell_length_a 15.000000
_cell_length_b 15.000000
_cell_length_c 21.000000
_cell_angle_alpha 90.000000
_cell_angle_beta 90.000000
_cell_angle_gamma 90.000000
_cell_volume 4725.000000
_symmetry_space_group_name_H-M "P 42/M C M"
_symmetry_group_IT_number 132
_symmetry_cell_setting 'tetragonal'
loop_
_space_group_symop_operation_xyz
x,y,z
-y,x,1/2+z
-x,-y,z
y,-x,1/2+z
x,-y,1/2-z
-x,y,1/2-z
y,x,-z
-y,-x,-z
-x,-y,-z
y,-x,1/2-z
x,y,-z
-y,x,1/2-z
-x,y,1/2+z
x,-y,1/2+z
-y,-x,z
y,x,z
loop_
_atom_site_type_symbol
_atom_site_label
_atom_site_fract_x
_atom_site_fract_y
_atom_site_fract_z
Si Si1 0.190019 0.338483 0.120093
Si Si2 0.805900 0.048271 0.424994
Si Si3 0.892416 0.607699 0.251457
Si Si4 0.713557 0.865242 0.618838
Si Si5 0.100661 0.484623 0.426468
O O1 0.285712 0.285712 0.114712
O O2 0.118908 0.274960 0.084006
O O3 0.155646 0.345232 0.192324
O O4 0.172200 0.441642 0.098319
O O5 0.817001 0.028688 0.500000
O O6 0.895842 0.104159 0.404058
O O7 0.773177 0.955683 0.392007
O O8 0.871576 0.500000 0.250000
O O9 0.862959 0.666111 0.312108
O O10 0.000000 0.613679 0.250000
O O11 0.779984 0.779984 0.608216
O O12 0.620302 0.873679 0.578699
O O13 0.091907 0.507274 0.500000
O O14 0.000000 0.500000 0.396663
#
# Coordination Sequence:
#
# PCOD9567554 Si02
#       5
#    16  16  16  16  16
#     4  11  21  36  60  88 115 148 195 242 287 346
#     4  10  21  37  57  84 122 164 199 232 279 344
#     4  11  20  37  62  86 115 150 190 244 298 344
#     4  12  24  38  59  89 121 155 198 244 294 348
#     4  11  21  37  60  87 119 153 193 244 292 339
#
# _framework density 16.931217
#
# number of rings (size 3 to 8) (size 9 to 14) (size 15 to 20)
#    0.000    1.000    6.000    1.800    0.000    3.200 
#    0.000    1.000    0.000    0.600    0.000    2.800 
#    0.000    0.000    0.000    0.000    0.000    0.000 
#
# Total GULP energy -445394.362280 kJ/mol
# GULP energy per Si atom -5567.429528 kJ/mol
# Density = 1.689268 g / cm^3
# Si number density = 16.931217 Si / 1000 Ang^3
#
#
#
# Elastic Constant Matrix: (Units=GPa)
#
#
# Indices 1 2 3 4 5 6 
#
# 1 117.8428 59.9595 11.6750 0.0000 0.0000 0.0000
# 2 59.9595 117.8428 11.6750 0.0000 0.0000 0.0000
# 3 11.6750 11.6750 74.1146 0.0000 0.0000 0.0000
# 4 0.0000 0.0000 0.0000 21.0060 0.0000 0.0000
# 5 0.0000 0.0000 0.0000 0.0000 21.0060 0.0000
# 6 0.0000 0.0000 0.0000 0.0000 0.0000 38.9928
#
#
#
# Elastic Compliance Matrix: (Units=1/GPa)
#
#
# Indices 1 2 3 4 5 6 
#
# 1 0.011510 -0.005767 -0.000905 0.000000 0.000000 0.000000
# 2 -0.005767 0.011510 -0.000905 0.000000 0.000000 0.000000
# 3 -0.000905 -0.000905 0.013778 0.000000 0.000000 0.000000
# 4 0.000000 0.000000 0.000000 0.047605 0.000000 0.000000
# 5 0.000000 0.000000 0.000000 0.000000 0.047605 0.000000
# 6 0.000000 0.000000 0.000000 0.000000 0.000000 0.025646
#
#
# Mechanical properties :
#
#
# Convention : Reuss Voigt Hill
#
# Bulk Modulus (GPa) = 46.20006 52.93546 49.56776
# Shear Modulus (GPa) = 27.77468 31.30037 29.53752
#
# Velocity S-wave (km/s) = 4.05463 4.30429 4.18132
# Velocity P-wave (km/s) = 7.01899 7.48568 7.25609
#
# Compressibility (1/GPa) = 0.02164499
#
# Stress axis : x y z
#
# Youngs Moduli (GPa) = 86.88417 86.88417 72.58141
#
# Poissons Ratio (x) = 0.50102 0.06566
# Poissons Ratio (y) = 0.50102 0.06566
# Poissons Ratio (z) = 0.07860 0.07860
#
# Static dielectric constant tensor:
#      x y z
#    x 1.575880 0.000000 0.000000 
#    y 0.000000 1.575880 0.000000 
#    z 0.000000 0.000000 1.664850 
# 
# From -- ./inp_files/7634.got.cif
#   From: 2010.05.17/outbox.ucp.g08.bks.cvg/sg132_4_cif.got.tgz:7634.got - 2010.06.11 11:39:14.
