data_PCOD9567092
_publ_section_title
;
Structure prediction by ZEFSAII (Michael W. Deem and Ramdas Pophale) SiO2 
 PCOD9567092
Probable space group: P 42/M C M
;
_chemical_formula_sum "Si O2"
_cell_formula_units_Z 96
_cell_length_a 14.052470
_cell_length_b 14.052470
_cell_length_c 27.401884
_cell_angle_alpha 90.000000
_cell_angle_beta 90.000000
_cell_angle_gamma 90.000000
_cell_volume 5411.102456
_symmetry_space_group_name_H-M "P 42/M C M"
_symmetry_group_IT_number 132
_symmetry_cell_setting 'tetragonal'
loop_
_space_group_symop_operation_xyz
x,y,z
-y,x,1/2+z
-x,-y,z
y,-x,1/2+z
x,-y,1/2-z
-x,y,1/2-z
y,x,-z
-y,-x,-z
-x,-y,-z
y,-x,1/2-z
x,y,-z
-y,x,1/2-z
-x,y,1/2+z
x,-y,1/2+z
-y,-x,z
y,x,z
loop_
_atom_site_type_symbol
_atom_site_label
_atom_site_fract_x
_atom_site_fract_y
_atom_site_fract_z
Si Si1 0.020524 0.609908 0.634624
Si Si2 0.703597 0.141953 0.443525
Si Si3 0.467069 0.681296 0.838651
Si Si4 0.698388 0.539675 0.053106
Si Si5 0.179249 0.588648 0.284171
Si Si6 0.836762 0.691070 0.689325
O O1 0.053849 0.675372 0.589949
O O2 0.109768 0.601270 0.670855
O O3 0.000000 0.500000 0.619653
O O4 0.934065 0.658337 0.664153
O O5 0.719001 0.115764 0.500000
O O6 0.793879 0.206122 0.427139
O O7 0.612705 0.213318 0.442522
O O8 0.420337 0.579664 0.826359
O O9 0.484783 0.688870 0.896391
O O10 0.556669 0.718535 0.806598
O O11 0.386764 0.759358 0.827552
O O12 0.605174 0.605174 0.050906
O O13 0.706671 0.489674 0.000000
O O14 0.147398 0.500000 0.250000
O O15 0.167030 0.676835 0.247860
O O16 0.794217 0.794217 0.676471
#
# Coordination Sequence:
#
# PCOD9567092 Si02
#       6
#    16  16  16  16  16  16
#     4  12  19  33  62  84 105 142 186 229 272 331
#     4   9  19  35  55  84 116 142 178 230 283 340
#     4  10  19  32  48  71 107 146 183 223 269 318
#     4   9  17  31  49  70 101 139 181 224 262 311
#     4  10  19  33  52  74 105 146 183 225 271 324
#     4  10  22  35  51  77 108 136 174 232 284 324
#
# _framework density 17.741302000000001
#
# number of rings (size 3 to 8) (size 9 to 14) (size 15 to 20)
#    0.000    2.000    5.000    1.500    0.000    2.333 
#    0.000    4.167    0.000    3.000    0.000    1.167 
#    0.000    0.000    0.000    0.000    0.000    0.000 
#
# Total GULP energy -534633.625613 kJ/mol
# GULP energy per Si atom -5569.100267 kJ/mol
# Density = 1.770092 g / cm^3
# Si number density = 17.741302 Si / 1000 Ang^3
#
#
#
# Elastic Constant Matrix: (Units=GPa)
#
#
# Indices 1 2 3 4 5 6 
#
# 1 -116.3700 221.6267 30.9999 0.0000 0.0000 0.0000
# 2 221.6267 -116.3700 30.9999 0.0000 0.0000 0.0000
# 3 30.9999 30.9999 89.7853 0.0000 0.0000 0.0000
# 4 0.0000 0.0000 0.0000 46.1339 0.0000 0.0000
# 5 0.0000 0.0000 0.0000 0.0000 46.1339 0.0000
# 6 0.0000 0.0000 0.0000 0.0000 0.0000 19.7340
#
#
#
# Elastic Compliance Matrix: (Units=1/GPa)
#
#
# Indices 1 2 3 4 5 6 
#
# 1 0.004484 0.007442 -0.004118 0.000000 0.000000 0.000000
# 2 0.007442 0.004484 -0.004118 0.000000 0.000000 0.000000
# 3 -0.004118 -0.004118 0.013981 0.000000 0.000000 0.000000
# 4 0.000000 0.000000 0.000000 0.021676 0.000000 0.000000
# 5 0.000000 0.000000 0.000000 0.000000 0.021676 0.000000
# 6 0.000000 0.000000 0.000000 0.000000 0.000000 0.050674
#
#
# Mechanical properties :
#
#
# Convention : Reuss Voigt Hill
#
# Bulk Modulus (GPa) = 46.81106 47.14424 46.97765
# Shear Modulus (GPa) = 39.78317 -6.03838 16.87240
#
# Velocity S-wave (km/s) = 4.74054 -1.84688 3.08721
# Velocity P-wave (km/s) = 7.51041 4.69924 6.26455
#
# Compressibility (1/GPa) = 0.02136247
#
# Stress axis : x y z
#
# Youngs Moduli (GPa) = 223.02950 223.02950 71.52527
#
# Poissons Ratio (x) = -1.65986 0.29452
# Poissons Ratio (y) = -1.65986 0.29452
# Poissons Ratio (z) = 0.91836 0.91836
#
# Static dielectric constant tensor:
#      x y z
#    x 1.628310 0.000000 0.000000 
#    y 0.000000 1.628310 0.000000 
#    z 0.000000 0.000000 1.731990 
# 
# From -- ./inp_files/10934.got.cif
#   From: 2010.05.17/outbox.cif.g08.bks.cpg/sg132_6_cif.got.tgz:10934.got - 2010.05.20 12:30:18.
