data_PCOD9567685
_publ_section_title
;
Structure prediction by ZEFSAII (Michael W. Deem and Ramdas Pophale) SiO2 
 PCOD9567685
Probable space group: P 42/N B C
;
_chemical_formula_sum "Si O2"
_cell_formula_units_Z 112
_cell_length_a 15.083389
_cell_length_b 15.083389
_cell_length_c 27.456315
_cell_angle_alpha 90.000000
_cell_angle_beta 90.000000
_cell_angle_gamma 90.000000
_cell_volume 6246.548438
_symmetry_space_group_name_H-M "P 42/N B C"
_symmetry_group_IT_number 133
_space_group.IT_coordinate_system_code '2'
_symmetry_cell_setting 'tetragonal'
loop_
_space_group_symop_operation_xyz
x,y,z
1/2-y,x,1/2+z
1/2-x,1/2-y,z
y,1/2-x,1/2+z
x,1/2-y,-z
1/2-x,y,-z
y,x,1/2-z
1/2-y,1/2-x,1/2-z
-x,-y,-z
1/2+y,-x,1/2-z
1/2+x,1/2+y,-z
-y,1/2+x,1/2-z
-x,1/2+y,z
1/2+x,-y,z
-y,-x,1/2+z
1/2+y,1/2+x,1/2+z
loop_
_atom_site_type_symbol
_atom_site_label
_atom_site_fract_x
_atom_site_fract_y
_atom_site_fract_z
Si Si1 0.101873 0.609816 0.698507
Si Si2 0.344260 0.785224 0.108001
Si Si3 0.943647 0.904753 0.373248
Si Si4 0.046201 0.726590 0.555884
Si Si5 0.805469 0.033192 0.789487
Si Si6 0.346932 0.206377 0.301547
Si Si7 0.397448 0.594024 0.111678
O O1 0.168375 0.608581 0.652942
O O2 0.086956 0.712172 0.715092
O O3 0.137794 0.547895 0.740923
O O4 0.009908 0.585445 0.672882
O O5 0.250000 0.750000 0.127085
O O6 0.318370 0.857009 0.066796
O O7 0.394084 0.696194 0.094487
O O8 0.860313 0.858932 0.347210
O O9 0.981520 0.838293 0.414143
O O10 0.934717 0.002222 0.394111
O O11 0.030591 0.750000 0.500000
O O12 0.044578 0.822008 0.581565
O O13 0.862636 0.076352 0.833260
O O14 0.775000 0.931040 0.799947
O O15 0.250000 0.250000 0.305032
O O16 0.345618 0.154383 0.250000
#
# Coordination Sequence:
#
# PCOD9567685 Si02
#       7
#    16  16  16  16  16  16  16
#     4  10  20  33  54  84 125 155 209 240 303 363
#     4   9  17  34  53  89 115 151 192 242 309 360
#     4  10  23  40  57  92 121 161 213 251 303 377
#     4  10  21  43  66  87 123 157 199 262 318 370
#     4  11  21  35  57  89 119 171 196 257 304 358
#     4  10  23  41  56  80 124 170 212 242 298 363
#     4  11  21  36  60  89 128 154 203 253 305 370
#
# _framework density 17.929901999999998
#
# number of rings (size 3 to 8) (size 9 to 14) (size 15 to 20)
#    0.000    1.857    5.714    0.857    6.000    5.429 
#    2.571    0.000    0.000    2.143    0.000    0.000 
#    0.000    0.000    0.000    0.000    0.000    0.000 
#
# Total GULP energy -623788.497666 kJ/mol
# GULP energy per Si atom -5569.540158 kJ/mol
# Density = 1.788909 g / cm^3
# Si number density = 17.929902 Si / 1000 Ang^3
#
#
#
# Elastic Constant Matrix: (Units=GPa)
#
#
# Indices 1 2 3 4 5 6 
#
# 1 81.1986 44.9212 33.7047 0.0000 0.0000 0.0000
# 2 44.9212 81.1984 33.7046 0.0000 0.0000 0.0000
# 3 33.7047 33.7046 86.5978 0.0000 0.0000 0.0000
# 4 0.0000 0.0000 0.0000 2.4295 0.0000 0.0000
# 5 0.0000 0.0000 0.0000 0.0000 2.4293 0.0000
# 6 0.0000 0.0000 0.0000 0.0000 0.0000 5.1032
#
#
#
# Elastic Compliance Matrix: (Units=1/GPa)
#
#
# Indices 1 2 3 4 5 6 
#
# 1 0.018789 -0.008777 -0.003897 0.000000 0.000000 0.000000
# 2 -0.008777 0.018789 -0.003897 0.000000 0.000000 0.000000
# 3 -0.003897 -0.003897 0.014581 0.000000 0.000000 0.000000
# 4 0.000000 0.000000 0.000000 0.411604 0.000000 0.000000
# 5 0.000000 0.000000 0.000000 0.000000 0.411641 0.000000
# 6 0.000000 0.000000 0.000000 0.000000 0.000000 0.195957
#
#
# Mechanical properties :
#
#
# Convention : Reuss Voigt Hill
#
# Bulk Modulus (GPa) = 52.58273 52.62845 52.60559
# Shear Modulus (GPa) = 4.50110 11.10335 7.80223
#
# Velocity S-wave (km/s) = 1.58614 2.49120 2.08829
# Velocity P-wave (km/s) = 5.72232 6.13929 5.93447
#
# Compressibility (1/GPa) = 0.01901765
#
# Stress axis : x y z
#
# Youngs Moduli (GPa) = 53.22394 53.22386 68.58308
#
# Poissons Ratio (x) = 0.46714 0.26724
# Poissons Ratio (y) = 0.46714 0.26724
# Poissons Ratio (z) = 0.20740 0.20739
#
# Static dielectric constant tensor:
#      x y z
#    x 1.700730 0.000000 0.000000 
#    y 0.000000 1.700730 0.000000 
#    z 0.000000 0.000000 1.621430 
# 
# From -- ./inp_files/7653.got.cif
#   From: 2010.05.17/outbox.cif.g08.bks.cpg/sg133_4_cif.got.tgz:7653.got - 2010.05.20 12:37:36.
