data_PCOD9567981
_publ_section_title
;
Structure prediction by ZEFSAII (Michael W. Deem and Ramdas Pophale) SiO2 
 PCOD9567981
Probable space group: P 42/N B C
;
_chemical_formula_sum "Si O2"
_cell_formula_units_Z 84
_cell_length_a 21.212107
_cell_length_b 21.212107
_cell_length_c 10.186386
_cell_angle_alpha 90.000000
_cell_angle_beta 90.000000
_cell_angle_gamma 90.000000
_cell_volume 4583.399864
_symmetry_space_group_name_H-M "P 42/N B C"
_symmetry_group_IT_number 133
_space_group.IT_coordinate_system_code '2'
_symmetry_cell_setting 'tetragonal'
loop_
_space_group_symop_operation_xyz
x,y,z
1/2-y,x,1/2+z
1/2-x,1/2-y,z
y,1/2-x,1/2+z
x,1/2-y,-z
1/2-x,y,-z
y,x,1/2-z
1/2-y,1/2-x,1/2-z
-x,-y,-z
1/2+y,-x,1/2-z
1/2+x,1/2+y,-z
-y,1/2+x,1/2-z
-x,1/2+y,z
1/2+x,-y,z
-y,-x,1/2+z
1/2+y,1/2+x,1/2+z
loop_
_atom_site_type_symbol
_atom_site_label
_atom_site_fract_x
_atom_site_fract_y
_atom_site_fract_z
Si Si1 0.102697 0.998173 0.784369
Si Si2 0.750000 0.250000 0.750000
Si Si3 0.179729 0.534687 0.465469
Si Si4 0.016799 0.818293 0.546625
Si Si5 0.818428 0.166519 0.934485
Si Si6 0.894198 0.995369 0.710704
O O1 0.059653 0.059653 0.750000
O O2 0.158325 0.984395 0.680451
O O3 0.056943 0.937794 0.767710
O O4 0.131082 0.997975 0.931647
O O5 0.810299 0.213177 0.812023
O O6 0.250000 0.514357 0.500000
O O7 0.177533 0.610962 0.488591
O O8 0.131008 0.501455 0.564090
O O9 0.995494 0.750000 0.500000
O O10 0.091704 0.815761 0.574421
O O11 0.990839 0.837717 0.686841
O O12 0.750000 0.182691 0.000000
O O13 0.938267 0.938267 0.750000
#
# Coordination Sequence:
#
# PCOD9567981 Si02
#       6
#    16   4  16  16  16  16
#     4  11  22  40  59  82 114 154 194 238 295 341
#     4  12  26  36  52  70 116 176 202 244 270 324
#     4  12  24  37  60  85 115 149 203 241 278 336
#     4  11  23  37  59  82 118 149 194 241 285 330
#     4  11  25  37  51  76 116 160 205 241 279 315
#     4  11  22  40  60  82 112 154 197 237 291 343
#
# _framework density 18.327007999999999
#
# number of rings (size 3 to 8) (size 9 to 14) (size 15 to 20)
#    0.000    0.762    3.810    3.714   10.667    3.048 
#    0.000    0.000    0.000    0.000    0.000    0.000 
#    0.000   53.333    0.000    0.000    0.000    0.000 
#
# Total GULP energy -468191.453017 kJ/mol
# GULP energy per Si atom -5573.707774 kJ/mol
# Density = 1.828529 g / cm^3
# Si number density = 18.327008 Si / 1000 Ang^3
#
#
#
# Elastic Constant Matrix: (Units=GPa)
#
#
# Indices 1 2 3 4 5 6 
#
# 1 37.8524 15.1384 -5.8344 0.0000 0.0000 0.0000
# 2 15.1384 37.8524 -5.8344 0.0000 0.0000 0.0000
# 3 -5.8344 -5.8344 42.1374 0.0000 0.0000 0.0000
# 4 0.0000 0.0000 0.0000 10.4601 0.0000 0.0000
# 5 0.0000 0.0000 0.0000 0.0000 10.4601 0.0000
# 6 0.0000 0.0000 0.0000 0.0000 0.0000 4.3607
#
#
#
# Elastic Compliance Matrix: (Units=1/GPa)
#
#
# Indices 1 2 3 4 5 6 
#
# 1 0.031745 -0.012281 0.002695 0.000000 0.000000 0.000000
# 2 -0.012281 0.031745 0.002695 0.000000 0.000000 0.000000
# 3 0.002695 0.002695 0.024478 0.000000 0.000000 0.000000
# 4 0.000000 0.000000 0.000000 0.095602 0.000000 0.000000
# 5 0.000000 0.000000 0.000000 0.000000 0.095602 0.000000
# 6 0.000000 0.000000 0.000000 0.000000 0.000000 0.229322
#
#
# Mechanical properties :
#
#
# Convention : Reuss Voigt Hill
#
# Bulk Modulus (GPa) = 13.47928 13.86460 13.67194
# Shear Modulus (GPa) = 9.14070 12.68100 10.91085
#
# Velocity S-wave (km/s) = 2.23571 2.63331 2.44261
# Velocity P-wave (km/s) = 3.74638 4.10211 3.92827
#
# Compressibility (1/GPa) = 0.07418795
#
# Stress axis : x y z
#
# Youngs Moduli (GPa) = 31.50083 31.50083 40.85269
#
# Poissons Ratio (x) = 0.38685 -0.11010
# Poissons Ratio (y) = 0.38685 -0.11010
# Poissons Ratio (z) = -0.08490 -0.08490
#
# Static dielectric constant tensor:
#      x y z
#    x 1.650390 0.000000 0.000000 
#    y 0.000000 1.650390 0.000000 
#    z 0.000000 0.000000 2.929950 
# 
# From -- ./inp_files/3312.got.cif
#   From: 2010.05.17/outbox.cif.g08.bks.cpg/sg133_2_cif.got.tgz:3312.got - 2010.05.20 12:37:36.
