data_PCOD9567114
_publ_section_title
;
Structure prediction by ZEFSAII (Michael W. Deem and Ramdas Pophale) SiO2 
 PCOD9567114
Probable space group: P 42/M C M
;
_chemical_formula_sum "Si O2"
_cell_formula_units_Z 96
_cell_length_a 24.977539
_cell_length_b 24.977539
_cell_length_c 8.067559
_cell_angle_alpha 90.000000
_cell_angle_beta 90.000000
_cell_angle_gamma 90.000000
_cell_volume 5033.168173
_symmetry_space_group_name_H-M "P 42/M C M"
_symmetry_group_IT_number 132
_symmetry_cell_setting 'tetragonal'
loop_
_space_group_symop_operation_xyz
x,y,z
-y,x,1/2+z
-x,-y,z
y,-x,1/2+z
x,-y,1/2-z
-x,y,1/2-z
y,x,-z
-y,-x,-z
-x,-y,-z
y,-x,1/2-z
x,y,-z
-y,x,1/2-z
-x,y,1/2+z
x,-y,1/2+z
-y,-x,z
y,x,z
loop_
_atom_site_type_symbol
_atom_site_label
_atom_site_fract_x
_atom_site_fract_y
_atom_site_fract_z
Si Si1 0.643630 0.147870 0.698038
Si Si2 0.147395 0.234306 0.202553
Si Si3 0.147316 0.061594 0.800369
Si Si4 0.441125 0.355905 0.199929
Si Si5 0.440739 0.938290 0.803639
Si Si6 0.440773 0.233731 0.799754
O O1 0.648036 0.154824 0.500000
O O2 0.704459 0.146288 0.762218
O O3 0.607918 0.095549 0.729834
O O4 0.606865 0.196366 0.763441
O O5 0.200103 0.200103 0.250359
O O6 0.095934 0.199146 0.255273
O O7 0.146761 0.235140 0.000000
O O8 0.095050 0.095050 0.743109
O O9 0.147791 0.000000 0.750000
O O10 0.147271 0.063328 0.000000
O O11 0.500000 0.374909 0.250000
O O12 0.395178 0.395178 0.261883
O O13 0.434924 0.294850 0.259608
O O14 0.438515 0.354657 0.000000
O O15 0.500000 0.918932 0.750000
O O16 0.436781 0.000000 0.750000
O O17 0.437983 0.934764 0.000000
O O18 0.500000 0.214660 0.750000
O O19 0.438907 0.233706 0.000000
#
# Coordination Sequence:
#
# PCOD9567114 Si02
#       6
#    16  16  16  16  16  16
#     4  10  19  32  53  79 103 132 172 211 250 300
#     4   8  16  32  52  74 102 135 170 209 250 294
#     4   9  18  33  52  74 101 132 165 202 244 288
#     4   9  18  32  48  68  95 125 160 202 247 297
#     4  11  22  37  55  76 105 137 170 210 257 305
#     4   9  18  31  48  70  96 126 159 199 245 291
#
# _framework density 19.073474000000001
#
# number of rings (size 3 to 8) (size 9 to 14) (size 15 to 20)
#    0.000    2.667    0.000    3.500    0.000    4.333 
#    0.000    7.500    0.000    1.500    0.000    2.333 
#    0.000    0.000    0.000    0.000    0.000    0.000 
#
# Total GULP energy -535418.340765 kJ/mol
# GULP energy per Si atom -5577.274383 kJ/mol
# Density = 1.903006 g / cm^3
# Si number density = 19.073474 Si / 1000 Ang^3
#
#
#
# Elastic Constant Matrix: (Units=GPa)
#
#
# Indices 1 2 3 4 5 6 
#
# 1 175.2393 107.3629 3.7217 0.0000 0.0000 0.0000
# 2 107.3629 175.2393 3.7217 0.0000 0.0000 0.0000
# 3 3.7217 3.7217 9.1699 0.0000 0.0000 0.0000
# 4 0.0000 0.0000 0.0000 18.4900 0.0000 0.0000
# 5 0.0000 0.0000 0.0000 0.0000 18.4900 0.0000
# 6 0.0000 0.0000 0.0000 0.0000 0.0000 13.2132
#
#
#
# Elastic Compliance Matrix: (Units=1/GPa)
#
#
# Indices 1 2 3 4 5 6 
#
# 1 0.009155 -0.005578 -0.001452 0.000000 0.000000 0.000000
# 2 -0.005578 0.009155 -0.001452 0.000000 0.000000 0.000000
# 3 -0.001452 -0.001452 0.110230 0.000000 0.000000 0.000000
# 4 0.000000 0.000000 0.000000 0.054083 0.000000 0.000000
# 5 0.000000 0.000000 0.000000 0.000000 0.054083 0.000000
# 6 0.000000 0.000000 0.000000 0.000000 0.000000 0.075682
#
#
# Mechanical properties :
#
#
# Convention : Reuss Voigt Hill
#
# Bulk Modulus (GPa) = 8.96241 65.47348 37.21795
# Shear Modulus (GPa) = 13.64095 26.36144 20.00120
#
# Velocity S-wave (km/s) = 2.67718 3.72169 3.24178
# Velocity P-wave (km/s) = 3.77697 7.27114 5.79375
#
# Compressibility (1/GPa) = 0.11157712
#
# Stress axis : x y z
#
# Youngs Moduli (GPa) = 109.23331 109.23331 9.07192
#
# Poissons Ratio (x) = 0.60930 0.01317
# Poissons Ratio (y) = 0.60930 0.01317
# Poissons Ratio (z) = 0.15857 0.15857
#
# Static dielectric constant tensor:
#      x y z
#    x 1.675980 0.000000 0.000000 
#    y 0.000000 1.675980 0.000000 
#    z 0.000000 0.000000 1.683860 
# 
# From -- ./inp_files/1765.got.cif
#   From: 2010.05.17/outbox.cif.g08.bks.cpg/sg132_1_cif.got.tgz:1765.got - 2010.05.20 12:30:18.
