data_PCOD9567383
_publ_section_title
;
Structure prediction by ZEFSAII (Michael W. Deem and Ramdas Pophale) SiO2 
 PCOD9567383
Probable space group: P 42/M C M
;
_chemical_formula_sum "Si O2"
_cell_formula_units_Z 64
_cell_length_a 13.394230
_cell_length_b 13.394230
_cell_length_c 18.601283
_cell_angle_alpha 90.000000
_cell_angle_beta 90.000000
_cell_angle_gamma 90.000000
_cell_volume 3337.170567
_symmetry_space_group_name_H-M "P 42/M C M"
_symmetry_group_IT_number 132
_symmetry_cell_setting 'tetragonal'
loop_
_space_group_symop_operation_xyz
x,y,z
-y,x,1/2+z
-x,-y,z
y,-x,1/2+z
x,-y,1/2-z
-x,y,1/2-z
y,x,-z
-y,-x,-z
-x,-y,-z
y,-x,1/2-z
x,y,-z
-y,x,1/2-z
-x,y,1/2+z
x,-y,1/2+z
-y,-x,z
y,x,z
loop_
_atom_site_type_symbol
_atom_site_label
_atom_site_fract_x
_atom_site_fract_y
_atom_site_fract_z
Si Si1 0.117511 0.490172 0.417192
Si Si2 0.226590 0.394602 0.287006
Si Si3 0.991753 0.836306 0.416263
Si Si4 0.137466 0.305777 0.150526
O O1 0.128076 0.460623 0.500000
O O2 0.174585 0.418664 0.362371
O O3 0.156707 0.602136 0.402636
O O4 0.000000 0.500000 0.399697
O O5 0.257260 0.500000 0.250000
O O6 0.319032 0.319032 0.293371
O O7 0.147698 0.347151 0.230924
O O8 0.982988 0.806010 0.500000
O O9 0.889185 0.889185 0.393033
O O10 0.033552 0.746970 0.368996
O O11 0.076348 0.923653 0.414265
O O12 0.223302 0.223302 0.141063
#
# Coordination Sequence:
#
# PCOD9567383 Si02
#       4
#    16  16  16  16
#     4  10  21  36  55  79 107 142 184 230 278 326
#     4   9  19  35  56  81 109 144 183 228 283 339
#     4   8  13  22  40  70 107 141 171 209 255 299
#     4   9  17  31  53  79 106 140 182 220 259 321
#
# _framework density 19.177921999999999
#
# number of rings (size 3 to 8) (size 9 to 14) (size 15 to 20)
#    0.000    3.000    0.000    1.500    0.000    6.750 
#    0.000    1.250    0.000    3.000    0.000    7.000 
#    0.000    0.000    0.000    9.750    0.000    0.000 
#
# Total GULP energy -357078.982570 kJ/mol
# GULP energy per Si atom -5579.359103 kJ/mol
# Density = 1.913427 g / cm^3
# Si number density = 19.177922 Si / 1000 Ang^3
#
#
#
# Elastic Constant Matrix: (Units=GPa)
#
#
# Indices 1 2 3 4 5 6 
#
# 1 91.9920 49.9386 69.9626 0.0000 0.0000 0.0000
# 2 49.9386 91.9920 69.9626 0.0000 0.0000 0.0000
# 3 69.9626 69.9626 103.7309 0.0000 0.0000 0.0000
# 4 0.0000 0.0000 0.0000 16.3679 0.0000 0.0000
# 5 0.0000 0.0000 0.0000 0.0000 16.3679 0.0000
# 6 0.0000 0.0000 0.0000 0.0000 0.0000 21.1225
#
#
#
# Elastic Compliance Matrix: (Units=1/GPa)
#
#
# Indices 1 2 3 4 5 6 
#
# 1 0.022404 -0.001376 -0.014182 0.000000 0.000000 0.000000
# 2 -0.001376 0.022404 -0.014182 0.000000 0.000000 0.000000
# 3 -0.014182 -0.014182 0.028771 0.000000 0.000000 0.000000
# 4 0.000000 0.000000 0.000000 0.061095 0.000000 0.000000
# 5 0.000000 0.000000 0.000000 0.000000 0.061095 0.000000
# 6 0.000000 0.000000 0.000000 0.000000 0.000000 0.047343
#
#
# Mechanical properties :
#
#
# Convention : Reuss Voigt Hill
#
# Bulk Modulus (GPa) = 70.93637 74.16028 72.54832
# Shear Modulus (GPa) = 16.27117 17.29506 16.78312
#
# Velocity S-wave (km/s) = 2.91595 3.00629 2.96146
# Velocity P-wave (km/s) = 6.95743 7.12769 7.04307
#
# Compressibility (1/GPa) = 0.01409714
#
# Stress axis : x y z
#
# Youngs Moduli (GPa) = 44.63585 44.63585 34.75680
#
# Poissons Ratio (x) = 0.06141 0.49294
# Poissons Ratio (y) = 0.06141 0.49294
# Poissons Ratio (z) = 0.63304 0.63304
#
# Static dielectric constant tensor:
#      x y z
#    x 1.679770 0.000000 0.000000 
#    y 0.000000 1.679770 0.000000 
#    z 0.000000 0.000000 1.658290 
# 
# From -- ./inp_files/7438.got.cif
#   From: 2010.05.17/outbox.cif.g08.bks.cpg/sg132_4_cif.got.tgz:7438.got - 2010.05.20 12:30:18.
