data_PCOD9567444
_publ_section_title
;
Structure prediction by ZEFSAII (Michael W. Deem and Ramdas Pophale) SiO2 
 PCOD9567444
Probable space group: P 42/M C M
;
_chemical_formula_sum "Si O2"
_cell_formula_units_Z 72
_cell_length_a 16.460878
_cell_length_b 16.460878
_cell_length_c 14.700784
_cell_angle_alpha 90.000000
_cell_angle_beta 90.000000
_cell_angle_gamma 90.000000
_cell_volume 3983.331850
_symmetry_space_group_name_H-M "P 42/M C M"
_symmetry_group_IT_number 132
_symmetry_cell_setting 'tetragonal'
loop_
_space_group_symop_operation_xyz
x,y,z
-y,x,1/2+z
-x,-y,z
y,-x,1/2+z
x,-y,1/2-z
-x,y,1/2-z
y,x,-z
-y,-x,-z
-x,-y,-z
y,-x,1/2-z
x,y,-z
-y,x,1/2-z
-x,y,1/2+z
x,-y,1/2+z
-y,-x,z
y,x,z
loop_
_atom_site_type_symbol
_atom_site_label
_atom_site_fract_x
_atom_site_fract_y
_atom_site_fract_z
Si Si1 0.166590 0.697092 0.391541
Si Si2 0.066638 0.933362 0.888907
Si Si3 0.728896 0.404973 0.260386
Si Si4 0.989064 0.245049 0.110796
Si Si5 0.179651 0.688035 0.105619
O O1 0.164455 0.682336 0.500000
O O2 0.226039 0.773962 0.374998
O O3 0.208011 0.622444 0.339077
O O4 0.076490 0.722028 0.359632
O O5 0.035721 0.845180 0.857766
O O6 0.070867 0.929134 0.000000
O O7 0.000000 0.000000 0.864948
O O8 0.715247 0.500000 0.250000
O O9 0.646567 0.353434 0.275487
O O10 0.770287 0.371589 0.168619
O O11 0.913579 0.302711 0.133817
O O12 0.992572 0.241163 0.000000
O O13 0.224033 0.775968 0.113148
O O14 0.183634 0.664704 0.000000
#
# Coordination Sequence:
#
# PCOD9567444 Si02
#       5
#    16   8  16  16  16
#     4   9  18  33  52  76 110 148 179 211 256 310
#     4   9  14  20  38  72 108 140 184 232 256 277
#     4  10  22  39  59  81 100 127 166 213 274 335
#     4   9  15  26  46  74 106 145 187 218 249 288
#     4   9  17  32  53  77 106 141 178 215 254 300
#
# _framework density 18.075320000000001
#
# number of rings (size 3 to 8) (size 9 to 14) (size 15 to 20)
#    0.000    2.778    1.111    0.667    0.000    4.667 
#    0.000    2.222    0.000    4.000    0.000    6.222 
#    0.000    0.000    0.000    0.000    0.000    0.000 
#
# Total GULP energy -401629.391016 kJ/mol
# GULP energy per Si atom -5578.185986 kJ/mol
# Density = 1.803418 g / cm^3
# Si number density = 18.075320 Si / 1000 Ang^3
#
#
#
# Elastic Constant Matrix: (Units=GPa)
#
#
# Indices 1 2 3 4 5 6 
#
# 1 126.3656 49.8180 25.5084 0.0000 0.0000 0.0000
# 2 49.8180 126.3656 25.5084 0.0000 0.0000 0.0000
# 3 25.5084 25.5084 55.1298 0.0000 0.0000 0.0000
# 4 0.0000 0.0000 0.0000 10.5011 0.0000 0.0000
# 5 0.0000 0.0000 0.0000 0.0000 10.5011 0.0000
# 6 0.0000 0.0000 0.0000 0.0000 0.0000 11.1700
#
#
#
# Elastic Compliance Matrix: (Units=1/GPa)
#
#
# Indices 1 2 3 4 5 6 
#
# 1 0.009809 -0.003255 -0.003033 0.000000 0.000000 0.000000
# 2 -0.003255 0.009809 -0.003033 0.000000 0.000000 0.000000
# 3 -0.003033 -0.003033 0.020945 0.000000 0.000000 0.000000
# 4 0.000000 0.000000 0.000000 0.095228 0.000000 0.000000
# 5 0.000000 0.000000 0.000000 0.000000 0.095229 0.000000
# 6 0.000000 0.000000 0.000000 0.000000 0.000000 0.089526
#
#
# Mechanical properties :
#
#
# Convention : Reuss Voigt Hill
#
# Bulk Modulus (GPa) = 45.61374 56.61453 51.11414
# Shear Modulus (GPa) = 14.43031 20.23617 17.33324
#
# Velocity S-wave (km/s) = 2.82856 3.34959 3.10004
# Velocity P-wave (km/s) = 5.99649 6.80802 6.41510
#
# Compressibility (1/GPa) = 0.02192322
#
# Stress axis : x y z
#
# Youngs Moduli (GPa) = 101.94835 101.94832 47.74339
#
# Poissons Ratio (x) = 0.33183 0.14478
# Poissons Ratio (y) = 0.33183 0.14478
# Poissons Ratio (z) = 0.30916 0.30916
#
# Static dielectric constant tensor:
#      x y z
#    x 1.599890 0.000000 0.000000 
#    y 0.000000 1.599890 0.000000 
#    z 0.000000 0.000000 1.672570 
# 
# From -- ./inp_files/6176.got.cif
#   From: 2010.05.17/outbox.cif.g08.bks.cpg/sg132_4_cif.got.tgz:6176.got - 2010.05.20 12:30:18.
