data_PCOD9567086
_publ_section_title
;
Structure prediction by ZEFSAII (Michael W. Deem and Ramdas Pophale) SiO2 
 PCOD9567086
Probable space group: P 42/M C M
;
_chemical_formula_sum "Si O2"
_cell_formula_units_Z 96
_cell_length_a 26.521719
_cell_length_b 26.521719
_cell_length_c 8.524736
_cell_angle_alpha 90.000000
_cell_angle_beta 90.000000
_cell_angle_gamma 90.000000
_cell_volume 5996.312761
_symmetry_space_group_name_H-M "P 42/M C M"
_symmetry_group_IT_number 132
_symmetry_cell_setting 'tetragonal'
loop_
_space_group_symop_operation_xyz
x,y,z
-y,x,1/2+z
-x,-y,z
y,-x,1/2+z
x,-y,1/2-z
-x,y,1/2-z
y,x,-z
-y,-x,-z
-x,-y,-z
y,-x,1/2-z
x,y,-z
-y,x,1/2-z
-x,y,1/2+z
x,-y,1/2+z
-y,-x,z
y,x,z
loop_
_atom_site_type_symbol
_atom_site_label
_atom_site_fract_x
_atom_site_fract_y
_atom_site_fract_z
Si Si1 0.840201 0.308953 0.812298
Si Si2 0.189538 0.577959 0.810604
Si Si3 0.447789 0.078971 0.688328
Si Si4 0.744302 0.255699 0.687492
Si Si5 0.947201 0.337894 0.686532
Si Si6 0.553227 0.699544 0.310963
Si Si7 0.660343 0.339658 0.688900
O O1 0.816075 0.363332 0.770241
O O2 0.799791 0.269922 0.747321
O O3 0.896870 0.309658 0.745818
O O4 0.843185 0.305909 0.000000
O O5 0.137479 0.553705 0.756035
O O6 0.242212 0.556629 0.752544
O O7 0.190073 0.574076 0.000000
O O8 0.500000 0.056773 0.750000
O O9 0.446575 0.076902 0.500000
O O10 0.395574 0.056722 0.751276
O O11 0.743363 0.256638 0.500000
O O12 0.702313 0.297688 0.741651
O O13 0.947613 0.338608 0.500000
O O14 0.000000 0.316615 0.750000
O O15 0.500000 0.678152 0.250000
O O16 0.553430 0.698649 0.500000
O O17 0.604706 0.674446 0.250460
O O18 0.660289 0.339712 0.500000
#
# Coordination Sequence:
#
# PCOD9567086 Si02
#       7
#    16  16  16   8  16  16   8
#     4  10  19  34  54  77 104 136 170 208 255 306
#     4   8  16  29  47  70  97 127 159 195 243 297
#     4  10  19  32  47  68  93 125 165 210 257 301
#     4  11  21  33  53  83 112 138 169 210 258 309
#     4  11  22  37  53  71  95 129 171 216 258 305
#     4  11  21  35  53  75 100 131 161 195 241 297
#     4  11  23  37  53  78 106 133 163 199 242 296
#
# _framework density 16.009837999999998
#
# number of rings (size 3 to 8) (size 9 to 14) (size 15 to 20)
#    0.000    1.833    1.667    5.000    0.000    1.000 
#    0.000    3.333    0.000    0.250    0.000    1.750 
#    0.000    0.000    0.000    0.000    0.000    0.417 
#
# Total GULP energy -535716.044201 kJ/mol
# GULP energy per Si atom -5580.375460 kJ/mol
# Density = 1.597340 g / cm^3
# Si number density = 16.009838 Si / 1000 Ang^3
#
#
#
# Elastic Constant Matrix: (Units=GPa)
#
#
# Indices 1 2 3 4 5 6 
#
# 1 105.5365 58.6255 34.9763 0.0000 0.0000 0.0000
# 2 58.6255 105.5362 34.9763 0.0000 0.0000 0.0000
# 3 34.9763 34.9763 80.6549 0.0000 0.0000 0.0000
# 4 0.0000 0.0000 0.0000 21.4971 0.0000 0.0000
# 5 0.0000 0.0000 0.0000 0.0000 21.4971 0.0000
# 6 0.0000 0.0000 0.0000 0.0000 0.0000 -11.5466
#
#
#
# Elastic Compliance Matrix: (Units=1/GPa)
#
#
# Indices 1 2 3 4 5 6 
#
# 1 0.014395 -0.006922 -0.003240 0.000000 0.000000 0.000000
# 2 -0.006922 0.014395 -0.003240 0.000000 0.000000 0.000000
# 3 -0.003240 -0.003240 0.015209 0.000000 0.000000 0.000000
# 4 0.000000 0.000000 0.000000 0.046518 0.000000 0.000000
# 5 0.000000 0.000000 0.000000 0.000000 0.046518 0.000000
# 6 0.000000 0.000000 0.000000 0.000000 0.000000 -0.086605
#
#
# Mechanical properties :
#
#
# Convention : Reuss Voigt Hill
#
# Bulk Modulus (GPa) = 58.16665 60.98712 59.57689
# Shear Modulus (GPa) = 60.26588 17.16616 38.71602
#
# Velocity S-wave (km/s) = 6.14205 3.27804 4.92292
# Velocity P-wave (km/s) = 9.31184 7.24594 8.34308
#
# Compressibility (1/GPa) = 0.01719198
#
# Stress axis : x y z
#
# Youngs Moduli (GPa) = 69.47016 69.46995 65.75079
#
# Poissons Ratio (x) = 0.48089 0.21306
# Poissons Ratio (y) = 0.48090 0.21306
# Poissons Ratio (z) = 0.22511 0.22511
#
# Static dielectric constant tensor:
#      x y z
#    x 1.549900 0.000000 0.000000 
#    y 0.000000 1.549900 0.000000 
#    z 0.000000 0.000000 1.534510 
# 
# From -- ./inp_files/1841.got.cif
#   From: 2010.05.17/outbox.cif.g08.bks.cpg/sg132_1_cif.got.tgz:1841.got - 2010.05.20 12:30:18.
