data_PCOD9567924
_publ_section_title
;
Structure prediction by ZEFSAII (Michael W. Deem and Ramdas Pophale) SiO2 
 PCOD9567924
Probable space group: P 42/N B C
;
_chemical_formula_sum "Si O2"
_cell_formula_units_Z 60
_cell_length_a 17.946848
_cell_length_b 17.946848
_cell_length_c 8.302881
_cell_angle_alpha 90.000000
_cell_angle_beta 90.000000
_cell_angle_gamma 90.000000
_cell_volume 2674.269570
_symmetry_space_group_name_H-M "P 42/N B C"
_symmetry_group_IT_number 133
_space_group.IT_coordinate_system_code '2'
_symmetry_cell_setting 'tetragonal'
loop_
_space_group_symop_operation_xyz
x,y,z
1/2-y,x,1/2+z
1/2-x,1/2-y,z
y,1/2-x,1/2+z
x,1/2-y,-z
1/2-x,y,-z
y,x,1/2-z
1/2-y,1/2-x,1/2-z
-x,-y,-z
1/2+y,-x,1/2-z
1/2+x,1/2+y,-z
-y,1/2+x,1/2-z
-x,1/2+y,z
1/2+x,-y,z
-y,-x,1/2+z
1/2+y,1/2+x,1/2+z
loop_
_atom_site_type_symbol
_atom_site_label
_atom_site_fract_x
_atom_site_fract_y
_atom_site_fract_z
Si Si1 0.006829 0.375778 0.795486
Si Si2 0.469647 0.873316 0.569807
Si Si3 0.250000 0.750000 0.250000
Si Si4 0.129045 0.129045 0.750000
Si Si5 0.080802 0.250000 0.000000
Si Si6 0.133945 0.750000 0.500000
O O1 0.082852 0.417149 0.750000
O O2 0.028146 0.304576 0.897883
O O3 0.951879 0.431464 0.889284
O O4 0.973337 0.361784 0.621380
O O5 0.550214 0.868597 0.653547
O O6 0.414910 0.805651 0.608363
O O7 0.189457 0.713489 0.369079
O O8 0.127393 0.197130 0.877529
#
# Coordination Sequence:
#
# PCOD9567924 Si02
#       6
#    16  16   4   8   8   8
#     4  12  24  47  74 113 145 199 247 321 377 454
#     4  12  24  44  78 110 154 190 252 307 382 461
#     4  10  24  46  64 110 152 186 236 294 384 442
#     4  12  26  50  75 112 142 201 250 326 378 466
#     4  12  28  48  79 101 152 192 260 308 396 449
#     4  11  24  42  70 103 148 196 234 297 368 460
#
# _framework density 22.436032999999998
#
# number of rings (size 3 to 8) (size 9 to 14) (size 15 to 20)
#    0.000    0.267    4.000    5.600    0.000    4.267 
#    0.000    2.000    0.000    0.000    0.000    0.000 
#    0.000    0.000    0.000    0.000    0.000    0.000 
#
# Total GULP energy -335386.506004 kJ/mol
# GULP energy per Si atom -5589.775100 kJ/mol
# Density = 2.238497 g / cm^3
# Si number density = 22.436033 Si / 1000 Ang^3
#
#
#
# Elastic Constant Matrix: (Units=GPa)
#
#
# Indices 1 2 3 4 5 6 
#
# 1 131.2809 54.1266 70.8800 0.0000 0.0000 0.0000
# 2 54.1266 131.2876 70.8787 0.0000 0.0000 0.0000
# 3 70.8800 70.8787 149.1566 0.0000 0.0000 0.0000
# 4 0.0000 0.0000 0.0000 42.8762 0.0000 0.0000
# 5 0.0000 0.0000 0.0000 0.0000 42.8739 0.0000
# 6 0.0000 0.0000 0.0000 0.0000 0.0000 20.2337
#
#
#
# Elastic Compliance Matrix: (Units=1/GPa)
#
#
# Indices 1 2 3 4 5 6 
#
# 1 0.010716 -0.002245 -0.004026 0.000000 0.000000 0.000000
# 2 -0.002245 0.010715 -0.004025 0.000000 0.000000 0.000000
# 3 -0.004026 -0.004025 0.010530 0.000000 0.000000 0.000000
# 4 0.000000 0.000000 0.000000 0.023323 0.000000 0.000000
# 5 0.000000 0.000000 0.000000 0.000000 0.023324 0.000000
# 6 0.000000 0.000000 0.000000 0.000000 0.000000 0.049423
#
#
# Mechanical properties :
#
#
# Convention : Reuss Voigt Hill
#
# Bulk Modulus (GPa) = 87.94656 89.27729 88.61192
# Shear Modulus (GPa) = 32.80556 35.58609 34.19582
#
# Velocity S-wave (km/s) = 3.82800 3.98692 3.90827
# Velocity P-wave (km/s) = 7.66955 7.81488 7.74256
#
# Compressibility (1/GPa) = 0.01137054
#
# Stress axis : x y z
#
# Youngs Moduli (GPa) = 93.31601 93.32366 94.96476
#
# Poissons Ratio (x) = 0.20948 0.38231
# Poissons Ratio (y) = 0.20946 0.38226
# Poissons Ratio (z) = 0.37567 0.37565
#
# Static dielectric constant tensor:
#      x y z
#    x 1.928940 0.000000 0.000000 
#    y 0.000000 1.928940 0.000000 
#    z 0.000000 0.000000 1.981520 
# 
# From -- ./inp_files/1383.got.cif
#   From: 2010.05.17/outbox.cif.g08.bks.cpg/sg133_1_cif.got.tgz:1383.got - 2010.05.20 12:37:36.
