data_PCOD9567485
_publ_section_title
;
Structure prediction by ZEFSAII (Michael W. Deem and Ramdas Pophale) SiO2 
 PCOD9567485
Probable space group: P 42/M C M
;
_chemical_formula_sum "Si O2"
_cell_formula_units_Z 84
_cell_length_a 14.146008
_cell_length_b 14.146008
_cell_length_c 23.594128
_cell_angle_alpha 90.000000
_cell_angle_beta 90.000000
_cell_angle_gamma 90.000000
_cell_volume 4721.410156
_symmetry_space_group_name_H-M "P 42/M C M"
_symmetry_group_IT_number 132
_symmetry_cell_setting 'tetragonal'
loop_
_space_group_symop_operation_xyz
x,y,z
-y,x,1/2+z
-x,-y,z
y,-x,1/2+z
x,-y,1/2-z
-x,y,1/2-z
y,x,-z
-y,-x,-z
-x,-y,-z
y,-x,1/2-z
x,y,-z
-y,x,1/2-z
-x,y,1/2+z
x,-y,1/2+z
-y,-x,z
y,x,z
loop_
_atom_site_type_symbol
_atom_site_label
_atom_site_fract_x
_atom_site_fract_y
_atom_site_fract_z
Si Si1 0.148575 0.851426 0.854346
Si Si2 0.127725 0.638447 0.146463
Si Si3 0.399298 0.248600 0.754820
Si Si4 0.144145 0.855856 0.715857
Si Si5 0.471721 0.889583 0.436374
Si Si6 0.000000 0.000000 0.161381
Si Si7 0.911824 0.349747 0.666695
O O1 0.253619 0.875924 0.874764
O O2 0.150257 0.849744 0.784416
O O3 0.070872 0.929129 0.870987
O O4 0.205732 0.632502 0.195114
O O5 0.150301 0.560289 0.099272
O O6 0.022161 0.624141 0.172289
O O7 0.500000 0.298187 0.750000
O O8 0.318178 0.318178 0.776500
O O9 0.411961 0.158474 0.795445
O O10 0.109802 0.756217 0.688861
O O11 0.067356 0.932645 0.697995
O O12 0.461274 0.852095 0.500000
O O13 0.377485 0.885284 0.397827
O O14 0.500000 0.000000 0.440422
#
# Coordination Sequence:
#
# PCOD9567485 Si02
#       7
#     8  16  16   8  16   4  16
#     4  12  21  32  49  83 124 165 188 217 265 338
#     4  11  20  32  56  82 112 148 185 228 282 332
#     4  12  23  36  55  81 115 145 182 226 278 346
#     4  12  21  32  49  83 124 165 188 217 265 338
#     4   9  20  37  55  79 105 135 184 246 299 329
#     4  12  25  32  48  80 137 174 189 212 260 333
#     4  11  20  32  56  82 112 148 185 228 282 332
#
# _framework density 17.791295000000002
#
# number of rings (size 3 to 8) (size 9 to 14) (size 15 to 20)
#    0.000    0.952    7.619    1.429    0.000    0.952 
#    0.000    0.952    0.000    0.000    0.000    2.667 
#    0.000    1.524    0.000    0.000    0.000    0.000 
#
# Total GULP energy -468438.235424 kJ/mol
# GULP energy per Si atom -5576.645660 kJ/mol
# Density = 1.775080 g / cm^3
# Si number density = 17.791295 Si / 1000 Ang^3
#
#
#
# Elastic Constant Matrix: (Units=GPa)
#
#
# Indices 1 2 3 4 5 6 
#
# 1 75.5404 9.3357 8.3690 0.0000 0.0000 0.0000
# 2 9.3357 75.5404 8.3690 0.0000 0.0000 0.0000
# 3 8.3690 8.3690 64.5898 0.0000 0.0000 0.0000
# 4 0.0000 0.0000 0.0000 12.7284 0.0000 0.0000
# 5 0.0000 0.0000 0.0000 0.0000 12.7284 0.0000
# 6 0.0000 0.0000 0.0000 0.0000 0.0000 14.4233
#
#
#
# Elastic Compliance Matrix: (Units=1/GPa)
#
#
# Indices 1 2 3 4 5 6 
#
# 1 0.013598 -0.001507 -0.001567 0.000000 0.000000 0.000000
# 2 -0.001507 0.013598 -0.001567 0.000000 0.000000 0.000000
# 3 -0.001567 -0.001567 0.015888 0.000000 0.000000 0.000000
# 4 0.000000 0.000000 0.000000 0.078565 0.000000 0.000000
# 5 0.000000 0.000000 0.000000 0.000000 0.078565 0.000000
# 6 0.000000 0.000000 0.000000 0.000000 0.000000 0.069332
#
#
# Mechanical properties :
#
#
# Convention : Reuss Voigt Hill
#
# Bulk Modulus (GPa) = 29.58278 29.75755 29.67016
# Shear Modulus (GPa) = 17.23581 20.61579 18.92580
#
# Velocity S-wave (km/s) = 3.11590 3.40775 3.26508
# Velocity P-wave (km/s) = 5.44140 5.67854 5.56124
#
# Compressibility (1/GPa) = 0.03380345
#
# Stress axis : x y z
#
# Youngs Moduli (GPa) = 73.54157 73.54157 62.93934
#
# Poissons Ratio (x) = 0.11082 0.09860
# Poissons Ratio (y) = 0.11082 0.09860
# Poissons Ratio (z) = 0.11521 0.11521
#
# Static dielectric constant tensor:
#      x y z
#    x 1.655160 0.000000 0.000000 
#    y 0.000000 1.655160 0.000000 
#    z 0.000000 0.000000 1.609710 
# 
# From -- ./inp_files/7807.got.cif
#   From: 2010.05.17/outbox.cif.g08.bks.cpg/sg132_4_cif.got.tgz:7807.got - 2010.05.20 12:30:18.
