data_PCOD9567877
_publ_section_title
;
Structure prediction by ZEFSAII (Michael W. Deem and Ramdas Pophale) SiO2 
 PCOD9567877
Probable space group: P 42/N B C
;
_chemical_formula_sum "Si O2"
_cell_formula_units_Z 96
_cell_length_a 14.782368
_cell_length_b 14.782368
_cell_length_c 20.212998
_cell_angle_alpha 90.000000
_cell_angle_beta 90.000000
_cell_angle_gamma 90.000000
_cell_volume 4416.912057
_symmetry_space_group_name_H-M "P 42/N B C"
_symmetry_group_IT_number 133
_space_group.IT_coordinate_system_code '2'
_symmetry_cell_setting 'tetragonal'
loop_
_space_group_symop_operation_xyz
x,y,z
1/2-y,x,1/2+z
1/2-x,1/2-y,z
y,1/2-x,1/2+z
x,1/2-y,-z
1/2-x,y,-z
y,x,1/2-z
1/2-y,1/2-x,1/2-z
-x,-y,-z
1/2+y,-x,1/2-z
1/2+x,1/2+y,-z
-y,1/2+x,1/2-z
-x,1/2+y,z
1/2+x,-y,z
-y,-x,1/2+z
1/2+y,1/2+x,1/2+z
loop_
_atom_site_type_symbol
_atom_site_label
_atom_site_fract_x
_atom_site_fract_y
_atom_site_fract_z
Si Si1 0.675977 0.527201 0.257943
Si Si2 0.440640 0.711734 0.567828
Si Si3 0.593201 0.924579 0.401009
Si Si4 0.362658 0.137343 0.750000
Si Si5 0.708024 0.407146 0.384055
Si Si6 0.876742 0.419151 0.863587
Si Si7 0.750000 0.524358 0.500000
O O1 0.588848 0.588848 0.250000
O O2 0.760718 0.595139 0.244703
O O3 0.692090 0.481820 0.328455
O O4 0.650517 0.442136 0.211027
O O5 0.399760 0.750000 0.500000
O O6 0.519640 0.639217 0.564999
O O7 0.364277 0.672533 0.616189
O O8 0.478782 0.802934 0.599003
O O9 0.609645 0.898520 0.323618
O O10 0.683012 0.925949 0.447887
O O11 0.555615 0.025627 0.391563
O O12 0.811342 0.373776 0.377483
O O13 0.692385 0.457109 0.453905
#
# Coordination Sequence:
#
# PCOD9567877 Si02
#       7
#    16  16  16   8  16  16   8
#     4  12  26  43  75 109 147 199 255 315 384 451
#     4  12  26  45  71 108 145 193 247 307 375 463
#     4  11  25  47  76 105 153 191 254 312 378 455
#     4  12  23  52  72 108 148 195 254 320 372 455
#     4  11  25  44  74 106 149 196 244 315 379 458
#     4  11  25  44  72 108 145 193 245 312 384 445
#     4  10  22  48  74 100 142 208 240 306 394 442
#
# _framework density 21.734642999999998
#
# number of rings (size 3 to 8) (size 9 to 14) (size 15 to 20)
#    0.000    0.667    5.000    3.750    5.833    4.667 
#    0.000    0.417    0.000    0.000    0.000    0.000 
#    0.000    0.000    0.000    0.000    0.000    0.000 
#
# Total GULP energy -534854.895783 kJ/mol
# GULP energy per Si atom -5571.405164 kJ/mol
# Density = 2.168517 g / cm^3
# Si number density = 21.734643 Si / 1000 Ang^3
#
#
#
# Elastic Constant Matrix: (Units=GPa)
#
#
# Indices 1 2 3 4 5 6 
#
# 1 90.9893 41.1657 38.8115 0.0000 0.0000 0.0000
# 2 41.1657 90.9890 38.8124 0.0000 0.0000 0.0000
# 3 38.8115 38.8124 100.8558 0.0000 0.0000 0.0000
# 4 0.0000 0.0000 0.0000 32.5109 0.0000 0.0000
# 5 0.0000 0.0000 0.0000 0.0000 32.5107 0.0000
# 6 0.0000 0.0000 0.0000 0.0000 0.0000 24.6471
#
#
#
# Elastic Compliance Matrix: (Units=1/GPa)
#
#
# Indices 1 2 3 4 5 6 
#
# 1 0.014924 -0.005147 -0.003762 0.000000 0.000000 0.000000
# 2 -0.005147 0.014924 -0.003762 0.000000 0.000000 0.000000
# 3 -0.003762 -0.003762 0.012811 0.000000 0.000000 0.000000
# 4 0.000000 0.000000 0.000000 0.030759 0.000000 0.000000
# 5 0.000000 0.000000 0.000000 0.000000 0.030759 0.000000
# 6 0.000000 0.000000 0.000000 0.000000 0.000000 0.040573
#
#
# Mechanical properties :
#
#
# Convention : Reuss Voigt Hill
#
# Bulk Modulus (GPa) = 57.75349 57.82371 57.78860
# Shear Modulus (GPa) = 28.43101 28.87005 28.65053
#
# Velocity S-wave (km/s) = 3.62069 3.64853 3.63464
# Velocity P-wave (km/s) = 6.64145 6.66417 6.65282
#
# Compressibility (1/GPa) = 0.01731497
#
# Stress axis : x y z
#
# Youngs Moduli (GPa) = 67.00743 67.00652 78.05882
#
# Poissons Ratio (x) = 0.34488 0.29368
# Poissons Ratio (y) = 0.34489 0.29370
# Poissons Ratio (z) = 0.25210 0.25211
#
# Static dielectric constant tensor:
#      x y z
#    x 1.792830 0.000000 0.000000 
#    y 0.000000 1.792830 0.000000 
#    z 0.000000 0.000000 2.094310 
# 
# From -- ./inp_files/6570.got.cif
#   From: 2010.05.17/outbox.cif.g08.bks.cpg/sg133_4_cif.got.tgz:6570.got - 2010.05.20 12:37:36.
