data_PCOD9567614
_publ_section_title
;
Structure prediction by ZEFSAII (Michael W. Deem and Ramdas Pophale) SiO2 
 PCOD9567614
Probable space group: P 42/N B C
;
_chemical_formula_sum "Si O2"
_cell_formula_units_Z 88
_cell_length_a 16.405728
_cell_length_b 16.405728
_cell_length_c 14.068938
_cell_angle_alpha 90.000000
_cell_angle_beta 90.000000
_cell_angle_gamma 90.000000
_cell_volume 3786.625276
_symmetry_space_group_name_H-M "P 42/N B C"
_symmetry_group_IT_number 133
_space_group.IT_coordinate_system_code '2'
_symmetry_cell_setting 'tetragonal'
loop_
_space_group_symop_operation_xyz
x,y,z
1/2-y,x,1/2+z
1/2-x,1/2-y,z
y,1/2-x,1/2+z
x,1/2-y,-z
1/2-x,y,-z
y,x,1/2-z
1/2-y,1/2-x,1/2-z
-x,-y,-z
1/2+y,-x,1/2-z
1/2+x,1/2+y,-z
-y,1/2+x,1/2-z
-x,1/2+y,z
1/2+x,-y,z
-y,-x,1/2+z
1/2+y,1/2+x,1/2+z
loop_
_atom_site_type_symbol
_atom_site_label
_atom_site_fract_x
_atom_site_fract_y
_atom_site_fract_z
Si Si1 0.925766 0.750000 0.000000
Si Si2 0.094448 0.417188 0.958045
Si Si3 0.910262 0.069847 0.080244
Si Si4 0.277915 0.864353 0.206658
Si Si5 0.542422 0.957578 0.750000
Si Si6 0.034742 0.219628 0.802229
Si Si7 0.363551 0.136450 0.750000
O O1 0.872665 0.668041 0.000865
O O2 0.980403 0.747402 0.093303
O O3 0.112852 0.413932 0.845336
O O4 0.995696 0.409868 0.971279
O O5 0.124380 0.496534 0.014347
O O6 0.838811 0.131141 0.115417
O O7 0.944454 0.032548 0.179992
O O8 0.323233 0.811604 0.290166
O O9 0.265290 0.957728 0.235893
O O10 0.624052 0.953994 0.688744
O O11 0.112833 0.270152 0.768112
#
# Coordination Sequence:
#
# PCOD9567614 Si02
#       7
#     8  16  16  16   8  16   8
#     4  10  18  36  60  94 124 158 206 274 326 388
#     4  10  20  36  63  96 131 170 225 274 329 401
#     4  10  20  36  63  97 125 173 225 272 324 397
#     4  10  21  39  63  90 132 176 218 275 349 410
#     4  10  19  37  60  92 126 168 212 264 322 386
#     4  10  21  37  64  88 124 166 215 265 329 399
#     4  10  21  37  60  90 128 174 209 273 342 396
#
# _framework density 23.23969
#
# number of rings (size 3 to 8) (size 9 to 14) (size 15 to 20)
#    0.000    2.000    1.818    2.727    0.000    1.818 
#    0.000    3.636    4.000    2.182    0.000    0.000 
#    0.000    0.000    0.000    0.000    0.000    0.000 
#
# Total GULP energy -490094.233618 kJ/mol
# GULP energy per Si atom -5569.252655 kJ/mol
# Density = 2.318680 g / cm^3
# Si number density = 23.239690 Si / 1000 Ang^3
#
#
#
# Elastic Constant Matrix: (Units=GPa)
#
#
# Indices 1 2 3 4 5 6 
#
# 1 38.8985 42.5319 0.9823 0.0000 0.0000 0.0000
# 2 42.5319 38.8998 0.9793 0.0000 0.0000 0.0000
# 3 0.9823 0.9793 73.5043 0.0000 0.0000 0.0000
# 4 0.0000 0.0000 0.0000 23.1519 0.0000 0.0000
# 5 0.0000 0.0000 0.0000 0.0000 23.1515 0.0000
# 6 0.0000 0.0000 0.0000 0.0000 0.0000 28.1638
#
#
#
# Elastic Compliance Matrix: (Units=1/GPa)
#
#
# Indices 1 2 3 4 5 6 
#
# 1 -0.131496 0.143778 -0.000158 0.000000 0.000000 0.000000
# 2 0.143778 -0.131491 -0.000170 0.000000 0.000000 0.000000
# 3 -0.000158 -0.000170 0.013609 0.000000 0.000000 0.000000
# 4 0.000000 0.000000 0.000000 0.043193 0.000000 0.000000
# 5 0.000000 0.000000 0.000000 0.000000 0.043194 0.000000
# 6 0.000000 0.000000 0.000000 0.000000 0.000000 0.035507
#
#
# Mechanical properties :
#
#
# Convention : Reuss Voigt Hill
#
# Bulk Modulus (GPa) = 26.65110 26.69885 26.67498
# Shear Modulus (GPa) = -12.44159 22.01404 4.78622
#
# Velocity S-wave (km/s) = -2.31629 3.08110 1.43665
# Velocity P-wave (km/s) = 2.08307 4.91640 3.77559
#
# Compressibility (1/GPa) = 0.03752190
#
# Stress axis : x y z
#
# Youngs Moduli (GPa) = -7.60479 -7.60507 73.48067
#
# Poissons Ratio (x) = 1.09344 0.01162
# Poissons Ratio (y) = 1.09340 0.01247
# Poissons Ratio (z) = -0.00120 -0.00129
#
# Static dielectric constant tensor:
#      x y z
#    x 1.944890 0.000000 0.000000 
#    y 0.000000 1.944890 0.000000 
#    z 0.000000 0.000000 1.890270 
# 
# From -- ./inp_files/4490.got.cif
#   From: 2010.05.17/outbox.cif.g08.bks.cpg/sg133_3_cif.got.tgz:4490.got - 2010.05.20 12:37:36.
