data_PCOD9567691
_publ_section_title
;
Structure prediction by ZEFSAII (Michael W. Deem and Ramdas Pophale) SiO2 
 PCOD9567691
Probable space group: P 42/N B C
;
_chemical_formula_sum "Si O2"
_cell_formula_units_Z 96
_cell_length_a 23.660625
_cell_length_b 23.660625
_cell_length_c 9.107812
_cell_angle_alpha 90.000000
_cell_angle_beta 90.000000
_cell_angle_gamma 90.000000
_cell_volume 5098.782450
_symmetry_space_group_name_H-M "P 42/N B C"
_symmetry_group_IT_number 133
_space_group.IT_coordinate_system_code '2'
_symmetry_cell_setting 'tetragonal'
loop_
_space_group_symop_operation_xyz
x,y,z
1/2-y,x,1/2+z
1/2-x,1/2-y,z
y,1/2-x,1/2+z
x,1/2-y,-z
1/2-x,y,-z
y,x,1/2-z
1/2-y,1/2-x,1/2-z
-x,-y,-z
1/2+y,-x,1/2-z
1/2+x,1/2+y,-z
-y,1/2+x,1/2-z
-x,1/2+y,z
1/2+x,-y,z
-y,-x,1/2+z
1/2+y,1/2+x,1/2+z
loop_
_atom_site_type_symbol
_atom_site_label
_atom_site_fract_x
_atom_site_fract_y
_atom_site_fract_z
Si Si1 0.963582 0.615610 0.168265
Si Si2 0.600177 0.275623 0.347611
Si Si3 0.573416 0.416818 0.040945
Si Si4 0.342575 0.608133 0.725897
Si Si5 0.577503 0.954359 0.915009
Si Si6 0.693073 0.970350 0.074450
O O1 0.938982 0.561019 0.250000
O O2 0.945977 0.667879 0.271211
O O3 0.030473 0.611684 0.155387
O O4 0.942910 0.601140 0.004946
O O5 0.623607 0.250000 0.500000
O O6 0.599100 0.224379 0.230014
O O7 0.638955 0.327047 0.295171
O O8 0.535935 0.295055 0.383673
O O9 0.633937 0.412372 0.117568
O O10 0.557861 0.482916 0.029378
O O11 0.574346 0.378869 0.895878
O O12 0.556610 0.943391 0.750000
O O13 0.643826 0.960074 0.954721
O O14 0.750000 0.947905 0.000000
#
# Coordination Sequence:
#
# PCOD9567691 Si02
#       6
#    16  16  16  16  16  16
#     4  10  20  34  56  87 119 151 199 242 303 381
#     4  11  22  42  56  80 109 157 214 276 322 356
#     4  12  20  37  56  89 116 157 197 255 327 380
#     4  12  23  38  61  77 114 159 218 264 315 369
#     4  11  21  36  60  93 126 154 194 254 313 386
#     4  10  20  40  60  81 123 169 199 244 316 375
#
# _framework density 18.828023999999999
#
# number of rings (size 3 to 8) (size 9 to 14) (size 15 to 20)
#    0.000    1.000    5.000    4.000    0.000    1.000 
#    0.000    3.333    0.000    0.000    0.000    0.000 
#    0.000   18.000    0.000    0.000    0.000    0.000 
#
# Total GULP energy -534710.294441 kJ/mol
# GULP energy per Si atom -5569.898900 kJ/mol
# Density = 1.878517 g / cm^3
# Si number density = 18.828024 Si / 1000 Ang^3
#
#
#
# Elastic Constant Matrix: (Units=GPa)
#
#
# Indices 1 2 3 4 5 6 
#
# 1 93.4965 37.5440 38.7050 0.0000 0.0000 0.0000
# 2 37.5440 93.4978 38.7035 0.0000 0.0000 0.0000
# 3 38.7050 38.7035 104.4922 0.0000 0.0000 0.0000
# 4 0.0000 0.0000 0.0000 28.2322 0.0000 0.0000
# 5 0.0000 0.0000 0.0000 0.0000 28.2326 0.0000
# 6 0.0000 0.0000 0.0000 0.0000 0.0000 14.3156
#
#
#
# Elastic Compliance Matrix: (Units=1/GPa)
#
#
# Indices 1 2 3 4 5 6 
#
# 1 0.013821 -0.004052 -0.003619 0.000000 0.000000 0.000000
# 2 -0.004052 0.013820 -0.003618 0.000000 0.000000 0.000000
# 3 -0.003619 -0.003618 0.012251 0.000000 0.000000 0.000000
# 4 0.000000 0.000000 0.000000 0.035421 0.000000 0.000000
# 5 0.000000 0.000000 0.000000 0.000000 0.035420 0.000000
# 6 0.000000 0.000000 0.000000 0.000000 0.000000 0.069854
#
#
# Mechanical properties :
#
#
# Convention : Reuss Voigt Hill
#
# Bulk Modulus (GPa) = 57.75509 57.93236 57.84373
# Shear Modulus (GPa) = 23.93102 25.92503 24.92802
#
# Velocity S-wave (km/s) = 3.56902 3.71474 3.64261
# Velocity P-wave (km/s) = 6.90837 7.01677 6.96278
#
# Compressibility (1/GPa) = 0.01731449
#
# Stress axis : x y z
#
# Youngs Moduli (GPa) = 72.35599 72.35815 81.62888
#
# Poissons Ratio (x) = 0.29318 0.29538
# Poissons Ratio (y) = 0.29317 0.29534
# Poissons Ratio (z) = 0.26182 0.26180
#
# Static dielectric constant tensor:
#      x y z
#    x 1.684220 0.000000 0.000000 
#    y 0.000000 1.684220 0.000000 
#    z 0.000000 0.000000 1.770940 
# 
# From -- ./inp_files/1911.got.cif
#   From: 2010.05.17/outbox.cif.g08.bks.cpg/sg133_1_cif.got.tgz:1911.got - 2010.05.20 12:37:36.
