data_PCOD9567298
_publ_section_title
;
Structure prediction by ZEFSAII (Michael W. Deem and Ramdas Pophale) SiO2 
 PCOD9567298
Probable space group: P 42/M C M
;
_chemical_formula_sum "Si O2"
_cell_formula_units_Z 96
_cell_length_a 25.058541
_cell_length_b 25.058541
_cell_length_c 7.978482
_cell_angle_alpha 90.000000
_cell_angle_beta 90.000000
_cell_angle_gamma 90.000000
_cell_volume 5009.932008
_symmetry_space_group_name_H-M "P 42/M C M"
_symmetry_group_IT_number 132
_symmetry_cell_setting 'tetragonal'
loop_
_space_group_symop_operation_xyz
x,y,z
-y,x,1/2+z
-x,-y,z
y,-x,1/2+z
x,-y,1/2-z
-x,y,1/2-z
y,x,-z
-y,-x,-z
-x,-y,-z
y,-x,1/2-z
x,y,-z
-y,x,1/2-z
-x,y,1/2+z
x,-y,1/2+z
-y,-x,z
y,x,z
loop_
_atom_site_type_symbol
_atom_site_label
_atom_site_fract_x
_atom_site_fract_y
_atom_site_fract_z
Si Si1 0.731283 0.353703 0.704351
Si Si2 0.853137 0.648414 0.794420
Si Si3 0.231053 0.853539 0.300965
Si Si4 0.061108 0.854499 0.800057
Si Si5 0.560949 0.355716 0.298575
Si Si6 0.938750 0.561121 0.199734
O O1 0.731845 0.352862 0.500000
O O2 0.701187 0.298814 0.755262
O O3 0.791960 0.361773 0.757842
O O4 0.693467 0.402278 0.759318
O O5 0.863321 0.709284 0.737537
O O6 0.896091 0.604657 0.735346
O O7 0.854826 0.647249 0.000000
O O8 0.236397 0.844194 0.500000
O O9 0.197216 0.802785 0.232312
O O10 0.194263 0.904914 0.273247
O O11 0.091742 0.908259 0.744828
O O12 0.000000 0.853826 0.750000
O O13 0.064858 0.850957 0.000000
O O14 0.500000 0.351830 0.250000
O O15 0.563533 0.355301 0.500000
O O16 0.590417 0.409584 0.239195
O O17 0.926374 0.500000 0.250000
O O18 0.000000 0.572772 0.250000
O O19 0.936832 0.562983 0.000000
#
# Coordination Sequence:
#
# PCOD9567298 Si02
#       6
#    16  16  16  16  16  16
#     4   8  14  27  47  71  99 126 154 193 239 283
#     4   9  17  29  50  78 100 124 161 200 237 286
#     4   9  17  31  52  77 104 132 163 200 243 291
#     4  10  21  36  53  74 102 135 169 207 250 292
#     4   9  18  31  47  68  94 126 162 200 243 288
#     4  10  20  35  52  70  96 126 159 198 241 286
#
# _framework density 19.161937000000002
#
# number of rings (size 3 to 8) (size 9 to 14) (size 15 to 20)
#    0.000    2.833    0.000    3.000    0.000    5.000 
#    0.000    5.000    0.000    2.000    0.000    2.333 
#    0.000    0.000    0.000    0.000    0.000    0.000 
#
# Total GULP energy -535185.231499 kJ/mol
# GULP energy per Si atom -5574.846161 kJ/mol
# Density = 1.911832 g / cm^3
# Si number density = 19.161937 Si / 1000 Ang^3
#
#
#
# Elastic Constant Matrix: (Units=GPa)
#
#
# Indices 1 2 3 4 5 6 
#
# 1 190.3348 102.5692 7.0313 0.0000 0.0000 0.0000
# 2 102.5692 190.3348 7.0313 0.0000 0.0000 0.0000
# 3 7.0313 7.0313 16.1081 0.0000 0.0000 0.0000
# 4 0.0000 0.0000 0.0000 11.7200 0.0000 0.0000
# 5 0.0000 0.0000 0.0000 0.0000 11.7200 0.0000
# 6 0.0000 0.0000 0.0000 0.0000 0.0000 21.4053
#
#
#
# Elastic Compliance Matrix: (Units=1/GPa)
#
#
# Indices 1 2 3 4 5 6 
#
# 1 0.007441 -0.003953 -0.001522 0.000000 0.000000 0.000000
# 2 -0.003953 0.007441 -0.001522 0.000000 0.000000 0.000000
# 3 -0.001522 -0.001522 0.063409 0.000000 0.000000 0.000000
# 4 0.000000 0.000000 0.000000 0.085325 0.000000 0.000000
# 5 0.000000 0.000000 0.000000 0.000000 0.085325 0.000000
# 6 0.000000 0.000000 0.000000 0.000000 0.000000 0.046717
#
#
# Mechanical properties :
#
#
# Convention : Reuss Voigt Hill
#
# Bulk Modulus (GPa) = 15.55330 70.00457 42.77894
# Shear Modulus (GPa) = 15.10189 27.64543 21.37366
#
# Velocity S-wave (km/s) = 2.81039 3.80244 3.34342
# Velocity P-wave (km/s) = 4.32035 7.47600 6.10557
#
# Compressibility (1/GPa) = 0.06429503
#
# Stress axis : x y z
#
# Youngs Moduli (GPa) = 134.39813 134.39813 15.77054
#
# Poissons Ratio (x) = 0.53133 0.02401
# Poissons Ratio (y) = 0.53133 0.02401
# Poissons Ratio (z) = 0.20458 0.20458
#
# Static dielectric constant tensor:
#      x y z
#    x 1.660250 0.000000 0.000000 
#    y 0.000000 1.660250 0.000000 
#    z 0.000000 0.000000 1.692730 
# 
# From -- ./inp_files/1768.got.cif
#   From: 2010.05.17/outbox.cif.g08.bks.cpg/sg132_1_cif.got.tgz:1768.got - 2010.05.20 12:30:18.
