data_PCOD9567649
_publ_section_title
;
Structure prediction by ZEFSAII (Michael W. Deem and Ramdas Pophale) SiO2 
 PCOD9567649
Probable space group: P 42/N B C
;
_chemical_formula_sum "Si O2"
_cell_formula_units_Z 88
_cell_length_a 14.828897
_cell_length_b 14.828897
_cell_length_c 20.886293
_cell_angle_alpha 90.000000
_cell_angle_beta 90.000000
_cell_angle_gamma 90.000000
_cell_volume 4592.816175
_symmetry_space_group_name_H-M "P 42/N B C"
_symmetry_group_IT_number 133
_space_group.IT_coordinate_system_code '2'
_symmetry_cell_setting 'tetragonal'
loop_
_space_group_symop_operation_xyz
x,y,z
1/2-y,x,1/2+z
1/2-x,1/2-y,z
y,1/2-x,1/2+z
x,1/2-y,-z
1/2-x,y,-z
y,x,1/2-z
1/2-y,1/2-x,1/2-z
-x,-y,-z
1/2+y,-x,1/2-z
1/2+x,1/2+y,-z
-y,1/2+x,1/2-z
-x,1/2+y,z
1/2+x,-y,z
-y,-x,1/2+z
1/2+y,1/2+x,1/2+z
loop_
_atom_site_type_symbol
_atom_site_label
_atom_site_fract_x
_atom_site_fract_y
_atom_site_fract_z
Si Si1 0.901125 0.581745 0.561961
Si Si2 0.259706 0.897335 0.265612
Si Si3 0.412058 0.475998 0.082057
Si Si4 0.716984 0.003152 0.856955
Si Si5 0.151690 0.932097 0.387621
Si Si6 0.750000 0.003862 0.500000
O O1 0.943372 0.604220 0.491548
O O2 0.797528 0.561276 0.550324
O O3 0.943824 0.485157 0.580507
O O4 0.922310 0.658235 0.613300
O O5 0.342285 0.826796 0.262754
O O6 0.277554 0.981753 0.219260
O O7 0.231723 0.923378 0.336947
O O8 0.317226 0.499409 0.114124
O O9 0.472624 0.400905 0.119123
O O10 0.654566 0.088021 0.878245
O O11 0.182423 0.934600 0.460822
#
# Coordination Sequence:
#
# PCOD9567649 Si02
#       6
#    16  16  16  16  16   8
#     4   9  19  34  51  82 113 140 189 238 283 334
#     4   9  19  35  54  81 118 147 183 239 291 345
#     4   9  18  34  54  78 112 145 185 236 275 346
#     4  10  19  35  58  78 110 154 187 231 286 354
#     4   9  20  37  54  82 116 145 189 237 292 338
#     4  10  20  36  56  76 118 150 182 252 286 336
#
# _framework density 19.160356
#
# number of rings (size 3 to 8) (size 9 to 14) (size 15 to 20)
#    0.000    2.727    0.000    1.636    2.545    0.727 
#    0.000    9.091    0.000    0.000    0.000    5.091 
#    0.000    0.000    0.000    0.000    0.000    0.000 
#
# Total GULP energy -490083.341239 kJ/mol
# GULP energy per Si atom -5569.128878 kJ/mol
# Density = 1.911675 g / cm^3
# Si number density = 19.160356 Si / 1000 Ang^3
#
#
#
# Elastic Constant Matrix: (Units=GPa)
#
#
# Indices 1 2 3 4 5 6 
#
# 1 57.9635 7.0269 14.5292 0.0000 0.0000 0.0000
# 2 7.0269 57.9635 14.5292 0.0000 0.0000 0.0000
# 3 14.5292 14.5292 42.2002 0.0000 0.0000 0.0000
# 4 0.0000 0.0000 0.0000 28.3491 0.0000 0.0000
# 5 0.0000 0.0000 0.0000 0.0000 28.3491 0.0000
# 6 0.0000 0.0000 0.0000 0.0000 0.0000 2.7798
#
#
#
# Elastic Compliance Matrix: (Units=1/GPa)
#
#
# Indices 1 2 3 4 5 6 
#
# 1 0.018909 -0.000723 -0.006261 0.000000 0.000000 0.000000
# 2 -0.000723 0.018909 -0.006261 0.000000 0.000000 0.000000
# 3 -0.006261 -0.006261 0.028008 0.000000 0.000000 0.000000
# 4 0.000000 0.000000 0.000000 0.035275 0.000000 0.000000
# 5 0.000000 0.000000 0.000000 0.000000 0.035275 0.000000
# 6 0.000000 0.000000 0.000000 0.000000 0.000000 0.359733
#
#
# Mechanical properties :
#
#
# Convention : Reuss Voigt Hill
#
# Bulk Modulus (GPa) = 25.42249 25.58864 25.50556
# Shear Modulus (GPa) = 9.33337 20.03172 14.68254
#
# Velocity S-wave (km/s) = 2.20947 3.23689 2.77121
# Velocity P-wave (km/s) = 4.45040 5.23010 4.85593
#
# Compressibility (1/GPa) = 0.03933525
#
# Stress axis : x y z
#
# Youngs Moduli (GPa) = 52.88378 52.88378 35.70390
#
# Poissons Ratio (x) = 0.03823 0.22356
# Poissons Ratio (y) = 0.03823 0.22356
# Poissons Ratio (z) = 0.33113 0.33113
#
# Static dielectric constant tensor:
#      x y z
#    x 1.700270 0.000000 0.000000 
#    y 0.000000 1.700270 0.000000 
#    z 0.000000 0.000000 1.686800 
# 
# From -- ./inp_files/7142.got.cif
#   From: 2010.05.17/outbox.cif.g08.bks.cpg/sg133_4_cif.got.tgz:7142.got - 2010.05.20 12:37:36.
