data_PCOD9567205
_publ_section_title
;
Structure prediction by ZEFSAII (Michael W. Deem and Ramdas Pophale) SiO2 
 PCOD9567205
Probable space group: P 42/M C M
;
_chemical_formula_sum "Si O2"
_cell_formula_units_Z 64
_cell_length_a 20.240583
_cell_length_b 20.240583
_cell_length_c 8.797990
_cell_angle_alpha 90.000000
_cell_angle_beta 90.000000
_cell_angle_gamma 90.000000
_cell_volume 3604.371102
_symmetry_space_group_name_H-M "P 42/M C M"
_symmetry_group_IT_number 132
_symmetry_cell_setting 'tetragonal'
loop_
_space_group_symop_operation_xyz
x,y,z
-y,x,1/2+z
-x,-y,z
y,-x,1/2+z
x,-y,1/2-z
-x,y,1/2-z
y,x,-z
-y,-x,-z
-x,-y,-z
y,-x,1/2-z
x,y,-z
-y,x,1/2-z
-x,y,1/2+z
x,-y,1/2+z
-y,-x,z
y,x,z
loop_
_atom_site_type_symbol
_atom_site_label
_atom_site_fract_x
_atom_site_fract_y
_atom_site_fract_z
Si Si1 0.287868 0.180784 0.816902
Si Si2 0.562406 0.329174 0.322999
Si Si3 0.569421 0.813876 0.320277
Si Si4 0.823111 0.072323 0.317386
O O1 0.248768 0.248768 0.770258
O O2 0.359412 0.165446 0.746700
O O3 0.237606 0.121247 0.780261
O O4 0.295328 0.185140 0.000000
O O5 0.500000 0.366106 0.250000
O O6 0.550813 0.312159 0.500000
O O7 0.626871 0.373130 0.314949
O O8 0.569449 0.263452 0.224755
O O9 0.500000 0.840594 0.250000
O O10 0.567972 0.823565 0.500000
O O11 0.825034 0.067857 0.500000
O O12 0.889455 0.110546 0.266504
O O13 0.816460 0.000000 0.250000
#
# Coordination Sequence:
#
# PCOD9567205 Si02
#       4
#    16  16  16  16
#     4   9  18  34  54  75 103 138 174 214 262 312
#     4  10  20  32  45  61  84 116 153 196 248 304
#     4  11  21  32  49  72  97 126 163 209 260 310
#     4   9  19  35  55  81 113 148 181 213 252 298
#
# _framework density 17.756219000000002
#
# number of rings (size 3 to 8) (size 9 to 14) (size 15 to 20)
#    0.000    2.250    0.000    6.750    0.000    7.500 
#    0.000    5.000    0.000    0.750    0.000    5.250 
#    0.000    0.000    0.000    0.000    0.000    0.000 
#
# Total GULP energy -356601.587938 kJ/mol
# GULP energy per Si atom -5571.899812 kJ/mol
# Density = 1.771581 g / cm^3
# Si number density = 17.756219 Si / 1000 Ang^3
#
#
#
# Elastic Constant Matrix: (Units=GPa)
#
#
# Indices 1 2 3 4 5 6 
#
# 1 110.0725 37.9892 39.4469 0.0000 0.0000 0.0000
# 2 37.9892 110.0725 39.4469 0.0000 0.0000 0.0000
# 3 39.4469 39.4469 66.2175 0.0000 0.0000 0.0000
# 4 0.0000 0.0000 0.0000 29.8403 0.0000 0.0000
# 5 0.0000 0.0000 0.0000 0.0000 29.8403 0.0000
# 6 0.0000 0.0000 0.0000 0.0000 0.0000 10.4337
#
#
#
# Elastic Compliance Matrix: (Units=1/GPa)
#
#
# Indices 1 2 3 4 5 6 
#
# 1 0.011884 -0.001989 -0.005895 0.000000 0.000000 0.000000
# 2 -0.001989 0.011884 -0.005895 0.000000 0.000000 0.000000
# 3 -0.005895 -0.005895 0.022125 0.000000 0.000000 0.000000
# 4 0.000000 0.000000 0.000000 0.033512 0.000000 0.000000
# 5 0.000000 0.000000 0.000000 0.000000 0.033512 0.000000
# 6 0.000000 0.000000 0.000000 0.000000 0.000000 0.095844
#
#
# Mechanical properties :
#
#
# Convention : Reuss Voigt Hill
#
# Bulk Modulus (GPa) = 54.53679 57.79206 56.16442
# Shear Modulus (GPa) = 20.62472 25.32149 22.97311
#
# Velocity S-wave (km/s) = 3.41185 3.78042 3.60085
# Velocity P-wave (km/s) = 6.80454 7.18844 6.99912
#
# Compressibility (1/GPa) = 0.01833625
#
# Stress axis : x y z
#
# Youngs Moduli (GPa) = 84.14803 84.14803 45.19838
#
# Poissons Ratio (x) = 0.16737 0.26642
# Poissons Ratio (y) = 0.16737 0.26642
# Poissons Ratio (z) = 0.49601 0.49601
#
# Static dielectric constant tensor:
#      x y z
#    x 1.640410 0.000000 0.000000 
#    y 0.000000 1.640410 0.000000 
#    z 0.000000 0.000000 1.614690 
# 
# From -- ./inp_files/1263.got.cif
#   From: 2010.05.17/outbox.cif.g08.bks.cpg/sg132_1_cif.got.tgz:1263.got - 2010.05.20 12:30:18.
