data_PCOD9567695
_publ_section_title
;
Structure prediction by ZEFSAII (Michael W. Deem and Ramdas Pophale) SiO2 
 PCOD9567695
Probable space group: P 42/N B C
;
_chemical_formula_sum "Si O2"
_cell_formula_units_Z 112
_cell_length_a 14.453367
_cell_length_b 14.453367
_cell_length_c 26.933315
_cell_angle_alpha 90.000000
_cell_angle_beta 90.000000
_cell_angle_gamma 90.000000
_cell_volume 5626.364592
_symmetry_space_group_name_H-M "P 42/N B C"
_symmetry_group_IT_number 133
_space_group.IT_coordinate_system_code '2'
_symmetry_cell_setting 'tetragonal'
loop_
_space_group_symop_operation_xyz
x,y,z
1/2-y,x,1/2+z
1/2-x,1/2-y,z
y,1/2-x,1/2+z
x,1/2-y,-z
1/2-x,y,-z
y,x,1/2-z
1/2-y,1/2-x,1/2-z
-x,-y,-z
1/2+y,-x,1/2-z
1/2+x,1/2+y,-z
-y,1/2+x,1/2-z
-x,1/2+y,z
1/2+x,-y,z
-y,-x,1/2+z
1/2+y,1/2+x,1/2+z
loop_
_atom_site_type_symbol
_atom_site_label
_atom_site_fract_x
_atom_site_fract_y
_atom_site_fract_z
Si Si1 0.435236 0.123697 0.100764
Si Si2 0.853883 0.091814 0.870768
Si Si3 0.470325 0.113858 0.299478
Si Si4 0.340646 0.301416 0.112803
Si Si5 0.565599 0.577499 0.808060
Si Si6 0.236767 0.031065 0.941893
Si Si7 0.243655 0.871875 0.781629
O O1 0.546923 0.118658 0.104547
O O2 0.394133 0.102033 0.155890
O O3 0.402233 0.225424 0.084840
O O4 0.371823 0.052039 0.069330
O O5 0.796285 0.155496 0.832533
O O6 0.885147 0.011011 0.832746
O O7 0.780939 0.053032 0.910673
O O8 0.423315 0.076686 0.250000
O O9 0.523221 0.208644 0.288471
O O10 0.550808 0.041423 0.314042
O O11 0.250000 0.250000 0.132726
O O12 0.400833 0.339600 0.157940
O O13 0.298542 0.381911 0.078033
O O14 0.587012 0.587012 0.750000
O O15 0.250000 0.018764 0.000000
O O16 0.314300 0.845860 0.737391
#
# Coordination Sequence:
#
# PCOD9567695 Si02
#       7
#    16  16  16  16  16  16  16
#     4  10  20  37  60  87 128 165 202 271 327 383
#     4  10  21  38  59  93 127 163 217 263 318 405
#     4  10  20  35  54  82 119 171 211 258 317 387
#     4   9  20  35  52  87 117 152 203 259 325 381
#     4   9  18  32  53  76 120 159 200 249 303 379
#     4  10  21  41  67  91 123 164 219 278 331 389
#     4  11  22  35  56  88 124 166 215 257 315 388
#
# _framework density 19.906282000000001
#
# number of rings (size 3 to 8) (size 9 to 14) (size 15 to 20)
#    0.000    2.143    1.429    2.571    0.000    9.143 
#    0.000    0.000    0.000    0.000    0.000    0.000 
#    0.000    0.000    0.000    0.000    0.000    0.000 
#
# Total GULP energy -623547.745990 kJ/mol
# GULP energy per Si atom -5567.390589 kJ/mol
# Density = 1.986097 g / cm^3
# Si number density = 19.906282 Si / 1000 Ang^3
#
#
#
# Elastic Constant Matrix: (Units=GPa)
#
#
# Indices 1 2 3 4 5 6 
#
# 1 66.3932 40.3700 20.8532 0.0000 0.0000 0.0000
# 2 40.3700 66.3942 20.8530 0.0000 0.0000 0.0000
# 3 20.8532 20.8530 104.0982 0.0000 0.0000 0.0000
# 4 0.0000 0.0000 0.0000 17.8469 0.0000 0.0000
# 5 0.0000 0.0000 0.0000 0.0000 17.8475 0.0000
# 6 0.0000 0.0000 0.0000 0.0000 0.0000 24.6437
#
#
#
# Elastic Compliance Matrix: (Units=1/GPa)
#
#
# Indices 1 2 3 4 5 6 
#
# 1 0.024294 -0.014132 -0.002036 0.000000 0.000000 0.000000
# 2 -0.014132 0.024294 -0.002036 0.000000 0.000000 0.000000
# 3 -0.002036 -0.002036 0.010422 0.000000 0.000000 0.000000
# 4 0.000000 0.000000 0.000000 0.056032 0.000000 0.000000
# 5 0.000000 0.000000 0.000000 0.000000 0.056030 0.000000
# 6 0.000000 0.000000 0.000000 0.000000 0.000000 0.040578
#
#
# Mechanical properties :
#
#
# Convention : Reuss Voigt Hill
#
# Bulk Modulus (GPa) = 44.24232 44.55979 44.40106
# Shear Modulus (GPa) = 19.56240 22.38824 20.97532
#
# Velocity S-wave (km/s) = 3.13824 3.35727 3.24960
# Velocity P-wave (km/s) = 5.95021 6.12060 6.03600
#
# Compressibility (1/GPa) = 0.02260279
#
# Stress axis : x y z
#
# Youngs Moduli (GPa) = 41.16183 41.16258 95.95213
#
# Poissons Ratio (x) = 0.58173 0.19533
# Poissons Ratio (y) = 0.58172 0.19531
# Poissons Ratio (z) = 0.08379 0.08379
#
# Static dielectric constant tensor:
#      x y z
#    x 1.768130 0.000000 0.000000 
#    y 0.000000 1.768140 0.000000 
#    z 0.000000 0.000000 1.673920 
# 
# From -- ./inp_files/7664.got.cif
#   From: 2010.05.17/outbox.cif.g08.bks.cpg/sg133_4_cif.got.tgz:7664.got - 2010.05.20 12:37:36.
