data_PCOD9567912
_publ_section_title
;
Structure prediction by ZEFSAII (Michael W. Deem and Ramdas Pophale) SiO2 
 PCOD9567912
Probable space group: P 42/N B C
;
_chemical_formula_sum "Si O2"
_cell_formula_units_Z 80
_cell_length_a 26.500810
_cell_length_b 26.500810
_cell_length_c 5.255709
_cell_angle_alpha 90.000000
_cell_angle_beta 90.000000
_cell_angle_gamma 90.000000
_cell_volume 3691.047276
_symmetry_space_group_name_H-M "P 42/N B C"
_symmetry_group_IT_number 133
_space_group.IT_coordinate_system_code '2'
_symmetry_cell_setting 'tetragonal'
loop_
_space_group_symop_operation_xyz
x,y,z
1/2-y,x,1/2+z
1/2-x,1/2-y,z
y,1/2-x,1/2+z
x,1/2-y,-z
1/2-x,y,-z
y,x,1/2-z
1/2-y,1/2-x,1/2-z
-x,-y,-z
1/2+y,-x,1/2-z
1/2+x,1/2+y,-z
-y,1/2+x,1/2-z
-x,1/2+y,z
1/2+x,-y,z
-y,-x,1/2+z
1/2+y,1/2+x,1/2+z
loop_
_atom_site_type_symbol
_atom_site_label
_atom_site_fract_x
_atom_site_fract_y
_atom_site_fract_z
Si Si1 0.555511 0.629188 0.096059
Si Si2 0.146414 0.191517 0.013139
Si Si3 0.436659 0.532109 0.565046
Si Si4 0.150578 0.614359 0.365332
Si Si5 0.982835 0.283786 0.248137
O O1 0.590184 0.590184 0.250000
O O2 0.513344 0.596562 0.954682
O O3 0.522716 0.669774 0.257824
O O4 0.594760 0.661467 0.934504
O O5 0.182793 0.182793 0.250000
O O6 0.134748 0.250000 0.000000
O O7 0.170472 0.170472 0.750000
O O8 0.477499 0.545931 0.353697
O O9 0.399683 0.579918 0.599965
O O10 0.153818 0.641262 0.638171
O O11 0.192797 0.573163 0.293218
O O12 0.985114 0.250000 0.500000
O O13 0.994422 0.250000 0.000000
#
# Coordination Sequence:
#
# PCOD9567912 Si02
#       5
#    16  16  16  16  16
#     4  10  24  40  59  85 119 160 202 246 296 348
#     4  11  25  44  66  89 114 147 192 249 311 368
#     4   9  19  35  55  80 112 153 198 238 279 334
#     4   9  17  33  56  83 117 154 194 243 295 352
#     4  11  23  39  61  89 123 161 204 251 301 361
#
# _framework density 21.674066
#
# number of rings (size 3 to 8) (size 9 to 14) (size 15 to 20)
#    0.000    2.000    0.000    2.400    0.000   16.400 
#    0.000    0.000    0.000    0.000    0.000    0.000 
#    0.000   28.000    0.000    0.000    0.000    0.000 
#
# Total GULP energy -446623.602230 kJ/mol
# GULP energy per Si atom -5582.795028 kJ/mol
# Density = 2.162474 g / cm^3
# Si number density = 21.674066 Si / 1000 Ang^3
#
#
#
# Elastic Constant Matrix: (Units=GPa)
#
#
# Indices 1 2 3 4 5 6 
#
# 1 67.5240 37.3651 35.7871 0.0000 0.0000 0.0000
# 2 37.3651 67.5240 35.7871 0.0000 0.0000 0.0000
# 3 35.7871 35.7871 117.8788 0.0000 0.0000 0.0000
# 4 0.0000 0.0000 0.0000 11.9963 0.0000 0.0000
# 5 0.0000 0.0000 0.0000 0.0000 11.9963 0.0000
# 6 0.0000 0.0000 0.0000 0.0000 0.0000 29.9697
#
#
#
# Elastic Compliance Matrix: (Units=1/GPa)
#
#
# Indices 1 2 3 4 5 6 
#
# 1 0.022591 -0.010566 -0.003651 0.000000 0.000000 0.000000
# 2 -0.010566 0.022591 -0.003651 0.000000 0.000000 0.000000
# 3 -0.003651 -0.003651 0.010700 0.000000 0.000000 0.000000
# 4 0.000000 0.000000 0.000000 0.083359 0.000000 0.000000
# 5 0.000000 0.000000 0.000000 0.000000 0.083359 0.000000
# 6 0.000000 0.000000 0.000000 0.000000 0.000000 0.033367
#
#
# Mechanical properties :
#
#
# Convention : Reuss Voigt Hill
#
# Bulk Modulus (GPa) = 49.63469 52.31171 50.97320
# Shear Modulus (GPa) = 16.75496 20.39163 18.57329
#
# Velocity S-wave (km/s) = 2.78338 3.07062 2.93052
# Velocity P-wave (km/s) = 5.76887 6.06297 5.91775
#
# Compressibility (1/GPa) = 0.02014720
#
# Stress axis : x y z
#
# Youngs Moduli (GPa) = 44.26466 44.26466 93.45842
#
# Poissons Ratio (x) = 0.46771 0.34119
# Poissons Ratio (y) = 0.46771 0.34119
# Poissons Ratio (z) = 0.16160 0.16160
#
# Static dielectric constant tensor:
#      x y z
#    x 2.061150 0.000000 0.000000 
#    y 0.000000 2.061150 0.000000 
#    z 0.000000 0.000000 1.827500 
# 
# From -- ./inp_files/482.got.cif
#   From: 2010.05.17/outbox.cif.g08.bks.cpg/sg133_1_cif.got.tgz:482.got - 2010.05.20 12:37:36.
