data_PCOD9567933
_publ_section_title
;
Structure prediction by ZEFSAII (Michael W. Deem and Ramdas Pophale) SiO2 
 PCOD9567933
Probable space group: P 42/N B C
;
_chemical_formula_sum "Si O2"
_cell_formula_units_Z 96
_cell_length_a 22.213764
_cell_length_b 22.213764
_cell_length_c 9.104047
_cell_angle_alpha 90.000000
_cell_angle_beta 90.000000
_cell_angle_gamma 90.000000
_cell_volume 4492.403928
_symmetry_space_group_name_H-M "P 42/N B C"
_symmetry_group_IT_number 133
_space_group.IT_coordinate_system_code '2'
_symmetry_cell_setting 'tetragonal'
loop_
_space_group_symop_operation_xyz
x,y,z
1/2-y,x,1/2+z
1/2-x,1/2-y,z
y,1/2-x,1/2+z
x,1/2-y,-z
1/2-x,y,-z
y,x,1/2-z
1/2-y,1/2-x,1/2-z
-x,-y,-z
1/2+y,-x,1/2-z
1/2+x,1/2+y,-z
-y,1/2+x,1/2-z
-x,1/2+y,z
1/2+x,-y,z
-y,-x,1/2+z
1/2+y,1/2+x,1/2+z
loop_
_atom_site_type_symbol
_atom_site_label
_atom_site_fract_x
_atom_site_fract_y
_atom_site_fract_z
Si Si1 0.602079 0.602079 0.250000
Si Si2 0.149703 0.531374 0.201068
Si Si3 0.966778 0.733072 0.271764
Si Si4 0.604945 0.750000 0.000000
Si Si5 0.357733 0.184800 0.527105
Si Si6 0.898507 0.985277 0.703538
Si Si7 0.578588 0.433780 0.447605
O O1 0.530310 0.612995 0.261890
O O2 0.645102 0.622433 0.113671
O O3 0.139179 0.569157 0.350398
O O4 0.217696 0.512016 0.164753
O O5 0.118612 0.565311 0.065267
O O6 0.936407 0.769175 0.135809
O O7 0.916400 0.705512 0.381019
O O8 0.995624 0.672638 0.207550
O O9 0.643840 0.697895 0.922325
O O10 0.328911 0.250000 0.500000
O O11 0.918261 0.918261 0.750000
O O12 0.920976 0.005823 0.545106
O O13 0.929006 0.026230 0.827325
#
# Coordination Sequence:
#
# PCOD9567933 Si02
#       7
#     8  16  16   8  16  16  16
#     4  12  24  38  63  84 132 160 238 278 335 396
#     4  11  24  43  63  94 124 168 216 282 339 405
#     4  12  25  40  66  90 134 170 228 281 346 390
#     4  12  23  40  56  90 122 180 238 285 308 378
#     4  12  23  40  56  89 120 185 227 286 317 375
#     4  11  23  38  61  96 129 177 220 271 337 403
#     4  10  25  40  64  90 130 167 223 275 338 410
#
# _framework density 21.369406000000001
#
# number of rings (size 3 to 8) (size 9 to 14) (size 15 to 20)
#    0.000    0.667    3.333    4.250    9.333    0.000 
#    0.000    2.500    0.000    0.000    0.000    0.000 
#    0.000   46.667    0.000    0.000    0.000    0.000 
#
# Total GULP energy -535662.508915 kJ/mol
# GULP energy per Si atom -5579.817801 kJ/mol
# Density = 2.132077 g / cm^3
# Si number density = 21.369406 Si / 1000 Ang^3
#
#
#
# Elastic Constant Matrix: (Units=GPa)
#
#
# Indices 1 2 3 4 5 6 
#
# 1 77.0874 41.3382 31.5496 0.0000 0.0000 0.0000
# 2 41.3382 77.0874 31.5496 0.0000 0.0000 0.0000
# 3 31.5496 31.5496 125.9254 0.0000 0.0000 0.0000
# 4 0.0000 0.0000 0.0000 26.6228 0.0000 0.0000
# 5 0.0000 0.0000 0.0000 0.0000 26.6228 0.0000
# 6 0.0000 0.0000 0.0000 0.0000 0.0000 22.8830
#
#
#
# Elastic Compliance Matrix: (Units=1/GPa)
#
#
# Indices 1 2 3 4 5 6 
#
# 1 0.018859 -0.009114 -0.002442 0.000000 0.000000 0.000000
# 2 -0.009114 0.018859 -0.002442 0.000000 0.000000 0.000000
# 3 -0.002442 -0.002442 0.009165 0.000000 0.000000 0.000000
# 4 0.000000 0.000000 0.000000 0.037562 0.000000 0.000000
# 5 0.000000 0.000000 0.000000 0.000000 0.037562 0.000000
# 6 0.000000 0.000000 0.000000 0.000000 0.000000 0.043700
#
#
# Mechanical properties :
#
#
# Convention : Reuss Voigt Hill
#
# Bulk Modulus (GPa) = 52.94225 54.33057 53.63641
# Shear Modulus (GPa) = 25.00048 26.93659 25.96854
#
# Velocity S-wave (km/s) = 3.42412 3.55423 3.48978
# Velocity P-wave (km/s) = 6.36092 6.50562 6.43368
#
# Compressibility (1/GPa) = 0.01888851
#
# Stress axis : x y z
#
# Youngs Moduli (GPa) = 53.02555 53.02555 109.11518
#
# Poissons Ratio (x) = 0.48327 0.26641
# Poissons Ratio (y) = 0.48327 0.26641
# Poissons Ratio (z) = 0.12946 0.12946
#
# Static dielectric constant tensor:
#      x y z
#    x 1.825480 0.000000 0.000000 
#    y 0.000000 1.825480 0.000000 
#    z 0.000000 0.000000 2.150430 
# 
# From -- ./inp_files/1943.got.cif
#   From: 2010.05.17/outbox.cif.g08.bks.cpg/sg133_1_cif.got.tgz:1943.got - 2010.05.20 12:37:36.
