data_PCOD9567365
_publ_section_title
;
Structure prediction by ZEFSAII (Michael W. Deem and Ramdas Pophale) SiO2 
 PCOD9567365
Probable space group: P 42/M C M
;
_chemical_formula_sum "Si O2"
_cell_formula_units_Z 120
_cell_length_a 22.077126
_cell_length_b 22.077126
_cell_length_c 14.666055
_cell_angle_alpha 90.000000
_cell_angle_beta 90.000000
_cell_angle_gamma 90.000000
_cell_volume 7148.227763
_symmetry_space_group_name_H-M "P 42/M C M"
_symmetry_group_IT_number 132
_symmetry_cell_setting 'tetragonal'
loop_
_space_group_symop_operation_xyz
x,y,z
-y,x,1/2+z
-x,-y,z
y,-x,1/2+z
x,-y,1/2-z
-x,y,1/2-z
y,x,-z
-y,-x,-z
-x,-y,-z
y,-x,1/2-z
x,y,-z
-y,x,1/2-z
-x,y,1/2+z
x,-y,1/2+z
-y,-x,z
y,x,z
loop_
_atom_site_type_symbol
_atom_site_label
_atom_site_fract_x
_atom_site_fract_y
_atom_site_fract_z
Si Si1 0.908086 0.441725 0.891365
Si Si2 0.481880 0.315971 0.888714
Si Si3 0.576344 0.908454 0.103748
Si Si4 0.622064 0.225305 0.396031
Si Si5 0.935781 0.333092 0.763350
Si Si6 0.549024 0.450977 0.611472
Si Si7 0.408588 0.769107 0.109202
Si Si8 0.198863 0.704751 0.771508
O O1 0.927055 0.509484 0.864396
O O2 0.938795 0.386262 0.839462
O O3 0.836033 0.435920 0.872504
O O4 0.916397 0.436760 0.000000
O O5 0.422219 0.278162 0.863449
O O6 0.472078 0.384544 0.858628
O O7 0.543233 0.281615 0.859501
O O8 0.483784 0.314765 0.000000
O O9 0.580981 0.835328 0.102301
O O10 0.629382 0.926626 0.170496
O O11 0.584740 0.929815 0.000000
O O12 0.641716 0.237166 0.500000
O O13 0.676968 0.213875 0.327922
O O14 0.874037 0.296473 0.782284
O O15 0.000000 0.300232 0.750000
O O16 0.500000 0.500000 0.638662
O O17 0.550952 0.449049 0.500000
O O18 0.344313 0.771414 0.159624
O O19 0.400548 0.763156 0.000000
O O20 0.231281 0.768720 0.783272
#
# Coordination Sequence:
#
# PCOD9567365 Si02
#       8
#    16  16  16  16  16   8  16  16
#     4   9  16  28  46  69  96 123 155 192 225 262
#     4   9  16  28  47  65  83 115 153 190 240 296
#     4   9  16  28  46  68  95 123 155 192 222 260
#     4   9  17  30  49  71  92 117 152 192 237 276
#     4  10  21  34  47  66  96 128 154 183 226 276
#     4   9  18  28  38  60  86 106 141 195 245 293
#     4   9  17  31  50  70  92 119 153 194 240 280
#     4  10  22  35  50  74  95 117 153 194 230 274
#
# _framework density 16.787378
#
# number of rings (size 3 to 8) (size 9 to 14) (size 15 to 20)
#    0.000    2.733    1.333    0.400    0.933    3.200 
#    0.000    2.667    0.000    0.000    0.000    0.000 
#    0.000    0.267    0.000    0.000    0.000    0.000 
#
# Total GULP energy -669414.561288 kJ/mol
# GULP energy per Si atom -5578.454677 kJ/mol
# Density = 1.674917 g / cm^3
# Si number density = 16.787378 Si / 1000 Ang^3
#
#
#
# Elastic Constant Matrix: (Units=GPa)
#
#
# Indices 1 2 3 4 5 6 
#
# 1 80.8146 31.5612 -4.5498 0.0000 0.0000 0.0000
# 2 31.5612 80.8145 -4.5498 0.0000 0.0000 0.0000
# 3 -4.5498 -4.5498 24.5354 0.0000 0.0000 0.0000
# 4 0.0000 0.0000 0.0000 6.4489 0.0000 0.0000
# 5 0.0000 0.0000 0.0000 0.0000 6.4490 0.0000
# 6 0.0000 0.0000 0.0000 0.0000 0.0000 2.9032
#
#
#
# Elastic Compliance Matrix: (Units=1/GPa)
#
#
# Indices 1 2 3 4 5 6 
#
# 1 0.014669 -0.005634 0.001675 0.000000 0.000000 0.000000
# 2 -0.005634 0.014669 0.001675 0.000000 0.000000 0.000000
# 3 0.001675 0.001675 0.041379 0.000000 0.000000 0.000000
# 4 0.000000 0.000000 0.000000 0.155064 0.000000 0.000000
# 5 0.000000 0.000000 0.000000 0.000000 0.155063 0.000000
# 6 0.000000 0.000000 0.000000 0.000000 0.000000 0.344449
#
#
# Mechanical properties :
#
#
# Convention : Reuss Voigt Hill
#
# Bulk Modulus (GPa) = 15.11741 25.67639 20.39690
# Shear Modulus (GPa) = 6.64973 14.07375 10.36174
#
# Velocity S-wave (km/s) = 1.99242 2.89857 2.48711
# Velocity P-wave (km/s) = 3.78388 5.15078 4.51931
#
# Compressibility (1/GPa) = 0.06614891
#
# Stress axis : x y z
#
# Youngs Moduli (GPa) = 68.17204 68.17197 24.16695
#
# Poissons Ratio (x) = 0.38411 -0.04049
# Poissons Ratio (y) = 0.38411 -0.04049
# Poissons Ratio (z) = -0.11421 -0.11421
#
# Static dielectric constant tensor:
#      x y z
#    x 1.571000 0.000000 0.000000 
#    y 0.000000 1.571000 0.000000 
#    z 0.000000 0.000000 1.612410 
# 
# From -- ./inp_files/5149.got.cif
#   From: 2010.05.17/outbox.cif.g08.bks.cpg/sg132_3_cif.got.tgz:5149.got - 2010.05.20 12:30:18.
