data_PCOD9567416
_publ_section_title
;
Structure prediction by ZEFSAII (Michael W. Deem and Ramdas Pophale) SiO2 
 PCOD9567416
Probable space group: P 42/M C M
;
_chemical_formula_sum "Si O2"
_cell_formula_units_Z 104
_cell_length_a 14.780564
_cell_length_b 14.780564
_cell_length_c 24.905411
_cell_angle_alpha 90.000000
_cell_angle_beta 90.000000
_cell_angle_gamma 90.000000
_cell_volume 5440.962411
_symmetry_space_group_name_H-M "P 42/M C M"
_symmetry_group_IT_number 132
_symmetry_cell_setting 'tetragonal'
loop_
_space_group_symop_operation_xyz
x,y,z
-y,x,1/2+z
-x,-y,z
y,-x,1/2+z
x,-y,1/2-z
-x,y,1/2-z
y,x,-z
-y,-x,-z
-x,-y,-z
y,-x,1/2-z
x,y,-z
-y,x,1/2-z
-x,y,1/2+z
x,-y,1/2+z
-y,-x,z
y,x,z
loop_
_atom_site_type_symbol
_atom_site_label
_atom_site_fract_x
_atom_site_fract_y
_atom_site_fract_z
Si Si1 0.934470 0.782335 0.441821
Si Si2 0.162703 0.588222 0.061318
Si Si3 0.028178 0.645442 0.307157
Si Si4 0.766955 0.620807 0.213445
Si Si5 0.150038 0.001140 0.832996
Si Si6 0.000000 0.500000 0.104898
Si Si7 0.280129 0.570531 0.169242
O O1 0.979394 0.785972 0.500000
O O2 0.847726 0.847726 0.441866
O O3 0.893311 0.682413 0.434769
O O4 0.997130 0.822762 0.395688
O O5 0.090188 0.507330 0.069644
O O6 0.231648 0.584129 0.111734
O O7 0.200326 0.585081 0.000000
O O8 0.135295 0.634752 0.310733
O O9 0.991520 0.585357 0.355391
O O10 0.000000 0.606369 0.250000
O O11 0.999304 0.750405 0.307844
O O12 0.707604 0.707604 0.203337
O O13 0.718254 0.534618 0.186093
O O14 0.773712 0.609362 0.278436
O O15 0.086288 0.913713 0.820980
O O16 0.088576 0.088576 0.820157
O O17 0.374865 0.625136 0.169078
#
# Coordination Sequence:
#
# PCOD9567416 Si02
#       7
#    16  16  16  16  16   8  16
#     4   9  18  33  54  80 109 147 195 242 291 346
#     4  11  21  36  58  88 125 159 199 255 313 367
#     4  12  24  38  62  86 117 158 199 250 306 367
#     4  10  22  39  61  90 123 159 203 251 306 367
#     4  10  22  39  58  84 119 158 199 243 295 358
#     4  12  22  38  58  88 114 155 201 254 302 364
#     4  10  21  38  61  92 124 157 203 254 306 369
#
# _framework density 19.114265
#
# number of rings (size 3 to 8) (size 9 to 14) (size 15 to 20)
#    0.000    1.538    3.077    2.308    2.154    2.769 
#    0.000    3.846    0.000    0.462    0.000    1.077 
#    0.000    0.000    0.000    0.000    0.000    0.000 
#
# Total GULP energy -579734.101837 kJ/mol
# GULP energy per Si atom -5574.366364 kJ/mol
# Density = 1.907076 g / cm^3
# Si number density = 19.114265 Si / 1000 Ang^3
#
#
#
# Elastic Constant Matrix: (Units=GPa)
#
#
# Indices 1 2 3 4 5 6 
#
# 1 24.8075 38.5038 27.4577 0.0000 0.0000 0.0000
# 2 38.5038 24.8075 27.4577 0.0000 0.0000 0.0000
# 3 27.4577 27.4577 109.8773 0.0000 0.0000 0.0000
# 4 0.0000 0.0000 0.0000 21.5888 0.0000 0.0000
# 5 0.0000 0.0000 0.0000 0.0000 21.5888 0.0000
# 6 0.0000 0.0000 0.0000 0.0000 0.0000 -0.5335
#
#
#
# Elastic Compliance Matrix: (Units=1/GPa)
#
#
# Indices 1 2 3 4 5 6 
#
# 1 -0.026423 0.046589 -0.005039 0.000000 0.000000 0.000000
# 2 0.046589 -0.026423 -0.005039 0.000000 0.000000 0.000000
# 3 -0.005039 -0.005039 0.011620 0.000000 0.000000 0.000000
# 4 0.000000 0.000000 0.000000 0.046320 0.000000 0.000000
# 5 0.000000 0.000000 0.000000 0.000000 0.046320 0.000000
# 6 0.000000 0.000000 0.000000 0.000000 0.000000 -1.874245
#
#
# Mechanical properties :
#
#
# Convention : Reuss Voigt Hill
#
# Bulk Modulus (GPa) = 31.45219 38.48119 34.96669
# Shear Modulus (GPa) = -2.65216 12.93367 5.14075
#
# Velocity S-wave (km/s) = -1.17921 2.60407 1.64174
# Velocity P-wave (km/s) = 3.82577 5.40532 4.68263
#
# Compressibility (1/GPa) = 0.03179429
#
# Stress axis : x y z
#
# Youngs Moduli (GPa) = -37.84572 -37.84572 86.06089
#
# Poissons Ratio (x) = 1.76320 0.43369
# Poissons Ratio (y) = 1.76320 0.43369
# Poissons Ratio (z) = -0.19072 -0.19072
#
# Static dielectric constant tensor:
#      x y z
#    x 1.660030 0.000000 0.000000 
#    y 0.000000 1.660030 0.000000 
#    z 0.000000 0.000000 1.726180 
# 
# From -- ./inp_files/9121.got.cif
#   From: 2010.05.17/outbox.cif.g08.bks.cpg/sg132_5_cif.got.tgz:9121.got - 2010.05.20 12:30:18.
