data_PCOD9567605
_publ_section_title
;
Structure prediction by ZEFSAII (Michael W. Deem and Ramdas Pophale) SiO2 
 PCOD9567605
Probable space group: P 42/N B C
;
_chemical_formula_sum "Si O2"
_cell_formula_units_Z 52
_cell_length_a 13.583532
_cell_length_b 13.583532
_cell_length_c 11.708703
_cell_angle_alpha 90.000000
_cell_angle_beta 90.000000
_cell_angle_gamma 90.000000
_cell_volume 2160.400208
_symmetry_space_group_name_H-M "P 42/N B C"
_symmetry_group_IT_number 133
_space_group.IT_coordinate_system_code '2'
_symmetry_cell_setting 'tetragonal'
loop_
_space_group_symop_operation_xyz
x,y,z
1/2-y,x,1/2+z
1/2-x,1/2-y,z
y,1/2-x,1/2+z
x,1/2-y,-z
1/2-x,y,-z
y,x,1/2-z
1/2-y,1/2-x,1/2-z
-x,-y,-z
1/2+y,-x,1/2-z
1/2+x,1/2+y,-z
-y,1/2+x,1/2-z
-x,1/2+y,z
1/2+x,-y,z
-y,-x,1/2+z
1/2+y,1/2+x,1/2+z
loop_
_atom_site_type_symbol
_atom_site_label
_atom_site_fract_x
_atom_site_fract_y
_atom_site_fract_z
Si Si1 0.148205 0.932264 0.957577
Si Si2 0.609521 0.541525 0.409724
Si Si3 0.203804 0.361395 0.637354
Si Si4 0.750000 0.250000 0.000000
O O1 0.933420 0.704626 0.837676
O O2 0.091962 0.007033 0.876142
O O3 0.184311 0.823469 0.923784
O O4 0.070700 0.910747 0.059000
O O5 0.480225 0.750000 0.500000
O O6 0.644442 0.596370 0.529254
O O7 0.250000 0.250000 0.623220
O O8 0.139481 0.360520 0.750000
#
# Coordination Sequence:
#
# PCOD9567605 Si02
#       4
#    16  16  16   4
#     4   9  18  31  58  89 113 156 211 253 296 384
#     4  10  18  34  60  88 115 160 206 249 323 368
#     4  10  20  33  55  85 118 149 196 261 303 368
#     4   8  16  28  48  86 112 148 204 246 284 370
#
# _framework density 24.069613
#
# number of rings (size 3 to 8) (size 9 to 14) (size 15 to 20)
#    0.923    1.538    0.000    5.538    0.000    0.000 
#    0.000    0.000   40.615    0.000    0.000    0.000 
#    0.000    0.000    0.000    0.000    0.000    0.000 
#
# Total GULP energy -289726.082578 kJ/mol
# GULP energy per Si atom -5571.655434 kJ/mol
# Density = 2.401483 g / cm^3
# Si number density = 24.069613 Si / 1000 Ang^3
#
#
#
# Elastic Constant Matrix: (Units=GPa)
#
#
# Indices 1 2 3 4 5 6 
#
# 1 145.8042 36.4635 -2.6698 0.0000 0.0000 0.0000
# 2 36.4635 145.8036 -2.6699 0.0000 0.0000 0.0000
# 3 -2.6698 -2.6699 53.7600 0.0000 0.0000 0.0000
# 4 0.0000 0.0000 0.0000 19.7418 0.0000 0.0000
# 5 0.0000 0.0000 0.0000 0.0000 19.7431 0.0000
# 6 0.0000 0.0000 0.0000 0.0000 0.0000 43.0723
#
#
#
# Elastic Compliance Matrix: (Units=1/GPa)
#
#
# Indices 1 2 3 4 5 6 
#
# 1 0.007320 -0.001826 0.000273 0.000000 0.000000 0.000000
# 2 -0.001826 0.007320 0.000273 0.000000 0.000000 0.000000
# 3 0.000273 0.000273 0.018628 0.000000 0.000000 0.000000
# 4 0.000000 0.000000 0.000000 0.050654 0.000000 0.000000
# 5 0.000000 0.000000 0.000000 0.000000 0.050651 0.000000
# 6 0.000000 0.000000 0.000000 0.000000 0.000000 0.023217
#
#
# Mechanical properties :
#
#
# Convention : Reuss Voigt Hill
#
# Bulk Modulus (GPa) = 32.56413 45.29060 38.92737
# Shear Modulus (GPa) = 29.31072 37.46102 33.38587
#
# Velocity S-wave (km/s) = 3.49341 3.94935 3.72836
# Velocity P-wave (km/s) = 5.46172 6.29713 5.89425
#
# Compressibility (1/GPa) = 0.03070864
#
# Stress axis : x y z
#
# Youngs Moduli (GPa) = 136.61052 136.61001 53.68178
#
# Poissons Ratio (x) = 0.24940 -0.01465
# Poissons Ratio (y) = 0.24940 -0.01465
# Poissons Ratio (z) = -0.03728 -0.03728
#
# Static dielectric constant tensor:
#      x y z
#    x 1.959750 0.000000 0.000000 
#    y 0.000000 1.959750 0.000000 
#    z 0.000000 0.000000 2.015330 
# 
# From -- ./inp_files/3983.got.cif
#   From: 2010.05.17/outbox.cif.g08.bks.cpg/sg133_2_cif.got.tgz:3983.got - 2010.05.20 12:37:36.
