data_PCOD9567275
_publ_section_title
;
Structure prediction by ZEFSAII (Michael W. Deem and Ramdas Pophale) SiO2 
 PCOD9567275
Probable space group: P 42/M C M
;
_chemical_formula_sum "Si O2"
_cell_formula_units_Z 96
_cell_length_a 25.075183
_cell_length_b 25.075183
_cell_length_c 8.775391
_cell_angle_alpha 90.000000
_cell_angle_beta 90.000000
_cell_angle_gamma 90.000000
_cell_volume 5517.656989
_symmetry_space_group_name_H-M "P 42/M C M"
_symmetry_group_IT_number 132
_symmetry_cell_setting 'tetragonal'
loop_
_space_group_symop_operation_xyz
x,y,z
-y,x,1/2+z
-x,-y,z
y,-x,1/2+z
x,-y,1/2-z
-x,y,1/2-z
y,x,-z
-y,-x,-z
-x,-y,-z
y,-x,1/2-z
x,y,-z
-y,x,1/2-z
-x,y,1/2+z
x,-y,1/2+z
-y,-x,z
y,x,z
loop_
_atom_site_type_symbol
_atom_site_label
_atom_site_fract_x
_atom_site_fract_y
_atom_site_fract_z
Si Si1 0.662385 0.662385 0.825019
Si Si2 0.854291 0.942202 0.682944
Si Si3 0.556136 0.819276 0.325808
Si Si4 0.554513 0.309467 0.174933
Si Si5 0.672727 0.162335 0.681869
Si Si6 0.741903 0.258098 0.821470
Si Si7 0.262023 0.942766 0.317936
O O1 0.674225 0.601890 0.785223
O O2 0.697269 0.697269 0.709663
O O3 0.675583 0.675583 0.000000
O O4 0.851306 0.945699 0.500000
O O5 0.897383 0.897383 0.724259
O O6 0.795858 0.929093 0.748206
O O7 0.869224 0.000000 0.750000
O O8 0.500000 0.837358 0.250000
O O9 0.558130 0.838449 0.500000
O O10 0.553628 0.754881 0.328556
O O11 0.612479 0.832315 0.245085
O O12 0.500000 0.328574 0.250000
O O13 0.561813 0.327659 0.000000
O O14 0.671034 0.170191 0.500000
O O15 0.714829 0.205431 0.749149
O O16 0.696441 0.104020 0.716099
O O17 0.750774 0.249227 0.000000
O O18 0.256469 0.947404 0.500000
O O19 0.277789 0.000000 0.250000
#
# Coordination Sequence:
#
# PCOD9567275 Si02
#       7
#     8  16  16  16  16   8  16
#     4  12  22  34  54  77 111 148 180 227 277 328
#     4  10  21  36  55  80 108 143 185 231 280 331
#     4  10  20  34  55  81 113 149 184 224 273 328
#     4  10  20  34  52  76 106 143 186 226 273 328
#     4  11  23  38  57  84 116 149 186 229 279 333
#     4  12  24  36  52  82 117 151 185 225 278 332
#     4  10  22  39  60  83 110 147 188 230 277 330
#
# _framework density 17.398689000000001
#
# number of rings (size 3 to 8) (size 9 to 14) (size 15 to 20)
#    0.000    1.500    1.667    5.000    1.167    5.500 
#    0.000    0.833    0.000    0.750    0.000    5.250 
#    0.000    0.000    0.000    0.000    0.000    0.000 
#
# Total GULP energy -535753.180043 kJ/mol
# GULP energy per Si atom -5580.762292 kJ/mol
# Density = 1.735909 g / cm^3
# Si number density = 17.398689 Si / 1000 Ang^3
#
#
#
# Elastic Constant Matrix: (Units=GPa)
#
#
# Indices 1 2 3 4 5 6 
#
# 1 94.0617 59.3848 50.2107 0.0000 0.0000 0.0000
# 2 59.3848 94.0617 50.2108 0.0000 0.0000 0.0000
# 3 50.2107 50.2108 97.5083 0.0000 0.0000 0.0000
# 4 0.0000 0.0000 0.0000 -39.5038 0.0000 0.0000
# 5 0.0000 0.0000 0.0000 0.0000 -39.4669 0.0000
# 6 0.0000 0.0000 0.0000 0.0000 0.0000 14.7819
#
#
#
# Elastic Compliance Matrix: (Units=1/GPa)
#
#
# Indices 1 2 3 4 5 6 
#
# 1 0.019333 -0.009504 -0.005061 0.000000 0.000000 0.000000
# 2 -0.009504 0.019334 -0.005062 0.000000 0.000000 0.000000
# 3 -0.005061 -0.005062 0.015468 0.000000 0.000000 0.000000
# 4 0.000000 0.000000 0.000000 -0.025314 0.000000 0.000000
# 5 0.000000 0.000000 0.000000 0.000000 -0.025338 0.000000
# 6 0.000000 0.000000 0.000000 0.000000 0.000000 0.067650
#
#
# Mechanical properties :
#
#
# Convention : Reuss Voigt Hill
#
# Bulk Modulus (GPa) = 67.19997 67.24935 67.22466
# Shear Modulus (GPa) = 43.34687 -4.44940 19.44874
#
# Velocity S-wave (km/s) = 4.99679 -1.60090 3.34702
# Velocity P-wave (km/s) = 8.48517 5.94296 7.32519
#
# Compressibility (1/GPa) = 0.01488096
#
# Stress axis : x y z
#
# Youngs Moduli (GPa) = 51.72371 51.72362 64.64843
#
# Poissons Ratio (x) = 0.49159 0.32722
# Poissons Ratio (y) = 0.49159 0.32722
# Poissons Ratio (z) = 0.26180 0.26180
#
# Static dielectric constant tensor:
#      x y z
#    x 1.585450 0.000000 0.000000 
#    y 0.000000 1.585450 0.000000 
#    z 0.000000 0.000000 1.597410 
# 
# From -- ./inp_files/1844.got.cif
#   From: 2010.05.17/outbox.cif.g08.bks.cpg/sg132_1_cif.got.tgz:1844.got - 2010.05.20 12:30:18.
