data_PCOD9567640
_publ_section_title
;
Structure prediction by ZEFSAII (Michael W. Deem and Ramdas Pophale) SiO2 
 PCOD9567640
Probable space group: P 42/N B C
;
_chemical_formula_sum "Si O2"
_cell_formula_units_Z 64
_cell_length_a 13.516791
_cell_length_b 13.516791
_cell_length_c 17.711298
_cell_angle_alpha 90.000000
_cell_angle_beta 90.000000
_cell_angle_gamma 90.000000
_cell_volume 3235.918595
_symmetry_space_group_name_H-M "P 42/N B C"
_symmetry_group_IT_number 133
_space_group.IT_coordinate_system_code '2'
_symmetry_cell_setting 'tetragonal'
loop_
_space_group_symop_operation_xyz
x,y,z
1/2-y,x,1/2+z
1/2-x,1/2-y,z
y,1/2-x,1/2+z
x,1/2-y,-z
1/2-x,y,-z
y,x,1/2-z
1/2-y,1/2-x,1/2-z
-x,-y,-z
1/2+y,-x,1/2-z
1/2+x,1/2+y,-z
-y,1/2+x,1/2-z
-x,1/2+y,z
1/2+x,-y,z
-y,-x,1/2+z
1/2+y,1/2+x,1/2+z
loop_
_atom_site_type_symbol
_atom_site_label
_atom_site_fract_x
_atom_site_fract_y
_atom_site_fract_z
Si Si1 0.914828 0.250000 0.500000
Si Si2 0.750000 0.250000 0.116238
Si Si3 0.929114 0.143150 0.799093
Si Si4 0.485364 0.065442 0.572992
Si Si5 0.476396 0.345415 0.197848
O O1 0.836925 0.293385 0.438064
O O2 0.983630 0.325739 0.545143
O O3 0.833139 0.301569 0.166523
O O4 0.962025 0.064716 0.862266
O O5 0.007912 0.229645 0.788300
O O6 0.897330 0.078265 0.727231
O O7 0.500000 0.000000 0.500000
O O8 0.380092 0.049188 0.613313
O O9 0.390754 0.390754 0.250000
#
# Coordination Sequence:
#
# PCOD9567640 Si02
#       5
#     8   8  16  16  16
#     4   9  18  32  52  83 112 134 182 233 280 333
#     4   9  16  29  56  84 104 138 174 240 304 316
#     4  10  19  34  55  82 112 137 181 228 274 330
#     4  10  21  35  55  80 109 144 179 225 276 323
#     4  10  21  34  54  82 111 148 181 225 278 324
#
# _framework density 19.778002000000001
#
# number of rings (size 3 to 8) (size 9 to 14) (size 15 to 20)
#    0.000    2.250    0.000    3.000    0.000    7.000 
#    0.000    0.000    0.000   18.750    0.000    0.000 
#    0.000    0.000    0.000    0.000    0.000    0.000 
#
# Total GULP energy -357036.243365 kJ/mol
# GULP energy per Si atom -5578.691303 kJ/mol
# Density = 1.973299 g / cm^3
# Si number density = 19.778002 Si / 1000 Ang^3
#
#
#
# Elastic Constant Matrix: (Units=GPa)
#
#
# Indices 1 2 3 4 5 6 
#
# 1 56.0197 22.3140 12.9345 0.0000 0.0000 0.0000
# 2 22.3140 56.0197 12.9345 0.0000 0.0000 0.0000
# 3 12.9345 12.9345 82.8378 0.0000 0.0000 0.0000
# 4 0.0000 0.0000 0.0000 26.7933 0.0000 0.0000
# 5 0.0000 0.0000 0.0000 0.0000 26.7933 0.0000
# 6 0.0000 0.0000 0.0000 0.0000 0.0000 28.1029
#
#
#
# Elastic Compliance Matrix: (Units=1/GPa)
#
#
# Indices 1 2 3 4 5 6 
#
# 1 0.021564 -0.008104 -0.002102 0.000000 0.000000 0.000000
# 2 -0.008104 0.021564 -0.002102 0.000000 0.000000 0.000000
# 3 -0.002102 -0.002102 0.012728 0.000000 0.000000 0.000000
# 4 0.000000 0.000000 0.000000 0.037323 0.000000 0.000000
# 5 0.000000 0.000000 0.000000 0.000000 0.037323 0.000000
# 6 0.000000 0.000000 0.000000 0.000000 0.000000 0.035584
#
#
# Mechanical properties :
#
#
# Convention : Reuss Voigt Hill
#
# Bulk Modulus (GPa) = 32.00888 32.36036 32.18462
# Shear Modulus (GPa) = 24.86146 26.11753 25.48950
#
# Velocity S-wave (km/s) = 3.54930 3.63786 3.59385
# Velocity P-wave (km/s) = 5.74595 5.83461 5.79045
#
# Compressibility (1/GPa) = 0.03124133
#
# Stress axis : x y z
#
# Youngs Moduli (GPa) = 46.37309 46.37309 78.56628
#
# Poissons Ratio (x) = 0.37582 0.16512
# Poissons Ratio (y) = 0.37582 0.16512
# Poissons Ratio (z) = 0.09746 0.09746
#
# Static dielectric constant tensor:
#      x y z
#    x 0.842910 0.000000 0.000000 
#    y 0.000000 0.842910 0.000000 
#    z 0.000000 0.000000 1.724320 
# 
# From -- ./inp_files/5242.got.cif
#   From: 2010.05.17/outbox.cif.g08.bks.cpg/sg133_3_cif.got.tgz:5242.got - 2010.05.20 12:37:36.
