data_PCOD9567796
_publ_section_title
;
Structure prediction by ZEFSAII (Michael W. Deem and Ramdas Pophale) SiO2 
 PCOD9567796
Probable space group: P 42/N B C
;
_chemical_formula_sum "Si O2"
_cell_formula_units_Z 96
_cell_length_a 23.125559
_cell_length_b 23.125559
_cell_length_c 9.462671
_cell_angle_alpha 90.000000
_cell_angle_beta 90.000000
_cell_angle_gamma 90.000000
_cell_volume 5060.555820
_symmetry_space_group_name_H-M "P 42/N B C"
_symmetry_group_IT_number 133
_space_group.IT_coordinate_system_code '2'
_symmetry_cell_setting 'tetragonal'
loop_
_space_group_symop_operation_xyz
x,y,z
1/2-y,x,1/2+z
1/2-x,1/2-y,z
y,1/2-x,1/2+z
x,1/2-y,-z
1/2-x,y,-z
y,x,1/2-z
1/2-y,1/2-x,1/2-z
-x,-y,-z
1/2+y,-x,1/2-z
1/2+x,1/2+y,-z
-y,1/2+x,1/2-z
-x,1/2+y,z
1/2+x,-y,z
-y,-x,1/2+z
1/2+y,1/2+x,1/2+z
loop_
_atom_site_type_symbol
_atom_site_label
_atom_site_fract_x
_atom_site_fract_y
_atom_site_fract_z
Si Si1 0.351627 0.591002 0.382253
Si Si2 0.308704 0.035840 0.908697
Si Si3 0.479637 0.963018 0.632203
Si Si4 0.904107 0.604351 0.597966
Si Si5 0.312801 0.598013 0.073059
Si Si6 0.809758 0.968198 0.569458
O O1 0.416537 0.564618 0.356648
O O2 0.320090 0.610976 0.239049
O O3 0.362283 0.642997 0.488344
O O4 0.316402 0.537323 0.444369
O O5 0.307231 0.043658 0.738729
O O6 0.331035 0.969954 0.932832
O O7 0.250000 0.037427 0.000000
O O8 0.347685 0.084026 0.981177
O O9 0.530628 0.915647 0.641674
O O10 0.488477 0.011524 0.750000
O O11 0.500000 0.000000 0.500000
O O12 0.877821 0.622180 0.750000
O O13 0.863598 0.558240 0.517961
O O14 0.250000 0.602532 0.000000
O O15 0.750000 0.948292 0.500000
#
# Coordination Sequence:
#
# PCOD9567796 Si02
#       6
#    16  16  16  16  16  16
#     4  11  22  38  62  83 124 161 202 259 315 375
#     4  10  21  39  59  85 126 163 206 254 311 372
#     4  11  21  32  54  89 125 155 195 243 311 377
#     4  11  22  35  58  90 126 160 201 253 310 381
#     4  10  23  39  60  88 118 160 206 258 317 386
#     4  11  24  38  59  90 122 167 209 256 314 378
#
# _framework density 18.970247000000001
#
# number of rings (size 3 to 8) (size 9 to 14) (size 15 to 20)
#    0.000    1.333    3.333    2.500    4.667    4.000 
#    0.000    0.000    0.000    4.500    0.000    3.500 
#    0.000    0.000    0.000    0.000    0.000    0.000 
#
# Total GULP energy -534828.430401 kJ/mol
# GULP energy per Si atom -5571.129483 kJ/mol
# Density = 1.892707 g / cm^3
# Si number density = 18.970247 Si / 1000 Ang^3
#
#
#
# Elastic Constant Matrix: (Units=GPa)
#
#
# Indices 1 2 3 4 5 6 
#
# 1 47.1477 10.7663 28.0676 0.0000 0.0000 0.0000
# 2 10.7663 47.1467 28.0670 0.0000 0.0000 0.0000
# 3 28.0676 28.0670 135.7661 0.0000 0.0000 0.0000
# 4 0.0000 0.0000 0.0000 30.5317 0.0000 0.0000
# 5 0.0000 0.0000 0.0000 0.0000 30.5319 0.0000
# 6 0.0000 0.0000 0.0000 0.0000 0.0000 4.0880
#
#
#
# Elastic Compliance Matrix: (Units=1/GPa)
#
#
# Indices 1 2 3 4 5 6 
#
# 1 0.024540 -0.002946 -0.004464 0.000000 0.000000 0.000000
# 2 -0.002946 0.024541 -0.004464 0.000000 0.000000 0.000000
# 3 -0.004464 -0.004464 0.009211 0.000000 0.000000 0.000000
# 4 0.000000 0.000000 0.000000 0.032753 0.000000 0.000000
# 5 0.000000 0.000000 0.000000 0.000000 0.032753 0.000000
# 6 0.000000 0.000000 0.000000 0.000000 0.000000 0.244618
#
#
# Mechanical properties :
#
#
# Convention : Reuss Voigt Hill
#
# Bulk Modulus (GPa) = 28.94945 40.42914 34.68929
# Shear Modulus (GPa) = 12.38604 23.90763 18.14684
#
# Velocity S-wave (km/s) = 2.55800 3.55388 3.09624
# Velocity P-wave (km/s) = 4.90082 6.18047 5.57747
#
# Compressibility (1/GPa) = 0.03454297
#
# Stress axis : x y z
#
# Youngs Moduli (GPa) = 40.74914 40.74849 108.56097
#
# Poissons Ratio (x) = 0.12006 0.48464
# Poissons Ratio (y) = 0.12006 0.48464
# Poissons Ratio (z) = 0.18191 0.18191
#
# Static dielectric constant tensor:
#      x y z
#    x 1.583950 0.000000 0.000000 
#    y 0.000000 1.583950 0.000000 
#    z 0.000000 0.000000 1.744010 
# 
# From -- ./inp_files/1905.got.cif
#   From: 2010.05.17/outbox.cif.g08.bks.cpg/sg133_1_cif.got.tgz:1905.got - 2010.05.20 12:37:36.
