data_PCOD9567766
_publ_section_title
;
Structure prediction by ZEFSAII (Michael W. Deem and Ramdas Pophale) SiO2 
 PCOD9567766
Probable space group: P 42/N B C
;
_chemical_formula_sum "Si O2"
_cell_formula_units_Z 44
_cell_length_a 14.797028
_cell_length_b 14.797028
_cell_length_c 9.556334
_cell_angle_alpha 90.000000
_cell_angle_beta 90.000000
_cell_angle_gamma 90.000000
_cell_volume 2092.378802
_symmetry_space_group_name_H-M "P 42/N B C"
_symmetry_group_IT_number 133
_space_group.IT_coordinate_system_code '2'
_symmetry_cell_setting 'tetragonal'
loop_
_space_group_symop_operation_xyz
x,y,z
1/2-y,x,1/2+z
1/2-x,1/2-y,z
y,1/2-x,1/2+z
x,1/2-y,-z
1/2-x,y,-z
y,x,1/2-z
1/2-y,1/2-x,1/2-z
-x,-y,-z
1/2+y,-x,1/2-z
1/2+x,1/2+y,-z
-y,1/2+x,1/2-z
-x,1/2+y,z
1/2+x,-y,z
-y,-x,1/2+z
1/2+y,1/2+x,1/2+z
loop_
_atom_site_type_symbol
_atom_site_label
_atom_site_fract_x
_atom_site_fract_y
_atom_site_fract_z
Si Si1 0.089959 0.954284 0.203709
Si Si2 0.851976 0.648025 0.250000
Si Si3 0.750000 0.750000 0.500000
Si Si4 0.853719 0.149165 0.043626
O O1 0.126749 0.872118 0.296060
O O2 0.089605 0.922714 0.045355
O O3 0.156314 0.039431 0.233042
O O4 0.993072 0.993072 0.250000
O O5 0.806974 0.688190 0.390584
O O6 0.881200 0.250000 0.000000
O O7 0.750000 0.138379 0.000000
#
# Coordination Sequence:
#
# PCOD9567766 Si02
#       4
#    16   8   4  16
#     4  10  23  39  63  98 123 174 215 273 331 390
#     4   9  24  38  72  92 136 166 221 274 330 408
#     4  10  20  50  60 106 124 182 216 270 356 378
#     4  11  23  42  66  94 133 175 224 274 326 391
#
# _framework density 21.028694999999999
#
# number of rings (size 3 to 8) (size 9 to 14) (size 15 to 20)
#    1.091    0.727    0.000    3.273    5.091    2.909 
#    0.000    0.000    0.000    0.000    0.000    0.000 
#    0.000    0.000    0.000    0.000    0.000    0.000 
#
# Total GULP energy -245388.176480 kJ/mol
# GULP energy per Si atom -5577.004011 kJ/mol
# Density = 2.098083 g / cm^3
# Si number density = 21.028695 Si / 1000 Ang^3
#
#
#
# Elastic Constant Matrix: (Units=GPa)
#
#
# Indices 1 2 3 4 5 6 
#
# 1 70.3360 12.5727 11.7381 0.0000 0.0000 0.0000
# 2 12.5727 70.3348 11.7380 0.0000 0.0000 0.0000
# 3 11.7381 11.7380 96.3663 0.0000 0.0000 0.0000
# 4 0.0000 0.0000 0.0000 94.4442 0.0000 0.0000
# 5 0.0000 0.0000 0.0000 0.0000 94.4507 0.0000
# 6 0.0000 0.0000 0.0000 0.0000 0.0000 10.5680
#
#
#
# Elastic Compliance Matrix: (Units=1/GPa)
#
#
# Indices 1 2 3 4 5 6 
#
# 1 0.014902 -0.002410 -0.001522 0.000000 0.000000 0.000000
# 2 -0.002410 0.014902 -0.001522 0.000000 0.000000 0.000000
# 3 -0.001522 -0.001522 0.010748 0.000000 0.000000 0.000000
# 4 0.000000 0.000000 0.000000 0.010588 0.000000 0.000000
# 5 0.000000 0.000000 0.000000 0.000000 0.010588 0.000000
# 6 0.000000 0.000000 0.000000 0.000000 0.000000 0.094625
#
#
# Mechanical properties :
#
#
# Convention : Reuss Voigt Hill
#
# Bulk Modulus (GPa) = 33.73140 34.34830 34.03985
# Shear Modulus (GPa) = 28.22601 53.29181 40.75891
#
# Velocity S-wave (km/s) = 3.66766 5.03959 4.40733
# Velocity P-wave (km/s) = 5.83191 7.08750 6.49014
#
# Compressibility (1/GPa) = 0.02964597
#
# Stress axis : x y z
#
# Youngs Moduli (GPa) = 67.10423 67.10313 93.04254
#
# Poissons Ratio (x) = 0.16171 0.14158
# Poissons Ratio (y) = 0.16171 0.14158
# Poissons Ratio (z) = 0.10211 0.10211
#
# Static dielectric constant tensor:
#      x y z
#    x 1.766960 0.000000 0.000000 
#    y 0.000000 1.766960 0.000000 
#    z 0.000000 0.000000 1.675330 
# 
# From -- ./inp_files/2543.got.cif
#   From: 2010.05.17/outbox.cif.g08.bks.cpg/sg133_2_cif.got.tgz:2543.got - 2010.05.20 12:37:36.
