data_PCOD9567741
_publ_section_title
;
Structure prediction by ZEFSAII (Michael W. Deem and Ramdas Pophale) SiO2 
 PCOD9567741
Probable space group: P 42/N B C
;
_chemical_formula_sum "Si O2"
_cell_formula_units_Z 104
_cell_length_a 29.784466
_cell_length_b 29.784466
_cell_length_c 5.835408
_cell_angle_alpha 90.000000
_cell_angle_beta 90.000000
_cell_angle_gamma 90.000000
_cell_volume 5176.674554
_symmetry_space_group_name_H-M "P 42/N B C"
_symmetry_group_IT_number 133
_space_group.IT_coordinate_system_code '2'
_symmetry_cell_setting 'tetragonal'
loop_
_space_group_symop_operation_xyz
x,y,z
1/2-y,x,1/2+z
1/2-x,1/2-y,z
y,1/2-x,1/2+z
x,1/2-y,-z
1/2-x,y,-z
y,x,1/2-z
1/2-y,1/2-x,1/2-z
-x,-y,-z
1/2+y,-x,1/2-z
1/2+x,1/2+y,-z
-y,1/2+x,1/2-z
-x,1/2+y,z
1/2+x,-y,z
-y,-x,1/2+z
1/2+y,1/2+x,1/2+z
loop_
_atom_site_type_symbol
_atom_site_label
_atom_site_fract_x
_atom_site_fract_y
_atom_site_fract_z
Si Si1 0.282330 0.486470 0.321019
Si Si2 0.101691 0.584350 0.137580
Si Si3 0.152955 0.168582 0.502808
Si Si4 0.750000 0.914922 0.000000
Si Si5 0.562473 0.864048 0.924282
Si Si6 0.002101 0.067848 0.162638
Si Si7 0.852779 0.499983 0.970332
O O1 0.250000 0.511572 0.500000
O O2 0.251971 0.446782 0.220020
O O3 0.325045 0.462783 0.436481
O O4 0.306639 0.509513 0.105129
O O5 0.102126 0.612669 0.376840
O O6 0.134531 0.542445 0.185348
O O7 0.049974 0.568024 0.094493
O O8 0.174566 0.174566 0.250000
O O9 0.114555 0.205735 0.500116
O O10 0.139320 0.115289 0.519373
O O11 0.176837 0.176837 0.750000
O O12 0.546053 0.853428 0.668445
O O13 0.538806 0.911411 0.987031
O O14 0.020436 0.020436 0.250000
O O15 0.003305 0.105357 0.359696
#
# Coordination Sequence:
#
# PCOD9567741 Si02
#       7
#    16  16  16   8  16  16  16
#     4  11  22  39  59  83 114 142 186 238 294 350
#     4  10  20  39  54  80 114 157 190 225 269 327
#     4  12  26  43  67  89 109 139 177 225 291 364
#     4  12  26  44  62  89 114 136 178 232 300 358
#     4  11  22  39  58  87 111 148 186 232 289 358
#     4  10  22  34  52  78 115 150 190 225 273 334
#     4  10  22  37  57  80 114 151 186 232 279 341
#
# _framework density 20.090118
#
# number of rings (size 3 to 8) (size 9 to 14) (size 15 to 20)
#    0.000    1.231    3.077    3.231    6.462    2.462 
#    0.000    0.000    0.000    1.385    0.000    0.000 
#    0.000    0.000    0.000    0.000    0.000    0.000 
#
# Total GULP energy -579752.431848 kJ/mol
# GULP energy per Si atom -5574.542614 kJ/mol
# Density = 2.004439 g / cm^3
# Si number density = 20.090118 Si / 1000 Ang^3
#
#
#
# Elastic Constant Matrix: (Units=GPa)
#
#
# Indices 1 2 3 4 5 6 
#
# 1 49.6641 21.9217 12.7371 0.0000 0.0000 0.0000
# 2 21.9217 49.6641 12.7371 0.0000 0.0000 0.0000
# 3 12.7371 12.7371 109.1848 0.0000 0.0000 0.0000
# 4 0.0000 0.0000 0.0000 27.4833 0.0000 0.0000
# 5 0.0000 0.0000 0.0000 0.0000 27.4833 0.0000
# 6 0.0000 0.0000 0.0000 0.0000 0.0000 21.3302
#
#
#
# Elastic Compliance Matrix: (Units=1/GPa)
#
#
# Indices 1 2 3 4 5 6 
#
# 1 0.025310 -0.010736 -0.001700 0.000000 0.000000 0.000000
# 2 -0.010736 0.025310 -0.001700 0.000000 0.000000 0.000000
# 3 -0.001700 -0.001700 0.009555 0.000000 0.000000 0.000000
# 4 0.000000 0.000000 0.000000 0.036386 0.000000 0.000000
# 5 0.000000 0.000000 0.000000 0.000000 0.036386 0.000000
# 6 0.000000 0.000000 0.000000 0.000000 0.000000 0.046882
#
#
# Mechanical properties :
#
#
# Convention : Reuss Voigt Hill
#
# Bulk Modulus (GPa) = 31.34475 33.70054 32.52265
# Shear Modulus (GPa) = 22.85864 26.00050 24.42957
#
# Velocity S-wave (km/s) = 3.37680 3.60139 3.49090
# Velocity P-wave (km/s) = 5.55334 5.83990 5.69842
#
# Compressibility (1/GPa) = 0.03190327
#
# Stress axis : x y z
#
# Youngs Moduli (GPa) = 39.50998 39.50998 104.65222
#
# Poissons Ratio (x) = 0.42417 0.17793
# Poissons Ratio (y) = 0.42417 0.17793
# Poissons Ratio (z) = 0.06717 0.06717
#
# Static dielectric constant tensor:
#      x y z
#    x 1.738390 0.000000 0.000000 
#    y 0.000000 1.738390 0.000000 
#    z 0.000000 0.000000 1.954610 
# 
# From -- ./inp_files/623.got.cif
#   From: 2010.05.17/outbox.cif.g08.bks.cpg/sg133_1_cif.got.tgz:623.got - 2010.05.20 12:37:36.
