data_PCOD9567469
_publ_section_title
;
Structure prediction by ZEFSAII (Michael W. Deem and Ramdas Pophale) SiO2 
 PCOD9567469
Probable space group: P 42/M C M
;
_chemical_formula_sum "Si O2"
_cell_formula_units_Z 46
_cell_length_a 12.279668
_cell_length_b 12.279668
_cell_length_c 15.819710
_cell_angle_alpha 90.000000
_cell_angle_beta 90.000000
_cell_angle_gamma 90.000000
_cell_volume 2385.457966
_symmetry_space_group_name_H-M "P 42/M C M"
_symmetry_group_IT_number 132
_symmetry_cell_setting 'tetragonal'
loop_
_space_group_symop_operation_xyz
x,y,z
-y,x,1/2+z
-x,-y,z
y,-x,1/2+z
x,-y,1/2-z
-x,y,1/2-z
y,x,-z
-y,-x,-z
-x,-y,-z
y,-x,1/2-z
x,y,-z
-y,x,1/2-z
-x,y,1/2+z
x,-y,1/2+z
-y,-x,z
y,x,z
loop_
_atom_site_type_symbol
_atom_site_label
_atom_site_fract_x
_atom_site_fract_y
_atom_site_fract_z
Si Si1 0.143194 0.143194 0.630202
Si Si2 0.000000 0.294238 0.250000
Si Si3 0.281587 0.281587 0.500000
Si Si4 0.783072 0.398205 0.688639
Si Si5 0.000000 0.000000 0.500000
Si Si6 0.283709 0.540148 0.500000
O O1 0.217909 0.063923 0.685149
O O2 0.223345 0.223345 0.578683
O O3 0.068304 0.068304 0.571934
O O4 0.907282 0.365359 0.294532
O O5 0.269773 0.411089 0.500000
O O6 0.755665 0.500000 0.750000
O O7 0.701872 0.298129 0.709637
O O8 0.767534 0.421637 0.588980
O O9 0.404874 0.595127 0.500000
#
# Coordination Sequence:
#
# PCOD9567469 Si02
#       6
#     8   8   4  16   2   8
#     4  11  24  41  67  96 133 180 222 289 334 425
#     4  12  23  45  68  98 138 179 231 282 352 412
#     4  11  23  43  65  98 136 170 229 275 357 395
#     4  11  25  45  70 101 138 182 230 285 349 417
#     4  10  24  38  58 104 126 178 232 276 348 392
#     4  10  24  43  69 100 137 181 229 289 340 429
#
# _framework density 19.283508999999999
#
# number of rings (size 3 to 8) (size 9 to 14) (size 15 to 20)
#    0.000    1.043    1.739    3.913    2.435    3.130 
#    3.130    5.217    0.000    0.000    0.000    0.000 
#    0.000    0.000    0.000    0.000    0.000    0.000 
#
# Total GULP energy -256422.584362 kJ/mol
# GULP energy per Si atom -5574.404008 kJ/mol
# Density = 1.923962 g / cm^3
# Si number density = 19.283509 Si / 1000 Ang^3
#
#
#
# Elastic Constant Matrix: (Units=GPa)
#
#
# Indices 1 2 3 4 5 6 
#
# 1 150.8638 89.4077 75.2364 0.0000 0.0000 0.0000
# 2 89.4077 150.8657 75.2378 0.0000 0.0000 0.0000
# 3 75.2364 75.2378 151.0147 0.0000 0.0000 0.0000
# 4 0.0000 0.0000 0.0000 6.3702 0.0000 0.0000
# 5 0.0000 0.0000 0.0000 0.0000 6.3827 0.0000
# 6 0.0000 0.0000 0.0000 0.0000 0.0000 37.3957
#
#
#
# Elastic Compliance Matrix: (Units=1/GPa)
#
#
# Indices 1 2 3 4 5 6 
#
# 1 0.011160 -0.005111 -0.003014 0.000000 0.000000 0.000000
# 2 -0.005111 0.011160 -0.003014 0.000000 0.000000 0.000000
# 3 -0.003014 -0.003014 0.009625 0.000000 0.000000 0.000000
# 4 0.000000 0.000000 0.000000 0.156982 0.000000 0.000000
# 5 0.000000 0.000000 0.000000 0.000000 0.156673 0.000000
# 6 0.000000 0.000000 0.000000 0.000000 0.000000 0.026741
#
#
# Mechanical properties :
#
#
# Convention : Reuss Voigt Hill
#
# Bulk Modulus (GPa) = 103.43101 103.61200 103.52150
# Shear Modulus (GPa) = 12.56781 24.22055 18.39418
#
# Velocity S-wave (km/s) = 2.55569 3.54789 3.09185
# Velocity P-wave (km/s) = 7.90330 8.40422 8.15761
#
# Compressibility (1/GPa) = 0.00966828
#
# Stress axis : x y z
#
# Youngs Moduli (GPa) = 89.60173 89.60209 103.89629
#
# Poissons Ratio (x) = 0.45796 0.31313
# Poissons Ratio (y) = 0.45796 0.31314
# Poissons Ratio (z) = 0.27004 0.27006
#
# Static dielectric constant tensor:
#      x y z
#    x 1.654160 0.000000 0.000000 
#    y 0.000000 1.654160 0.000000 
#    z 0.000000 0.000000 1.689790 
# 
# From -- ./inp_files/5789.got.cif
#   From: 2010.05.17/outbox.cif.g08.bks.cpg/sg132_3_cif.got.tgz:5789.got - 2010.05.20 12:30:18.
