data_PCOD9567861
_publ_section_title
;
Structure prediction by ZEFSAII (Michael W. Deem and Ramdas Pophale) SiO2 
 PCOD9567861
Probable space group: P 42/N B C
;
_chemical_formula_sum "Si O2"
_cell_formula_units_Z 28
_cell_length_a 9.110526
_cell_length_b 9.110526
_cell_length_c 14.029819
_cell_angle_alpha 90.000000
_cell_angle_beta 90.000000
_cell_angle_gamma 90.000000
_cell_volume 1164.498603
_symmetry_space_group_name_H-M "P 42/N B C"
_symmetry_group_IT_number 133
_space_group.IT_coordinate_system_code '2'
_symmetry_cell_setting 'tetragonal'
loop_
_space_group_symop_operation_xyz
x,y,z
1/2-y,x,1/2+z
1/2-x,1/2-y,z
y,1/2-x,1/2+z
x,1/2-y,-z
1/2-x,y,-z
y,x,1/2-z
1/2-y,1/2-x,1/2-z
-x,-y,-z
1/2+y,-x,1/2-z
1/2+x,1/2+y,-z
-y,1/2+x,1/2-z
-x,1/2+y,z
1/2+x,-y,z
-y,-x,1/2+z
1/2+y,1/2+x,1/2+z
loop_
_atom_site_type_symbol
_atom_site_label
_atom_site_fract_x
_atom_site_fract_y
_atom_site_fract_z
Si Si1 0.341707 0.456464 0.091208
Si Si2 0.250000 0.250000 0.750000
Si Si3 0.750000 0.429380 0.500000
O O1 0.260585 0.393656 0.183395
O O2 0.360655 0.629827 0.073589
O O3 0.250000 0.408159 0.000000
O O4 0.488696 0.362470 0.072517
#
# Coordination Sequence:
#
# PCOD9567861 Si02
#       3
#    16   4   8
#     4  11  22  44  67 105 150 208 255 343 408 483
#     4  12  22  40  72 106 154 206 286 336 416 482
#     4  10  22  42  72  94 150 208 256 322 430 479
#
# _framework density 24.044682999999999
#
# number of rings (size 3 to 8) (size 9 to 14) (size 15 to 20)
#    0.000    1.143    5.714    0.857    0.000    2.286 
#    0.000    0.000    0.000    0.000    0.000    0.000 
#    0.000    0.000    0.000    0.000    0.000    0.000 
#
# Total GULP energy -155934.419683 kJ/mol
# GULP energy per Si atom -5569.086417 kJ/mol
# Density = 2.398996 g / cm^3
# Si number density = 24.044683 Si / 1000 Ang^3
#
#
#
# Elastic Constant Matrix: (Units=GPa)
#
#
# Indices 1 2 3 4 5 6 
#
# 1 185.7148 77.6324 63.7009 0.0000 0.0000 0.0000
# 2 77.6324 185.7148 63.7009 0.0000 0.0000 0.0000
# 3 63.7009 63.7009 154.5270 0.0000 0.0000 0.0000
# 4 0.0000 0.0000 0.0000 10.9404 0.0000 0.0000
# 5 0.0000 0.0000 0.0000 0.0000 10.9404 0.0000
# 6 0.0000 0.0000 0.0000 0.0000 0.0000 56.7027
#
#
#
# Elastic Compliance Matrix: (Units=1/GPa)
#
#
# Indices 1 2 3 4 5 6 
#
# 1 0.006998 -0.002255 -0.001955 0.000000 0.000000 0.000000
# 2 -0.002255 0.006998 -0.001955 0.000000 0.000000 0.000000
# 3 -0.001955 -0.001955 0.008083 0.000000 0.000000 0.000000
# 4 0.000000 0.000000 0.000000 0.091404 0.000000 0.000000
# 5 0.000000 0.000000 0.000000 0.000000 0.091404 0.000000
# 6 0.000000 0.000000 0.000000 0.000000 0.000000 0.017636
#
#
# Mechanical properties :
#
#
# Convention : Reuss Voigt Hill
#
# Bulk Modulus (GPa) = 102.57836 104.00277 103.29057
# Shear Modulus (GPa) = 20.99929 37.11151 29.05540
#
# Velocity S-wave (km/s) = 2.95845 3.93293 3.47996
# Velocity P-wave (km/s) = 7.37727 7.99823 7.69402
#
# Compressibility (1/GPa) = 0.00974864
#
# Stress axis : x y z
#
# Youngs Moduli (GPa) = 142.90406 142.90406 123.70979
#
# Poissons Ratio (x) = 0.32218 0.24189
# Poissons Ratio (y) = 0.32218 0.24189
# Poissons Ratio (z) = 0.27942 0.27942
#
# Static dielectric constant tensor:
#      x y z
#    x 3.211980 0.000000 0.000000 
#    y 0.000000 3.211980 0.000000 
#    z 0.000000 0.000000 1.843600 
# 
# From -- ./inp_files/3626.got.cif
#   From: 2010.05.17/outbox.cif.g08.bks.cpg/sg133_2_cif.got.tgz:3626.got - 2010.05.20 12:37:36.
