data_PCOD9567744
_publ_section_title
;
Structure prediction by ZEFSAII (Michael W. Deem and Ramdas Pophale) SiO2 
 PCOD9567744
Probable space group: P 42/N B C
;
_chemical_formula_sum "Si O2"
_cell_formula_units_Z 96
_cell_length_a 13.939505
_cell_length_b 13.939505
_cell_length_c 20.793867
_cell_angle_alpha 90.000000
_cell_angle_beta 90.000000
_cell_angle_gamma 90.000000
_cell_volume 4040.452131
_symmetry_space_group_name_H-M "P 42/N B C"
_symmetry_group_IT_number 133
_space_group.IT_coordinate_system_code '2'
_symmetry_cell_setting 'tetragonal'
loop_
_space_group_symop_operation_xyz
x,y,z
1/2-y,x,1/2+z
1/2-x,1/2-y,z
y,1/2-x,1/2+z
x,1/2-y,-z
1/2-x,y,-z
y,x,1/2-z
1/2-y,1/2-x,1/2-z
-x,-y,-z
1/2+y,-x,1/2-z
1/2+x,1/2+y,-z
-y,1/2+x,1/2-z
-x,1/2+y,z
1/2+x,-y,z
-y,-x,1/2+z
1/2+y,1/2+x,1/2+z
loop_
_atom_site_type_symbol
_atom_site_label
_atom_site_fract_x
_atom_site_fract_y
_atom_site_fract_z
Si Si1 0.367546 0.097907 0.176188
Si Si2 0.485484 0.334824 0.372383
Si Si3 0.404481 0.964568 0.629130
Si Si4 0.317151 0.893041 0.750190
Si Si5 0.851591 0.805989 0.057106
Si Si6 0.019234 0.886014 0.490864
O O1 0.372824 0.127177 0.250000
O O2 0.259955 0.068578 0.152981
O O3 0.397176 0.181626 0.126797
O O4 0.433217 0.005852 0.161992
O O5 0.413062 0.422693 0.384570
O O6 0.555117 0.357581 0.312938
O O7 0.540429 0.333774 0.441451
O O8 0.327722 0.949285 0.684173
O O9 0.403169 0.894529 0.566870
O O10 0.370886 0.793499 0.738037
O O11 0.750000 0.750000 0.063630
O O12 0.845270 0.916492 0.033006
O O13 0.905332 0.750000 0.000000
O O14 0.000000 0.000000 0.500000
#
# Coordination Sequence:
#
# PCOD9567744 Si02
#       6
#    16  16  16  16  16  16
#     4  11  23  42  64 101 142 179 231 296 349 434
#     4  11  21  41  70  95 133 183 224 281 357 417
#     4  10  22  44  67  96 133 177 230 287 350 416
#     4  11  23  42  63  92 129 175 230 282 341 412
#     4  10  20  39  61  91 136 174 219 284 353 412
#     4   9  21  42  66  95 129 179 234 277 348 431
#
# _framework density 23.759717999999999
#
# number of rings (size 3 to 8) (size 9 to 14) (size 15 to 20)
#    0.000    1.667    1.667    3.500    0.000    2.333 
#   15.000    0.833    0.000    2.000    0.000    0.000 
#    0.000    0.000    0.000    0.000    0.000    0.000 
#
# Total GULP energy -536069.065033 kJ/mol
# GULP energy per Si atom -5584.052761 kJ/mol
# Density = 2.370564 g / cm^3
# Si number density = 23.759718 Si / 1000 Ang^3
#
#
#
# Elastic Constant Matrix: (Units=GPa)
#
#
# Indices 1 2 3 4 5 6 
#
# 1 60.4402 19.3129 8.1163 0.0000 0.0000 0.0000
# 2 19.3129 60.4401 8.1163 0.0000 0.0000 0.0000
# 3 8.1163 8.1163 174.2543 0.0000 0.0000 0.0000
# 4 0.0000 0.0000 0.0000 23.5009 0.0000 0.0000
# 5 0.0000 0.0000 0.0000 0.0000 23.5008 0.0000
# 6 0.0000 0.0000 0.0000 0.0000 0.0000 16.5268
#
#
#
# Elastic Compliance Matrix: (Units=1/GPa)
#
#
# Indices 1 2 3 4 5 6 
#
# 1 0.018487 -0.005828 -0.000590 0.000000 0.000000 0.000000
# 2 -0.005828 0.018487 -0.000590 0.000000 0.000000 0.000000
# 3 -0.000590 -0.000590 0.005794 0.000000 0.000000 0.000000
# 4 0.000000 0.000000 0.000000 0.042552 0.000000 0.000000
# 5 0.000000 0.000000 0.000000 0.000000 0.042552 0.000000
# 6 0.000000 0.000000 0.000000 0.000000 0.000000 0.060508
#
#
# Mechanical properties :
#
#
# Convention : Reuss Voigt Hill
#
# Bulk Modulus (GPa) = 34.77939 40.69172 37.73555
# Shear Modulus (GPa) = 23.58747 30.01164 26.79955
#
# Velocity S-wave (km/s) = 3.15421 3.55791 3.36213
# Velocity P-wave (km/s) = 5.28537 5.83454 5.56673
#
# Compressibility (1/GPa) = 0.02875266
#
# Stress axis : x y z
#
# Youngs Moduli (GPa) = 54.09289 54.09279 172.60235
#
# Poissons Ratio (x) = 0.31525 0.10177
# Poissons Ratio (y) = 0.31525 0.10177
# Poissons Ratio (z) = 0.03189 0.03189
#
# Static dielectric constant tensor:
#      x y z
#    x 1.944570 0.000000 0.000000 
#    y 0.000000 1.944570 0.000000 
#    z 0.000000 0.000000 2.088030 
# 
# From -- ./inp_files/6530.got.cif
#   From: 2010.05.17/outbox.cif.g08.bks.cpg/sg133_4_cif.got.tgz:6530.got - 2010.05.20 12:37:36.
