data_PCOD9567683
_publ_section_title
;
Structure prediction by ZEFSAII (Michael W. Deem and Ramdas Pophale) SiO2 
 PCOD9567683
Probable space group: P 42/N B C
;
_chemical_formula_sum "Si O2"
_cell_formula_units_Z 88
_cell_length_a 17.280016
_cell_length_b 17.280016
_cell_length_c 14.731460
_cell_angle_alpha 90.000000
_cell_angle_beta 90.000000
_cell_angle_gamma 90.000000
_cell_volume 4398.798532
_symmetry_space_group_name_H-M "P 42/N B C"
_symmetry_group_IT_number 133
_space_group.IT_coordinate_system_code '2'
_symmetry_cell_setting 'tetragonal'
loop_
_space_group_symop_operation_xyz
x,y,z
1/2-y,x,1/2+z
1/2-x,1/2-y,z
y,1/2-x,1/2+z
x,1/2-y,-z
1/2-x,y,-z
y,x,1/2-z
1/2-y,1/2-x,1/2-z
-x,-y,-z
1/2+y,-x,1/2-z
1/2+x,1/2+y,-z
-y,1/2+x,1/2-z
-x,1/2+y,z
1/2+x,-y,z
-y,-x,1/2+z
1/2+y,1/2+x,1/2+z
loop_
_atom_site_type_symbol
_atom_site_label
_atom_site_fract_x
_atom_site_fract_y
_atom_site_fract_z
Si Si1 0.750000 0.750000 0.750000
Si Si2 0.803709 0.450431 0.282013
Si Si3 0.580814 0.130121 0.155480
Si Si4 0.929447 0.570554 0.750000
Si Si5 0.128781 0.871555 0.450872
Si Si6 0.999521 0.750000 0.500000
Si Si7 0.250000 0.750000 0.500000
Si Si8 0.914992 0.757232 0.321216
O O1 0.751628 0.824851 0.811781
O O2 0.841892 0.409412 0.194908
O O3 0.716610 0.422538 0.303464
O O4 0.859462 0.428090 0.365904
O O5 0.789670 0.539853 0.257525
O O6 0.506779 0.080079 0.189283
O O7 0.585094 0.137843 0.046984
O O8 0.849468 0.570194 0.807514
O O9 0.195794 0.806497 0.442554
O O10 0.052233 0.820066 0.462267
O O11 0.947364 0.726826 0.415537
#
# Coordination Sequence:
#
# PCOD9567683 Si02
#       8
#     4  16  16   8  16   8   4  16
#     4  10  24  48  76  92 112 172 236 298 346 392
#     4  11  22  37  62  94 136 177 215 270 338 409
#     4  11  22  38  59  93 129 178 222 272 329 412
#     4   9  22  42  62  86 126 174 218 273 338 386
#     4  11  21  36  58  94 138 178 214 259 331 415
#     4  11  22  42  62 101 138 170 214 281 334 418
#     4  10  20  32  54  90 136 174 220 246 298 428
#     4  10  22  45  67  92 127 167 226 285 340 394
#
# _framework density 20.005462000000001
#
# number of rings (size 3 to 8) (size 9 to 14) (size 15 to 20)
#    0.000    1.455    3.636    2.182    2.545    1.455 
#    3.273    1.818    0.000    0.000    0.000    0.000 
#    0.000    0.000    0.000    0.000    0.000    0.000 
#
# Total GULP energy -491159.392895 kJ/mol
# GULP energy per Si atom -5581.356737 kJ/mol
# Density = 1.995993 g / cm^3
# Si number density = 20.005462 Si / 1000 Ang^3
#
#
#
# Elastic Constant Matrix: (Units=GPa)
#
#
# Indices 1 2 3 4 5 6 
#
# 1 98.9057 45.5722 46.8308 0.0000 0.0000 0.0000
# 2 45.5722 98.9064 46.8302 0.0000 0.0000 0.0000
# 3 46.8308 46.8302 105.8834 0.0000 0.0000 0.0000
# 4 0.0000 0.0000 0.0000 4.1865 0.0000 0.0000
# 5 0.0000 0.0000 0.0000 0.0000 4.1866 0.0000
# 6 0.0000 0.0000 0.0000 0.0000 0.0000 23.2921
#
#
#
# Elastic Compliance Matrix: (Units=1/GPa)
#
#
# Indices 1 2 3 4 5 6 
#
# 1 0.014227 -0.004523 -0.004292 0.000000 0.000000 0.000000
# 2 -0.004523 0.014227 -0.004292 0.000000 0.000000 0.000000
# 3 -0.004292 -0.004292 0.013241 0.000000 0.000000 0.000000
# 4 0.000000 0.000000 0.000000 0.238865 0.000000 0.000000
# 5 0.000000 0.000000 0.000000 0.000000 0.238858 0.000000
# 6 0.000000 0.000000 0.000000 0.000000 0.000000 0.042933
#
#
# Mechanical properties :
#
#
# Convention : Reuss Voigt Hill
#
# Bulk Modulus (GPa) = 64.59543 64.68465 64.64004
# Shear Modulus (GPa) = 8.42142 17.29719 12.85930
#
# Velocity S-wave (km/s) = 2.05395 2.94364 2.53808
# Velocity P-wave (km/s) = 6.16311 6.63001 6.40082
#
# Compressibility (1/GPa) = 0.01548097
#
# Stress axis : x y z
#
# Youngs Moduli (GPa) = 70.28954 70.29065 75.52456
#
# Poissons Ratio (x) = 0.31793 0.32414
# Poissons Ratio (y) = 0.31792 0.32413
# Poissons Ratio (z) = 0.30167 0.30166
#
# Static dielectric constant tensor:
#      x y z
#    x 1.722100 0.000000 0.000000 
#    y 0.000000 1.722100 0.000000 
#    z 0.000000 0.000000 1.671030 
# 
# From -- ./inp_files/4495.got.cif
#   From: 2010.05.17/outbox.cif.g08.bks.cpg/sg133_3_cif.got.tgz:4495.got - 2010.05.20 12:37:36.
