data_PCOD9567672
_publ_section_title
;
Structure prediction by ZEFSAII (Michael W. Deem and Ramdas Pophale) SiO2 
 PCOD9567672
Probable space group: P 42/N B C
;
_chemical_formula_sum "Si O2"
_cell_formula_units_Z 60
_cell_length_a 17.642142
_cell_length_b 17.642142
_cell_length_c 9.781115
_cell_angle_alpha 90.000000
_cell_angle_beta 90.000000
_cell_angle_gamma 90.000000
_cell_volume 3044.324843
_symmetry_space_group_name_H-M "P 42/N B C"
_symmetry_group_IT_number 133
_space_group.IT_coordinate_system_code '2'
_symmetry_cell_setting 'tetragonal'
loop_
_space_group_symop_operation_xyz
x,y,z
1/2-y,x,1/2+z
1/2-x,1/2-y,z
y,1/2-x,1/2+z
x,1/2-y,-z
1/2-x,y,-z
y,x,1/2-z
1/2-y,1/2-x,1/2-z
-x,-y,-z
1/2+y,-x,1/2-z
1/2+x,1/2+y,-z
-y,1/2+x,1/2-z
-x,1/2+y,z
1/2+x,-y,z
-y,-x,1/2+z
1/2+y,1/2+x,1/2+z
loop_
_atom_site_type_symbol
_atom_site_label
_atom_site_fract_x
_atom_site_fract_y
_atom_site_fract_z
Si Si1 0.592166 0.927620 0.594768
Si Si2 0.103844 0.938796 0.043517
Si Si3 0.190946 0.595746 0.682035
Si Si4 0.966413 0.750000 0.000000
Si Si5 0.250000 0.750000 0.750000
O O1 0.598403 0.901597 0.750000
O O2 0.523793 0.888246 0.513477
O O3 0.570864 0.017528 0.597871
O O4 0.672920 0.921178 0.521330
O O5 0.161223 0.919712 0.165340
O O6 0.109013 0.880561 0.917513
O O7 0.236786 0.523615 0.626865
O O8 0.241765 0.670706 0.672505
#
# Coordination Sequence:
#
# PCOD9567672 Si02
#       5
#    16  16  16   8   4
#     4  10  19  38  62  90 118 161 210 284 305 376
#     4  10  21  36  63  84 119 169 229 243 314 371
#     4  11  23  39  55  90 128 176 202 254 306 396
#     4  10  24  37  58  92 127 154 222 264 332 363
#     4  12  24  38  56  86 152 166 196 246 316 378
#
# _framework density 19.708803
#
# number of rings (size 3 to 8) (size 9 to 14) (size 15 to 20)
#    0.000    1.600    2.667    3.200    0.000    4.800 
#    0.000    0.000    0.000    0.000    0.000   11.200 
#    0.000    0.000    0.000    0.000    0.000    0.000 
#
# Total GULP energy -335330.784086 kJ/mol
# GULP energy per Si atom -5588.846401 kJ/mol
# Density = 1.966395 g / cm^3
# Si number density = 19.708803 Si / 1000 Ang^3
#
#
#
# Elastic Constant Matrix: (Units=GPa)
#
#
# Indices 1 2 3 4 5 6 
#
# 1 72.9807 16.5996 25.9589 0.0000 0.0000 0.0000
# 2 16.5996 72.9817 25.9595 0.0000 0.0000 0.0000
# 3 25.9589 25.9595 87.7191 0.0000 0.0000 0.0000
# 4 0.0000 0.0000 0.0000 17.5515 0.0000 0.0000
# 5 0.0000 0.0000 0.0000 0.0000 17.5513 0.0000
# 6 0.0000 0.0000 0.0000 0.0000 0.0000 26.6269
#
#
#
# Elastic Compliance Matrix: (Units=1/GPa)
#
#
# Indices 1 2 3 4 5 6 
#
# 1 0.015605 -0.002131 -0.003987 0.000000 0.000000 0.000000
# 2 -0.002131 0.015605 -0.003988 0.000000 0.000000 0.000000
# 3 -0.003987 -0.003988 0.013760 0.000000 0.000000 0.000000
# 4 0.000000 0.000000 0.000000 0.056975 0.000000 0.000000
# 5 0.000000 0.000000 0.000000 0.000000 0.056976 0.000000
# 6 0.000000 0.000000 0.000000 0.000000 0.000000 0.037556
#
#
# Mechanical properties :
#
#
# Convention : Reuss Voigt Hill
#
# Bulk Modulus (GPa) = 40.39025 41.19085 40.79055
# Shear Modulus (GPa) = 22.22791 23.35683 22.79237
#
# Velocity S-wave (km/s) = 3.36194 3.44626 3.40436
# Velocity P-wave (km/s) = 5.96726 6.06471 6.01618
#
# Compressibility (1/GPa) = 0.02475845
#
# Stress axis : x y z
#
# Youngs Moduli (GPa) = 64.08089 64.08145 72.67385
#
# Poissons Ratio (x) = 0.13656 0.28978
# Poissons Ratio (y) = 0.13656 0.28979
# Poissons Ratio (z) = 0.25552 0.25553
#
# Static dielectric constant tensor:
#      x y z
#    x 1.707130 0.000000 0.000000 
#    y 0.000000 1.707130 0.000000 
#    z 0.000000 0.000000 1.699720 
# 
# From -- ./inp_files/1328.got.cif
#   From: 2010.05.17/outbox.cif.g08.bks.cpg/sg133_1_cif.got.tgz:1328.got - 2010.05.20 12:37:36.
