data_PCOD9567214
_publ_section_title
;
Structure prediction by ZEFSAII (Michael W. Deem and Ramdas Pophale) SiO2 
 PCOD9567214
Probable space group: P 42/M C M
;
_chemical_formula_sum "Si O2"
_cell_formula_units_Z 96
_cell_length_a 24.946707
_cell_length_b 24.946707
_cell_length_c 7.524164
_cell_angle_alpha 90.000000
_cell_angle_beta 90.000000
_cell_angle_gamma 90.000000
_cell_volume 4682.574606
_symmetry_space_group_name_H-M "P 42/M C M"
_symmetry_group_IT_number 132
_symmetry_cell_setting 'tetragonal'
loop_
_space_group_symop_operation_xyz
x,y,z
-y,x,1/2+z
-x,-y,z
y,-x,1/2+z
x,-y,1/2-z
-x,y,1/2-z
y,x,-z
-y,-x,-z
-x,-y,-z
y,-x,1/2-z
x,y,-z
-y,x,1/2-z
-x,y,1/2+z
x,-y,1/2+z
-y,-x,z
y,x,z
loop_
_atom_site_type_symbol
_atom_site_label
_atom_site_fract_x
_atom_site_fract_y
_atom_site_fract_z
Si Si1 0.666898 0.333103 0.217624
Si Si2 0.937609 0.855283 0.287323
Si Si3 0.273025 0.562091 0.213157
Si Si4 0.748932 0.122292 0.217450
Si Si5 0.643318 0.062305 0.213022
Si Si6 0.848168 0.561855 0.712908
Si Si7 0.245147 0.245147 0.283366
O O1 0.686573 0.391848 0.276797
O O2 0.711158 0.288843 0.272557
O O3 0.666441 0.333560 0.000000
O O4 0.932756 0.854253 0.500000
O O5 0.909655 0.909655 0.221781
O O6 0.903121 0.804788 0.221766
O O7 0.000000 0.850671 0.250000
O O8 0.286784 0.500000 0.250000
O O9 0.212237 0.572711 0.280566
O O10 0.270930 0.566894 0.000000
O O11 0.700727 0.084034 0.276137
O O12 0.741952 0.184129 0.271864
O O13 0.749397 0.122905 0.000000
O O14 0.599164 0.104254 0.281671
O O15 0.633853 0.000000 0.250000
O O16 0.643657 0.066904 0.000000
O O17 0.860008 0.500000 0.750000
O O18 0.845843 0.569218 0.500000
O O19 0.245694 0.245694 0.500000
#
# Coordination Sequence:
#
# PCOD9567214 Si02
#       7
#     8  16  16  16  16  16   8
#     4   9  16  26  47  78 104 126 161 204 241 279
#     4  10  20  34  51  71  93 119 152 189 232 283
#     4   9  17  31  50  74 102 131 162 200 243 286
#     4   9  16  29  48  71  97 121 149 191 243 292
#     4  10  20  32  47  69  95 124 159 198 239 287
#     4   9  18  32  49  69  95 127 163 200 240 284
#     4   9  14  24  48  77  99 119 149 199 249 283
#
# _framework density 20.501539999999999
#
# number of rings (size 3 to 8) (size 9 to 14) (size 15 to 20)
#    0.000    2.667    0.833    1.500    0.000    5.500 
#    0.000    2.917    0.000    0.250    0.000    5.250 
#    0.000    0.000    0.000    0.000    0.000    0.000 
#
# Total GULP energy -535790.772475 kJ/mol
# GULP energy per Si atom -5581.153880 kJ/mol
# Density = 2.045488 g / cm^3
# Si number density = 20.501540 Si / 1000 Ang^3
#
#
#
# Elastic Constant Matrix: (Units=GPa)
#
#
# Indices 1 2 3 4 5 6 
#
# 1 157.5884 113.4359 4.4355 0.0000 0.0000 0.0000
# 2 113.4359 157.5884 4.4355 0.0000 0.0000 0.0000
# 3 4.4355 4.4355 50.8262 0.0000 0.0000 0.0000
# 4 0.0000 0.0000 0.0000 9.8954 0.0000 0.0000
# 5 0.0000 0.0000 0.0000 0.0000 9.8954 0.0000
# 6 0.0000 0.0000 0.0000 0.0000 0.0000 31.3745
#
#
#
# Elastic Compliance Matrix: (Units=1/GPa)
#
#
# Indices 1 2 3 4 5 6 
#
# 1 0.013175 -0.009474 -0.000323 0.000000 0.000000 0.000000
# 2 -0.009474 0.013175 -0.000323 0.000000 0.000000 0.000000
# 3 -0.000323 -0.000323 0.019731 0.000000 0.000000 0.000000
# 4 0.000000 0.000000 0.000000 0.101057 0.000000 0.000000
# 5 0.000000 0.000000 0.000000 0.000000 0.101057 0.000000
# 6 0.000000 0.000000 0.000000 0.000000 0.000000 0.031873
#
#
# Mechanical properties :
#
#
# Convention : Reuss Voigt Hill
#
# Bulk Modulus (GPa) = 38.69950 67.84631 53.27291
# Shear Modulus (GPa) = 16.18538 26.47947 21.33242
#
# Velocity S-wave (km/s) = 2.81280 3.59776 3.22922
# Velocity P-wave (km/s) = 5.42831 7.10096 6.32021
#
# Compressibility (1/GPa) = 0.02584012
#
# Stress axis : x y z
#
# Youngs Moduli (GPa) = 75.90415 75.90418 50.68107
#
# Poissons Ratio (x) = 0.71913 0.01637
# Poissons Ratio (y) = 0.71913 0.01637
# Poissons Ratio (z) = 0.02451 0.02451
#
# Static dielectric constant tensor:
#      x y z
#    x 1.722880 0.000000 0.000000 
#    y 0.000000 1.722880 0.000000 
#    z 0.000000 0.000000 1.801670 
# 
# From -- ./inp_files/3449.got.cif
#   From: 2010.05.17/outbox.cif.g08.bks.cpg/sg132_2_cif.got.tgz:3449.got - 2010.05.20 12:30:18.
