data_PCOD9567646
_publ_section_title
;
Structure prediction by ZEFSAII (Michael W. Deem and Ramdas Pophale) SiO2 
 PCOD9567646
Probable space group: P 42/N B C
;
_chemical_formula_sum "Si O2"
_cell_formula_units_Z 36
_cell_length_a 11.515322
_cell_length_b 11.515322
_cell_length_c 9.781750
_cell_angle_alpha 90.000000
_cell_angle_beta 90.000000
_cell_angle_gamma 90.000000
_cell_volume 1297.085881
_symmetry_space_group_name_H-M "P 42/N B C"
_symmetry_group_IT_number 133
_space_group.IT_coordinate_system_code '2'
_symmetry_cell_setting 'tetragonal'
loop_
_space_group_symop_operation_xyz
x,y,z
1/2-y,x,1/2+z
1/2-x,1/2-y,z
y,1/2-x,1/2+z
x,1/2-y,-z
1/2-x,y,-z
y,x,1/2-z
1/2-y,1/2-x,1/2-z
-x,-y,-z
1/2+y,-x,1/2-z
1/2+x,1/2+y,-z
-y,1/2+x,1/2-z
-x,1/2+y,z
1/2+x,-y,z
-y,-x,1/2+z
1/2+y,1/2+x,1/2+z
loop_
_atom_site_type_symbol
_atom_site_label
_atom_site_fract_x
_atom_site_fract_y
_atom_site_fract_z
Si Si1 0.051531 0.197008 0.140922
Si Si2 0.250000 0.750000 0.750000
Si Si3 0.958762 0.178859 0.620393
O O1 0.130134 0.130134 0.250000
O O2 0.016335 0.309506 0.231357
O O3 0.944022 0.107925 0.102985
O O4 0.096835 0.250000 0.000000
O O5 0.271525 0.854955 0.850317
O O6 0.023423 0.250000 0.500000
#
# Coordination Sequence:
#
# PCOD9567646 Si02
#       3
#    16   4  16
#     4  11  24  42  69 109 154 203 261 325 396 474
#     4   8  14  28  52  90 134 176 236 306 354 416
#     4  10  19  34  63 100 144 195 252 309 372 456
#
# _framework density 27.754522999999999
#
# number of rings (size 3 to 8) (size 9 to 14) (size 15 to 20)
#    0.000    1.778    0.000    8.667    0.000    7.111 
#    0.000    0.000    0.000   10.667    0.000    0.000 
#    0.000    0.000    0.000    0.000    0.000    0.000 
#
# Total GULP energy -200481.920677 kJ/mol
# GULP energy per Si atom -5568.942241 kJ/mol
# Density = 2.769135 g / cm^3
# Si number density = 27.754523 Si / 1000 Ang^3
#
#
#
# Elastic Constant Matrix: (Units=GPa)
#
#
# Indices 1 2 3 4 5 6 
#
# 1 88.5683 76.5362 62.0039 0.0000 0.0000 0.0000
# 2 76.5362 88.5683 62.0039 0.0000 0.0000 0.0000
# 3 62.0039 62.0039 261.7962 0.0000 0.0000 0.0000
# 4 0.0000 0.0000 0.0000 33.6323 0.0000 0.0000
# 5 0.0000 0.0000 0.0000 0.0000 33.6323 0.0000
# 6 0.0000 0.0000 0.0000 0.0000 0.0000 40.8965
#
#
#
# Elastic Compliance Matrix: (Units=1/GPa)
#
#
# Indices 1 2 3 4 5 6 
#
# 1 0.045239 -0.037872 -0.001745 0.000000 0.000000 0.000000
# 2 -0.037872 0.045239 -0.001745 0.000000 0.000000 0.000000
# 3 -0.001745 -0.001745 0.004646 0.000000 0.000000 0.000000
# 4 0.000000 0.000000 0.000000 0.029733 0.000000 0.000000
# 5 0.000000 0.000000 0.000000 0.000000 0.029733 0.000000
# 6 0.000000 0.000000 0.000000 0.000000 0.000000 0.024452
#
#
# Mechanical properties :
#
#
# Convention : Reuss Voigt Hill
#
# Bulk Modulus (GPa) = 80.63598 93.33565 86.98582
# Shear Modulus (GPa) = 18.80407 37.52480 28.16444
#
# Velocity S-wave (km/s) = 2.60573 3.68098 3.18900
# Velocity P-wave (km/s) = 6.17815 7.19501 6.70588
#
# Compressibility (1/GPa) = 0.01240141
#
# Stress axis : x y z
#
# Youngs Moduli (GPa) = 22.10479 22.10479 215.22592
#
# Poissons Ratio (x) = 0.83715 0.37554
# Poissons Ratio (y) = 0.83715 0.37554
# Poissons Ratio (z) = 0.03857 0.03857
#
# Static dielectric constant tensor:
#      x y z
#    x 2.286610 0.000000 0.000000 
#    y 0.000000 2.286610 0.000000 
#    z 0.000000 0.000000 2.612330 
# 
# From -- ./inp_files/845.got.cif
#   From: 2010.05.17/outbox.cif.g08.bks.cpg/sg133_1_cif.got.tgz:845.got - 2010.05.20 12:37:36.
