data_PCOD9567461
_publ_section_title
;
Structure prediction by ZEFSAII (Michael W. Deem and Ramdas Pophale) SiO2 
 PCOD9567461
Probable space group: P 42/M C M
;
_chemical_formula_sum "Si O2"
_cell_formula_units_Z 38
_cell_length_a 11.619473
_cell_length_b 11.619473
_cell_length_c 14.696812
_cell_angle_alpha 90.000000
_cell_angle_beta 90.000000
_cell_angle_gamma 90.000000
_cell_volume 1984.248227
_symmetry_space_group_name_H-M "P 42/M C M"
_symmetry_group_IT_number 132
_symmetry_cell_setting 'tetragonal'
loop_
_space_group_symop_operation_xyz
x,y,z
-y,x,1/2+z
-x,-y,z
y,-x,1/2+z
x,-y,1/2-z
-x,y,1/2-z
y,x,-z
-y,-x,-z
-x,-y,-z
y,-x,1/2-z
x,y,-z
-y,x,1/2-z
-x,y,1/2+z
x,-y,1/2+z
-y,-x,z
y,x,z
loop_
_atom_site_type_symbol
_atom_site_label
_atom_site_fract_x
_atom_site_fract_y
_atom_site_fract_z
Si Si1 0.482349 0.138204 0.500000
Si Si2 0.385222 0.204138 0.692405
Si Si3 0.000000 0.000000 0.750000
Si Si4 0.823699 0.176302 0.308025
Si Si5 0.732170 0.267831 0.500000
O O1 0.410938 0.164938 0.590956
O O2 0.597879 0.221120 0.500000
O O3 0.500000 0.000000 0.500000
O O4 0.500000 0.198233 0.750000
O O5 0.332704 0.332704 0.690272
O O6 0.286631 0.136740 0.748169
O O7 0.919580 0.080421 0.689490
O O8 0.783534 0.216467 0.406854
#
# Coordination Sequence:
#
# PCOD9567461 Si02
#       5
#     8  16   2   8   4
#     4  12  25  41  71  98 144 189 230 296 349 412
#     4  10  22  44  67 103 136 176 232 286 347 423
#     4  12  28  50  72  92 132 206 216 318 320 424
#     4  10  26  44  72 100 142 175 246 274 365 408
#     4  12  24  45  65 112 134 178 236 292 359 427
#
# _framework density 19.150829999999999
#
# number of rings (size 3 to 8) (size 9 to 14) (size 15 to 20)
#    1.263    0.000    4.211    0.632    5.895    1.684 
#    0.000    3.158    0.000    0.000    0.000    0.000 
#    0.000    0.000    0.000    0.000    0.000    0.000 
#
# Total GULP energy -211638.195439 kJ/mol
# GULP energy per Si atom -5569.426196 kJ/mol
# Density = 1.910724 g / cm^3
# Si number density = 19.150830 Si / 1000 Ang^3
#
#
#
# Elastic Constant Matrix: (Units=GPa)
#
#
# Indices 1 2 3 4 5 6 
#
# 1 104.0126 44.8478 44.8598 0.0000 0.0000 0.0000
# 2 44.8478 104.0130 44.8596 0.0000 0.0000 0.0000
# 3 44.8598 44.8596 188.9111 0.0000 0.0000 0.0000
# 4 0.0000 0.0000 0.0000 -12.1028 0.0000 0.0000
# 5 0.0000 0.0000 0.0000 0.0000 -12.1027 0.0000
# 6 0.0000 0.0000 0.0000 0.0000 0.0000 36.6342
#
#
#
# Elastic Compliance Matrix: (Units=1/GPa)
#
#
# Indices 1 2 3 4 5 6 
#
# 1 0.012371 -0.004531 -0.001862 0.000000 0.000000 0.000000
# 2 -0.004531 0.012371 -0.001862 0.000000 0.000000 0.000000
# 3 -0.001862 -0.001862 0.006178 0.000000 0.000000 0.000000
# 4 0.000000 0.000000 0.000000 -0.082626 0.000000 0.000000
# 5 0.000000 0.000000 0.000000 0.000000 -0.082626 0.000000
# 6 0.000000 0.000000 0.000000 0.000000 0.000000 0.027297
#
#
# Mechanical properties :
#
#
# Convention : Reuss Voigt Hill
#
# Bulk Modulus (GPa) = 69.39396 74.00791 71.70093
# Shear Modulus (GPa) = -58.32703 19.97706 -19.17499
#
# Velocity S-wave (km/s) = -5.52474 3.23328 -3.16770
# Velocity P-wave (km/s) = 2.09354 7.25723 4.91348
#
# Compressibility (1/GPa) = 0.01441048
#
# Stress axis : x y z
#
# Youngs Moduli (GPa) = 80.83531 80.83575 161.87379
#
# Poissons Ratio (x) = 0.36627 0.30136
# Poissons Ratio (y) = 0.36627 0.30135
# Poissons Ratio (z) = 0.15049 0.15049
#
# Static dielectric constant tensor:
#      x y z
#    x 1.687450 0.000000 0.000000 
#    y 0.000000 1.687450 0.000000 
#    z 0.000000 0.000000 1.631490 
# 
# From -- ./inp_files/4060.got.cif
#   From: 2010.05.17/outbox.cif.g08.bks.cpg/sg132_3_cif.got.tgz:4060.got - 2010.05.20 12:30:18.
