data_PCOD9567632
_publ_section_title
;
Structure prediction by ZEFSAII (Michael W. Deem and Ramdas Pophale) SiO2 
 PCOD9567632
Probable space group: P 42/N B C
;
_chemical_formula_sum "Si O2"
_cell_formula_units_Z 84
_cell_length_a 24.856069
_cell_length_b 24.856069
_cell_length_c 8.057693
_cell_angle_alpha 90.000000
_cell_angle_beta 90.000000
_cell_angle_gamma 90.000000
_cell_volume 4978.237459
_symmetry_space_group_name_H-M "P 42/N B C"
_symmetry_group_IT_number 133
_space_group.IT_coordinate_system_code '2'
_symmetry_cell_setting 'tetragonal'
loop_
_space_group_symop_operation_xyz
x,y,z
1/2-y,x,1/2+z
1/2-x,1/2-y,z
y,1/2-x,1/2+z
x,1/2-y,-z
1/2-x,y,-z
y,x,1/2-z
1/2-y,1/2-x,1/2-z
-x,-y,-z
1/2+y,-x,1/2-z
1/2+x,1/2+y,-z
-y,1/2+x,1/2-z
-x,1/2+y,z
1/2+x,-y,z
-y,-x,1/2+z
1/2+y,1/2+x,1/2+z
loop_
_atom_site_type_symbol
_atom_site_label
_atom_site_fract_x
_atom_site_fract_y
_atom_site_fract_z
Si Si1 0.685282 0.899699 0.305346
Si Si2 0.250000 0.750000 0.250000
Si Si3 0.187717 0.905063 0.054959
Si Si4 0.524676 0.815145 0.502793
Si Si5 0.101122 0.185709 0.807082
Si Si6 0.300051 0.640796 0.399419
O O1 0.653710 0.846291 0.250000
O O2 0.673014 0.911928 0.499578
O O3 0.749763 0.892387 0.294871
O O4 0.669383 0.944358 0.167087
O O5 0.278691 0.699856 0.340329
O O6 0.188536 0.899397 0.251434
O O7 0.250000 0.897615 0.000000
O O8 0.153247 0.854572 0.994335
O O9 0.167208 0.962725 0.996364
O O10 0.522821 0.750000 0.500000
O O11 0.556474 0.830591 0.669903
O O12 0.154709 0.154709 0.750000
O O13 0.250000 0.617904 0.500000
#
# Coordination Sequence:
#
# PCOD9567632 Si02
#       6
#    16   4  16  16  16  16
#     4  10  19  33  53  81 111 141 182 219 262 326
#     4  12  18  28  50  76 114 132 182 196 250 336
#     4  11  20  35  50  76 109 143 172 220 266 323
#     4   9  20  36  50  74 112 143 181 221 264 317
#     4  10  19  33  55  79 110 146 175 220 272 315
#     4  12  20  32  53  77 106 143 176 211 266 327
#
# _framework density 16.873442000000001
#
# number of rings (size 3 to 8) (size 9 to 14) (size 15 to 20)
#    0.000    1.524    5.714    0.286    0.000    0.381 
#   13.714    1.905    0.000    0.000    0.000    4.000 
#    0.000    0.000    0.000    0.000    0.000    0.000 
#
# Total GULP energy -468002.075043 kJ/mol
# GULP energy per Si atom -5571.453274 kJ/mol
# Density = 1.683504 g / cm^3
# Si number density = 16.873442 Si / 1000 Ang^3
#
#
#
# Elastic Constant Matrix: (Units=GPa)
#
#
# Indices 1 2 3 4 5 6 
#
# 1 54.9750 20.0086 40.3374 0.0000 0.0000 0.0000
# 2 20.0086 54.9808 40.3355 0.0000 0.0000 0.0000
# 3 40.3374 40.3355 135.1122 0.0000 0.0000 0.0000
# 4 0.0000 0.0000 0.0000 -34.5907 0.0000 0.0000
# 5 0.0000 0.0000 0.0000 0.0000 -34.5907 0.0000
# 6 0.0000 0.0000 0.0000 0.0000 0.0000 -18.4968
#
#
#
# Elastic Compliance Matrix: (Units=1/GPa)
#
#
# Indices 1 2 3 4 5 6 
#
# 1 0.024123 -0.004476 -0.005866 0.000000 0.000000 0.000000
# 2 -0.004476 0.024119 -0.005864 0.000000 0.000000 0.000000
# 3 -0.005866 -0.005864 0.010903 0.000000 0.000000 0.000000
# 4 0.000000 0.000000 0.000000 -0.028909 0.000000 0.000000
# 5 0.000000 0.000000 0.000000 0.000000 -0.028910 0.000000
# 6 0.000000 0.000000 0.000000 0.000000 0.000000 -0.054063
#
#
# Mechanical properties :
#
#
# Convention : Reuss Voigt Hill
#
# Bulk Modulus (GPa) = 37.40533 49.60346 43.50439
# Shear Modulus (GPa) = -438.01718 -7.90987 -222.96353
#
# Velocity S-wave (km/s) = -16.12927 -2.16747 -11.50763
# Velocity P-wave (km/s) = 18.01818 4.81635 12.27716
#
# Compressibility (1/GPa) = 0.02673415
#
# Stress axis : x y z
#
# Youngs Moduli (GPa) = 41.45436 41.46103 91.71698
#
# Poissons Ratio (x) = 0.18556 0.53799
# Poissons Ratio (y) = 0.18553 0.53784
# Poissons Ratio (z) = 0.24316 0.24313
#
# Static dielectric constant tensor:
#      x y z
#    x 1.549570 0.000000 0.000000 
#    y 0.000000 1.549570 0.000000 
#    z 0.000000 0.000000 1.730800 
# 
# From -- ./inp_files/1845.got.cif
#   From: 2010.05.17/outbox.cif.g08.bks.cpg/sg133_1_cif.got.tgz:1845.got - 2010.05.20 12:37:36.
