data_PCOD9567020
_publ_section_title
;
Structure prediction by ZEFSAII (Michael W. Deem and Ramdas Pophale) SiO2 
 PCOD9567020
Probable space group: P 42/M C M
;
_chemical_formula_sum "Si O2"
_cell_formula_units_Z 96
_cell_length_a 25.646301
_cell_length_b 25.646301
_cell_length_c 8.227562
_cell_angle_alpha 90.000000
_cell_angle_beta 90.000000
_cell_angle_gamma 90.000000
_cell_volume 5411.537021
_symmetry_space_group_name_H-M "P 42/M C M"
_symmetry_group_IT_number 132
_symmetry_cell_setting 'tetragonal'
loop_
_space_group_symop_operation_xyz
x,y,z
-y,x,1/2+z
-x,-y,z
y,-x,1/2+z
x,-y,1/2-z
-x,y,1/2-z
y,x,-z
-y,-x,-z
-x,-y,-z
y,-x,1/2-z
x,y,-z
-y,x,1/2-z
-x,y,1/2+z
x,-y,1/2+z
-y,-x,z
y,x,z
loop_
_atom_site_type_symbol
_atom_site_label
_atom_site_fract_x
_atom_site_fract_y
_atom_site_fract_z
Si Si1 0.553416 0.706088 0.194429
Si Si2 0.254834 0.254834 0.309748
Si Si3 0.058057 0.858105 0.303922
Si Si4 0.261734 0.058362 0.804656
Si Si5 0.824906 0.556561 0.805474
Si Si6 0.662504 0.337497 0.697936
Si Si7 0.674827 0.157361 0.807270
O O1 0.500000 0.681079 0.250000
O O2 0.555721 0.765258 0.258633
O O3 0.604432 0.676393 0.245914
O O4 0.553787 0.709371 0.000000
O O5 0.244070 0.244070 0.500000
O O6 0.298464 0.298464 0.284412
O O7 0.202586 0.284579 0.242612
O O8 0.059254 0.858193 0.500000
O O9 0.101893 0.898108 0.244333
O O10 0.067343 0.798416 0.250644
O O11 0.000000 0.873440 0.250000
O O12 0.298491 0.102391 0.731723
O O13 0.276025 0.000000 0.750000
O O14 0.263561 0.061291 0.000000
O O15 0.848357 0.500000 0.750000
O O16 0.843372 0.614944 0.756821
O O17 0.825615 0.555174 0.000000
O O18 0.668213 0.331788 0.500000
O O19 0.671089 0.165928 0.000000
#
# Coordination Sequence:
#
# PCOD9567020 Si02
#       7
#    16   8  16  16  16   8  16
#     4   9  18  30  47  69  97 132 173 215 260 314
#     4  10  22  34  48  78 115 145 173 215 267 318
#     4   9  19  35  53  76 105 138 179 224 270 321
#     4  10  21  38  59  80 106 143 184 226 270 320
#     4  10  19  33  53  78 108 143 178 217 265 317
#     4  10  18  32  50  71 101 136 173 217 263 320
#     4  11  22  36  54  81 114 146 181 222 267 320
#
# _framework density 17.739877
#
# number of rings (size 3 to 8) (size 9 to 14) (size 15 to 20)
#    0.000    2.167    1.667    1.500    1.167    3.167 
#    0.000    0.833    0.000    0.750    0.000    5.250 
#    0.000    0.000    0.000    0.000    0.000    0.000 
#
# Total GULP energy -534711.025174 kJ/mol
# GULP energy per Si atom -5569.906512 kJ/mol
# Density = 1.769950 g / cm^3
# Si number density = 17.739877 Si / 1000 Ang^3
#
#
#
# Elastic Constant Matrix: (Units=GPa)
#
#
# Indices 1 2 3 4 5 6 
#
# 1 117.6451 85.1342 11.0980 0.0000 0.0000 0.0000
# 2 85.1342 117.6443 11.0981 0.0000 0.0000 0.0000
# 3 11.0980 11.0981 21.8912 0.0000 0.0000 0.0000
# 4 0.0000 0.0000 0.0000 14.5421 0.0000 0.0000
# 5 0.0000 0.0000 0.0000 0.0000 14.5383 0.0000
# 6 0.0000 0.0000 0.0000 0.0000 0.0000 22.0096
#
#
#
# Elastic Compliance Matrix: (Units=1/GPa)
#
#
# Indices 1 2 3 4 5 6 
#
# 1 0.017990 -0.012769 -0.002647 0.000000 0.000000 0.000000
# 2 -0.012769 0.017990 -0.002647 0.000000 0.000000 0.000000
# 3 -0.002647 -0.002647 0.048364 0.000000 0.000000 0.000000
# 4 0.000000 0.000000 0.000000 0.068766 0.000000 0.000000
# 5 0.000000 0.000000 0.000000 0.000000 0.068784 0.000000
# 6 0.000000 0.000000 0.000000 0.000000 0.000000 0.045435
#
#
# Mechanical properties :
#
#
# Convention : Reuss Voigt Hill
#
# Bulk Modulus (GPa) = 20.73878 52.42681 36.58279
# Shear Modulus (GPa) = 15.64809 20.20803 17.92806
#
# Velocity S-wave (km/s) = 2.97321 3.37876 3.18245
# Velocity P-wave (km/s) = 4.84794 6.69616 5.84556
#
# Compressibility (1/GPa) = 0.04821884
#
# Stress axis : x y z
#
# Youngs Moduli (GPa) = 55.58585 55.58539 20.67642
#
# Poissons Ratio (x) = 0.70977 0.05473
# Poissons Ratio (y) = 0.70978 0.05473
# Poissons Ratio (z) = 0.14713 0.14714
#
# Static dielectric constant tensor:
#      x y z
#    x 1.605740 0.000000 0.000000 
#    y 0.000000 1.605740 0.000000 
#    z 0.000000 0.000000 1.675130 
# 
# From -- ./inp_files/1817.got.cif
#   From: 2010.05.17/outbox.cif.g08.bks.cpg/sg132_1_cif.got.tgz:1817.got - 2010.05.20 12:30:18.
