data_PCOD9567623
_publ_section_title
;
Structure prediction by ZEFSAII (Michael W. Deem and Ramdas Pophale) SiO2 
 PCOD9567623
Probable space group: P 42/N B C
;
_chemical_formula_sum "Si O2"
_cell_formula_units_Z 36
_cell_length_a 14.054080
_cell_length_b 14.054080
_cell_length_c 9.368631
_cell_angle_alpha 90.000000
_cell_angle_beta 90.000000
_cell_angle_gamma 90.000000
_cell_volume 1850.465432
_symmetry_space_group_name_H-M "P 42/N B C"
_symmetry_group_IT_number 133
_space_group.IT_coordinate_system_code '2'
_symmetry_cell_setting 'tetragonal'
loop_
_space_group_symop_operation_xyz
x,y,z
1/2-y,x,1/2+z
1/2-x,1/2-y,z
y,1/2-x,1/2+z
x,1/2-y,-z
1/2-x,y,-z
y,x,1/2-z
1/2-y,1/2-x,1/2-z
-x,-y,-z
1/2+y,-x,1/2-z
1/2+x,1/2+y,-z
-y,1/2+x,1/2-z
-x,1/2+y,z
1/2+x,-y,z
-y,-x,1/2+z
1/2+y,1/2+x,1/2+z
loop_
_atom_site_type_symbol
_atom_site_label
_atom_site_fract_x
_atom_site_fract_y
_atom_site_fract_z
Si Si1 0.250000 0.750000 0.000000
Si Si2 0.162609 0.933687 0.145531
Si Si3 0.001085 0.874004 0.342497
O O1 0.187966 0.674486 0.908334
O O2 0.092930 0.925471 0.276566
O O3 0.261728 0.983546 0.181156
O O4 0.116396 0.991296 0.013293
O O5 0.914359 0.914359 0.250000
#
# Coordination Sequence:
#
# PCOD9567623 Si02
#       3
#     4  16  16
#     4   8  16  30  48  74 100 118 160 214 264 306
#     4  10  19  30  50  75 102 136 167 214 269 308
#     4  10  19  32  49  74 104 131 169 212 257 314
#
# _framework density 19.454564000000001
#
# number of rings (size 3 to 8) (size 9 to 14) (size 15 to 20)
#    0.000    2.667    0.000    6.667    0.000    1.778 
#    0.000    0.000    0.000    1.333    0.000   12.444 
#    0.000    0.000    0.000    0.000    0.000    0.000 
#
# Total GULP energy -200765.626116 kJ/mol
# GULP energy per Si atom -5576.822948 kJ/mol
# Density = 1.941028 g / cm^3
# Si number density = 19.454564 Si / 1000 Ang^3
#
#
#
# Elastic Constant Matrix: (Units=GPa)
#
#
# Indices 1 2 3 4 5 6 
#
# 1 66.0267 39.8460 17.4830 0.0000 0.0000 0.0000
# 2 39.8460 66.0267 17.4830 0.0000 0.0000 0.0000
# 3 17.4830 17.4830 51.9672 0.0000 0.0000 0.0000
# 4 0.0000 0.0000 0.0000 18.4368 0.0000 0.0000
# 5 0.0000 0.0000 0.0000 0.0000 18.4368 0.0000
# 6 0.0000 0.0000 0.0000 0.0000 0.0000 11.1146
#
#
#
# Elastic Compliance Matrix: (Units=1/GPa)
#
#
# Indices 1 2 3 4 5 6 
#
# 1 0.024411 -0.013785 -0.003575 0.000000 0.000000 0.000000
# 2 -0.013785 0.024411 -0.003575 0.000000 0.000000 0.000000
# 3 -0.003575 -0.003575 0.021648 0.000000 0.000000 0.000000
# 4 0.000000 0.000000 0.000000 0.054239 0.000000 0.000000
# 5 0.000000 0.000000 0.000000 0.000000 0.054239 0.000000
# 6 0.000000 0.000000 0.000000 0.000000 0.000000 0.089972
#
#
# Mechanical properties :
#
#
# Convention : Reuss Voigt Hill
#
# Bulk Modulus (GPa) = 34.96401 37.07161 36.01781
# Shear Modulus (GPa) = 15.60923 16.87824 16.24373
#
# Velocity S-wave (km/s) = 2.83564 2.94865 2.89270
# Velocity P-wave (km/s) = 5.36025 5.53982 5.45077
#
# Compressibility (1/GPa) = 0.02860084
#
# Stress axis : x y z
#
# Youngs Moduli (GPa) = 40.96523 40.96523 46.19316
#
# Poissons Ratio (x) = 0.56471 0.16513
# Poissons Ratio (y) = 0.56471 0.16513
# Poissons Ratio (z) = 0.14644 0.14644
#
# Static dielectric constant tensor:
#      x y z
#    x 1.702460 0.000000 0.000000 
#    y 0.000000 1.702460 0.000000 
#    z 0.000000 0.000000 1.723400 
# 
# From -- ./inp_files/827.got.cif
#   From: 2010.05.17/outbox.cif.g08.bks.cpg/sg133_1_cif.got.tgz:827.got - 2010.05.20 12:37:36.
