data_PCOD9567109
_publ_section_title
;
Structure prediction by ZEFSAII (Michael W. Deem and Ramdas Pophale) SiO2 
 PCOD9567109
Probable space group: P 42/M C M
;
_chemical_formula_sum "Si O2"
_cell_formula_units_Z 112
_cell_length_a 14.805923
_cell_length_b 14.805923
_cell_length_c 28.032134
_cell_angle_alpha 90.000000
_cell_angle_beta 90.000000
_cell_angle_gamma 90.000000
_cell_volume 6145.074231
_symmetry_space_group_name_H-M "P 42/M C M"
_symmetry_group_IT_number 132
_symmetry_cell_setting 'tetragonal'
loop_
_space_group_symop_operation_xyz
x,y,z
-y,x,1/2+z
-x,-y,z
y,-x,1/2+z
x,-y,1/2-z
-x,y,1/2-z
y,x,-z
-y,-x,-z
-x,-y,-z
y,-x,1/2-z
x,y,-z
-y,x,1/2-z
-x,y,1/2+z
x,-y,1/2+z
-y,-x,z
y,x,z
loop_
_atom_site_type_symbol
_atom_site_label
_atom_site_fract_x
_atom_site_fract_y
_atom_site_fract_z
Si Si1 0.865002 0.723714 0.057962
Si Si2 0.517182 0.107337 0.554373
Si Si3 0.131777 0.649295 0.121692
Si Si4 0.057744 0.802123 0.056775
Si Si5 0.766677 0.382179 0.301203
Si Si6 0.583486 0.278321 0.809400
Si Si7 0.977851 0.392548 0.304187
O O1 0.776534 0.776534 0.075109
O O2 0.874134 0.619025 0.071667
O O3 0.954566 0.780818 0.070453
O O4 0.862493 0.722328 0.000000
O O5 0.507401 0.142015 0.500000
O O6 0.440663 0.139833 0.589806
O O7 0.500000 0.000000 0.552322
O O8 0.118700 0.732308 0.086196
O O9 0.216808 0.642993 0.156033
O O10 0.044020 0.647524 0.156098
O O11 0.098039 0.901961 0.064687
O O12 0.065087 0.783273 0.000000
O O13 0.701868 0.298133 0.313652
O O14 0.731732 0.478124 0.321163
O O15 0.758679 0.397448 0.243896
O O16 0.872420 0.373489 0.313202
O O17 0.620077 0.379924 0.810880
O O18 0.000000 0.500000 0.305687
O O19 0.000000 0.362461 0.250000
#
# Coordination Sequence:
#
# PCOD9567109 Si02
#       7
#    16  16  16  16  16  16  16
#     4   9  18  33  52  75 103 136 175 216 263 320
#     4  10  19  32  52  77 106 140 174 215 269 322
#     4  12  20  32  54  80 106 140 180 218 272 316
#     4  10  21  35  51  76 108 142 181 222 264 316
#     4  10  20  36  54  79 107 139 176 221 271 325
#     4  10  20  34  52  76 105 139 179 219 262 321
#     4  11  19  34  55  78 107 140 174 223 275 318
#
# _framework density 18.22598
#
# number of rings (size 3 to 8) (size 9 to 14) (size 15 to 20)
#    0.000    1.714    4.286    2.143    0.000    0.571 
#    0.000    5.714    0.000    0.000    0.000    0.000 
#    0.000    1.429    0.000   12.857    0.000    0.286 
#
# Total GULP energy -624813.098991 kJ/mol
# GULP energy per Si atom -5578.688384 kJ/mol
# Density = 1.818450 g / cm^3
# Si number density = 18.225980 Si / 1000 Ang^3
#
#
#
# Elastic Constant Matrix: (Units=GPa)
#
#
# Indices 1 2 3 4 5 6 
#
# 1 89.3270 64.8146 20.9569 0.0000 0.0000 0.0000
# 2 64.8146 89.3270 20.9569 0.0000 0.0000 0.0000
# 3 20.9569 20.9569 58.6783 0.0000 0.0000 0.0000
# 4 0.0000 0.0000 0.0000 -1.6078 0.0000 0.0000
# 5 0.0000 0.0000 0.0000 0.0000 -1.6078 0.0000
# 6 0.0000 0.0000 0.0000 0.0000 0.0000 30.3418
#
#
#
# Elastic Compliance Matrix: (Units=1/GPa)
#
#
# Indices 1 2 3 4 5 6 
#
# 1 0.023991 -0.016805 -0.002566 0.000000 0.000000 0.000000
# 2 -0.016805 0.023991 -0.002566 0.000000 0.000000 0.000000
# 3 -0.002566 -0.002566 0.018875 0.000000 0.000000 0.000000
# 4 0.000000 0.000000 0.000000 -0.621974 0.000000 0.000000
# 5 0.000000 0.000000 0.000000 0.000000 -0.621974 0.000000
# 6 0.000000 0.000000 0.000000 0.000000 0.000000 0.032958
#
#
# Mechanical properties :
#
#
# Convention : Reuss Voigt Hill
#
# Bulk Modulus (GPa) = 43.51446 50.08769 46.80107
# Shear Modulus (GPa) = -4.57625 14.13219 4.77797
#
# Velocity S-wave (km/s) = -1.58628 2.78760 1.62087
# Velocity P-wave (km/s) = 4.53561 6.15647 5.40712
#
# Compressibility (1/GPa) = 0.02298087
#
# Stress axis : x y z
#
# Youngs Moduli (GPa) = 41.68316 41.68316 52.97981
#
# Poissons Ratio (x) = 0.70049 0.13596
# Poissons Ratio (y) = 0.70049 0.13596
# Poissons Ratio (z) = 0.10697 0.10697
#
# Static dielectric constant tensor:
#      x y z
#    x 1.632470 0.000000 0.000000 
#    y 0.000000 1.632470 0.000000 
#    z 0.000000 0.000000 1.664660 
# 
# From -- ./inp_files/10040.got.cif
#   From: 2010.05.17/outbox.cif.g08.bks.cpg/sg132_6_cif.got.tgz:10040.got - 2010.05.20 12:30:18.
