data_PCOD9567681
_publ_section_title
;
Structure prediction by ZEFSAII (Michael W. Deem and Ramdas Pophale) SiO2 
 PCOD9567681
Probable space group: P 42/N B C
;
_chemical_formula_sum "Si O2"
_cell_formula_units_Z 116
_cell_length_a 29.803369
_cell_length_b 29.803369
_cell_length_c 9.340709
_cell_angle_alpha 90.000000
_cell_angle_beta 90.000000
_cell_angle_gamma 90.000000
_cell_volume 8296.798870
_symmetry_space_group_name_H-M "P 42/N B C"
_symmetry_group_IT_number 133
_space_group.IT_coordinate_system_code '2'
_symmetry_cell_setting 'tetragonal'
loop_
_space_group_symop_operation_xyz
x,y,z
1/2-y,x,1/2+z
1/2-x,1/2-y,z
y,1/2-x,1/2+z
x,1/2-y,-z
1/2-x,y,-z
y,x,1/2-z
1/2-y,1/2-x,1/2-z
-x,-y,-z
1/2+y,-x,1/2-z
1/2+x,1/2+y,-z
-y,1/2+x,1/2-z
-x,1/2+y,z
1/2+x,-y,z
-y,-x,1/2+z
1/2+y,1/2+x,1/2+z
loop_
_atom_site_type_symbol
_atom_site_label
_atom_site_fract_x
_atom_site_fract_y
_atom_site_fract_z
Si Si1 0.861472 0.937143 0.215697
Si Si2 0.503020 0.433648 0.327289
Si Si3 0.750000 0.750000 0.500000
Si Si4 0.821068 0.818736 0.914005
Si Si5 0.561675 0.638446 0.775251
Si Si6 0.435025 0.995233 0.176591
Si Si7 0.299825 0.083509 0.966279
Si Si8 0.698586 0.580441 0.472112
O O1 0.897480 0.897480 0.250000
O O2 0.817862 0.929372 0.312698
O O3 0.887223 0.984474 0.223365
O O4 0.841679 0.934039 0.057509
O O5 0.467009 0.467009 0.250000
O O6 0.483270 0.385495 0.281549
O O7 0.504437 0.438903 0.501492
O O8 0.549252 0.448857 0.250464
O O9 0.718726 0.783396 0.413534
O O10 0.830525 0.830525 0.750000
O O11 0.802002 0.863038 0.988505
O O12 0.866504 0.803743 0.991478
O O13 0.601781 0.601781 0.750000
O O14 0.572067 0.684567 0.692599
O O15 0.559941 0.656815 0.936357
O O16 0.468978 0.031023 0.250000
O O17 0.250000 0.067217 0.000000
O O18 0.750000 0.565678 0.500000
#
# Coordination Sequence:
#
# PCOD9567681 Si02
#       8
#    16  16   4  16  16  16  16  16
#     4  11  22  33  51  69  89 111 147 186 231 283
#     4  10  20  31  51  72  94 114 135 169 221 284
#     4  12  26  36  48  62  80  98 148 220 246 286
#     4  12  23  37  47  60  76 107 146 192 248 287
#     4  11  20  35  51  65  88 116 145 181 237 285
#     4  10  20  32  49  74  94 112 136 169 220 284
#     4  12  21  35  49  62  83 114 148 187 233 282
#     4  12  23  35  49  64  86 115 155 190 235 285
#
# _framework density 13.981296
#
# number of rings (size 3 to 8) (size 9 to 14) (size 15 to 20)
#    0.000    0.828    6.897    2.690    7.724    0.000 
#    2.483    0.000    0.000    0.000    0.000    0.000 
#    0.000    0.000    0.000    0.000    0.000    0.000 
#
# Total GULP energy -645760.641487 kJ/mol
# GULP energy per Si atom -5566.902082 kJ/mol
# Density = 1.394947 g / cm^3
# Si number density = 13.981296 Si / 1000 Ang^3
#
#
#
# Elastic Constant Matrix: (Units=GPa)
#
#
# Indices 1 2 3 4 5 6 
#
# 1 48.1622 37.4429 3.3736 0.0000 0.0000 0.0000
# 2 37.4429 48.1623 3.3736 0.0000 0.0000 0.0000
# 3 3.3736 3.3736 39.9887 0.0000 0.0000 0.0000
# 4 0.0000 0.0000 0.0000 -153.3254 0.0000 0.0000
# 5 0.0000 0.0000 0.0000 0.0000 -153.4110 0.0000
# 6 0.0000 0.0000 0.0000 0.0000 0.0000 30.2779
#
#
#
# Elastic Compliance Matrix: (Units=1/GPa)
#
#
# Indices 1 2 3 4 5 6 
#
# 1 0.052524 -0.040765 -0.000992 0.000000 0.000000 0.000000
# 2 -0.040765 0.052524 -0.000992 0.000000 0.000000 0.000000
# 3 -0.000992 -0.000992 0.025174 0.000000 0.000000 0.000000
# 4 0.000000 0.000000 0.000000 -0.006522 0.000000 0.000000
# 5 0.000000 0.000000 0.000000 0.000000 -0.006518 0.000000
# 6 0.000000 0.000000 0.000000 0.000000 0.000000 0.033027
#
#
# Mechanical properties :
#
#
# Convention : Reuss Voigt Hill
#
# Bulk Modulus (GPa) = 22.35861 24.96595 23.66228
# Shear Modulus (GPa) = 19.95083 -49.15017 -14.59967
#
# Velocity S-wave (km/s) = 3.78162 -5.93553 -3.23496
# Velocity P-wave (km/s) = 5.92402 5.39246 1.73427
#
# Compressibility (1/GPa) = 0.04472550
#
# Stress axis : x y z
#
# Youngs Moduli (GPa) = 19.03878 19.03882 39.72283
#
# Poissons Ratio (x) = 0.77611 0.03941
# Poissons Ratio (y) = 0.77611 0.03941
# Poissons Ratio (z) = 0.01889 0.01889
#
# Static dielectric constant tensor:
#      x y z
#    x 1.463000 0.000000 0.000000 
#    y 0.000000 1.463000 0.000000 
#    z 0.000000 0.000000 1.489490 
# 
# From -- ./inp_files/2131.got.cif
#   From: 2010.05.17/outbox.cif.g08.bks.cpg/sg133_2_cif.got.tgz:2131.got - 2010.05.20 12:37:36.
