data_PCOD9567740
_publ_section_title
;
Structure prediction by ZEFSAII (Michael W. Deem and Ramdas Pophale) SiO2 
 PCOD9567740
Probable space group: P 42/N B C
;
_chemical_formula_sum "Si O2"
_cell_formula_units_Z 88
_cell_length_a 16.161429
_cell_length_b 16.161429
_cell_length_c 14.069646
_cell_angle_alpha 90.000000
_cell_angle_beta 90.000000
_cell_angle_gamma 90.000000
_cell_volume 3674.875986
_symmetry_space_group_name_H-M "P 42/N B C"
_symmetry_group_IT_number 133
_space_group.IT_coordinate_system_code '2'
_symmetry_cell_setting 'tetragonal'
loop_
_space_group_symop_operation_xyz
x,y,z
1/2-y,x,1/2+z
1/2-x,1/2-y,z
y,1/2-x,1/2+z
x,1/2-y,-z
1/2-x,y,-z
y,x,1/2-z
1/2-y,1/2-x,1/2-z
-x,-y,-z
1/2+y,-x,1/2-z
1/2+x,1/2+y,-z
-y,1/2+x,1/2-z
-x,1/2+y,z
1/2+x,-y,z
-y,-x,1/2+z
1/2+y,1/2+x,1/2+z
loop_
_atom_site_type_symbol
_atom_site_label
_atom_site_fract_x
_atom_site_fract_y
_atom_site_fract_z
Si Si1 0.983149 0.516852 0.750000
Si Si2 0.739498 0.385372 0.740351
Si Si3 0.815743 0.685618 0.637091
Si Si4 0.174992 0.496604 0.395883
Si Si5 0.782497 0.980356 0.903979
Si Si6 0.072952 0.472200 0.570726
O O1 0.988597 0.441799 0.825774
O O2 0.902689 0.510862 0.681258
O O3 0.769271 0.431955 0.646110
O O4 0.716692 0.455000 0.818141
O O5 0.667077 0.319353 0.725364
O O6 0.750000 0.750000 0.599927
O O7 0.812870 0.687131 0.750000
O O8 0.788584 0.594823 0.609163
O O9 0.907517 0.715128 0.610533
O O10 0.147418 0.503260 0.505042
O O11 0.873027 0.938214 0.915424
O O12 0.750000 0.023503 0.000000
O O13 0.000000 0.500000 0.500000
#
# Coordination Sequence:
#
# PCOD9567740 Si02
#       6
#     8  16  16  16  16  16
#     4  10  20  38  71 104 149 182 242 304 358 434
#     4  11  25  47  75 104 147 198 253 316 376 437
#     4  11  23  42  72 107 146 186 237 298 379 439
#     4  11  20  45  73 104 145 193 242 304 368 442
#     4  12  24  45  76 104 147 200 239 302 381 446
#     4  10  23  40  71 109 138 192 248 293 359 441
#
# _framework density 23.946387000000001
#
# number of rings (size 3 to 8) (size 9 to 14) (size 15 to 20)
#    0.000    1.091    4.545    2.182    2.545    1.818 
#    3.273    1.818    4.000    0.000    0.000    0.000 
#    0.000    0.000    0.000    0.000    0.000    0.000 
#
# Total GULP energy -492449.368004 kJ/mol
# GULP energy per Si atom -5596.015546 kJ/mol
# Density = 2.389188 g / cm^3
# Si number density = 23.946387 Si / 1000 Ang^3
#
#
#
# Elastic Constant Matrix: (Units=GPa)
#
#
# Indices 1 2 3 4 5 6 
#
# 1 95.5020 62.0653 51.1654 0.0000 0.0000 0.0000
# 2 62.0653 95.5026 51.1654 0.0000 0.0000 0.0000
# 3 51.1654 51.1654 177.4370 0.0000 0.0000 0.0000
# 4 0.0000 0.0000 0.0000 4.1722 0.0000 0.0000
# 5 0.0000 0.0000 0.0000 0.0000 4.1708 0.0000
# 6 0.0000 0.0000 0.0000 0.0000 0.0000 40.7022
#
#
#
# Elastic Compliance Matrix: (Units=1/GPa)
#
#
# Indices 1 2 3 4 5 6 
#
# 1 0.018858 -0.011049 -0.002252 0.000000 0.000000 0.000000
# 2 -0.011049 0.018858 -0.002252 0.000000 0.000000 0.000000
# 3 -0.002252 -0.002252 0.006934 0.000000 0.000000 0.000000
# 4 0.000000 0.000000 0.000000 0.239682 0.000000 0.000000
# 5 0.000000 0.000000 0.000000 0.000000 0.239763 0.000000
# 6 0.000000 0.000000 0.000000 0.000000 0.000000 0.024569
#
#
# Mechanical properties :
#
#
# Convention : Reuss Voigt Hill
#
# Bulk Modulus (GPa) = 73.82717 77.47043 75.64880
# Shear Modulus (GPa) = 8.55747 23.41207 15.98477
#
# Velocity S-wave (km/s) = 1.89245 3.13019 2.58645
# Velocity P-wave (km/s) = 5.97263 6.74433 6.37017
#
# Compressibility (1/GPa) = 0.01354515
#
# Stress axis : x y z
#
# Youngs Moduli (GPa) = 53.02784 53.02827 144.20814
#
# Poissons Ratio (x) = 0.58591 0.32472
# Poissons Ratio (y) = 0.58591 0.32472
# Poissons Ratio (z) = 0.11941 0.11941
#
# Static dielectric constant tensor:
#      x y z
#    x 1.963930 0.000000 0.000000 
#    y 0.000000 1.963930 0.000000 
#    z 0.000000 0.000000 1.963150 
# 
# From -- ./inp_files/4476.got.cif
#   From: 2010.05.17/outbox.cif.g08.bks.cpg/sg133_3_cif.got.tgz:4476.got - 2010.05.20 12:37:36.
