data_PCOD9567809
_publ_section_title
;
Structure prediction by ZEFSAII (Michael W. Deem and Ramdas Pophale) SiO2 
 PCOD9567809
Probable space group: P 42/N B C
;
_chemical_formula_sum "Si O2"
_cell_formula_units_Z 60
_cell_length_a 14.202057
_cell_length_b 14.202057
_cell_length_c 13.752282
_cell_angle_alpha 90.000000
_cell_angle_beta 90.000000
_cell_angle_gamma 90.000000
_cell_volume 2773.813592
_symmetry_space_group_name_H-M "P 42/N B C"
_symmetry_group_IT_number 133
_space_group.IT_coordinate_system_code '2'
_symmetry_cell_setting 'tetragonal'
loop_
_space_group_symop_operation_xyz
x,y,z
1/2-y,x,1/2+z
1/2-x,1/2-y,z
y,1/2-x,1/2+z
x,1/2-y,-z
1/2-x,y,-z
y,x,1/2-z
1/2-y,1/2-x,1/2-z
-x,-y,-z
1/2+y,-x,1/2-z
1/2+x,1/2+y,-z
-y,1/2+x,1/2-z
-x,1/2+y,z
1/2+x,-y,z
-y,-x,1/2+z
1/2+y,1/2+x,1/2+z
loop_
_atom_site_type_symbol
_atom_site_label
_atom_site_fract_x
_atom_site_fract_y
_atom_site_fract_z
Si Si1 0.250000 0.750000 0.750000
Si Si2 0.024863 0.620552 0.063005
Si Si3 0.895173 0.604828 0.750000
Si Si4 0.150772 0.059370 0.951662
Si Si5 0.427373 0.810422 0.850542
O O1 0.321441 0.810510 0.813592
O O2 0.084682 0.527333 0.083564
O O3 0.038559 0.701900 0.141502
O O4 0.068109 0.653069 0.960032
O O5 0.915748 0.605191 0.034831
O O6 0.880435 0.661776 0.648162
O O7 0.869745 0.499668 0.713654
O O8 0.250000 0.034215 0.000000
#
# Coordination Sequence:
#
# PCOD9567809 Si02
#       5
#     4  16   8  16  16
#     4  12  24  34  68 104 128 182 236 296 358 416
#     4   9  21  40  60  92 132 173 228 285 351 423
#     4  10  22  42  61  92 136 167 226 290 346 422
#     4  10  21  40  66  90 129 186 225 285 361 424
#     4  10  22  38  60  94 132 169 223 292 341 427
#
# _framework density 21.630870000000002
#
# number of rings (size 3 to 8) (size 9 to 14) (size 15 to 20)
#    0.000    2.133    0.000    1.600    7.467    1.067 
#    4.800   12.000    0.000    0.000    0.000    0.000 
#    0.000    0.000    0.000    0.000    0.000    0.000 
#
# Total GULP energy -334449.747213 kJ/mol
# GULP energy per Si atom -5574.162454 kJ/mol
# Density = 2.158164 g / cm^3
# Si number density = 21.630870 Si / 1000 Ang^3
#
#
#
# Elastic Constant Matrix: (Units=GPa)
#
#
# Indices 1 2 3 4 5 6 
#
# 1 64.9040 26.2306 32.7549 0.0000 0.0000 0.0000
# 2 26.2306 64.9024 32.7546 0.0000 0.0000 0.0000
# 3 32.7549 32.7546 80.0772 0.0000 0.0000 0.0000
# 4 0.0000 0.0000 0.0000 18.8405 0.0000 0.0000
# 5 0.0000 0.0000 0.0000 0.0000 18.8413 0.0000
# 6 0.0000 0.0000 0.0000 0.0000 0.0000 24.0143
#
#
#
# Elastic Compliance Matrix: (Units=1/GPa)
#
#
# Indices 1 2 3 4 5 6 
#
# 1 0.020700 -0.005158 -0.006358 0.000000 0.000000 0.000000
# 2 -0.005158 0.020701 -0.006358 0.000000 0.000000 0.000000
# 3 -0.006358 -0.006358 0.017689 0.000000 0.000000 0.000000
# 4 0.000000 0.000000 0.000000 0.053077 0.000000 0.000000
# 5 0.000000 0.000000 0.000000 0.000000 0.053075 0.000000
# 6 0.000000 0.000000 0.000000 0.000000 0.000000 0.041642
#
#
# Mechanical properties :
#
#
# Convention : Reuss Voigt Hill
#
# Bulk Modulus (GPa) = 42.83716 43.70708 43.27212
# Shear Modulus (GPa) = 19.96717 20.21547 20.09132
#
# Velocity S-wave (km/s) = 3.04153 3.06038 3.05097
# Velocity P-wave (km/s) = 5.67285 5.72168 5.69732
#
# Compressibility (1/GPa) = 0.02334422
#
# Stress axis : x y z
#
# Youngs Moduli (GPa) = 48.30858 48.30732 56.53211
#
# Poissons Ratio (x) = 0.24915 0.35941
# Poissons Ratio (y) = 0.24915 0.35942
# Poissons Ratio (z) = 0.30713 0.30713
#
# Static dielectric constant tensor:
#      x y z
#    x 1.859520 0.000000 0.000000 
#    y 0.000000 1.859530 0.000000 
#    z 0.000000 0.000000 1.815650 
# 
# From -- ./inp_files/4209.got.cif
#   From: 2010.05.17/outbox.cif.g08.bks.cpg/sg133_3_cif.got.tgz:4209.got - 2010.05.20 12:37:36.
