data_PCOD9567613
_publ_section_title
;
Structure prediction by ZEFSAII (Michael W. Deem and Ramdas Pophale) SiO2 
 PCOD9567613
Probable space group: P 42/N B C
;
_chemical_formula_sum "Si O2"
_cell_formula_units_Z 112
_cell_length_a 14.493092
_cell_length_b 14.493092
_cell_length_c 28.567338
_cell_angle_alpha 90.000000
_cell_angle_beta 90.000000
_cell_angle_gamma 90.000000
_cell_volume 6000.561226
_symmetry_space_group_name_H-M "P 42/N B C"
_symmetry_group_IT_number 133
_space_group.IT_coordinate_system_code '2'
_symmetry_cell_setting 'tetragonal'
loop_
_space_group_symop_operation_xyz
x,y,z
1/2-y,x,1/2+z
1/2-x,1/2-y,z
y,1/2-x,1/2+z
x,1/2-y,-z
1/2-x,y,-z
y,x,1/2-z
1/2-y,1/2-x,1/2-z
-x,-y,-z
1/2+y,-x,1/2-z
1/2+x,1/2+y,-z
-y,1/2+x,1/2-z
-x,1/2+y,z
1/2+x,-y,z
-y,-x,1/2+z
1/2+y,1/2+x,1/2+z
loop_
_atom_site_type_symbol
_atom_site_label
_atom_site_fract_x
_atom_site_fract_y
_atom_site_fract_z
Si Si1 0.457612 0.205170 0.614519
Si Si2 0.989623 0.771129 0.871083
Si Si3 0.930337 0.376058 0.407140
Si Si4 0.531875 0.074719 0.103625
Si Si5 0.322737 0.131342 0.540776
Si Si6 0.672757 0.828702 0.196655
Si Si7 0.138916 0.553941 0.499676
O O1 0.542208 0.274160 0.607814
O O2 0.497502 0.102727 0.619744
O O3 0.386825 0.203143 0.569542
O O4 0.404127 0.220064 0.662820
O O5 0.069613 0.846674 0.881179
O O6 0.028018 0.668019 0.866606
O O7 0.924100 0.770309 0.917683
O O8 0.920572 0.797905 0.829766
O O9 0.903441 0.379547 0.461701
O O10 0.024046 0.434105 0.399578
O O11 0.565575 0.103719 0.052153
O O12 0.250000 0.157571 0.500000
O O13 0.383845 0.050534 0.517022
O O14 0.750000 0.750000 0.198201
O O15 0.647692 0.852309 0.250000
O O16 0.250000 0.562041 0.500000
#
# Coordination Sequence:
#
# PCOD9567613 Si02
#       7
#    16  16  16  16  16  16  16
#     4  11  24  37  59  96 119 162 214 253 314 380
#     4  10  20  38  63  88 124 167 194 256 315 361
#     4  11  22  38  56  87 131 162 208 262 298 368
#     4  12  20  37  62  81 127 170 210 252 304 361
#     4   9  16  36  57  80 119 164 210 257 294 345
#     4  10  21  44  70  93 120 149 203 269 323 374
#     4  10  18  36  56  77 119 171 212 247 298 347
#
# _framework density 18.664922000000001
#
# number of rings (size 3 to 8) (size 9 to 14) (size 15 to 20)
#    0.000    1.571    8.571    1.286    0.000    1.143 
#    0.000    2.857    0.000    0.000    0.000    2.000 
#    0.000    0.000    0.000    0.000    0.000    0.000 
#
# Total GULP energy -624700.205502 kJ/mol
# GULP energy per Si atom -5577.680406 kJ/mol
# Density = 1.862244 g / cm^3
# Si number density = 18.664922 Si / 1000 Ang^3
#
#
#
# Elastic Constant Matrix: (Units=GPa)
#
#
# Indices 1 2 3 4 5 6 
#
# 1 56.2467 -2.2579 20.4613 0.0000 0.0000 0.0000
# 2 -2.2579 56.2467 20.4613 0.0000 0.0000 0.0000
# 3 20.4613 20.4613 108.1496 0.0000 0.0000 0.0000
# 4 0.0000 0.0000 0.0000 13.4204 0.0000 0.0000
# 5 0.0000 0.0000 0.0000 0.0000 13.4202 0.0000
# 6 0.0000 0.0000 0.0000 0.0000 0.0000 23.1732
#
#
#
# Elastic Compliance Matrix: (Units=1/GPa)
#
#
# Indices 1 2 3 4 5 6 
#
# 1 0.019358 0.002265 -0.004091 0.000000 0.000000 0.000000
# 2 0.002265 0.019358 -0.004091 0.000000 0.000000 0.000000
# 3 -0.004091 -0.004091 0.010794 0.000000 0.000000 0.000000
# 4 0.000000 0.000000 0.000000 0.074514 0.000000 0.000000
# 5 0.000000 0.000000 0.000000 0.000000 0.074514 0.000000
# 6 0.000000 0.000000 0.000000 0.000000 0.000000 0.043153
#
#
# Mechanical properties :
#
#
# Convention : Reuss Voigt Hill
#
# Bulk Modulus (GPa) = 26.54142 33.10806 29.82474
# Shear Modulus (GPa) = 18.79105 22.13465 20.46285
#
# Velocity S-wave (km/s) = 3.17639 3.44742 3.31467
# Velocity P-wave (km/s) = 5.26340 5.79853 5.53743
#
# Compressibility (1/GPa) = 0.03767696
#
# Stress axis : x y z
#
# Youngs Moduli (GPa) = 51.65830 51.65829 92.64024
#
# Poissons Ratio (x) = -0.11702 0.37899
# Poissons Ratio (y) = -0.11702 0.37899
# Poissons Ratio (z) = 0.21133 0.21133
#
# Static dielectric constant tensor:
#      x y z
#    x 1.673630 0.000000 0.000000 
#    y 0.000000 1.673630 0.000000 
#    z 0.000000 0.000000 1.656890 
# 
# From -- ./inp_files/7630.got.cif
#   From: 2010.05.17/outbox.cif.g08.bks.cpg/sg133_4_cif.got.tgz:7630.got - 2010.05.20 12:37:36.
