data_PCOD9567259
_publ_section_title
;
Structure prediction by ZEFSAII (Michael W. Deem and Ramdas Pophale) SiO2 
 PCOD9567259
Probable space group: P 42/M C M
;
_chemical_formula_sum "Si O2"
_cell_formula_units_Z 104
_cell_length_a 18.804253
_cell_length_b 18.804253
_cell_length_c 17.882619
_cell_angle_alpha 90.000000
_cell_angle_beta 90.000000
_cell_angle_gamma 90.000000
_cell_volume 6323.292842
_symmetry_space_group_name_H-M "P 42/M C M"
_symmetry_group_IT_number 132
_symmetry_cell_setting 'tetragonal'
loop_
_space_group_symop_operation_xyz
x,y,z
-y,x,1/2+z
-x,-y,z
y,-x,1/2+z
x,-y,1/2-z
-x,y,1/2-z
y,x,-z
-y,-x,-z
-x,-y,-z
y,-x,1/2-z
x,y,-z
-y,x,1/2-z
-x,y,1/2+z
x,-y,1/2+z
-y,-x,z
y,x,z
loop_
_atom_site_type_symbol
_atom_site_label
_atom_site_fract_x
_atom_site_fract_y
_atom_site_fract_z
Si Si1 0.459575 0.337528 0.673500
Si Si2 0.802992 0.079097 0.280456
Si Si3 0.246404 0.133712 0.626436
Si Si4 0.717029 0.020584 0.414972
Si Si5 0.201045 0.604411 0.089288
Si Si6 0.560651 0.560651 0.916622
Si Si7 0.431970 0.957435 0.908990
O O1 0.500000 0.318777 0.750000
O O2 0.397599 0.397599 0.685238
O O3 0.425270 0.269066 0.633215
O O4 0.521357 0.374740 0.624271
O O5 0.872226 0.127775 0.290893
O O6 0.756230 0.115595 0.214909
O O7 0.820773 0.000000 0.250000
O O8 0.759282 0.068724 0.356694
O O9 0.175271 0.175271 0.607706
O O10 0.249425 0.058448 0.585393
O O11 0.313001 0.183011 0.605384
O O12 0.714865 0.047977 0.500000
O O13 0.638063 0.001002 0.386180
O O14 0.125560 0.568526 0.112086
O O15 0.211958 0.595372 0.000000
O O16 0.500000 0.500000 0.920233
O O17 0.581525 0.581525 0.000000
O O18 0.500000 0.000000 0.882824
O O19 0.430056 0.957248 0.000000
#
# Coordination Sequence:
#
# PCOD9567259 Si02
#       7
#    16  16  16  16  16   8  16
#     4  11  21  35  52  72 106 143 172 214 265 313
#     4   9  18  32  49  70 101 140 176 211 254 313
#     4   9  17  31  50  72 101 132 160 206 268 314
#     4   9  17  29  49  75 100 130 171 211 253 306
#     4  10  20  33  54  83 105 125 170 221 261 307
#     4   9  18  32  54  76  94 132 184 218 250 306
#     4   8  15  31  53  76 102 132 160 203 262 311
#
# _framework density 16.447127999999999
#
# number of rings (size 3 to 8) (size 9 to 14) (size 15 to 20)
#    0.000    2.692    0.769    2.308    0.000    3.231 
#    2.769    0.000    0.000    0.000    0.000    4.308 
#    0.000    0.000    0.000    0.000    0.000    0.000 
#
# Total GULP energy -579062.835357 kJ/mol
# GULP energy per Si atom -5567.911878 kJ/mol
# Density = 1.640969 g / cm^3
# Si number density = 16.447128 Si / 1000 Ang^3
#
#
#
# Elastic Constant Matrix: (Units=GPa)
#
#
# Indices 1 2 3 4 5 6 
#
# 1 60.2039 43.3865 33.2229 0.0000 0.0000 0.0000
# 2 43.3865 60.2039 33.2229 0.0000 0.0000 0.0000
# 3 33.2229 33.2229 83.1469 0.0000 0.0000 0.0000
# 4 0.0000 0.0000 0.0000 17.6848 0.0000 0.0000
# 5 0.0000 0.0000 0.0000 0.0000 17.6848 0.0000
# 6 0.0000 0.0000 0.0000 0.0000 0.0000 32.9355
#
#
#
# Elastic Compliance Matrix: (Units=1/GPa)
#
#
# Indices 1 2 3 4 5 6 
#
# 1 0.036221 -0.023241 -0.005186 0.000000 0.000000 0.000000
# 2 -0.023241 0.036221 -0.005186 0.000000 0.000000 0.000000
# 3 -0.005186 -0.005186 0.016172 0.000000 0.000000 0.000000
# 4 0.000000 0.000000 0.000000 0.056546 0.000000 0.000000
# 5 0.000000 0.000000 0.000000 0.000000 0.056546 0.000000
# 6 0.000000 0.000000 0.000000 0.000000 0.000000 0.030362
#
#
# Mechanical properties :
#
#
# Convention : Reuss Voigt Hill
#
# Bulk Modulus (GPa) = 46.75942 47.02434 46.89188
# Shear Modulus (GPa) = 16.31725 19.90921 18.11323
#
# Velocity S-wave (km/s) = 3.15318 3.48299 3.32218
# Velocity P-wave (km/s) = 6.46132 6.69539 6.57940
#
# Compressibility (1/GPa) = 0.02138606
#
# Stress axis : x y z
#
# Youngs Moduli (GPa) = 27.60814 27.60814 61.83685
#
# Poissons Ratio (x) = 0.64164 0.32071
# Poissons Ratio (y) = 0.64164 0.32071
# Poissons Ratio (z) = 0.14319 0.14319
#
# Static dielectric constant tensor:
#      x y z
#    x 1.546040 0.000000 0.000000 
#    y 0.000000 1.546040 0.000000 
#    z 0.000000 0.000000 1.581140 
# 
# From -- ./inp_files/6547.got.cif
#   From: 2010.05.17/outbox.cif.g08.bks.cpg/sg132_4_cif.got.tgz:6547.got - 2010.05.20 12:30:18.
