data_PCOD9567384
_publ_section_title
;
Structure prediction by ZEFSAII (Michael W. Deem and Ramdas Pophale) SiO2 
 PCOD9567384
Probable space group: P 42/M C M
;
_chemical_formula_sum "Si O2"
_cell_formula_units_Z 96
_cell_length_a 24.614482
_cell_length_b 24.614482
_cell_length_c 8.811930
_cell_angle_alpha 90.000000
_cell_angle_beta 90.000000
_cell_angle_gamma 90.000000
_cell_volume 5338.908034
_symmetry_space_group_name_H-M "P 42/M C M"
_symmetry_group_IT_number 132
_symmetry_cell_setting 'tetragonal'
loop_
_space_group_symop_operation_xyz
x,y,z
-y,x,1/2+z
-x,-y,z
y,-x,1/2+z
x,-y,1/2-z
-x,y,1/2-z
y,x,-z
-y,-x,-z
-x,-y,-z
y,-x,1/2-z
x,y,-z
-y,x,1/2-z
-x,y,1/2+z
x,-y,1/2+z
-y,-x,z
y,x,z
loop_
_atom_site_type_symbol
_atom_site_label
_atom_site_fract_x
_atom_site_fract_y
_atom_site_fract_z
Si Si1 0.262266 0.351604 0.817050
Si Si2 0.560082 0.351444 0.316964
Si Si3 0.943154 0.440369 0.181194
Si Si4 0.145847 0.055495 0.679823
Si Si5 0.142283 0.347727 0.318644
Si Si6 0.942063 0.735385 0.819118
O O1 0.298906 0.298906 0.777575
O O2 0.298564 0.404134 0.773642
O O3 0.203348 0.350753 0.742646
O O4 0.256657 0.352184 0.000000
O O5 0.500000 0.351351 0.250000
O O6 0.556934 0.351807 0.500000
O O7 0.595975 0.404026 0.271230
O O8 0.934867 0.500000 0.250000
O O9 0.892595 0.401763 0.216732
O O10 0.000000 0.419170 0.250000
O O11 0.949025 0.443936 0.000000
O O12 0.155773 0.048328 0.500000
O O13 0.104761 0.104761 0.701524
O O14 0.202849 0.065146 0.763139
O O15 0.122724 0.000000 0.750000
O O16 0.142863 0.340656 0.500000
O O17 0.107613 0.299734 0.243255
O O18 0.000000 0.716741 0.750000
O O19 0.944802 0.732537 0.000000
#
# Coordination Sequence:
#
# PCOD9567384 Si02
#       6
#    16  16  16  16  16  16
#     4   9  20  39  58  77 106 144 183 224 272 321
#     4   9  19  36  57  82 113 147 183 225 272 323
#     4  10  21  36  55  79 109 143 177 217 265 314
#     4  10  21  37  57  81 110 143 179 222 271 324
#     4  11  23  37  56  83 110 141 183 225 269 324
#     4  11  22  37  58  81 108 142 179 224 275 324
#
# _framework density 17.981206
#
# number of rings (size 3 to 8) (size 9 to 14) (size 15 to 20)
#    0.000    2.000    0.000    6.000    0.000    8.333 
#    0.000    6.667    0.000    0.000    0.000    0.000 
#    0.000    0.000    0.000    0.000    0.000    0.000 
#
# Total GULP energy -536099.151457 kJ/mol
# GULP energy per Si atom -5584.366161 kJ/mol
# Density = 1.794028 g / cm^3
# Si number density = 17.981206 Si / 1000 Ang^3
#
#
#
# Elastic Constant Matrix: (Units=GPa)
#
#
# Indices 1 2 3 4 5 6 
#
# 1 155.0386 91.2684 69.4102 0.0000 0.0000 0.0000
# 2 91.2684 155.0386 69.4102 0.0000 0.0000 0.0000
# 3 69.4102 69.4102 83.3557 0.0000 0.0000 0.0000
# 4 0.0000 0.0000 0.0000 206.4427 0.0000 0.0000
# 5 0.0000 0.0000 0.0000 0.0000 206.4427 0.0000
# 6 0.0000 0.0000 0.0000 0.0000 0.0000 20.5277
#
#
#
# Elastic Compliance Matrix: (Units=1/GPa)
#
#
# Indices 1 2 3 4 5 6 
#
# 1 0.011666 -0.004015 -0.006371 0.000000 0.000000 0.000000
# 2 -0.004015 0.011666 -0.006371 0.000000 0.000000 0.000000
# 3 -0.006371 -0.006371 0.022606 0.000000 0.000000 0.000000
# 4 0.000000 0.000000 0.000000 0.004844 0.000000 0.000000
# 5 0.000000 0.000000 0.000000 0.000000 0.004844 0.000000
# 6 0.000000 0.000000 0.000000 0.000000 0.000000 0.048715
#
#
# Mechanical properties :
#
#
# Convention : Reuss Voigt Hill
#
# Bulk Modulus (GPa) = 80.48261 94.84560 87.66411
# Shear Modulus (GPa) = 35.21250 97.57223 66.39237
#
# Velocity S-wave (km/s) = 4.43006 7.37436 6.08304
# Velocity P-wave (km/s) = 8.42756 11.19687 9.90943
#
# Compressibility (1/GPa) = 0.01242504
#
# Stress axis : x y z
#
# Youngs Moduli (GPa) = 85.72010 85.72010 44.23564
#
# Poissons Ratio (x) = 0.34420 0.28180
# Poissons Ratio (y) = 0.34420 0.28180
# Poissons Ratio (z) = 0.54608 0.54608
#
# Static dielectric constant tensor:
#      x y z
#    x 1.601120 0.000000 0.000000 
#    y 0.000000 1.601120 0.000000 
#    z 0.000000 0.000000 1.603000 
# 
# From -- ./inp_files/1783.got.cif
#   From: 2010.05.17/outbox.cif.g08.bks.cpg/sg132_1_cif.got.tgz:1783.got - 2010.05.20 12:30:18.
