data_PCOD9567957
_publ_section_title
;
Structure prediction by ZEFSAII (Michael W. Deem and Ramdas Pophale) SiO2 
 PCOD9567957
Probable space group: P 42/N B C
;
_chemical_formula_sum "Si O2"
_cell_formula_units_Z 92
_cell_length_a 13.900979
_cell_length_b 13.900979
_cell_length_c 29.409894
_cell_angle_alpha 90.000000
_cell_angle_beta 90.000000
_cell_angle_gamma 90.000000
_cell_volume 5683.086073
_symmetry_space_group_name_H-M "P 42/N B C"
_symmetry_group_IT_number 133
_space_group.IT_coordinate_system_code '2'
_symmetry_cell_setting 'tetragonal'
loop_
_space_group_symop_operation_xyz
x,y,z
1/2-y,x,1/2+z
1/2-x,1/2-y,z
y,1/2-x,1/2+z
x,1/2-y,-z
1/2-x,y,-z
y,x,1/2-z
1/2-y,1/2-x,1/2-z
-x,-y,-z
1/2+y,-x,1/2-z
1/2+x,1/2+y,-z
-y,1/2+x,1/2-z
-x,1/2+y,z
1/2+x,-y,z
-y,-x,1/2+z
1/2+y,1/2+x,1/2+z
loop_
_atom_site_type_symbol
_atom_site_label
_atom_site_fract_x
_atom_site_fract_y
_atom_site_fract_z
Si Si1 0.935138 0.375797 0.356585
Si Si2 0.223228 0.457453 0.791091
Si Si3 0.937238 0.252980 0.198239
Si Si4 0.250000 0.250000 0.750000
Si Si5 0.944054 0.441141 0.650695
Si Si6 0.782865 0.147926 0.912292
Si Si7 0.750000 0.250000 0.000000
Si Si8 0.250000 0.750000 0.750000
O O1 0.834901 0.413902 0.335154
O O2 0.917120 0.309305 0.400619
O O3 0.988423 0.308689 0.318874
O O4 0.997621 0.468656 0.367084
O O5 0.217441 0.500895 0.740536
O O6 0.244698 0.345033 0.782138
O O7 0.125721 0.486984 0.817798
O O8 0.979545 0.349601 0.176962
O O9 0.835061 0.287324 0.218744
O O10 0.900040 0.372205 0.612163
O O11 0.750000 0.250000 0.890288
O O12 0.802465 0.179389 0.964173
#
# Coordination Sequence:
#
# PCOD9567957 Si02
#       8
#    16  16  16   4  16  16   4   4
#     4  11  21  33  52  80 104 138 182 226 267 313
#     4  11  22  32  46  65 105 149 191 225 265 304
#     4  12  18  32  51  72 103 140 193 238 260 294
#     4  12  24  36  36  60 108 158 184 232 276 312
#     4  11  21  33  52  80 104 138 182 226 267 313
#     4   9  18  37  61  80 103 133 164 213 269 320
#     4   8  16  38  68  84 102 128 160 216 270 316
#     4  12  16  30  52  72  92 134 204 244 266 276
#
# _framework density 16.188388
#
# number of rings (size 3 to 8) (size 9 to 14) (size 15 to 20)
#    0.522    0.696    5.217    3.130    0.000    1.391 
#    0.000    0.870    0.000    0.000    0.000    0.000 
#    0.000    6.957    0.000    0.000    0.000    0.000 
#
# Total GULP energy -512459.736907 kJ/mol
# GULP energy per Si atom -5570.214532 kJ/mol
# Density = 1.615154 g / cm^3
# Si number density = 16.188388 Si / 1000 Ang^3
#
#
#
# Elastic Constant Matrix: (Units=GPa)
#
#
# Indices 1 2 3 4 5 6 
#
# 1 79.6047 19.1570 19.9347 0.0000 0.0000 0.0000
# 2 19.1570 79.6047 19.9347 0.0000 0.0000 0.0000
# 3 19.9347 19.9347 74.7902 0.0000 0.0000 0.0000
# 4 0.0000 0.0000 0.0000 19.7399 0.0000 0.0000
# 5 0.0000 0.0000 0.0000 0.0000 19.7399 0.0000
# 6 0.0000 0.0000 0.0000 0.0000 0.0000 23.7583
#
#
#
# Elastic Compliance Matrix: (Units=1/GPa)
#
#
# Indices 1 2 3 4 5 6 
#
# 1 0.013945 -0.002598 -0.003024 0.000000 0.000000 0.000000
# 2 -0.002598 0.013945 -0.003024 0.000000 0.000000 0.000000
# 3 -0.003024 -0.003024 0.014983 0.000000 0.000000 0.000000
# 4 0.000000 0.000000 0.000000 0.050659 0.000000 0.000000
# 5 0.000000 0.000000 0.000000 0.000000 0.050659 0.000000
# 6 0.000000 0.000000 0.000000 0.000000 0.000000 0.042091
#
#
# Mechanical properties :
#
#
# Convention : Reuss Voigt Hill
#
# Bulk Modulus (GPa) = 39.09543 39.11691 39.10617
# Shear Modulus (GPa) = 23.57367 24.31247 23.94307
#
# Velocity S-wave (km/s) = 3.82017 3.87957 3.84998
# Velocity P-wave (km/s) = 6.60765 6.65463 6.63118
#
# Compressibility (1/GPa) = 0.02557844
#
# Stress axis : x y z
#
# Youngs Moduli (GPa) = 71.71160 71.71160 66.74270
#
# Poissons Ratio (x) = 0.18634 0.20185
# Poissons Ratio (y) = 0.18634 0.20185
# Poissons Ratio (z) = 0.21687 0.21687
#
# Static dielectric constant tensor:
#      x y z
#    x 1.588650 0.000000 0.000000 
#    y 0.000000 1.588650 0.000000 
#    z 0.000000 0.000000 1.542980 
# 
# From -- ./inp_files/8049.got.cif
#   From: 2010.05.17/outbox.cif.g08.bks.cpg/sg133_5_cif.got.tgz:8049.got - 2010.05.20 12:37:36.
