data_PCOD9567200
_publ_section_title
;
Structure prediction by ZEFSAII (Michael W. Deem and Ramdas Pophale) SiO2 
 PCOD9567200
Probable space group: P 42/M C M
;
_chemical_formula_sum "Si O2"
_cell_formula_units_Z 96
_cell_length_a 25.906822
_cell_length_b 25.906822
_cell_length_c 9.139600
_cell_angle_alpha 90.000000
_cell_angle_beta 90.000000
_cell_angle_gamma 90.000000
_cell_volume 6134.165250
_symmetry_space_group_name_H-M "P 42/M C M"
_symmetry_group_IT_number 132
_symmetry_cell_setting 'tetragonal'
loop_
_space_group_symop_operation_xyz
x,y,z
-y,x,1/2+z
-x,-y,z
y,-x,1/2+z
x,-y,1/2-z
-x,y,1/2-z
y,x,-z
-y,-x,-z
-x,-y,-z
y,-x,1/2-z
x,y,-z
-y,x,1/2-z
-x,y,1/2+z
x,-y,1/2+z
-y,-x,z
y,x,z
loop_
_atom_site_type_symbol
_atom_site_label
_atom_site_fract_x
_atom_site_fract_y
_atom_site_fract_z
Si Si1 0.855905 0.335826 0.677859
Si Si2 0.946227 0.742816 0.824416
Si Si3 0.745189 0.658596 0.325446
Si Si4 0.448051 0.739140 0.331178
Si Si5 0.550527 0.864711 0.166420
Si Si6 0.137512 0.053651 0.824109
O O1 0.849148 0.337121 0.500000
O O2 0.897739 0.292652 0.715697
O O3 0.800275 0.328063 0.751834
O O4 0.876840 0.392380 0.724354
O O5 0.936310 0.802701 0.784996
O O6 0.000000 0.727035 0.750000
O O7 0.952189 0.739873 0.000000
O O8 0.751794 0.652031 0.500000
O O9 0.703594 0.703594 0.299432
O O10 0.726770 0.604538 0.254488
O O11 0.500000 0.721078 0.250000
O O12 0.446214 0.722140 0.500000
O O13 0.450549 0.801942 0.333126
O O14 0.500000 0.883097 0.250000
O O15 0.547330 0.882562 0.000000
O O16 0.099995 0.099995 0.780113
O O17 0.121840 0.000000 0.750000
O O18 0.134968 0.048373 0.000000
#
# Coordination Sequence:
#
# PCOD9567200 Si02
#       6
#    16  16  16  16  16  16
#     4   9  18  31  47  66  88 118 154 188 228 279
#     4   9  18  33  51  69  89 115 149 188 226 269
#     4  10  20  31  43  65  98 129 157 193 235 278
#     4   9  16  27  44  64  88 121 159 195 232 277
#     4   8  14  24  39  61  85 109 141 180 219 261
#     4   9  18  32  49  69  91 114 141 174 215 263
#
# _framework density 15.650050999999999
#
# number of rings (size 3 to 8) (size 9 to 14) (size 15 to 20)
#    0.000    3.000    0.000    2.000    0.000    7.167 
#    0.000    2.500    0.000    0.500    0.000    3.500 
#    0.000    0.333    0.000    3.500    0.000    1.667 
#
# Total GULP energy -534537.056292 kJ/mol
# GULP energy per Si atom -5568.094336 kJ/mol
# Density = 1.561443 g / cm^3
# Si number density = 15.650051 Si / 1000 Ang^3
#
#
#
# Elastic Constant Matrix: (Units=GPa)
#
#
# Indices 1 2 3 4 5 6 
#
# 1 97.1454 75.7111 48.4336 0.0000 0.0000 0.0000
# 2 75.7111 97.1454 48.4336 0.0000 0.0000 0.0000
# 3 48.4336 48.4336 53.4419 0.0000 0.0000 0.0000
# 4 0.0000 0.0000 0.0000 21.2447 0.0000 0.0000
# 5 0.0000 0.0000 0.0000 0.0000 21.2447 0.0000
# 6 0.0000 0.0000 0.0000 0.0000 0.0000 -1.7030
#
#
#
# Elastic Compliance Matrix: (Units=1/GPa)
#
#
# Indices 1 2 3 4 5 6 
#
# 1 0.029205 -0.017449 -0.010654 0.000000 0.000000 0.000000
# 2 -0.017449 0.029205 -0.010654 0.000000 0.000000 0.000000
# 3 -0.010654 -0.010654 0.038022 0.000000 0.000000 0.000000
# 4 0.000000 0.000000 0.000000 0.047071 0.000000 0.000000
# 5 0.000000 0.000000 0.000000 0.000000 0.047071 0.000000
# 6 0.000000 0.000000 0.000000 0.000000 0.000000 -0.587195
#
#
# Mechanical properties :
#
#
# Convention : Reuss Voigt Hill
#
# Bulk Modulus (GPa) = 52.85862 65.87657 59.36760
# Shear Modulus (GPa) = -15.98460 13.16756 -1.40852
#
# Velocity S-wave (km/s) = -3.19937 2.90379 -0.94972
# Velocity P-wave (km/s) = 4.49453 7.30942 6.06747
#
# Compressibility (1/GPa) = 0.01891839
#
# Stress axis : x y z
#
# Youngs Moduli (GPa) = 34.24086 34.24086 26.30023
#
# Poissons Ratio (x) = 0.59749 0.28020
# Poissons Ratio (y) = 0.59749 0.28020
# Poissons Ratio (z) = 0.36479 0.36479
#
# Static dielectric constant tensor:
#      x y z
#    x 1.512080 0.000000 0.000000 
#    y 0.000000 1.512080 0.000000 
#    z 0.000000 0.000000 1.533140 
# 
# From -- ./inp_files/1961.got.cif
#   From: 2010.05.17/outbox.cif.g08.bks.cpg/sg132_1_cif.got.tgz:1961.got - 2010.05.20 12:30:18.
