data_PCOD9567159
_publ_section_title
;
Structure prediction by ZEFSAII (Michael W. Deem and Ramdas Pophale) SiO2 
 PCOD9567159
Probable space group: P 42/M C M
;
_chemical_formula_sum "Si O2"
_cell_formula_units_Z 96
_cell_length_a 26.294616
_cell_length_b 26.294616
_cell_length_c 8.823761
_cell_angle_alpha 90.000000
_cell_angle_beta 90.000000
_cell_angle_gamma 90.000000
_cell_volume 6100.808627
_symmetry_space_group_name_H-M "P 42/M C M"
_symmetry_group_IT_number 132
_symmetry_cell_setting 'tetragonal'
loop_
_space_group_symop_operation_xyz
x,y,z
-y,x,1/2+z
-x,-y,z
y,-x,1/2+z
x,-y,1/2-z
-x,y,1/2-z
y,x,-z
-y,-x,-z
-x,-y,-z
y,-x,1/2-z
x,y,-z
-y,x,1/2-z
-x,y,1/2+z
x,-y,1/2+z
-y,-x,z
y,x,z
loop_
_atom_site_type_symbol
_atom_site_label
_atom_site_fract_x
_atom_site_fract_y
_atom_site_fract_z
Si Si1 0.551706 0.922050 0.677865
Si Si2 0.337016 0.337016 0.184038
Si Si3 0.182100 0.575340 0.323715
Si Si4 0.158492 0.305399 0.823098
Si Si5 0.743747 0.256253 0.180908
Si Si6 0.052750 0.334374 0.682625
Si Si7 0.297547 0.552426 0.681787
O O1 0.500000 0.942261 0.750000
O O2 0.549350 0.930200 0.500000
O O3 0.554777 0.862231 0.717718
O O4 0.606141 0.942758 0.733869
O O5 0.296981 0.296981 0.252684
O O6 0.394750 0.323649 0.228733
O O7 0.332992 0.332992 0.000000
O O8 0.172273 0.560901 0.500000
O O9 0.179249 0.636531 0.316562
O O10 0.237932 0.557807 0.277843
O O11 0.200536 0.271580 0.740519
O O12 0.103130 0.306984 0.745549
O O13 0.154118 0.291637 0.000000
O O14 0.741937 0.258063 0.000000
O O15 0.052578 0.333092 0.500000
O O16 0.000000 0.314154 0.750000
O O17 0.317899 0.500000 0.750000
O O18 0.300505 0.549752 0.500000
#
# Coordination Sequence:
#
# PCOD9567159 Si02
#       7
#    16   8  16  16   8  16  16
#     4  10  20  31  44  63  89 119 158 204 247 291
#     4  10  20  38  54  69  97 132 157 184 237 299
#     4   9  17  30  48  68  90 121 154 189 237 292
#     4  10  19  34  54  74 100 133 165 199 246 299
#     4  12  22  32  52  82 109 131 160 205 250 298
#     4  10  21  36  51  70  94 126 168 212 252 294
#     4  10  20  33  50  70  93 120 152 187 231 292
#
# _framework density 15.735619
#
# number of rings (size 3 to 8) (size 9 to 14) (size 15 to 20)
#    0.000    2.000    1.667    2.750    0.000    5.667 
#    0.000    1.667    0.000    0.250    0.000    1.750 
#    0.000    0.000    0.000    0.000    0.000    0.417 
#
# Total GULP energy -535856.514493 kJ/mol
# GULP energy per Si atom -5581.838693 kJ/mol
# Density = 1.569980 g / cm^3
# Si number density = 15.735619 Si / 1000 Ang^3
#
#
#
# Elastic Constant Matrix: (Units=GPa)
#
#
# Indices 1 2 3 4 5 6 
#
# 1 97.6885 52.0573 34.8323 0.0000 0.0000 0.0000
# 2 52.0573 97.6885 34.8323 0.0000 0.0000 0.0000
# 3 34.8323 34.8323 50.2602 0.0000 0.0000 0.0000
# 4 0.0000 0.0000 0.0000 18.4877 0.0000 0.0000
# 5 0.0000 0.0000 0.0000 0.0000 18.4877 0.0000
# 6 0.0000 0.0000 0.0000 0.0000 0.0000 -2.9742
#
#
#
# Elastic Compliance Matrix: (Units=1/GPa)
#
#
# Indices 1 2 3 4 5 6 
#
# 1 0.015885 -0.006030 -0.006830 0.000000 0.000000 0.000000
# 2 -0.006030 0.015885 -0.006830 0.000000 0.000000 0.000000
# 3 -0.006830 -0.006830 0.029364 0.000000 0.000000 0.000000
# 4 0.000000 0.000000 0.000000 0.054090 0.000000 0.000000
# 5 0.000000 0.000000 0.000000 0.000000 0.054090 0.000000
# 6 0.000000 0.000000 0.000000 0.000000 0.000000 -0.336222
#
#
# Mechanical properties :
#
#
# Convention : Reuss Voigt Hill
#
# Bulk Modulus (GPa) = 45.96912 54.34236 50.15574
# Shear Modulus (GPa) = -41.57125 15.06124 -13.25501
#
# Velocity S-wave (km/s) = -5.14548 3.09713 -2.90549
# Velocity P-wave (km/s) = 2.45446 6.88471 4.54834
#
# Compressibility (1/GPa) = 0.02175373
#
# Stress axis : x y z
#
# Youngs Moduli (GPa) = 62.95168 62.95168 34.05549
#
# Poissons Ratio (x) = 0.37957 0.23261
# Poissons Ratio (y) = 0.37957 0.23261
# Poissons Ratio (z) = 0.42998 0.42998
#
# Static dielectric constant tensor:
#      x y z
#    x 1.526850 0.000000 0.000000 
#    y 0.000000 1.526850 0.000000 
#    z 0.000000 0.000000 1.532110 
# 
# From -- ./inp_files/1832.got.cif
#   From: 2010.05.17/outbox.cif.g08.bks.cpg/sg132_1_cif.got.tgz:1832.got - 2010.05.20 12:30:18.
