data_PCOD9567158
_publ_section_title
;
Structure prediction by ZEFSAII (Michael W. Deem and Ramdas Pophale) SiO2 
 PCOD9567158
Probable space group: P 42/M C M
;
_chemical_formula_sum "Si O2"
_cell_formula_units_Z 128
_cell_length_a 20.836507
_cell_length_b 20.836507
_cell_length_c 16.273580
_cell_angle_alpha 90.000000
_cell_angle_beta 90.000000
_cell_angle_gamma 90.000000
_cell_volume 7065.337883
_symmetry_space_group_name_H-M "P 42/M C M"
_symmetry_group_IT_number 132
_symmetry_cell_setting 'tetragonal'
loop_
_space_group_symop_operation_xyz
x,y,z
-y,x,1/2+z
-x,-y,z
y,-x,1/2+z
x,-y,1/2-z
-x,y,1/2-z
y,x,-z
-y,-x,-z
-x,-y,-z
y,-x,1/2-z
x,y,-z
-y,x,1/2-z
-x,y,1/2+z
x,-y,1/2+z
-y,-x,z
y,x,z
loop_
_atom_site_type_symbol
_atom_site_label
_atom_site_fract_x
_atom_site_fract_y
_atom_site_fract_z
Si Si1 0.777712 0.512096 0.159764
Si Si2 0.249957 0.144351 0.094184
Si Si3 0.656060 0.957770 0.834282
Si Si4 0.795791 0.694748 0.343138
Si Si5 0.089105 0.521825 0.405474
Si Si6 0.622244 0.080524 0.093410
Si Si7 0.658016 0.756005 0.158312
Si Si8 0.404572 0.305901 0.595097
O O1 0.806374 0.500000 0.250000
O O2 0.835295 0.505948 0.096282
O O3 0.754874 0.583481 0.152578
O O4 0.720608 0.463171 0.146259
O O5 0.185515 0.185515 0.119894
O O6 0.282906 0.089370 0.151350
O O7 0.306254 0.197505 0.095463
O O8 0.240257 0.122134 0.000000
O O9 0.586746 0.922555 0.851681
O O10 0.655693 0.000000 0.750000
O O11 0.658429 0.013293 0.902241
O O12 0.767549 0.767549 0.356572
O O13 0.866477 0.666402 0.361409
O O14 0.781779 0.678684 0.248150
O O15 0.749260 0.649278 0.396162
O O16 0.068107 0.534053 0.500000
O O17 0.064276 0.451223 0.376002
O O18 0.614211 0.102478 0.000000
O O19 0.686176 0.686176 0.148763
O O20 0.421990 0.313190 0.500000
O O21 0.370537 0.370537 0.625221
#
# Coordination Sequence:
#
# PCOD9567158 Si02
#       8
#    16  16  16  16  16  16  16  16
#     4  12  21  31  56  79 106 141 190 241 291 341
#     4  10  21  39  62  85 112 149 193 240 287 333
#     4  12  25  37  55  79 114 154 189 227 276 335
#     4  10  19  34  53  76 109 145 187 236 281 332
#     4  11  23  37  51  74 112 156 196 235 274 325
#     4  11  22  35  51  76 111 153 196 232 277 332
#     4  10  20  34  53  79 106 135 180 242 299 342
#     4  10  20  34  52  74 101 138 184 235 292 347
#
# _framework density 18.116613999999998
#
# number of rings (size 3 to 8) (size 9 to 14) (size 15 to 20)
#    0.000    1.250    3.750    3.000    1.750    2.750 
#    0.000    0.000    0.000    0.375    0.000    1.750 
#    0.000    1.750    0.000    6.875    0.000    0.000 
#
# Total GULP energy -712836.394145 kJ/mol
# GULP energy per Si atom -5569.034329 kJ/mol
# Density = 1.807538 g / cm^3
# Si number density = 18.116614 Si / 1000 Ang^3
#
#
#
# Elastic Constant Matrix: (Units=GPa)
#
#
# Indices 1 2 3 4 5 6 
#
# 1 80.8131 44.9381 16.7231 0.0000 0.0000 0.0000
# 2 44.9381 80.8131 16.7231 0.0000 0.0000 0.0000
# 3 16.7231 16.7231 65.4725 0.0000 0.0000 0.0000
# 4 0.0000 0.0000 0.0000 17.2780 0.0000 0.0000
# 5 0.0000 0.0000 0.0000 0.0000 17.2780 0.0000
# 6 0.0000 0.0000 0.0000 0.0000 0.0000 -64.1313
#
#
#
# Elastic Compliance Matrix: (Units=1/GPa)
#
#
# Indices 1 2 3 4 5 6 
#
# 1 0.018203 -0.009671 -0.002179 0.000000 0.000000 0.000000
# 2 -0.009671 0.018203 -0.002179 0.000000 0.000000 0.000000
# 3 -0.002179 -0.002179 0.016387 0.000000 0.000000 0.000000
# 4 0.000000 0.000000 0.000000 0.057877 0.000000 0.000000
# 5 0.000000 0.000000 0.000000 0.000000 0.057877 0.000000
# 6 0.000000 0.000000 0.000000 0.000000 0.000000 -0.015593
#
#
# Mechanical properties :
#
#
# Convention : Reuss Voigt Hill
#
# Bulk Modulus (GPa) = 40.43082 42.65193 41.54137
# Shear Modulus (GPa) = 26.41887 3.99921 15.20904
#
# Velocity S-wave (km/s) = 3.82287 1.48737 2.90057
# Velocity P-wave (km/s) = 6.46925 5.15207 5.84786
#
# Compressibility (1/GPa) = 0.02473361
#
# Stress axis : x y z
#
# Youngs Moduli (GPa) = 54.93545 54.93545 61.02463
#
# Poissons Ratio (x) = 0.53130 0.13299
# Poissons Ratio (y) = 0.53130 0.13299
# Poissons Ratio (z) = 0.11972 0.11972
#
# Static dielectric constant tensor:
#      x y z
#    x 1.959950 0.000000 0.000000 
#    y 0.000000 1.959950 0.000000 
#    z 0.000000 0.000000 1.706060 
# 
# From -- ./inp_files/6884.got.cif
#   From: 2010.05.17/outbox.cif.g08.bks.cpg/sg132_4_cif.got.tgz:6884.got - 2010.05.20 12:30:18.
