data_PCOD9567871
_publ_section_title
;
Structure prediction by ZEFSAII (Michael W. Deem and Ramdas Pophale) SiO2 
 PCOD9567871
Probable space group: P 42/N B C
;
_chemical_formula_sum "Si O2"
_cell_formula_units_Z 96
_cell_length_a 14.121449
_cell_length_b 14.121449
_cell_length_c 20.089614
_cell_angle_alpha 90.000000
_cell_angle_beta 90.000000
_cell_angle_gamma 90.000000
_cell_volume 4006.176842
_symmetry_space_group_name_H-M "P 42/N B C"
_symmetry_group_IT_number 133
_space_group.IT_coordinate_system_code '2'
_symmetry_cell_setting 'tetragonal'
loop_
_space_group_symop_operation_xyz
x,y,z
1/2-y,x,1/2+z
1/2-x,1/2-y,z
y,1/2-x,1/2+z
x,1/2-y,-z
1/2-x,y,-z
y,x,1/2-z
1/2-y,1/2-x,1/2-z
-x,-y,-z
1/2+y,-x,1/2-z
1/2+x,1/2+y,-z
-y,1/2+x,1/2-z
-x,1/2+y,z
1/2+x,-y,z
-y,-x,1/2+z
1/2+y,1/2+x,1/2+z
loop_
_atom_site_type_symbol
_atom_site_label
_atom_site_fract_x
_atom_site_fract_y
_atom_site_fract_z
Si Si1 0.023501 0.638441 0.380074
Si Si2 0.667496 0.088878 0.829039
Si Si3 0.924137 0.652848 0.069100
Si Si4 0.082786 0.417215 0.250000
Si Si5 0.855364 0.954699 0.381997
Si Si6 0.750000 0.750000 0.000000
Si Si7 0.534574 0.102554 0.465795
Si Si8 0.750000 0.250000 0.250000
O O1 0.042551 0.728623 0.335881
O O2 0.097659 0.555579 0.367095
O O3 0.031642 0.651961 0.461785
O O4 0.917871 0.598327 0.370650
O O5 0.642329 0.100609 0.906745
O O6 0.678340 0.189424 0.794371
O O7 0.600357 0.017948 0.787312
O O8 0.966655 0.755013 0.083660
O O9 0.821661 0.682824 0.040332
O O10 0.998825 0.586515 0.028061
O O11 0.093879 0.344275 0.189513
O O12 0.934072 0.897188 0.424965
#
# Coordination Sequence:
#
# PCOD9567871 Si02
#       8
#    16  16  16   8  16   4  16   4
#     4  11  23  43  70 109 146 182 241 303 378 444
#     4  11  26  45  74 103 142 195 236 309 354 441
#     4  11  24  39  69 102 137 192 229 295 375 437
#     4  10  24  46  71  94 146 187 246 292 356 430
#     4  10  22  45  67 101 142 195 242 298 365 441
#     4  12  24  36  68  98 142 178 236 288 358 464
#     4  10  23  43  69 105 145 184 234 303 383 440
#     4  12  28  52  74 104 144 200 268 290 368 464
#
# _framework density 23.962997000000001
#
# number of rings (size 3 to 8) (size 9 to 14) (size 15 to 20)
#    0.000    1.333    0.000    5.500   11.667    0.000 
#    3.000    1.667    0.000    0.000    0.000    0.000 
#    0.000    0.000    0.000    0.000    0.000    0.000 
#
# Total GULP energy -535539.137879 kJ/mol
# GULP energy per Si atom -5578.532686 kJ/mol
# Density = 2.390846 g / cm^3
# Si number density = 23.962997 Si / 1000 Ang^3
#
#
#
# Elastic Constant Matrix: (Units=GPa)
#
#
# Indices 1 2 3 4 5 6 
#
# 1 111.5817 37.4860 18.1695 0.0000 0.0000 0.0000
# 2 37.4860 111.5822 18.1697 0.0000 0.0000 0.0000
# 3 18.1695 18.1697 109.5083 0.0000 0.0000 0.0000
# 4 0.0000 0.0000 0.0000 18.0185 0.0000 0.0000
# 5 0.0000 0.0000 0.0000 0.0000 18.0183 0.0000
# 6 0.0000 0.0000 0.0000 0.0000 0.0000 42.5223
#
#
#
# Elastic Compliance Matrix: (Units=1/GPa)
#
#
# Indices 1 2 3 4 5 6 
#
# 1 0.010244 -0.003252 -0.001160 0.000000 0.000000 0.000000
# 2 -0.003252 0.010244 -0.001160 0.000000 0.000000 0.000000
# 3 -0.001160 -0.001160 0.009517 0.000000 0.000000 0.000000
# 4 0.000000 0.000000 0.000000 0.055499 0.000000 0.000000
# 5 0.000000 0.000000 0.000000 0.000000 0.055499 0.000000
# 6 0.000000 0.000000 0.000000 0.000000 0.000000 0.023517
#
#
# Mechanical properties :
#
#
# Convention : Reuss Voigt Hill
#
# Bulk Modulus (GPa) = 53.02497 53.36916 53.19706
# Shear Modulus (GPa) = 27.48014 32.96830 30.22422
#
# Velocity S-wave (km/s) = 3.39008 3.71320 3.55531
# Velocity P-wave (km/s) = 6.12368 6.37994 6.25312
#
# Compressibility (1/GPa) = 0.01885904
#
# Stress axis : x y z
#
# Youngs Moduli (GPa) = 97.62201 97.62242 105.07899
#
# Poissons Ratio (x) = 0.31751 0.12189
# Poissons Ratio (y) = 0.31751 0.12189
# Poissons Ratio (z) = 0.11324 0.11324
#
# Static dielectric constant tensor:
#      x y z
#    x 1.991080 0.000000 0.000000 
#    y 0.000000 1.991080 0.000000 
#    z 0.000000 0.000000 2.035580 
# 
# From -- ./inp_files/6604.got.cif
#   From: 2010.05.17/outbox.cif.g08.bks.cpg/sg133_4_cif.got.tgz:6604.got - 2010.05.20 12:37:36.
