data_PCOD9567229
_publ_section_title
;
Structure prediction by ZEFSAII (Michael W. Deem and Ramdas Pophale) SiO2 
 PCOD9567229
Probable space group: P 42/M C M
;
_chemical_formula_sum "Si O2"
_cell_formula_units_Z 80
_cell_length_a 24.256492
_cell_length_b 24.256492
_cell_length_c 9.874192
_cell_angle_alpha 90.000000
_cell_angle_beta 90.000000
_cell_angle_gamma 90.000000
_cell_volume 5809.751457
_symmetry_space_group_name_H-M "P 42/M C M"
_symmetry_group_IT_number 132
_symmetry_cell_setting 'tetragonal'
loop_
_space_group_symop_operation_xyz
x,y,z
-y,x,1/2+z
-x,-y,z
y,-x,1/2+z
x,-y,1/2-z
-x,y,1/2-z
y,x,-z
-y,-x,-z
-x,-y,-z
y,-x,1/2-z
x,y,-z
-y,x,1/2-z
-x,y,1/2+z
x,-y,1/2+z
-y,-x,z
y,x,z
loop_
_atom_site_type_symbol
_atom_site_label
_atom_site_fract_x
_atom_site_fract_y
_atom_site_fract_z
Si Si1 0.090229 0.998196 0.000000
Si Si2 0.353331 0.445672 0.339327
Si Si3 0.169520 0.000000 0.750000
Si Si4 0.286851 0.192411 0.844213
Si Si5 0.262130 0.643130 0.154469
Si Si6 0.117655 0.210480 0.338108
O O1 0.128639 0.008953 0.126145
O O2 0.040764 0.040764 0.000000
O O3 0.062778 0.937223 0.000000
O O4 0.356842 0.500000 0.250000
O O5 0.355293 0.458116 0.500000
O O6 0.403651 0.403651 0.310119
O O7 0.296853 0.411736 0.314217
O O8 0.202264 0.944503 0.786055
O O9 0.241848 0.241848 0.850266
O O10 0.339245 0.217284 0.764770
O O11 0.257951 0.146627 0.750304
O O12 0.297595 0.175550 0.000000
O O13 0.308071 0.691930 0.152816
O O14 0.240233 0.640011 0.000000
O O15 0.118346 0.221658 0.500000
O O16 0.154924 0.154924 0.318072
#
# Coordination Sequence:
#
# PCOD9567229 Si02
#       6
#     8  16   8  16  16  16
#     4  11  22  34  46  58  74 100 138 180 215 248
#     4   9  18  30  43  61  87 122 161 196 228 257
#     4  12  22  33  46  60  78 104 137 174 218 260
#     4   9  17  27  43  65  82  98 127 169 214 260
#     4   8  14  27  44  60  81 109 140 175 217 263
#     4  10  20  33  45  58  78 105 134 166 212 265
#
# _framework density 13.769952999999999
#
# number of rings (size 3 to 8) (size 9 to 14) (size 15 to 20)
#    0.000    2.500    1.000    3.600    1.400    4.600 
#    0.000    3.000    0.000    0.000    0.000    0.000 
#    0.000    0.000    0.000    0.900    0.000   13.600 
#
# Total GULP energy -445521.837221 kJ/mol
# GULP energy per Si atom -5569.022965 kJ/mol
# Density = 1.373861 g / cm^3
# Si number density = 13.769953 Si / 1000 Ang^3
#
#
#
# Elastic Constant Matrix: (Units=GPa)
#
#
# Indices 1 2 3 4 5 6 
#
# 1 61.6520 54.6179 60.8489 0.0000 0.0000 0.0000
# 2 54.6179 61.6510 60.8484 0.0000 0.0000 0.0000
# 3 60.8489 60.8484 127.1899 0.0000 0.0000 0.0000
# 4 0.0000 0.0000 0.0000 25.0461 0.0000 0.0000
# 5 0.0000 0.0000 0.0000 0.0000 25.0586 0.0000
# 6 0.0000 0.0000 0.0000 0.0000 0.0000 14.5173
#
#
#
# Elastic Compliance Matrix: (Units=1/GPa)
#
#
# Indices 1 2 3 4 5 6 
#
# 1 0.079700 -0.062474 -0.008241 0.000000 0.000000 0.000000
# 2 -0.062474 0.079702 -0.008242 0.000000 0.000000 0.000000
# 3 -0.008241 -0.008242 0.015748 0.000000 0.000000 0.000000
# 4 0.000000 0.000000 0.000000 0.039926 0.000000 0.000000
# 5 0.000000 0.000000 0.000000 0.000000 0.039906 0.000000
# 6 0.000000 0.000000 0.000000 0.000000 0.000000 0.068883
#
#
# Mechanical properties :
#
#
# Convention : Reuss Voigt Hill
#
# Bulk Modulus (GPa) = 58.01896 67.01369 62.51632
# Shear Modulus (GPa) = 10.25587 17.86958 14.06272
#
# Velocity S-wave (km/s) = 2.73206 3.60630 3.19919
# Velocity P-wave (km/s) = 7.22345 8.13098 7.69061
#
# Compressibility (1/GPa) = 0.01723575
#
# Stress axis : x y z
#
# Youngs Moduli (GPa) = 12.54700 12.54677 63.50062
#
# Poissons Ratio (x) = 0.78385 0.52334
# Poissons Ratio (y) = 0.78386 0.52335
# Poissons Ratio (z) = 0.10341 0.10341
#
# Static dielectric constant tensor:
#      x y z
#    x 1.442740 0.000000 0.000000 
#    y 0.000000 1.442740 0.000000 
#    z 0.000000 0.000000 1.450430 
# 
# From -- ./inp_files/1659.got.cif
#   From: 2010.05.17/outbox.cif.g08.bks.cpg/sg132_1_cif.got.tgz:1659.got - 2010.05.20 12:30:18.
