data_PCOD9567570
_publ_section_title
;
Structure prediction by ZEFSAII (Michael W. Deem and Ramdas Pophale) SiO2 
 PCOD9567570
Probable space group: P 42/N B C
;
_chemical_formula_sum "Si O2"
_cell_formula_units_Z 44
_cell_length_a 10.649606
_cell_length_b 10.649606
_cell_length_c 18.953587
_cell_angle_alpha 90.000000
_cell_angle_beta 90.000000
_cell_angle_gamma 90.000000
_cell_volume 2149.604162
_symmetry_space_group_name_H-M "P 42/N B C"
_symmetry_group_IT_number 133
_space_group.IT_coordinate_system_code '2'
_symmetry_cell_setting 'tetragonal'
loop_
_space_group_symop_operation_xyz
x,y,z
1/2-y,x,1/2+z
1/2-x,1/2-y,z
y,1/2-x,1/2+z
x,1/2-y,-z
1/2-x,y,-z
y,x,1/2-z
1/2-y,1/2-x,1/2-z
-x,-y,-z
1/2+y,-x,1/2-z
1/2+x,1/2+y,-z
-y,1/2+x,1/2-z
-x,1/2+y,z
1/2+x,-y,z
-y,-x,1/2+z
1/2+y,1/2+x,1/2+z
loop_
_atom_site_type_symbol
_atom_site_label
_atom_site_fract_x
_atom_site_fract_y
_atom_site_fract_z
Si Si1 0.141899 0.110606 0.628781
Si Si2 0.250000 0.750000 0.750000
Si Si3 0.974633 0.391919 0.816376
Si Si4 0.250000 0.250000 0.500000
Si Si5 0.250000 0.250000 0.250000
O O1 0.165005 0.169505 0.552926
O O2 0.142220 0.215287 0.691741
O O3 0.012528 0.036468 0.633461
O O4 0.267106 0.033526 0.649656
O O5 0.347172 0.836340 0.707135
O O6 0.054230 0.445771 0.750000
#
# Coordination Sequence:
#
# PCOD9567570 Si02
#       5
#    16   4  16   4   4
#     4  11  23  41  67 100 140 191 240 294 367 435
#     4  12  24  40  68 126 140 176 240 326 380 424
#     4  12  23  41  72 108 142 183 244 320 362 431
#     4  10  28  42  64  98 148 206 240 284 374 462
#     4  10  16  34  64  90 128 174 232 290 336 422
#
# _framework density 20.468886000000001
#
# number of rings (size 3 to 8) (size 9 to 14) (size 15 to 20)
#    0.000    0.727    7.273    0.000    5.091    1.455 
#    0.000    0.000    0.000    2.182    0.000    0.000 
#    0.000    0.000    0.000    0.000    0.000    0.000 
#
# Total GULP energy -245231.117029 kJ/mol
# GULP energy per Si atom -5573.434478 kJ/mol
# Density = 2.042230 g / cm^3
# Si number density = 20.468886 Si / 1000 Ang^3
#
#
#
# Elastic Constant Matrix: (Units=GPa)
#
#
# Indices 1 2 3 4 5 6 
#
# 1 142.3153 56.3792 48.1601 0.0000 0.0000 0.0000
# 2 56.3792 142.3150 48.1602 0.0000 0.0000 0.0000
# 3 48.1601 48.1602 142.0724 0.0000 0.0000 0.0000
# 4 0.0000 0.0000 0.0000 15.2394 0.0000 0.0000
# 5 0.0000 0.0000 0.0000 0.0000 15.2396 0.0000
# 6 0.0000 0.0000 0.0000 0.0000 0.0000 35.6937
#
#
#
# Elastic Compliance Matrix: (Units=1/GPa)
#
#
# Indices 1 2 3 4 5 6 
#
# 1 0.008830 -0.002807 -0.002042 0.000000 0.000000 0.000000
# 2 -0.002807 0.008830 -0.002042 0.000000 0.000000 0.000000
# 3 -0.002042 -0.002042 0.008423 0.000000 0.000000 0.000000
# 4 0.000000 0.000000 0.000000 0.065619 0.000000 0.000000
# 5 0.000000 0.000000 0.000000 0.000000 0.065619 0.000000
# 6 0.000000 0.000000 0.000000 0.000000 0.000000 0.028016
#
#
# Mechanical properties :
#
#
# Convention : Reuss Voigt Hill
#
# Bulk Modulus (GPa) = 81.28979 81.34462 81.31720
# Shear Modulus (GPa) = 24.60426 31.50141 28.05283
#
# Velocity S-wave (km/s) = 3.47079 3.92725 3.70606
# Velocity P-wave (km/s) = 7.47408 7.77118 7.62408
#
# Compressibility (1/GPa) = 0.01230167
#
# Stress axis : x y z
#
# Youngs Moduli (GPa) = 113.25626 113.25593 118.72597
#
# Poissons Ratio (x) = 0.31791 0.24238
# Poissons Ratio (y) = 0.31791 0.24238
# Poissons Ratio (z) = 0.23122 0.23122
#
# Static dielectric constant tensor:
#      x y z
#    x 1.903540 0.000000 0.000000 
#    y 0.000000 1.903540 0.000000 
#    z 0.000000 0.000000 1.695330 
# 
# From -- ./inp_files/5065.got.cif
#   From: 2010.05.17/outbox.cif.g08.bks.cpg/sg133_3_cif.got.tgz:5065.got - 2010.05.20 12:37:36.
