data_PCOD9567892
_publ_section_title
;
Structure prediction by ZEFSAII (Michael W. Deem and Ramdas Pophale) SiO2 
 PCOD9567892
Probable space group: P 42/N B C
;
_chemical_formula_sum "Si O2"
_cell_formula_units_Z 96
_cell_length_a 14.218450
_cell_length_b 14.218450
_cell_length_c 21.286800
_cell_angle_alpha 90.000000
_cell_angle_beta 90.000000
_cell_angle_gamma 90.000000
_cell_volume 4303.431456
_symmetry_space_group_name_H-M "P 42/N B C"
_symmetry_group_IT_number 133
_space_group.IT_coordinate_system_code '2'
_symmetry_cell_setting 'tetragonal'
loop_
_space_group_symop_operation_xyz
x,y,z
1/2-y,x,1/2+z
1/2-x,1/2-y,z
y,1/2-x,1/2+z
x,1/2-y,-z
1/2-x,y,-z
y,x,1/2-z
1/2-y,1/2-x,1/2-z
-x,-y,-z
1/2+y,-x,1/2-z
1/2+x,1/2+y,-z
-y,1/2+x,1/2-z
-x,1/2+y,z
1/2+x,-y,z
-y,-x,1/2+z
1/2+y,1/2+x,1/2+z
loop_
_atom_site_type_symbol
_atom_site_label
_atom_site_fract_x
_atom_site_fract_y
_atom_site_fract_z
Si Si1 0.102797 0.735069 0.753919
Si Si2 0.562501 0.861551 0.813008
Si Si3 0.817587 0.670615 0.913016
Si Si4 0.004800 0.360325 0.009522
Si Si5 0.582348 0.678717 0.690569
Si Si6 0.990767 0.513809 0.393585
O O1 0.166138 0.821571 0.779434
O O2 0.044054 0.668370 0.800592
O O3 0.015998 0.780666 0.716913
O O4 0.621955 0.878046 0.750000
O O5 0.606518 0.789233 0.862482
O O6 0.563575 0.961043 0.849266
O O7 0.750000 0.750000 0.937287
O O8 0.884635 0.629687 0.967731
O O9 0.750898 0.615197 0.863908
O O10 0.951912 0.419371 0.064157
O O11 0.986448 0.250000 0.000000
O O12 0.985557 0.414867 0.945297
O O13 0.650782 0.650782 0.750000
O O14 0.556804 0.584829 0.653680
#
# Coordination Sequence:
#
# PCOD9567892 Si02
#       6
#    16  16  16  16  16  16
#     4  11  24  40  59  92 142 177 214 269 342 425
#     4  11  21  41  64  95 138 174 223 282 347 432
#     4  11  24  39  66 101 135 175 222 295 354 417
#     4  10  23  46  66  94 134 180 242 299 346 416
#     4  12  24  40  68 102 139 178 226 288 361 436
#     4  10  23  42  67  95 128 185 237 284 352 422
#
# _framework density 22.307779
#
# number of rings (size 3 to 8) (size 9 to 14) (size 15 to 20)
#    0.000    1.167    3.333    2.500    0.000    3.667 
#    0.000    0.000    0.000    0.000    0.000    1.167 
#    0.000    0.000    0.000    0.000    0.000    0.000 
#
# Total GULP energy -534768.679354 kJ/mol
# GULP energy per Si atom -5570.507077 kJ/mol
# Density = 2.225701 g / cm^3
# Si number density = 22.307779 Si / 1000 Ang^3
#
#
#
# Elastic Constant Matrix: (Units=GPa)
#
#
# Indices 1 2 3 4 5 6 
#
# 1 98.9514 18.2058 28.5305 0.0000 0.0000 0.0000
# 2 18.2058 98.9515 28.5307 0.0000 0.0000 0.0000
# 3 28.5305 28.5307 105.8592 0.0000 0.0000 0.0000
# 4 0.0000 0.0000 0.0000 37.1553 0.0000 0.0000
# 5 0.0000 0.0000 0.0000 0.0000 37.1551 0.0000
# 6 0.0000 0.0000 0.0000 0.0000 0.0000 36.4001
#
#
#
# Elastic Compliance Matrix: (Units=1/GPa)
#
#
# Indices 1 2 3 4 5 6 
#
# 1 0.011105 -0.001280 -0.002648 0.000000 0.000000 0.000000
# 2 -0.001280 0.011105 -0.002648 0.000000 0.000000 0.000000
# 3 -0.002648 -0.002648 0.010874 0.000000 0.000000 0.000000
# 4 0.000000 0.000000 0.000000 0.026914 0.000000 0.000000
# 5 0.000000 0.000000 0.000000 0.000000 0.026914 0.000000
# 6 0.000000 0.000000 0.000000 0.000000 0.000000 0.027472
#
#
# Mechanical properties :
#
#
# Convention : Reuss Voigt Hill
#
# Bulk Modulus (GPa) = 50.17004 50.47733 50.32369
# Shear Modulus (GPa) = 37.26338 37.37511 37.31925
#
# Velocity S-wave (km/s) = 4.09151 4.09764 4.09458
# Velocity P-wave (km/s) = 6.69771 6.71300 6.70536
#
# Compressibility (1/GPa) = 0.01993221
#
# Stress axis : x y z
#
# Youngs Moduli (GPa) = 90.05021 90.05021 91.96347
#
# Poissons Ratio (x) = 0.11523 0.24352
# Poissons Ratio (y) = 0.11523 0.24353
# Poissons Ratio (z) = 0.23846 0.23846
#
# Static dielectric constant tensor:
#      x y z
#    x 1.911450 0.000000 0.000000 
#    y 0.000000 1.911450 0.000000 
#    z 0.000000 0.000000 1.883200 
# 
# From -- ./inp_files/6535.got.cif
#   From: 2010.05.17/outbox.cif.g08.bks.cpg/sg133_4_cif.got.tgz:6535.got - 2010.05.20 12:37:36.
