data_PCOD9567326
_publ_section_title
;
Structure prediction by ZEFSAII (Michael W. Deem and Ramdas Pophale) SiO2 
 PCOD9567326
Probable space group: P 42/M C M
;
_chemical_formula_sum "Si O2"
_cell_formula_units_Z 96
_cell_length_a 24.480826
_cell_length_b 24.480826
_cell_length_c 8.738449
_cell_angle_alpha 90.000000
_cell_angle_beta 90.000000
_cell_angle_gamma 90.000000
_cell_volume 5237.047225
_symmetry_space_group_name_H-M "P 42/M C M"
_symmetry_group_IT_number 132
_symmetry_cell_setting 'tetragonal'
loop_
_space_group_symop_operation_xyz
x,y,z
-y,x,1/2+z
-x,-y,z
y,-x,1/2+z
x,-y,1/2-z
-x,y,1/2-z
y,x,-z
-y,-x,-z
-x,-y,-z
y,-x,1/2-z
x,y,-z
-y,x,1/2-z
-x,y,1/2+z
x,-y,1/2+z
-y,-x,z
y,x,z
loop_
_atom_site_type_symbol
_atom_site_label
_atom_site_fract_x
_atom_site_fract_y
_atom_site_fract_z
Si Si1 0.675626 0.054562 0.820482
Si Si2 0.209727 0.557675 0.814510
Si Si3 0.446722 0.915775 0.177955
Si Si4 0.750123 0.861775 0.177907
Si Si5 0.319756 0.765375 0.180359
Si Si6 0.062571 0.847979 0.816101
O O1 0.610609 0.054859 0.806638
O O2 0.698379 0.100463 0.711501
O O3 0.699790 0.000000 0.750000
O O4 0.689452 0.062574 0.000000
O O5 0.232282 0.500000 0.750000
O O6 0.146202 0.559751 0.763497
O O7 0.232007 0.617351 0.765750
O O8 0.212805 0.555366 0.000000
O O9 0.500000 0.941129 0.250000
O O10 0.458138 0.910951 0.000000
O O11 0.724925 0.805930 0.244922
O O12 0.800258 0.895645 0.255921
O O13 0.762970 0.855664 0.000000
O O14 0.294746 0.705255 0.195602
O O15 0.320717 0.780770 0.000000
O O16 0.094884 0.905117 0.781748
O O17 0.000000 0.845367 0.750000
O O18 0.058771 0.842366 0.000000
#
# Coordination Sequence:
#
# PCOD9567326 Si02
#       6
#    16  16  16  16  16  16
#     4  11  22  37  53  73 102 138 182 229 275 326
#     4   9  17  32  52  77 106 144 185 223 272 325
#     4   9  18  32  50  69  97 133 175 224 270 322
#     4  12  24  38  58  84 114 147 182 224 273 327
#     4  10  20  36  58  83 114 150 188 229 273 326
#     4  11  25  45  68  91 116 146 178 218 272 333
#
# _framework density 18.330939999999998
#
# number of rings (size 3 to 8) (size 9 to 14) (size 15 to 20)
#    0.000    1.667    1.667    3.500    0.000    6.167 
#    0.000    2.500    0.000    0.000    0.000    0.000 
#    0.000    0.333    0.000    4.167    0.000    0.000 
#
# Total GULP energy -534669.797838 kJ/mol
# GULP energy per Si atom -5569.477061 kJ/mol
# Density = 1.828922 g / cm^3
# Si number density = 18.330940 Si / 1000 Ang^3
#
#
#
# Elastic Constant Matrix: (Units=GPa)
#
#
# Indices 1 2 3 4 5 6 
#
# 1 90.9319 54.5486 47.8868 0.0000 0.0000 0.0000
# 2 54.5486 90.9319 47.8868 0.0000 0.0000 0.0000
# 3 47.8868 47.8868 53.2268 0.0000 0.0000 0.0000
# 4 0.0000 0.0000 0.0000 21.9789 0.0000 0.0000
# 5 0.0000 0.0000 0.0000 0.0000 21.9789 0.0000
# 6 0.0000 0.0000 0.0000 0.0000 0.0000 -112.4014
#
#
#
# Elastic Compliance Matrix: (Units=1/GPa)
#
#
# Indices 1 2 3 4 5 6 
#
# 1 0.022172 -0.005313 -0.015168 0.000000 0.000000 0.000000
# 2 -0.005313 0.022172 -0.015168 0.000000 0.000000 0.000000
# 3 -0.015168 -0.015168 0.046079 0.000000 0.000000 0.000000
# 4 0.000000 0.000000 0.000000 0.045498 0.000000 0.000000
# 5 0.000000 0.000000 0.000000 0.000000 0.045498 0.000000
# 6 0.000000 0.000000 0.000000 0.000000 0.000000 -0.008897
#
#
# Mechanical properties :
#
#
# Convention : Reuss Voigt Hill
#
# Bulk Modulus (GPa) = 52.28239 59.52610 55.90424
# Shear Modulus (GPa) = 19.98443 -8.03747 5.97348
#
# Velocity S-wave (km/s) = 3.30540 -2.09623 1.80714
# Velocity P-wave (km/s) = 6.56893 5.16572 5.90912
#
# Compressibility (1/GPa) = 0.01912690
#
# Stress axis : x y z
#
# Youngs Moduli (GPa) = 45.10188 45.10188 21.70177
#
# Poissons Ratio (x) = 0.23963 0.32916
# Poissons Ratio (y) = 0.23963 0.32916
# Poissons Ratio (z) = 0.68409 0.68409
#
# Static dielectric constant tensor:
#      x y z
#    x 1.618630 0.000000 0.000000 
#    y 0.000000 1.618630 0.000000 
#    z 0.000000 0.000000 1.639270 
# 
# From -- ./inp_files/1782.got.cif
#   From: 2010.05.17/outbox.cif.g08.bks.cpg/sg132_1_cif.got.tgz:1782.got - 2010.05.20 12:30:18.
