data_PCOD9567425
_publ_section_title
;
Structure prediction by ZEFSAII (Michael W. Deem and Ramdas Pophale) SiO2 
 PCOD9567425
Probable space group: P 42/M C M
;
_chemical_formula_sum "Si O2"
_cell_formula_units_Z 58
_cell_length_a 18.740176
_cell_length_b 18.740176
_cell_length_c 8.225823
_cell_angle_alpha 90.000000
_cell_angle_beta 90.000000
_cell_angle_gamma 90.000000
_cell_volume 2888.861299
_symmetry_space_group_name_H-M "P 42/M C M"
_symmetry_group_IT_number 132
_symmetry_cell_setting 'tetragonal'
loop_
_space_group_symop_operation_xyz
x,y,z
-y,x,1/2+z
-x,-y,z
y,-x,1/2+z
x,-y,1/2-z
-x,y,1/2-z
y,x,-z
-y,-x,-z
-x,-y,-z
y,-x,1/2-z
x,y,-z
-y,x,1/2-z
-x,y,1/2+z
x,-y,1/2+z
-y,-x,z
y,x,z
loop_
_atom_site_type_symbol
_atom_site_label
_atom_site_fract_x
_atom_site_fract_y
_atom_site_fract_z
Si Si1 0.577065 0.149637 0.304922
Si Si2 0.116004 0.116004 0.191088
Si Si3 0.000000 0.000000 0.250000
Si Si4 0.575025 0.687084 0.804280
Si Si5 0.080284 0.274712 0.307125
O O1 0.500000 0.118271 0.250000
O O2 0.578011 0.147448 0.500000
O O3 0.577587 0.231712 0.245564
O O4 0.651403 0.117828 0.243108
O O5 0.103844 0.199544 0.228224
O O6 0.101020 0.101020 0.000000
O O7 0.062065 0.062065 0.287938
O O8 0.500000 0.654922 0.750000
O O9 0.640712 0.640712 0.744091
O O10 0.577220 0.688853 0.000000
O O11 0.085984 0.266029 0.500000
O O12 0.000000 0.284440 0.250000
#
# Coordination Sequence:
#
# PCOD9567425 Si02
#       5
#    16   8   2  16  16
#     4  10  21  40  65  92 126 167 212 265 326 386
#     4  12  26  45  70 101 137 176 221 273 331 390
#     4  12  26  44  80 102 138 180 222 264 330 384
#     4   9  19  35  55  82 115 156 201 249 307 369
#     4  12  26  44  66  97 131 167 216 265 319 388
#
# _framework density 20.077116
#
# number of rings (size 3 to 8) (size 9 to 14) (size 15 to 20)
#    0.000    1.379    1.379    3.931    1.931    3.586 
#    0.000    4.138    0.000    0.000    0.000    0.000 
#    0.000    0.000    0.000    0.000    0.000    0.000 
#
# Total GULP energy -323250.618063 kJ/mol
# GULP energy per Si atom -5573.286518 kJ/mol
# Density = 2.003142 g / cm^3
# Si number density = 20.077116 Si / 1000 Ang^3
#
#
#
# Elastic Constant Matrix: (Units=GPa)
#
#
# Indices 1 2 3 4 5 6 
#
# 1 -94.6991 309.5508 8.6114 0.0000 0.0000 0.0000
# 2 309.5508 -94.6991 8.6114 0.0000 0.0000 0.0000
# 3 8.6114 8.6114 55.6829 0.0000 0.0000 0.0000
# 4 0.0000 0.0000 0.0000 23.5095 0.0000 0.0000
# 5 0.0000 0.0000 0.0000 0.0000 23.5095 0.0000
# 6 0.0000 0.0000 0.0000 0.0000 0.0000 42.5491
#
#
#
# Elastic Compliance Matrix: (Units=1/GPa)
#
#
# Indices 1 2 3 4 5 6 
#
# 1 0.001120 0.003593 -0.000729 0.000000 0.000000 0.000000
# 2 0.003593 0.001120 -0.000729 0.000000 0.000000 0.000000
# 3 -0.000729 -0.000729 0.018184 0.000000 0.000000 0.000000
# 4 0.000000 0.000000 0.000000 0.042536 0.000000 0.000000
# 5 0.000000 0.000000 0.000000 0.000000 0.042536 0.000000
# 6 0.000000 0.000000 0.000000 0.000000 0.000000 0.023502
#
#
# Mechanical properties :
#
#
# Convention : Reuss Voigt Hill
#
# Bulk Modulus (GPa) = 40.49485 57.75911 49.12698
# Shear Modulus (GPa) = 37.60584 -12.78566 12.41009
#
# Velocity S-wave (km/s) = 4.33259 -2.52628 2.48890
# Velocity P-wave (km/s) = 6.72621 4.50795 5.72554
#
# Compressibility (1/GPa) = 0.02469450
#
# Stress axis : x y z
#
# Youngs Moduli (GPa) = 893.22373 893.22373 54.99263
#
# Poissons Ratio (x) = -3.20958 0.04008
# Poissons Ratio (y) = -3.20958 0.04008
# Poissons Ratio (z) = 0.65102 0.65102
#
# Static dielectric constant tensor:
#      x y z
#    x 1.789590 0.000000 0.000000 
#    y 0.000000 1.789590 0.000000 
#    z 0.000000 0.000000 1.733300 
# 
# From -- ./inp_files/1014.got.cif
#   From: 2010.05.17/outbox.cif.g08.bks.cpg/sg132_1_cif.got.tgz:1014.got - 2010.05.20 12:30:18.
