data_PCOD9567161
_publ_section_title
;
Structure prediction by ZEFSAII (Michael W. Deem and Ramdas Pophale) SiO2 
 PCOD9567161
Probable space group: P 42/M C M
;
_chemical_formula_sum "Si O2"
_cell_formula_units_Z 96
_cell_length_a 23.194275
_cell_length_b 23.194275
_cell_length_c 9.954447
_cell_angle_alpha 90.000000
_cell_angle_beta 90.000000
_cell_angle_gamma 90.000000
_cell_volume 5355.237580
_symmetry_space_group_name_H-M "P 42/M C M"
_symmetry_group_IT_number 132
_symmetry_cell_setting 'tetragonal'
loop_
_space_group_symop_operation_xyz
x,y,z
-y,x,1/2+z
-x,-y,z
y,-x,1/2+z
x,-y,1/2-z
-x,y,1/2-z
y,x,-z
-y,-x,-z
-x,-y,-z
y,-x,1/2-z
x,y,-z
-y,x,1/2-z
-x,y,1/2+z
x,-y,1/2+z
-y,-x,z
y,x,z
loop_
_atom_site_type_symbol
_atom_site_label
_atom_site_fract_x
_atom_site_fract_y
_atom_site_fract_z
Si Si1 0.269292 0.869256 0.347565
Si Si2 0.323080 0.951842 0.848977
Si Si3 0.057692 0.152426 0.158815
Si Si4 0.555922 0.214771 0.159267
Si Si5 0.076802 0.453287 0.355347
Si Si6 0.661874 0.245723 0.652210
O O1 0.286303 0.888708 0.500000
O O2 0.306303 0.894194 0.226085
O O3 0.205450 0.896013 0.326555
O O4 0.287113 0.802458 0.343022
O O5 0.392099 0.954339 0.852067
O O6 0.299138 0.000000 0.750000
O O7 0.301000 0.956267 0.000000
O O8 0.094192 0.094192 0.189071
O O9 0.000000 0.158007 0.250000
O O10 0.041821 0.151755 0.000000
O O11 0.500000 0.231141 0.250000
O O12 0.558646 0.144970 0.161397
O O13 0.613085 0.236196 0.236337
O O14 0.552328 0.231199 0.000000
O O15 0.059456 0.500000 0.250000
O O16 0.068517 0.480541 0.500000
O O17 0.637082 0.240597 0.500000
O O18 0.693172 0.306829 0.666850
#
# Coordination Sequence:
#
# PCOD9567161 Si02
#       6
#    16  16  16  16  16  16
#     4  10  20  36  57  79 105 140 174 213 264 320
#     4  11  22  35  49  71 100 133 175 223 269 318
#     4  10  22  40  60  82 107 134 168 212 264 325
#     4  10  19  34  54  78 108 146 187 228 274 322
#     4   9  19  33  49  68  95 130 172 220 266 313
#     4  10  20  34  55  84 115 147 184 224 269 323
#
# _framework density 17.926375
#
# number of rings (size 3 to 8) (size 9 to 14) (size 15 to 20)
#    0.000    2.000    1.667    2.000    0.000    7.167 
#    0.000    2.500    0.000    3.000    0.000    0.000 
#    0.000    0.333    0.000    3.500    0.000    1.500 
#
# Total GULP energy -534759.577697 kJ/mol
# GULP energy per Si atom -5570.412268 kJ/mol
# Density = 1.788557 g / cm^3
# Si number density = 17.926375 Si / 1000 Ang^3
#
#
#
# Elastic Constant Matrix: (Units=GPa)
#
#
# Indices 1 2 3 4 5 6 
#
# 1 63.8946 31.0733 58.2077 0.0000 0.0000 0.0000
# 2 31.0733 63.8946 58.2077 0.0000 0.0000 0.0000
# 3 58.2077 58.2077 163.2235 0.0000 0.0000 0.0000
# 4 0.0000 0.0000 0.0000 -0.8835 0.0000 0.0000
# 5 0.0000 0.0000 0.0000 0.0000 -0.8835 0.0000
# 6 0.0000 0.0000 0.0000 0.0000 0.0000 11.5804
#
#
#
# Elastic Compliance Matrix: (Units=1/GPa)
#
#
# Indices 1 2 3 4 5 6 
#
# 1 0.024588 -0.005880 -0.006672 0.000000 0.000000 0.000000
# 2 -0.005880 0.024588 -0.006672 0.000000 0.000000 0.000000
# 3 -0.006672 -0.006672 0.010885 0.000000 0.000000 0.000000
# 4 0.000000 0.000000 0.000000 -1.131901 0.000000 0.000000
# 5 0.000000 0.000000 0.000000 0.000000 -1.131901 0.000000
# 6 0.000000 0.000000 0.000000 0.000000 0.000000 0.086353
#
#
# Mechanical properties :
#
#
# Convention : Reuss Voigt Hill
#
# Bulk Modulus (GPa) = 46.26433 65.11002 55.68718
# Shear Modulus (GPa) = -2.41343 11.53095 4.55876
#
# Velocity S-wave (km/s) = -1.16156 2.53897 1.59642
# Velocity P-wave (km/s) = 4.90561 6.70782 5.87622
#
# Compressibility (1/GPa) = 0.02161492
#
# Stress axis : x y z
#
# Youngs Moduli (GPa) = 40.67009 40.67009 91.87013
#
# Poissons Ratio (x) = 0.23914 0.61292
# Poissons Ratio (y) = 0.23914 0.61292
# Poissons Ratio (z) = 0.27133 0.27133
#
# Static dielectric constant tensor:
#      x y z
#    x 1.631080 0.000000 0.000000 
#    y 0.000000 1.631080 0.000000 
#    z 0.000000 0.000000 1.670030 
# 
# From -- ./inp_files/1734.got.cif
#   From: 2010.05.17/outbox.cif.g08.bks.cpg/sg132_1_cif.got.tgz:1734.got - 2010.05.20 12:30:18.
